ucsf371
     RDKit          3D

  9  9  0  0  0  0  0  0  0  0999 V2000
   -5.1320   15.1580    0.4130 C   0  0  0  0  0  0  0  0  0  0  0  0
   -4.1700   15.1460   -0.7440 C   0  0  0  0  0  0  0  0  0  0  0  0
   -4.5470   15.1440   -2.0100 N   0  0  0  0  0  0  0  0  0  0  0  0
   -3.5660   15.1120   -2.9260 C   0  0  0  0  0  0  0  0  0  0  0  0
   -2.2850   15.0710   -2.3880 C   0  0  2  0  0  0  0  0  0  0  0  0
   -2.5070   15.1050   -0.6850 S   0  0  0  0  0  0  0  0  0  0  0  0
   -1.0060   15.0540   -3.2000 C   0  0  0  0  0  0  0  0  0  0  0  0
   -1.0380   14.8840   -4.4500 O   0  0  0  0  0  0  0  0  0  0  0  0
    0.0800   15.2450   -2.6050 O   0  0  0  0  0  0  0  0  0  0  0  0
  1  2  1  0
  2  3  1  0
  3  4  1  0
  4  5  1  0
  2  6  1  0
  5  6  1  0
  5  7  1  6
  7  8  1  0
  7  9  1  0
M  CHG  1   9  -1
M  END
