ucsf278-ucsf333
     RDKit          3D

 27 30  0  0  0  0  0  0  0  0999 V2000
    2.2500   12.5490   -3.0620 Cl  0  0  0  0  0  0  0  0  0  0  0  0
    2.1210   13.5510   -4.5160 C   0  0  1  0  0  0  0  0  0  0  0  0
    0.9320   13.3260   -5.4770 C   0  0  1  0  0  0  0  0  0  0  0  0
    2.1430   14.9680   -3.9420 C   0  0  0  0  0  0  0  0  0  0  0  0
    0.5870   11.9920   -6.1360 C   0  0  0  0  0  0  0  0  0  0  0  0
   -0.3550   13.5530   -4.7770 C   0  0  2  0  0  0  0  0  0  0  0  0
    0.8050   15.6370   -4.0470 C   0  0  0  0  0  0  0  0  0  0  0  0
   -0.9560   12.0160   -6.2210 C   0  0  1  0  0  0  0  0  0  0  0  0
   -1.3300   13.3590   -5.7880 N   0  0  0  0  0  0  0  0  0  0  0  0
   -0.2580   14.5900   -3.6720 C   0  0  2  0  0  0  0  0  0  0  0  0
   -1.5640   11.5370   -7.5400 C   0  0  0  0  0  0  0  0  0  0  0  0
    0.1080   13.9760   -2.2870 C   0  0  2  0  0  0  0  0  0  0  0  0
   -2.4030   10.4090   -7.3360 O   0  0  0  0  0  0  0  0  0  0  0  0
    0.8030   12.5980   -2.4000 C   0  0  0  0  0  0  0  0  0  0  0  0
   -1.0070   13.9460   -1.2720 C   0  0  2  0  0  0  0  0  0  0  0  0
   -0.0120   11.3130   -2.2230 C   0  0  2  0  0  0  0  0  0  0  0  0
   -2.2270   14.2610   -1.9920 N   0  0  0  0  0  0  0  0  0  0  0  0
   -1.0280   14.8320    0.2760 S   0  0  0  0  0  0  0  0  0  0  0  0
    0.4900   10.6200   -1.2560 O   0  0  0  0  0  0  0  0  0  0  0  0
    0.2460   10.4500   -3.3080 O   0  0  0  0  0  0  0  0  0  0  0  0
   -3.3200   14.2350   -1.0710 C   0  0  1  0  0  0  0  0  0  0  0  0
   -2.7920   14.4260    0.3870 C   0  0  2  0  0  0  0  0  0  0  0  0
   -4.2930   15.3160   -1.5560 C   0  0  0  0  0  0  0  0  0  0  0  0
   -3.6280   15.3930    1.1930 C   0  0  0  0  0  0  0  0  0  0  0  0
   -5.3900   15.6500   -0.5460 C   0  0  2  0  0  0  0  0  0  0  0  0
   -5.0770   15.1070    0.8590 C   0  0  0  0  0  0  0  0  0  0  0  0
   -6.9480   15.0120   -1.1780 Cl  0  0  0  0  0  0  0  0  0  0  0  0
  2  1  1  1
  2  3  1  0
  2  4  1  0
  3  5  1  1
  3  6  1  0
  4  7  1  0
  5  8  1  0
  6  9  1  6
  8  9  1  0
  6 10  1  0
 10  7  1  6
  8 11  1  6
 10 12  1  0
 11 13  1  0
 12 14  1  6
 12 15  1  0
 14 16  1  0
 15 17  1  6
 15 18  1  0
 16 19  1  1
 16 20  1  0
 17 21  1  0
 18 22  1  0
 21 22  1  0
 21 23  1  6
 22 24  1  6
 23 25  1  0
 24 26  1  0
 25 26  1  0
 25 27  1  6
M  CHG  1  19  -1
M  END
