ucsf422-ucsf028
     RDKit          3D

 32 36  0  0  0  0  0  0  0  0999 V2000
    2.0450   11.2420   -3.7190 O   0  0  0  0  0  0  0  0  0  0  0  0
    1.0810   12.0390   -3.4060 C   0  0  1  0  0  0  0  0  0  0  0  0
    1.4330   12.5570   -2.1570 O   0  0  0  0  0  0  0  0  0  0  0  0
    0.9230   13.1720   -4.4580 C   0  0  0  0  0  0  0  0  0  0  0  0
   -0.1400   11.3060   -3.4180 N   0  0  0  0  0  0  0  0  0  0  0  0
    0.8750   14.6290   -3.9570 C   0  0  1  0  0  0  0  0  0  0  0  0
   -0.8770   11.9040   -2.3220 O   0  0  0  0  0  0  0  0  0  0  0  0
   -0.8510   11.6240   -4.6500 C   0  0  1  0  0  0  0  0  0  0  0  0
   -1.2070   10.4770   -5.4320 O   0  0  0  0  0  0  0  0  0  0  0  0
    1.7740   15.4130   -4.8000 C   0  0  0  0  0  0  0  0  0  0  0  0
   -0.3970   15.4770   -4.1320 C   0  0  1  0  0  0  0  0  0  0  0  0
   -2.1170   12.3170   -4.2820 C   0  0  0  0  0  0  0  0  0  0  0  0
   -1.8300   12.7900   -2.8870 C   0  0  2  0  0  0  0  0  0  0  0  0
   -1.3040   14.2210   -2.7950 C   0  0  0  0  0  0  0  0  0  0  0  0
   -0.9210   10.7890   -6.7970 C   0  0  0  0  0  0  0  0  0  0  0  0
    1.4760   16.8290   -4.6600 N   0  0  0  0  0  0  0  0  0  0  0  0
    0.0610   16.9020   -4.5040 C   0  0  1  0  0  0  0  0  0  0  0  0
   -1.5650   14.9680   -4.9640 C   0  0  0  0  0  0  0  0  0  0  0  0
   -0.6080   17.5380   -5.7070 C   0  0  0  0  0  0  0  0  0  0  0  0
   -2.6280   16.0410   -5.1480 C   0  0  2  0  0  0  0  0  0  0  0  0
   -1.9190   14.8920   -1.6630 N   0  0  0  0  0  0  0  0  0  0  0  0
   -4.0880   15.2560   -6.1780 Br  0  0  0  0  0  0  0  0  0  0  0  0
   -2.1290   17.3550   -5.7490 C   0  0  0  0  0  0  0  0  0  0  0  0
   -3.3550   15.0750   -1.8820 C   0  0  0  0  0  0  0  0  0  0  0  0
   -1.6150   14.0740   -0.5250 C   0  0  2  0  0  0  0  0  0  0  0  0
   -3.9720   15.6640   -0.7130 N   0  0  0  0  0  0  0  0  0  0  0  0
   -2.3250   14.4730    0.7620 C   0  0  2  0  0  0  0  0  0  0  0  0
   -0.2020   14.1840   -0.1990 N   0  0  0  0  0  0  0  0  0  0  0  0
   -3.8010   14.8200    0.4490 C   0  0  1  0  0  0  0  0  0  0  0  0
   -1.3930   15.4140    1.3530 N   0  0  0  0  0  0  0  0  0  0  0  0
   -0.1240   14.7420    1.1200 C   0  0  0  0  0  0  0  0  0  0  0  0
   -4.5030   15.5300    1.4980 N   0  0  0  0  0  0  0  0  0  0  0  0
  2  1  1  6
  2  3  1  0
  2  4  1  0
  2  5  1  0
  6  4  1  6
  5  7  1  0
  5  8  1  0
  8  9  1  1
  6 10  1  0
  6 11  1  0
  8 12  1  0
  7 13  1  0
 12 13  1  0
 13 14  1  6
  9 15  1  0
 10 16  1  0
 11 17  1  0
 16 17  1  0
 11 18  1  6
 17 19  1  6
 18 20  1  0
 14 21  1  0
 20 22  1  6
 19 23  1  0
 20 23  1  0
 21 24  1  0
 21 25  1  0
 24 26  1  0
 25 27  1  0
 25 28  1  1
 26 29  1  0
 27 29  1  0
 27 30  1  6
 28 31  1  0
 30 31  1  0
 29 32  1  1
M  CHG  1   1  -1
M  END
