ucsf005-ucsf274
     RDKit          3D

 29 32  0  0  0  0  0  0  0  0999 V2000
   -1.1070   15.0550   -3.5080 C   0  0  0  0  0  0  0  0  0  0  0  0
   -2.2050   15.1190   -2.5680 N   0  0  0  0  0  0  0  0  0  0  0  0
   -3.4800   14.5690   -3.0410 C   0  0  1  0  0  0  0  0  0  0  0  0
   -2.0550   14.4500   -1.2930 C   0  0  2  0  0  0  0  0  0  0  0  0
   -3.2970   13.2970   -3.9800 C   0  0  0  0  0  0  0  0  0  0  0  0
   -4.2740   14.3680   -1.7800 N   0  0  0  0  0  0  0  0  0  0  0  0
   -3.3790   14.9030   -0.7330 C   0  0  1  0  0  0  0  0  0  0  0  0
   -0.9360   14.8690   -0.5080 N   0  0  0  0  0  0  0  0  0  0  0  0
   -2.2110   12.4180   -3.5980 O   0  0  0  0  0  0  0  0  0  0  0  0
   -3.5100   14.5110    0.7580 C   0  0  2  0  0  0  0  0  0  0  0  0
   -1.0710   14.2710    0.7690 C   0  0  1  0  0  0  0  0  0  0  0  0
   -4.5260   15.2150    1.5160 N   0  0  0  0  0  0  0  0  0  0  0  0
    0.0340   14.6580    1.5670 N   0  0  0  0  0  0  0  0  0  0  0  0
   -2.2560   14.6660    1.4880 N   0  0  0  0  0  0  0  0  0  0  0  0
   -1.6060   11.4830   -4.5520 C   0  0  2  0  0  0  0  0  0  0  0  0
   -0.6030   12.1800   -5.5560 C   0  0  1  0  0  0  0  0  0  0  0  0
   -2.5830   10.6140   -5.2250 N   0  0  0  0  0  0  0  0  0  0  0  0
    0.6220   12.7960   -4.8610 C   0  0  0  0  0  0  0  0  0  0  0  0
   -1.8100    9.6200   -6.0070 C   0  0  2  0  0  0  0  0  0  0  0  0
   -0.0100   11.2900   -6.6140 N   0  0  0  0  0  0  0  0  0  0  0  0
    0.3950   13.0350   -3.3620 C   0  0  0  0  0  0  0  0  0  0  0  0
   -0.9390   10.2630   -7.1240 C   0  0  1  0  0  0  0  0  0  0  0  0
   -2.7670    8.5480   -6.5440 C   0  0  0  0  0  0  0  0  0  0  0  0
    1.0290   12.0140   -2.4000 C   0  0  2  0  0  0  0  0  0  0  0  0
   -0.1010    9.2370   -7.9040 C   0  0  0  0  0  0  0  0  0  0  0  0
   -2.2670    7.9380   -7.8510 C   0  0  0  0  0  0  0  0  0  0  0  0
    0.4590   10.8050   -2.4250 O   0  0  0  0  0  0  0  0  0  0  0  0
    0.6620   12.4710   -1.1300 O   0  0  0  0  0  0  0  0  0  0  0  0
   -0.7490    7.8590   -7.9140 C   0  0  0  0  0  0  0  0  0  0  0  0
  1  2  1  0
  2  3  1  0
  2  4  1  0
  3  5  1  1
  3  6  1  0
  4  7  1  0
  7  6  1  6
  4  8  1  1
  5  9  1  0
  7 10  1  0
  8 11  1  0
 10 12  1  1
 11 13  1  1
 10 14  1  0
 11 14  1  0
 15  9  1  6
 15 16  1  0
 15 17  1  0
 16 18  1  1
 17 19  1  0
 16 20  1  0
 18 21  1  0
 19 22  1  0
 20 22  1  0
 19 23  1  6
 21 24  1  0
 22 25  1  1
 23 26  1  0
 24 27  1  6
 24 28  1  0
 25 29  1  0
 26 29  1  0
M  CHG  1  27  -1
M  END
