ucsf339-ucsf511
     RDKit          3D

 24 26  0  0  0  0  0  0  0  0999 V2000
    2.0770   14.8630   -2.2490 O   0  0  0  0  0  0  0  0  0  0  0  0
    0.9190   14.2810   -2.5420 C   0  0  1  0  0  0  0  0  0  0  0  0
    0.7750   13.0420   -1.8950 O   0  0  0  0  0  0  0  0  0  0  0  0
   -0.3370   15.0830   -2.0560 C   0  0  0  0  0  0  0  0  0  0  0  0
   -1.3380   14.4860   -0.9740 C   0  0  0  0  0  0  0  0  0  0  0  0
   -0.2110   12.3720   -2.6040 C   0  0  0  0  0  0  0  0  0  0  0  0
   -2.9290   14.4040   -1.1800 C   0  0  1  0  0  0  0  0  0  0  0  0
   -0.2950   13.0130   -3.9340 N   0  0  0  0  0  0  0  0  0  0  0  0
   -3.5840   13.6220   -0.0210 C   0  0  0  0  0  0  0  0  0  0  0  0
   -1.5790   13.6850   -4.1830 C   0  0  0  0  0  0  0  0  0  0  0  0
   -3.7330   15.7210   -1.2060 C   0  0  0  0  0  0  0  0  0  0  0  0
   -2.7370   12.8100   -3.6260 C   0  0  1  0  0  0  0  0  0  0  0  0
   -3.4510   14.4300    1.2980 C   0  0  0  0  0  0  0  0  0  0  0  0
   -5.0390   13.1540   -0.3450 C   0  0  0  0  0  0  0  0  0  0  0  0
   -5.2590   15.5700   -1.2290 C   0  0  0  0  0  0  0  0  0  0  0  0
   -4.2100   13.3020   -3.8250 C   0  0  1  0  0  0  0  0  0  0  0  0
   -4.6560   15.2810    1.6280 C   0  0  0  0  0  0  0  0  0  0  0  0
   -6.2160   13.9340    0.2600 C   0  0  0  0  0  0  0  0  0  0  0  0
   -5.7420   14.9840   -2.5550 C   0  0  0  0  0  0  0  0  0  0  0  0
   -2.8060   11.4640   -4.3560 C   0  0  0  0  0  0  0  0  0  0  0  0
   -5.9080   14.4350    1.6470 C   0  0  0  0  0  0  0  0  0  0  0  0
   -3.5890   11.7560   -5.6260 C   0  0  0  0  0  0  0  0  0  0  0  0
   -4.5590   14.7700   -3.5340 C   0  0  0  0  0  0  0  0  0  0  0  0
   -4.5130   12.9200   -5.2860 C   0  0  0  0  0  0  0  0  0  0  0  0
  2  1  1  1
  2  3  1  0
  2  4  1  0
  4  5  1  0
  3  6  1  0
  5  7  1  0
  6  8  1  0
  7  9  1  1
  8 10  1  0
  7 11  1  0
 12 10  1  6
  9 13  1  0
  9 14  1  0
 11 15  1  0
 12 16  1  0
 13 17  1  0
 14 18  1  0
 15 19  1  0
 12 20  1  0
 17 21  1  0
 18 21  1  0
 20 22  1  0
 16 23  1  6
 19 23  1  0
 16 24  1  0
 22 24  1  0
M  CHG  1   1  -1
M  END
