ucsf151-ucsf378
     RDKit          3D

 21 22  0  0  0  0  0  0  0  0999 V2000
   -0.5580   12.2140   -1.4080 O   0  0  0  0  0  0  0  0  0  0  0  0
   -0.9170   13.5700   -1.7460 C   0  0  1  0  0  0  0  0  0  0  0  0
    0.2520   14.3930   -1.6990 O   0  0  0  0  0  0  0  0  0  0  0  0
    0.2880   11.4920   -2.2950 C   0  0  1  0  0  0  0  0  0  0  0  0
   -0.0270   10.1250   -2.2170 O   0  0  0  0  0  0  0  0  0  0  0  0
    0.1990   11.9090   -3.7440 C   0  0  0  0  0  0  0  0  0  0  0  0
   -1.6270   13.6600   -3.1300 C   0  0  2  0  0  0  0  0  0  0  0  0
   -2.0650   15.1040   -3.4940 C   0  0  0  0  0  0  0  0  0  0  0  0
   -2.7990   12.6730   -3.3470 C   0  0  0  0  0  0  0  0  0  0  0  0
    0.4740   13.4090   -3.8600 C   0  0  0  0  0  0  0  0  0  0  0  0
   -2.6630   15.1740   -4.9040 C   0  0  2  0  0  0  0  0  0  0  0  0
   -3.3730   12.7570   -4.6890 N   0  0  0  0  0  0  0  0  0  0  0  0
    1.8500   13.7850   -4.3340 C   0  0  2  0  0  0  0  0  0  0  0  0
   -0.5320   14.1910   -4.6820 C   0  0  2  0  0  0  0  0  0  0  0  0
   -3.1410   16.4830   -5.1720 O   0  0  0  0  0  0  0  0  0  0  0  0
   -1.2470   13.1800   -5.9720 Cl  0  0  0  0  0  0  0  0  0  0  0  0
    3.1270   12.7300   -3.6410 Cl  0  0  0  0  0  0  0  0  0  0  0  0
   -3.7760   14.1190   -5.0590 C   0  0  0  0  0  0  0  0  0  0  0  0
    2.1170   15.1820   -3.8440 C   0  0  0  0  0  0  0  0  0  0  0  0
    0.0730   15.5110   -5.1820 C   0  0  0  0  0  0  0  0  0  0  0  0
    0.9920   16.1450   -4.1540 C   0  0  0  0  0  0  0  0  0  0  0  0
  1  2  1  0
  2  3  1  6
  1  4  1  0
  4  5  1  6
  4  6  1  0
  2  7  1  0
  7  8  1  1
  7  9  1  0
  6 10  1  0
  8 11  1  0
  9 12  1  0
 10 13  1  0
 10 14  1  0
 11 15  1  1
 14 16  1  6
 13 17  1  1
 11 18  1  0
 12 18  1  0
 13 19  1  0
 14 20  1  0
 19 21  1  0
 20 21  1  0
M  END
