ucsf013-ucsf028
     RDKit          3D

 28 32  0  0  0  0  0  0  0  0999 V2000
   -4.0840   14.8880    1.2080 N   0  0  0  0  0  0  0  0  0  0  0  0
   -5.3610   14.8260    0.5590 C   0  0  2  0  0  0  0  0  0  0  0  0
   -6.3970   14.6670    1.5460 N   0  0  0  0  0  0  0  0  0  0  0  0
   -3.2380   15.8290    0.4750 C   0  0  2  0  0  0  0  0  0  0  0  0
   -5.5150   13.6760   -0.4100 C   0  0  1  0  0  0  0  0  0  0  0  0
   -3.6250   15.7110   -0.9200 N   0  0  0  0  0  0  0  0  0  0  0  0
   -1.7440   15.5270    0.6780 C   0  0  2  0  0  0  0  0  0  0  0  0
   -6.6790   14.1250   -1.2950 C   0  0  1  0  0  0  0  0  0  0  0  0
   -7.6700   14.2890    0.9550 C   0  0  0  0  0  0  0  0  0  0  0  0
   -4.2720   13.2560   -1.1880 C   0  0  0  0  0  0  0  0  0  0  0  0
   -2.6900   14.9380   -1.7100 C   0  0  0  0  0  0  0  0  0  0  0  0
   -0.8210   15.7760   -0.5400 C   0  0  2  0  0  0  0  0  0  0  0  0
   -1.4880   14.1440    1.0910 N   0  0  0  0  0  0  0  0  0  0  0  0
   -7.7660   14.6760   -0.4510 N   0  0  0  0  0  0  0  0  0  0  0  0
   -6.2950   15.1620   -2.3640 C   0  0  0  0  0  0  0  0  0  0  0  0
   -4.3650   13.5310   -2.6900 C   0  0  0  0  0  0  0  0  0  0  0  0
   -1.4270   15.6130   -1.8570 N   0  0  0  0  0  0  0  0  0  0  0  0
    0.1940   14.7480   -0.3340 N   0  0  0  0  0  0  0  0  0  0  0  0
   -0.0670   14.1660    0.9650 C   0  0  0  0  0  0  0  0  0  0  0  0
   -0.6020   14.8320   -2.8380 C   0  0  0  0  0  0  0  0  0  0  0  0
   -4.9760   14.8790   -3.0730 C   0  0  0  0  0  0  0  0  0  0  0  0
   -0.8330   13.2970   -2.9470 C   0  0  1  0  0  0  0  0  0  0  0  0
   -1.0950   12.7750   -4.3440 C   0  0  0  0  0  0  0  0  0  0  0  0
    0.3570   12.5770   -2.5930 O   0  0  0  0  0  0  0  0  0  0  0  0
    0.3020   11.2690   -3.2630 N   0  0  0  0  0  0  0  0  0  0  0  0
   -0.8700   11.2950   -4.1250 C   0  0  2  0  0  0  0  0  0  0  0  0
   -0.6140   10.6290   -5.3590 O   0  0  0  0  0  0  0  0  0  0  0  0
    0.0770   11.4300   -6.3130 C   0  0  0  0  0  0  0  0  0  0  0  0
  2  1  1  1
  2  3  1  0
  4  1  1  1
  2  5  1  0
  4  6  1  0
  4  7  1  0
  5  8  1  0
  3  9  1  0
  5 10  1  6
  6 11  1  0
  7 12  1  0
  7 13  1  6
  8 14  1  0
  9 14  1  0
  8 15  1  6
 10 16  1  0
 11 17  1  0
 12 17  1  0
 12 18  1  6
 13 19  1  0
 18 19  1  0
 17 20  1  0
 15 21  1  0
 16 21  1  0
 22 20  1  6
 22 23  1  0
 22 24  1  0
 24 25  1  0
 23 26  1  0
 25 26  1  0
 26 27  1  6
 27 28  1  0
M  END
