ucsf411-ucsf173
     RDKit          3D

 15 16  0  0  0  0  0  0  0  0999 V2000
    0.5650   10.6160   -2.3260 O   0  0  0  0  0  0  0  0  0  0  0  0
    0.3110   11.8930   -2.6150 C   0  0  1  0  0  0  0  0  0  0  0  0
    0.5530   12.4990   -1.3550 O   0  0  0  0  0  0  0  0  0  0  0  0
    1.3090   12.4950   -3.6790 C   0  0  0  0  0  0  0  0  0  0  0  0
    1.1070   13.8340   -4.1990 O   0  0  0  0  0  0  0  0  0  0  0  0
   -0.2160   14.3720   -4.0980 C   0  0  1  0  0  0  0  0  0  0  0  0
   -0.1790   15.9180   -4.2660 C   0  0  2  0  0  0  0  0  0  0  0  0
   -1.1210   13.6870   -5.1440 C   0  0  0  0  0  0  0  0  0  0  0  0
   -1.4260   16.4260   -4.9880 C   0  0  1  0  0  0  0  0  0  0  0  0
   -2.5650   14.1960   -5.1170 C   0  0  0  0  0  0  0  0  0  0  0  0
    1.0470   16.4540   -4.9770 C   0  0  0  0  0  0  0  0  0  0  0  0
   -2.6740   15.6400   -4.6080 C   0  0  0  0  0  0  0  0  0  0  0  0
   -1.5460   17.9410   -5.1460 C   0  0  0  0  0  0  0  0  0  0  0  0
    0.9570   17.9700   -5.2560 C   0  0  0  0  0  0  0  0  0  0  0  0
   -0.3430   18.4380   -5.9110 C   0  0  0  0  0  0  0  0  0  0  0  0
  2  1  1  1
  2  3  1  0
  2  4  1  0
  4  5  1  0
  6  5  1  6
  6  7  1  0
  6  8  1  0
  7  9  1  0
  8 10  1  0
  7 11  1  6
  9 12  1  1
 10 12  1  0
  9 13  1  0
 11 14  1  0
 13 15  1  0
 14 15  1  0
M  CHG  1   1  -1
M  END
