ucsf371-ucsf247
     RDKit          3D

 21 22  0  0  0  0  0  0  0  0999 V2000
   -5.8370   12.4820   -0.2350 C   0  0  0  0  0  0  0  0  0  0  0  0
   -4.7820   12.2660   -1.3090 C   0  0  1  0  0  0  0  0  0  0  0  0
   -5.1140   12.8950   -2.5850 N   0  0  0  0  0  0  0  0  0  0  0  0
   -3.2050   12.9550   -0.8070 S   0  0  0  0  0  0  0  0  0  0  0  0
   -3.8490   13.0260   -3.3670 C   0  0  0  0  0  0  0  0  0  0  0  0
   -2.5980   12.6930   -2.5170 C   0  0  1  0  0  0  0  0  0  0  0  0
   -1.2040   13.3270   -2.8880 C   0  0  2  0  0  0  0  0  0  0  0  0
   -1.1470   13.4300   -4.3080 O   0  0  0  0  0  0  0  0  0  0  0  0
   -0.0570   12.4540   -2.4790 N   0  0  0  0  0  0  0  0  0  0  0  0
   -0.8810   14.6410   -2.4000 N   0  0  0  0  0  0  0  0  0  0  0  0
    0.1390   12.5140   -1.0460 O   0  0  0  0  0  0  0  0  0  0  0  0
    1.1730   13.0290   -3.0050 O   0  0  0  0  0  0  0  0  0  0  0  0
   -1.9210   15.6150   -2.4140 C   0  0  1  0  0  0  0  0  0  0  0  0
   -2.6830   15.3690   -3.5950 O   0  0  0  0  0  0  0  0  0  0  0  0
   -2.8670   15.7080   -1.1940 C   0  0  1  0  0  0  0  0  0  0  0  0
   -4.3330   15.3060   -1.5240 C   0  0  0  0  0  0  0  0  0  0  0  0
   -2.3770   15.1600    0.1540 C   0  0  0  0  0  0  0  0  0  0  0  0
   -5.3020   15.6120   -0.3840 C   0  0  1  0  0  0  0  0  0  0  0  0
   -3.3970   15.4950    1.2460 C   0  0  0  0  0  0  0  0  0  0  0  0
   -6.6240   15.1520   -0.6630 O   0  0  0  0  0  0  0  0  0  0  0  0
   -4.8130   15.0320    0.9380 C   0  0  0  0  0  0  0  0  0  0  0  0
  2  1  1  1
  2  3  1  0
  2  4  1  0
  3  5  1  0
  4  6  1  0
  6  5  1  6
  6  7  1  0
  7  8  1  6
  7  9  1  0
  7 10  1  0
  9 11  1  0
  9 12  1  0
 10 13  1  0
 13 14  1  6
 13 15  1  0
 15 16  1  6
 15 17  1  0
 16 18  1  0
 17 19  1  0
 18 20  1  6
 18 21  1  0
 19 21  1  0
M  CHG  1  11  -1
M  END
