ucsf511-ucsf224
     RDKit          3D

 25 28  0  0  0  0  0  0  0  0999 V2000
    0.1450   12.6580   -1.3230 O   0  0  0  0  0  0  0  0  0  0  0  0
    1.0070   11.9660   -2.2480 C   0  0  1  0  0  0  0  0  0  0  0  0
    0.5130   10.7200   -2.2980 O   0  0  0  0  0  0  0  0  0  0  0  0
   -0.4810   13.7950   -1.8810 C   0  0  2  0  0  0  0  0  0  0  0  0
    1.0590   12.6110   -3.6970 C   0  0  0  0  0  0  0  0  0  0  0  0
   -1.9610   13.9700   -1.5880 C   0  0  2  0  0  0  0  0  0  0  0  0
   -0.3190   13.5280   -3.3100 N   0  0  0  0  0  0  0  0  0  0  0  0
   -2.5140   14.6640   -2.8220 C   0  0  1  0  0  0  0  0  0  0  0  0
   -1.4650   12.8710   -3.9170 C   0  0  0  0  0  0  0  0  0  0  0  0
   -2.3570   14.7890   -0.4560 O   0  0  0  0  0  0  0  0  0  0  0  0
    0.6240   14.1090   -3.8990 C   0  0  2  0  0  0  0  0  0  0  0  0
   -2.6180   13.7490   -3.9680 N   0  0  0  0  0  0  0  0  0  0  0  0
   -3.6620   15.2930   -0.8180 C   0  0  1  0  0  0  0  0  0  0  0  0
   -3.8300   15.2020   -2.3400 C   0  0  2  0  0  0  0  0  0  0  0  0
   -0.1480   14.3210   -5.2190 C   0  0  0  0  0  0  0  0  0  0  0  0
    1.7600   15.1460   -3.8630 C   0  0  0  0  0  0  0  0  0  0  0  0
   -5.0990   14.4850   -2.7930 C   0  0  0  0  0  0  0  0  0  0  0  0
   -4.8380   14.6750   -0.1160 C   0  0  0  0  0  0  0  0  0  0  0  0
   -0.7210   15.7450   -5.2800 C   0  0  1  0  0  0  0  0  0  0  0  0
    1.2970   16.5210   -4.3790 C   0  0  0  0  0  0  0  0  0  0  0  0
   -2.5270   15.8610   -5.3560 Cl  0  0  0  0  0  0  0  0  0  0  0  0
   -6.3530   15.0460   -2.1070 C   0  0  0  0  0  0  0  0  0  0  0  0
   -6.0910   15.3740   -0.6480 C   0  0  0  0  0  0  0  0  0  0  0  0
   -0.1700   16.6370   -4.2690 C   0  0  1  0  0  0  0  0  0  0  0  0
   -0.7330   18.2910   -4.7070 Cl  0  0  0  0  0  0  0  0  0  0  0  0
  1  2  1  0
  2  3  1  6
  4  1  1  1
  2  5  1  0
  4  6  1  0
  4  7  1  0
  6  8  1  0
  7  9  1  0
  6 10  1  1
 11  5  1  6
  8 12  1  6
  9 12  1  0
 10 13  1  0
  8 14  1  0
 13 14  1  0
 11 15  1  0
 11 16  1  0
 14 17  1  1
 13 18  1  1
 15 19  1  0
 16 20  1  0
 19 21  1  1
 17 22  1  0
 18 23  1  0
 22 23  1  0
 19 24  1  0
 20 24  1  0
 24 25  1  6
M  CHG  1   3  -1
M  END
