ucsf378-ucsf516
     RDKit          3D

 30 34  0  0  0  0  0  0  0  0999 V2000
   -2.0810   12.5800   -4.9460 Cl  0  0  0  0  0  0  0  0  0  0  0  0
   -0.4240   13.1950   -5.2590 C   0  0  2  0  0  0  0  0  0  0  0  0
    0.7750   12.3570   -4.6920 C   0  0  2  0  0  0  0  0  0  0  0  0
   -0.4150   14.6990   -4.9180 C   0  0  0  0  0  0  0  0  0  0  0  0
    0.8590   11.8470   -3.1880 C   0  0  2  0  0  0  0  0  0  0  0  0
    2.0640   13.0640   -5.0860 C   0  0  2  0  0  0  0  0  0  0  0  0
    0.9490   15.3670   -4.9930 C   0  0  0  0  0  0  0  0  0  0  0  0
    3.4960   12.1590   -4.5020 Cl  0  0  0  0  0  0  0  0  0  0  0  0
   -0.4580   11.4240   -2.4720 C   0  0  2  0  0  0  0  0  0  0  0  0
    2.0100   14.4580   -4.4190 C   0  0  0  0  0  0  0  0  0  0  0  0
    1.4940   12.9840   -2.3340 C   0  0  1  0  0  0  0  0  0  0  0  0
   -0.4780   11.8080   -1.2160 O   0  0  0  0  0  0  0  0  0  0  0  0
   -0.4010   10.0450   -2.2840 O   0  0  0  0  0  0  0  0  0  0  0  0
    1.6650   14.3990   -2.9700 C   0  0  0  0  0  0  0  0  0  0  0  0
    0.7200   13.7640   -1.2240 C   0  0  0  0  0  0  0  0  0  0  0  0
    0.3650   14.8570   -2.2680 C   0  0  2  0  0  0  0  0  0  0  0  0
   -1.0300   14.8880   -2.9220 C   0  0  2  0  0  0  0  0  0  0  0  0
   -1.1410   15.6540   -4.2530 C   0  0  0  0  0  0  0  0  0  0  0  0
   -2.0030   15.6990   -2.2250 N   0  0  0  0  0  0  0  0  0  0  0  0
   -3.1820   15.4580   -3.0560 C   0  0  0  0  0  0  0  0  0  0  0  0
   -2.6560   15.7060   -4.4620 C   0  0  0  0  0  0  0  0  0  0  0  0
   -2.1850   15.5350   -0.7950 C   0  0  2  0  0  0  0  0  0  0  0  0
   -0.8200   15.4900   -0.2450 N   0  0  0  0  0  0  0  0  0  0  0  0
   -2.9280   14.3010   -0.3220 C   0  0  1  0  0  0  0  0  0  0  0  0
   -0.6800   14.6130    0.8800 C   0  0  0  0  0  0  0  0  0  0  0  0
   -3.0020   14.3700    1.1880 C   0  0  1  0  0  0  0  0  0  0  0  0
   -4.4040   14.1250   -0.5800 C   0  0  0  0  0  0  0  0  0  0  0  0
   -1.7870   14.8380    1.7610 N   0  0  0  0  0  0  0  0  0  0  0  0
   -4.0510   15.3180    1.4940 N   0  0  0  0  0  0  0  0  0  0  0  0
   -5.0030   15.1710    0.3670 C   0  0  0  0  0  0  0  0  0  0  0  0
  2  1  1  1
  3  2  1  1
  2  4  1  0
  3  5  1  0
  3  6  1  0
  4  7  1  0
  6  8  1  1
  5  9  1  1
  6 10  1  0
  7 10  1  0
  5 11  1  0
  9 12  1  1
  9 13  1  0
 11 14  1  6
 11 15  1  0
 16 14  1  6
 15 16  1  0
 16 17  1  0
 17 18  1  6
 17 19  1  0
 19 20  1  0
 18 21  1  0
 20 21  1  0
 22 19  1  6
 22 23  1  0
 22 24  1  0
 23 25  1  0
 24 26  1  0
 24 27  1  6
 25 28  1  0
 26 28  1  6
 26 29  1  0
 27 30  1  0
 29 30  1  0
M  CHG  1  12  -1
M  END
