ucsf348-ucsf013
     RDKit          3D

 12 13  0  0  0  0  0  0  0  0999 V2000
   -7.0360   14.6890    2.4240 N   0  0  0  0  0  0  0  0  0  0  0  0
   -6.2470   14.3880    1.2840 C   0  0  2  0  0  0  0  0  0  0  0  0
   -4.9740   14.9680    1.4850 N   0  0  0  0  0  0  0  0  0  0  0  0
   -6.8640   14.7800    0.0630 N   0  0  0  0  0  0  0  0  0  0  0  0
   -5.9920   14.6180   -1.0870 C   0  0  1  0  0  0  0  0  0  0  0  0
   -4.0480   14.7360    0.3850 C   0  0  1  0  0  0  0  0  0  0  0  0
   -6.6460   15.1410   -2.2160 O   0  0  0  0  0  0  0  0  0  0  0  0
   -4.6120   15.2420   -0.9320 C   0  0  1  0  0  0  0  0  0  0  0  0
   -2.6690   15.3220    0.6720 C   0  0  0  0  0  0  0  0  0  0  0  0
   -1.6560   15.1390   -0.4700 C   0  0  0  0  0  0  0  0  0  0  0  0
   -3.6730   14.9030   -2.0940 C   0  0  0  0  0  0  0  0  0  0  0  0
   -2.2180   15.3360   -1.8840 C   0  0  0  0  0  0  0  0  0  0  0  0
  2  1  1  1
  2  3  1  0
  2  4  1  0
  4  5  1  0
  3  6  1  0
  5  7  1  6
  5  8  1  0
  6  8  1  0
  6  9  1  1
  9 10  1  0
  8 11  1  6
 10 12  1  0
 11 12  1  0
M  END
