ucsf378-ucsf247
     RDKit          3D

 24 26  0  0  0  0  0  0  0  0999 V2000
   -1.4010   13.8370   -2.5180 N   0  0  0  0  0  0  0  0  0  0  0  0
   -0.3920   13.4090   -1.5140 C   0  0  2  0  0  0  0  0  0  0  0  0
    0.8510   14.0760   -1.7570 O   0  0  0  0  0  0  0  0  0  0  0  0
   -2.1000   14.8600   -1.8100 N   0  0  0  0  0  0  0  0  0  0  0  0
   -0.4860   14.5240   -3.3500 C   0  0  1  0  0  0  0  0  0  0  0  0
   -0.0870   12.0340   -1.4480 O   0  0  0  0  0  0  0  0  0  0  0  0
   -3.3340   15.2660   -2.4150 C   0  0  1  0  0  0  0  0  0  0  0  0
    0.6900   13.5470   -3.5250 C   0  0  1  0  0  0  0  0  0  0  0  0
   -0.9510   15.2280   -4.5940 C   0  0  0  0  0  0  0  0  0  0  0  0
   -0.3070   11.3570   -2.6640 C   0  0  1  0  0  0  0  0  0  0  0  0
    0.3190   12.0890   -3.8700 C   0  0  0  0  0  0  0  0  0  0  0  0
   -3.7750   14.3460   -3.3810 O   0  0  0  0  0  0  0  0  0  0  0  0
    1.8820   14.1560   -4.2120 C   0  0  1  0  0  0  0  0  0  0  0  0
    0.2210   16.1020   -4.8980 C   0  0  0  0  0  0  0  0  0  0  0  0
   -4.2850   15.3660   -1.2450 C   0  0  1  0  0  0  0  0  0  0  0  0
    2.9000   12.8420   -4.9170 Cl  0  0  0  0  0  0  0  0  0  0  0  0
    0.2810   10.0930   -2.4900 O   0  0  0  0  0  0  0  0  0  0  0  0
    1.4260   15.2460   -5.1930 C   0  0  0  0  0  0  0  0  0  0  0  0
   -5.5760   14.5810   -1.4220 C   0  0  0  0  0  0  0  0  0  0  0  0
   -3.5650   14.9830    0.0540 C   0  0  0  0  0  0  0  0  0  0  0  0
   -6.4780   14.9000   -0.2550 C   0  0  1  0  0  0  0  0  0  0  0  0
   -4.3930   15.3450    1.2510 C   0  0  0  0  0  0  0  0  0  0  0  0
   -7.6830   14.1510   -0.3210 O   0  0  0  0  0  0  0  0  0  0  0  0
   -5.7960   14.7260    1.1270 C   0  0  0  0  0  0  0  0  0  0  0  0
  1  2  1  0
  2  3  1  6
  1  4  1  0
  1  5  1  0
  2  6  1  0
  4  7  1  0
  5  8  1  0
  5  9  1  6
  6 10  1  0
  8 11  1  6
 10 11  1  0
  7 12  1  6
  8 13  1  0
  9 14  1  0
  7 15  1  0
 13 16  1  6
 10 17  1  1
 13 18  1  0
 14 18  1  0
 15 19  1  6
 15 20  1  0
 19 21  1  0
 20 22  1  0
 21 23  1  1
 21 24  1  0
 22 24  1  0
M  END
