ucsf442-ucsf367
     RDKit          3D

 24 26  0  0  0  0  0  0  0  0999 V2000
   -0.0620   15.0080    0.9150 O   0  0  0  0  0  0  0  0  0  0  0  0
   -1.4140   14.9730    0.5280 C   0  0  1  0  0  0  0  0  0  0  0  0
   -1.5390   14.9320   -0.9110 N   0  0  0  0  0  0  0  0  0  0  0  0
   -2.0810   13.9510    1.2210 N   0  0  0  0  0  0  0  0  0  0  0  0
   -0.2960   14.6640   -1.6820 C   0  0  0  0  0  0  0  0  0  0  0  0
   -3.4910   13.8840    0.9050 C   0  0  2  0  0  0  0  0  0  0  0  0
   -2.8060   14.5220   -1.4990 C   0  0  2  0  0  0  0  0  0  0  0  0
   -3.3840   15.6340   -2.1870 O   0  0  0  0  0  0  0  0  0  0  0  0
    0.5450   13.4560   -1.2550 C   0  0  0  0  0  0  0  0  0  0  0  0
   -3.8710   13.9060   -0.5730 C   0  0  2  0  0  0  0  0  0  0  0  0
   -4.0830   15.0730    1.4710 N   0  0  0  0  0  0  0  0  0  0  0  0
    1.2580   12.9460   -2.3920 O   0  0  0  0  0  0  0  0  0  0  0  0
   -5.1970   14.5240   -0.5340 N   0  0  0  0  0  0  0  0  0  0  0  0
   -5.1960   15.3960    0.6000 C   0  0  0  0  0  0  0  0  0  0  0  0
    0.4290   12.1250   -3.2290 C   0  0  2  0  0  0  0  0  0  0  0  0
    0.6570   10.8460   -2.9650 O   0  0  0  0  0  0  0  0  0  0  0  0
    0.7360   12.5050   -4.7260 C   0  0  0  0  0  0  0  0  0  0  0  0
    0.7550   11.4120   -5.6660 O   0  0  0  0  0  0  0  0  0  0  0  0
   -0.5130   10.9400   -6.1310 C   0  0  0  0  0  0  0  0  0  0  0  0
   -0.4150    9.4470   -6.4940 C   0  0  0  0  0  0  0  0  0  0  0  0
   -1.5530   11.1480   -5.0330 C   0  0  0  0  0  0  0  0  0  0  0  0
   -1.7100    8.8240   -7.0070 C   0  0  0  0  0  0  0  0  0  0  0  0
   -2.7410   10.1880   -5.1420 C   0  0  0  0  0  0  0  0  0  0  0  0
   -2.9400    9.5690   -6.5230 C   0  0  0  0  0  0  0  0  0  0  0  0
  2  1  1  6
  2  3  1  0
  2  4  1  0
  3  5  1  0
  6  4  1  6
  3  7  1  0
  7  8  1  1
  5  9  1  0
  6 10  1  0
  7 10  1  0
  6 11  1  0
  9 12  1  0
 10 13  1  1
 11 14  1  0
 13 14  1  0
 12 15  1  0
 15 16  1  6
 15 17  1  0
 17 18  1  0
 18 19  1  0
 19 20  1  0
 19 21  1  0
 20 22  1  0
 21 23  1  0
 22 24  1  0
 23 24  1  0
M  CHG  1  16  -1
M  END
