ucsf519-ucsf247
     RDKit          3D

 24 25  0  0  0  0  0  0  0  0999 V2000
   -0.5490   16.0710   -4.8640 C   0  0  0  0  0  0  0  0  0  0  0  0
   -0.6210   14.7820   -4.0270 C   0  0  2  0  0  0  0  0  0  0  0  0
   -0.4040   13.3520   -5.1800 S   0  0  0  0  0  0  0  0  0  0  0  0
   -1.8620   14.7650   -3.0340 C   0  0  2  0  0  0  0  0  0  0  0  0
    0.7240   12.1810   -4.2640 C   0  0  0  0  0  0  0  0  0  0  0  0
   -3.0760   15.0480   -3.7530 O   0  0  0  0  0  0  0  0  0  0  0  0
   -1.9130   15.4710   -1.7660 N   0  0  0  0  0  0  0  0  0  0  0  0
    0.4220   11.7820   -2.7630 C   0  0  2  0  0  0  0  0  0  0  0  0
   -4.2370   14.5620   -3.0550 C   0  0  0  0  0  0  0  0  0  0  0  0
   -3.2700   15.5910   -1.2550 C   0  0  0  0  0  0  0  0  0  0  0  0
   -1.1770   14.9030   -0.6940 C   0  0  1  0  0  0  0  0  0  0  0  0
    1.4380   12.4280   -1.9860 O   0  0  0  0  0  0  0  0  0  0  0  0
    0.4500   10.4550   -2.5610 O   0  0  0  0  0  0  0  0  0  0  0  0
    0.1380   15.3280   -0.7850 O   0  0  0  0  0  0  0  0  0  0  0  0
   -3.1300   15.7300    0.2570 C   0  0  0  0  0  0  0  0  0  0  0  0
   -1.7030   15.5000    0.5160 N   0  0  0  0  0  0  0  0  0  0  0  0
   -4.3120   15.0490   -1.5780 C   0  0  1  0  0  0  0  0  0  0  0  0
    1.4930   13.8260   -2.2250 C   0  0  0  0  0  0  0  0  0  0  0  0
   -5.7470   15.4970   -1.2540 C   0  0  0  0  0  0  0  0  0  0  0  0
   -3.8160   13.9780   -0.5460 C   0  0  0  0  0  0  0  0  0  0  0  0
   -6.4120   14.5790   -0.2350 C   0  0  2  0  0  0  0  0  0  0  0  0
   -4.1630   14.2820    0.9180 C   0  0  0  0  0  0  0  0  0  0  0  0
   -7.7630   14.9680   -0.0150 O   0  0  0  0  0  0  0  0  0  0  0  0
   -5.6610   14.4940    1.0950 C   0  0  0  0  0  0  0  0  0  0  0  0
  2  1  1  6
  2  3  1  0
  2  4  1  0
  3  5  1  0
  4  6  1  6
  4  7  1  0
  5  8  1  0
  6  9  1  0
  7 10  1  0
  7 11  1  0
  8 12  1  0
  8 13  1  6
 11 14  1  6
 10 15  1  0
 11 16  1  0
 15 16  1  0
 17  9  1  6
 12 18  1  0
 17 19  1  0
 17 20  1  0
 19 21  1  0
 20 22  1  0
 21 23  1  1
 21 24  1  0
 22 24  1  0
M  CHG  1  13  -1
M  END
