ucsf123-ucsf371
     RDKit          3D

 21 22  0  0  0  0  0  0  0  0999 V2000
   -1.9890   18.8220   -5.1260 N   0  0  0  0  0  0  0  0  0  0  0  0
   -1.5990   17.3830   -5.7960 S   0  0  0  0  0  0  0  0  0  0  0  0
   -0.2620   17.5680   -6.6260 O   0  0  0  0  0  0  0  0  0  0  0  0
   -2.7390   16.9640   -6.8130 O   0  0  0  0  0  0  0  0  0  0  0  0
   -1.3530   15.9640   -4.7510 C   0  0  2  0  0  0  0  0  0  0  0  0
    0.0090   15.8880   -4.0970 C   0  0  0  0  0  0  0  0  0  0  0  0
   -1.7770   14.5350   -5.1880 C   0  0  0  0  0  0  0  0  0  0  0  0
   -0.3570   15.0440   -2.9000 C   0  0  1  0  0  0  0  0  0  0  0  0
   -0.7590   13.4490   -4.7200 C   0  0  0  0  0  0  0  0  0  0  0  0
   -0.5390   13.5550   -3.1960 C   0  0  1  0  0  0  0  0  0  0  0  0
    0.3790   15.3140   -1.7720 O   0  0  0  0  0  0  0  0  0  0  0  0
    0.4160   12.5830   -2.4060 C   0  0  2  0  0  0  0  0  0  0  0  0
   -0.6130   15.0970   -0.7990 C   0  0  0  0  0  0  0  0  0  0  0  0
    1.7660   12.7780   -2.7480 O   0  0  0  0  0  0  0  0  0  0  0  0
    0.2390   11.3190   -2.7320 O   0  0  0  0  0  0  0  0  0  0  0  0
   -2.0250   15.5370   -1.2510 C   0  0  1  0  0  0  0  0  0  0  0  0
   -2.8470   14.5570   -2.1200 C   0  0  0  0  0  0  0  0  0  0  0  0
   -3.0600   15.7700    0.2200 S   0  0  0  0  0  0  0  0  0  0  0  0
   -4.3240   14.6510   -0.3880 C   0  0  2  0  0  0  0  0  0  0  0  0
   -4.2800   14.7580   -1.8360 N   0  0  0  0  0  0  0  0  0  0  0  0
   -5.6770   15.0170    0.1670 C   0  0  0  0  0  0  0  0  0  0  0  0
  1  2  1  0
  2  3  1  0
  2  4  1  0
  5  2  1  6
  5  6  1  0
  5  7  1  0
  6  8  1  0
  7  9  1  0
  8 10  1  0
 10  9  1  6
  8 11  1  1
 10 12  1  0
 11 13  1  0
 12 14  1  6
 12 15  1  0
 16 13  1  1
 16 17  1  0
 16 18  1  0
 18 19  1  0
 17 20  1  0
 19 20  1  0
 19 21  1  1
M  CHG  1  15  -1
M  END
