ucsf016-ucsf371
     RDKit          3D

 20 23  0  0  0  0  0  0  0  0999 V2000
   -3.2530   15.8690   -2.9760 C   0  0  2  0  0  0  0  0  0  0  0  0
   -2.7300   14.7450   -3.6130 O   0  0  0  0  0  0  0  0  0  0  0  0
   -2.5310   16.8640   -3.5080 O   0  0  0  0  0  0  0  0  0  0  0  0
   -3.0120   15.7900   -1.4570 C   0  0  2  0  0  0  0  0  0  0  0  0
   -2.1720   14.6490   -0.9860 C   0  0  2  0  0  0  0  0  0  0  0  0
   -4.2450   15.5230   -0.5560 C   0  0  0  0  0  0  0  0  0  0  0  0
   -2.2330   15.1050    0.4470 C   0  0  1  0  0  0  0  0  0  0  0  0
   -0.7130   14.2930   -1.3990 C   0  0  1  0  0  0  0  0  0  0  0  0
   -3.6600   15.0860    0.7490 N   0  0  0  0  0  0  0  0  0  0  0  0
   -0.1230   14.8040   -2.6820 N   0  0  0  0  0  0  0  0  0  0  0  0
    0.1330   14.8540   -0.3130 N   0  0  0  0  0  0  0  0  0  0  0  0
   -1.5100   14.2420    1.3250 N   0  0  0  0  0  0  0  0  0  0  0  0
    1.0480   14.0960   -3.2640 C   0  0  0  0  0  0  0  0  0  0  0  0
   -1.1050   15.1990   -3.7360 C   0  0  0  0  0  0  0  0  0  0  0  0
   -0.1050   14.2680    0.9920 C   0  0  0  0  0  0  0  0  0  0  0  0
   -1.3730   14.2140   -4.8880 C   0  0  0  0  0  0  0  0  0  0  0  0
    0.7500   13.1060   -4.4030 C   0  0  0  0  0  0  0  0  0  0  0  0
   -2.5270   13.2230   -4.7830 C   0  0  0  0  0  0  0  0  0  0  0  0
   -2.6290   14.3710   -5.7460 C   0  0  0  0  0  0  0  0  0  0  0  0
   -0.1000   13.7300   -5.4990 C   0  0  0  0  0  0  0  0  0  0  0  0
  1  2  1  6
  1  3  1  0
  1  4  1  0
  4  5  1  0
  4  6  1  1
  5  7  1  0
  5  8  1  6
  6  9  1  0
  7  9  1  1
  8 10  1  6
  8 11  1  0
  7 12  1  0
 10 13  1  0
 10 14  1  0
 11 15  1  0
 12 15  1  0
 16 14  1  0
 13 17  1  0
 16 18  1  0
 16 19  1  0
 18 19  1  0
 16 20  1  0
 17 20  1  0
M  CHG  1   3  -1
M  END
