ucsf004-ucsf213
     RDKit          3D

 25 28  0  0  0  0  0  0  0  0999 V2000
   -2.1510   12.7720   -5.4060 F   0  0  0  0  0  0  0  0  0  0  0  0
   -1.1750   12.9310   -4.4740 C   0  0  1  0  0  0  0  0  0  0  0  0
    0.0150   13.8030   -4.9370 C   0  0  2  0  0  0  0  0  0  0  0  0
   -1.8260   13.5670   -3.2550 C   0  0  0  0  0  0  0  0  0  0  0  0
    1.3610   13.1610   -4.4000 C   0  0  0  0  0  0  0  0  0  0  0  0
   -0.7860   14.1230   -2.3830 N   0  0  0  0  0  0  0  0  0  0  0  0
   -0.3040   15.3170   -4.5020 C   0  0  0  0  0  0  0  0  0  0  0  0
    1.3750   12.3540   -3.0440 C   0  0  2  0  0  0  0  0  0  0  0  0
   -0.1480   15.3180   -2.9500 C   0  0  0  0  0  0  0  0  0  0  0  0
   -1.1370   14.0700   -0.9860 C   0  0  1  0  0  0  0  0  0  0  0  0
    0.6210   16.4610   -5.0540 C   0  0  0  0  0  0  0  0  0  0  0  0
   -1.8130   15.6120   -4.7620 C   0  0  0  0  0  0  0  0  0  0  0  0
    0.5510   11.3170   -3.0340 O   0  0  0  0  0  0  0  0  0  0  0  0
    0.8400   13.1230   -1.9990 O   0  0  0  0  0  0  0  0  0  0  0  0
   -0.1560   14.8570   -0.2790 N   0  0  0  0  0  0  0  0  0  0  0  0
   -2.5870   14.3140   -0.5290 C   0  0  1  0  0  0  0  0  0  0  0  0
    0.0250   17.8720   -4.9280 C   0  0  0  0  0  0  0  0  0  0  0  0
   -2.2470   16.8200   -5.5710 C   0  0  0  0  0  0  0  0  0  0  0  0
   -0.2640   14.5630    1.1110 C   0  0  0  0  0  0  0  0  0  0  0  0
   -2.6380   14.5810    0.9820 C   0  0  1  0  0  0  0  0  0  0  0  0
   -3.3960   15.4550   -1.1200 C   0  0  0  0  0  0  0  0  0  0  0  0
   -1.3340   18.0400   -5.5950 C   0  0  0  0  0  0  0  0  0  0  0  0
   -1.4710   15.2180    1.5300 N   0  0  0  0  0  0  0  0  0  0  0  0
   -3.7140   15.5370    1.1900 N   0  0  0  0  0  0  0  0  0  0  0  0
   -4.4560   15.6270   -0.0580 C   0  0  0  0  0  0  0  0  0  0  0  0
  2  1  1  6
  2  3  1  0
  2  4  1  0
  3  5  1  1
  4  6  1  0
  3  7  1  0
  5  8  1  0
  6  9  1  0
  7  9  1  0
 10  6  1  6
  7 11  1  0
  7 12  1  0
  8 13  1  6
  8 14  1  0
 10 15  1  0
 10 16  1  0
 11 17  1  0
 12 18  1  0
 15 19  1  0
 16 20  1  0
 16 21  1  6
 17 22  1  0
 18 22  1  0
 19 23  1  0
 20 23  1  6
 20 24  1  0
 21 25  1  0
 24 25  1  0
M  CHG  1  13  -1
M  END
