ucsf173-ucsf367
     RDKit          3D

 20 22  0  0  0  0  0  0  0  0999 V2000
    1.2220   13.1940   -2.1850 O   0  0  0  0  0  0  0  0  0  0  0  0
    0.5590   12.9830   -3.3050 C   0  0  2  0  0  0  0  0  0  0  0  0
   -0.6820   12.6390   -2.8130 O   0  0  0  0  0  0  0  0  0  0  0  0
    1.0120   11.8090   -4.1220 C   0  0  0  0  0  0  0  0  0  0  0  0
    0.3640   14.1110   -4.2720 C   0  0  0  0  0  0  0  0  0  0  0  0
    0.6160   11.6700   -5.4980 O   0  0  0  0  0  0  0  0  0  0  0  0
   -1.0920   14.3510   -4.7310 C   0  0  0  0  0  0  0  0  0  0  0  0
    0.9370   15.4790   -3.8670 C   0  0  0  0  0  0  0  0  0  0  0  0
   -1.2260   15.8480   -4.5940 C   0  0  1  0  0  0  0  0  0  0  0  0
    0.1900   16.3110   -4.8750 C   0  0  1  0  0  0  0  0  0  0  0  0
   -0.3470   10.6360   -5.7000 C   0  0  0  0  0  0  0  0  0  0  0  0
   -2.3290   16.5530   -5.3660 C   0  0  0  0  0  0  0  0  0  0  0  0
    0.3660   17.8090   -4.8630 C   0  0  0  0  0  0  0  0  0  0  0  0
   -0.2620    9.8780   -7.0160 C   0  0  0  0  0  0  0  0  0  0  0  0
   -1.7160   11.2870   -5.6660 C   0  0  0  0  0  0  0  0  0  0  0  0
   -1.9960   17.9900   -5.8130 C   0  0  0  0  0  0  0  0  0  0  0  0
   -0.5220   18.3700   -5.9580 C   0  0  0  0  0  0  0  0  0  0  0  0
   -1.3360    8.7810   -7.0590 C   0  0  0  0  0  0  0  0  0  0  0  0
   -2.8000   10.2190   -5.5950 C   0  0  0  0  0  0  0  0  0  0  0  0
   -2.7540    9.2910   -6.7880 C   0  0  0  0  0  0  0  0  0  0  0  0
  2  1  1  1
  2  3  1  0
  2  4  1  0
  2  5  1  0
  4  6  1  0
  5  7  1  0
  5  8  1  0
  9  7  1  6
 10  8  1  1
  9 10  1  0
  6 11  1  0
  9 12  1  0
 10 13  1  0
 11 14  1  0
 11 15  1  0
 12 16  1  0
 13 17  1  0
 16 17  1  0
 14 18  1  0
 15 19  1  0
 18 20  1  0
 19 20  1  0
M  CHG  1   1  -1
M  END
