ucsf364-ucsf243
     RDKit          3D

 19 20  0  0  0  0  0  0  0  0999 V2000
    1.4960   13.9110   -4.6870 C   0  0  0  0  0  0  0  0  0  0  0  0
    1.1200   12.4360   -4.5790 C   0  0  2  0  0  0  0  0  0  0  0  0
    0.8200   11.8090   -5.9540 C   0  0  2  0  0  0  0  0  0  0  0  0
   -0.0370   12.0030   -3.6110 C   0  0  1  0  0  0  0  0  0  0  0  0
    1.9210   11.9540   -6.8510 O   0  0  0  0  0  0  0  0  0  0  0  0
   -0.2070   12.6580   -2.1950 C   0  0  2  0  0  0  0  0  0  0  0  0
   -1.4460   11.9650   -4.2790 C   0  0  0  0  0  0  0  0  0  0  0  0
   -0.4590   12.2620   -6.5780 C   0  0  0  0  0  0  0  0  0  0  0  0
   -0.4120   14.0750   -2.3140 O   0  0  0  0  0  0  0  0  0  0  0  0
    0.8090   12.3500   -1.4220 O   0  0  0  0  0  0  0  0  0  0  0  0
   -1.5500   11.5990   -5.7720 C   0  0  0  0  0  0  0  0  0  0  0  0
   -1.7900   14.3490   -2.0290 C   0  0  1  0  0  0  0  0  0  0  0  0
   -2.0350   15.0690   -0.7110 C   0  0  0  0  0  0  0  0  0  0  0  0
   -2.4200   15.1750   -3.1290 C   0  0  1  0  0  0  0  0  0  0  0  0
   -2.0470   14.7270   -4.4370 O   0  0  0  0  0  0  0  0  0  0  0  0
   -3.5360   15.0060   -0.3680 C   0  0  1  0  0  0  0  0  0  0  0  0
   -3.9200   15.0350   -2.9570 C   0  0  0  0  0  0  0  0  0  0  0  0
   -3.8350   15.8830    0.8300 C   0  0  0  0  0  0  0  0  0  0  0  0
   -4.4510   15.3850   -1.5530 C   0  0  0  0  0  0  0  0  0  0  0  0
  2  1  1  6
  2  3  1  0
  2  4  1  0
  3  5  1  6
  4  6  1  0
  4  7  1  6
  3  8  1  0
  6  9  1  0
  6 10  1  1
  7 11  1  0
  8 11  1  0
 12  9  1  6
 12 13  1  0
 12 14  1  0
 14 15  1  6
 13 16  1  0
 14 17  1  0
 16 18  1  1
 16 19  1  0
 17 19  1  0
M  CHG  1  10  -1
M  END
