ucsf411-ucsf412
     RDKit          3D

 27 30  0  0  0  0  0  0  0  0999 V2000
    0.5990   10.5420   -2.2960 O   0  0  0  0  0  0  0  0  0  0  0  0
    0.2660   11.8030   -2.5660 C   0  0  1  0  0  0  0  0  0  0  0  0
    0.4950   12.4150   -1.3080 O   0  0  0  0  0  0  0  0  0  0  0  0
    1.2110   12.4330   -3.6520 C   0  0  0  0  0  0  0  0  0  0  0  0
    0.9410   13.8340   -3.9140 O   0  0  0  0  0  0  0  0  0  0  0  0
    0.2810   14.1340   -5.1490 C   0  0  2  0  0  0  0  0  0  0  0  0
    0.0920   15.6770   -5.2790 C   0  0  1  0  0  0  0  0  0  0  0  0
   -1.0420   13.3180   -5.2260 C   0  0  0  0  0  0  0  0  0  0  0  0
   -1.3570   16.0900   -5.0760 C   0  0  1  0  0  0  0  0  0  0  0  0
   -2.1690   13.8860   -4.3550 C   0  0  0  0  0  0  0  0  0  0  0  0
    0.9370   16.5780   -4.4120 C   0  0  0  0  0  0  0  0  0  0  0  0
   -1.6910   15.2320   -3.8730 C   0  0  2  0  0  0  0  0  0  0  0  0
   -1.4970   17.6200   -4.9380 C   0  0  0  0  0  0  0  0  0  0  0  0
    0.9570   17.9770   -5.0470 C   0  0  0  0  0  0  0  0  0  0  0  0
   -2.2430   15.9020   -2.6210 C   0  0  0  0  0  0  0  0  0  0  0  0
   -0.3900   18.3570   -5.6640 C   0  0  0  0  0  0  0  0  0  0  0  0
   -3.5370   15.5310   -1.9070 C   0  0  2  0  0  0  0  0  0  0  0  0
   -3.4520   15.1330   -0.4680 C   0  0  0  0  0  0  0  0  0  0  0  0
   -4.3870   14.5630   -2.6830 C   0  0  0  0  0  0  0  0  0  0  0  0
   -4.8140   15.4710    0.1370 C   0  0  1  0  0  0  0  0  0  0  0  0
   -5.8170   14.5710   -2.1760 C   0  0  0  0  0  0  0  0  0  0  0  0
   -6.0420   15.2680   -0.8120 C   0  0  1  0  0  0  0  0  0  0  0  0
   -4.9230   14.7960    1.4880 C   0  0  0  0  0  0  0  0  0  0  0  0
   -7.2430   14.5700   -0.1510 C   0  0  2  0  0  0  0  0  0  0  0  0
   -6.3400   14.6400    2.0840 C   0  0  0  0  0  0  0  0  0  0  0  0
   -8.4360   14.9190   -0.8140 O   0  0  0  0  0  0  0  0  0  0  0  0
   -7.4880   14.8230    1.2320 N   0  0  0  0  0  0  0  0  0  0  0  0
  2  1  1  1
  2  3  1  0
  2  4  1  0
  4  5  1  0
  6  5  1  1
  6  7  1  0
  6  8  1  0
  7  9  1  0
  8 10  1  0
  7 11  1  1
  9 12  1  0
 10 12  1  0
  9 13  1  1
 11 14  1  0
 12 15  1  6
 13 16  1  0
 14 16  1  0
 17 15  1  6
 17 18  1  0
 17 19  1  0
 20 18  1  6
 19 21  1  0
 20 22  1  0
 22 21  1  6
 20 23  1  0
 22 24  1  0
 23 25  1  0
 24 26  1  6
 24 27  1  0
 25 27  1  0
M  CHG  1   1  -1
M  END
