ucsf357-ucsf339
     RDKit          3D

 17 18  0  0  0  0  0  0  0  0999 V2000
   -5.6760   15.6350   -2.4080 O   0  0  0  0  0  0  0  0  0  0  0  0
   -5.1750   15.5720   -1.2010 C   0  0  1  0  0  0  0  0  0  0  0  0
   -6.3620   15.4110   -0.4470 O   0  0  0  0  0  0  0  0  0  0  0  0
   -4.3100   14.2840   -1.0080 C   0  0  1  0  0  0  0  0  0  0  0  0
   -3.5490   13.9600   -2.3280 C   0  0  0  0  0  0  0  0  0  0  0  0
   -3.3870   14.2940    0.2510 C   0  0  1  0  0  0  0  0  0  0  0  0
   -5.3110   13.1550   -0.6860 C   0  0  0  0  0  0  0  0  0  0  0  0
   -2.1890   14.6200   -2.4270 C   0  0  2  0  0  0  0  0  0  0  0  0
   -1.8590   14.5800    0.1420 C   0  0  0  0  0  0  0  0  0  0  0  0
   -4.0860   15.0590    1.3710 C   0  0  0  0  0  0  0  0  0  0  0  0
   -5.8230   13.2000    0.7680 C   0  0  0  0  0  0  0  0  0  0  0  0
   -1.6840   14.3490   -3.6720 F   0  0  0  0  0  0  0  0  0  0  0  0
   -1.2540   14.2200   -1.2460 C   0  0  2  0  0  0  0  0  0  0  0  0
   -5.4830   14.4590    1.5980 C   0  0  0  0  0  0  0  0  0  0  0  0
    0.2230   14.4270   -1.4320 N   0  0  0  0  0  0  0  0  0  0  0  0
    0.5820   14.4370   -2.8210 O   0  0  0  0  0  0  0  0  0  0  0  0
    0.8520   13.1990   -0.9780 O   0  0  0  0  0  0  0  0  0  0  0  0
  2  1  1  6
  2  3  1  0
  2  4  1  0
  4  5  1  6
  4  6  1  0
  4  7  1  0
  5  8  1  0
  6  9  1  6
  6 10  1  0
  7 11  1  0
  8 12  1  6
  8 13  1  0
  9 13  1  0
 10 14  1  0
 11 14  1  0
 13 15  1  6
 15 16  1  0
 15 17  1  0
M  CHG  2   1  -1  16  -1
M  END
