ucsf115-ucsf278
     RDKit          3D

 23 26  0  0  0  0  0  0  0  0999 V2000
   -2.6000   13.9720   -3.4410 C   0  0  0  0  0  0  0  0  0  0  0  0
   -2.5120   15.1310   -2.7050 N   0  0  0  0  0  0  0  0  0  0  0  0
   -2.4050   14.8740   -1.3060 C   0  0  2  0  0  0  0  0  0  0  0  0
   -0.8200   13.2250   -3.7610 S   0  0  0  0  0  0  0  0  0  0  0  0
   -0.7220   11.4890   -4.3440 N   0  0  0  0  0  0  0  0  0  0  0  0
   -0.5940   12.0950   -2.2920 C   0  0  0  0  0  0  0  0  0  0  0  0
    0.0730   14.6850   -3.0950 C   0  0  0  0  0  0  0  0  0  0  0  0
    0.5410   13.9050   -4.9360 C   0  0  0  0  0  0  0  0  0  0  0  0
   -1.0340   11.1330   -5.5600 C   0  0  0  0  0  0  0  0  0  0  0  0
    0.5750   11.3090   -2.5990 C   0  0  0  0  0  0  0  0  0  0  0  0
   -0.1480   10.5340   -3.4880 C   0  0  0  0  0  0  0  0  0  0  0  0
   -1.0060   14.7210   -0.9180 N   0  0  0  0  0  0  0  0  0  0  0  0
   -3.2080   13.8900   -0.5900 C   0  0  1  0  0  0  0  0  0  0  0  0
    1.3130   14.4830   -2.3960 C   0  0  0  0  0  0  0  0  0  0  0  0
    1.8360   13.8190   -4.3950 C   0  0  0  0  0  0  0  0  0  0  0  0
   -2.2590   10.3800   -5.4060 O   0  0  0  0  0  0  0  0  0  0  0  0
   -0.7460   14.6310    0.4750 C   0  0  0  0  0  0  0  0  0  0  0  0
   -3.0700   14.1050    0.8940 C   0  0  1  0  0  0  0  0  0  0  0  0
   -4.5720   14.2730   -0.8690 N   0  0  0  0  0  0  0  0  0  0  0  0
    2.4270   14.5990   -3.3150 C   0  0  0  0  0  0  0  0  0  0  0  0
   -1.8380   14.6030    1.3280 N   0  0  0  0  0  0  0  0  0  0  0  0
   -4.0850   15.0810    1.2710 N   0  0  0  0  0  0  0  0  0  0  0  0
   -4.9890   15.2050    0.1370 C   0  0  0  0  0  0  0  0  0  0  0  0
  1  2  1  0
  3  2  1  6
  1  4  1  0
  4  5  1  0
  4  6  1  0
  4  7  1  0
  4  8  1  0
  5  9  1  0
  6 10  1  0
  5 11  1  0
 10 11  1  0
  3 12  1  0
  3 13  1  0
  7 14  1  0
  8 15  1  0
  9 16  1  0
 12 17  1  0
 13 18  1  0
 13 19  1  6
 14 20  1  0
 15 20  1  0
 17 21  1  0
 18 21  1  6
 18 22  1  0
 19 23  1  0
 22 23  1  0
M  END
