ucsf365-ucsf260
     RDKit          3D

 21 23  0  0  0  0  0  0  0  0999 V2000
    0.2440   11.4140   -2.5850 O   0  0  0  0  0  0  0  0  0  0  0  0
    1.0730   12.4000   -2.8850 C   0  0  2  0  0  0  0  0  0  0  0  0
    0.9770   13.2010   -1.7370 O   0  0  0  0  0  0  0  0  0  0  0  0
    0.6870   13.2610   -4.1650 C   0  0  1  0  0  0  0  0  0  0  0  0
    0.8500   12.4480   -5.4650 C   0  0  0  0  0  0  0  0  0  0  0  0
   -0.7880   13.8510   -4.2980 C   0  0  2  0  0  0  0  0  0  0  0  0
   -1.5770   13.0670   -5.4030 C   0  0  1  0  0  0  0  0  0  0  0  0
   -0.8000   15.3440   -4.6760 C   0  0  0  0  0  0  0  0  0  0  0  0
   -0.4110   11.7460   -5.8150 N   0  0  0  0  0  0  0  0  0  0  0  0
   -1.8660   11.7440   -4.9540 O   0  0  0  0  0  0  0  0  0  0  0  0
   -2.9210   13.6230   -5.8620 C   0  0  0  0  0  0  0  0  0  0  0  0
   -2.1860   15.8910   -5.0510 C   0  0  0  0  0  0  0  0  0  0  0  0
   -0.9930   10.9570   -4.7150 C   0  0  0  0  0  0  0  0  0  0  0  0
   -0.2020   10.6260   -6.6990 C   0  0  1  0  0  0  0  0  0  0  0  0
   -3.3100   14.8710   -5.1020 C   0  0  0  0  0  0  0  0  0  0  0  0
   -2.0180   10.0970   -5.3450 N   0  0  0  0  0  0  0  0  0  0  0  0
   -1.5940   10.0640   -6.7630 C   0  0  2  0  0  0  0  0  0  0  0  0
    0.3910   10.9340   -8.0460 C   0  0  0  0  0  0  0  0  0  0  0  0
   -1.5620    8.6710   -7.3800 C   0  0  0  0  0  0  0  0  0  0  0  0
    0.3780    9.6310   -8.8370 C   0  0  0  0  0  0  0  0  0  0  0  0
   -0.2000    8.4310   -8.0510 C   0  0  0  0  0  0  0  0  0  0  0  0
  2  1  1  1
  2  3  1  0
  2  4  1  0
  4  5  1  6
  4  6  1  0
  6  7  1  0
  6  8  1  6
  5  9  1  0
  7 10  1  1
  7 11  1  0
  8 12  1  0
  9 13  1  0
  9 14  1  0
 11 15  1  0
 12 15  1  0
 13 16  1  0
 14 17  1  0
 16 17  1  0
 14 18  1  6
 17 19  1  1
 18 20  1  0
 19 21  1  0
 20 21  1  0
M  CHG  1   1  -1
M  END
