ucsf422-ucsf005
     RDKit          3D

 26 29  0  0  0  0  0  0  0  0999 V2000
    0.4710   11.1600   -2.8120 O   0  0  0  0  0  0  0  0  0  0  0  0
    1.2460   12.1560   -3.2140 C   0  0  2  0  0  0  0  0  0  0  0  0
    0.9540   13.1510   -2.2720 O   0  0  0  0  0  0  0  0  0  0  0  0
    0.8780   12.6640   -4.6260 C   0  0  0  0  0  0  0  0  0  0  0  0
    0.8380   14.1940   -4.8520 C   0  0  2  0  0  0  0  0  0  0  0  0
    1.9780   14.9050   -4.1770 C   0  0  0  0  0  0  0  0  0  0  0  0
   -0.2430   15.0410   -4.1800 C   0  0  1  0  0  0  0  0  0  0  0  0
    1.7050   16.3170   -4.4760 N   0  0  0  0  0  0  0  0  0  0  0  0
    0.2570   16.4780   -4.3250 C   0  0  1  0  0  0  0  0  0  0  0  0
   -1.6630   14.7570   -4.5980 C   0  0  1  0  0  0  0  0  0  0  0  0
   -2.3050   13.8020   -3.5620 C   0  0  0  0  0  0  0  0  0  0  0  0
   -0.3700   17.3140   -5.4370 C   0  0  0  0  0  0  0  0  0  0  0  0
   -2.5760   15.9370   -4.9890 C   0  0  2  0  0  0  0  0  0  0  0  0
   -4.0300   15.3380   -6.1450 Br  0  0  0  0  0  0  0  0  0  0  0  0
   -1.8960   17.1860   -5.5800 C   0  0  0  0  0  0  0  0  0  0  0  0
   -2.8300   14.3610   -2.3270 N   0  0  0  0  0  0  0  0  0  0  0  0
   -4.0020   15.1730   -2.4710 C   0  0  0  0  0  0  0  0  0  0  0  0
   -2.0720   14.8940   -1.1810 C   0  0  1  0  0  0  0  0  0  0  0  0
   -4.4630   15.4100   -1.1250 N   0  0  0  0  0  0  0  0  0  0  0  0
   -3.1930   15.5280   -0.3580 C   0  0  1  0  0  0  0  0  0  0  0  0
   -1.2400   13.9690   -0.4170 N   0  0  0  0  0  0  0  0  0  0  0  0
   -3.2730   14.8670    1.0090 C   0  0  2  0  0  0  0  0  0  0  0  0
   -0.9390   14.2080    0.9710 C   0  0  1  0  0  0  0  0  0  0  0  0
   -4.1740   15.5510    1.9180 N   0  0  0  0  0  0  0  0  0  0  0  0
    0.0970   15.1640    0.9500 N   0  0  0  0  0  0  0  0  0  0  0  0
   -2.0100   14.8650    1.6660 N   0  0  0  0  0  0  0  0  0  0  0  0
  2  1  1  1
  2  3  1  0
  2  4  1  0
  5  4  1  1
  5  6  1  0
  7  5  1  6
  6  8  1  0
  7  9  1  0
  8  9  1  0
  7 10  1  0
 10 11  1  1
  9 12  1  6
 10 13  1  0
 13 14  1  6
 12 15  1  0
 13 15  1  0
 11 16  1  0
 16 17  1  0
 16 18  1  0
 17 19  1  0
 18 20  1  0
 20 19  1  6
 18 21  1  1
 20 22  1  0
 21 23  1  0
 22 24  1  1
 23 25  1  6
 22 26  1  0
 23 26  1  0
M  CHG  1   1  -1
M  END
