ucsf258-ucsf511
     RDKit          3D

 18 20  0  0  0  0  0  0  0  0999 V2000
    0.4960   15.6370   -1.0510 O   0  0  0  0  0  0  0  0  0  0  0  0
    0.4220   14.5780   -1.7800 C   0  0  2  0  0  0  0  0  0  0  0  0
    0.8220   14.9950   -3.0890 O   0  0  0  0  0  0  0  0  0  0  0  0
   -1.0320   13.9730   -1.8580 C   0  0  2  0  0  0  0  0  0  0  0  0
   -2.1020   14.6220   -2.8540 C   0  0  2  0  0  0  0  0  0  0  0  0
   -1.4560   13.8740   -0.4020 N   0  0  0  0  0  0  0  0  0  0  0  0
   -0.6500   12.6500   -2.5090 C   0  0  0  0  0  0  0  0  0  0  0  0
   -1.9050   15.9730   -3.2510 O   0  0  0  0  0  0  0  0  0  0  0  0
   -3.5130   14.5060   -2.1560 C   0  0  1  0  0  0  0  0  0  0  0  0
   -2.2340   15.0100    0.0470 C   0  0  0  0  0  0  0  0  0  0  0  0
   -2.1030   13.9240   -4.1410 N   0  0  0  0  0  0  0  0  0  0  0  0
    0.0510   12.9140   -3.7870 N   0  0  0  0  0  0  0  0  0  0  0  0
   -3.4810   15.2910   -0.8150 C   0  0  2  0  0  0  0  0  0  0  0  0
   -0.7490   13.7840   -4.6520 C   0  0  0  0  0  0  0  0  0  0  0  0
   -4.6800   15.0120   -2.9880 C   0  0  0  0  0  0  0  0  0  0  0  0
   -6.0210   15.0710   -2.2330 C   0  0  0  0  0  0  0  0  0  0  0  0
   -4.7800   15.0690   -0.0380 C   0  0  0  0  0  0  0  0  0  0  0  0
   -5.9230   15.6390   -0.8280 C   0  0  0  0  0  0  0  0  0  0  0  0
  2  1  1  1
  2  3  1  0
  2  4  1  0
  4  5  1  0
  4  6  1  0
  4  7  1  6
  5  8  1  6
  5  9  1  0
  6 10  1  0
  5 11  1  0
  7 12  1  0
  9 13  1  0
 13 10  1  1
 11 14  1  0
 12 14  1  0
  9 15  1  6
 15 16  1  0
 13 17  1  0
 16 18  1  0
 17 18  1  0
M  CHG  1   1  -1
M  END
