ucsf278-ucsf213
     RDKit          3D

 21 23  0  0  0  0  0  0  0  0999 V2000
   -1.7530   14.5200   -1.4410 Cl  0  0  0  0  0  0  0  0  0  0  0  0
   -0.3810   14.1450   -2.5420 C   0  0  1  0  0  0  0  0  0  0  0  0
   -0.8610   13.5330   -3.8810 C   0  0  2  0  0  0  0  0  0  0  0  0
    0.4660   15.3850   -2.8280 C   0  0  0  0  0  0  0  0  0  0  0  0
   -1.2990   12.0610   -3.8500 C   0  0  0  0  0  0  0  0  0  0  0  0
    0.2280   13.6150   -4.9740 C   0  0  2  0  0  0  0  0  0  0  0  0
    0.5070   15.5820   -4.3630 C   0  0  0  0  0  0  0  0  0  0  0  0
   -0.5840   11.3560   -5.0040 C   0  0  2  0  0  0  0  0  0  0  0  0
    0.5200   12.2330   -5.3750 N   0  0  0  0  0  0  0  0  0  0  0  0
    1.5170   14.3610   -4.6040 C   0  0  1  0  0  0  0  0  0  0  0  0
    0.9740   16.9900   -4.8980 C   0  0  0  0  0  0  0  0  0  0  0  0
   -0.9720   15.3160   -4.8580 C   0  0  0  0  0  0  0  0  0  0  0  0
   -1.4830   11.1010   -6.2080 C   0  0  0  0  0  0  0  0  0  0  0  0
    1.8830   13.0750   -3.7120 C   0  0  0  0  0  0  0  0  0  0  0  0
    0.0030   17.9050   -5.6770 C   0  0  0  0  0  0  0  0  0  0  0  0
   -1.9840   16.4780   -5.0310 C   0  0  0  0  0  0  0  0  0  0  0  0
   -2.5990   10.3180   -5.7900 O   0  0  0  0  0  0  0  0  0  0  0  0
    0.8190   12.3980   -2.7450 C   0  0  1  0  0  0  0  0  0  0  0  0
   -1.4350   17.8850   -5.2180 C   0  0  0  0  0  0  0  0  0  0  0  0
    0.8370   11.0850   -2.6770 O   0  0  0  0  0  0  0  0  0  0  0  0
    1.0130   12.7470   -1.3910 O   0  0  0  0  0  0  0  0  0  0  0  0
  2  1  1  1
  2  3  1  0
  2  4  1  0
  3  5  1  1
  3  6  1  0
  7  4  1  0
  5  8  1  0
  6  9  1  1
  8  9  1  0
  6 10  1  0
  7 10  1  0
  7 11  1  0
  7 12  1  0
  8 13  1  6
 10 14  1  1
 11 15  1  0
 12 16  1  0
 13 17  1  0
 14 18  1  0
 15 19  1  0
 16 19  1  0
 18 20  1  1
 18 21  1  0
M  CHG  1  20  -1
M  END
