ucsf110-ucsf005
     RDKit          3D

 12 13  0  0  0  0  0  0  0  0999 V2000
   -0.0380   14.6660   -2.8680 C   0  0  0  0  0  0  0  0  0  0  0  0
   -1.0890   15.5200   -2.3430 N   0  0  0  0  0  0  0  0  0  0  0  0
   -2.4270   15.2670   -2.9240 C   0  0  0  0  0  0  0  0  0  0  0  0
   -1.2070   15.5950   -0.8880 C   0  0  1  0  0  0  0  0  0  0  0  0
   -3.4050   15.3260   -1.7510 C   0  0  0  0  0  0  0  0  0  0  0  0
   -2.5180   14.9290   -0.5990 C   0  0  2  0  0  0  0  0  0  0  0  0
   -0.2080   14.8770   -0.1690 N   0  0  0  0  0  0  0  0  0  0  0  0
   -2.9390   15.3410    0.7810 C   0  0  1  0  0  0  0  0  0  0  0  0
   -0.7910   14.2460    0.9810 C   0  0  1  0  0  0  0  0  0  0  0  0
   -4.1070   14.6050    1.2020 N   0  0  0  0  0  0  0  0  0  0  0  0
    0.1680   14.1650    2.0130 N   0  0  0  0  0  0  0  0  0  0  0  0
   -1.8510   14.9710    1.6430 N   0  0  0  0  0  0  0  0  0  0  0  0
  1  2  1  0
  2  3  1  0
  2  4  1  0
  3  5  1  0
  4  6  1  0
  6  5  1  6
  4  7  1  1
  6  8  1  0
  7  9  1  0
  8 10  1  1
  9 11  1  1
  8 12  1  0
  9 12  1  0
M  END
