ucsf365-ucsf173
     RDKit          3D

 20 22  0  0  0  0  0  0  0  0999 V2000
    0.0210   11.9920   -2.3500 O   0  0  0  0  0  0  0  0  0  0  0  0
    0.6610   12.7230   -3.2530 C   0  0  1  0  0  0  0  0  0  0  0  0
    1.9850   12.7240   -2.7630 O   0  0  0  0  0  0  0  0  0  0  0  0
    0.6120   12.1070   -4.6380 C   0  0  0  0  0  0  0  0  0  0  0  0
    0.1860   14.1620   -3.5470 C   0  0  1  0  0  0  0  0  0  0  0  0
   -0.6470   12.5250   -5.4380 C   0  0  1  0  0  0  0  0  0  0  0  0
   -1.2440   14.6010   -3.1750 C   0  0  0  0  0  0  0  0  0  0  0  0
    1.0070   15.3840   -3.2000 C   0  0  0  0  0  0  0  0  0  0  0  0
   -1.8940   11.8050   -4.8870 C   0  0  2  0  0  0  0  0  0  0  0  0
   -0.8650   14.0520   -5.3850 C   0  0  0  0  0  0  0  0  0  0  0  0
   -1.3230   16.0870   -3.6200 C   0  0  1  0  0  0  0  0  0  0  0  0
    0.1460   16.5440   -3.7410 C   0  0  2  0  0  0  0  0  0  0  0  0
   -1.8370   10.4210   -5.1900 O   0  0  0  0  0  0  0  0  0  0  0  0
   -3.2600   12.3250   -5.3590 C   0  0  0  0  0  0  0  0  0  0  0  0
   -2.2860   14.4640   -5.8350 C   0  0  0  0  0  0  0  0  0  0  0  0
   -2.1450   16.3520   -4.8840 C   0  0  0  0  0  0  0  0  0  0  0  0
    0.5580   17.0530   -5.1260 C   0  0  0  0  0  0  0  0  0  0  0  0
   -3.4040   13.8000   -5.0980 C   0  0  0  0  0  0  0  0  0  0  0  0
   -1.8890   17.7320   -5.4850 C   0  0  0  0  0  0  0  0  0  0  0  0
   -0.4290   17.9640   -5.8470 C   0  0  0  0  0  0  0  0  0  0  0  0
  2  1  1  1
  2  3  1  0
  2  4  1  0
  2  5  1  0
  6  4  1  1
  5  7  1  1
  5  8  1  0
  6  9  1  0
  6 10  1  0
 11  7  1  6
 12  8  1  6
 11 12  1  0
  9 13  1  6
  9 14  1  0
 10 15  1  0
 11 16  1  0
 12 17  1  0
 14 18  1  0
 15 18  1  0
 16 19  1  0
 17 20  1  0
 19 20  1  0
M  CHG  1   1  -1
M  END
