ucsf124-ucsf151
     RDKit          3D

 24 26  0  0  0  0  0  0  0  0999 V2000
    0.7570   10.7300   -2.2170 O   0  0  0  0  0  0  0  0  0  0  0  0
    0.3110   11.8180   -2.8670 C   0  0  1  0  0  0  0  0  0  0  0  0
    0.6600   13.0350   -2.1540 O   0  0  0  0  0  0  0  0  0  0  0  0
    1.0360   12.0000   -4.2500 C   0  0  0  0  0  0  0  0  0  0  0  0
    0.2120   14.1940   -2.8570 C   0  0  2  0  0  0  0  0  0  0  0  0
    0.3810   11.6130   -5.4820 N   0  0  0  0  0  0  0  0  0  0  0  0
    0.5550   15.3410   -2.0820 O   0  0  0  0  0  0  0  0  0  0  0  0
   -1.0410   11.2960   -5.5280 C   0  0  2  0  0  0  0  0  0  0  0  0
    1.1210   10.9220   -6.5210 C   0  0  2  0  0  0  0  0  0  0  0  0
   -1.3170   14.1770   -3.0740 C   0  0  1  0  0  0  0  0  0  0  0  0
   -1.4910   10.6270   -4.3590 O   0  0  0  0  0  0  0  0  0  0  0  0
    1.2820   11.7880   -7.6200 O   0  0  0  0  0  0  0  0  0  0  0  0
   -1.1770   10.3560   -6.7170 C   0  0  1  0  0  0  0  0  0  0  0  0
    0.2040    9.7630   -6.8930 C   0  0  1  0  0  0  0  0  0  0  0  0
   -1.7940   15.4200   -3.8310 C   0  0  0  0  0  0  0  0  0  0  0  0
   -1.8100   12.9310   -3.8150 C   0  0  0  0  0  0  0  0  0  0  0  0
   -2.1890    9.2280   -6.6280 C   0  0  0  0  0  0  0  0  0  0  0  0
    0.2990    9.1360   -8.2760 C   0  0  0  0  0  0  0  0  0  0  0  0
   -2.1520   15.1340   -5.2760 C   0  0  2  0  0  0  0  0  0  0  0  0
   -3.1380   13.0330   -4.4460 N   0  0  0  0  0  0  0  0  0  0  0  0
   -2.6300   16.3250   -5.9360 O   0  0  0  0  0  0  0  0  0  0  0  0
   -2.1960    8.4170   -7.9270 C   0  0  0  0  0  0  0  0  0  0  0  0
   -0.8020    8.0860   -8.5000 C   0  0  0  0  0  0  0  0  0  0  0  0
   -3.2020   14.0430   -5.4830 C   0  0  0  0  0  0  0  0  0  0  0  0
  2  1  1  1
  2  3  1  0
  2  4  1  0
  3  5  1  0
  4  6  1  0
  5  7  1  1
  6  8  1  0
  6  9  1  0
  5 10  1  0
  8 11  1  1
  9 12  1  6
  8 13  1  0
  9 14  1  0
 13 14  1  0
 10 15  1  6
 10 16  1  0
 13 17  1  1
 14 18  1  6
 15 19  1  0
 16 20  1  0
 19 21  1  1
 17 22  1  0
 18 23  1  0
 22 23  1  0
 19 24  1  0
 20 24  1  0
M  CHG  1   1  -1
M  END
