ucsf028-ucsf339
     RDKit          3D

 24 27  0  0  0  0  0  0  0  0999 V2000
   -3.8470   16.3560    1.0000 N   0  0  0  0  0  0  0  0  0  0  0  0
   -3.5610   15.0880    0.3470 C   0  0  2  0  0  0  0  0  0  0  0  0
   -2.0940   14.6490    0.3430 C   0  0  1  0  0  0  0  0  0  0  0  0
   -4.0690   15.0850   -1.0160 N   0  0  0  0  0  0  0  0  0  0  0  0
   -4.2900   14.0620    1.2480 C   0  0  0  0  0  0  0  0  0  0  0  0
   -3.0960   14.9170   -2.1690 C   0  0  0  0  0  0  0  0  0  0  0  0
   -1.2620   15.4220   -0.6300 C   0  0  2  0  0  0  0  0  0  0  0  0
   -1.3330   14.8760    1.5640 N   0  0  0  0  0  0  0  0  0  0  0  0
   -5.7880   14.2940    1.3240 C   0  0  0  0  0  0  0  0  0  0  0  0
   -5.2450   14.2140   -1.1680 C   0  0  0  0  0  0  0  0  0  0  0  0
   -1.6600   15.2650   -1.9810 N   0  0  0  0  0  0  0  0  0  0  0  0
    0.0520   14.9130   -0.3080 N   0  0  0  0  0  0  0  0  0  0  0  0
   -0.0010   14.5990    1.0900 C   0  0  0  0  0  0  0  0  0  0  0  0
   -6.3220   14.4460   -0.0880 C   0  0  0  0  0  0  0  0  0  0  0  0
   -0.6430   14.5020   -2.7470 C   0  0  2  0  0  0  0  0  0  0  0  0
    0.5420   14.4940   -2.1570 O   0  0  0  0  0  0  0  0  0  0  0  0
   -0.1790   15.1630   -3.8700 O   0  0  0  0  0  0  0  0  0  0  0  0
   -0.8920   12.9930   -3.0830 C   0  0  1  0  0  0  0  0  0  0  0  0
   -0.9070   12.5500   -4.5260 C   0  0  0  0  0  0  0  0  0  0  0  0
    0.0870   12.1220   -2.4750 O   0  0  0  0  0  0  0  0  0  0  0  0
    0.1030   10.8700   -3.2550 N   0  0  0  0  0  0  0  0  0  0  0  0
   -0.9210   11.0620   -4.2740 C   0  0  2  0  0  0  0  0  0  0  0  0
   -0.6780   10.3150   -5.4630 O   0  0  0  0  0  0  0  0  0  0  0  0
   -0.1820   11.0940   -6.5400 C   0  0  0  0  0  0  0  0  0  0  0  0
  2  1  1  1
  2  3  1  0
  2  4  1  0
  2  5  1  0
  4  6  1  0
  3  7  1  0
  3  8  1  1
  5  9  1  0
  4 10  1  0
  6 11  1  0
  7 11  1  0
  7 12  1  6
  8 13  1  0
 12 13  1  0
  9 14  1  0
 10 14  1  0
 11 15  1  0
 15 16  1  1
 15 17  1  0
 15 18  1  0
 18 19  1  6
 18 20  1  0
 20 21  1  0
 19 22  1  0
 21 22  1  0
 22 23  1  6
 23 24  1  0
M  CHG  1  16  -1
M  END
