ucsf115-ucsf006
     RDKit          3D

 21 23  0  0  0  0  0  0  0  0999 V2000
   -1.7530   13.8890   -3.5240 C   0  0  0  0  0  0  0  0  0  0  0  0
   -1.1470   14.8830   -2.6260 N   0  0  0  0  0  0  0  0  0  0  0  0
    0.2860   15.1580   -3.0060 C   0  0  0  0  0  0  0  0  0  0  0  0
   -1.5300   12.4180   -3.1500 C   0  0  1  0  0  0  0  0  0  0  0  0
   -1.2130   11.5920   -4.2720 O   0  0  0  0  0  0  0  0  0  0  0  0
   -0.3760   12.2540   -2.1550 C   0  0  0  0  0  0  0  0  0  0  0  0
   -1.4450   14.7030   -1.1830 C   0  0  2  0  0  0  0  0  0  0  0  0
    0.7060   14.7370   -4.4390 C   0  0  0  0  0  0  0  0  0  0  0  0
    0.4520   11.1410   -2.7140 C   0  0  0  0  0  0  0  0  0  0  0  0
   -0.4880   10.5160   -3.7120 C   0  0  0  0  0  0  0  0  0  0  0  0
   -0.6050   13.7570   -0.4930 N   0  0  0  0  0  0  0  0  0  0  0  0
   -2.8830   14.3920   -0.7230 C   0  0  1  0  0  0  0  0  0  0  0  0
    0.7190   13.1980   -4.5780 C   0  0  1  0  0  0  0  0  0  0  0  0
   -0.4280   14.2340    0.8680 C   0  0  0  0  0  0  0  0  0  0  0  0
   -2.8260   14.3980    0.8200 C   0  0  1  0  0  0  0  0  0  0  0  0
   -4.0500   15.2290   -1.0440 N   0  0  0  0  0  0  0  0  0  0  0  0
    0.2340   12.8250   -5.8550 O   0  0  0  0  0  0  0  0  0  0  0  0
    1.9520   12.7460   -4.5910 O   0  0  0  0  0  0  0  0  0  0  0  0
   -1.6070   14.9860    1.3110 N   0  0  0  0  0  0  0  0  0  0  0  0
   -3.9640   15.1850    1.2600 N   0  0  0  0  0  0  0  0  0  0  0  0
   -4.8760   15.0400    0.1320 C   0  0  0  0  0  0  0  0  0  0  0  0
  1  2  1  0
  2  3  1  0
  4  1  1  6
  4  5  1  0
  4  6  1  0
  7  2  1  6
  3  8  1  0
  6  9  1  0
  5 10  1  0
  9 10  1  0
  7 11  1  0
  7 12  1  0
  8 13  1  0
 11 14  1  0
 12 15  1  0
 12 16  1  1
 13 17  1  6
 13 18  1  0
 14 19  1  0
 15 19  1  6
 15 20  1  0
 16 21  1  0
 20 21  1  0
M  CHG  1  18  -1
M  END
