ucsf364-ucsf487
     RDKit          3D

 24 26  0  0  0  0  0  0  0  0999 V2000
    1.6390   13.9280   -4.8040 C   0  0  0  0  0  0  0  0  0  0  0  0
    1.2620   12.4570   -4.7080 C   0  0  2  0  0  0  0  0  0  0  0  0
    0.9470   11.8350   -6.0790 C   0  0  2  0  0  0  0  0  0  0  0  0
    0.2020   12.1670   -3.6160 C   0  0  1  0  0  0  0  0  0  0  0  0
    0.6150   12.8630   -6.9760 O   0  0  0  0  0  0  0  0  0  0  0  0
    0.4410   12.9140   -2.2570 C   0  0  1  0  0  0  0  0  0  0  0  0
   -1.2410   12.2520   -4.1790 C   0  0  0  0  0  0  0  0  0  0  0  0
   -0.2550   10.8910   -6.0710 C   0  0  0  0  0  0  0  0  0  0  0  0
   -0.5090   13.9980   -2.2350 O   0  0  0  0  0  0  0  0  0  0  0  0
    0.2090   12.1130   -1.2380 O   0  0  0  0  0  0  0  0  0  0  0  0
   -1.5060   11.5180   -5.4920 C   0  0  0  0  0  0  0  0  0  0  0  0
   -0.8050   14.4590   -0.9260 C   0  0  0  0  0  0  0  0  0  0  0  0
   -1.7410   15.6650   -1.0240 C   0  0  0  0  0  0  0  0  0  0  0  0
   -3.2260   15.4560   -0.6430 C   0  0  1  0  0  0  0  0  0  0  0  0
   -4.2170   15.6960   -1.7910 C   0  0  0  0  0  0  0  0  0  0  0  0
   -3.5170   14.1240    0.0500 C   0  0  0  0  0  0  0  0  0  0  0  0
   -5.0160   13.8980    0.2970 C   0  0  1  0  0  0  0  0  0  0  0  0
   -5.0520   14.4860   -2.1820 C   0  0  0  0  0  0  0  0  0  0  0  0
   -5.5800   14.9080    1.2670 C   0  0  0  0  0  0  0  0  0  0  0  0
   -5.8440   13.9320   -0.9910 C   0  0  2  0  0  0  0  0  0  0  0  0
   -7.0540   14.6130    1.6300 C   0  0  2  0  0  0  0  0  0  0  0  0
   -7.1230   14.6680   -0.8640 N   0  0  0  0  0  0  0  0  0  0  0  0
   -7.1740   13.5220    2.5960 N   0  0  0  0  0  0  0  0  0  0  0  0
   -7.8840   14.3730    0.3590 C   0  0  0  0  0  0  0  0  0  0  0  0
  2  1  1  6
  2  3  1  0
  2  4  1  0
  3  5  1  6
  4  6  1  0
  4  7  1  6
  3  8  1  0
  6  9  1  0
  6 10  1  1
  7 11  1  0
  8 11  1  0
  9 12  1  0
 12 13  1  0
 14 13  1  6
 14 15  1  0
 14 16  1  0
 17 16  1  6
 15 18  1  0
 17 19  1  0
 17 20  1  0
 20 18  1  6
 19 21  1  0
 20 22  1  0
 21 23  1  1
 21 24  1  0
 22 24  1  0
M  CHG  1  10  -1
M  END
