ucsf190-ucsf396
     RDKit          3D

 26 28  0  0  0  0  0  0  0  0999 V2000
    0.5870   10.4430   -2.3880 O   0  0  0  0  0  0  0  0  0  0  0  0
    0.9840   11.7180   -2.3520 C   0  0  2  0  0  0  0  0  0  0  0  0
    0.0120   12.3210   -1.5550 O   0  0  0  0  0  0  0  0  0  0  0  0
    1.1670   12.3290   -3.7550 C   0  0  0  0  0  0  0  0  0  0  0  0
    0.8860   13.8240   -3.8850 C   0  0  2  0  0  0  0  0  0  0  0  0
   -0.5450   14.2020   -4.2810 C   0  0  1  0  0  0  0  0  0  0  0  0
    1.8480   14.6130   -4.6400 N   0  0  0  0  0  0  0  0  0  0  0  0
   -0.5620   15.5890   -4.9140 C   0  0  2  0  0  0  0  0  0  0  0  0
    1.8120   15.9970   -4.2180 N   0  0  0  0  0  0  0  0  0  0  0  0
   -1.3020   13.2580   -5.1920 C   0  0  0  0  0  0  0  0  0  0  0  0
    0.4390   16.5130   -4.1990 C   0  0  1  0  0  0  0  0  0  0  0  0
   -2.0120   16.1070   -5.0380 C   0  0  0  0  0  0  0  0  0  0  0  0
   -2.7900   13.5780   -5.1020 C   0  0  0  0  0  0  0  0  0  0  0  0
    0.4580   17.7940   -4.7930 O   0  0  0  0  0  0  0  0  0  0  0  0
   -3.1260   15.0490   -4.7530 C   0  0  1  0  0  0  0  0  0  0  0  0
   -3.7410   15.2090   -3.3280 C   0  0  0  0  0  0  0  0  0  0  0  0
   -3.3120   14.2060   -2.2310 C   0  0  0  0  0  0  0  0  0  0  0  0
   -2.8010   14.9410   -1.0610 N   0  0  0  0  0  0  0  0  0  0  0  0
   -3.5680   15.1030    0.1850 C   0  0  2  0  0  0  0  0  0  0  0  0
   -3.1310   14.1480    1.1410 O   0  0  0  0  0  0  0  0  0  0  0  0
   -5.1070   15.2470    0.1590 C   0  0  1  0  0  0  0  0  0  0  0  0
   -5.7960   14.6930   -1.0840 C   0  0  0  0  0  0  0  0  0  0  0  0
   -5.7380   14.6360    1.4140 C   0  0  0  0  0  0  0  0  0  0  0  0
   -7.2530   14.8480   -1.0600 N   0  0  0  0  0  0  0  0  0  0  0  0
   -7.2670   14.4670    1.3960 C   0  0  0  0  0  0  0  0  0  0  0  0
   -7.8980   14.1580    0.0410 C   0  0  0  0  0  0  0  0  0  0  0  0
  2  1  1  6
  2  3  1  0
  2  4  1  0
  5  4  1  6
  5  6  1  0
  5  7  1  0
  6  8  1  0
  7  9  1  0
  6 10  1  6
  8 11  1  0
  9 11  1  0
  8 12  1  1
 10 13  1  0
 11 14  1  6
 12 15  1  0
 13 15  1  0
 15 16  1  1
 16 17  1  0
 17 18  1  0
 18 19  1  0
 19 20  1  1
 19 21  1  0
 21 22  1  6
 21 23  1  0
 22 24  1  0
 23 25  1  0
 24 26  1  0
 25 26  1  0
M  CHG  1   1  -1
M  END
