ucsf336-ucsf424
     RDKit          3D

 15 17  0  0  0  0  0  0  0  0999 V2000
    1.3090   13.9320   -4.8770 O   0  0  0  0  0  0  0  0  0  0  0  0
    1.0730   12.6550   -4.6810 C   0  0  1  0  0  0  0  0  0  0  0  0
    2.1100   12.3190   -3.7720 O   0  0  0  0  0  0  0  0  0  0  0  0
   -0.2480   12.3220   -4.0160 C   0  0  2  0  0  0  0  0  0  0  0  0
    0.9160   11.7480   -5.9430 C   0  0  1  0  0  0  0  0  0  0  0  0
   -0.0470   11.1700   -3.2140 O   0  0  0  0  0  0  0  0  0  0  0  0
   -1.1850   12.0120   -5.1220 N   0  0  0  0  0  0  0  0  0  0  0  0
   -0.4320   10.9570   -5.8280 C   0  0  1  0  0  0  0  0  0  0  0  0
    0.5650   12.4060   -7.1840 N   0  0  0  0  0  0  0  0  0  0  0  0
   -0.7810   10.6880   -7.3070 C   0  0  1  0  0  0  0  0  0  0  0  0
   -0.7610    9.6640   -5.0680 C   0  0  0  0  0  0  0  0  0  0  0  0
    0.2480   11.2880   -8.0460 O   0  0  0  0  0  0  0  0  0  0  0  0
   -1.0300    9.2260   -7.6730 C   0  0  0  0  0  0  0  0  0  0  0  0
   -2.1740    9.1570   -5.4630 C   0  0  0  0  0  0  0  0  0  0  0  0
   -2.2300    8.6740   -6.9030 C   0  0  0  0  0  0  0  0  0  0  0  0
  2  1  1  6
  2  3  1  0
  2  4  1  0
  2  5  1  0
  4  6  1  1
  4  7  1  0
  5  8  1  0
  8  7  1  0
  5  9  1  6
  8 10  1  0
  8 11  1  1
  9 12  1  0
 10 12  1  0
 10 13  1  1
 11 14  1  0
 13 15  1  0
 14 15  1  0
M  CHG  1   1  -1
M  END
