ucsf274-ucsf511
     RDKit          3D

 29 33  0  0  0  0  0  0  0  0999 V2000
    0.6670   10.6750   -2.5730 O   0  0  0  0  0  0  0  0  0  0  0  0
    1.0670   11.9360   -2.4160 C   0  0  2  0  0  0  0  0  0  0  0  0
    0.0440   12.5680   -1.6870 O   0  0  0  0  0  0  0  0  0  0  0  0
    1.3910   12.6750   -3.7630 C   0  0  0  0  0  0  0  0  0  0  0  0
    0.4060   12.7360   -4.9570 C   0  0  0  0  0  0  0  0  0  0  0  0
    0.0100   13.9870   -1.7710 C   0  0  2  0  0  0  0  0  0  0  0  0
   -0.3320   11.4300   -5.2480 C   0  0  1  0  0  0  0  0  0  0  0  0
   -1.3520   14.6260   -1.5130 C   0  0  1  0  0  0  0  0  0  0  0  0
    0.5350   14.3780   -3.1190 N   0  0  0  0  0  0  0  0  0  0  0  0
   -1.8940   11.5490   -5.0640 C   0  0  2  0  0  0  0  0  0  0  0  0
   -0.0040   11.0180   -6.6390 N   0  0  0  0  0  0  0  0  0  0  0  0
   -2.2370   14.5690   -2.7580 C   0  0  2  0  0  0  0  0  0  0  0  0
   -0.3740   14.5670   -4.2500 C   0  0  0  0  0  0  0  0  0  0  0  0
   -2.1690   14.4170   -0.3630 O   0  0  0  0  0  0  0  0  0  0  0  0
   -2.3200   11.9000   -3.7760 O   0  0  0  0  0  0  0  0  0  0  0  0
   -2.5960   10.3000   -5.3690 N   0  0  0  0  0  0  0  0  0  0  0  0
   -0.5720    9.6820   -6.7770 C   0  0  1  0  0  0  0  0  0  0  0  0
   -1.6390   15.2020   -3.9320 N   0  0  0  0  0  0  0  0  0  0  0  0
   -3.5260   14.4380   -0.8460 C   0  0  2  0  0  0  0  0  0  0  0  0
   -3.5420   15.1030   -2.2120 C   0  0  2  0  0  0  0  0  0  0  0  0
   -2.1100    9.6810   -6.6040 C   0  0  1  0  0  0  0  0  0  0  0  0
   -0.1850    9.1060   -8.1350 C   0  0  0  0  0  0  0  0  0  0  0  0
   -4.8570   14.7510   -2.8820 C   0  0  0  0  0  0  0  0  0  0  0  0
   -4.5120   15.1430    0.0670 C   0  0  0  0  0  0  0  0  0  0  0  0
   -0.7240    7.6840   -8.2750 C   0  0  0  0  0  0  0  0  0  0  0  0
   -2.6090    8.2390   -6.6570 C   0  0  0  0  0  0  0  0  0  0  0  0
   -6.0430   15.2070   -2.0060 C   0  0  0  0  0  0  0  0  0  0  0  0
   -5.9080   14.9000   -0.4970 C   0  0  0  0  0  0  0  0  0  0  0  0
   -2.2190    7.5880   -7.9820 C   0  0  0  0  0  0  0  0  0  0  0  0
  2  1  1  6
  2  3  1  0
  2  4  1  0
  4  5  1  0
  6  3  1  6
  7  5  1  6
  6  8  1  0
  6  9  1  0
  7 10  1  0
  7 11  1  0
  8 12  1  0
  9 13  1  0
  8 14  1  1
 10 15  1  1
 10 16  1  0
 11 17  1  0
 12 18  1  6
 13 18  1  0
 14 19  1  0
 12 20  1  0
 19 20  1  0
 16 21  1  0
 17 21  1  0
 17 22  1  6
 20 23  1  6
 19 24  1  1
 22 25  1  0
 21 26  1  1
 23 27  1  0
 24 28  1  0
 27 28  1  0
 25 29  1  0
 26 29  1  0
M  CHG  1   1  -1
M  END
