ucsf028-ucsf243
     RDKit          3D

 21 23  0  0  0  0  0  0  0  0999 V2000
   -4.7700   15.0820    0.6610 N   0  0  0  0  0  0  0  0  0  0  0  0
   -3.5100   15.4350    0.0220 C   0  0  1  0  0  0  0  0  0  0  0  0
   -2.3720   14.4770    0.4630 C   0  0  1  0  0  0  0  0  0  0  0  0
   -3.8580   15.4330   -1.4070 N   0  0  0  0  0  0  0  0  0  0  0  0
   -2.8800   14.7680   -2.2930 C   0  0  1  0  0  0  0  0  0  0  0  0
   -1.3290   14.2800   -0.6310 C   0  0  1  0  0  0  0  0  0  0  0  0
   -1.5580   14.9500    1.6100 N   0  0  0  0  0  0  0  0  0  0  0  0
   -2.9920   15.1260   -3.6670 O   0  0  0  0  0  0  0  0  0  0  0  0
   -1.5240   14.9620   -1.8620 N   0  0  0  0  0  0  0  0  0  0  0  0
   -0.0420   14.7120   -0.0750 N   0  0  0  0  0  0  0  0  0  0  0  0
   -0.2370   14.4340    1.3090 C   0  0  0  0  0  0  0  0  0  0  0  0
   -0.5020   14.4540   -2.7600 C   0  0  1  0  0  0  0  0  0  0  0  0
   -0.2450   15.2360   -3.8960 O   0  0  0  0  0  0  0  0  0  0  0  0
    0.6680   14.5060   -2.1490 O   0  0  0  0  0  0  0  0  0  0  0  0
   -0.7210   12.9520   -3.1360 C   0  0  1  0  0  0  0  0  0  0  0  0
   -0.7320   12.5460   -4.5780 C   0  0  0  0  0  0  0  0  0  0  0  0
    0.2550   12.0760   -2.5510 O   0  0  0  0  0  0  0  0  0  0  0  0
    0.1120   10.8000   -3.2650 N   0  0  0  0  0  0  0  0  0  0  0  0
   -0.8620   11.0670   -4.3260 C   0  0  2  0  0  0  0  0  0  0  0  0
   -0.6030   10.2980   -5.4920 O   0  0  0  0  0  0  0  0  0  0  0  0
   -0.1850   11.0810   -6.5990 C   0  0  0  0  0  0  0  0  0  0  0  0
  2  1  1  1
  2  3  1  0
  2  4  1  0
  4  5  1  0
  3  6  1  0
  3  7  1  1
  5  8  1  6
  5  9  1  0
  6  9  1  0
  6 10  1  1
  7 11  1  0
 10 11  1  0
  9 12  1  0
 12 13  1  6
 12 14  1  0
 12 15  1  0
 15 16  1  6
 15 17  1  0
 17 18  1  0
 16 19  1  0
 18 19  1  0
 19 20  1  6
 20 21  1  0
M  CHG  1  14  -1
M  END
