ucsf039-ucsf213
     RDKit          3D

 25 28  0  0  0  0  0  0  0  0999 V2000
   -4.7270   15.2490    1.1090 N   0  0  0  0  0  0  0  0  0  0  0  0
   -3.6660   14.8400    0.2030 C   0  0  2  0  0  0  0  0  0  0  0  0
   -2.2930   15.3200    0.6810 C   0  0  2  0  0  0  0  0  0  0  0  0
   -4.0290   15.3430   -1.1080 N   0  0  0  0  0  0  0  0  0  0  0  0
   -3.0770   14.9760   -2.1530 C   0  0  0  0  0  0  0  0  0  0  0  0
   -1.4100   15.5310   -0.5380 C   0  0  2  0  0  0  0  0  0  0  0  0
   -1.5670   14.4380    1.5910 N   0  0  0  0  0  0  0  0  0  0  0  0
   -1.7520   14.6260   -1.5880 N   0  0  0  0  0  0  0  0  0  0  0  0
   -0.0750   15.3320    0.0030 N   0  0  0  0  0  0  0  0  0  0  0  0
   -0.2030   14.4110    1.1090 C   0  0  0  0  0  0  0  0  0  0  0  0
   -0.7410   14.6560   -2.6180 C   0  0  0  0  0  0  0  0  0  0  0  0
   -0.7890   15.9320   -3.4540 C   0  0  1  0  0  0  0  0  0  0  0  0
    0.3560   16.8550   -3.1940 C   0  0  0  0  0  0  0  0  0  0  0  0
   -0.6530   15.8060   -4.9310 C   0  0  1  0  0  0  0  0  0  0  0  0
   -1.1910   17.2600   -5.2130 C   0  0  1  0  0  0  0  0  0  0  0  0
    0.2370   18.1280   -4.4780 S   0  0  0  0  0  0  0  0  0  0  0  0
    0.8340   15.7170   -5.2600 C   0  0  0  0  0  0  0  0  0  0  0  0
   -1.3460   14.1280   -5.2890 S   0  0  0  0  0  0  0  0  0  0  0  0
   -1.4950   17.9390   -6.5380 C   0  0  0  0  0  0  0  0  0  0  0  0
    0.2630   13.2710   -4.8850 C   0  0  1  0  0  0  0  0  0  0  0  0
    1.3050   14.2630   -5.3320 C   0  0  0  0  0  0  0  0  0  0  0  0
    0.7880   12.6180   -3.5610 C   0  0  0  0  0  0  0  0  0  0  0  0
   -0.0160   11.8150   -2.5020 C   0  0  1  0  0  0  0  0  0  0  0  0
    0.3880   10.5580   -2.3490 O   0  0  0  0  0  0  0  0  0  0  0  0
    0.3790   12.3520   -1.2540 O   0  0  0  0  0  0  0  0  0  0  0  0
  2  1  1  1
  2  3  1  0
  2  4  1  0
  4  5  1  0
  3  6  1  0
  3  7  1  1
  5  8  1  0
  6  8  1  0
  6  9  1  1
  7 10  1  0
  9 10  1  0
  8 11  1  0
 12 11  1  1
 12 13  1  0
 12 14  1  0
 14 15  1  0
 13 16  1  0
 15 16  1  0
 14 17  1  1
 14 18  1  0
 15 19  1  6
 18 20  1  0
 17 21  1  0
 20 21  1  0
 20 22  1  1
 22 23  1  0
 23 24  1  1
 23 25  1  0
M  CHG  1  24  -1
M  END
