ucsf262-ucsf005
     RDKit          3D

 25 28  0  0  0  0  0  0  0  0999 V2000
   -2.9800   15.4930   -5.5930 Cl  0  0  0  0  0  0  0  0  0  0  0  0
   -1.9550   16.8370   -5.0000 C   0  0  1  0  0  0  0  0  0  0  0  0
   -0.6810   16.4580   -4.2420 C   0  0  1  0  0  0  0  0  0  0  0  0
   -1.8010   17.8810   -6.1220 C   0  0  0  0  0  0  0  0  0  0  0  0
   -0.3010   14.9740   -4.0080 C   0  0  2  0  0  0  0  0  0  0  0  0
    0.6410   17.1660   -4.5160 C   0  0  1  0  0  0  0  0  0  0  0  0
   -0.5540   18.7500   -6.1450 C   0  0  0  0  0  0  0  0  0  0  0  0
   -1.3410   14.2660   -3.1390 C   0  0  0  0  0  0  0  0  0  0  0  0
    1.1200   15.1530   -3.4480 C   0  0  2  0  0  0  0  0  0  0  0  0
    1.6380   16.1000   -4.4640 N   0  0  0  0  0  0  0  0  0  0  0  0
    0.7480   18.0780   -5.7230 C   0  0  0  0  0  0  0  0  0  0  0  0
    2.0900   13.9740   -3.1060 C   0  0  1  0  0  0  0  0  0  0  0  0
   -2.2400   15.1730   -2.4040 N   0  0  0  0  0  0  0  0  0  0  0  0
    3.1140   14.3030   -2.3330 O   0  0  0  0  0  0  0  0  0  0  0  0
    1.4030   13.0400   -2.2800 O   0  0  0  0  0  0  0  0  0  0  0  0
   -3.6660   14.9950   -2.6550 C   0  0  0  0  0  0  0  0  0  0  0  0
   -2.0170   15.2860   -0.9610 C   0  0  1  0  0  0  0  0  0  0  0  0
   -4.2870   14.6170   -1.3790 N   0  0  0  0  0  0  0  0  0  0  0  0
   -3.4200   15.2790   -0.3910 C   0  0  1  0  0  0  0  0  0  0  0  0
   -1.2180   14.1630   -0.4890 N   0  0  0  0  0  0  0  0  0  0  0  0
   -3.3630   14.7530    1.0420 C   0  0  2  0  0  0  0  0  0  0  0  0
   -0.9770   14.2140    0.9200 C   0  0  1  0  0  0  0  0  0  0  0  0
   -4.2120   15.5370    1.9290 N   0  0  0  0  0  0  0  0  0  0  0  0
    0.0690   15.1530    1.0430 N   0  0  0  0  0  0  0  0  0  0  0  0
   -2.0470   14.8580    1.6310 N   0  0  0  0  0  0  0  0  0  0  0  0
  2  1  1  6
  3  2  1  6
  2  4  1  0
  3  5  1  0
  3  6  1  0
  4  7  1  0
  5  8  1  1
  5  9  1  0
  6 10  1  0
  9 10  1  6
  6 11  1  6
  7 11  1  0
  9 12  1  0
  8 13  1  0
 12 14  1  1
 12 15  1  0
 13 16  1  0
 13 17  1  0
 16 18  1  0
 17 19  1  0
 19 18  1  6
 17 20  1  1
 19 21  1  0
 20 22  1  0
 21 23  1  1
 22 24  1  6
 21 25  1  0
 22 25  1  0
M  CHG  1  14  -1
M  END
