ucsf511-ucsf338
     RDKit          3D

 18 20  0  0  0  0  0  0  0  0999 V2000
    0.4190   13.2480   -0.6950 O   0  0  0  0  0  0  0  0  0  0  0  0
    0.2700   14.2690   -1.6830 C   0  0  1  0  0  0  0  0  0  0  0  0
    0.5760   13.6590   -2.9690 N   0  0  0  0  0  0  0  0  0  0  0  0
   -1.0840   15.0570   -1.5970 C   0  0  1  0  0  0  0  0  0  0  0  0
   -1.9120   15.0720   -2.9170 C   0  0  1  0  0  0  0  0  0  0  0  0
    0.0060   14.3160   -4.1270 C   0  0  0  0  0  0  0  0  0  0  0  0
   -2.0210   14.6350   -0.5510 O   0  0  0  0  0  0  0  0  0  0  0  0
   -1.4300   14.2910   -4.0560 N   0  0  0  0  0  0  0  0  0  0  0  0
   -3.2500   15.2300   -1.0150 C   0  0  1  0  0  0  0  0  0  0  0  0
   -3.2650   14.6470   -2.4040 C   0  0  1  0  0  0  0  0  0  0  0  0
   -4.4080   15.0720   -3.2510 C   0  0  0  0  0  0  0  0  0  0  0  0
   -4.5440   14.9230   -0.2460 C   0  0  0  0  0  0  0  0  0  0  0  0
   -5.7380   14.9970   -2.5100 C   0  0  0  0  0  0  0  0  0  0  0  0
   -5.7750   15.4390   -1.0490 C   0  0  1  0  0  0  0  0  0  0  0  0
   -7.1980   15.1040   -0.5570 C   0  0  2  0  0  0  0  0  0  0  0  0
   -7.3970   14.2530    0.5940 N   0  0  0  0  0  0  0  0  0  0  0  0
   -7.8410   14.4730   -1.6570 O   0  0  0  0  0  0  0  0  0  0  0  0
   -8.8190   13.8880    0.5660 O   0  0  0  0  0  0  0  0  0  0  0  0
  2  1  1  1
  2  3  1  0
  2  4  1  0
  4  5  1  0
  3  6  1  0
  4  7  1  1
  5  8  1  6
  6  8  1  0
  7  9  1  0
  5 10  1  0
  9 10  1  0
 10 11  1  6
  9 12  1  1
 11 13  1  0
 14 12  1  1
 13 14  1  0
 14 15  1  0
 15 16  1  0
 15 17  1  6
 16 18  1  0
M  END
