ucsf385-ucsf380
     RDKit          3D

 24 26  0  0  0  0  0  0  0  0999 V2000
   -4.1670   13.9090   -0.4150 N   0  0  0  0  0  0  0  0  0  0  0  0
   -2.8560   13.4990    0.1710 C   0  0  2  0  0  0  0  0  0  0  0  0
   -2.7330   14.3430    1.4650 C   0  0  0  0  0  0  0  0  0  0  0  0
   -1.8730   13.9080   -0.6820 C   0  0  2  0  0  0  0  0  0  0  0  0
   -1.9130   14.1420   -2.4320 S   0  0  0  0  0  0  0  0  0  0  0  0
   -0.4340   13.8800   -0.2120 C   0  0  0  0  0  0  0  0  0  0  0  0
   -1.5160   15.0420    1.5400 N   0  0  0  0  0  0  0  0  0  0  0  0
   -0.9370   15.0700   -3.3570 O   0  0  0  0  0  0  0  0  0  0  0  0
   -3.5300   12.6050   -2.6750 O   0  0  0  0  0  0  0  0  0  0  0  0
   -0.3880   14.2220    1.2650 C   0  0  0  0  0  0  0  0  0  0  0  0
   -3.2730   15.3150   -1.9960 C   0  0  0  0  0  0  0  0  0  0  0  0
   -1.0060   12.7390   -3.1860 C   0  0  0  0  0  0  0  0  0  0  0  0
    0.2820   15.2800   -3.3430 C   0  0  0  0  0  0  0  0  0  0  0  0
   -3.5680   15.4630   -0.5740 C   0  0  0  0  0  0  0  0  0  0  0  0
   -4.4860   14.9370   -2.7800 C   0  0  0  0  0  0  0  0  0  0  0  0
   -0.8820   11.4030   -2.7470 C   0  0  0  0  0  0  0  0  0  0  0  0
   -0.0530   12.9840   -4.3770 C   0  0  0  0  0  0  0  0  0  0  0  0
    0.9480   14.4090   -2.4840 O   0  0  0  0  0  0  0  0  0  0  0  0
   -4.8660   15.0550   -0.0650 C   0  0  0  0  0  0  0  0  0  0  0  0
   -5.8330   15.0670   -2.2180 C   0  0  0  0  0  0  0  0  0  0  0  0
   -1.2100   10.4580   -3.8440 C   0  0  0  0  0  0  0  0  0  0  0  0
   -0.2910   12.0980   -5.5660 C   0  0  0  0  0  0  0  0  0  0  0  0
   -5.8730   15.8280   -0.8640 C   0  0  0  0  0  0  0  0  0  0  0  0
   -1.2860   11.0070   -5.2130 C   0  0  0  0  0  0  0  0  0  0  0  0
  2  1  1  6
  2  3  1  0
  2  4  1  0
  4  5  1  6
  4  6  1  0
  3  7  1  0
  5  8  1  0
  5  9  1  0
  6 10  1  0
  7 10  1  0
  5 11  1  0
  5 12  1  0
  8 13  1  0
 11 14  1  0
 11 15  1  0
 12 16  1  0
 12 17  1  0
 13 18  1  0
 14 19  1  0
 15 20  1  0
 16 21  1  0
 17 22  1  0
 19 23  1  0
 20 23  1  0
 21 24  1  0
 22 24  1  0
M  CHG  1   9  -1
M  END
