ucsf172-ucsf320
     RDKit          3D

 14 14  0  0  0  0  0  0  0  0999 V2000
   -8.1260   14.8510    2.3470 C   0  0  0  0  0  0  0  0  0  0  0  0
   -6.8980   14.4300    1.1650 S   0  0  0  0  0  0  0  0  0  0  0  0
   -6.7990   12.8460    1.2710 O   0  0  0  0  0  0  0  0  0  0  0  0
   -7.6000   14.7430   -0.2400 O   0  0  0  0  0  0  0  0  0  0  0  0
   -5.4250   15.1450    1.3400 N   0  0  0  0  0  0  0  0  0  0  0  0
   -4.3770   15.3090    0.3180 C   0  0  1  0  0  0  0  0  0  0  0  0
   -3.3160   14.2200    0.4810 C   0  0  0  0  0  0  0  0  0  0  0  0
   -4.9840   15.3180   -1.1040 C   0  0  0  0  0  0  0  0  0  0  0  0
   -2.2480   14.2260   -0.6190 C   0  0  0  0  0  0  0  0  0  0  0  0
   -3.9700   15.1030   -2.2380 C   0  0  0  0  0  0  0  0  0  0  0  0
   -2.5110   15.2160   -1.7750 C   0  0  2  0  0  0  0  0  0  0  0  0
   -1.4810   15.0260   -2.9280 C   0  0  1  0  0  0  0  0  0  0  0  0
   -0.7090   13.8640   -2.6790 O   0  0  0  0  0  0  0  0  0  0  0  0
   -2.0840   14.7090   -4.0560 O   0  0  0  0  0  0  0  0  0  0  0  0
  1  2  1  0
  2  3  1  0
  2  4  1  0
  2  5  1  0
  6  5  1  1
  6  7  1  0
  6  8  1  0
  7  9  1  0
  8 10  1  0
 11  9  1  1
 10 11  1  0
 11 12  1  0
 12 13  1  1
 12 14  1  0
M  CHG  1  14  -1
M  END
