ucsf039-ucsf371
     RDKit          3D

 19 21  0  0  0  0  0  0  0  0999 V2000
   -4.4730   15.2440    0.9550 N   0  0  0  0  0  0  0  0  0  0  0  0
   -3.4710   14.7470   -0.0050 C   0  0  2  0  0  0  0  0  0  0  0  0
   -2.0880   15.3460    0.3070 C   0  0  2  0  0  0  0  0  0  0  0  0
   -3.9990   15.0510   -1.3050 N   0  0  0  0  0  0  0  0  0  0  0  0
   -3.0020   15.3500   -2.3480 C   0  0  0  0  0  0  0  0  0  0  0  0
   -1.1260   15.1760   -0.8770 C   0  0  2  0  0  0  0  0  0  0  0  0
   -1.4550   14.6850    1.4790 N   0  0  0  0  0  0  0  0  0  0  0  0
   -1.7040   14.7370   -2.1240 N   0  0  0  0  0  0  0  0  0  0  0  0
   -0.2250   14.1380   -0.3690 N   0  0  0  0  0  0  0  0  0  0  0  0
   -0.0980   14.4390    1.0250 C   0  0  0  0  0  0  0  0  0  0  0  0
   -0.7700   14.8630   -3.2710 C   0  0  2  0  0  0  0  0  0  0  0  0
   -1.3110   14.2770   -4.4380 O   0  0  0  0  0  0  0  0  0  0  0  0
    0.3200   14.1640   -3.0840 O   0  0  0  0  0  0  0  0  0  0  0  0
   -0.3770   16.3500   -3.6630 C   0  0  1  0  0  0  0  0  0  0  0  0
    0.9820   16.4250   -4.3930 C   0  0  0  0  0  0  0  0  0  0  0  0
   -1.4020   16.9590   -4.5790 N   0  0  0  0  0  0  0  0  0  0  0  0
   -0.7580   17.7350   -5.6220 C   0  0  2  0  0  0  0  0  0  0  0  0
    0.9450   18.0550   -5.1620 S   0  0  0  0  0  0  0  0  0  0  0  0
   -1.5190   19.0070   -5.9560 C   0  0  0  0  0  0  0  0  0  0  0  0
  2  1  1  1
  2  3  1  0
  2  4  1  0
  4  5  1  0
  3  6  1  0
  3  7  1  1
  5  8  1  0
  6  8  1  0
  6  9  1  1
  7 10  1  0
  9 10  1  0
  8 11  1  0
 11 12  1  6
 11 13  1  0
 11 14  1  0
 14 15  1  6
 14 16  1  0
 16 17  1  0
 15 18  1  0
 17 18  1  0
 17 19  1  1
M  CHG  1  13  -1
M  END
