ucsf371-ucsf110
     RDKit          3D

 14 15  0  0  0  0  0  0  0  0999 V2000
   -4.9450   15.1440    0.3670 C   0  0  0  0  0  0  0  0  0  0  0  0
   -4.2330   14.5720   -0.8430 C   0  0  1  0  0  0  0  0  0  0  0  0
   -4.7620   15.1600   -2.0890 N   0  0  0  0  0  0  0  0  0  0  0  0
   -2.5010   14.8890   -0.8650 S   0  0  0  0  0  0  0  0  0  0  0  0
   -3.6900   15.0310   -3.1370 C   0  0  0  0  0  0  0  0  0  0  0  0
   -2.3420   15.4610   -2.5250 C   0  0  2  0  0  0  0  0  0  0  0  0
   -2.0230   15.8700    0.4780 C   0  0  0  0  0  0  0  0  0  0  0  0
   -1.3670   13.6090   -0.6730 C   0  0  0  0  0  0  0  0  0  0  0  0
   -1.0500   14.9980   -3.2210 C   0  0  1  0  0  0  0  0  0  0  0  0
   -1.5280   14.9660    1.5070 N   0  0  0  0  0  0  0  0  0  0  0  0
   -0.1090   14.1810   -0.2170 N   0  0  0  0  0  0  0  0  0  0  0  0
   -1.1550   15.2470   -4.6130 O   0  0  0  0  0  0  0  0  0  0  0  0
    0.0010   15.7060   -2.8920 O   0  0  0  0  0  0  0  0  0  0  0  0
   -0.1870   14.5170    1.1920 C   0  0  0  0  0  0  0  0  0  0  0  0
  2  1  1  1
  2  3  1  0
  2  4  1  0
  3  5  1  0
  4  6  1  0
  6  5  1  6
  4  7  1  0
  4  8  1  0
  6  9  1  0
  7 10  1  0
  8 11  1  0
  9 12  1  6
  9 13  1  0
 10 14  1  0
 11 14  1  0
M  CHG  1  13  -1
M  END
