ucsf264-ucsf006
     RDKit          3D

 31 34  0  0  0  0  0  0  0  0999 V2000
    1.5560   12.3240   -2.6200 O   0  0  0  0  0  0  0  0  0  0  0  0
    0.3310   12.0600   -3.0590 C   0  0  2  0  0  0  0  0  0  0  0  0
    0.3770   10.6390   -3.0010 O   0  0  0  0  0  0  0  0  0  0  0  0
    0.1200   12.5900   -4.5870 C   0  0  2  0  0  0  0  0  0  0  0  0
    0.6830   14.0500   -4.6800 C   0  0  0  0  0  0  0  0  0  0  0  0
   -1.2850   12.8380   -4.7500 O   0  0  0  0  0  0  0  0  0  0  0  0
    0.4400   11.5510   -5.6300 N   0  0  0  0  0  0  0  0  0  0  0  0
    0.2770   14.9200   -3.4280 C   0  0  0  0  0  0  0  0  0  0  0  0
    1.0790   11.8690   -6.9250 N   0  0  0  0  0  0  0  0  0  0  0  0
   -0.5420   10.4700   -5.8150 C   0  0  2  0  0  0  0  0  0  0  0  0
   -1.1160   14.7270   -2.8560 N   0  0  0  0  0  0  0  0  0  0  0  0
    0.2450   11.2580   -8.0020 C   0  0  2  0  0  0  0  0  0  0  0  0
   -0.9020   10.5630   -7.2910 C   0  0  1  0  0  0  0  0  0  0  0  0
   -1.8720   10.5150   -5.0510 C   0  0  0  0  0  0  0  0  0  0  0  0
    0.9080   10.4300   -9.1160 C   0  0  0  0  0  0  0  0  0  0  0  0
   -2.1080   15.4940   -3.5900 C   0  0  0  0  0  0  0  0  0  0  0  0
   -1.3940    9.2030   -7.7640 C   0  0  0  0  0  0  0  0  0  0  0  0
   -2.8530    9.5170   -5.6840 C   0  0  0  0  0  0  0  0  0  0  0  0
   -1.2750   14.6100   -1.3780 C   0  0  2  0  0  0  0  0  0  0  0  0
    1.5420    9.3240   -8.6340 F   0  0  0  0  0  0  0  0  0  0  0  0
   -0.0330    9.9440   -9.9560 F   0  0  0  0  0  0  0  0  0  0  0  0
    1.7410   11.1030   -9.9170 F   0  0  0  0  0  0  0  0  0  0  0  0
   -2.1700    8.5220   -6.6300 C   0  0  0  0  0  0  0  0  0  0  0  0
   -2.4440   15.2510   -0.6310 C   0  0  2  0  0  0  0  0  0  0  0  0
   -0.0730   15.1000   -0.7160 N   0  0  0  0  0  0  0  0  0  0  0  0
   -2.4150   14.7450    0.7700 C   0  0  1  0  0  0  0  0  0  0  0  0
   -0.0240   14.8800    0.7260 C   0  0  0  0  0  0  0  0  0  0  0  0
   -3.8890   14.9510   -0.9770 C   0  0  0  0  0  0  0  0  0  0  0  0
   -1.2530   15.2620    1.4080 N   0  0  0  0  0  0  0  0  0  0  0  0
   -3.5650   15.3810    1.3890 N   0  0  0  0  0  0  0  0  0  0  0  0
   -4.5810   15.4150    0.3080 C   0  0  0  0  0  0  0  0  0  0  0  0
  2  1  1  6
  2  3  1  0
  2  4  1  0
  4  5  1  0
  4  6  1  1
  4  7  1  0
  5  8  1  0
  7  9  1  0
  7 10  1  0
  8 11  1  0
  9 12  1  0
 10 13  1  0
 12 13  1  0
 10 14  1  1
 12 15  1  1
 11 16  1  0
 13 17  1  6
 14 18  1  0
 19 11  1  6
 15 20  1  0
 15 21  1  0
 15 22  1  0
 17 23  1  0
 18 23  1  0
 19 24  1  0
 19 25  1  0
 24 26  1  0
 25 27  1  0
 24 28  1  6
 26 29  1  1
 27 29  1  0
 26 30  1  0
 28 31  1  0
 30 31  1  0
M  CHG  1   1  -1
M  END
