ucsf412-ucsf173
     RDKit          3D

 24 27  0  0  0  0  0  0  0  0999 V2000
   -8.0880   15.1980   -0.4660 O   0  0  0  0  0  0  0  0  0  0  0  0
   -6.9530   14.5950    0.1160 C   0  0  2  0  0  0  0  0  0  0  0  0
   -7.0980   14.7390    1.5480 N   0  0  0  0  0  0  0  0  0  0  0  0
   -5.6660   15.1610   -0.5150 C   0  0  1  0  0  0  0  0  0  0  0  0
   -4.4710   14.6300    0.2720 C   0  0  2  0  0  0  0  0  0  0  0  0
   -5.9100   14.6100    2.3870 C   0  0  0  0  0  0  0  0  0  0  0  0
   -5.6120   14.8250   -2.0130 C   0  0  0  0  0  0  0  0  0  0  0  0
   -4.5860   15.0360    1.7310 C   0  0  0  0  0  0  0  0  0  0  0  0
   -3.1110   15.0340   -0.3150 C   0  0  0  0  0  0  0  0  0  0  0  0
   -4.1940   14.7050   -2.5690 C   0  0  0  0  0  0  0  0  0  0  0  0
   -3.2350   15.5490   -1.7500 C   0  0  2  0  0  0  0  0  0  0  0  0
   -1.8570   15.7760   -2.3830 C   0  0  0  0  0  0  0  0  0  0  0  0
   -1.3720   14.7100   -3.3650 C   0  0  2  0  0  0  0  0  0  0  0  0
    0.0120   14.1430   -2.9540 C   0  0  1  0  0  0  0  0  0  0  0  0
   -1.2810   15.2190   -4.8190 C   0  0  2  0  0  0  0  0  0  0  0  0
   -0.0640   12.6500   -2.4720 C   0  0  2  0  0  0  0  0  0  0  0  0
    0.2010   15.6100   -4.9540 C   0  0  2  0  0  0  0  0  0  0  0  0
    0.9620   14.5670   -4.1070 C   0  0  0  0  0  0  0  0  0  0  0  0
   -2.2990   16.3070   -5.2410 C   0  0  0  0  0  0  0  0  0  0  0  0
    0.5860   12.5040   -1.3290 O   0  0  0  0  0  0  0  0  0  0  0  0
    0.6220   11.7710   -3.3280 O   0  0  0  0  0  0  0  0  0  0  0  0
   -1.7330   17.6130   -5.7740 C   0  0  0  0  0  0  0  0  0  0  0  0
    0.5410   17.0720   -4.6670 C   0  0  0  0  0  0  0  0  0  0  0  0
   -0.5220   18.1120   -5.0020 C   0  0  0  0  0  0  0  0  0  0  0  0
  2  1  1  6
  2  3  1  0
  2  4  1  0
  4  5  1  0
  3  6  1  0
  4  7  1  6
  5  8  1  1
  6  8  1  0
  5  9  1  0
  7 10  1  0
  9 11  1  0
 10 11  1  0
 11 12  1  6
 13 12  1  1
 13 14  1  0
 13 15  1  0
 14 16  1  0
 15 17  1  0
 14 18  1  6
 17 18  1  1
 15 19  1  1
 16 20  1  1
 16 21  1  0
 19 22  1  0
 17 23  1  0
 22 24  1  0
 23 24  1  0
M  CHG  1  20  -1
M  END
