ucsf378-ucsf392
     RDKit          3D

 23 24  0  0  0  0  0  0  0  0999 V2000
   -2.6390   14.1050   -4.2110 Cl  0  0  0  0  0  0  0  0  0  0  0  0
   -0.9840   14.4320   -4.8030 C   0  0  2  0  0  0  0  0  0  0  0  0
    0.0890   13.6390   -4.0610 C   0  0  1  0  0  0  0  0  0  0  0  0
   -0.6950   15.9360   -4.6830 C   0  0  0  0  0  0  0  0  0  0  0  0
   -0.1340   12.1250   -3.8700 C   0  0  0  0  0  0  0  0  0  0  0  0
    1.4460   14.0030   -4.7020 C   0  0  2  0  0  0  0  0  0  0  0  0
    0.5770   16.2430   -3.8990 C   0  0  0  0  0  0  0  0  0  0  0  0
    2.7840   12.9700   -4.0740 Cl  0  0  0  0  0  0  0  0  0  0  0  0
    0.4720   11.5220   -2.5930 C   0  0  1  0  0  0  0  0  0  0  0  0
    1.7490   15.4780   -4.4570 C   0  0  0  0  0  0  0  0  0  0  0  0
    0.3330   12.3900   -1.4710 O   0  0  0  0  0  0  0  0  0  0  0  0
   -0.1380   10.2610   -2.3740 O   0  0  0  0  0  0  0  0  0  0  0  0
    1.1860   13.5390   -1.6420 C   0  0  0  0  0  0  0  0  0  0  0  0
    0.8650   14.7090   -0.7160 C   0  0  0  0  0  0  0  0  0  0  0  0
    0.0620   14.3720    0.5460 C   0  0  0  0  0  0  0  0  0  0  0  0
   -1.4270   14.2770    0.2660 C   0  0  1  0  0  0  0  0  0  0  0  0
   -2.1870   15.0300    1.2240 N   0  0  0  0  0  0  0  0  0  0  0  0
   -1.6570   14.7470   -1.0820 N   0  0  0  0  0  0  0  0  0  0  0  0
   -3.5940   14.9240    0.9770 C   0  0  1  0  0  0  0  0  0  0  0  0
   -3.0570   14.7300   -1.4770 C   0  0  0  0  0  0  0  0  0  0  0  0
   -4.2750   15.6400    2.0260 N   0  0  0  0  0  0  0  0  0  0  0  0
   -3.9310   15.3990   -0.4300 C   0  0  1  0  0  0  0  0  0  0  0  0
   -5.4180   15.2420   -0.7540 C   0  0  0  0  0  0  0  0  0  0  0  0
  2  1  1  1
  2  3  1  0
  2  4  1  0
  3  5  1  6
  3  6  1  0
  4  7  1  0
  6  8  1  1
  5  9  1  0
  6 10  1  0
  7 10  1  0
  9 11  1  0
  9 12  1  1
 11 13  1  0
 13 14  1  0
 14 15  1  0
 16 15  1  1
 16 17  1  0
 16 18  1  0
 17 19  1  0
 18 20  1  0
 19 21  1  1
 19 22  1  0
 20 22  1  0
 22 23  1  6
M  END
