ucsf519-ucsf378
     RDKit          3D

 23 25  0  0  0  0  0  0  0  0999 V2000
   -3.9430   14.4730   -5.0960 C   0  0  0  0  0  0  0  0  0  0  0  0
   -2.5170   14.2080   -4.7290 C   0  0  2  0  0  0  0  0  0  0  0  0
   -1.9460   12.4520   -4.9100 S   0  0  0  0  0  0  0  0  0  0  0  0
   -1.9490   14.8170   -3.4610 C   0  0  2  0  0  0  0  0  0  0  0  0
   -0.3560   12.7830   -4.0700 C   0  0  1  0  0  0  0  0  0  0  0  0
   -1.5560   13.6380   -2.8260 O   0  0  0  0  0  0  0  0  0  0  0  0
   -2.6150   15.4780   -2.3370 N   0  0  0  0  0  0  0  0  0  0  0  0
   -0.7160   15.3680   -4.1000 C   0  0  2  0  0  0  0  0  0  0  0  0
    0.6790   11.6920   -3.7310 C   0  0  1  0  0  0  0  0  0  0  0  0
   -4.0170   15.1400   -2.0610 C   0  0  0  0  0  0  0  0  0  0  0  0
   -1.9780   15.1120   -1.0880 C   0  0  1  0  0  0  0  0  0  0  0  0
    0.1440   14.1340   -4.5550 C   0  0  1  0  0  0  0  0  0  0  0  0
   -0.1170   16.6300   -3.5620 C   0  0  0  0  0  0  0  0  0  0  0  0
    1.5070   12.0430   -2.6290 O   0  0  0  0  0  0  0  0  0  0  0  0
    0.0700   10.4270   -3.4400 O   0  0  0  0  0  0  0  0  0  0  0  0
   -0.7070   15.6740   -0.9030 O   0  0  0  0  0  0  0  0  0  0  0  0
   -4.1660   15.4150   -0.5560 C   0  0  0  0  0  0  0  0  0  0  0  0
   -2.8070   15.6080   -0.0360 N   0  0  0  0  0  0  0  0  0  0  0  0
    1.6440   14.3270   -4.6410 C   0  0  2  0  0  0  0  0  0  0  0  0
    1.2360   16.7100   -4.1610 C   0  0  0  0  0  0  0  0  0  0  0  0
   -0.2510   10.4670   -2.0240 O   0  0  0  0  0  0  0  0  0  0  0  0
    2.7900   12.9620   -4.3650 Cl  0  0  0  0  0  0  0  0  0  0  0  0
    1.9800   15.4530   -3.7410 C   0  0  0  0  0  0  0  0  0  0  0  0
  2  1  1  1
  2  3  1  0
  2  4  1  0
  5  3  1  6
  4  6  1  1
  4  7  1  0
  4  8  1  0
  5  9  1  0
  7 10  1  0
  7 11  1  0
  5 12  1  0
  8 12  1  0
  8 13  1  1
  9 14  1  1
  9 15  1  0
 11 16  1  6
 10 17  1  0
 11 18  1  0
 17 18  1  0
 12 19  1  1
 13 20  1  0
 15 21  1  0
 19 22  1  1
 19 23  1  0
 20 23  1  0
M  END
