ucsf248-ucsf424
     RDKit          3D

 29 32  0  0  0  0  0  0  0  0999 V2000
   -8.5890   12.6740    2.8750 N   0  0  0  0  0  0  0  0  0  0  0  0
   -8.4710   14.2070    2.2600 S   0  0  0  0  0  0  0  0  0  0  0  0
   -8.5080   15.2800    3.4500 O   0  0  0  0  0  0  0  0  0  0  0  0
   -9.7100   14.5870    1.3160 O   0  0  0  0  0  0  0  0  0  0  0  0
   -6.9900   14.5900    1.3090 C   0  0  1  0  0  0  0  0  0  0  0  0
   -5.8910   13.6370    1.3360 N   0  0  0  0  0  0  0  0  0  0  0  0
   -7.1840   14.9390   -0.0920 N   0  0  0  0  0  0  0  0  0  0  0  0
   -5.1180   13.9840    0.1330 C   0  0  1  0  0  0  0  0  0  0  0  0
   -5.8200   15.1700   -0.4740 C   0  0  1  0  0  0  0  0  0  0  0  0
   -3.6470   14.3380    0.2100 C   0  0  0  0  0  0  0  0  0  0  0  0
   -5.5240   15.2320   -1.9520 C   0  0  0  0  0  0  0  0  0  0  0  0
   -3.1910   14.4160   -1.2650 C   0  0  2  0  0  0  0  0  0  0  0  0
   -4.0120   15.4490   -2.0810 C   0  0  0  0  0  0  0  0  0  0  0  0
   -3.3860   13.0490   -1.9720 C   0  0  0  0  0  0  0  0  0  0  0  0
   -2.2020   12.0880   -1.9830 C   0  0  0  0  0  0  0  0  0  0  0  0
   -1.3520   12.1510   -3.2270 C   0  0  0  0  0  0  0  0  0  0  0  0
   -0.0890   11.5710   -2.9550 O   0  0  0  0  0  0  0  0  0  0  0  0
    0.9440   12.4400   -3.4090 C   0  0  2  0  0  0  0  0  0  0  0  0
    0.9190   13.4950   -2.6290 O   0  0  0  0  0  0  0  0  0  0  0  0
    0.5120   12.8460   -4.8580 C   0  0  0  0  0  0  0  0  0  0  0  0
    0.3470   11.5870   -5.7280 C   0  0  2  0  0  0  0  0  0  0  0  0
    1.2890   11.5800   -6.8970 N   0  0  0  0  0  0  0  0  0  0  0  0
   -0.9490   11.0900   -6.3210 C   0  0  1  0  0  0  0  0  0  0  0  0
    0.7320   10.6000   -7.8400 O   0  0  0  0  0  0  0  0  0  0  0  0
   -0.3370    9.9830   -7.1430 C   0  0  2  0  0  0  0  0  0  0  0  0
   -1.9970   10.4560   -5.3900 C   0  0  0  0  0  0  0  0  0  0  0  0
   -1.3630    9.3040   -8.0200 C   0  0  0  0  0  0  0  0  0  0  0  0
   -3.0010    9.5140   -6.0920 C   0  0  0  0  0  0  0  0  0  0  0  0
   -2.3790    8.5850   -7.1360 C   0  0  0  0  0  0  0  0  0  0  0  0
  1  2  1  0
  2  3  1  0
  2  4  1  0
  5  2  1  6
  5  6  1  0
  5  7  1  0
  6  8  1  0
  7  9  1  0
  8  9  1  0
  8 10  1  1
  9 11  1  6
 10 12  1  0
 11 13  1  0
 12 13  1  0
 12 14  1  6
 14 15  1  0
 15 16  1  0
 16 17  1  0
 17 18  1  0
 18 19  1  1
 18 20  1  0
 21 20  1  6
 21 22  1  0
 21 23  1  0
 22 24  1  0
 23 25  1  0
 24 25  1  0
 23 26  1  1
 25 27  1  6
 26 28  1  0
 27 29  1  0
 28 29  1  0
M  CHG  1  19  -1
M  END
