ucsf519-ucsf411
     RDKit          3D

 25 27  0  0  0  0  0  0  0  0999 V2000
   -0.2010   16.1560   -2.5370 C   0  0  0  0  0  0  0  0  0  0  0  0
   -1.1360   15.3440   -3.4120 C   0  0  2  0  0  0  0  0  0  0  0  0
   -2.3070   14.6050   -2.7360 C   0  0  2  0  0  0  0  0  0  0  0  0
   -0.4140   14.5880   -4.5560 C   0  0  2  0  0  0  0  0  0  0  0  0
   -3.4230   14.6290   -3.6230 O   0  0  0  0  0  0  0  0  0  0  0  0
   -2.6580   15.1400   -1.4790 N   0  0  0  0  0  0  0  0  0  0  0  0
   -0.1200   15.9120   -5.3430 C   0  0  1  0  0  0  0  0  0  0  0  0
   -1.3990   13.7200   -5.3590 C   0  0  0  0  0  0  0  0  0  0  0  0
    0.8340   13.7440   -4.1390 C   0  0  0  0  0  0  0  0  0  0  0  0
   -4.0380   15.2010   -1.0820 C   0  0  0  0  0  0  0  0  0  0  0  0
   -1.8900   14.6850   -0.3740 C   0  0  1  0  0  0  0  0  0  0  0  0
   -1.4500   16.7230   -5.6260 C   0  0  1  0  0  0  0  0  0  0  0  0
   -2.6850   14.4350   -5.7830 C   0  0  0  0  0  0  0  0  0  0  0  0
    1.0870   16.7940   -4.9960 C   0  0  0  0  0  0  0  0  0  0  0  0
    0.6150   12.2340   -3.9740 C   0  0  0  0  0  0  0  0  0  0  0  0
   -0.5490   15.0570   -0.4710 O   0  0  0  0  0  0  0  0  0  0  0  0
   -3.9350   15.3590    0.4300 C   0  0  0  0  0  0  0  0  0  0  0  0
   -2.5030   15.3360    0.7530 N   0  0  0  0  0  0  0  0  0  0  0  0
   -2.7600   15.9360   -5.4700 C   0  0  0  0  0  0  0  0  0  0  0  0
   -1.4740   18.0820   -5.0280 C   0  0  0  0  0  0  0  0  0  0  0  0
    0.9180   18.3070   -5.0090 C   0  0  0  0  0  0  0  0  0  0  0  0
    0.9820   11.6750   -2.5730 C   0  0  1  0  0  0  0  0  0  0  0  0
   -0.3360   18.7170   -5.7410 C   0  0  0  0  0  0  0  0  0  0  0  0
    0.3130   12.3660   -1.5440 O   0  0  0  0  0  0  0  0  0  0  0  0
    0.4900   10.4440   -2.4020 O   0  0  0  0  0  0  0  0  0  0  0  0
  2  1  1  1
  2  3  1  0
  2  4  1  0
  3  5  1  6
  3  6  1  0
  4  7  1  0
  4  8  1  0
  4  9  1  1
  6 10  1  0
  6 11  1  0
  7 12  1  0
  8 13  1  0
  7 14  1  1
  9 15  1  0
 11 16  1  6
 10 17  1  0
 11 18  1  0
 17 18  1  0
 12 19  1  1
 13 19  1  0
 12 20  1  0
 14 21  1  0
 15 22  1  0
 20 23  1  0
 21 23  1  0
 22 24  1  1
 22 25  1  0
M  CHG  1  25  -1
M  END
