ucsf405-ucsf153
     RDKit          3D

 12 12  0  0  0  0  0  0  0  0999 V2000
   14.8050    5.5940   12.5060 N   0  0  0  0  0  0  0  0  0  0  0  0
   15.2070    5.0570   11.1940 C   0  0  1  0  0  0  0  0  0  0  0  0
   14.6860    3.6480   10.9530 C   0  0  0  0  0  0  0  0  0  0  0  0
   14.7390    5.9560   10.0670 C   0  0  0  0  0  0  0  0  0  0  0  0
   14.7680    5.3490    8.6640 C   0  0  1  0  0  0  0  0  0  0  0  0
   15.3650    3.0010    9.7490 C   0  0  2  0  0  0  0  0  0  0  0  0
   15.5230    6.3360    7.9570 O   0  0  0  0  0  0  0  0  0  0  0  0
   15.3980    3.9190    8.4800 C   0  0  1  0  0  0  0  0  0  0  0  0
   14.7300    1.7010    9.4590 N   0  0  0  0  0  0  0  0  0  0  0  0
   14.8130    3.2040    7.2160 C   0  0  2  0  0  0  0  0  0  0  0  0
   15.0380    1.8060    7.2870 O   0  0  0  0  0  0  0  0  0  0  0  0
   15.4680    3.5170    6.1220 O   0  0  0  0  0  0  0  0  0  0  0  0
  2  1  1  1
  2  3  1  0
  2  4  1  0
  4  5  1  0
  3  6  1  0
  5  7  1  6
  5  8  1  0
  6  8  1  0
  6  9  1  6
  8 10  1  6
 10 11  1  1
 10 12  1  0
M  CHG  1  12  -1
M  END
