ucsf013-ucsf348
     RDKit          3D

 13 14  0  0  0  0  0  0  0  0999 V2000
   -4.4730   15.1960    2.0870 N   0  0  0  0  0  0  0  0  0  0  0  0
   -5.2240   14.3030    1.2410 C   0  0  1  0  0  0  0  0  0  0  0  0
   -6.5770   14.8210    1.3300 N   0  0  0  0  0  0  0  0  0  0  0  0
   -4.6660   14.1620   -0.1650 C   0  0  1  0  0  0  0  0  0  0  0  0
   -7.0600   14.7920    2.6990 N   0  0  0  0  0  0  0  0  0  0  0  0
   -5.6930   14.1880   -1.3000 C   0  0  1  0  0  0  0  0  0  0  0  0
   -7.5590   14.1960    0.4400 C   0  0  0  0  0  0  0  0  0  0  0  0
   -3.4580   15.0400   -0.4920 C   0  0  0  0  0  0  0  0  0  0  0  0
   -7.1380   14.1640   -0.9740 N   0  0  0  0  0  0  0  0  0  0  0  0
   -5.3710   15.2750   -2.3200 C   0  0  0  0  0  0  0  0  0  0  0  0
   -2.9400   14.8170   -1.9030 C   0  0  0  0  0  0  0  0  0  0  0  0
   -7.7540   15.3100   -1.6370 O   0  0  0  0  0  0  0  0  0  0  0  0
   -3.9950   15.1190   -2.9520 C   0  0  0  0  0  0  0  0  0  0  0  0
  2  1  1  1
  2  3  1  0
  2  4  1  0
  3  5  1  0
  4  6  1  0
  3  7  1  0
  4  8  1  6
  6  9  1  0
  7  9  1  0
  6 10  1  1
  8 11  1  0
  9 12  1  0
 10 13  1  0
 11 13  1  0
M  END
