ucsf357-ucsf017
     RDKit          3D

 24 27  0  0  0  0  0  0  0  0999 V2000
   -6.4100   14.5070   -2.1840 O   0  0  0  0  0  0  0  0  0  0  0  0
   -5.8970   15.4470   -1.2680 C   0  0  1  0  0  0  0  0  0  0  0  0
   -6.2270   14.9150   -0.0050 O   0  0  0  0  0  0  0  0  0  0  0  0
   -4.4440   15.4050   -1.4240 C   0  0  2  0  0  0  0  0  0  0  0  0
   -3.8540   14.1500   -2.0180 C   0  0  0  0  0  0  0  0  0  0  0  0
   -3.6070   15.3770   -0.2010 C   0  0  0  0  0  0  0  0  0  0  0  0
   -2.5340   14.6040   -2.3740 C   0  0  2  0  0  0  0  0  0  0  0  0
   -2.1410   15.2440   -0.3910 C   0  0  2  0  0  0  0  0  0  0  0  0
   -2.3540   14.1460   -3.6800 F   0  0  0  0  0  0  0  0  0  0  0  0
   -1.0980   14.3230   -1.3450 S   0  0  0  0  0  0  0  0  0  0  0  0
   -1.9810   15.0840    1.0960 C   0  0  0  0  0  0  0  0  0  0  0  0
    0.7120   14.5480   -0.9120 O   0  0  0  0  0  0  0  0  0  0  0  0
   -0.2210   14.2960   -2.9070 N   0  0  0  0  0  0  0  0  0  0  0  0
   -1.2930   13.5200    0.2290 N   0  0  0  0  0  0  0  0  0  0  0  0
   -0.6980   15.0550    1.5570 N   0  0  0  0  0  0  0  0  0  0  0  0
   -0.9670   14.1140   -3.9130 C   0  0  1  0  0  0  0  0  0  0  0  0
    0.9910   13.4610   -2.7200 C   0  0  0  0  0  0  0  0  0  0  0  0
   -0.4020   13.7120    1.1680 C   0  0  0  0  0  0  0  0  0  0  0  0
   -1.2360   15.0380   -5.0570 C   0  0  0  0  0  0  0  0  0  0  0  0
   -0.9270   12.8050   -4.5260 C   0  0  1  0  0  0  0  0  0  0  0  0
    0.5550   11.9810   -2.8510 C   0  0  0  0  0  0  0  0  0  0  0  0
   -1.0640   13.1550   -5.9910 C   0  0  0  0  0  0  0  0  0  0  0  0
   -1.9770   14.2330   -5.8850 O   0  0  0  0  0  0  0  0  0  0  0  0
    0.1480   11.8690   -4.2890 C   0  0  0  0  0  0  0  0  0  0  0  0
  2  1  1  6
  2  3  1  0
  2  4  1  0
  4  5  1  6
  4  6  1  0
  5  7  1  0
  8  6  1  6
  7  9  1  6
  7 10  1  0
  8 10  1  0
  8 11  1  0
 10 12  1  0
 10 13  1  0
 10 14  1  0
 11 15  1  0
 13 16  1  0
 13 17  1  0
 14 18  1  0
 15 18  1  0
 16 19  1  6
 16 20  1  0
 17 21  1  0
 20 22  1  6
 19 23  1  0
 22 23  1  0
 20 24  1  0
 21 24  1  0
M  CHG  1   1  -1
M  END
