ucsf584-ucsf028
     RDKit          3D

 24 27  0  0  0  0  0  0  0  0999 V2000
   -4.2530   15.3520    1.5010 N   0  0  0  0  0  0  0  0  0  0  0  0
   -3.9740   14.3150    0.4940 C   0  0  1  0  0  0  0  0  0  0  0  0
   -5.2150   14.2040   -0.4640 C   0  0  1  0  0  0  0  0  0  0  0  0
   -2.5240   14.4930   -0.2040 C   0  0  2  0  0  0  0  0  0  0  0  0
   -6.5380   14.7010    0.1670 C   0  0  0  0  0  0  0  0  0  0  0  0
   -2.5210   14.7070   -1.6990 N   0  0  0  0  0  0  0  0  0  0  0  0
   -5.0420   14.8110   -1.8800 C   0  0  0  0  0  0  0  0  0  0  0  0
   -1.6130   13.3920    0.1330 N   0  0  0  0  0  0  0  0  0  0  0  0
   -1.6920   15.3790    0.7480 C   0  0  0  0  0  0  0  0  0  0  0  0
   -1.2580   14.8240   -2.5080 C   0  0  0  0  0  0  0  0  0  0  0  0
   -6.5620   14.6740    1.6280 N   0  0  0  0  0  0  0  0  0  0  0  0
   -7.7340   13.9420   -0.1710 N   0  0  0  0  0  0  0  0  0  0  0  0
   -3.6920   15.4630   -2.1460 C   0  0  0  0  0  0  0  0  0  0  0  0
   -0.3470   15.3280    0.1880 N   0  0  0  0  0  0  0  0  0  0  0  0
   -0.2530   13.9120    0.3520 C   0  0  0  0  0  0  0  0  0  0  0  0
   -8.7360   14.4800    0.7640 C   0  0  0  0  0  0  0  0  0  0  0  0
   -7.9620   14.6500    2.0580 C   0  0  0  0  0  0  0  0  0  0  0  0
   -0.5400   13.6060   -3.1730 C   0  0  2  0  0  0  0  0  0  0  0  0
   -1.2180   12.8900   -4.3110 C   0  0  0  0  0  0  0  0  0  0  0  0
   -0.1770   12.5550   -2.2660 O   0  0  0  0  0  0  0  0  0  0  0  0
   -0.0360   11.3150   -3.0540 N   0  0  0  0  0  0  0  0  0  0  0  0
   -0.2700   11.7130   -4.4360 C   0  0  1  0  0  0  0  0  0  0  0  0
   -0.8510   10.6710   -5.1990 O   0  0  0  0  0  0  0  0  0  0  0  0
   -0.5590   10.8230   -6.5830 C   0  0  0  0  0  0  0  0  0  0  0  0
  2  1  1  1
  2  3  1  0
  2  4  1  0
  3  5  1  1
  4  6  1  0
  3  7  1  0
  4  8  1  0
  4  9  1  1
  6 10  1  0
  5 11  1  0
  5 12  1  0
  6 13  1  0
  7 13  1  0
  9 14  1  0
  8 15  1  0
 14 15  1  0
 12 16  1  0
 11 17  1  0
 16 17  1  0
 18 10  1  1
 18 19  1  0
 18 20  1  0
 20 21  1  0
 19 22  1  0
 21 22  1  0
 22 23  1  6
 23 24  1  0
M  END
