ucsf345-ucsf260
     RDKit          3D

 26 28  0  0  0  0  0  0  0  0999 V2000
   -6.7870   14.6800    1.4330 N   0  0  0  0  0  0  0  0  0  0  0  0
   -6.9100   14.8880   -0.0080 C   0  0  2  0  0  0  0  0  0  0  0  0
   -7.4580   13.7080   -0.5290 O   0  0  0  0  0  0  0  0  0  0  0  0
   -5.5530   15.3010   -0.6630 C   0  0  2  0  0  0  0  0  0  0  0  0
   -5.4160   14.8350   -2.0680 N   0  0  0  0  0  0  0  0  0  0  0  0
   -4.3560   14.8750    0.2360 C   0  0  0  0  0  0  0  0  0  0  0  0
   -4.0590   15.0980   -2.5920 C   0  0  0  0  0  0  0  0  0  0  0  0
   -3.0290   15.1680   -0.3250 N   0  0  0  0  0  0  0  0  0  0  0  0
   -2.9280   14.5690   -1.6580 C   0  0  2  0  0  0  0  0  0  0  0  0
   -1.4980   14.5590   -2.2630 C   0  0  0  0  0  0  0  0  0  0  0  0
   -0.3490   14.5410   -1.2270 C   0  0  0  0  0  0  0  0  0  0  0  0
    1.0190   14.3610   -1.8900 C   0  0  0  0  0  0  0  0  0  0  0  0
    1.3260   12.9710   -1.9880 O   0  0  0  0  0  0  0  0  0  0  0  0
    0.6540   12.3320   -3.0840 C   0  0  2  0  0  0  0  0  0  0  0  0
    0.7680   11.0300   -2.8970 O   0  0  0  0  0  0  0  0  0  0  0  0
    1.3960   12.7680   -4.3840 C   0  0  0  0  0  0  0  0  0  0  0  0
    0.5050   13.2510   -5.5630 C   0  0  0  0  0  0  0  0  0  0  0  0
   -0.5460   12.3580   -6.1020 N   0  0  0  0  0  0  0  0  0  0  0  0
   -1.5430   12.0510   -5.1250 C   0  0  0  0  0  0  0  0  0  0  0  0
   -0.1250   11.0190   -6.4620 C   0  0  1  0  0  0  0  0  0  0  0  0
   -2.3130   10.9110   -5.6680 N   0  0  0  0  0  0  0  0  0  0  0  0
   -1.4750   10.4120   -6.7720 C   0  0  2  0  0  0  0  0  0  0  0  0
    0.7890   10.8770   -7.6600 C   0  0  0  0  0  0  0  0  0  0  0  0
   -1.4100    8.8960   -6.9080 C   0  0  0  0  0  0  0  0  0  0  0  0
    0.6250    9.5410   -8.3890 C   0  0  0  0  0  0  0  0  0  0  0  0
   -0.1360    8.4410   -7.6340 C   0  0  0  0  0  0  0  0  0  0  0  0
  2  1  1  1
  2  3  1  0
  2  4  1  0
  4  5  1  0
  4  6  1  1
  5  7  1  0
  6  8  1  0
  7  9  1  0
  8  9  1  0
  9 10  1  6
 10 11  1  0
 11 12  1  0
 12 13  1  0
 13 14  1  0
 14 15  1  1
 14 16  1  0
 16 17  1  0
 17 18  1  0
 18 19  1  0
 18 20  1  0
 19 21  1  0
 20 22  1  0
 21 22  1  0
 20 23  1  6
 22 24  1  1
 23 25  1  0
 24 26  1  0
 25 26  1  0
M  CHG  1  15  -1
M  END
