ucsf320-ucsf364
     RDKit          3D

 20 21  0  0  0  0  0  0  0  0999 V2000
   -1.1640   13.4170   -1.6430 O   0  0  0  0  0  0  0  0  0  0  0  0
   -1.8910   14.5090   -2.1760 C   0  0  1  0  0  0  0  0  0  0  0  0
   -1.8730   14.5220   -3.5970 O   0  0  0  0  0  0  0  0  0  0  0  0
    0.1140   13.1660   -2.2450 C   0  0  1  0  0  0  0  0  0  0  0  0
    0.6500   12.0980   -1.6540 O   0  0  0  0  0  0  0  0  0  0  0  0
   -3.3590   14.4380   -1.7270 C   0  0  1  0  0  0  0  0  0  0  0  0
   -0.1280   12.8930   -3.7890 C   0  0  1  0  0  0  0  0  0  0  0  0
   -3.6110   14.9420   -0.2950 C   0  0  0  0  0  0  0  0  0  0  0  0
   -4.3300   15.0830   -2.7170 C   0  0  0  0  0  0  0  0  0  0  0  0
    1.1260   12.3620   -4.5240 C   0  0  2  0  0  0  0  0  0  0  0  0
   -1.2980   11.8950   -4.0640 C   0  0  0  0  0  0  0  0  0  0  0  0
    2.2720   13.3700   -4.6620 C   0  0  0  0  0  0  0  0  0  0  0  0
   -5.0500   14.8000    0.1510 C   0  0  0  0  0  0  0  0  0  0  0  0
   -5.7860   14.9920   -2.2860 C   0  0  0  0  0  0  0  0  0  0  0  0
   -1.6740   11.7970   -5.5450 C   0  0  0  0  0  0  0  0  0  0  0  0
    0.7380   11.7540   -5.8930 C   0  0  2  0  0  0  0  0  0  0  0  0
    1.7910   11.8620   -6.8610 O   0  0  0  0  0  0  0  0  0  0  0  0
   -6.0050   15.4400   -0.8490 C   0  0  1  0  0  0  0  0  0  0  0  0
   -0.5490   12.3000   -6.4280 C   0  0  0  0  0  0  0  0  0  0  0  0
   -7.3500   15.1490   -0.4700 O   0  0  0  0  0  0  0  0  0  0  0  0
  1  2  1  0
  2  3  1  6
  1  4  1  0
  4  5  1  1
  2  6  1  0
  4  7  1  0
  6  8  1  1
  6  9  1  0
  7 10  1  0
  7 11  1  1
 10 12  1  6
  8 13  1  0
  9 14  1  0
 11 15  1  0
 10 16  1  0
 16 17  1  6
 13 18  1  0
 14 18  1  0
 15 19  1  0
 16 19  1  0
 18 20  1  1
M  CHG  1   5  -1
M  END
