ucsf348-ucsf412
     RDKit          3D

 13 14  0  0  0  0  0  0  0  0999 V2000
   -6.7080   13.5480    2.3450 N   0  0  0  0  0  0  0  0  0  0  0  0
   -6.1520   14.5790    1.5300 C   0  0  1  0  0  0  0  0  0  0  0  0
   -4.7460   14.3410    1.5640 N   0  0  0  0  0  0  0  0  0  0  0  0
   -6.6870   14.3900    0.1870 N   0  0  0  0  0  0  0  0  0  0  0  0
   -8.0920   14.7920    0.2060 O   0  0  0  0  0  0  0  0  0  0  0  0
   -6.0810   15.2500   -0.8320 C   0  0  2  0  0  0  0  0  0  0  0  0
   -3.9860   15.2670    0.7110 C   0  0  2  0  0  0  0  0  0  0  0  0
   -6.4030   14.7410   -2.1230 O   0  0  0  0  0  0  0  0  0  0  0  0
   -4.5520   15.4220   -0.7230 C   0  0  1  0  0  0  0  0  0  0  0  0
   -2.5260   14.7850    0.6710 C   0  0  0  0  0  0  0  0  0  0  0  0
   -1.6870   15.3610   -0.4720 C   0  0  0  0  0  0  0  0  0  0  0  0
   -3.7480   14.6300   -1.7600 C   0  0  0  0  0  0  0  0  0  0  0  0
   -2.3270   15.1730   -1.8470 C   0  0  0  0  0  0  0  0  0  0  0  0
  2  1  1  1
  2  3  1  0
  2  4  1  0
  4  5  1  0
  4  6  1  0
  3  7  1  0
  6  8  1  6
  6  9  1  0
  7  9  1  0
  7 10  1  6
 10 11  1  0
  9 12  1  6
 11 13  1  0
 12 13  1  0
M  END
