ucsf278-ucsf348
     RDKit          3D

 25 28  0  0  0  0  0  0  0  0999 V2000
   -0.5370   13.4790   -1.4110 Cl  0  0  0  0  0  0  0  0  0  0  0  0
   -0.4490   14.5630   -2.9060 C   0  0  1  0  0  0  0  0  0  0  0  0
   -0.4310   13.5940   -4.1000 C   0  0  2  0  0  0  0  0  0  0  0  0
   -1.7550   15.3810   -2.7850 C   0  0  0  0  0  0  0  0  0  0  0  0
    0.8240   15.3820   -2.7190 C   0  0  0  0  0  0  0  0  0  0  0  0
   -1.2630   12.3260   -4.1230 C   0  0  0  0  0  0  0  0  0  0  0  0
    0.9200   12.9960   -4.3660 C   0  0  1  0  0  0  0  0  0  0  0  0
    2.1180   14.8990   -3.3750 C   0  0  0  0  0  0  0  0  0  0  0  0
   -2.6490   15.0970   -1.5770 C   0  0  1  0  0  0  0  0  0  0  0  0
   -0.5290   11.4390   -5.1510 C   0  0  2  0  0  0  0  0  0  0  0  0
    0.6600   12.2020   -5.5460 N   0  0  0  0  0  0  0  0  0  0  0  0
    1.9320   14.0660   -4.6210 C   0  0  0  0  0  0  0  0  0  0  0  0
   -2.1530   15.5180   -0.2190 C   0  0  0  0  0  0  0  0  0  0  0  0
   -4.1300   15.3550   -1.6880 C   0  0  0  0  0  0  0  0  0  0  0  0
   -1.4090   11.0190   -6.3310 C   0  0  0  0  0  0  0  0  0  0  0  0
   -4.7720   14.2730   -0.8140 C   0  0  2  0  0  0  0  0  0  0  0  0
   -2.8050   14.6800    0.8890 C   0  0  0  0  0  0  0  0  0  0  0  0
   -2.5410   10.3030   -5.8550 O   0  0  0  0  0  0  0  0  0  0  0  0
   -6.3070   14.2620   -0.9300 C   0  0  2  0  0  0  0  0  0  0  0  0
   -4.2860   14.2820    0.6610 C   0  0  1  0  0  0  0  0  0  0  0  0
   -6.6390   14.9960   -2.0910 O   0  0  0  0  0  0  0  0  0  0  0  0
   -7.0880   14.8730    0.1220 N   0  0  0  0  0  0  0  0  0  0  0  0
   -5.1590   15.0580    1.5370 N   0  0  0  0  0  0  0  0  0  0  0  0
   -6.5520   14.7780    1.4430 C   0  0  2  0  0  0  0  0  0  0  0  0
   -6.6750   13.4290    1.8100 N   0  0  0  0  0  0  0  0  0  0  0  0
  2  1  1  0
  2  3  1  0
  2  4  1  6
  2  5  1  0
  3  6  1  1
  3  7  1  0
  5  8  1  0
  9  4  1  6
  6 10  1  0
  7 11  1  0
 10 11  1  0
  7 12  1  6
  8 12  1  0
  9 13  1  0
  9 14  1  0
 10 15  1  6
 16 14  1  6
 13 17  1  0
 15 18  1  0
 16 19  1  0
 16 20  1  0
 20 17  1  6
 19 21  1  6
 19 22  1  0
 20 23  1  0
 22 24  1  0
 23 24  1  0
 24 25  1  6
M  END
