ucsf364-ucsf124
     RDKit          3D

 17 18  0  0  0  0  0  0  0  0999 V2000
    2.2310   13.1490   -4.7120 C   0  0  0  0  0  0  0  0  0  0  0  0
    0.7790   12.7980   -5.0820 C   0  0  1  0  0  0  0  0  0  0  0  0
    0.7540   11.7850   -6.2380 C   0  0  2  0  0  0  0  0  0  0  0  0
   -0.0030   12.0790   -3.9510 C   0  0  1  0  0  0  0  0  0  0  0  0
    1.4130   12.1890   -7.4000 O   0  0  0  0  0  0  0  0  0  0  0  0
    0.2480   12.4810   -2.4830 C   0  0  0  0  0  0  0  0  0  0  0  0
   -1.4940   12.0640   -4.3520 C   0  0  0  0  0  0  0  0  0  0  0  0
   -0.5760   11.0080   -6.5130 C   0  0  0  0  0  0  0  0  0  0  0  0
   -0.6450   13.4530   -2.0140 O   0  0  0  0  0  0  0  0  0  0  0  0
    1.5230   12.9600   -2.2260 O   0  0  0  0  0  0  0  0  0  0  0  0
    0.0370   11.3810   -1.6290 O   0  0  0  0  0  0  0  0  0  0  0  0
   -1.6850   11.8720   -5.8710 C   0  0  0  0  0  0  0  0  0  0  0  0
   -0.7780   10.7570   -8.0600 C   0  0  0  0  0  0  0  0  0  0  0  0
   -0.6420    9.6030   -5.8500 C   0  0  0  0  0  0  0  0  0  0  0  0
   -1.9550    8.8940   -6.1730 C   0  0  0  0  0  0  0  0  0  0  0  0
   -0.9280    9.2760   -8.4520 C   0  0  0  0  0  0  0  0  0  0  0  0
   -2.0410    8.5900   -7.6650 C   0  0  0  0  0  0  0  0  0  0  0  0
  2  1  1  1
  2  3  1  0
  2  4  1  0
  3  5  1  6
  4  6  1  1
  4  7  1  0
  3  8  1  0
  6  9  1  0
  6 10  1  0
  6 11  1  0
  7 12  1  0
  8 12  1  0
  8 13  1  0
  8 14  1  0
 14 15  1  0
 13 16  1  0
 15 17  1  0
 16 17  1  0
M  CHG  2  10  -1  11  -1
M  END
