ucsf392-ucsf262
     RDKit          3D

 24 26  0  0  0  0  0  0  0  0999 V2000
   -5.2610   15.6240   -0.6700 C   0  0  0  0  0  0  0  0  0  0  0  0
   -3.9470   14.8530   -0.5460 C   0  0  1  0  0  0  0  0  0  0  0  0
   -2.9190   15.3670   -1.5390 C   0  0  0  0  0  0  0  0  0  0  0  0
   -3.3880   14.8650    0.8850 C   0  0  2  0  0  0  0  0  0  0  0  0
   -4.2970   15.5570    1.7850 N   0  0  0  0  0  0  0  0  0  0  0  0
   -2.1680   15.5890    1.1100 N   0  0  0  0  0  0  0  0  0  0  0  0
   -1.5690   15.0440   -1.1590 N   0  0  0  0  0  0  0  0  0  0  0  0
   -1.1650   15.7120    0.0620 C   0  0  2  0  0  0  0  0  0  0  0  0
    0.0820   14.9790    0.4810 C   0  0  0  0  0  0  0  0  0  0  0  0
    0.0360   13.5490    0.0440 C   0  0  0  0  0  0  0  0  0  0  0  0
    0.9230   13.1500   -1.1370 C   0  0  0  0  0  0  0  0  0  0  0  0
    0.5980   13.6660   -2.3450 O   0  0  0  0  0  0  0  0  0  0  0  0
    1.4880   14.7420   -2.5790 C   0  0  1  0  0  0  0  0  0  0  0  0
    2.7740   14.3770   -2.4720 O   0  0  0  0  0  0  0  0  0  0  0  0
    1.1500   15.0250   -4.0190 C   0  0  1  0  0  0  0  0  0  0  0  0
   -0.3650   15.0670   -4.1770 C   0  0  0  0  0  0  0  0  0  0  0  0
    1.6370   16.3310   -4.4850 N   0  0  0  0  0  0  0  0  0  0  0  0
   -0.5450   16.2840   -5.0430 C   0  0  2  0  0  0  0  0  0  0  0  0
    0.5300   17.2300   -4.6050 C   0  0  2  0  0  0  0  0  0  0  0  0
   -1.8960   16.9450   -5.1090 C   0  0  2  0  0  0  0  0  0  0  0  0
    0.7930   18.2290   -5.7030 C   0  0  0  0  0  0  0  0  0  0  0  0
   -3.1690   15.8470   -5.7340 Cl  0  0  0  0  0  0  0  0  0  0  0  0
   -1.8490   18.2700   -5.8760 C   0  0  0  0  0  0  0  0  0  0  0  0
   -0.4710   18.6780   -6.4560 C   0  0  0  0  0  0  0  0  0  0  0  0
  2  1  1  1
  2  3  1  0
  2  4  1  0
  4  5  1  1
  4  6  1  0
  3  7  1  0
  6  8  1  0
  7  8  1  0
  8  9  1  1
  9 10  1  0
 10 11  1  0
 11 12  1  0
 12 13  1  0
 13 14  1  6
 13 15  1  0
 15 16  1  1
 15 17  1  0
 18 16  1  1
 17 19  1  0
 18 19  1  0
 18 20  1  0
 19 21  1  6
 20 22  1  6
 20 23  1  0
 21 24  1  0
 23 24  1  0
M  CHG  1  14  -1
M  END
