ucsf378-ucsf013
     RDKit          3D

 26 28  0  0  0  0  0  0  0  0999 V2000
   -2.3900   13.8450   -4.5340 Cl  0  0  0  0  0  0  0  0  0  0  0  0
   -0.7050   14.3760   -4.8280 C   0  0  2  0  0  0  0  0  0  0  0  0
    0.3680   13.3040   -4.5300 C   0  0  0  0  0  0  0  0  0  0  0  0
   -0.4510   15.7010   -4.1280 C   0  0  0  0  0  0  0  0  0  0  0  0
   -0.2230   12.0060   -3.9120 C   0  0  0  0  0  0  0  0  0  0  0  0
    1.5460   13.8380   -3.6940 C   0  0  1  0  0  0  0  0  0  0  0  0
    0.9360   16.2410   -4.3920 C   0  0  0  0  0  0  0  0  0  0  0  0
    2.9920   12.8470   -4.0620 Cl  0  0  0  0  0  0  0  0  0  0  0  0
    0.4310   11.4620   -2.6280 C   0  0  1  0  0  0  0  0  0  0  0  0
    1.9850   15.2730   -3.9050 C   0  0  0  0  0  0  0  0  0  0  0  0
   -0.0070   12.1110   -1.4460 O   0  0  0  0  0  0  0  0  0  0  0  0
    0.2090   10.0790   -2.5100 O   0  0  0  0  0  0  0  0  0  0  0  0
   -1.1020   12.9900   -1.6510 C   0  0  0  0  0  0  0  0  0  0  0  0
   -2.3220   12.2130   -2.1490 C   0  0  0  0  0  0  0  0  0  0  0  0
   -3.5920   12.9420   -1.7220 C   0  0  0  0  0  0  0  0  0  0  0  0
   -3.4660   14.4480   -2.0210 C   0  0  1  0  0  0  0  0  0  0  0  0
   -4.4360   14.9170   -3.0930 C   0  0  0  0  0  0  0  0  0  0  0  0
   -3.6140   15.3380   -0.8090 C   0  0  0  0  0  0  0  0  0  0  0  0
   -5.0130   15.4470   -0.2250 C   0  0  2  0  0  0  0  0  0  0  0  0
   -5.8740   14.7660   -2.6350 C   0  0  0  0  0  0  0  0  0  0  0  0
   -5.1720   14.5930    1.0120 C   0  0  1  0  0  0  0  0  0  0  0  0
   -6.1880   15.2350   -1.1990 C   0  0  1  0  0  0  0  0  0  0  0  0
   -4.2170   14.9550    2.0240 N   0  0  0  0  0  0  0  0  0  0  0  0
   -7.1010   14.2250   -0.6390 N   0  0  0  0  0  0  0  0  0  0  0  0
   -6.4860   14.6800    1.6080 N   0  0  0  0  0  0  0  0  0  0  0  0
   -7.5940   14.5500    0.6800 C   0  0  0  0  0  0  0  0  0  0  0  0
  2  1  1  1
  2  3  1  0
  2  4  1  0
  3  5  1  0
  3  6  1  0
  4  7  1  0
  6  8  1  6
  5  9  1  0
  6 10  1  0
  7 10  1  0
  9 11  1  0
  9 12  1  1
 11 13  1  0
 13 14  1  0
 14 15  1  0
 16 15  1  1
 16 17  1  0
 16 18  1  0
 19 18  1  6
 17 20  1  0
 19 21  1  0
 19 22  1  0
 22 20  1  6
 21 23  1  1
 22 24  1  0
 21 25  1  0
 24 26  1  0
 25 26  1  0
M  END
