ucsf006-ucsf404
     RDKit          3D

 21 23  0  0  0  0  0  0  0  0999 V2000
   -2.3890   14.9810   -3.6070 C   0  0  0  0  0  0  0  0  0  0  0  0
   -1.2210   14.7430   -2.7680 N   0  0  0  0  0  0  0  0  0  0  0  0
   -0.0040   15.2100   -3.4790 C   0  0  0  0  0  0  0  0  0  0  0  0
   -1.4330   15.2670   -1.4330 C   0  0  1  0  0  0  0  0  0  0  0  0
    0.6040   14.3780   -4.6210 C   0  0  0  0  0  0  0  0  0  0  0  0
   -2.4670   14.6120   -0.5560 C   0  0  1  0  0  0  0  0  0  0  0  0
   -0.1860   15.3190   -0.6590 N   0  0  0  0  0  0  0  0  0  0  0  0
    0.4920   12.8450   -4.4820 C   0  0  1  0  0  0  0  0  0  0  0  0
   -2.3730   15.5130    0.6230 C   0  0  2  0  0  0  0  0  0  0  0  0
   -0.1790   14.7860    0.7150 C   0  0  0  0  0  0  0  0  0  0  0  0
   -3.9740   14.4010   -0.8080 C   0  0  2  0  0  0  0  0  0  0  0  0
    0.2230   12.2140   -5.7110 O   0  0  0  0  0  0  0  0  0  0  0  0
    1.6480   12.3380   -4.1100 O   0  0  0  0  0  0  0  0  0  0  0  0
   -4.9210   15.4430   -1.9450 Cl  0  0  0  0  0  0  0  0  0  0  0  0
   -1.3990   14.9770    1.4950 N   0  0  0  0  0  0  0  0  0  0  0  0
   -3.6570   15.6710    1.2680 N   0  0  0  0  0  0  0  0  0  0  0  0
   -4.4670   14.6630    0.6190 C   0  0  1  0  0  0  0  0  0  0  0  0
   -5.8810   14.9480    0.8320 N   0  0  0  0  0  0  0  0  0  0  0  0
   -4.7520   13.3110    1.7410 S   0  0  0  0  0  0  0  0  0  0  0  0
   -5.6990   14.7630    2.2440 C   0  0  2  0  0  0  0  0  0  0  0  0
   -6.9310   14.4310    2.8940 N   0  0  0  0  0  0  0  0  0  0  0  0
  1  2  1  0
  2  3  1  0
  4  2  1  6
  3  5  1  0
  6  4  1  6
  4  7  1  0
  5  8  1  0
  6  9  1  0
  7 10  1  0
  6 11  1  0
  8 12  1  6
  8 13  1  0
 11 14  1  6
  9 15  1  1
 10 15  1  0
  9 16  1  0
 11 17  1  0
 17 16  1  1
 17 18  1  0
 17 19  1  0
 18 20  1  0
 19 20  1  0
 20 21  1  1
M  CHG  1  13  -1
M  END
