ucsf584-ucsf412
     RDKit          3D

 11 12  0  0  0  0  0  0  0  0999 V2000
   -8.7710   14.7220    1.0790 C   0  0  0  0  0  0  0  0  0  0  0  0
   -7.9080   14.6660    2.3330 C   0  0  0  0  0  0  0  0  0  0  0  0
   -6.5280   14.7020    1.8460 N   0  0  0  0  0  0  0  0  0  0  0  0
   -7.8140   14.8480   -0.0180 N   0  0  0  0  0  0  0  0  0  0  0  0
   -6.6110   14.2210    0.4840 C   0  0  0  0  0  0  0  0  0  0  0  0
   -5.3630   14.4460   -0.3940 C   0  0  0  0  0  0  0  0  0  0  0  0
   -4.1370   14.9790    0.3540 C   0  0  0  0  0  0  0  0  0  0  0  0
   -5.5310   15.2680   -1.6680 C   0  0  0  0  0  0  0  0  0  0  0  0
   -2.9030   14.6750   -0.4830 C   0  0  0  0  0  0  0  0  0  0  0  0
   -4.3180   14.9960   -2.5530 C   0  0  0  0  0  0  0  0  0  0  0  0
   -3.0160   15.1230   -1.8840 N   0  0  0  0  0  0  0  0  0  0  0  0
  1  2  1  0
  2  3  1  0
  1  4  1  0
  3  5  1  0
  4  5  1  0
  5  6  1  0
  6  7  1  0
  6  8  1  0
  7  9  1  0
  8 10  1  0
  9 11  1  0
 10 11  1  0
M  END
