ucsf013-ucsf151
     RDKit          3D

 20 22  0  0  0  0  0  0  0  0999 V2000
   -3.7200   15.1740    1.8000 N   0  0  0  0  0  0  0  0  0  0  0  0
   -4.7160   15.3380    0.7780 C   0  0  2  0  0  0  0  0  0  0  0  0
   -5.9180   14.9220    1.5080 N   0  0  0  0  0  0  0  0  0  0  0  0
   -4.3900   14.5400   -0.5010 C   0  0  1  0  0  0  0  0  0  0  0  0
   -5.6980   14.2810   -1.2720 C   0  0  1  0  0  0  0  0  0  0  0  0
   -6.9900   14.3450    0.7160 C   0  0  0  0  0  0  0  0  0  0  0  0
   -3.2770   15.2270   -1.3930 C   0  0  0  0  0  0  0  0  0  0  0  0
   -6.9060   14.8240   -0.6360 N   0  0  0  0  0  0  0  0  0  0  0  0
   -5.5390   14.8060   -2.6740 C   0  0  0  0  0  0  0  0  0  0  0  0
   -2.9440   14.5610   -2.8040 C   0  0  2  0  0  0  0  0  0  0  0  0
   -4.3370   14.1160   -3.3500 C   0  0  0  0  0  0  0  0  0  0  0  0
   -1.8040   13.4290   -2.7290 C   0  0  2  0  0  0  0  0  0  0  0  0
   -2.3260   15.3540   -4.0460 C   0  0  2  0  0  0  0  0  0  0  0  0
   -0.2670   13.8230   -2.6560 C   0  0  2  0  0  0  0  0  0  0  0  0
   -3.0660   16.5120   -4.4930 O   0  0  0  0  0  0  0  0  0  0  0  0
   -2.2280   14.4330   -5.3130 C   0  0  0  0  0  0  0  0  0  0  0  0
   -2.0230   12.4500   -3.9100 C   0  0  0  0  0  0  0  0  0  0  0  0
    0.3500   13.0310   -1.7960 O   0  0  0  0  0  0  0  0  0  0  0  0
   -0.0130   15.0970   -2.1120 O   0  0  0  0  0  0  0  0  0  0  0  0
   -2.6130   13.0430   -5.1190 N   0  0  0  0  0  0  0  0  0  0  0  0
  2  1  1  1
  2  3  1  0
  2  4  1  0
  4  5  1  0
  3  6  1  0
  4  7  1  6
  5  8  1  0
  6  8  1  0
  5  9  1  6
 10  7  1  1
  9 11  1  0
 10 11  1  0
 10 12  1  0
 10 13  1  0
 12 14  1  0
 13 15  1  6
 13 16  1  0
 12 17  1  6
 14 18  1  1
 14 19  1  0
 16 20  1  0
 17 20  1  0
M  CHG  1  18  -1
M  END
