ucsf241-ucsf114
     RDKit          3D

 16 17  0  0  0  0  0  0  0  0999 V2000
    0.7830   18.1070   -4.5660 C   0  0  0  0  0  0  0  0  0  0  0  0
   -0.3580   17.5480   -5.4090 C   0  0  0  0  0  0  0  0  0  0  0  0
   -1.5220   18.5330   -5.4840 C   0  0  0  0  0  0  0  0  0  0  0  0
   -0.8660   16.3410   -4.8300 O   0  0  0  0  0  0  0  0  0  0  0  0
    0.0340   15.6890   -3.9220 C   0  0  0  0  0  0  0  0  0  0  0  0
   -0.7810   14.7380   -3.0220 C   0  0  0  0  0  0  0  0  0  0  0  0
   -1.0440   15.1970   -1.5440 C   0  0  1  0  0  0  0  0  0  0  0  0
   -2.4170   14.7040   -0.9590 C   0  0  2  0  0  0  0  0  0  0  0  0
    0.1360   14.9220   -0.5840 C   0  0  2  0  0  0  0  0  0  0  0  0
    1.5670   14.0930   -1.4000 S   0  0  0  0  0  0  0  0  0  0  0  0
   -3.6090   15.5370   -1.3810 C   0  0  0  0  0  0  0  0  0  0  0  0
   -2.5970   14.5590    0.5750 C   0  0  2  0  0  0  0  0  0  0  0  0
   -0.2580   14.3180    0.7840 C   0  0  0  0  0  0  0  0  0  0  0  0
   -4.4920   15.5850   -0.1460 C   0  0  0  0  0  0  0  0  0  0  0  0
   -3.5620   15.5480    0.9720 N   0  0  0  0  0  0  0  0  0  0  0  0
   -1.4640   14.8830    1.3550 N   0  0  0  0  0  0  0  0  0  0  0  0
  1  2  1  0
  2  3  1  0
  2  4  1  0
  4  5  1  0
  5  6  1  0
  7  6  1  6
  7  8  1  0
  7  9  1  0
  9 10  1  6
  8 11  1  1
  8 12  1  0
  9 13  1  0
 11 14  1  0
 12 15  1  1
 14 15  1  0
 12 16  1  0
 13 16  1  0
M  END
