ucsf336-ucsf039
     RDKit          3D

 30 33  0  0  0  0  0  0  0  0999 V2000
    1.8860   12.9180   -4.5100 O   0  0  0  0  0  0  0  0  0  0  0  0
    0.7650   12.8220   -3.8260 C   0  0  2  0  0  0  0  0  0  0  0  0
    1.2320   12.8490   -2.4890 O   0  0  0  0  0  0  0  0  0  0  0  0
   -0.0000   11.5010   -4.1660 C   0  0  2  0  0  0  0  0  0  0  0  0
   -0.1660   14.0040   -4.1050 C   0  0  0  0  0  0  0  0  0  0  0  0
    0.3240   10.4700   -3.2440 O   0  0  0  0  0  0  0  0  0  0  0  0
    0.2180   11.1770   -5.5530 N   0  0  0  0  0  0  0  0  0  0  0  0
   -0.3820   15.0390   -2.9990 C   0  0  2  0  0  0  0  0  0  0  0  0
   -0.8710   10.6030   -6.2970 C   0  0  0  0  0  0  0  0  0  0  0  0
   -1.5250   14.9840   -2.0360 N   0  0  0  0  0  0  0  0  0  0  0  0
   -0.2460   16.4620   -3.6410 C   0  0  1  0  0  0  0  0  0  0  0  0
   -0.4040    9.4870   -7.2260 C   0  0  0  0  0  0  0  0  0  0  0  0
   -2.0880   10.1880   -5.4470 C   0  0  0  0  0  0  0  0  0  0  0  0
   -2.8560   15.4700   -2.3410 C   0  0  0  0  0  0  0  0  0  0  0  0
   -1.0500   15.3390   -0.7200 C   0  0  1  0  0  0  0  0  0  0  0  0
    1.0550   16.5550   -4.4250 C   0  0  0  0  0  0  0  0  0  0  0  0
   -1.3390   16.8970   -4.5550 N   0  0  0  0  0  0  0  0  0  0  0  0
   -1.5330    8.9930   -8.1280 C   0  0  0  0  0  0  0  0  0  0  0  0
   -2.7010    8.8560   -5.8780 C   0  0  0  0  0  0  0  0  0  0  0  0
   -3.8660   15.0080   -1.3560 N   0  0  0  0  0  0  0  0  0  0  0  0
   -2.0970   15.3630    0.4020 C   0  0  1  0  0  0  0  0  0  0  0  0
   -0.1230   14.3420   -0.2580 N   0  0  0  0  0  0  0  0  0  0  0  0
   -0.7920   17.7510   -5.6180 C   0  0  2  0  0  0  0  0  0  0  0  0
    0.9060   18.1850   -5.1760 S   0  0  0  0  0  0  0  0  0  0  0  0
   -1.6260   18.9880   -5.9130 C   0  0  0  0  0  0  0  0  0  0  0  0
   -2.8410    8.7120   -7.3840 C   0  0  0  0  0  0  0  0  0  0  0  0
   -3.4280   14.7210   -0.0100 C   0  0  1  0  0  0  0  0  0  0  0  0
   -1.4610   14.7000    1.5560 N   0  0  0  0  0  0  0  0  0  0  0  0
   -0.0890   14.4490    1.1560 C   0  0  0  0  0  0  0  0  0  0  0  0
   -4.5410   15.1470    0.8540 N   0  0  0  0  0  0  0  0  0  0  0  0
  2  1  1  6
  2  3  1  0
  2  4  1  0
  2  5  1  0
  4  6  1  1
  4  7  1  0
  8  5  1  6
  7  9  1  0
  8 10  1  0
  8 11  1  0
  9 12  1  0
  9 13  1  0
 10 14  1  0
 10 15  1  0
 11 16  1  6
 11 17  1  0
 12 18  1  0
 13 19  1  0
 14 20  1  0
 15 21  1  0
 15 22  1  1
 17 23  1  0
 16 24  1  0
 23 24  1  0
 23 25  1  1
 18 26  1  0
 19 26  1  0
 20 27  1  0
 21 27  1  0
 21 28  1  1
 22 29  1  0
 28 29  1  0
 27 30  1  1
M  CHG  1   1  -1
M  END
