ucsf367-ucsf039
     RDKit          3D

 29 32  0  0  0  0  0  0  0  0999 V2000
    0.6020   10.9780   -3.1880 O   0  0  0  0  0  0  0  0  0  0  0  0
    1.2450   12.0690   -3.5860 C   0  0  2  0  0  0  0  0  0  0  0  0
    0.7860   13.1510   -2.8080 O   0  0  0  0  0  0  0  0  0  0  0  0
    0.9130   12.4540   -5.0780 C   0  0  0  0  0  0  0  0  0  0  0  0
    0.7540   11.3640   -5.9940 O   0  0  0  0  0  0  0  0  0  0  0  0
   -0.1240   13.9800   -3.5310 C   0  0  0  0  0  0  0  0  0  0  0  0
   -0.3990   15.3090   -2.8250 C   0  0  2  0  0  0  0  0  0  0  0  0
   -0.3380   10.5040   -5.6980 C   0  0  0  0  0  0  0  0  0  0  0  0
   -0.4910    9.5650   -6.8860 C   0  0  0  0  0  0  0  0  0  0  0  0
   -1.6360   11.2800   -5.4640 C   0  0  0  0  0  0  0  0  0  0  0  0
   -1.5740   15.3260   -1.9430 N   0  0  0  0  0  0  0  0  0  0  0  0
   -0.2420   16.5070   -3.8160 C   0  0  1  0  0  0  0  0  0  0  0  0
   -1.6600    8.6050   -6.6810 C   0  0  0  0  0  0  0  0  0  0  0  0
   -2.8510   10.3630   -5.2790 C   0  0  0  0  0  0  0  0  0  0  0  0
   -2.9320   15.0820   -2.4010 C   0  0  0  0  0  0  0  0  0  0  0  0
   -1.3010   14.6970   -0.7000 C   0  0  2  0  0  0  0  0  0  0  0  0
    1.0470   16.4590   -4.5990 C   0  0  0  0  0  0  0  0  0  0  0  0
   -1.3030   16.7820   -4.8200 N   0  0  0  0  0  0  0  0  0  0  0  0
   -2.9790    9.3160   -6.3800 C   0  0  0  0  0  0  0  0  0  0  0  0
   -3.9450   15.3360   -1.3680 N   0  0  0  0  0  0  0  0  0  0  0  0
   -2.1310   15.2670    0.3970 C   0  0  1  0  0  0  0  0  0  0  0  0
    0.0000   14.8820   -0.0940 N   0  0  0  0  0  0  0  0  0  0  0  0
   -0.8600   18.0950   -5.3030 C   0  0  1  0  0  0  0  0  0  0  0  0
    0.9380   17.9980   -5.5560 S   0  0  0  0  0  0  0  0  0  0  0  0
   -1.5590   18.4870   -6.5900 C   0  0  0  0  0  0  0  0  0  0  0  0
   -3.5920   14.9390   -0.0130 C   0  0  1  0  0  0  0  0  0  0  0  0
   -1.6010   14.5830    1.5930 N   0  0  0  0  0  0  0  0  0  0  0  0
   -0.2040   14.3160    1.2240 C   0  0  0  0  0  0  0  0  0  0  0  0
   -4.5890   15.5910    0.8120 N   0  0  0  0  0  0  0  0  0  0  0  0
  2  1  1  1
  2  3  1  0
  2  4  1  0
  4  5  1  0
  3  6  1  0
  7  6  1  6
  5  8  1  0
  8  9  1  0
  8 10  1  0
  7 11  1  0
  7 12  1  0
  9 13  1  0
 10 14  1  0
 11 15  1  0
 11 16  1  0
 12 17  1  6
 12 18  1  0
 13 19  1  0
 14 19  1  0
 15 20  1  0
 16 21  1  0
 16 22  1  1
 18 23  1  0
 17 24  1  0
 23 24  1  0
 23 25  1  6
 20 26  1  0
 21 26  1  0
 21 27  1  1
 22 28  1  0
 27 28  1  0
 26 29  1  1
M  CHG  1   1  -1
M  END
