ucsf403-ucsf424
     RDKit          3D

 16 17  0  0  0  0  0  0  0  0999 V2000
    0.2990    8.2460   -6.7850 Cl  0  0  0  0  0  0  0  0  0  0  0  0
   -0.5750    9.7810   -7.0350 C   0  0  2  0  0  0  0  0  0  0  0  0
   -0.5750   10.9670   -5.9890 C   0  0  2  0  0  0  0  0  0  0  0  0
   -1.9990    9.3280   -7.4020 C   0  0  0  0  0  0  0  0  0  0  0  0
    0.0590   10.3300   -8.2060 O   0  0  0  0  0  0  0  0  0  0  0  0
    0.1490   10.7660   -4.7860 O   0  0  0  0  0  0  0  0  0  0  0  0
   -2.0400   11.3910   -5.7210 C   0  0  2  0  0  0  0  0  0  0  0  0
   -2.8510    9.0260   -6.1790 C   0  0  0  0  0  0  0  0  0  0  0  0
    0.2230   12.0190   -6.7380 C   0  0  0  0  0  0  0  0  0  0  0  0
    1.0420   11.2750   -7.6920 N   0  0  0  0  0  0  0  0  0  0  0  0
   -2.2080   12.7520   -4.5360 Cl  0  0  0  0  0  0  0  0  0  0  0  0
    0.5320   11.9480   -4.0500 C   0  0  0  0  0  0  0  0  0  0  0  0
   -2.9260   10.2320   -5.2460 C   0  0  0  0  0  0  0  0  0  0  0  0
    0.8950   11.7230   -2.5690 C   0  0  1  0  0  0  0  0  0  0  0  0
    0.0720   12.2030   -1.6640 O   0  0  0  0  0  0  0  0  0  0  0  0
    0.6560   10.3350   -2.3710 O   0  0  0  0  0  0  0  0  0  0  0  0
  2  1  1  1
  2  3  1  0
  2  4  1  0
  2  5  1  0
  3  6  1  1
  3  7  1  0
  4  8  1  0
  3  9  1  0
  5 10  1  0
  9 10  1  0
  7 11  1  1
  6 12  1  0
  7 13  1  0
  8 13  1  0
 12 14  1  0
 14 15  1  1
 14 16  1  0
M  CHG  1  15  -1
M  END
