ucsf124-ucsf241
     RDKit          3D

 25 28  0  0  0  0  0  0  0  0999 V2000
    0.7130   11.0190   -2.5340 O   0  0  0  0  0  0  0  0  0  0  0  0
    0.5740   12.3100   -2.7930 C   0  0  1  0  0  0  0  0  0  0  0  0
    1.6140   13.0450   -2.0840 O   0  0  0  0  0  0  0  0  0  0  0  0
    0.7700   12.5480   -4.3310 C   0  0  0  0  0  0  0  0  0  0  0  0
    1.1050   14.1940   -1.3680 C   0  0  0  0  0  0  0  0  0  0  0  0
    0.4100   11.3330   -5.1170 N   0  0  0  0  0  0  0  0  0  0  0  0
   -0.9470   10.8360   -4.9770 C   0  0  1  0  0  0  0  0  0  0  0  0
    0.7380   11.4890   -6.5170 C   0  0  2  0  0  0  0  0  0  0  0  0
   -0.2140   13.8820   -0.6290 C   0  0  2  0  0  0  0  0  0  0  0  0
   -1.7940   11.8050   -4.4220 O   0  0  0  0  0  0  0  0  0  0  0  0
    0.6820   12.8430   -6.7570 O   0  0  0  0  0  0  0  0  0  0  0  0
   -1.4380   10.3980   -6.3720 C   0  0  1  0  0  0  0  0  0  0  0  0
   -0.2580   10.6470   -7.3330 C   0  0  2  0  0  0  0  0  0  0  0  0
   -1.4060   14.4570   -1.3960 C   0  0  0  0  0  0  0  0  0  0  0  0
   -0.1680   14.2790    0.8880 C   0  0  0  0  0  0  0  0  0  0  0  0
   -1.9830    8.9610   -6.4430 C   0  0  0  0  0  0  0  0  0  0  0  0
    0.2530    9.3690   -8.0060 C   0  0  0  0  0  0  0  0  0  0  0  0
   -2.6420   14.4270   -0.5310 C   0  0  2  0  0  0  0  0  0  0  0  0
   -1.4530   14.2760    1.6030 N   0  0  0  0  0  0  0  0  0  0  0  0
   -2.1230    8.4180   -7.8610 C   0  0  0  0  0  0  0  0  0  0  0  0
   -0.8360    8.5310   -8.6720 C   0  0  0  0  0  0  0  0  0  0  0  0
   -3.8580   15.2160   -0.9840 C   0  0  0  0  0  0  0  0  0  0  0  0
   -2.4330   14.9750    0.8550 C   0  0  2  0  0  0  0  0  0  0  0  0
   -4.5600   15.5000    0.3430 C   0  0  0  0  0  0  0  0  0  0  0  0
   -3.7560   14.8010    1.3580 N   0  0  0  0  0  0  0  0  0  0  0  0
  2  1  1  6
  2  3  1  0
  2  4  1  0
  3  5  1  0
  4  6  1  0
  6  7  1  0
  6  8  1  0
  9  5  1  6
  7 10  1  6
  8 11  1  6
  7 12  1  0
  8 13  1  0
 12 13  1  0
  9 14  1  0
  9 15  1  0
 12 16  1  1
 13 17  1  1
 18 14  1  6
 15 19  1  0
 16 20  1  0
 17 21  1  0
 20 21  1  0
 18 22  1  0
 18 23  1  0
 23 19  1  1
 22 24  1  0
 23 25  1  0
 24 25  1  0
M  CHG  1   1  -1
M  END
