ucsf030-ucsf258
     RDKit          3D

 27 30  0  0  0  0  0  0  0  0999 V2000
   -4.8980   15.8060   -1.3220 Cl  0  0  0  0  0  0  0  0  0  0  0  0
   -3.4640   15.0570   -0.5040 C   0  0  2  0  0  0  0  0  0  0  0  0
   -3.3790   15.5530    0.9510 C   0  0  1  0  0  0  0  0  0  0  0  0
   -2.0340   15.2070   -1.1100 C   0  0  2  0  0  0  0  0  0  0  0  0
   -4.6200   15.5350    1.7110 N   0  0  0  0  0  0  0  0  0  0  0  0
   -1.0730   15.5530   -0.0090 N   0  0  0  0  0  0  0  0  0  0  0  0
   -2.4310   14.7780    1.7420 N   0  0  0  0  0  0  0  0  0  0  0  0
   -1.5900   15.9950   -2.3090 N   0  0  0  0  0  0  0  0  0  0  0  0
   -1.1400   14.6350    1.0990 C   0  0  0  0  0  0  0  0  0  0  0  0
   -1.5990   15.3800   -3.6690 C   0  0  0  0  0  0  0  0  0  0  0  0
   -0.1960   16.1010   -2.0090 C   0  0  0  0  0  0  0  0  0  0  0  0
   -0.2950   14.6160   -4.1390 C   0  0  0  0  0  0  0  0  0  0  0  0
    0.4040   14.6990   -1.7640 C   0  0  0  0  0  0  0  0  0  0  0  0
    0.7020   15.3540   -5.0920 C   0  0  0  0  0  0  0  0  0  0  0  0
   -0.4350   13.6460   -5.3620 C   0  0  0  0  0  0  0  0  0  0  0  0
    0.4590   13.8870   -3.0530 C   0  0  1  0  0  0  0  0  0  0  0  0
   -0.1160   12.5700   -3.1780 O   0  0  0  0  0  0  0  0  0  0  0  0
    1.0620   13.9100   -5.5100 C   0  0  0  0  0  0  0  0  0  0  0  0
   -0.6670   11.8450   -2.0720 C   0  0  1  0  0  0  0  0  0  0  0  0
   -0.1100   12.3530   -0.9890 O   0  0  0  0  0  0  0  0  0  0  0  0
   -2.2450   12.0590   -2.0110 C   0  0  2  0  0  0  0  0  0  0  0  0
   -2.9950   12.5730   -3.2860 C   0  0  2  0  0  0  0  0  0  0  0  0
   -2.6280   12.9370   -0.8650 N   0  0  0  0  0  0  0  0  0  0  0  0
   -2.1080   13.2000   -4.2180 O   0  0  0  0  0  0  0  0  0  0  0  0
   -4.0920   13.5970   -2.9320 C   0  0  0  0  0  0  0  0  0  0  0  0
   -4.0510   12.8240   -0.5420 C   0  0  0  0  0  0  0  0  0  0  0  0
   -4.9410   13.1300   -1.7440 C   0  0  0  0  0  0  0  0  0  0  0  0
  2  1  1  6
  2  3  1  0
  2  4  1  0
  3  5  1  1
  4  6  1  0
  3  7  1  0
  4  8  1  6
  6  9  1  0
  7  9  1  0
  8 10  1  0
  8 11  1  0
 12 10  1  0
 11 13  1  0
 12 14  1  0
 12 15  1  0
 12 16  1  0
 13 16  1  0
 16 17  1  1
 14 18  1  0
 15 18  1  0
 17 19  1  0
 19 20  1  1
 19 21  1  0
 21 22  1  0
 21 23  1  1
 22 24  1  6
 22 25  1  0
 23 26  1  0
 25 27  1  0
 26 27  1  0
M  CHG  1  20  -1
M  END
