ucsf123-ucsf213
     RDKit          3D

 18 19  0  0  0  0  0  0  0  0999 V2000
   -2.0870   18.7500   -4.9130 N   0  0  0  0  0  0  0  0  0  0  0  0
   -2.0800   17.2960   -5.6550 S   0  0  0  0  0  0  0  0  0  0  0  0
   -1.5850   17.7980   -7.0750 O   0  0  0  0  0  0  0  0  0  0  0  0
   -3.4860   16.6710   -6.0220 O   0  0  0  0  0  0  0  0  0  0  0  0
   -0.9370   15.9630   -5.1490 C   0  0  1  0  0  0  0  0  0  0  0  0
   -0.1790   15.6710   -3.8770 C   0  0  1  0  0  0  0  0  0  0  0  0
   -1.4550   14.5250   -5.5220 C   0  0  0  0  0  0  0  0  0  0  0  0
    0.1360   16.7260   -5.9480 C   0  0  0  0  0  0  0  0  0  0  0  0
    0.6010   14.3050   -3.9260 C   0  0  1  0  0  0  0  0  0  0  0  0
   -1.6860   13.6160   -4.2950 C   0  0  0  0  0  0  0  0  0  0  0  0
    0.7300   16.7610   -3.5410 C   0  0  0  0  0  0  0  0  0  0  0  0
    0.4330   18.1270   -5.5300 C   0  0  0  0  0  0  0  0  0  0  0  0
    1.8770   14.1740   -3.0960 C   0  0  0  0  0  0  0  0  0  0  0  0
   -0.3470   13.0980   -3.7200 C   0  0  2  0  0  0  0  0  0  0  0  0
    0.4780   18.1500   -4.0830 C   0  0  0  0  0  0  0  0  0  0  0  0
   -0.4290   12.4170   -2.2840 C   0  0  2  0  0  0  0  0  0  0  0  0
    0.5380   12.8610   -1.3540 O   0  0  0  0  0  0  0  0  0  0  0  0
   -0.0300   11.1590   -2.3310 O   0  0  0  0  0  0  0  0  0  0  0  0
  1  2  1  0
  2  3  1  0
  2  4  1  0
  5  2  1  1
  5  6  1  0
  5  7  1  0
  5  8  1  0
  6  9  1  0
  7 10  1  0
  6 11  1  6
  8 12  1  0
  9 13  1  1
  9 14  1  0
 14 10  1  1
 11 15  1  0
 12 15  1  0
 14 16  1  0
 16 17  1  1
 16 18  1  0
M  CHG  1  18  -1
M  END
