ucsf260-ucsf320
     RDKit          3D

 25 27  0  0  0  0  0  0  0  0999 V2000
    0.7360   10.5750   -2.4480 O   0  0  0  0  0  0  0  0  0  0  0  0
    0.7070   11.8850   -2.7150 C   0  0  1  0  0  0  0  0  0  0  0  0
    1.8470   12.4360   -2.1070 O   0  0  0  0  0  0  0  0  0  0  0  0
    0.7380   12.2140   -4.2430 C   0  0  0  0  0  0  0  0  0  0  0  0
   -0.5630   12.8520   -4.7660 C   0  0  1  0  0  0  0  0  0  0  0  0
   -0.6000   14.4000   -4.4990 C   0  0  0  0  0  0  0  0  0  0  0  0
   -1.1840   12.4080   -6.0430 N   0  0  0  0  0  0  0  0  0  0  0  0
   -1.8430   14.8470   -3.9050 O   0  0  0  0  0  0  0  0  0  0  0  0
   -2.5280   12.0010   -5.7010 C   0  0  0  0  0  0  0  0  0  0  0  0
   -0.7800   11.2680   -6.8710 C   0  0  2  0  0  0  0  0  0  0  0  0
   -1.7580   15.3040   -2.5320 C   0  0  2  0  0  0  0  0  0  0  0  0
   -2.4490   10.5680   -5.3380 N   0  0  0  0  0  0  0  0  0  0  0  0
   -1.2270   10.0970   -6.0080 C   0  0  1  0  0  0  0  0  0  0  0  0
    0.6250   11.0230   -7.3740 C   0  0  0  0  0  0  0  0  0  0  0  0
   -1.0630   14.4300   -1.8280 O   0  0  0  0  0  0  0  0  0  0  0  0
   -1.4240    8.8890   -6.9080 C   0  0  0  0  0  0  0  0  0  0  0  0
    0.7100    9.6790   -8.1350 C   0  0  0  0  0  0  0  0  0  0  0  0
   -3.2120   15.3510   -1.9120 C   0  0  2  0  0  0  0  0  0  0  0  0
   -0.0900    8.5070   -7.5490 C   0  0  0  0  0  0  0  0  0  0  0  0
   -3.3610   14.6280   -0.5600 C   0  0  0  0  0  0  0  0  0  0  0  0
   -4.3010   14.8360   -2.8720 C   0  0  0  0  0  0  0  0  0  0  0  0
   -4.7090   14.8800    0.1090 C   0  0  0  0  0  0  0  0  0  0  0  0
   -5.7110   14.8650   -2.2720 C   0  0  0  0  0  0  0  0  0  0  0  0
   -5.7770   15.4160   -0.8510 C   0  0  1  0  0  0  0  0  0  0  0  0
   -7.0730   15.1220   -0.3190 O   0  0  0  0  0  0  0  0  0  0  0  0
  2  1  1  6
  2  3  1  0
  2  4  1  0
  5  4  1  6
  5  6  1  0
  5  7  1  0
  6  8  1  0
  7  9  1  0
  7 10  1  0
  8 11  1  0
  9 12  1  0
 10 13  1  0
 12 13  1  0
 10 14  1  1
 11 15  1  1
 13 16  1  6
 14 17  1  0
 11 18  1  0
 16 19  1  0
 17 19  1  0
 18 20  1  1
 18 21  1  0
 20 22  1  0
 21 23  1  0
 22 24  1  0
 23 24  1  0
 24 25  1  1
M  CHG  2   1  -1  15  -1
M  END
