ucsf345-ucsf511
     RDKit          3D

 18 20  0  0  0  0  0  0  0  0999 V2000
   -6.8020   14.7130    1.1780 N   0  0  0  0  0  0  0  0  0  0  0  0
   -6.8070   14.9680   -0.2600 C   0  0  2  0  0  0  0  0  0  0  0  0
   -7.4930   13.8810   -0.8110 O   0  0  0  0  0  0  0  0  0  0  0  0
   -5.3540   15.1250   -0.8360 C   0  0  2  0  0  0  0  0  0  0  0  0
   -5.2220   15.4860   -2.2510 N   0  0  0  0  0  0  0  0  0  0  0  0
   -4.5830   13.8270   -0.6870 C   0  0  0  0  0  0  0  0  0  0  0  0
   -3.7460   15.6760   -2.4070 C   0  0  0  0  0  0  0  0  0  0  0  0
   -3.8290   13.3380   -1.8950 N   0  0  0  0  0  0  0  0  0  0  0  0
   -2.9160   14.3350   -2.4900 C   0  0  2  0  0  0  0  0  0  0  0  0
   -3.0170   12.3740   -1.2830 C   0  0  0  0  0  0  0  0  0  0  0  0
   -1.5970   14.1100   -1.7070 C   0  0  1  0  0  0  0  0  0  0  0  0
   -2.5890   14.0820   -3.9220 N   0  0  0  0  0  0  0  0  0  0  0  0
   -2.5620   12.9320   -0.0290 O   0  0  0  0  0  0  0  0  0  0  0  0
   -0.3200   14.7300   -2.2360 C   0  0  1  0  0  0  0  0  0  0  0  0
   -1.2000   13.7770   -4.2810 C   0  0  0  0  0  0  0  0  0  0  0  0
   -1.8350   14.1340   -0.2310 C   0  0  0  0  0  0  0  0  0  0  0  0
    0.7720   14.0060   -1.7090 O   0  0  0  0  0  0  0  0  0  0  0  0
   -0.2200   14.6720   -3.6780 N   0  0  0  0  0  0  0  0  0  0  0  0
  2  1  1  1
  2  3  1  0
  2  4  1  0
  4  5  1  0
  4  6  1  6
  5  7  1  0
  6  8  1  0
  9  7  1  6
  9  8  1  0
  8 10  1  0
  9 11  1  0
  9 12  1  0
 10 13  1  0
 11 14  1  0
 12 15  1  0
 11 16  1  1
 13 16  1  0
 14 17  1  1
 14 18  1  0
 15 18  1  0
M  END
