ucsf039-ucsf172
     RDKit          3D

 23 25  0  0  0  0  0  0  0  0999 V2000
   -4.7980   15.2040    1.0420 N   0  0  0  0  0  0  0  0  0  0  0  0
   -6.2810   14.4060    1.1890 S   0  0  0  0  0  0  0  0  0  0  0  0
   -7.3980   14.8750    2.4700 C   0  0  0  0  0  0  0  0  0  0  0  0
   -3.7400   14.8340    0.0760 C   0  0  1  0  0  0  0  0  0  0  0  0
   -6.1100   12.8680    1.5810 O   0  0  0  0  0  0  0  0  0  0  0  0
   -7.1870   14.5340   -0.1400 O   0  0  0  0  0  0  0  0  0  0  0  0
   -4.0950   15.4000   -1.2490 N   0  0  0  0  0  0  0  0  0  0  0  0
   -2.2680   15.2160    0.4060 C   0  0  2  0  0  0  0  0  0  0  0  0
   -3.1170   15.1910   -2.3400 C   0  0  0  0  0  0  0  0  0  0  0  0
   -1.4370   14.7310   -0.7420 C   0  0  1  0  0  0  0  0  0  0  0  0
   -1.5790   14.5120    1.5210 N   0  0  0  0  0  0  0  0  0  0  0  0
   -1.7050   15.3500   -1.9790 N   0  0  0  0  0  0  0  0  0  0  0  0
   -0.0940   15.0160   -0.2440 N   0  0  0  0  0  0  0  0  0  0  0  0
   -0.1840   14.4200    1.0820 C   0  0  0  0  0  0  0  0  0  0  0  0
   -0.8010   14.9440   -3.1040 C   0  0  1  0  0  0  0  0  0  0  0  0
   -1.3670   13.8380   -4.0670 C   0  0  0  0  0  0  0  0  0  0  0  0
   -0.3830   16.2710   -3.8370 C   0  0  1  0  0  0  0  0  0  0  0  0
   -2.2380   14.4060   -4.8950 O   0  0  0  0  0  0  0  0  0  0  0  0
    0.9910   16.2900   -4.5080 C   0  0  0  0  0  0  0  0  0  0  0  0
   -1.3170   16.7580   -4.8780 N   0  0  0  0  0  0  0  0  0  0  0  0
   -0.8190   18.0720   -5.2340 C   0  0  1  0  0  0  0  0  0  0  0  0
    0.9790   17.8970   -5.3740 S   0  0  0  0  0  0  0  0  0  0  0  0
   -1.4160   18.5610   -6.5430 C   0  0  0  0  0  0  0  0  0  0  0  0
  1  2  1  0
  2  3  1  0
  4  1  1  1
  2  5  1  0
  2  6  1  0
  4  7  1  0
  4  8  1  0
  7  9  1  0
  8 10  1  0
  8 11  1  1
  9 12  1  0
 10 12  1  0
 10 13  1  1
 11 14  1  0
 13 14  1  0
 12 15  1  0
 15 16  1  6
 15 17  1  0
 16 18  1  0
 17 19  1  6
 17 20  1  0
 20 21  1  0
 19 22  1  0
 21 22  1  0
 21 23  1  6
M  CHG  1  18  -1
M  END
