ucsf262-ucsf338
     RDKit          3D

 26 28  0  0  0  0  0  0  0  0999 V2000
   -3.2190   15.9100   -4.2840 Cl  0  0  0  0  0  0  0  0  0  0  0  0
   -1.8920   16.4380   -5.3120 C   0  0  2  0  0  0  0  0  0  0  0  0
   -0.5760   15.8110   -4.8880 C   0  0  2  0  0  0  0  0  0  0  0  0
   -1.7800   17.9780   -5.4950 C   0  0  0  0  0  0  0  0  0  0  0  0
   -0.4070   14.6270   -3.9250 C   0  0  2  0  0  0  0  0  0  0  0  0
    0.4180   16.8610   -4.4120 C   0  0  1  0  0  0  0  0  0  0  0  0
   -0.4830   18.4200   -6.1920 C   0  0  0  0  0  0  0  0  0  0  0  0
   -1.3030   14.4690   -2.6420 C   0  0  0  0  0  0  0  0  0  0  0  0
    1.1600   14.6330   -3.8980 C   0  0  1  0  0  0  0  0  0  0  0  0
    1.5250   16.0900   -3.8510 N   0  0  0  0  0  0  0  0  0  0  0  0
    0.7790   17.8230   -5.5410 C   0  0  0  0  0  0  0  0  0  0  0  0
    1.9680   13.8110   -2.8140 C   0  0  1  0  0  0  0  0  0  0  0  0
   -2.6530   13.7030   -2.8270 C   0  0  0  0  0  0  0  0  0  0  0  0
    2.8270   14.5880   -2.1600 O   0  0  0  0  0  0  0  0  0  0  0  0
    1.1070   13.3840   -1.7780 O   0  0  0  0  0  0  0  0  0  0  0  0
   -3.8720   14.4170   -2.3730 O   0  0  0  0  0  0  0  0  0  0  0  0
   -3.7940   15.1990   -1.1570 C   0  0  1  0  0  0  0  0  0  0  0  0
   -5.1070   15.2100   -0.2860 C   0  0  1  0  0  0  0  0  0  0  0  0
   -2.5840   14.7730   -0.3280 C   0  0  0  0  0  0  0  0  0  0  0  0
   -6.3530   14.4670   -0.8310 C   0  0  1  0  0  0  0  0  0  0  0  0
   -2.5700   15.4100    1.0430 C   0  0  0  0  0  0  0  0  0  0  0  0
   -4.9560   14.6870    1.1770 C   0  0  0  0  0  0  0  0  0  0  0  0
   -7.4150   14.3690    0.1990 N   0  0  0  0  0  0  0  0  0  0  0  0
   -6.9060   15.0470   -1.9930 O   0  0  0  0  0  0  0  0  0  0  0  0
   -3.6150   14.8000    1.8870 C   0  0  0  0  0  0  0  0  0  0  0  0
   -8.7060   14.1510   -0.4430 O   0  0  0  0  0  0  0  0  0  0  0  0
  2  1  1  1
  3  2  1  1
  2  4  1  0
  3  5  1  0
  3  6  1  0
  4  7  1  0
  5  8  1  1
  5  9  1  0
  6 10  1  0
  9 10  1  1
  6 11  1  6
  7 11  1  0
  9 12  1  0
  8 13  1  0
 12 14  1  1
 12 15  1  0
 13 16  1  0
 17 16  1  6
 17 18  1  0
 17 19  1  0
 18 20  1  0
 19 21  1  0
 18 22  1  1
 20 23  1  0
 20 24  1  6
 21 25  1  0
 22 25  1  0
 23 26  1  0
M  CHG  1  14  -1
M  END
