ucsf516-ucsf523
     RDKit          3D

 21 24  0  0  0  0  0  0  0  0999 V2000
    0.1040   13.6510    1.3070 N   0  0  0  0  0  0  0  0  0  0  0  0
   -0.1250   14.8300    0.5880 C   0  0  1  0  0  0  0  0  0  0  0  0
   -0.2570   14.4310   -0.7730 N   0  0  0  0  0  0  0  0  0  0  0  0
   -1.2760   15.3710    1.1980 N   0  0  0  0  0  0  0  0  0  0  0  0
   -2.4870   14.7070    0.8470 C   0  0  2  0  0  0  0  0  0  0  0  0
   -1.4030   14.9920   -1.3990 C   0  0  1  0  0  0  0  0  0  0  0  0
   -1.2800   16.3440   -1.1580 O   0  0  0  0  0  0  0  0  0  0  0  0
   -1.3430   14.9190   -2.8750 N   0  0  0  0  0  0  0  0  0  0  0  0
   -2.7230   14.5910   -0.6600 C   0  0  2  0  0  0  0  0  0  0  0  0
   -3.5630   15.4030    1.5060 N   0  0  0  0  0  0  0  0  0  0  0  0
   -0.9210   13.7950   -3.7360 C   0  0  2  0  0  0  0  0  0  0  0  0
   -2.5480   15.4230   -3.5580 C   0  0  0  0  0  0  0  0  0  0  0  0
   -4.0410   15.3220   -0.8500 C   0  0  0  0  0  0  0  0  0  0  0  0
   -4.5870   15.6170    0.5350 C   0  0  1  0  0  0  0  0  0  0  0  0
   -5.6740   14.8080    0.9490 O   0  0  0  0  0  0  0  0  0  0  0  0
    0.4520   13.1200   -3.6610 C   0  0  0  0  0  0  0  0  0  0  0  0
   -0.9830   14.4900   -5.0790 C   0  0  0  0  0  0  0  0  0  0  0  0
   -2.3860   15.0370   -5.0270 C   0  0  0  0  0  0  0  0  0  0  0  0
    1.7730   13.8710   -3.4080 C   0  0  0  0  0  0  0  0  0  0  0  0
    0.8230   12.1830   -2.4950 C   0  0  0  0  0  0  0  0  0  0  0  0
    2.2780   12.5610   -2.8270 C   0  0  0  0  0  0  0  0  0  0  0  0
  2  1  1  1
  2  3  1  0
  2  4  1  0
  5  4  1  6
  3  6  1  0
  6  7  1  6
  6  8  1  0
  5  9  1  0
  6  9  1  0
  5 10  1  0
  8 11  1  0
  8 12  1  0
  9 13  1  6
 10 14  1  0
 13 14  1  0
 14 15  1  1
 11 16  1  1
 11 17  1  0
 12 18  1  0
 17 18  1  0
 16 19  1  0
 16 20  1  0
 19 21  1  0
 20 21  1  0
M  END
