ucsf138-ucsf004
     RDKit          3D

 30 33  0  0  0  0  0  0  0  0999 V2000
    0.8330   11.8560   -1.7460 O   0  0  0  0  0  0  0  0  0  0  0  0
    0.1300   11.3600   -2.7500 C   0  0  2  0  0  0  0  0  0  0  0  0
    0.4800   10.0090   -2.6340 O   0  0  0  0  0  0  0  0  0  0  0  0
    0.5010   11.9920   -4.1690 C   0  0  1  0  0  0  0  0  0  0  0  0
    0.1250   11.1800   -5.3970 N   0  0  0  0  0  0  0  0  0  0  0  0
   -0.1640   13.3830   -4.1200 C   0  0  2  0  0  0  0  0  0  0  0  0
    0.8150   11.3720   -6.6560 C   0  0  2  0  0  0  0  0  0  0  0  0
   -1.6870   13.3990   -4.2450 C   0  0  2  0  0  0  0  0  0  0  0  0
    0.4900   14.6740   -4.5820 C   0  0  0  0  0  0  0  0  0  0  0  0
    0.6780   12.6900   -7.0170 O   0  0  0  0  0  0  0  0  0  0  0  0
    0.0790   10.5330   -7.5930 N   0  0  0  0  0  0  0  0  0  0  0  0
   -2.1020   13.0930   -5.5060 F   0  0  0  0  0  0  0  0  0  0  0  0
   -2.0970   14.8170   -3.8500 C   0  0  0  0  0  0  0  0  0  0  0  0
    0.2130   15.6300   -3.4150 C   0  0  0  0  0  0  0  0  0  0  0  0
    0.8040   10.1540   -8.8170 C   0  0  0  0  0  0  0  0  0  0  0  0
   -1.1660   15.4470   -2.8560 N   0  0  0  0  0  0  0  0  0  0  0  0
   -0.0740   10.2120  -10.0710 C   0  0  0  0  0  0  0  0  0  0  0  0
    1.3570    8.7210   -8.6380 C   0  0  0  0  0  0  0  0  0  0  0  0
   -1.3220   14.7910   -1.5210 C   0  0  1  0  0  0  0  0  0  0  0  0
    0.6280    9.6310  -11.3080 C   0  0  0  0  0  0  0  0  0  0  0  0
    2.0450    8.1240   -9.8730 C   0  0  0  0  0  0  0  0  0  0  0  0
   -0.0790   14.9970   -0.7670 N   0  0  0  0  0  0  0  0  0  0  0  0
   -2.4810   15.3470   -0.7160 C   0  0  2  0  0  0  0  0  0  0  0  0
    1.1840    8.2190  -11.1200 C   0  0  0  0  0  0  0  0  0  0  0  0
   -0.0640   14.6970    0.6620 C   0  0  0  0  0  0  0  0  0  0  0  0
   -2.4670   14.7780    0.6490 C   0  0  1  0  0  0  0  0  0  0  0  0
   -3.9090   15.1070   -1.1450 C   0  0  0  0  0  0  0  0  0  0  0  0
   -1.2710   15.0840    1.3630 N   0  0  0  0  0  0  0  0  0  0  0  0
   -3.6340   15.4350    1.2340 N   0  0  0  0  0  0  0  0  0  0  0  0
   -4.6340   15.4810    0.1380 C   0  0  0  0  0  0  0  0  0  0  0  0
  2  1  1  1
  2  3  1  0
  2  4  1  0
  4  5  1  6
  4  6  1  0
  5  7  1  0
  6  8  1  0
  6  9  1  6
  7 10  1  6
  7 11  1  0
  8 12  1  6
  8 13  1  0
  9 14  1  0
 11 15  1  0
 13 16  1  0
 14 16  1  0
 15 17  1  0
 15 18  1  0
 19 16  1  6
 17 20  1  0
 18 21  1  0
 19 22  1  0
 19 23  1  0
 20 24  1  0
 21 24  1  0
 22 25  1  0
 23 26  1  0
 23 27  1  6
 25 28  1  0
 26 28  1  1
 26 29  1  0
 27 30  1  0
 29 30  1  0
M  CHG  1   1  -1
M  END
