ucsf247-ucsf380
     RDKit          3D

 21 22  0  0  0  0  0  0  0  0999 V2000
    0.8800   12.9450   -1.8300 O   0  0  0  0  0  0  0  0  0  0  0  0
    0.9210   14.1690   -2.5130 C   0  0  0  0  0  0  0  0  0  0  0  0
    1.3910   13.8590   -3.7820 O   0  0  0  0  0  0  0  0  0  0  0  0
   -0.5040   14.8480   -2.5000 C   0  0  0  0  0  0  0  0  0  0  0  0
    1.9310   14.9460   -1.9010 O   0  0  0  0  0  0  0  0  0  0  0  0
   -1.8020   14.0700   -2.3160 N   0  0  0  0  0  0  0  0  0  0  0  0
   -2.9730   14.9650   -2.5950 C   0  0  1  0  0  0  0  0  0  0  0  0
   -1.6760   12.7930   -3.0640 C   0  0  0  0  0  0  0  0  0  0  0  0
   -3.8220   14.5260   -3.6230 O   0  0  0  0  0  0  0  0  0  0  0  0
   -3.7910   15.3590   -1.3130 C   0  0  1  0  0  0  0  0  0  0  0  0
   -3.0740   12.1930   -3.3980 C   0  0  0  0  0  0  0  0  0  0  0  0
   -0.8070   12.8510   -4.3540 C   0  0  0  0  0  0  0  0  0  0  0  0
   -5.3270   15.1810   -1.4480 C   0  0  0  0  0  0  0  0  0  0  0  0
   -3.2150   14.7830   -0.0120 C   0  0  0  0  0  0  0  0  0  0  0  0
   -3.0030   10.8140   -4.0230 C   0  0  0  0  0  0  0  0  0  0  0  0
   -1.4390   12.1540   -5.5450 C   0  0  0  0  0  0  0  0  0  0  0  0
   -6.0210   14.4480   -0.2920 C   0  0  2  0  0  0  0  0  0  0  0  0
   -4.0330   15.2690    1.1600 C   0  0  0  0  0  0  0  0  0  0  0  0
   -1.9920   10.7770   -5.1720 C   0  0  0  0  0  0  0  0  0  0  0  0
   -7.3980   14.8140   -0.2360 O   0  0  0  0  0  0  0  0  0  0  0  0
   -5.4260   14.6470    1.1080 C   0  0  0  0  0  0  0  0  0  0  0  0
  2  1  1  0
  2  3  1  0
  2  4  1  0
  2  5  1  0
  4  6  1  0
  6  7  1  0
  6  8  1  0
  7  9  1  6
  7 10  1  0
  8 11  1  0
  8 12  1  0
 10 13  1  6
 10 14  1  0
 11 15  1  0
 12 16  1  0
 13 17  1  0
 14 18  1  0
 15 19  1  0
 16 19  1  0
 17 20  1  1
 17 21  1  0
 18 21  1  0
M  CHG  2   1  -1   5  -1
M  END
