ucsf135-ucsf523
     RDKit          3D

 27 30  0  0  0  0  0  0  0  0999 V2000
    0.9280   12.6790   -7.0650 O   0  0  0  0  0  0  0  0  0  0  0  0
    0.9080   11.4820   -6.4000 C   0  0  1  0  0  0  0  0  0  0  0  0
    0.8040   11.8330   -4.9760 N   0  0  0  0  0  0  0  0  0  0  0  0
   -0.3630   10.6390   -6.7740 C   0  0  2  0  0  0  0  0  0  0  0  0
   -0.5590   11.1430   -4.3350 S   0  0  2  0  0  0  0  0  0  0  0  0
   -0.7880    9.8460   -5.5350 C   0  0  1  0  0  0  0  0  0  0  0  0
   -0.2860    9.7110   -7.9700 C   0  0  0  0  0  0  0  0  0  0  0  0
   -1.8930   12.0240   -4.3370 O   0  0  0  0  0  0  0  0  0  0  0  0
   -0.3330   10.4200   -2.9340 O   0  0  0  0  0  0  0  0  0  0  0  0
   -2.1910    9.3010   -5.7180 C   0  0  0  0  0  0  0  0  0  0  0  0
   -1.6060    8.9570   -8.1980 C   0  0  0  0  0  0  0  0  0  0  0  0
   -1.8800   13.3400   -4.8990 C   0  0  0  0  0  0  0  0  0  0  0  0
   -2.2230    8.3550   -6.9170 C   0  0  0  0  0  0  0  0  0  0  0  0
   -1.5690   14.3470   -3.7960 C   0  0  0  0  0  0  0  0  0  0  0  0
   -1.8020   13.7260   -2.5300 O   0  0  0  0  0  0  0  0  0  0  0  0
   -1.7040   14.6150   -1.4420 C   0  0  2  0  0  0  0  0  0  0  0  0
   -0.7020   14.0970   -0.5040 N   0  0  0  0  0  0  0  0  0  0  0  0
   -3.0990   14.8910   -0.7660 C   0  0  2  0  0  0  0  0  0  0  0  0
   -0.6480   14.8200    0.7290 C   0  0  2  0  0  0  0  0  0  0  0  0
   -2.9260   14.2230    0.5970 C   0  0  1  0  0  0  0  0  0  0  0  0
   -4.3510   14.5230   -1.4470 N   0  0  0  0  0  0  0  0  0  0  0  0
   -0.0010   13.9540    1.6270 N   0  0  0  0  0  0  0  0  0  0  0  0
   -1.9240   14.9290    1.3250 N   0  0  0  0  0  0  0  0  0  0  0  0
   -4.1130   14.2310    1.3960 N   0  0  0  0  0  0  0  0  0  0  0  0
   -5.4580   15.0550   -0.6130 C   0  0  0  0  0  0  0  0  0  0  0  0
   -5.1120   15.1460    0.9120 C   0  0  1  0  0  0  0  0  0  0  0  0
   -6.2610   14.9140    1.7020 O   0  0  0  0  0  0  0  0  0  0  0  0
  2  1  1  6
  2  3  1  0
  2  4  1  0
  3  5  1  0
  4  6  1  0
  5  6  1  0
  4  7  1  6
  5  8  1  0
  5  9  1  1
  6 10  1  6
  7 11  1  0
  8 12  1  0
 10 13  1  0
 11 13  1  0
 12 14  1  0
 14 15  1  0
 16 15  1  6
 16 17  1  0
 16 18  1  0
 17 19  1  0
 18 20  1  0
 18 21  1  6
 19 22  1  1
 19 23  1  0
 20 23  1  1
 20 24  1  0
 21 25  1  0
 24 26  1  0
 25 26  1  0
 26 27  1  1
M  END
