ucsf493-ucsf005
     RDKit          3D

 27 30  0  0  0  0  0  0  0  0999 V2000
   -4.4520   15.2070   -5.6560 C   0  0  0  0  0  0  0  0  0  0  0  0
   -3.6610   16.1150   -4.8830 O   0  0  0  0  0  0  0  0  0  0  0  0
   -2.3420   16.1220   -5.3620 C   0  0  2  0  0  0  0  0  0  0  0  0
   -1.6490   14.8620   -4.7760 C   0  0  2  0  0  0  0  0  0  0  0  0
   -1.6370   17.4410   -5.0170 C   0  0  0  0  0  0  0  0  0  0  0  0
   -2.4020   14.2830   -3.5760 C   0  0  0  0  0  0  0  0  0  0  0  0
   -0.1980   14.9640   -4.3420 C   0  0  2  0  0  0  0  0  0  0  0  0
   -0.1400   17.3810   -5.3000 C   0  0  0  0  0  0  0  0  0  0  0  0
    0.5120   16.3300   -4.4180 C   0  0  2  0  0  0  0  0  0  0  0  0
    0.7790   13.9660   -4.9580 C   0  0  2  0  0  0  0  0  0  0  0  0
   -2.7240   15.1250   -2.4190 N   0  0  0  0  0  0  0  0  0  0  0  0
    0.5780   12.4720   -4.6140 C   0  0  0  0  0  0  0  0  0  0  0  0
    1.8340   15.9680   -4.8720 N   0  0  0  0  0  0  0  0  0  0  0  0
    2.0070   14.5920   -4.3750 C   0  0  0  0  0  0  0  0  0  0  0  0
   -4.1920   15.1450   -2.4310 C   0  0  0  0  0  0  0  0  0  0  0  0
   -2.4350   14.5920   -1.0970 C   0  0  2  0  0  0  0  0  0  0  0  0
    0.3620   12.1240   -3.1130 C   0  0  1  0  0  0  0  0  0  0  0  0
   -4.6990   15.1270   -1.0730 N   0  0  0  0  0  0  0  0  0  0  0  0
   -3.4760   15.3290   -0.3040 C   0  0  1  0  0  0  0  0  0  0  0  0
   -1.1560   14.9540   -0.5060 N   0  0  0  0  0  0  0  0  0  0  0  0
    0.4210   10.7220   -2.9450 O   0  0  0  0  0  0  0  0  0  0  0  0
    1.4020   12.4900   -2.4090 O   0  0  0  0  0  0  0  0  0  0  0  0
   -3.4630   14.7780    1.1100 C   0  0  2  0  0  0  0  0  0  0  0  0
   -1.1060   14.2770    0.7610 C   0  0  1  0  0  0  0  0  0  0  0  0
   -4.2790   15.5930    2.0010 N   0  0  0  0  0  0  0  0  0  0  0  0
    0.0940   14.6720    1.3900 N   0  0  0  0  0  0  0  0  0  0  0  0
   -2.1350   14.7400    1.6680 N   0  0  0  0  0  0  0  0  0  0  0  0
  1  2  1  0
  3  2  1  1
  3  4  1  0
  3  5  1  0
  4  6  1  1
  4  7  1  0
  5  8  1  0
  7  9  1  0
  9  8  1  6
  7 10  1  6
  6 11  1  0
 10 12  1  1
  9 13  1  0
 10 14  1  0
 13 14  1  0
 11 15  1  0
 11 16  1  0
 12 17  1  0
 15 18  1  0
 16 19  1  0
 19 18  1  6
 16 20  1  1
 17 21  1  6
 17 22  1  0
 19 23  1  0
 20 24  1  0
 23 25  1  1
 24 26  1  1
 23 27  1  0
 24 27  1  0
M  CHG  1  22  -1
M  END
