ucsf109-ucsf274
     RDKit          3D

 30 34  0  0  0  0  0  0  0  0999 V2000
   -3.8700   15.3400    1.7720 N   0  0  0  0  0  0  0  0  0  0  0  0
   -4.7830   14.5930    0.8880 C   0  0  2  0  0  0  0  0  0  0  0  0
   -4.6370   14.9220   -0.5780 C   0  0  2  0  0  0  0  0  0  0  0  0
   -6.2040   14.8200    1.2150 N   0  0  0  0  0  0  0  0  0  0  0  0
   -7.1910   14.7860    0.1200 C   0  0  1  0  0  0  0  0  0  0  0  0
   -5.4810   13.9390   -1.3650 C   0  0  1  0  0  0  0  0  0  0  0  0
   -3.2700   14.8910   -1.2870 C   0  0  0  0  0  0  0  0  0  0  0  0
   -6.7280   13.7710    2.1220 N   0  0  0  0  0  0  0  0  0  0  0  0
   -6.8920   14.0850   -1.0940 N   0  0  0  0  0  0  0  0  0  0  0  0
   -4.9870   14.2390   -2.7670 C   0  0  0  0  0  0  0  0  0  0  0  0
   -3.5340   13.9150   -2.4510 C   0  0  1  0  0  0  0  0  0  0  0  0
   -8.4440   14.3170    0.7020 N   0  0  0  0  0  0  0  0  0  0  0  0
   -8.1270   14.1220    2.1180 C   0  0  0  0  0  0  0  0  0  0  0  0
   -2.5840   13.9070   -3.6420 C   0  0  0  0  0  0  0  0  0  0  0  0
   -2.1160   12.5530   -3.7800 O   0  0  0  0  0  0  0  0  0  0  0  0
   -2.0820   12.0760   -5.1310 C   0  0  1  0  0  0  0  0  0  0  0  0
   -0.7320   12.4260   -5.8820 C   0  0  1  0  0  0  0  0  0  0  0  0
   -2.4970   10.6530   -5.0950 N   0  0  0  0  0  0  0  0  0  0  0  0
    0.5200   12.4150   -4.9780 C   0  0  0  0  0  0  0  0  0  0  0  0
   -1.7200    9.6900   -5.9340 C   0  0  2  0  0  0  0  0  0  0  0  0
   -0.5740   11.6340   -7.1160 N   0  0  0  0  0  0  0  0  0  0  0  0
    0.4270   12.8980   -3.5130 C   0  0  0  0  0  0  0  0  0  0  0  0
   -0.5320   10.2260   -6.8090 C   0  0  2  0  0  0  0  0  0  0  0  0
   -2.7250    8.8840   -6.7600 C   0  0  0  0  0  0  0  0  0  0  0  0
    0.9560   12.0110   -2.3630 C   0  0  2  0  0  0  0  0  0  0  0  0
   -0.3120    9.4410   -8.1110 C   0  0  0  0  0  0  0  0  0  0  0  0
   -2.0680    7.7140   -7.4990 C   0  0  0  0  0  0  0  0  0  0  0  0
    0.4580   10.7720   -2.3390 O   0  0  0  0  0  0  0  0  0  0  0  0
    0.5090   12.5530   -1.1480 O   0  0  0  0  0  0  0  0  0  0  0  0
   -0.6230    7.9670   -7.9240 C   0  0  0  0  0  0  0  0  0  0  0  0
  2  1  1  1
  2  3  1  0
  2  4  1  0
  4  5  1  0
  3  6  1  0
  3  7  1  6
  4  8  1  0
  5  9  1  6
  6  9  1  0
  6 10  1  6
  7 11  1  0
 10 11  1  0
  5 12  1  0
  8 13  1  0
 12 13  1  0
 11 14  1  6
 14 15  1  0
 16 15  1  1
 16 17  1  0
 16 18  1  0
 17 19  1  1
 18 20  1  0
 17 21  1  0
 19 22  1  0
 20 23  1  0
 21 23  1  0
 20 24  1  6
 22 25  1  0
 23 26  1  6
 24 27  1  0
 25 28  1  6
 25 29  1  0
 26 30  1  0
 27 30  1  0
M  CHG  1  28  -1
M  END
