ucsf006-ucsf424
     RDKit          3D

 27 30  0  0  0  0  0  0  0  0999 V2000
   -2.1920   15.1200   -3.5600 C   0  0  0  0  0  0  0  0  0  0  0  0
   -1.0310   14.8180   -2.7310 N   0  0  0  0  0  0  0  0  0  0  0  0
    0.2800   15.0820   -3.4290 C   0  0  0  0  0  0  0  0  0  0  0  0
   -1.1090   15.2900   -1.3320 C   0  0  1  0  0  0  0  0  0  0  0  0
    0.5000   14.2060   -4.7110 C   0  0  0  0  0  0  0  0  0  0  0  0
   -2.4330   15.4850   -0.5580 C   0  0  2  0  0  0  0  0  0  0  0  0
   -0.2420   14.3940   -0.5530 N   0  0  0  0  0  0  0  0  0  0  0  0
    0.2490   12.6580   -4.5560 C   0  0  2  0  0  0  0  0  0  0  0  0
   -2.4350   14.7630    0.7510 C   0  0  1  0  0  0  0  0  0  0  0  0
   -0.0550   14.7140    0.8480 C   0  0  0  0  0  0  0  0  0  0  0  0
   -3.8180   15.1570   -1.0420 C   0  0  0  0  0  0  0  0  0  0  0  0
   -1.1340   12.5390   -4.2460 O   0  0  0  0  0  0  0  0  0  0  0  0
    1.0200   12.0410   -3.4460 N   0  0  0  0  0  0  0  0  0  0  0  0
   -1.2870   15.1300    1.4950 N   0  0  0  0  0  0  0  0  0  0  0  0
   -3.6350   15.2930    1.3770 N   0  0  0  0  0  0  0  0  0  0  0  0
   -4.6040   15.3750    0.2580 C   0  0  0  0  0  0  0  0  0  0  0  0
    0.3500   11.7470   -5.8700 C   0  0  2  0  0  0  0  0  0  0  0  0
    1.4340   12.9260   -2.4070 O   0  0  0  0  0  0  0  0  0  0  0  0
    0.0900   11.1700   -2.7480 O   0  0  0  0  0  0  0  0  0  0  0  0
    0.1460   12.1890   -7.2590 N   0  0  0  0  0  0  0  0  0  0  0  0
   -0.4420   10.4280   -5.8530 C   0  0  2  0  0  0  0  0  0  0  0  0
    0.3130   10.9580   -8.0440 O   0  0  0  0  0  0  0  0  0  0  0  0
   -0.1730    9.8730   -7.2510 C   0  0  2  0  0  0  0  0  0  0  0  0
   -1.9150   10.3890   -5.4440 C   0  0  0  0  0  0  0  0  0  0  0  0
   -1.3720    9.2790   -7.9750 C   0  0  0  0  0  0  0  0  0  0  0  0
   -2.7420    9.1750   -5.8530 C   0  0  0  0  0  0  0  0  0  0  0  0
   -2.2040    8.4030   -7.0440 C   0  0  0  0  0  0  0  0  0  0  0  0
  1  2  1  0
  2  3  1  0
  4  2  1  6
  3  5  1  0
  4  6  1  0
  4  7  1  0
  5  8  1  0
  6  9  1  0
  7 10  1  0
  6 11  1  6
  8 12  1  1
  8 13  1  0
  9 14  1  1
 10 14  1  0
  9 15  1  0
 11 16  1  0
 15 16  1  0
  8 17  1  0
 13 18  1  0
 13 19  1  0
 17 20  1  6
 17 21  1  0
 20 22  1  0
 21 23  1  0
 22 23  1  0
 21 24  1  6
 23 25  1  6
 24 26  1  0
 25 27  1  0
 26 27  1  0
M  CHG  1  18  -1
M  END
