ucsf336-ucsf123
     RDKit          3D

 22 23  0  0  0  0  0  0  0  0999 V2000
    1.9820   13.6900   -4.4060 O   0  0  0  0  0  0  0  0  0  0  0  0
    1.0530   13.0140   -3.7540 C   0  0  2  0  0  0  0  0  0  0  0  0
    1.8100   12.4900   -2.6760 O   0  0  0  0  0  0  0  0  0  0  0  0
    0.4530   11.7890   -4.5950 C   0  0  1  0  0  0  0  0  0  0  0  0
   -0.0060   13.9570   -3.1140 C   0  0  1  0  0  0  0  0  0  0  0  0
   -0.0460   10.7430   -3.7690 O   0  0  0  0  0  0  0  0  0  0  0  0
   -0.5940   12.1580   -5.5460 N   0  0  0  0  0  0  0  0  0  0  0  0
    0.5630   15.3770   -2.8940 C   0  0  0  0  0  0  0  0  0  0  0  0
   -1.4340   13.9140   -3.7210 C   0  0  0  0  0  0  0  0  0  0  0  0
   -1.2940   11.0530   -6.2110 C   0  0  0  0  0  0  0  0  0  0  0  0
    0.3590   16.3650   -4.0460 C   0  0  0  0  0  0  0  0  0  0  0  0
   -1.9140   15.1910   -4.3960 C   0  0  0  0  0  0  0  0  0  0  0  0
   -0.4450   10.3520   -7.2870 C   0  0  0  0  0  0  0  0  0  0  0  0
   -1.7660   10.0010   -5.1930 C   0  0  0  0  0  0  0  0  0  0  0  0
   -0.8040   16.0500   -4.9810 C   0  0  1  0  0  0  0  0  0  0  0  0
   -1.4680   17.5070   -5.7810 S   0  0  0  0  0  0  0  0  0  0  0  0
   -0.9740    8.9570   -7.6250 C   0  0  0  0  0  0  0  0  0  0  0  0
   -2.7540    9.0220   -5.8100 C   0  0  0  0  0  0  0  0  0  0  0  0
   -1.8630   18.8320   -4.9210 N   0  0  0  0  0  0  0  0  0  0  0  0
   -0.3340   17.9610   -6.7960 O   0  0  0  0  0  0  0  0  0  0  0  0
   -2.6850   17.0580   -6.7050 O   0  0  0  0  0  0  0  0  0  0  0  0
   -2.4630    8.8060   -7.2930 C   0  0  0  0  0  0  0  0  0  0  0  0
  2  1  1  6
  2  3  1  0
  2  4  1  0
  2  5  1  0
  4  6  1  1
  4  7  1  0
  5  8  1  6
  5  9  1  0
  7 10  1  0
  8 11  1  0
  9 12  1  0
 10 13  1  0
 10 14  1  0
 11 15  1  0
 12 15  1  0
 15 16  1  1
 13 17  1  0
 14 18  1  0
 16 19  1  0
 16 20  1  0
 16 21  1  0
 17 22  1  0
 18 22  1  0
M  CHG  1   1  -1
M  END
