ucsf367-ucsf357
     RDKit          3D

 23 24  0  0  0  0  0  0  0  0999 V2000
    0.6720   10.8670   -2.9260 O   0  0  0  0  0  0  0  0  0  0  0  0
    1.2110   12.0550   -3.1950 C   0  0  2  0  0  0  0  0  0  0  0  0
    0.7740   12.9020   -2.1170 O   0  0  0  0  0  0  0  0  0  0  0  0
    0.6270   12.5660   -4.5570 C   0  0  0  0  0  0  0  0  0  0  0  0
    0.7200   11.5310   -5.5730 O   0  0  0  0  0  0  0  0  0  0  0  0
    1.0980   14.2860   -2.2030 C   0  0  0  0  0  0  0  0  0  0  0  0
    0.0640   15.0660   -1.5820 O   0  0  0  0  0  0  0  0  0  0  0  0
   -0.5160   11.0300   -6.1020 C   0  0  0  0  0  0  0  0  0  0  0  0
   -0.3910    9.5480   -6.4760 C   0  0  0  0  0  0  0  0  0  0  0  0
   -1.6190   11.2130   -5.0480 C   0  0  0  0  0  0  0  0  0  0  0  0
   -1.1660   14.3410   -1.4430 C   0  0  2  0  0  0  0  0  0  0  0  0
   -1.6680    8.9450   -7.0430 C   0  0  0  0  0  0  0  0  0  0  0  0
   -2.7060   10.1320   -5.0680 C   0  0  0  0  0  0  0  0  0  0  0  0
   -2.0940   14.4880   -2.6850 C   0  0  2  0  0  0  0  0  0  0  0  0
   -1.7830   14.6480   -0.0520 C   0  0  0  0  0  0  0  0  0  0  0  0
   -1.5020   15.2560   -3.6500 F   0  0  0  0  0  0  0  0  0  0  0  0
   -2.9430    9.5370   -6.4450 C   0  0  0  0  0  0  0  0  0  0  0  0
   -3.4820   15.0530   -2.4440 C   0  0  0  0  0  0  0  0  0  0  0  0
   -3.2910   14.9700   -0.0020 C   0  0  0  0  0  0  0  0  0  0  0  0
   -4.0790   14.4150   -1.2040 C   0  0  1  0  0  0  0  0  0  0  0  0
   -5.6100   14.5830   -1.0620 C   0  0  2  0  0  0  0  0  0  0  0  0
   -6.0510   15.3670   -2.0110 O   0  0  0  0  0  0  0  0  0  0  0  0
   -5.9320   15.2870    0.1110 O   0  0  0  0  0  0  0  0  0  0  0  0
  2  1  1  1
  2  3  1  0
  2  4  1  0
  4  5  1  0
  3  6  1  0
  6  7  1  0
  5  8  1  0
  8  9  1  0
  8 10  1  0
 11  7  1  6
  9 12  1  0
 10 13  1  0
 11 14  1  0
 11 15  1  0
 14 16  1  6
 12 17  1  0
 13 17  1  0
 14 18  1  0
 15 19  1  0
 20 18  1  6
 19 20  1  0
 20 21  1  0
 21 22  1  6
 21 23  1  0
M  CHG  2   1  -1  22  -1
M  END
