ucsf248-ucsf151
     RDKit          3D

 24 26  0  0  0  0  0  0  0  0999 V2000
   -8.3500   12.3720    2.6620 N   0  0  0  0  0  0  0  0  0  0  0  0
   -8.5030   13.9310    2.1700 S   0  0  0  0  0  0  0  0  0  0  0  0
   -8.3680   14.9310    3.4170 O   0  0  0  0  0  0  0  0  0  0  0  0
   -9.9500   14.2430    1.5530 O   0  0  0  0  0  0  0  0  0  0  0  0
   -7.3410   14.6790    1.0210 C   0  0  1  0  0  0  0  0  0  0  0  0
   -5.9890   14.9230    1.5840 N   0  0  0  0  0  0  0  0  0  0  0  0
   -7.1390   14.0790   -0.2930 N   0  0  0  0  0  0  0  0  0  0  0  0
   -5.0850   14.5340    0.5130 C   0  0  1  0  0  0  0  0  0  0  0  0
   -5.9830   14.8900   -0.6520 C   0  0  1  0  0  0  0  0  0  0  0  0
   -3.6720   15.1310    0.4750 C   0  0  0  0  0  0  0  0  0  0  0  0
   -5.3100   14.6790   -1.9800 C   0  0  0  0  0  0  0  0  0  0  0  0
   -3.0420   14.8350   -0.8810 C   0  0  0  0  0  0  0  0  0  0  0  0
   -3.9680   15.4230   -1.9590 C   0  0  1  0  0  0  0  0  0  0  0  0
   -3.3560   15.6560   -3.3500 C   0  0  0  0  0  0  0  0  0  0  0  0
   -2.2090   14.9070   -4.0100 C   0  0  1  0  0  0  0  0  0  0  0  0
   -1.4670   13.7300   -3.2790 C   0  0  2  0  0  0  0  0  0  0  0  0
   -2.8190   14.5810   -5.3780 C   0  0  1  0  0  0  0  0  0  0  0  0
   -0.2370   14.0090   -2.3400 C   0  0  1  0  0  0  0  0  0  0  0  0
   -2.8360   15.7330   -6.2230 O   0  0  0  0  0  0  0  0  0  0  0  0
   -2.4100   13.2910   -6.0790 C   0  0  0  0  0  0  0  0  0  0  0  0
   -1.3160   12.4460   -4.1090 C   0  0  0  0  0  0  0  0  0  0  0  0
    0.5300   12.9560   -2.1600 O   0  0  0  0  0  0  0  0  0  0  0  0
    0.6520   14.9550   -2.8980 O   0  0  0  0  0  0  0  0  0  0  0  0
   -1.2020   12.6990   -5.5520 N   0  0  0  0  0  0  0  0  0  0  0  0
  1  2  1  0
  2  3  1  0
  2  4  1  0
  5  2  1  1
  5  6  1  0
  5  7  1  0
  6  8  1  0
  7  9  1  0
  8  9  1  0
  8 10  1  6
  9 11  1  6
 10 12  1  0
 11 13  1  0
 12 13  1  0
 13 14  1  6
 15 14  1  1
 15 16  1  0
 15 17  1  0
 16 18  1  0
 17 19  1  6
 17 20  1  0
 16 21  1  6
 18 22  1  6
 18 23  1  0
 20 24  1  0
 21 24  1  0
M  CHG  1  22  -1
M  END
