ucsf241-ucsf422
     RDKit          3D

 24 27  0  0  0  0  0  0  0  0999 V2000
    0.3040   11.0790   -2.6070 O   0  0  0  0  0  0  0  0  0  0  0  0
    0.4020   12.3790   -2.8560 C   0  0  1  0  0  0  0  0  0  0  0  0
    1.4710   12.9200   -2.0560 O   0  0  0  0  0  0  0  0  0  0  0  0
    0.8030   12.5560   -4.3560 C   0  0  0  0  0  0  0  0  0  0  0  0
    1.1410   14.1080   -1.3150 C   0  0  0  0  0  0  0  0  0  0  0  0
    1.0250   14.0010   -4.8410 C   0  0  2  0  0  0  0  0  0  0  0  0
   -0.1910   13.9770   -0.5610 C   0  0  2  0  0  0  0  0  0  0  0  0
    1.7730   14.8690   -3.8470 C   0  0  0  0  0  0  0  0  0  0  0  0
   -0.1810   14.8990   -5.1300 C   0  0  2  0  0  0  0  0  0  0  0  0
   -1.3250   14.6820   -1.3080 C   0  0  0  0  0  0  0  0  0  0  0  0
   -0.1520   14.3780    0.9460 C   0  0  0  0  0  0  0  0  0  0  0  0
    1.6320   16.2480   -4.3290 N   0  0  0  0  0  0  0  0  0  0  0  0
    0.4820   16.2980   -5.2110 C   0  0  2  0  0  0  0  0  0  0  0  0
   -1.4250   14.9150   -4.2640 C   0  0  0  0  0  0  0  0  0  0  0  0
   -2.5860   14.6320   -0.5140 C   0  0  2  0  0  0  0  0  0  0  0  0
   -1.4560   14.5600    1.6240 N   0  0  0  0  0  0  0  0  0  0  0  0
   -0.4440   17.4710   -4.9090 C   0  0  0  0  0  0  0  0  0  0  0  0
   -2.4700   15.9430   -4.7400 C   0  0  2  0  0  0  0  0  0  0  0  0
   -3.8080   15.1380   -5.9340 Br  0  0  0  0  0  0  0  0  0  0  0  0
   -3.8370   15.2800   -1.0400 C   0  0  0  0  0  0  0  0  0  0  0  0
   -2.3410   15.3060    0.7900 C   0  0  2  0  0  0  0  0  0  0  0  0
   -1.8650   17.1860   -5.3880 C   0  0  0  0  0  0  0  0  0  0  0  0
   -4.6220   15.5060    0.2390 C   0  0  0  0  0  0  0  0  0  0  0  0
   -3.6680   15.4330    1.3630 N   0  0  0  0  0  0  0  0  0  0  0  0
  2  1  1  1
  2  3  1  0
  2  4  1  0
  3  5  1  0
  6  4  1  1
  7  5  1  6
  6  8  1  0
  6  9  1  0
  7 10  1  0
  7 11  1  0
  8 12  1  0
  9 13  1  0
 12 13  1  0
  9 14  1  1
 15 10  1  6
 11 16  1  0
 13 17  1  1
 14 18  1  0
 18 19  1  6
 15 20  1  0
 15 21  1  0
 21 16  1  1
 17 22  1  0
 18 22  1  0
 20 23  1  0
 21 24  1  0
 23 24  1  0
M  CHG  1   1  -1
M  END
