ucsf110-ucsf006
     RDKit          3D

 21 24  0  0  0  0  0  0  0  0999 V2000
    0.3630   15.3500   -3.2470 C   0  0  1  0  0  0  0  0  0  0  0  0
    0.3090   14.3220   -2.2740 N   0  0  0  0  0  0  0  0  0  0  0  0
   -0.9070   13.6340   -2.6660 C   0  0  0  0  0  0  0  0  0  0  0  0
    0.2450   14.8210   -4.6880 C   0  0  0  0  0  0  0  0  0  0  0  0
   -0.8530   16.0630   -2.7780 N   0  0  0  0  0  0  0  0  0  0  0  0
    0.8080   13.4140   -4.9150 C   0  0  2  0  0  0  0  0  0  0  0  0
   -2.0380   15.7420   -3.5040 C   0  0  0  0  0  0  0  0  0  0  0  0
   -1.0140   15.7670   -1.3980 C   0  0  2  0  0  0  0  0  0  0  0  0
    0.1560   15.1230   -1.1290 N   0  0  0  0  0  0  0  0  0  0  0  0
   -0.1920   12.5540   -5.3640 O   0  0  0  0  0  0  0  0  0  0  0  0
    1.3260   12.8400   -3.7260 O   0  0  0  0  0  0  0  0  0  0  0  0
   -3.0030   15.4050   -2.4360 C   0  0  0  0  0  0  0  0  0  0  0  0
   -2.2320   14.9400   -1.3270 C   0  0  2  0  0  0  0  0  0  0  0  0
   -0.2770   14.5800    0.1500 C   0  0  0  0  0  0  0  0  0  0  0  0
   -2.9990   14.9080    0.2800 S   0  0  0  0  0  0  0  0  0  0  0  0
   -1.2790   15.3270    0.5610 N   0  0  0  0  0  0  0  0  0  0  0  0
   -4.5090   15.3880   -0.7330 N   0  0  0  0  0  0  0  0  0  0  0  0
   -3.4510   13.7210    1.6260 N   0  0  0  0  0  0  0  0  0  0  0  0
   -3.7250   15.6650    1.6050 C   0  0  0  0  0  0  0  0  0  0  0  0
   -5.1230   15.1650    1.4370 C   0  0  0  0  0  0  0  0  0  0  0  0
   -4.8280   13.7910    1.2330 C   0  0  0  0  0  0  0  0  0  0  0  0
  1  2  1  0
  2  3  1  0
  1  4  1  6
  1  5  1  0
  4  6  1  0
  5  7  1  0
  8  5  1  6
  2  9  1  0
  8  9  1  0
  6 10  1  1
  6 11  1  0
  7 12  1  0
  8 13  1  0
 13 12  1  6
  9 14  1  0
 13 15  1  0
 14 16  1  0
 15 16  1  0
 15 17  1  0
 15 18  1  0
 15 19  1  0
 19 20  1  0
 18 21  1  0
 20 21  1  0
M  CHG  1  11  -1
M  END
