ucsf348-ucsf224
     RDKit          3D

 26 28  0  0  0  0  0  0  0  0999 V2000
   -6.9610   14.3310    2.3290 N   0  0  0  0  0  0  0  0  0  0  0  0
   -6.0210   14.7660    1.3450 C   0  0  1  0  0  0  0  0  0  0  0  0
   -5.0400   13.7550    1.2740 N   0  0  0  0  0  0  0  0  0  0  0  0
   -6.7630   14.7720    0.1320 N   0  0  0  0  0  0  0  0  0  0  0  0
   -5.9410   15.2600   -0.9680 C   0  0  2  0  0  0  0  0  0  0  0  0
   -3.9950   14.1200    0.3140 C   0  0  1  0  0  0  0  0  0  0  0  0
   -6.3640   14.5150   -2.0860 O   0  0  0  0  0  0  0  0  0  0  0  0
   -4.4000   15.1610   -0.7460 C   0  0  1  0  0  0  0  0  0  0  0  0
   -2.7490   14.6610    0.9720 C   0  0  0  0  0  0  0  0  0  0  0  0
   -1.6010   14.5970   -0.0360 C   0  0  0  0  0  0  0  0  0  0  0  0
   -3.3910   15.0880   -1.9370 C   0  0  2  0  0  0  0  0  0  0  0  0
   -3.8580   14.4310   -3.2470 C   0  0  0  0  0  0  0  0  0  0  0  0
   -1.9920   14.5690   -1.5300 C   0  0  0  0  0  0  0  0  0  0  0  0
   -3.7710   15.3500   -4.4760 C   0  0  0  0  0  0  0  0  0  0  0  0
   -2.6870   15.2550   -5.5520 C   0  0  0  0  0  0  0  0  0  0  0  0
   -1.2120   15.2920   -5.1110 C   0  0  2  0  0  0  0  0  0  0  0  0
   -0.9560   14.6530   -3.7580 C   0  0  0  0  0  0  0  0  0  0  0  0
   -0.4660   16.6670   -5.2520 C   0  0  1  0  0  0  0  0  0  0  0  0
   -1.4560   18.1560   -5.0770 Cl  0  0  0  0  0  0  0  0  0  0  0  0
    0.5520   14.3830   -3.5200 C   0  0  1  0  0  0  0  0  0  0  0  0
    0.7630   16.7330   -4.3540 C   0  0  0  0  0  0  0  0  0  0  0  0
    0.8240   12.8580   -3.6920 C   0  0  0  0  0  0  0  0  0  0  0  0
    1.4230   15.3630   -4.3280 C   0  0  0  0  0  0  0  0  0  0  0  0
    1.0130   12.0380   -2.3790 C   0  0  2  0  0  0  0  0  0  0  0  0
    0.4100   10.8480   -2.4180 O   0  0  0  0  0  0  0  0  0  0  0  0
    0.3580   12.7040   -1.2990 O   0  0  0  0  0  0  0  0  0  0  0  0
  2  1  1  1
  2  3  1  0
  2  4  1  0
  4  5  1  0
  3  6  1  0
  5  7  1  6
  8  5  1  6
  6  8  1  0
  6  9  1  1
  9 10  1  0
  8 11  1  0
 11 12  1  6
 10 13  1  0
 11 13  1  0
 12 14  1  0
 14 15  1  0
 16 15  1  1
 16 17  1  0
 16 18  1  0
 18 19  1  1
 17 20  1  0
 18 21  1  0
 20 22  1  6
 20 23  1  0
 21 23  1  0
 22 24  1  0
 24 25  1  6
 24 26  1  0
M  CHG  1  25  -1
M  END
