ucsf338-ucsf173
     RDKit          3D

 25 27  0  0  0  0  0  0  0  0999 V2000
   -8.8870   14.3750   -0.1520 O   0  0  0  0  0  0  0  0  0  0  0  0
   -7.4680   14.2530    0.2160 N   0  0  0  0  0  0  0  0  0  0  0  0
   -6.6610   15.0400   -0.7360 C   0  0  2  0  0  0  0  0  0  0  0  0
   -6.7490   14.4210   -2.0040 O   0  0  0  0  0  0  0  0  0  0  0  0
   -5.2130   15.2880   -0.2140 C   0  0  2  0  0  0  0  0  0  0  0  0
   -4.0500   14.7170   -1.0840 C   0  0  1  0  0  0  0  0  0  0  0  0
   -4.9700   14.8470    1.2550 C   0  0  0  0  0  0  0  0  0  0  0  0
   -4.2680   14.9470   -2.4940 O   0  0  0  0  0  0  0  0  0  0  0  0
   -2.6950   15.3030   -0.6600 C   0  0  0  0  0  0  0  0  0  0  0  0
   -3.5050   14.8430    1.6700 C   0  0  0  0  0  0  0  0  0  0  0  0
   -4.1030   13.7520   -3.3100 C   0  0  0  0  0  0  0  0  0  0  0  0
   -2.7130   15.7730    0.7850 C   0  0  0  0  0  0  0  0  0  0  0  0
   -2.6550   13.5820   -3.8290 C   0  0  0  0  0  0  0  0  0  0  0  0
   -1.5290   14.4910   -3.3010 C   0  0  1  0  0  0  0  0  0  0  0  0
   -0.0310   14.0310   -3.0950 C   0  0  1  0  0  0  0  0  0  0  0  0
   -1.3620   15.8970   -3.9610 C   0  0  1  0  0  0  0  0  0  0  0  0
    0.3860   12.6100   -2.5870 C   0  0  1  0  0  0  0  0  0  0  0  0
    0.1420   16.1650   -4.0800 C   0  0  1  0  0  0  0  0  0  0  0  0
    0.7660   14.7660   -4.1950 C   0  0  0  0  0  0  0  0  0  0  0  0
   -2.2430   16.3430   -5.1320 C   0  0  0  0  0  0  0  0  0  0  0  0
    0.4060   12.5570   -1.2640 O   0  0  0  0  0  0  0  0  0  0  0  0
   -0.5920   11.6500   -2.9780 O   0  0  0  0  0  0  0  0  0  0  0  0
   -1.8380   17.6470   -5.8290 C   0  0  0  0  0  0  0  0  0  0  0  0
    0.5500   17.1750   -5.1380 C   0  0  0  0  0  0  0  0  0  0  0  0
   -0.5240   18.2260   -5.3270 C   0  0  0  0  0  0  0  0  0  0  0  0
  1  2  1  0
  2  3  1  0
  3  4  1  6
  3  5  1  0
  5  6  1  0
  5  7  1  1
  6  8  1  6
  6  9  1  0
  7 10  1  0
  8 11  1  0
  9 12  1  0
 10 12  1  0
 11 13  1  0
 14 13  1  6
 14 15  1  0
 14 16  1  0
 15 17  1  0
 16 18  1  0
 15 19  1  6
 18 19  1  6
 16 20  1  6
 17 21  1  1
 17 22  1  0
 20 23  1  0
 18 24  1  0
 23 25  1  0
 24 25  1  0
M  CHG  1  21  -1
M  END
