ucsf424-ucsf365
     RDKit          3D

 20 22  0  0  0  0  0  0  0  0999 V2000
    1.1720   13.0730   -2.5590 O   0  0  0  0  0  0  0  0  0  0  0  0
    1.1350   12.1820   -3.5170 C   0  0  1  0  0  0  0  0  0  0  0  0
    0.7970   11.0380   -2.7670 O   0  0  0  0  0  0  0  0  0  0  0  0
   -0.0630   12.3350   -4.4780 C   0  0  2  0  0  0  0  0  0  0  0  0
    0.0650   12.0780   -6.0510 C   0  0  1  0  0  0  0  0  0  0  0  0
   -1.0720   13.5020   -4.1890 C   0  0  2  0  0  0  0  0  0  0  0  0
    1.3250   11.6750   -6.7290 N   0  0  0  0  0  0  0  0  0  0  0  0
   -0.9820   11.0950   -6.6160 C   0  0  1  0  0  0  0  0  0  0  0  0
   -2.5300   13.0960   -4.4180 C   0  0  2  0  0  0  0  0  0  0  0  0
   -0.8430   14.8440   -4.9330 C   0  0  0  0  0  0  0  0  0  0  0  0
   -2.7890   11.7560   -4.0540 O   0  0  0  0  0  0  0  0  0  0  0  0
    1.0250   10.5100   -7.5760 O   0  0  0  0  0  0  0  0  0  0  0  0
   -0.1560    9.9230   -7.0460 C   0  0  2  0  0  0  0  0  0  0  0  0
   -2.0330   10.4970   -5.6610 C   0  0  0  0  0  0  0  0  0  0  0  0
   -3.1100   13.4400   -5.7790 C   0  0  0  0  0  0  0  0  0  0  0  0
   -2.1120   15.6760   -5.2150 C   0  0  0  0  0  0  0  0  0  0  0  0
   -0.8790    9.0400   -8.0520 C   0  0  0  0  0  0  0  0  0  0  0  0
   -2.3900    9.0470   -6.0270 C   0  0  0  0  0  0  0  0  0  0  0  0
   -3.2380   14.9360   -5.9340 C   0  0  0  0  0  0  0  0  0  0  0  0
   -2.2700    8.7140   -7.5160 C   0  0  0  0  0  0  0  0  0  0  0  0
  2  1  1  1
  2  3  1  0
  4  2  1  6
  4  5  1  0
  4  6  1  0
  5  7  1  1
  5  8  1  0
  6  9  1  0
  6 10  1  6
  9 11  1  6
  7 12  1  0
  8 13  1  0
 12 13  1  0
  8 14  1  1
  9 15  1  0
 10 16  1  0
 13 17  1  6
 14 18  1  0
 15 19  1  0
 16 19  1  0
 17 20  1  0
 18 20  1  0
M  CHG  1   1  -1
M  END
