ucsf012-ucsf424
     RDKit          3D

 31 35  0  0  0  0  0  0  0  0999 V2000
   -3.5060   15.2980   -4.0290 C   0  0  0  0  0  0  0  0  0  0  0  0
   -3.1050   14.6800   -2.7020 C   0  0  2  0  0  0  0  0  0  0  0  0
   -3.8070   15.2680   -1.4700 C   0  0  1  0  0  0  0  0  0  0  0  0
   -1.7300   14.9760   -2.3280 N   0  0  0  0  0  0  0  0  0  0  0  0
   -5.3160   15.0770   -1.4790 C   0  0  0  0  0  0  0  0  0  0  0  0
   -0.7730   14.5840   -3.3320 C   0  0  0  0  0  0  0  0  0  0  0  0
   -2.9510   14.6160   -0.3720 C   0  0  1  0  0  0  0  0  0  0  0  0
   -1.5790   14.3790   -1.0110 C   0  0  2  0  0  0  0  0  0  0  0  0
   -2.7470   15.2450    0.9800 C   0  0  1  0  0  0  0  0  0  0  0  0
   -0.5100   14.9920   -0.2490 N   0  0  0  0  0  0  0  0  0  0  0  0
   -0.4750   13.0840   -3.3710 C   0  0  1  0  0  0  0  0  0  0  0  0
   -3.9790   15.3420    1.7260 N   0  0  0  0  0  0  0  0  0  0  0  0
   -1.7510   14.5680    1.7460 N   0  0  0  0  0  0  0  0  0  0  0  0
   -0.4630   14.4380    1.0770 C   0  0  0  0  0  0  0  0  0  0  0  0
   -0.0240   12.4150   -2.0880 C   0  0  0  0  0  0  0  0  0  0  0  0
   -1.5630   12.2590   -3.8610 O   0  0  0  0  0  0  0  0  0  0  0  0
   -1.3500   10.9700   -3.2350 C   0  0  0  0  0  0  0  0  0  0  0  0
    0.0410   11.0570   -2.6670 C   0  0  1  0  0  0  0  0  0  0  0  0
    0.9080   11.0160   -3.7350 O   0  0  0  0  0  0  0  0  0  0  0  0
    1.5220   12.2770   -4.0520 C   0  0  2  0  0  0  0  0  0  0  0  0
    1.6440   12.9960   -2.9560 O   0  0  0  0  0  0  0  0  0  0  0  0
    0.5920   12.9100   -5.1380 C   0  0  0  0  0  0  0  0  0  0  0  0
    0.1490   11.9940   -6.3080 C   0  0  1  0  0  0  0  0  0  0  0  0
    1.2940   11.5410   -7.1020 N   0  0  0  0  0  0  0  0  0  0  0  0
   -0.5590   10.6570   -5.9860 C   0  0  2  0  0  0  0  0  0  0  0  0
    0.7090   10.5340   -7.9810 O   0  0  0  0  0  0  0  0  0  0  0  0
   -0.1560    9.7560   -7.1450 C   0  0  2  0  0  0  0  0  0  0  0  0
   -2.0830   10.7770   -5.9180 C   0  0  0  0  0  0  0  0  0  0  0  0
   -1.3010    9.1410   -7.9220 C   0  0  0  0  0  0  0  0  0  0  0  0
   -2.7670    9.4170   -5.8560 C   0  0  0  0  0  0  0  0  0  0  0  0
   -2.3870    8.5300   -7.0460 C   0  0  0  0  0  0  0  0  0  0  0  0
  2  1  1  6
  2  3  1  0
  2  4  1  0
  3  5  1  1
  4  6  1  0
  3  7  1  0
  4  8  1  0
  7  8  1  0
  7  9  1  1
  8 10  1  1
 11  6  1  1
  9 12  1  1
  9 13  1  0
 10 14  1  0
 13 14  1  0
 11 15  1  0
 11 16  1  0
 16 17  1  0
 15 18  1  0
 17 18  1  0
 18 19  1  6
 19 20  1  0
 20 21  1  1
 20 22  1  0
 23 22  1  1
 23 24  1  0
 23 25  1  0
 24 26  1  0
 25 27  1  0
 26 27  1  0
 25 28  1  6
 27 29  1  6
 28 30  1  0
 29 31  1  0
 30 31  1  0
M  CHG  1  21  -1
M  END
