ucsf243-ucsf247
     RDKit          3D

 22 23  0  0  0  0  0  0  0  0999 V2000
   -4.3830   12.9490   -0.1280 C   0  0  0  0  0  0  0  0  0  0  0  0
   -4.1120   12.8180   -1.6370 C   0  0  1  0  0  0  0  0  0  0  0  0
   -4.7300   13.9680   -2.4740 C   0  0  0  0  0  0  0  0  0  0  0  0
   -2.6020   12.6840   -1.8670 C   0  0  0  0  0  0  0  0  0  0  0  0
   -2.0310   13.9490   -2.4960 C   0  0  1  0  0  0  0  0  0  0  0  0
   -4.1600   14.0940   -3.8950 C   0  0  0  0  0  0  0  0  0  0  0  0
   -0.5760   14.2980   -2.1540 C   0  0  2  0  0  0  0  0  0  0  0  0
   -2.6310   14.2290   -3.8990 C   0  0  2  0  0  0  0  0  0  0  0  0
   -2.1080   13.4790   -4.9910 O   0  0  0  0  0  0  0  0  0  0  0  0
    0.1250   14.6920   -3.3610 O   0  0  0  0  0  0  0  0  0  0  0  0
    0.1070   13.3670   -1.5070 O   0  0  0  0  0  0  0  0  0  0  0  0
   -0.7670   15.4520   -1.3390 N   0  0  0  0  0  0  0  0  0  0  0  0
    1.3740   13.9100   -3.4270 O   0  0  0  0  0  0  0  0  0  0  0  0
   -2.1450   15.9310   -1.1940 C   0  0  1  0  0  0  0  0  0  0  0  0
   -2.5210   16.3250   -2.5250 O   0  0  0  0  0  0  0  0  0  0  0  0
   -3.2740   15.0430   -0.5980 C   0  0  2  0  0  0  0  0  0  0  0  0
   -4.7270   15.5070   -0.9960 C   0  0  0  0  0  0  0  0  0  0  0  0
   -3.1010   14.9960    0.9350 C   0  0  0  0  0  0  0  0  0  0  0  0
   -5.9120   15.0020   -0.1470 C   0  0  1  0  0  0  0  0  0  0  0  0
   -4.2770   15.6050    1.6550 C   0  0  0  0  0  0  0  0  0  0  0  0
   -6.4390   13.7810   -0.6710 O   0  0  0  0  0  0  0  0  0  0  0  0
   -5.5510   14.8340    1.3310 C   0  0  0  0  0  0  0  0  0  0  0  0
  2  1  1  1
  2  3  1  0
  2  4  1  0
  5  4  1  6
  3  6  1  0
  5  7  1  0
  5  8  1  0
  6  8  1  0
  8  9  1  6
  7 10  1  0
  7 11  1  1
  7 12  1  0
 10 13  1  0
 12 14  1  0
 14 15  1  6
 14 16  1  0
 16 17  1  1
 16 18  1  0
 17 19  1  0
 18 20  1  0
 19 21  1  6
 19 22  1  0
 20 22  1  0
M  CHG  1  11  -1
M  END
