ucsf260-ucsf584
     RDKit          3D

 28 31  0  0  0  0  0  0  0  0999 V2000
    0.8440   11.0640   -2.6830 O   0  0  0  0  0  0  0  0  0  0  0  0
    0.5550   12.3220   -2.9650 C   0  0  1  0  0  0  0  0  0  0  0  0
    1.0630   13.1190   -1.8910 O   0  0  0  0  0  0  0  0  0  0  0  0
    1.2870   12.7780   -4.2630 C   0  0  0  0  0  0  0  0  0  0  0  0
    0.3400   13.2020   -5.4170 C   0  0  0  0  0  0  0  0  0  0  0  0
    0.0160   13.6630   -1.0780 C   0  0  0  0  0  0  0  0  0  0  0  0
   -0.3450   15.0770   -1.5660 C   0  0  0  0  0  0  0  0  0  0  0  0
   -0.6830   12.2470   -5.8790 N   0  0  0  0  0  0  0  0  0  0  0  0
   -1.6220   15.0850   -2.4320 C   0  0  0  0  0  0  0  0  0  0  0  0
   -1.6920   11.8730   -4.9020 C   0  0  0  0  0  0  0  0  0  0  0  0
   -0.2120   10.9670   -6.3410 C   0  0  1  0  0  0  0  0  0  0  0  0
   -2.3760   10.6890   -5.4790 N   0  0  0  0  0  0  0  0  0  0  0  0
   -1.5550   10.3460   -6.6490 C   0  0  2  0  0  0  0  0  0  0  0  0
    0.6660   10.9680   -7.5830 C   0  0  0  0  0  0  0  0  0  0  0  0
   -2.9000   14.8120   -1.7350 N   0  0  0  0  0  0  0  0  0  0  0  0
   -1.4180    8.8540   -6.9300 C   0  0  0  0  0  0  0  0  0  0  0  0
    0.5520    9.6740   -8.4070 C   0  0  0  0  0  0  0  0  0  0  0  0
   -2.8630   15.3620   -0.3700 C   0  0  0  0  0  0  0  0  0  0  0  0
   -4.1120   15.1640   -2.5010 C   0  0  0  0  0  0  0  0  0  0  0  0
   -0.1190    8.5070   -7.6840 C   0  0  0  0  0  0  0  0  0  0  0  0
   -4.1180   15.1430    0.4770 C   0  0  0  0  0  0  0  0  0  0  0  0
   -5.3920   15.2250   -1.6590 C   0  0  0  0  0  0  0  0  0  0  0  0
   -5.2080   14.4490   -0.3450 C   0  0  0  0  0  0  0  0  0  0  0  0
   -6.5400   14.1880    0.4160 C   0  0  0  0  0  0  0  0  0  0  0  0
   -6.4950   14.6740    1.7850 N   0  0  0  0  0  0  0  0  0  0  0  0
   -7.7090   14.8680   -0.1090 N   0  0  0  0  0  0  0  0  0  0  0  0
   -8.7070   14.7250    0.9570 C   0  0  0  0  0  0  0  0  0  0  0  0
   -7.8880   14.6410    2.2360 C   0  0  0  0  0  0  0  0  0  0  0  0
  2  1  1  1
  2  3  1  0
  2  4  1  0
  4  5  1  0
  3  6  1  0
  6  7  1  0
  5  8  1  0
  7  9  1  0
  8 10  1  0
  8 11  1  0
 10 12  1  0
 11 13  1  0
 12 13  1  0
 11 14  1  6
  9 15  1  0
 13 16  1  1
 14 17  1  0
 15 18  1  0
 15 19  1  0
 16 20  1  0
 17 20  1  0
 18 21  1  0
 19 22  1  0
 21 23  1  0
 22 23  1  0
 23 24  1  0
 24 25  1  0
 24 26  1  0
 26 27  1  0
 25 28  1  0
 27 28  1  0
M  CHG  1   1  -1
M  END
