ucsf303-ucsf264
     RDKit          3D

 34 37  0  0  0  0  0  0  0  0999 V2000
   -2.8530   14.0760   -3.2650 O   0  0  0  0  0  0  0  0  0  0  0  0
   -3.9060   14.4380   -2.1180 S   0  0  0  0  0  0  0  0  0  0  0  0
   -4.8570   15.5240   -2.7820 O   0  0  0  0  0  0  0  0  0  0  0  0
   -4.7550   13.1750   -1.5050 N   0  0  0  0  0  0  0  0  0  0  0  0
   -3.0150   15.3370   -0.8920 C   0  0  0  0  0  0  0  0  0  0  0  0
   -5.5680   12.2580   -2.2270 C   0  0  2  0  0  0  0  0  0  0  0  0
   -1.8470   14.5210   -0.3240 C   0  0  0  0  0  0  0  0  0  0  0  0
   -3.9870   15.8520    0.1750 C   0  0  0  0  0  0  0  0  0  0  0  0
   -5.8310   11.1440   -1.3250 N   0  0  0  0  0  0  0  0  0  0  0  0
   -4.6920   11.5180   -3.6020 S   0  0  0  0  0  0  0  0  0  0  0  0
   -1.6470   14.7630    1.1650 C   0  0  0  0  0  0  0  0  0  0  0  0
   -4.2140   14.8090    1.2360 C   0  0  0  0  0  0  0  0  0  0  0  0
   -3.8780   10.3170   -2.5280 C   0  0  2  0  0  0  0  0  0  0  0  0
   -4.6660   10.2330   -1.2670 N   0  0  0  0  0  0  0  0  0  0  0  0
   -2.9290   14.4910    1.9530 C   0  0  0  0  0  0  0  0  0  0  0  0
   -2.4510   10.8580   -2.4150 C   0  0  0  0  0  0  0  0  0  0  0  0
   -1.9790   11.4500   -3.7400 C   0  0  0  0  0  0  0  0  0  0  0  0
   -1.7570   10.4900   -4.9310 C   0  0  2  0  0  0  0  0  0  0  0  0
   -0.5030   10.7050   -5.7970 C   0  0  2  0  0  0  0  0  0  0  0  0
   -2.9660   10.0340   -5.7560 C   0  0  0  0  0  0  0  0  0  0  0  0
    0.1390   12.0050   -6.0480 N   0  0  0  0  0  0  0  0  0  0  0  0
   -0.7500   10.3850   -7.2910 C   0  0  1  0  0  0  0  0  0  0  0  0
   -2.6250    8.7800   -6.5810 C   0  0  0  0  0  0  0  0  0  0  0  0
    0.6380   12.8270   -4.9160 C   0  0  0  0  0  0  0  0  0  0  0  0
    1.1620   11.7270   -7.0490 N   0  0  0  0  0  0  0  0  0  0  0  0
    0.6920   10.5340   -7.7900 C   0  0  2  0  0  0  0  0  0  0  0  0
   -1.4560    9.0260   -7.5290 C   0  0  0  0  0  0  0  0  0  0  0  0
    1.1880   12.2640   -3.5280 C   0  0  1  0  0  0  0  0  0  0  0  0
    0.9870   10.2800   -9.2770 C   0  0  0  0  0  0  0  0  0  0  0  0
    0.8740   12.9570   -2.4570 O   0  0  0  0  0  0  0  0  0  0  0  0
    0.5590   11.0180   -3.2460 O   0  0  0  0  0  0  0  0  0  0  0  0
    1.6860    9.1450   -9.4850 F   0  0  0  0  0  0  0  0  0  0  0  0
   -0.1460   10.1760  -10.0000 F   0  0  0  0  0  0  0  0  0  0  0  0
    1.6670   11.2780   -9.8740 F   0  0  0  0  0  0  0  0  0  0  0  0
  2  1  1  0
  2  3  1  0
  2  4  1  0
  2  5  1  0
  6  4  1  1
  5  7  1  0
  5  8  1  0
  6  9  1  0
  6 10  1  0
  7 11  1  0
  8 12  1  0
 10 13  1  0
  9 14  1  0
 13 14  1  0
 11 15  1  0
 12 15  1  0
 13 16  1  1
 16 17  1  0
 18 17  1  6
 18 19  1  0
 18 20  1  0
 19 21  1  6
 19 22  1  0
 20 23  1  0
 21 24  1  0
 21 25  1  0
 22 26  1  0
 25 26  1  0
 22 27  1  1
 23 27  1  0
 24 28  1  0
 26 29  1  6
 28 30  1  1
 28 31  1  0
 29 32  1  0
 29 33  1  0
 29 34  1  0
M  CHG  1  30  -1
M  END
