ucsf264-ucsf169
     RDKit          3D

 26 28  0  0  0  0  0  0  0  0999 V2000
    0.8440   12.8510   -2.2410 O   0  0  0  0  0  0  0  0  0  0  0  0
    1.1450   12.2260   -3.3500 C   0  0  1  0  0  0  0  0  0  0  0  0
    0.5420   10.9610   -3.1340 O   0  0  0  0  0  0  0  0  0  0  0  0
    0.6530   12.8950   -4.7230 C   0  0  1  0  0  0  0  0  0  0  0  0
    0.0840   12.1230   -5.9020 N   0  0  0  0  0  0  0  0  0  0  0  0
   -0.1990   14.2080   -4.4010 C   0  0  2  0  0  0  0  0  0  0  0  0
    1.0940   11.8210   -6.9360 N   0  0  0  0  0  0  0  0  0  0  0  0
   -0.6000   10.8290   -5.7000 C   0  0  2  0  0  0  0  0  0  0  0  0
   -1.6110   14.2230   -5.0260 C   0  0  0  0  0  0  0  0  0  0  0  0
    0.5940   15.5180   -4.7050 C   0  0  0  0  0  0  0  0  0  0  0  0
    0.2860   11.0990   -7.9400 C   0  0  2  0  0  0  0  0  0  0  0  0
   -0.3720   10.0770   -7.0380 C   0  0  2  0  0  0  0  0  0  0  0  0
   -2.1000   11.0000   -5.4190 C   0  0  0  0  0  0  0  0  0  0  0  0
   -0.2590   16.7620   -5.0000 C   0  0  2  0  0  0  0  0  0  0  0  0
   -2.4220   15.5260   -4.8510 C   0  0  0  0  0  0  0  0  0  0  0  0
    0.9220   10.4340   -9.1760 C   0  0  0  0  0  0  0  0  0  0  0  0
    0.3740   17.9720   -4.5940 O   0  0  0  0  0  0  0  0  0  0  0  0
   -1.6040    9.4150   -7.6410 C   0  0  0  0  0  0  0  0  0  0  0  0
   -2.8630    9.6680   -5.4710 C   0  0  0  0  0  0  0  0  0  0  0  0
   -1.6230   16.7210   -4.3490 C   0  0  2  0  0  0  0  0  0  0  0  0
    1.5770    9.2890   -8.8520 F   0  0  0  0  0  0  0  0  0  0  0  0
   -0.0500   10.0450  -10.0320 F   0  0  0  0  0  0  0  0  0  0  0  0
    1.7190   11.2060   -9.9240 F   0  0  0  0  0  0  0  0  0  0  0  0
    1.2080   18.4500   -5.6240 C   0  0  0  0  0  0  0  0  0  0  0  0
   -2.3210   17.9330   -4.6540 O   0  0  0  0  0  0  0  0  0  0  0  0
   -2.3680    8.6940   -6.5460 C   0  0  0  0  0  0  0  0  0  0  0  0
  2  1  1  1
  2  3  1  0
  2  4  1  0
  4  5  1  1
  4  6  1  0
  5  7  1  0
  5  8  1  0
  6  9  1  6
  6 10  1  0
  7 11  1  0
  8 12  1  0
 11 12  1  0
  8 13  1  6
 10 14  1  0
  9 15  1  0
 11 16  1  6
 14 17  1  1
 12 18  1  6
 13 19  1  0
 14 20  1  0
 15 20  1  0
 16 21  1  0
 16 22  1  0
 16 23  1  0
 17 24  1  0
 20 25  1  6
 18 26  1  0
 19 26  1  0
M  CHG  1   1  -1
M  END
