ucsf337-ucsf213
     RDKit          3D

 24 26  0  0  0  0  0  0  0  0999 V2000
   -7.3370   14.6300    0.6630 C   0  0  0  0  0  0  0  0  0  0  0  0
   -6.1270   14.1420   -0.1480 C   0  0  1  0  0  0  0  0  0  0  0  0
   -6.2980   14.6490   -1.5340 N   0  0  0  0  0  0  0  0  0  0  0  0
   -4.7000   14.3600    0.4810 C   0  0  2  0  0  0  0  0  0  0  0  0
   -4.6020   15.4750    2.0440 Br  0  0  0  0  0  0  0  0  0  0  0  0
   -3.6000   14.9610   -0.3790 C   0  0  0  0  0  0  0  0  0  0  0  0
   -5.0570   14.4790   -2.2400 C   0  0  1  0  0  0  0  0  0  0  0  0
   -5.2770   14.5680   -3.6630 N   0  0  0  0  0  0  0  0  0  0  0  0
   -4.1230   15.5080   -1.6810 C   0  0  0  0  0  0  0  0  0  0  0  0
   -4.0240   14.4420   -4.4250 C   0  0  0  0  0  0  0  0  0  0  0  0
   -3.5600   15.8360   -4.8400 C   0  0  0  0  0  0  0  0  0  0  0  0
   -2.2400   16.1850   -5.5060 C   0  0  2  0  0  0  0  0  0  0  0  0
   -1.0450   15.3010   -5.1090 C   0  0  1  0  0  0  0  0  0  0  0  0
   -2.0150   17.7190   -5.6550 C   0  0  0  0  0  0  0  0  0  0  0  0
    0.3490   15.9750   -5.1340 C   0  0  2  0  0  0  0  0  0  0  0  0
   -1.1660   14.6400   -3.4390 S   0  0  0  0  0  0  0  0  0  0  0  0
   -0.5800   18.2050   -5.8390 C   0  0  0  0  0  0  0  0  0  0  0  0
    0.5710   14.1750   -3.3580 C   0  0  2  0  0  0  0  0  0  0  0  0
    1.3100   15.1390   -4.2870 C   0  0  0  0  0  0  0  0  0  0  0  0
    0.3800   17.4930   -4.9180 C   0  0  0  0  0  0  0  0  0  0  0  0
    0.8200   12.6950   -3.6740 C   0  0  0  0  0  0  0  0  0  0  0  0
    1.1270   11.9230   -2.3820 C   0  0  2  0  0  0  0  0  0  0  0  0
    0.4820   10.7520   -2.3390 O   0  0  0  0  0  0  0  0  0  0  0  0
    0.5610   12.5850   -1.2780 O   0  0  0  0  0  0  0  0  0  0  0  0
  2  1  1  1
  2  3  1  0
  2  4  1  0
  4  5  1  1
  4  6  1  0
  3  7  1  0
  7  8  1  6
  6  9  1  0
  7  9  1  0
  8 10  1  0
 10 11  1  0
 12 11  1  1
 12 13  1  0
 12 14  1  0
 13 15  1  0
 13 16  1  1
 14 17  1  0
 16 18  1  0
 15 19  1  1
 18 19  1  0
 15 20  1  0
 17 20  1  0
 18 21  1  6
 21 22  1  0
 22 23  1  6
 22 24  1  0
M  CHG  1  23  -1
M  END
