ucsf006-ucsf170
     RDKit          3D

 24 26  0  0  0  0  0  0  0  0999 V2000
   -0.2290   15.1440   -2.4280 N   0  0  0  0  0  0  0  0  0  0  0  0
   -0.2930   13.8000   -3.0010 C   0  0  1  0  0  0  0  0  0  0  0  0
    0.4710   13.8780   -4.3630 C   0  0  0  0  0  0  0  0  0  0  0  0
   -0.4620   15.2390   -1.0110 C   0  0  1  0  0  0  0  0  0  0  0  0
    0.3850   12.8790   -2.1430 O   0  0  0  0  0  0  0  0  0  0  0  0
   -1.8030   15.7860   -0.4970 C   0  0  2  0  0  0  0  0  0  0  0  0
   -0.1510   13.9370   -0.4100 N   0  0  0  0  0  0  0  0  0  0  0  0
   -1.7990   13.3590   -3.1290 C   0  0  1  0  0  0  0  0  0  0  0  0
    1.0970   12.5500   -4.8570 C   0  0  1  0  0  0  0  0  0  0  0  0
   -2.0830   15.4410    0.9270 C   0  0  2  0  0  0  0  0  0  0  0  0
   -0.2750   13.9980    1.0350 C   0  0  0  0  0  0  0  0  0  0  0  0
   -3.1300   15.5160   -1.1730 C   0  0  0  0  0  0  0  0  0  0  0  0
   -2.4020   12.7420   -1.8380 C   0  0  0  0  0  0  0  0  0  0  0  0
   -2.7180   14.4650   -3.7030 C   0  0  0  0  0  0  0  0  0  0  0  0
    0.6950   12.2660   -6.1780 O   0  0  0  0  0  0  0  0  0  0  0  0
    2.3960   12.6950   -4.9830 O   0  0  0  0  0  0  0  0  0  0  0  0
   -1.6550   14.1590    1.3510 N   0  0  0  0  0  0  0  0  0  0  0  0
   -3.4850   15.7120    1.2270 N   0  0  0  0  0  0  0  0  0  0  0  0
   -4.1870   15.6670   -0.0750 C   0  0  0  0  0  0  0  0  0  0  0  0
   -3.5520   13.5690   -1.2220 C   0  0  2  0  0  0  0  0  0  0  0  0
   -4.2160   14.1590   -3.6070 C   0  0  0  0  0  0  0  0  0  0  0  0
   -4.1500   12.9480    0.4180 S   0  0  0  0  0  0  0  0  0  0  0  0
   -4.7130   13.8650   -2.1890 C   0  0  0  0  0  0  0  0  0  0  0  0
   -5.7010   13.8360    0.7530 C   0  0  0  0  0  0  0  0  0  0  0  0
  1  2  1  0
  2  3  1  0
  4  1  1  6
  2  5  1  1
  4  6  1  0
  4  7  1  0
  2  8  1  0
  3  9  1  0
  6 10  1  0
  7 11  1  0
  6 12  1  6
  8 13  1  1
  8 14  1  0
  9 15  1  6
  9 16  1  0
 10 17  1  6
 11 17  1  0
 10 18  1  0
 12 19  1  0
 18 19  1  0
 13 20  1  0
 14 21  1  0
 20 22  1  1
 20 23  1  0
 21 23  1  0
 22 24  1  0
M  CHG  1  16  -1
M  END
