ucsf151-ucsf016
     RDKit          3D

 23 26  0  0  0  0  0  0  0  0999 V2000
    0.1480   11.6420   -1.6970 O   0  0  0  0  0  0  0  0  0  0  0  0
   -0.2210   12.8680   -2.0090 C   0  0  1  0  0  0  0  0  0  0  0  0
    1.0620   13.4800   -2.0750 O   0  0  0  0  0  0  0  0  0  0  0  0
   -0.9210   13.0460   -3.4110 C   0  0  2  0  0  0  0  0  0  0  0  0
   -1.6420   14.4230   -3.4920 C   0  0  2  0  0  0  0  0  0  0  0  0
   -1.9860   12.0620   -3.8810 C   0  0  0  0  0  0  0  0  0  0  0  0
   -1.6860   14.7380   -4.9990 C   0  0  2  0  0  0  0  0  0  0  0  0
   -2.4240   12.3070   -5.2890 N   0  0  0  0  0  0  0  0  0  0  0  0
   -0.8400   15.2070   -2.5960 N   0  0  0  0  0  0  0  0  0  0  0  0
   -2.2110   16.0750   -5.2890 O   0  0  0  0  0  0  0  0  0  0  0  0
   -2.6370   13.7290   -5.6990 C   0  0  0  0  0  0  0  0  0  0  0  0
   -0.2340   14.6510   -5.4790 C   0  0  0  0  0  0  0  0  0  0  0  0
    0.5060   15.3260   -3.1470 C   0  0  0  0  0  0  0  0  0  0  0  0
   -0.9640   14.7190   -1.2280 C   0  0  1  0  0  0  0  0  0  0  0  0
    0.7760   14.4320   -4.3650 C   0  0  0  0  0  0  0  0  0  0  0  0
   -0.0690   15.3530   -0.2800 N   0  0  0  0  0  0  0  0  0  0  0  0
   -2.4080   14.4440   -0.7230 C   0  0  1  0  0  0  0  0  0  0  0  0
   -0.1500   14.6970    0.9780 C   0  0  0  0  0  0  0  0  0  0  0  0
   -2.5900   14.6560    0.7920 C   0  0  1  0  0  0  0  0  0  0  0  0
   -3.6030   15.1710   -1.3410 C   0  0  0  0  0  0  0  0  0  0  0  0
   -1.4260   14.9470    1.5760 N   0  0  0  0  0  0  0  0  0  0  0  0
   -3.5390   15.7300    0.9700 N   0  0  0  0  0  0  0  0  0  0  0  0
   -4.4700   15.5270   -0.1420 C   0  0  0  0  0  0  0  0  0  0  0  0
  2  1  1  6
  2  3  1  0
  2  4  1  0
  4  5  1  0
  4  6  1  1
  5  7  1  0
  6  8  1  0
  5  9  1  1
  7 10  1  1
  7 11  1  0
  8 11  1  0
  7 12  1  0
  9 13  1  0
 14  9  1  6
 12 15  1  0
 13 15  1  0
 14 16  1  0
 14 17  1  0
 16 18  1  0
 17 19  1  0
 17 20  1  6
 18 21  1  0
 19 21  1  6
 19 22  1  0
 20 23  1  0
 22 23  1  0
M  CHG  1   1  -1
M  END
