ucsf493-ucsf442
     RDKit          3D

 27 30  0  0  0  0  0  0  0  0999 V2000
   -4.3090   15.1230   -5.7880 C   0  0  0  0  0  0  0  0  0  0  0  0
   -3.6950   15.8350   -4.6940 N   0  0  0  0  0  0  0  0  0  0  0  0
   -4.0090   15.3250   -3.3510 C   0  0  0  0  0  0  0  0  0  0  0  0
   -2.2740   16.0820   -4.7170 C   0  0  1  0  0  0  0  0  0  0  0  0
   -3.3360   16.1530   -2.3980 O   0  0  0  0  0  0  0  0  0  0  0  0
   -1.5840   14.7680   -4.9410 C   0  0  0  0  0  0  0  0  0  0  0  0
   -1.6660   17.2490   -5.5130 C   0  0  0  0  0  0  0  0  0  0  0  0
   -0.2270   14.8210   -4.3090 C   0  0  2  0  0  0  0  0  0  0  0  0
   -0.1300   17.2450   -5.4130 C   0  0  0  0  0  0  0  0  0  0  0  0
   -3.0220   15.6370   -1.0870 C   0  0  1  0  0  0  0  0  0  0  0  0
    0.4750   16.2020   -4.4490 C   0  0  2  0  0  0  0  0  0  0  0  0
    0.8170   13.8060   -4.7780 C   0  0  2  0  0  0  0  0  0  0  0  0
   -4.0720   14.6560   -0.5550 C   0  0  1  0  0  0  0  0  0  0  0  0
   -1.7040   15.0470   -1.0130 N   0  0  0  0  0  0  0  0  0  0  0  0
    0.6360   12.3180   -4.3940 C   0  0  0  0  0  0  0  0  0  0  0  0
    1.8440   15.8660   -4.8200 N   0  0  0  0  0  0  0  0  0  0  0  0
    2.0660   14.4920   -4.3270 C   0  0  0  0  0  0  0  0  0  0  0  0
   -1.3490   14.7730    0.3610 C   0  0  1  0  0  0  0  0  0  0  0  0
   -3.6610   14.4680    0.9120 C   0  0  1  0  0  0  0  0  0  0  0  0
   -5.5090   15.0880   -0.4760 N   0  0  0  0  0  0  0  0  0  0  0  0
    0.3060   11.8960   -2.9170 C   0  0  1  0  0  0  0  0  0  0  0  0
   -0.1840   15.4470    0.7260 O   0  0  0  0  0  0  0  0  0  0  0  0
   -2.4390   15.1860    1.2110 N   0  0  0  0  0  0  0  0  0  0  0  0
   -4.7200   15.1280    1.6470 N   0  0  0  0  0  0  0  0  0  0  0  0
   -5.8580   14.7050    0.8740 C   0  0  0  0  0  0  0  0  0  0  0  0
    0.5000   10.5060   -2.6850 O   0  0  0  0  0  0  0  0  0  0  0  0
    1.1750   12.4220   -2.0840 O   0  0  0  0  0  0  0  0  0  0  0  0
  1  2  1  0
  2  3  1  0
  4  2  1  6
  3  5  1  0
  4  6  1  0
  4  7  1  0
  8  6  1  6
  7  9  1  0
 10  5  1  6
  8 11  1  0
 11  9  1  6
  8 12  1  0
 10 13  1  0
 10 14  1  0
 12 15  1  1
 11 16  1  0
 12 17  1  0
 16 17  1  0
 14 18  1  0
 13 19  1  0
 13 20  1  1
 15 21  1  0
 18 22  1  1
 18 23  1  0
 19 23  1  6
 19 24  1  0
 20 25  1  0
 24 25  1  0
 21 26  1  6
 21 27  1  0
M  CHG  1  27  -1
M  END
