ucsf169-ucsf511
     RDKit          3D

 20 22  0  0  0  0  0  0  0  0999 V2000
    1.1050   18.0950   -5.3700 C   0  0  0  0  0  0  0  0  0  0  0  0
   -0.2600   17.8070   -5.1350 O   0  0  0  0  0  0  0  0  0  0  0  0
   -0.4680   16.6930   -4.2390 C   0  0  1  0  0  0  0  0  0  0  0  0
   -2.0090   16.6110   -3.9760 C   0  0  1  0  0  0  0  0  0  0  0  0
    0.1610   15.4160   -4.8050 C   0  0  0  0  0  0  0  0  0  0  0  0
   -2.7340   16.8960   -5.1740 O   0  0  0  0  0  0  0  0  0  0  0  0
   -2.5910   15.4210   -3.1200 C   0  0  2  0  0  0  0  0  0  0  0  0
   -0.6220   14.1450   -4.3650 C   0  0  1  0  0  0  0  0  0  0  0  0
    0.3480   12.9530   -4.1270 C   0  0  0  0  0  0  0  0  0  0  0  0
   -1.3580   14.5050   -3.0630 C   0  0  2  0  0  0  0  0  0  0  0  0
   -3.9580   14.7920   -3.6570 C   0  0  0  0  0  0  0  0  0  0  0  0
   -2.7170   15.5810   -1.5390 C   0  0  1  0  0  0  0  0  0  0  0  0
    0.4740   12.5550   -2.6320 C   0  0  2  0  0  0  0  0  0  0  0  0
   -5.2500   14.8000   -2.7720 C   0  0  0  0  0  0  0  0  0  0  0  0
   -4.0920   15.6860   -0.8700 C   0  0  0  0  0  0  0  0  0  0  0  0
   -2.1080   14.4000   -0.9490 O   0  0  0  0  0  0  0  0  0  0  0  0
   -1.8090   13.5090   -2.0360 C   0  0  0  0  0  0  0  0  0  0  0  0
    1.8240   12.6510   -2.2620 O   0  0  0  0  0  0  0  0  0  0  0  0
    0.2320   11.2680   -2.4700 O   0  0  0  0  0  0  0  0  0  0  0  0
   -5.0090   14.5930   -1.2970 C   0  0  0  0  0  0  0  0  0  0  0  0
  1  2  1  0
  3  2  1  6
  3  4  1  0
  3  5  1  0
  4  6  1  6
  4  7  1  0
  5  8  1  0
  8  9  1  1
  7 10  1  0
  8 10  1  0
  7 11  1  6
  7 12  1  0
  9 13  1  0
 11 14  1  0
 12 15  1  6
 12 16  1  0
 10 17  1  6
 16 17  1  0
 13 18  1  6
 13 19  1  0
 14 20  1  0
 15 20  1  0
M  CHG  1  19  -1
M  END
