ucsf371-ucsf303
     RDKit          3D

 24 27  0  0  0  0  0  0  0  0999 V2000
   -0.9960   16.1640   -0.8290 C   0  0  0  0  0  0  0  0  0  0  0  0
   -0.5220   15.6290   -2.1740 C   0  0  1  0  0  0  0  0  0  0  0  0
   -0.8960   14.1580   -2.4190 C   0  0  2  0  0  0  0  0  0  0  0  0
   -1.0490   16.2990   -3.4390 C   0  0  0  0  0  0  0  0  0  0  0  0
    0.3580   13.5200   -3.1320 C   0  0  1  0  0  0  0  0  0  0  0  0
   -2.3980   15.7480   -3.5860 N   0  0  0  0  0  0  0  0  0  0  0  0
   -2.1590   14.2910   -3.3510 C   0  0  2  0  0  0  0  0  0  0  0  0
   -1.4090   13.4840   -0.7160 S   0  0  0  0  0  0  0  0  0  0  0  0
    0.2590   13.7570   -4.5260 O   0  0  0  0  0  0  0  0  0  0  0  0
    1.4850   14.1260   -2.8380 O   0  0  0  0  0  0  0  0  0  0  0  0
   -3.4660   13.4410   -2.4960 S   0  0  2  0  0  0  0  0  0  0  0  0
   -3.2000   13.9750   -0.8320 C   0  0  0  0  0  0  0  0  0  0  0  0
   -2.8840   11.9420   -2.5010 O   0  0  0  0  0  0  0  0  0  0  0  0
   -5.0440   13.3500   -3.0750 N   0  0  0  0  0  0  0  0  0  0  0  0
   -3.3650   15.4950   -0.6370 C   0  0  0  0  0  0  0  0  0  0  0  0
   -4.0370   13.2590    0.2100 C   0  0  0  0  0  0  0  0  0  0  0  0
   -5.6380   12.0390   -3.2500 C   0  0  2  0  0  0  0  0  0  0  0  0
   -3.2030   15.9610    0.8260 C   0  0  0  0  0  0  0  0  0  0  0  0
   -3.5640   13.6600    1.5890 C   0  0  0  0  0  0  0  0  0  0  0  0
   -5.9750   11.4970   -1.9150 N   0  0  0  0  0  0  0  0  0  0  0  0
   -4.4590   10.8890   -4.0090 S   0  0  0  0  0  0  0  0  0  0  0  0
   -3.8960   15.0920    1.8600 C   0  0  0  0  0  0  0  0  0  0  0  0
   -4.4570    9.8270   -2.5720 C   0  0  0  0  0  0  0  0  0  0  0  0
   -5.7300   10.0480   -1.8940 N   0  0  0  0  0  0  0  0  0  0  0  0
  2  1  1  1
  2  3  1  0
  2  4  1  0
  3  5  1  0
  4  6  1  0
  3  7  1  0
  7  6  1  1
  3  8  1  1
  5  9  1  6
  5 10  1  0
  7 11  1  0
 12  8  1  0
 11 12  1  0
 11 13  1  1
 11 14  1  0
 12 15  1  0
 12 16  1  0
 17 14  1  1
 15 18  1  0
 16 19  1  0
 17 20  1  0
 17 21  1  0
 18 22  1  0
 19 22  1  0
 21 23  1  0
 20 24  1  0
 23 24  1  0
M  CHG  1  10  -1
M  END
