ucsf337-ucsf241
     RDKit          3D

 16 18  0  0  0  0  0  0  0  0999 V2000
   -8.1970   14.8250   -0.3310 C   0  0  0  0  0  0  0  0  0  0  0  0
   -6.6940   15.0100   -0.5370 C   0  0  2  0  0  0  0  0  0  0  0  0
   -6.2710   14.6000   -1.8590 N   0  0  0  0  0  0  0  0  0  0  0  0
   -5.9270   14.2230    0.5100 C   0  0  2  0  0  0  0  0  0  0  0  0
   -6.6480   14.6720    2.2690 Br  0  0  0  0  0  0  0  0  0  0  0  0
   -4.4340   14.4330    0.3570 C   0  0  1  0  0  0  0  0  0  0  0  0
   -4.9400   15.1260   -2.1050 C   0  0  2  0  0  0  0  0  0  0  0  0
   -4.5090   14.2610   -3.1660 N   0  0  0  0  0  0  0  0  0  0  0  0
   -4.0410   15.3080   -0.8310 C   0  0  2  0  0  0  0  0  0  0  0  0
   -3.6330   14.9910    1.4460 N   0  0  0  0  0  0  0  0  0  0  0  0
   -2.5910   14.8600   -0.6520 C   0  0  2  0  0  0  0  0  0  0  0  0
   -2.3760   15.2840    0.7890 C   0  0  2  0  0  0  0  0  0  0  0  0
   -1.3980   15.2910   -1.4550 C   0  0  0  0  0  0  0  0  0  0  0  0
   -1.3400   14.5740    1.4580 N   0  0  0  0  0  0  0  0  0  0  0  0
   -0.1090   14.7530   -0.8050 C   0  0  0  0  0  0  0  0  0  0  0  0
   -0.0730   14.5870    0.7340 C   0  0  0  0  0  0  0  0  0  0  0  0
  2  1  1  6
  2  3  1  0
  2  4  1  0
  4  5  1  1
  4  6  1  0
  3  7  1  0
  7  8  1  6
  6  9  1  0
  9  7  1  6
  6 10  1  1
  9 11  1  0
 12 10  1  1
 11 12  1  0
 11 13  1  6
 12 14  1  0
 13 15  1  0
 14 16  1  0
 15 16  1  0
M  END
