ucsf190-ucsf135
     RDKit          3D

 26 29  0  0  0  0  0  0  0  0999 V2000
    0.8410   11.1550   -3.8990 O   0  0  0  0  0  0  0  0  0  0  0  0
    0.8420   12.1950   -2.9900 C   0  0  1  0  0  0  0  0  0  0  0  0
    1.0700   11.7910   -1.6490 O   0  0  0  0  0  0  0  0  0  0  0  0
   -0.0500   11.6390   -4.9250 N   0  0  0  0  0  0  0  0  0  0  0  0
    1.8900   13.1530   -3.4580 C   0  0  0  0  0  0  0  0  0  0  0  0
    0.4420   11.2930   -6.3090 C   0  0  2  0  0  0  0  0  0  0  0  0
   -1.4620   10.8120   -4.4980 S   0  0  1  0  0  0  0  0  0  0  0  0
    0.0490   12.3130   -7.1970 O   0  0  0  0  0  0  0  0  0  0  0  0
   -2.7270   11.6680   -4.9800 O   0  0  0  0  0  0  0  0  0  0  0  0
    1.1830   14.4650   -3.6970 C   0  0  2  0  0  0  0  0  0  0  0  0
   -1.2870    9.5120   -5.6580 C   0  0  2  0  0  0  0  0  0  0  0  0
   -0.2810    9.9880   -6.7450 C   0  0  1  0  0  0  0  0  0  0  0  0
   -0.2790   14.4190   -4.2460 C   0  0  1  0  0  0  0  0  0  0  0  0
    1.9820   15.3060   -4.5520 N   0  0  0  0  0  0  0  0  0  0  0  0
   -2.5840    8.9960   -6.2240 C   0  0  0  0  0  0  0  0  0  0  0  0
   -0.9470   10.0390   -8.1090 C   0  0  0  0  0  0  0  0  0  0  0  0
   -0.8150   15.8530   -4.4040 C   0  0  1  0  0  0  0  0  0  0  0  0
    1.5180   16.6690   -4.4070 N   0  0  0  0  0  0  0  0  0  0  0  0
   -0.5880   13.5850   -5.4850 C   0  0  0  0  0  0  0  0  0  0  0  0
   -2.3430    8.0330   -7.3810 C   0  0  0  0  0  0  0  0  0  0  0  0
   -1.5250    8.6710   -8.5020 C   0  0  0  0  0  0  0  0  0  0  0  0
    0.2010   16.8490   -4.9650 C   0  0  2  0  0  0  0  0  0  0  0  0
   -2.1970   15.9960   -5.0460 C   0  0  0  0  0  0  0  0  0  0  0  0
   -2.0890   13.5660   -5.8280 C   0  0  0  0  0  0  0  0  0  0  0  0
   -0.2430   18.1610   -4.6660 O   0  0  0  0  0  0  0  0  0  0  0  0
   -2.9130   14.6630   -5.1670 C   0  0  0  0  0  0  0  0  0  0  0  0
  1  2  1  0
  2  3  1  1
  1  4  1  0
  2  5  1  0
  4  6  1  0
  4  7  1  0
  6  8  1  6
  7  9  1  6
 10  5  1  6
  7 11  1  0
  6 12  1  0
 11 12  1  0
 10 13  1  0
 10 14  1  0
 11 15  1  6
 12 16  1  6
 13 17  1  0
 14 18  1  0
 13 19  1  6
 15 20  1  0
 16 21  1  0
 20 21  1  0
 17 22  1  0
 18 22  1  0
 17 23  1  6
 19 24  1  0
 22 25  1  1
 23 26  1  0
 24 26  1  0
M  END
