ucsf519-ucsf320
     RDKit          3D

 16 16  0  0  0  0  0  0  0  0999 V2000
   -0.1750   16.0360   -4.6160 C   0  0  0  0  0  0  0  0  0  0  0  0
   -0.6350   14.7100   -3.9970 C   0  0  2  0  0  0  0  0  0  0  0  0
   -0.1970   13.3860   -5.2120 S   0  0  0  0  0  0  0  0  0  0  0  0
   -2.1490   14.6640   -3.5340 C   0  0  2  0  0  0  0  0  0  0  0  0
    0.7740   12.1650   -4.2070 C   0  0  0  0  0  0  0  0  0  0  0  0
   -2.9850   15.3680   -4.4520 O   0  0  0  0  0  0  0  0  0  0  0  0
   -2.6380   15.0350   -2.2140 N   0  0  0  0  0  0  0  0  0  0  0  0
    0.3870   11.7800   -2.7420 C   0  0  2  0  0  0  0  0  0  0  0  0
   -4.0750   15.0950   -2.0360 C   0  0  0  0  0  0  0  0  0  0  0  0
   -2.1020   14.3810   -1.0630 C   0  0  1  0  0  0  0  0  0  0  0  0
    1.3170   12.3860   -1.8780 O   0  0  0  0  0  0  0  0  0  0  0  0
    0.4990   10.4780   -2.4630 O   0  0  0  0  0  0  0  0  0  0  0  0
   -0.8660   14.9630   -0.7440 O   0  0  0  0  0  0  0  0  0  0  0  0
   -4.1890   15.3350   -0.5320 C   0  0  2  0  0  0  0  0  0  0  0  0
   -3.0440   14.6330    0.0280 N   0  0  0  0  0  0  0  0  0  0  0  0
   -5.4460   14.8270   -0.0680 O   0  0  0  0  0  0  0  0  0  0  0  0
  2  1  1  6
  2  3  1  0
  2  4  1  0
  3  5  1  0
  4  6  1  6
  4  7  1  0
  5  8  1  0
  7  9  1  0
  7 10  1  0
  8 11  1  1
  8 12  1  0
 10 13  1  1
  9 14  1  0
 10 15  1  0
 14 15  1  0
 14 16  1  1
M  CHG  1  12  -1
M  END
