ucsf147-ucsf345
     RDKit          3D

 18 19  0  0  0  0  0  0  0  0999 V2000
    1.4770   12.8890   -5.2140 C   0  0  0  0  0  0  0  0  0  0  0  0
    0.3210   13.8470   -4.9800 C   0  0  1  0  0  0  0  0  0  0  0  0
   -0.8390   13.3720   -5.7100 O   0  0  0  0  0  0  0  0  0  0  0  0
   -0.1600   14.1940   -3.5610 C   0  0  2  0  0  0  0  0  0  0  0  0
    0.5720   13.6480   -2.2990 C   0  0  2  0  0  0  0  0  0  0  0  0
   -1.9360   13.1770   -4.7590 N   0  0  0  0  0  0  0  0  0  0  0  0
   -1.7020   14.2110   -3.7400 C   0  0  1  0  0  0  0  0  0  0  0  0
   -0.2060   12.8450   -1.4290 O   0  0  0  0  0  0  0  0  0  0  0  0
    0.9020   14.6830   -1.5560 O   0  0  0  0  0  0  0  0  0  0  0  0
   -2.8310   14.2480   -2.6550 C   0  0  1  0  0  0  0  0  0  0  0  0
   -2.4400   14.3730   -1.1680 C   0  0  0  0  0  0  0  0  0  0  0  0
   -3.9020   15.2790   -2.9690 C   0  0  0  0  0  0  0  0  0  0  0  0
   -3.6070   14.5940   -0.1670 C   0  0  0  0  0  0  0  0  0  0  0  0
   -5.1720   15.1090   -2.1660 C   0  0  0  0  0  0  0  0  0  0  0  0
   -4.9170   15.2860   -0.6730 C   0  0  1  0  0  0  0  0  0  0  0  0
   -6.2410   14.8980    0.0520 C   0  0  2  0  0  0  0  0  0  0  0  0
   -6.1550   14.8000    1.4970 N   0  0  0  0  0  0  0  0  0  0  0  0
   -6.8020   13.6930   -0.3880 O   0  0  0  0  0  0  0  0  0  0  0  0
  2  1  1  1
  2  3  1  0
  2  4  1  0
  4  5  1  1
  3  6  1  0
  4  7  1  0
  7  6  1  1
  5  8  1  1
  5  9  1  0
  7 10  1  0
 10 11  1  1
 10 12  1  0
 11 13  1  0
 12 14  1  0
 15 13  1  1
 14 15  1  0
 15 16  1  0
 16 17  1  1
 16 18  1  0
M  CHG  1   9  -1
M  END
