ucsf004
     RDKit          3D

 16 18  0  0  0  0  0  0  0  0999 V2000
   -1.7810   13.5730   -4.7500 C   0  0  2  0  0  0  0  0  0  0  0  0
   -0.3590   13.6390   -5.0270 C   0  0  0  0  0  0  0  0  0  0  0  0
    0.1810   14.9440   -4.7110 C   0  0  0  0  0  0  0  0  0  0  0  0
    0.3250   14.9760   -3.2060 C   0  0  0  0  0  0  0  0  0  0  0  0
   -0.9490   14.4780   -2.5340 N   0  0  0  0  0  0  0  0  0  0  0  0
   -2.1380   14.3270   -3.4820 C   0  0  0  0  0  0  0  0  0  0  0  0
   -1.0750   14.5860   -1.1110 C   0  0  0  0  0  0  0  0  0  0  0  0
   -0.0080   14.3380   -0.3500 N   0  0  0  0  0  0  0  0  0  0  0  0
   -0.0620   14.4290    0.9690 C   0  0  0  0  0  0  0  0  0  0  0  0
   -1.1830   14.7700    1.5690 N   0  0  0  0  0  0  0  0  0  0  0  0
   -2.3090   15.0300    0.8690 C   0  0  0  0  0  0  0  0  0  0  0  0
   -3.5760   15.3900    1.2600 N   0  0  0  0  0  0  0  0  0  0  0  0
   -4.3750   15.5430    0.1890 C   0  0  0  0  0  0  0  0  0  0  0  0
   -3.6020   15.2830   -0.9290 C   0  0  0  0  0  0  0  0  0  0  0  0
   -2.3000   14.9450   -0.4900 C   0  0  0  0  0  0  0  0  0  0  0  0
   -2.1300   12.2670   -4.5770 F   0  0  0  0  0  0  0  0  0  0  0  0
  1  2  1  0
  2  3  1  0
  3  4  1  0
  4  5  1  0
  1  6  1  0
  5  6  1  0
  5  7  1  0
  7  8  1  0
  8  9  1  0
  9 10  1  0
 10 11  1  0
 11 12  1  0
 12 13  1  0
 13 14  1  0
  7 15  1  0
 11 15  1  0
 14 15  1  0
  1 16  1  1
M  END
