ucsf493-ucsf404
     RDKit          3D

 28 31  0  0  0  0  0  0  0  0999 V2000
   -4.1250   15.9240   -6.7160 C   0  0  0  0  0  0  0  0  0  0  0  0
   -3.8390   15.7560   -5.3040 N   0  0  0  0  0  0  0  0  0  0  0  0
   -4.4280   14.4780   -4.8010 C   0  0  0  0  0  0  0  0  0  0  0  0
   -2.4150   15.9850   -4.8850 C   0  0  1  0  0  0  0  0  0  0  0  0
   -5.8870   14.5310   -4.2450 C   0  0  0  0  0  0  0  0  0  0  0  0
   -1.6490   14.6540   -5.0580 C   0  0  0  0  0  0  0  0  0  0  0  0
   -1.6640   17.2550   -5.4100 C   0  0  0  0  0  0  0  0  0  0  0  0
   -6.0710   14.9530   -2.7580 C   0  0  0  0  0  0  0  0  0  0  0  0
   -0.1470   14.8250   -5.1060 C   0  0  1  0  0  0  0  0  0  0  0  0
   -0.1700   17.3360   -5.0200 C   0  0  0  0  0  0  0  0  0  0  0  0
    0.3090   16.0430   -4.3500 C   0  0  2  0  0  0  0  0  0  0  0  0
    0.8580   13.6880   -4.8400 C   0  0  2  0  0  0  0  0  0  0  0  0
   -4.8380   14.6060   -1.9140 C   0  0  2  0  0  0  0  0  0  0  0  0
    0.3110   12.3230   -4.3240 C   0  0  0  0  0  0  0  0  0  0  0  0
    1.7460   15.8430   -4.2940 N   0  0  0  0  0  0  0  0  0  0  0  0
    1.9050   14.4010   -3.9870 C   0  0  0  0  0  0  0  0  0  0  0  0
   -4.7770   14.9860   -0.4470 C   0  0  1  0  0  0  0  0  0  0  0  0
   -3.5430   15.1550   -2.5210 C   0  0  0  0  0  0  0  0  0  0  0  0
    0.2940   11.9830   -2.7870 C   0  0  1  0  0  0  0  0  0  0  0  0
   -5.9760   14.8970    0.3780 N   0  0  0  0  0  0  0  0  0  0  0  0
   -3.7420   14.0070    0.0650 C   0  0  2  0  0  0  0  0  0  0  0  0
   -2.2700   14.5820   -1.8820 C   0  0  0  0  0  0  0  0  0  0  0  0
    0.4650   10.5570   -2.6450 O   0  0  0  0  0  0  0  0  0  0  0  0
    1.3120   12.5190   -2.1700 O   0  0  0  0  0  0  0  0  0  0  0  0
   -5.4760   14.9530    1.7190 C   0  0  2  0  0  0  0  0  0  0  0  0
   -4.0290   13.9000    1.8060 S   0  0  0  0  0  0  0  0  0  0  0  0
   -2.3510   14.4280   -0.3550 C   0  0  0  0  0  0  0  0  0  0  0  0
   -6.5750   14.5570    2.5450 N   0  0  0  0  0  0  0  0  0  0  0  0
  1  2  1  0
  2  3  1  0
  4  2  1  6
  3  5  1  0
  4  6  1  0
  4  7  1  0
  5  8  1  0
  9  6  1  1
  7 10  1  0
  9 11  1  0
 11 10  1  6
  9 12  1  0
 13  8  1  6
 12 14  1  1
 11 15  1  0
 12 16  1  0
 15 16  1  0
 13 17  1  0
 13 18  1  0
 14 19  1  0
 17 20  1  1
 17 21  1  0
 18 22  1  0
 19 23  1  6
 19 24  1  0
 20 25  1  0
 21 26  1  0
 25 26  1  0
 21 27  1  1
 22 27  1  0
 25 28  1  1
M  CHG  1  24  -1
M  END
