ucsf123-ucsf387
     RDKit          3D

 15 15  0  0  0  0  0  0  0  0999 V2000
   -1.9020   18.6530   -4.8640 N   0  0  0  0  0  0  0  0  0  0  0  0
   -1.7030   17.2880   -5.7250 S   0  0  0  0  0  0  0  0  0  0  0  0
   -0.4880   17.6710   -6.6820 O   0  0  0  0  0  0  0  0  0  0  0  0
   -2.8960   17.0150   -6.7190 O   0  0  0  0  0  0  0  0  0  0  0  0
   -1.2050   15.7150   -5.0260 C   0  0  1  0  0  0  0  0  0  0  0  0
    0.2710   15.6710   -4.7080 C   0  0  1  0  0  0  0  0  0  0  0  0
   -2.0980   15.0860   -3.9730 C   0  0  0  0  0  0  0  0  0  0  0  0
    0.8900   17.2590   -4.1310 Cl  0  0  0  0  0  0  0  0  0  0  0  0
    0.8590   14.3490   -4.1240 C   0  0  1  0  0  0  0  0  0  0  0  0
   -1.6850   13.6550   -3.6630 C   0  0  0  0  0  0  0  0  0  0  0  0
    2.1720   14.5050   -3.3970 C   0  0  0  0  0  0  0  0  0  0  0  0
   -0.1710   13.3720   -3.4310 C   0  0  2  0  0  0  0  0  0  0  0  0
    0.1210   12.9380   -1.9550 C   0  0  2  0  0  0  0  0  0  0  0  0
    1.4950   13.0250   -1.7030 O   0  0  0  0  0  0  0  0  0  0  0  0
   -0.1060   11.6600   -1.7140 O   0  0  0  0  0  0  0  0  0  0  0  0
  1  2  1  0
  2  3  1  0
  2  4  1  0
  5  2  1  1
  5  6  1  0
  5  7  1  0
  6  8  1  1
  6  9  1  0
  7 10  1  0
  9 11  1  1
  9 12  1  0
 12 10  1  1
 12 13  1  0
 13 14  1  6
 13 15  1  0
M  CHG  1  15  -1
M  END
