ucsf520-ucsf028
     RDKit          3D

 22 25  0  0  0  0  0  0  0  0999 V2000
   -4.6030   15.2490    0.8940 N   0  0  0  0  0  0  0  0  0  0  0  0
   -3.5280   15.3970   -0.0710 C   0  0  1  0  0  0  0  0  0  0  0  0
   -2.2530   14.6380    0.2820 C   0  0  1  0  0  0  0  0  0  0  0  0
   -4.0950   14.9390   -1.3210 N   0  0  0  0  0  0  0  0  0  0  0  0
   -3.1410   14.8540   -2.4540 C   0  0  0  0  0  0  0  0  0  0  0  0
   -1.3270   14.8410   -0.9010 C   0  0  2  0  0  0  0  0  0  0  0  0
   -1.4210   15.1280    1.3750 N   0  0  0  0  0  0  0  0  0  0  0  0
   -1.8710   14.2180   -2.0970 N   0  0  0  0  0  0  0  0  0  0  0  0
   -0.0760   14.3160   -0.3790 N   0  0  0  0  0  0  0  0  0  0  0  0
   -0.1020   14.6260    1.0520 C   0  0  0  0  0  0  0  0  0  0  0  0
   -0.9080   13.9160   -3.2000 C   0  0  2  0  0  0  0  0  0  0  0  0
   -0.3520   15.3070   -3.7210 C   0  0  2  0  0  0  0  0  0  0  0  0
   -1.4340   13.0110   -4.3430 C   0  0  0  0  0  0  0  0  0  0  0  0
    0.2440   13.1630   -2.6890 O   0  0  0  0  0  0  0  0  0  0  0  0
   -1.3510   16.2820   -4.1240 O   0  0  0  0  0  0  0  0  0  0  0  0
    0.6460   15.2880   -4.8730 C   0  0  0  0  0  0  0  0  0  0  0  0
    0.1780   11.7810   -3.1980 N   0  0  0  0  0  0  0  0  0  0  0  0
   -0.3380   11.9790   -4.5380 C   0  0  1  0  0  0  0  0  0  0  0  0
   -0.8510   10.7830   -5.1190 O   0  0  0  0  0  0  0  0  0  0  0  0
    0.7290   16.7660   -5.1770 C   0  0  0  0  0  0  0  0  0  0  0  0
   -0.6910   17.2520   -4.9540 C   0  0  0  0  0  0  0  0  0  0  0  0
   -0.4760   10.6720   -6.4860 C   0  0  0  0  0  0  0  0  0  0  0  0
  2  1  1  1
  2  3  1  0
  2  4  1  0
  4  5  1  0
  3  6  1  0
  3  7  1  1
  5  8  1  0
  6  8  1  0
  6  9  1  1
  7 10  1  0
  9 10  1  0
 11  8  1  1
 11 12  1  0
 11 13  1  0
 11 14  1  0
 12 15  1  0
 12 16  1  6
 14 17  1  0
 13 18  1  0
 17 18  1  0
 18 19  1  1
 16 20  1  0
 15 21  1  0
 20 21  1  0
 19 22  1  0
M  END
