ucsf320-ucsf169
     RDKit          3D

 23 24  0  0  0  0  0  0  0  0999 V2000
   -1.1120   15.1560   -2.0660 O   0  0  0  0  0  0  0  0  0  0  0  0
   -2.1840   14.4440   -2.3300 C   0  0  1  0  0  0  0  0  0  0  0  0
   -3.4770   15.0070   -1.6950 C   0  0  2  0  0  0  0  0  0  0  0  0
   -2.4960   14.2850   -3.8510 C   0  0  0  0  0  0  0  0  0  0  0  0
   -3.8090   14.5150   -0.2870 C   0  0  0  0  0  0  0  0  0  0  0  0
   -4.6410   14.8140   -2.6690 C   0  0  0  0  0  0  0  0  0  0  0  0
   -1.3420   14.4480   -4.8350 C   0  0  1  0  0  0  0  0  0  0  0  0
   -5.0220   15.1860    0.3040 C   0  0  0  0  0  0  0  0  0  0  0  0
   -6.0140   14.7570   -2.0560 C   0  0  0  0  0  0  0  0  0  0  0  0
   -1.6110   15.7630   -5.4980 C   0  0  0  0  0  0  0  0  0  0  0  0
    0.0680   14.5230   -4.1750 C   0  0  1  0  0  0  0  0  0  0  0  0
   -6.1180   15.4750   -0.7270 C   0  0  1  0  0  0  0  0  0  0  0  0
    0.9160   13.2140   -4.3280 C   0  0  0  0  0  0  0  0  0  0  0  0
   -1.6270   16.7410   -4.4850 C   0  0  2  0  0  0  0  0  0  0  0  0
    0.7670   15.8520   -4.5900 C   0  0  0  0  0  0  0  0  0  0  0  0
   -7.3780   15.1250   -0.1500 O   0  0  0  0  0  0  0  0  0  0  0  0
    1.1930   12.4150   -3.0140 C   0  0  1  0  0  0  0  0  0  0  0  0
   -2.4760   17.8330   -4.7770 O   0  0  0  0  0  0  0  0  0  0  0  0
   -0.1470   17.1260   -4.4370 C   0  0  1  0  0  0  0  0  0  0  0  0
    0.0740   18.0190   -5.5440 O   0  0  0  0  0  0  0  0  0  0  0  0
    0.8320   13.2020   -1.8880 O   0  0  0  0  0  0  0  0  0  0  0  0
    0.3460   11.4080   -2.8500 O   0  0  0  0  0  0  0  0  0  0  0  0
    1.3630   18.4850   -5.7030 C   0  0  0  0  0  0  0  0  0  0  0  0
  2  1  1  6
  2  3  1  0
  2  4  1  0
  3  5  1  1
  3  6  1  0
  7  4  1  1
  5  8  1  0
  6  9  1  0
  7 10  1  0
  7 11  1  0
  8 12  1  0
  9 12  1  0
 11 13  1  6
 10 14  1  0
 11 15  1  0
 12 16  1  1
 13 17  1  0
 14 18  1  6
 14 19  1  0
 15 19  1  0
 19 20  1  6
 17 21  1  1
 17 22  1  0
 20 23  1  0
M  CHG  2   1  -1  22  -1
M  END
