ucsf247-ucsf404
     RDKit          3D

 20 21  0  0  0  0  0  0  0  0999 V2000
    0.8180   13.0920   -1.9230 O   0  0  0  0  0  0  0  0  0  0  0  0
    0.9030   14.2040   -2.6290 C   0  0  1  0  0  0  0  0  0  0  0  0
    1.8570   13.8630   -3.6280 O   0  0  0  0  0  0  0  0  0  0  0  0
   -0.4540   14.5080   -3.3490 C   0  0  0  0  0  0  0  0  0  0  0  0
   -1.5460   14.4200   -2.3630 N   0  0  0  0  0  0  0  0  0  0  0  0
   -2.1630   15.6680   -2.0360 C   0  0  1  0  0  0  0  0  0  0  0  0
   -3.2110   16.0040   -2.9220 O   0  0  0  0  0  0  0  0  0  0  0  0
   -2.6250   15.7570   -0.5580 C   0  0  0  0  0  0  0  0  0  0  0  0
   -3.8250   14.9250   -0.0850 C   0  0  2  0  0  0  0  0  0  0  0  0
   -4.1530   15.0820    1.4300 C   0  0  0  0  0  0  0  0  0  0  0  0
   -3.4570   13.4830   -0.4170 C   0  0  0  0  0  0  0  0  0  0  0  0
   -5.1840   15.3240   -0.6670 C   0  0  1  0  0  0  0  0  0  0  0  0
   -5.2990   15.0680   -2.1660 C   0  0  2  0  0  0  0  0  0  0  0  0
   -6.1610   14.4470    0.1330 C   0  0  1  0  0  0  0  0  0  0  0  0
   -5.5320   14.3930    1.5410 C   0  0  2  0  0  0  0  0  0  0  0  0
   -3.3050   13.3120   -1.9140 C   0  0  0  0  0  0  0  0  0  0  0  0
   -7.5060   14.9710    0.1520 O   0  0  0  0  0  0  0  0  0  0  0  0
   -6.4120   14.9520    2.5860 N   0  0  0  0  0  0  0  0  0  0  0  0
   -7.0370   14.8740   -2.5730 Cl  0  0  0  0  0  0  0  0  0  0  0  0
   -4.4720   13.8910   -2.7470 C   0  0  0  0  0  0  0  0  0  0  0  0
  2  1  1  1
  2  3  1  0
  2  4  1  0
  4  5  1  0
  5  6  1  0
  6  7  1  6
  6  8  1  0
  9  8  1  6
  9 10  1  0
  9 11  1  0
  9 12  1  0
 12 13  1  6
 12 14  1  0
 10 15  1  0
 14 15  1  0
 11 16  1  0
 14 17  1  1
 15 18  1  1
 13 19  1  1
 13 20  1  0
 16 20  1  0
M  CHG  1   1  -1
M  END
