ucsf274-ucsf487
     RDKit          3D

 29 32  0  0  0  0  0  0  0  0999 V2000
    0.4620   10.8440   -2.4080 O   0  0  0  0  0  0  0  0  0  0  0  0
    0.9670   12.0760   -2.3330 C   0  0  2  0  0  0  0  0  0  0  0  0
    0.5450   12.6000   -1.0890 O   0  0  0  0  0  0  0  0  0  0  0  0
    0.3980   13.0270   -3.4240 C   0  0  0  0  0  0  0  0  0  0  0  0
    0.6400   12.6960   -4.9100 C   0  0  0  0  0  0  0  0  0  0  0  0
   -0.5630   12.1550   -5.6930 C   0  0  2  0  0  0  0  0  0  0  0  0
   -1.6610   11.5620   -4.7560 C   0  0  1  0  0  0  0  0  0  0  0  0
   -0.1220   11.3000   -6.8230 N   0  0  0  0  0  0  0  0  0  0  0  0
   -2.3720   12.6620   -4.1840 O   0  0  0  0  0  0  0  0  0  0  0  0
   -2.5970   10.7300   -5.5180 N   0  0  0  0  0  0  0  0  0  0  0  0
   -0.5650    9.8950   -6.7930 C   0  0  1  0  0  0  0  0  0  0  0  0
   -2.7950   12.4610   -2.8430 C   0  0  0  0  0  0  0  0  0  0  0  0
   -1.8590    9.5490   -6.0030 C   0  0  2  0  0  0  0  0  0  0  0  0
   -0.5530    9.3200   -8.2190 C   0  0  0  0  0  0  0  0  0  0  0  0
   -4.1960   13.0500   -2.6660 C   0  0  0  0  0  0  0  0  0  0  0  0
   -0.8500    7.8290   -8.2660 C   0  0  0  0  0  0  0  0  0  0  0  0
   -2.7860    8.6580   -6.8410 C   0  0  0  0  0  0  0  0  0  0  0  0
   -2.1010    7.4540   -7.4910 C   0  0  0  0  0  0  0  0  0  0  0  0
   -4.3620   14.5930   -2.6010 C   0  0  1  0  0  0  0  0  0  0  0  0
   -5.8110   15.0390   -2.3870 C   0  0  0  0  0  0  0  0  0  0  0  0
   -3.4450   15.2770   -1.5920 C   0  0  0  0  0  0  0  0  0  0  0  0
   -6.3350   14.4720   -1.0870 C   0  0  1  0  0  0  0  0  0  0  0  0
   -4.0580   15.3100   -0.2010 C   0  0  0  0  0  0  0  0  0  0  0  0
   -5.1830   14.2750   -0.0910 C   0  0  1  0  0  0  0  0  0  0  0  0
   -7.4210   15.3100   -0.5890 N   0  0  0  0  0  0  0  0  0  0  0  0
   -5.6700   14.1580    1.3270 C   0  0  0  0  0  0  0  0  0  0  0  0
   -8.1280   14.6820    0.5170 C   0  0  0  0  0  0  0  0  0  0  0  0
   -7.1860   13.9490    1.5100 C   0  0  2  0  0  0  0  0  0  0  0  0
   -7.4710   14.2990    2.9080 N   0  0  0  0  0  0  0  0  0  0  0  0
  2  1  1  6
  2  3  1  0
  2  4  1  0
  4  5  1  0
  6  5  1  1
  6  7  1  0
  6  8  1  0
  7  9  1  6
  7 10  1  0
  8 11  1  0
  9 12  1  0
 10 13  1  0
 11 13  1  0
 11 14  1  6
 12 15  1  0
 14 16  1  0
 13 17  1  6
 16 18  1  0
 17 18  1  0
 19 15  1  1
 19 20  1  0
 19 21  1  0
 22 20  1  6
 21 23  1  0
 22 24  1  0
 24 23  1  1
 22 25  1  0
 24 26  1  0
 25 27  1  0
 26 28  1  0
 27 28  1  0
 28 29  1  1
M  CHG  1   1  -1
M  END
