ucsf005-ucsf278
     RDKit          3D

 23 26  0  0  0  0  0  0  0  0999 V2000
   -1.6970   15.9640   -3.7300 C   0  0  0  0  0  0  0  0  0  0  0  0
   -2.2200   15.8550   -2.3710 N   0  0  0  0  0  0  0  0  0  0  0  0
   -3.6450   15.4420   -2.3930 C   0  0  0  0  0  0  0  0  0  0  0  0
   -1.4960   14.9320   -1.4520 C   0  0  2  0  0  0  0  0  0  0  0  0
   -3.7170   14.1150   -1.8130 N   0  0  0  0  0  0  0  0  0  0  0  0
   -2.7300   14.2630   -0.7600 C   0  0  2  0  0  0  0  0  0  0  0  0
   -0.8440   15.6130   -0.3480 N   0  0  0  0  0  0  0  0  0  0  0  0
   -0.3500   14.3910   -2.5030 C   0  0  2  0  0  0  0  0  0  0  0  0
   -3.0030   15.0210    0.5640 C   0  0  1  0  0  0  0  0  0  0  0  0
   -0.6980   14.8940    0.8830 C   0  0  2  0  0  0  0  0  0  0  0  0
   -0.3460   12.9960   -3.2100 C   0  0  1  0  0  0  0  0  0  0  0  0
    1.0930   14.6030   -2.0400 C   0  0  0  0  0  0  0  0  0  0  0  0
   -4.3070   14.7430    1.1630 N   0  0  0  0  0  0  0  0  0  0  0  0
   -0.1630   13.6310    0.5890 N   0  0  0  0  0  0  0  0  0  0  0  0
   -1.9730   14.6340    1.4940 N   0  0  0  0  0  0  0  0  0  0  0  0
   -1.5020   12.6450   -4.1500 C   0  0  0  0  0  0  0  0  0  0  0  0
    0.9290   12.7710   -4.0710 C   0  0  1  0  0  0  0  0  0  0  0  0
    2.0630   14.8240   -3.2060 C   0  0  0  0  0  0  0  0  0  0  0  0
   -0.8770   12.3340   -5.5210 C   0  0  1  0  0  0  0  0  0  0  0  0
    0.5410   12.0640   -5.2850 N   0  0  0  0  0  0  0  0  0  0  0  0
    1.7150   14.0230   -4.4400 C   0  0  0  0  0  0  0  0  0  0  0  0
   -1.5460   11.1600   -6.2390 C   0  0  0  0  0  0  0  0  0  0  0  0
   -2.2670   10.3320   -5.3310 O   0  0  0  0  0  0  0  0  0  0  0  0
  1  2  1  0
  2  3  1  0
  4  2  1  0
  3  5  1  0
  4  6  1  0
  6  5  1  6
  4  7  1  1
  4  8  1  0
  6  9  1  0
  7 10  1  0
  8 11  1  0
  8 12  1  1
  9 13  1  1
 10 14  1  6
  9 15  1  0
 10 15  1  0
 11 16  1  6
 11 17  1  0
 12 18  1  0
 16 19  1  0
 17 20  1  0
 19 20  1  0
 17 21  1  6
 18 21  1  0
 19 22  1  1
 22 23  1  0
M  END
