ucsf338-ucsf170
     RDKit          3D

 22 23  0  0  0  0  0  0  0  0999 V2000
   -9.0080   14.2080    0.1270 O   0  0  0  0  0  0  0  0  0  0  0  0
   -7.6020   14.0250    0.4870 N   0  0  0  0  0  0  0  0  0  0  0  0
   -6.8490   14.8820   -0.4360 C   0  0  2  0  0  0  0  0  0  0  0  0
   -6.8620   14.2810   -1.7220 O   0  0  0  0  0  0  0  0  0  0  0  0
   -5.4030   15.1620    0.0990 C   0  0  2  0  0  0  0  0  0  0  0  0
   -4.5220   15.7810   -1.0060 C   0  0  2  0  0  0  0  0  0  0  0  0
   -4.6200   14.2490    1.0800 C   0  0  2  0  0  0  0  0  0  0  0  0
   -4.6970   15.1120   -2.2640 O   0  0  0  0  0  0  0  0  0  0  0  0
   -3.0180   15.9120   -0.6680 C   0  0  0  0  0  0  0  0  0  0  0  0
   -3.1010   14.3280    0.8380 C   0  0  2  0  0  0  0  0  0  0  0  0
   -5.2100   12.8940    1.3680 C   0  0  0  0  0  0  0  0  0  0  0  0
   -2.7670   15.7560    0.8210 C   0  0  0  0  0  0  0  0  0  0  0  0
   -2.5930   14.0750   -0.6000 C   0  0  1  0  0  0  0  0  0  0  0  0
   -1.1820   13.6160   -0.9000 C   0  0  0  0  0  0  0  0  0  0  0  0
   -3.5800   13.4000   -1.5660 C   0  0  0  0  0  0  0  0  0  0  0  0
   -0.9060   13.8260   -2.4130 C   0  0  2  0  0  0  0  0  0  0  0  0
   -3.3760   13.9280   -3.0120 C   0  0  0  0  0  0  0  0  0  0  0  0
    0.5430   14.3010   -2.7090 C   0  0  1  0  0  0  0  0  0  0  0  0
   -2.0230   14.6180   -3.1850 C   0  0  2  0  0  0  0  0  0  0  0  0
   -1.7100   14.6240   -4.5860 O   0  0  0  0  0  0  0  0  0  0  0  0
    1.3980   13.7610   -1.7150 O   0  0  0  0  0  0  0  0  0  0  0  0
    1.0150   13.7550   -3.8040 O   0  0  0  0  0  0  0  0  0  0  0  0
  1  2  1  0
  2  3  1  0
  3  4  1  6
  5  3  1  6
  5  6  1  0
  5  7  1  0
  6  8  1  6
  6  9  1  0
  7 10  1  0
  7 11  1  6
  9 12  1  0
 10 12  1  6
 10 13  1  0
 13 14  1  1
 13 15  1  0
 16 14  1  1
 15 17  1  0
 16 18  1  0
 16 19  1  0
 17 19  1  0
 19 20  1  6
 18 21  1  1
 18 22  1  0
M  CHG  1  22  -1
M  END
