ucsf151-ucsf260
     RDKit          3D

 23 25  0  0  0  0  0  0  0  0999 V2000
    0.5190   13.0700   -1.9360 O   0  0  0  0  0  0  0  0  0  0  0  0
   -0.2220   14.2610   -2.1770 C   0  0  1  0  0  0  0  0  0  0  0  0
    0.6900   15.3250   -2.3830 O   0  0  0  0  0  0  0  0  0  0  0  0
    0.4690   12.1260   -3.0120 C   0  0  2  0  0  0  0  0  0  0  0  0
    0.8990   10.9630   -2.5830 O   0  0  0  0  0  0  0  0  0  0  0  0
    1.3370   12.7390   -4.1560 C   0  0  0  0  0  0  0  0  0  0  0  0
   -1.1280   14.0920   -3.4250 C   0  0  2  0  0  0  0  0  0  0  0  0
    0.6110   13.0100   -5.5020 C   0  0  0  0  0  0  0  0  0  0  0  0
   -1.6970   15.4100   -3.9400 C   0  0  0  0  0  0  0  0  0  0  0  0
   -2.3300   13.1380   -3.2820 C   0  0  0  0  0  0  0  0  0  0  0  0
   -2.3070   15.1790   -5.2980 C   0  0  2  0  0  0  0  0  0  0  0  0
   -3.1220   12.9210   -4.5150 N   0  0  0  0  0  0  0  0  0  0  0  0
   -0.4750   12.0800   -5.8670 N   0  0  0  0  0  0  0  0  0  0  0  0
   -2.7220   16.4200   -5.8860 O   0  0  0  0  0  0  0  0  0  0  0  0
   -3.4400   14.1580   -5.2490 C   0  0  0  0  0  0  0  0  0  0  0  0
   -1.2520   11.4680   -4.8180 C   0  0  0  0  0  0  0  0  0  0  0  0
   -0.1940   10.9400   -6.6610 C   0  0  1  0  0  0  0  0  0  0  0  0
   -2.2550   10.6510   -5.5430 N   0  0  0  0  0  0  0  0  0  0  0  0
   -1.5450   10.2780   -6.7820 C   0  0  2  0  0  0  0  0  0  0  0  0
    0.5300   10.9150   -7.9860 C   0  0  0  0  0  0  0  0  0  0  0  0
   -1.3190    8.7940   -7.0510 C   0  0  0  0  0  0  0  0  0  0  0  0
    0.7620    9.4610   -8.4360 C   0  0  0  0  0  0  0  0  0  0  0  0
   -0.5020    8.5870   -8.3480 C   0  0  0  0  0  0  0  0  0  0  0  0
  1  2  1  0
  2  3  1  6
  1  4  1  0
  4  5  1  1
  4  6  1  0
  2  7  1  0
  6  8  1  0
  7  9  1  1
  7 10  1  0
  9 11  1  0
 10 12  1  0
  8 13  1  0
 11 14  1  1
 11 15  1  0
 12 15  1  0
 13 16  1  0
 13 17  1  0
 16 18  1  0
 17 19  1  0
 18 19  1  0
 17 20  1  6
 19 21  1  1
 20 22  1  0
 21 23  1  0
 22 23  1  0
M  CHG  1   5  -1
M  END
