ucsf241-ucsf109
     RDKit          3D

 23 27  0  0  0  0  0  0  0  0999 V2000
   -4.2050   14.8060    1.7640 N   0  0  0  0  0  0  0  0  0  0  0  0
   -3.0630   13.9270    1.6940 C   0  0  0  0  0  0  0  0  0  0  0  0
   -1.9140   14.7710    1.4180 N   0  0  0  0  0  0  0  0  0  0  0  0
   -5.1590   14.7570    0.6440 C   0  0  2  0  0  0  0  0  0  0  0  0
   -6.4790   14.3400    1.1250 N   0  0  0  0  0  0  0  0  0  0  0  0
   -4.9320   13.7990   -0.5510 C   0  0  1  0  0  0  0  0  0  0  0  0
   -2.2520   15.1900    0.1370 C   0  0  2  0  0  0  0  0  0  0  0  0
   -0.5860   14.1340    1.3660 C   0  0  0  0  0  0  0  0  0  0  0  0
   -7.5660   14.5700    0.2040 C   0  0  1  0  0  0  0  0  0  0  0  0
   -6.0200   14.2550   -1.5410 C   0  0  2  0  0  0  0  0  0  0  0  0
   -3.6360   13.7250   -1.3770 C   0  0  0  0  0  0  0  0  0  0  0  0
   -6.9690   14.8050    2.3980 N   0  0  0  0  0  0  0  0  0  0  0  0
   -1.2990   15.7890   -0.8460 C   0  0  2  0  0  0  0  0  0  0  0  0
   -3.3290   16.1030    0.0540 N   0  0  0  0  0  0  0  0  0  0  0  0
   -0.1850   13.7010   -0.0480 C   0  0  0  0  0  0  0  0  0  0  0  0
   -7.3400   13.8730   -1.0420 N   0  0  0  0  0  0  0  0  0  0  0  0
   -5.5630   13.7230   -2.8890 C   0  0  0  0  0  0  0  0  0  0  0  0
   -4.0540   13.9450   -2.8490 C   0  0  0  0  0  0  0  0  0  0  0  0
   -8.6470   13.9550    0.9290 N   0  0  0  0  0  0  0  0  0  0  0  0
   -8.3030   14.2030    2.3530 C   0  0  0  0  0  0  0  0  0  0  0  0
   -3.6680   15.7890   -1.3090 C   0  0  0  0  0  0  0  0  0  0  0  0
   -2.2930   15.8250   -2.0200 C   0  0  0  0  0  0  0  0  0  0  0  0
   -0.1380   14.8330   -1.0660 C   0  0  0  0  0  0  0  0  0  0  0  0
  1  2  1  0
  2  3  1  0
  4  1  1  1
  4  5  1  0
  4  6  1  0
  3  7  1  0
  3  8  1  0
  5  9  1  0
  6 10  1  0
  6 11  1  6
  5 12  1  0
  7 13  1  0
  7 14  1  1
  8 15  1  0
  9 16  1  6
 10 16  1  0
 10 17  1  6
 11 18  1  0
 17 18  1  0
  9 19  1  0
 12 20  1  0
 19 20  1  0
 14 21  1  0
 13 22  1  6
 21 22  1  0
 13 23  1  0
 15 23  1  0
M  END
