ucsf336-ucsf213
     RDKit          3D

 21 23  0  0  0  0  0  0  0  0999 V2000
    2.1160   12.8810   -4.3510 O   0  0  0  0  0  0  0  0  0  0  0  0
    1.0150   12.9040   -3.6160 C   0  0  2  0  0  0  0  0  0  0  0  0
    1.5200   12.7750   -2.2970 O   0  0  0  0  0  0  0  0  0  0  0  0
    0.0640   11.6980   -4.0010 C   0  0  2  0  0  0  0  0  0  0  0  0
    0.3150   14.2640   -3.8080 C   0  0  1  0  0  0  0  0  0  0  0  0
    0.2770   10.5620   -3.1750 O   0  0  0  0  0  0  0  0  0  0  0  0
    0.1560   11.3940   -5.4230 N   0  0  0  0  0  0  0  0  0  0  0  0
    1.1330   15.4490   -4.3490 C   0  0  0  0  0  0  0  0  0  0  0  0
   -1.1450   14.1730   -4.9400 S   0  0  0  0  0  0  0  0  0  0  0  0
   -0.5800   10.2170   -5.8480 C   0  0  0  0  0  0  0  0  0  0  0  0
    0.1880   16.3990   -5.0950 C   0  0  1  0  0  0  0  0  0  0  0  0
   -1.2270   15.9460   -4.7460 C   0  0  1  0  0  0  0  0  0  0  0  0
   -0.4880    9.9870   -7.3640 C   0  0  0  0  0  0  0  0  0  0  0  0
   -2.0560   10.3580   -5.4500 C   0  0  0  0  0  0  0  0  0  0  0  0
    0.3850   17.8890   -4.8720 C   0  0  0  0  0  0  0  0  0  0  0  0
   -2.3570   16.6060   -5.5170 C   0  0  0  0  0  0  0  0  0  0  0  0
   -1.2740    8.7570   -7.8030 C   0  0  0  0  0  0  0  0  0  0  0  0
   -2.8690    9.1290   -5.8520 C   0  0  0  0  0  0  0  0  0  0  0  0
   -0.8910   18.6640   -5.2530 C   0  0  0  0  0  0  0  0  0  0  0  0
   -1.8880   17.9160   -6.1320 C   0  0  0  0  0  0  0  0  0  0  0  0
   -2.7290    8.8190   -7.3410 C   0  0  0  0  0  0  0  0  0  0  0  0
  2  1  1  6
  2  3  1  0
  2  4  1  0
  2  5  1  0
  4  6  1  1
  4  7  1  0
  5  8  1  6
  5  9  1  0
  7 10  1  0
 11  8  1  1
  9 12  1  0
 11 12  1  0
 10 13  1  0
 10 14  1  0
 11 15  1  0
 12 16  1  6
 13 17  1  0
 14 18  1  0
 15 19  1  0
 16 20  1  0
 19 20  1  0
 17 21  1  0
 18 21  1  0
M  CHG  1   1  -1
M  END
