ucsf387-ucsf123
     RDKit          3D

 15 15  0  0  0  0  0  0  0  0999 V2000
    0.9800   18.1080   -4.5960 Cl  0  0  0  0  0  0  0  0  0  0  0  0
    0.4090   16.5040   -5.1640 C   0  0  2  0  0  0  0  0  0  0  0  0
   -1.1170   16.5790   -4.9900 C   0  0  1  0  0  0  0  0  0  0  0  0
    1.1520   15.3660   -4.4100 C   0  0  0  0  0  0  0  0  0  0  0  0
   -2.0330   17.7120   -5.9810 S   0  0  1  0  0  0  0  0  0  0  0  0
    0.2140   14.2480   -3.9240 C   0  0  2  0  0  0  0  0  0  0  0  0
   -1.8750   15.2760   -4.7840 C   0  0  1  0  0  0  0  0  0  0  0  0
   -3.3400   15.1550   -5.8340 Cl  0  0  0  0  0  0  0  0  0  0  0  0
    0.9010   12.8890   -3.5640 C   0  0  0  0  0  0  0  0  0  0  0  0
   -2.1240   19.2090   -5.2330 N   0  0  0  0  0  0  0  0  0  0  0  0
   -1.0980   17.9810   -7.2480 O   0  0  0  0  0  0  0  0  0  0  0  0
   -0.9400   14.0930   -4.9140 C   0  0  0  0  0  0  0  0  0  0  0  0
    0.1550   12.0370   -2.4860 C   0  0  1  0  0  0  0  0  0  0  0  0
    0.5670   10.7820   -2.3740 O   0  0  0  0  0  0  0  0  0  0  0  0
    0.4210   12.5510   -1.2030 O   0  0  0  0  0  0  0  0  0  0  0  0
  2  1  1  1
  2  3  1  0
  2  4  1  0
  3  5  1  6
  4  6  1  0
  3  7  1  0
  7  8  1  6
  6  9  1  6
  5 10  1  1
  5 11  1  0
  6 12  1  0
  7 12  1  0
  9 13  1  0
 13 14  1  1
 13 15  1  0
M  CHG  1  14  -1
M  END
