ucsf278-ucsf364
     RDKit          3D

 16 18  0  0  0  0  0  0  0  0999 V2000
    0.2630   13.5950   -1.6360 C   0  0  0  0  0  0  0  0  0  0  0  0
    0.1940   12.1890   -2.3170 C   0  0  2  0  0  0  0  0  0  0  0  0
    0.7680   11.2980   -1.5250 O   0  0  0  0  0  0  0  0  0  0  0  0
    0.7780   14.4330   -2.7820 C   0  0  1  0  0  0  0  0  0  0  0  0
    0.8190   12.3530   -3.6410 C   0  0  2  0  0  0  0  0  0  0  0  0
    0.2180   13.6650   -3.9080 C   0  0  2  0  0  0  0  0  0  0  0  0
    0.2060   15.7620   -2.9100 C   0  0  0  0  0  0  0  0  0  0  0  0
    0.3320   11.7480   -4.9410 C   0  0  1  0  0  0  0  0  0  0  0  0
    0.6850   14.0250   -5.2990 C   0  0  2  0  0  0  0  0  0  0  0  0
    0.7170   16.3740   -4.1930 C   0  0  0  0  0  0  0  0  0  0  0  0
   -1.1380   11.8870   -5.3630 C   0  0  0  0  0  0  0  0  0  0  0  0
    1.3560   12.6680   -5.6450 C   0  0  1  0  0  0  0  0  0  0  0  0
    1.4280   15.3490   -5.0930 C   0  0  0  0  0  0  0  0  0  0  0  0
   -1.8170   10.6260   -5.3220 O   0  0  0  0  0  0  0  0  0  0  0  0
    2.7150   12.7980   -4.9610 C   0  0  0  0  0  0  0  0  0  0  0  0
    1.5410   12.2000   -6.9740 O   0  0  0  0  0  0  0  0  0  0  0  0
  1  2  1  0
  2  3  1  1
  4  1  1  1
  5  2  1  1
  6  4  1  1
  5  6  1  0
  4  7  1  0
  5  8  1  0
  6  9  1  0
  7 10  1  0
  8 11  1  6
  8 12  1  0
  9 12  1  0
  9 13  1  1
 10 13  1  0
 11 14  1  0
 12 15  1  1
 12 16  1  0
M  CHG  1   3  -1
M  END
