ucsf422-ucsf403
     RDKit          3D

 23 25  0  0  0  0  0  0  0  0999 V2000
    0.0800   10.9320   -3.0310 O   0  0  0  0  0  0  0  0  0  0  0  0
    1.0120   11.8500   -3.1670 C   0  0  2  0  0  0  0  0  0  0  0  0
    0.6630   12.6730   -2.0660 O   0  0  0  0  0  0  0  0  0  0  0  0
    1.0380   12.7090   -4.4870 C   0  0  1  0  0  0  0  0  0  0  0  0
    0.2230   12.2050   -5.6380 O   0  0  0  0  0  0  0  0  0  0  0  0
    0.7270   14.1840   -4.0810 C   0  0  1  0  0  0  0  0  0  0  0  0
    1.9440   15.0800   -3.9550 C   0  0  0  0  0  0  0  0  0  0  0  0
   -0.3980   15.1320   -4.4990 C   0  0  1  0  0  0  0  0  0  0  0  0
   -0.4750   10.9400   -5.5280 C   0  0  1  0  0  0  0  0  0  0  0  0
    1.5310   16.4350   -4.3770 N   0  0  0  0  0  0  0  0  0  0  0  0
    0.3320   16.2700   -5.1730 C   0  0  2  0  0  0  0  0  0  0  0  0
   -1.7030   14.7120   -5.1380 C   0  0  0  0  0  0  0  0  0  0  0  0
   -1.9540   11.2450   -5.1720 C   0  0  2  0  0  0  0  0  0  0  0  0
   -0.6140   10.1600   -6.8720 C   0  0  1  0  0  0  0  0  0  0  0  0
    0.8480    9.8030   -7.8380 Cl  0  0  0  0  0  0  0  0  0  0  0  0
   -2.1490   12.3250   -3.7650 Cl  0  0  0  0  0  0  0  0  0  0  0  0
   -0.5010   17.5310   -5.2860 C   0  0  0  0  0  0  0  0  0  0  0  0
   -2.6090   15.9380   -5.2430 C   0  0  2  0  0  0  0  0  0  0  0  0
   -2.8630   10.0130   -5.0050 C   0  0  0  0  0  0  0  0  0  0  0  0
   -1.3510    8.8290   -6.6450 C   0  0  0  0  0  0  0  0  0  0  0  0
   -4.1120   15.4980   -6.4110 Br  0  0  0  0  0  0  0  0  0  0  0  0
   -1.9520   17.2620   -5.7120 C   0  0  0  0  0  0  0  0  0  0  0  0
   -2.7870    9.0300   -6.1580 C   0  0  0  0  0  0  0  0  0  0  0  0
  2  1  1  6
  2  3  1  0
  2  4  1  0
  4  5  1  6
  4  6  1  0
  6  7  1  6
  6  8  1  0
  9  5  1  6
  7 10  1  0
  8 11  1  0
 10 11  1  0
  8 12  1  6
  9 13  1  0
  9 14  1  0
 14 15  1  1
 13 16  1  1
 11 17  1  1
 12 18  1  0
 13 19  1  0
 14 20  1  0
 18 21  1  6
 17 22  1  0
 18 22  1  0
 19 23  1  0
 20 23  1  0
M  CHG  1   1  -1
M  END
