ucsf385-ucsf584
     RDKit          3D

 21 23  0  0  0  0  0  0  0  0999 V2000
   -3.3950   13.2550   -0.9420 N   0  0  0  0  0  0  0  0  0  0  0  0
   -2.5260   14.3330   -0.4080 C   0  0  1  0  0  0  0  0  0  0  0  0
   -2.6380   14.3570    1.1460 C   0  0  0  0  0  0  0  0  0  0  0  0
   -1.0450   14.1560   -1.0100 C   0  0  1  0  0  0  0  0  0  0  0  0
   -3.2510   15.6330   -0.8200 C   0  0  2  0  0  0  0  0  0  0  0  0
   -0.7720   14.9190   -2.3310 C   0  0  1  0  0  0  0  0  0  0  0  0
    0.1000   14.4410   -0.0090 C   0  0  0  0  0  0  0  0  0  0  0  0
   -1.5060   14.9750    1.7520 N   0  0  0  0  0  0  0  0  0  0  0  0
   -4.5850   15.6910   -0.0470 C   0  0  0  0  0  0  0  0  0  0  0  0
   -3.5230   15.7540   -2.2610 N   0  0  0  0  0  0  0  0  0  0  0  0
    0.5420   14.6320   -2.7560 O   0  0  0  0  0  0  0  0  0  0  0  0
   -1.4520   14.3950   -3.3260 O   0  0  0  0  0  0  0  0  0  0  0  0
   -0.3180   14.2380    1.4340 C   0  0  0  0  0  0  0  0  0  0  0  0
   -4.3640   14.7100   -2.8160 C   0  0  0  0  0  0  0  0  0  0  0  0
   -5.8800   15.3890   -0.8370 C   0  0  2  0  0  0  0  0  0  0  0  0
   -7.0670   14.9440    0.0730 C   0  0  0  0  0  0  0  0  0  0  0  0
   -5.6320   14.4340   -2.0080 C   0  0  0  0  0  0  0  0  0  0  0  0
   -6.6860   14.7240    1.4700 N   0  0  0  0  0  0  0  0  0  0  0  0
   -7.8480   13.7860   -0.2140 N   0  0  0  0  0  0  0  0  0  0  0  0
   -8.7550   13.7410    0.9370 C   0  0  0  0  0  0  0  0  0  0  0  0
   -7.9590   14.3550    2.0860 C   0  0  0  0  0  0  0  0  0  0  0  0
  2  1  1  6
  2  3  1  0
  2  4  1  0
  2  5  1  0
  4  6  1  0
  4  7  1  1
  3  8  1  0
  5  9  1  1
  5 10  1  0
  6 11  1  6
  6 12  1  0
  7 13  1  0
  8 13  1  0
 10 14  1  0
  9 15  1  0
 15 16  1  1
 14 17  1  0
 15 17  1  0
 16 18  1  0
 16 19  1  0
 19 20  1  0
 18 21  1  0
 20 21  1  0
M  CHG  1  12  -1
M  END
