ucsf173-ucsf303
     RDKit          3D

 27 30  0  0  0  0  0  0  0  0999 V2000
    0.2370   12.8440   -1.3010 O   0  0  0  0  0  0  0  0  0  0  0  0
    0.5870   12.6280   -2.5560 C   0  0  1  0  0  0  0  0  0  0  0  0
    0.0470   11.3360   -2.7270 O   0  0  0  0  0  0  0  0  0  0  0  0
   -0.0030   13.6100   -3.6470 C   0  0  1  0  0  0  0  0  0  0  0  0
   -1.2940   14.4590   -3.3710 C   0  0  2  0  0  0  0  0  0  0  0  0
    1.0180   14.7180   -4.1070 C   0  0  0  0  0  0  0  0  0  0  0  0
   -2.5560   13.7650   -3.4230 O   0  0  0  0  0  0  0  0  0  0  0  0
   -1.1730   15.3810   -4.5860 C   0  0  2  0  0  0  0  0  0  0  0  0
    0.1660   15.9940   -4.1940 C   0  0  2  0  0  0  0  0  0  0  0  0
   -3.8630   14.2890   -2.6120 S   0  0  1  0  0  0  0  0  0  0  0  0
   -2.3020   16.3680   -4.8900 C   0  0  0  0  0  0  0  0  0  0  0  0
    0.6110   17.1170   -5.1100 C   0  0  0  0  0  0  0  0  0  0  0  0
   -4.4760   15.5600   -3.3090 O   0  0  0  0  0  0  0  0  0  0  0  0
   -5.0910   13.2100   -2.3550 N   0  0  0  0  0  0  0  0  0  0  0  0
   -1.8270   17.6030   -5.6790 C   0  0  0  0  0  0  0  0  0  0  0  0
   -0.4860   18.1690   -5.2260 C   0  0  0  0  0  0  0  0  0  0  0  0
   -3.2610   15.0170   -1.1260 C   0  0  0  0  0  0  0  0  0  0  0  0
   -4.8140   12.0180   -1.6160 C   0  0  1  0  0  0  0  0  0  0  0  0
   -1.9270   14.4160   -0.6730 C   0  0  0  0  0  0  0  0  0  0  0  0
   -4.3410   15.0600   -0.0320 C   0  0  0  0  0  0  0  0  0  0  0  0
   -5.9300   11.0920   -1.8260 N   0  0  0  0  0  0  0  0  0  0  0  0
   -3.3220   11.3060   -2.3420 S   0  0  0  0  0  0  0  0  0  0  0  0
   -2.0570   13.8910    0.7180 C   0  0  0  0  0  0  0  0  0  0  0  0
   -3.7980   15.6540    1.2550 C   0  0  0  0  0  0  0  0  0  0  0  0
   -4.1450    9.7800   -2.7610 C   0  0  0  0  0  0  0  0  0  0  0  0
   -5.4400    9.7190   -2.0800 N   0  0  0  0  0  0  0  0  0  0  0  0
   -2.5150   14.9490    1.6670 C   0  0  0  0  0  0  0  0  0  0  0  0
  2  1  1  1
  2  3  1  0
  2  4  1  0
  4  5  1  0
  4  6  1  1
  5  7  1  6
  5  8  1  0
  9  6  1  6
  8  9  1  0
 10  7  1  0
  8 11  1  1
  9 12  1  0
 10 13  1  6
 10 14  1  0
 11 15  1  0
 12 16  1  0
 15 16  1  0
 10 17  1  0
 18 14  1  6
 17 19  1  0
 17 20  1  0
 18 21  1  0
 18 22  1  0
 19 23  1  0
 20 24  1  0
 22 25  1  0
 21 26  1  0
 25 26  1  0
 23 27  1  0
 24 27  1  0
M  CHG  1   1  -1
M  END
