ucsf115-ucsf004
     RDKit          3D

 22 25  0  0  0  0  0  0  0  0999 V2000
   -1.1240   12.3200   -2.2920 C   0  0  0  0  0  0  0  0  0  0  0  0
   -2.3500   12.6270   -2.5400 N   0  0  0  0  0  0  0  0  0  0  0  0
   -2.1450   14.5350   -1.9930 S   0  0  0  0  0  0  0  0  0  0  0  0
   -0.2070   12.4410   -3.4390 C   0  0  2  0  0  0  0  0  0  0  0  0
   -0.4360   11.6060   -4.4650 O   0  0  0  0  0  0  0  0  0  0  0  0
    0.9920   11.8740   -2.7920 C   0  0  0  0  0  0  0  0  0  0  0  0
    0.3040   10.5730   -2.5070 C   0  0  0  0  0  0  0  0  0  0  0  0
   -0.4870   10.3600   -3.7990 C   0  0  0  0  0  0  0  0  0  0  0  0
   -1.4200   14.2210   -0.4730 N   0  0  0  0  0  0  0  0  0  0  0  0
   -3.2610   15.1230   -0.6880 C   0  0  2  0  0  0  0  0  0  0  0  0
   -2.3050   15.3320   -3.6850 C   0  0  0  0  0  0  0  0  0  0  0  0
   -0.4530   14.9070   -2.7350 C   0  0  0  0  0  0  0  0  0  0  0  0
   -0.8910   14.8760    0.5160 C   0  0  0  0  0  0  0  0  0  0  0  0
   -3.0890   14.6530    0.6650 C   0  0  1  0  0  0  0  0  0  0  0  0
   -4.6620   15.0730   -0.9330 N   0  0  0  0  0  0  0  0  0  0  0  0
   -1.8630   14.2600   -4.5680 C   0  0  1  0  0  0  0  0  0  0  0  0
   -0.2550   15.4440   -4.0650 C   0  0  0  0  0  0  0  0  0  0  0  0
   -2.6440   13.7540   -5.5830 F   0  0  0  0  0  0  0  0  0  0  0  0
   -2.0040   15.3840    1.3420 N   0  0  0  0  0  0  0  0  0  0  0  0
   -4.2960   15.1260    1.2890 N   0  0  0  0  0  0  0  0  0  0  0  0
   -5.2570   14.7420    0.3070 C   0  0  0  0  0  0  0  0  0  0  0  0
   -0.4260   14.2390   -5.0040 C   0  0  0  0  0  0  0  0  0  0  0  0
  1  2  1  0
  2  3  1  0
  4  1  1  1
  4  5  1  0
  4  6  1  0
  6  7  1  0
  5  8  1  0
  7  8  1  0
  3  9  1  0
  3 10  1  0
  3 11  1  0
  3 12  1  0
  9 13  1  0
 10 14  1  0
 10 15  1  6
 11 16  1  0
 12 17  1  0
 16 18  1  6
 13 19  1  0
 14 19  1  1
 14 20  1  0
 15 21  1  0
 20 21  1  0
 16 22  1  0
 17 22  1  0
M  END
