ucsf424-ucsf371
     RDKit          3D

 23 25  0  0  0  0  0  0  0  0999 V2000
    1.2480   12.6020   -2.4050 O   0  0  0  0  0  0  0  0  0  0  0  0
    0.5820   12.0160   -3.3770 C   0  0  1  0  0  0  0  0  0  0  0  0
   -0.7520   12.1430   -2.9240 O   0  0  0  0  0  0  0  0  0  0  0  0
    0.7590   12.6560   -4.8100 C   0  0  2  0  0  0  0  0  0  0  0  0
    0.3560   14.1590   -4.9440 C   0  0  0  0  0  0  0  0  0  0  0  0
    0.4610   11.6460   -5.9630 C   0  0  2  0  0  0  0  0  0  0  0  0
   -0.8920   14.4880   -4.2890 O   0  0  0  0  0  0  0  0  0  0  0  0
    0.0810   12.0670   -7.3000 N   0  0  0  0  0  0  0  0  0  0  0  0
   -0.4530   10.4240   -5.8260 C   0  0  2  0  0  0  0  0  0  0  0  0
   -0.7440   14.8940   -2.9050 C   0  0  1  0  0  0  0  0  0  0  0  0
    0.3150   10.8300   -8.0360 O   0  0  0  0  0  0  0  0  0  0  0  0
   -0.2010    9.7860   -7.2000 C   0  0  2  0  0  0  0  0  0  0  0  0
   -1.9530   10.5970   -5.5590 C   0  0  0  0  0  0  0  0  0  0  0  0
   -0.4820   16.1820   -2.8290 O   0  0  0  0  0  0  0  0  0  0  0  0
   -1.4150    9.1650   -7.8720 C   0  0  0  0  0  0  0  0  0  0  0  0
   -2.7590    9.3120   -5.7000 C   0  0  0  0  0  0  0  0  0  0  0  0
   -2.1140   14.6210   -2.2050 C   0  0  2  0  0  0  0  0  0  0  0  0
   -2.3190    8.4440   -6.8770 C   0  0  0  0  0  0  0  0  0  0  0  0
   -3.3530   15.1500   -2.9580 C   0  0  0  0  0  0  0  0  0  0  0  0
   -2.3760   15.4150   -0.5730 S   0  0  0  0  0  0  0  0  0  0  0  0
   -4.0570   14.8090   -0.6930 C   0  0  2  0  0  0  0  0  0  0  0  0
   -4.5440   15.1580   -2.0370 N   0  0  0  0  0  0  0  0  0  0  0  0
   -4.9300   15.3930    0.3980 C   0  0  0  0  0  0  0  0  0  0  0  0
  2  1  1  1
  2  3  1  0
  2  4  1  0
  4  5  1  1
  4  6  1  0
  5  7  1  0
  6  8  1  6
  6  9  1  0
  7 10  1  0
  8 11  1  0
  9 12  1  0
 11 12  1  0
  9 13  1  6
 10 14  1  6
 12 15  1  6
 13 16  1  0
 10 17  1  0
 15 18  1  0
 16 18  1  0
 17 19  1  6
 17 20  1  0
 20 21  1  0
 19 22  1  0
 21 22  1  0
 21 23  1  1
M  CHG  2   1  -1  14  -1
M  END
