ucsf520-ucsf516
     RDKit          3D

 24 28  0  0  0  0  0  0  0  0999 V2000
   -4.1660   15.4210    1.5660 N   0  0  0  0  0  0  0  0  0  0  0  0
   -3.4750   15.5530    0.3030 C   0  0  1  0  0  0  0  0  0  0  0  0
   -2.1930   14.6850    0.2040 C   0  0  1  0  0  0  0  0  0  0  0  0
   -4.5280   15.2880   -0.6600 N   0  0  0  0  0  0  0  0  0  0  0  0
   -4.1060   15.1290   -2.0380 C   0  0  0  0  0  0  0  0  0  0  0  0
   -1.9850   14.2930   -1.2650 C   0  0  1  0  0  0  0  0  0  0  0  0
   -0.9330   15.3440    0.6440 N   0  0  0  0  0  0  0  0  0  0  0  0
   -2.6670   15.2350   -2.1730 N   0  0  0  0  0  0  0  0  0  0  0  0
   -0.4580   14.3300   -1.5010 C   0  0  1  0  0  0  0  0  0  0  0  0
    0.1340   14.6360   -0.1020 C   0  0  0  0  0  0  0  0  0  0  0  0
   -2.2170   15.3980   -3.5960 C   0  0  0  0  0  0  0  0  0  0  0  0
    0.1070   13.1990   -2.3860 C   0  0  2  0  0  0  0  0  0  0  0  0
   -0.2370   15.3830   -2.6020 C   0  0  0  0  0  0  0  0  0  0  0  0
   -1.1350   16.5150   -3.8600 C   0  0  2  0  0  0  0  0  0  0  0  0
    1.3750   13.5120   -3.1760 C   0  0  0  0  0  0  0  0  0  0  0  0
   -0.9460   13.2210   -3.4760 C   0  0  0  0  0  0  0  0  0  0  0  0
   -0.8170   14.6800   -3.8720 C   0  0  0  0  0  0  0  0  0  0  0  0
   -1.8000   17.6850   -4.4140 O   0  0  0  0  0  0  0  0  0  0  0  0
    0.0010   16.1950   -4.8580 C   0  0  0  0  0  0  0  0  0  0  0  0
    2.7010   12.7980   -2.9130 C   0  0  0  0  0  0  0  0  0  0  0  0
    1.4260   12.8070   -4.5630 C   0  0  0  0  0  0  0  0  0  0  0  0
    0.3460   17.5570   -5.3870 C   0  0  0  0  0  0  0  0  0  0  0  0
   -1.0300   18.1600   -5.5240 C   0  0  0  0  0  0  0  0  0  0  0  0
    2.1790   11.6870   -3.8390 C   0  0  0  0  0  0  0  0  0  0  0  0
  2  1  1  1
  2  3  1  0
  2  4  1  0
  4  5  1  0
  3  6  1  0
  3  7  1  6
  5  8  1  0
  6  8  1  6
  6  9  1  0
  7 10  1  0
  9 10  1  1
  8 11  1  0
  9 12  1  0
  9 13  1  0
 14 11  1  6
 12 15  1  6
 12 16  1  0
 13 17  1  0
 16 17  1  0
 14 18  1  0
 14 19  1  0
 15 20  1  0
 15 21  1  0
 19 22  1  0
 18 23  1  0
 22 23  1  0
 20 24  1  0
 21 24  1  0
M  END
