ucsf124-ucsf005
     RDKit          3D

 29 32  0  0  0  0  0  0  0  0999 V2000
    1.0730   11.2240   -2.5490 O   0  0  0  0  0  0  0  0  0  0  0  0
    1.2670   12.1810   -3.4260 C   0  0  2  0  0  0  0  0  0  0  0  0
    1.4560   13.2720   -2.5510 O   0  0  0  0  0  0  0  0  0  0  0  0
   -0.0790   12.3340   -4.1900 C   0  0  1  0  0  0  0  0  0  0  0  0
   -0.9050   13.5740   -3.8280 C   0  0  0  0  0  0  0  0  0  0  0  0
   -0.3990   11.9310   -5.5790 N   0  0  0  0  0  0  0  0  0  0  0  0
   -0.4020   14.9760   -4.1300 C   0  0  0  0  0  0  0  0  0  0  0  0
   -1.3950   10.9010   -5.4000 C   0  0  1  0  0  0  0  0  0  0  0  0
    0.5550   11.3530   -6.5240 C   0  0  2  0  0  0  0  0  0  0  0  0
   -2.5790   11.4920   -4.9210 O   0  0  0  0  0  0  0  0  0  0  0  0
    0.5400   12.2300   -7.6070 O   0  0  0  0  0  0  0  0  0  0  0  0
   -1.1690   15.9010   -3.1980 C   0  0  0  0  0  0  0  0  0  0  0  0
   -1.5390   10.2560   -6.7480 C   0  0  1  0  0  0  0  0  0  0  0  0
   -0.0640   10.0040   -6.9910 C   0  0  1  0  0  0  0  0  0  0  0  0
   -2.3640    8.9830   -6.8280 C   0  0  0  0  0  0  0  0  0  0  0  0
    0.2490    9.4880   -8.3940 C   0  0  0  0  0  0  0  0  0  0  0  0
   -1.9670   15.1270   -2.2220 N   0  0  0  0  0  0  0  0  0  0  0  0
   -1.7370    7.9880   -7.8080 C   0  0  0  0  0  0  0  0  0  0  0  0
   -0.9010    8.6310   -8.9260 C   0  0  0  0  0  0  0  0  0  0  0  0
   -3.3730   15.1270   -2.6180 C   0  0  0  0  0  0  0  0  0  0  0  0
   -1.9360   15.6100   -0.8480 C   0  0  1  0  0  0  0  0  0  0  0  0
   -4.0870   14.6460   -1.4500 N   0  0  0  0  0  0  0  0  0  0  0  0
   -3.3950   15.3820   -0.3780 C   0  0  1  0  0  0  0  0  0  0  0  0
   -0.8140   15.0620   -0.0750 N   0  0  0  0  0  0  0  0  0  0  0  0
   -3.4580   14.7090    0.9920 C   0  0  2  0  0  0  0  0  0  0  0  0
   -1.1610   14.1580    0.9580 C   0  0  1  0  0  0  0  0  0  0  0  0
   -4.4180   15.4110    1.8180 N   0  0  0  0  0  0  0  0  0  0  0  0
   -0.0580   14.1680    1.8730 N   0  0  0  0  0  0  0  0  0  0  0  0
   -2.2270   14.6920    1.7300 N   0  0  0  0  0  0  0  0  0  0  0  0
  2  1  1  1
  2  3  1  0
  2  4  1  0
  4  5  1  6
  4  6  1  0
  5  7  1  0
  6  8  1  0
  6  9  1  0
  8 10  1  6
  9 11  1  6
  7 12  1  0
  8 13  1  0
  9 14  1  0
 13 14  1  0
 13 15  1  1
 14 16  1  6
 12 17  1  0
 15 18  1  0
 16 19  1  0
 18 19  1  0
 17 20  1  0
 17 21  1  0
 20 22  1  0
 21 23  1  0
 23 22  1  6
 21 24  1  1
 23 25  1  0
 24 26  1  0
 25 27  1  1
 26 28  1  1
 25 29  1  0
 26 29  1  0
M  CHG  1   1  -1
M  END
