ucsf005-ucsf172
     RDKit          3D

 18 19  0  0  0  0  0  0  0  0999 V2000
   -1.5640   14.2390   -3.4830 C   0  0  2  0  0  0  0  0  0  0  0  0
   -0.2410   14.2190   -3.0010 O   0  0  0  0  0  0  0  0  0  0  0  0
   -1.4670   14.9580   -4.5680 O   0  0  0  0  0  0  0  0  0  0  0  0
   -2.4790   14.8290   -2.5390 N   0  0  0  0  0  0  0  0  0  0  0  0
   -3.9140   14.7960   -2.7940 C   0  0  0  0  0  0  0  0  0  0  0  0
   -2.3500   14.4490   -1.1650 C   0  0  2  0  0  0  0  0  0  0  0  0
   -4.5950   14.6800   -1.4660 N   0  0  0  0  0  0  0  0  0  0  0  0
   -3.5330   15.2410   -0.6480 C   0  0  1  0  0  0  0  0  0  0  0  0
   -1.1660   14.8500   -0.4520 N   0  0  0  0  0  0  0  0  0  0  0  0
   -3.5610   15.2550    0.9080 C   0  0  1  0  0  0  0  0  0  0  0  0
   -1.2270   14.1900    0.7820 C   0  0  1  0  0  0  0  0  0  0  0  0
   -4.8490   14.9770    1.6030 N   0  0  0  0  0  0  0  0  0  0  0  0
   -0.1580   14.7190    1.5450 N   0  0  0  0  0  0  0  0  0  0  0  0
   -2.4650   14.4540    1.5440 N   0  0  0  0  0  0  0  0  0  0  0  0
   -6.3670   14.4550    1.1180 S   0  0  0  0  0  0  0  0  0  0  0  0
   -7.7060   14.7880    2.2090 C   0  0  0  0  0  0  0  0  0  0  0  0
   -6.4110   12.8590    1.0690 O   0  0  0  0  0  0  0  0  0  0  0  0
   -6.9100   14.9610   -0.3000 O   0  0  0  0  0  0  0  0  0  0  0  0
  1  2  1  1
  1  3  1  0
  1  4  1  0
  4  5  1  0
  4  6  1  0
  5  7  1  0
  6  8  1  0
  8  7  1  6
  6  9  1  1
  8 10  1  0
  9 11  1  0
 10 12  1  6
 11 13  1  1
 10 14  1  0
 11 14  1  0
 12 15  1  0
 15 16  1  0
 15 17  1  0
 15 18  1  0
M  CHG  1   3  -1
M  END
