ucsf243-ucsf241
     RDKit          3D

 18 20  0  0  0  0  0  0  0  0999 V2000
   -4.1470   16.1310    0.4650 C   0  0  0  0  0  0  0  0  0  0  0  0
   -3.7430   15.1280   -0.6110 C   0  0  1  0  0  0  0  0  0  0  0  0
   -4.4970   15.3830   -1.9200 C   0  0  0  0  0  0  0  0  0  0  0  0
   -2.2080   14.7420   -0.6480 C   0  0  2  0  0  0  0  0  0  0  0  0
   -4.3520   13.8570   -0.0250 C   0  0  0  0  0  0  0  0  0  0  0  0
   -1.8750   14.0100   -2.0250 C   0  0  2  0  0  0  0  0  0  0  0  0
   -3.8330   15.0190   -3.2500 C   0  0  0  0  0  0  0  0  0  0  0  0
   -2.2390   14.0230    0.7070 C   0  0  2  0  0  0  0  0  0  0  0  0
   -3.5600   13.6700    1.1640 N   0  0  0  0  0  0  0  0  0  0  0  0
   -0.9960   15.7150   -0.4910 C   0  0  0  0  0  0  0  0  0  0  0  0
   -0.4820   13.2990   -2.2370 C   0  0  1  0  0  0  0  0  0  0  0  0
   -2.3300   14.8550   -3.2220 C   0  0  2  0  0  0  0  0  0  0  0  0
    0.2230   14.9880    0.1260 C   0  0  0  0  0  0  0  0  0  0  0  0
   -1.5100   14.5950    1.7330 N   0  0  0  0  0  0  0  0  0  0  0  0
   -1.8720   14.3300   -4.4690 O   0  0  0  0  0  0  0  0  0  0  0  0
    0.3550   14.1990   -2.9610 O   0  0  0  0  0  0  0  0  0  0  0  0
    0.2230   13.1160   -1.1270 O   0  0  0  0  0  0  0  0  0  0  0  0
   -0.1520   14.2980    1.4250 C   0  0  0  0  0  0  0  0  0  0  0  0
  2  1  1  1
  2  3  1  0
  2  4  1  0
  2  5  1  0
  4  6  1  0
  3  7  1  0
  4  8  1  0
  5  9  1  0
  8  9  1  1
  4 10  1  1
  6 11  1  6
  6 12  1  0
  7 12  1  0
 10 13  1  0
  8 14  1  0
 12 15  1  6
 11 16  1  6
 11 17  1  0
 13 18  1  0
 14 18  1  0
M  CHG  1  17  -1
M  END
