ucsf017-ucsf006
     RDKit          3D

 25 28  0  0  0  0  0  0  0  0999 V2000
   -2.1990   16.0570   -2.8880 C   0  0  0  0  0  0  0  0  0  0  0  0
   -0.9350   15.5180   -2.3880 N   0  0  0  0  0  0  0  0  0  0  0  0
    0.0160   15.5000   -3.5590 C   0  0  0  0  0  0  0  0  0  0  0  0
   -1.0590   14.4400   -1.3790 C   0  0  1  0  0  0  0  0  0  0  0  0
    1.2870   14.6220   -3.4540 C   0  0  0  0  0  0  0  0  0  0  0  0
   -0.8580   13.2860   -2.2460 N   0  0  0  0  0  0  0  0  0  0  0  0
    0.0560   14.5670   -0.4200 N   0  0  0  0  0  0  0  0  0  0  0  0
   -2.4060   14.4090   -0.5870 C   0  0  1  0  0  0  0  0  0  0  0  0
    1.5800   13.5150   -4.5220 C   0  0  2  0  0  0  0  0  0  0  0  0
   -1.1910   13.5130   -3.6590 C   0  0  2  0  0  0  0  0  0  0  0  0
    0.3380   12.4550   -2.1110 C   0  0  0  0  0  0  0  0  0  0  0  0
   -0.1600   14.4460    1.0140 C   0  0  0  0  0  0  0  0  0  0  0  0
   -2.3240   15.3960    0.5280 C   0  0  2  0  0  0  0  0  0  0  0  0
   -3.7960   14.6610   -1.1550 C   0  0  0  0  0  0  0  0  0  0  0  0
    0.4380   13.2390   -5.3290 O   0  0  0  0  0  0  0  0  0  0  0  0
    1.8800   12.3960   -3.9030 O   0  0  0  0  0  0  0  0  0  0  0  0
   -2.4750   14.1720   -4.1750 C   0  0  0  0  0  0  0  0  0  0  0  0
   -1.3750   12.2130   -4.4220 C   0  0  1  0  0  0  0  0  0  0  0  0
    0.0540   11.0850   -2.7360 C   0  0  0  0  0  0  0  0  0  0  0  0
   -1.4090   14.9830    1.5260 N   0  0  0  0  0  0  0  0  0  0  0  0
   -3.6430   15.4730    1.1260 N   0  0  0  0  0  0  0  0  0  0  0  0
   -4.5670   15.3220   -0.0050 C   0  0  0  0  0  0  0  0  0  0  0  0
   -1.6290   12.7660   -5.8150 C   0  0  0  0  0  0  0  0  0  0  0  0
   -2.4790   13.9070   -5.6030 O   0  0  0  0  0  0  0  0  0  0  0  0
   -0.2630   11.1950   -4.2280 C   0  0  0  0  0  0  0  0  0  0  0  0
  1  2  1  0
  2  3  1  0
  4  2  1  6
  3  5  1  0
  4  6  1  0
  4  7  1  0
  4  8  1  0
  5  9  1  0
  6 10  1  0
  6 11  1  0
  7 12  1  0
  8 13  1  0
  8 14  1  6
  9 15  1  1
  9 16  1  0
 10 17  1  1
 10 18  1  0
 11 19  1  0
 12 20  1  0
 13 20  1  1
 13 21  1  0
 14 22  1  0
 21 22  1  0
 18 23  1  6
 17 24  1  0
 23 24  1  0
 18 25  1  0
 19 25  1  0
M  CHG  1  16  -1
M  END
