ucsf173-ucsf422
     RDKit          3D

 14 15  0  0  0  0  0  0  0  0999 V2000
    1.6400   12.7370   -2.3470 O   0  0  0  0  0  0  0  0  0  0  0  0
    0.3600   12.7000   -2.5840 C   0  0  2  0  0  0  0  0  0  0  0  0
    0.1290   11.3150   -2.6260 O   0  0  0  0  0  0  0  0  0  0  0  0
   -0.0360   13.3700   -3.9130 C   0  0  1  0  0  0  0  0  0  0  0  0
   -1.4110   14.0810   -3.8130 C   0  0  0  0  0  0  0  0  0  0  0  0
    0.8890   14.4460   -4.5410 C   0  0  2  0  0  0  0  0  0  0  0  0
    2.2770   14.4500   -3.9960 C   0  0  0  0  0  0  0  0  0  0  0  0
   -1.2360   15.2600   -4.7540 C   0  0  2  0  0  0  0  0  0  0  0  0
    0.1120   15.7690   -4.3140 C   0  0  2  0  0  0  0  0  0  0  0  0
   -2.3410   16.2700   -4.9380 C   0  0  2  0  0  0  0  0  0  0  0  0
    0.6110   17.0200   -5.0530 C   0  0  0  0  0  0  0  0  0  0  0  0
   -3.8050   15.4700   -5.9620 Br  0  0  0  0  0  0  0  0  0  0  0  0
   -1.9240   17.6090   -5.5960 C   0  0  0  0  0  0  0  0  0  0  0  0
   -0.4250   17.8460   -5.8440 C   0  0  0  0  0  0  0  0  0  0  0  0
  2  1  1  6
  2  3  1  0
  2  4  1  0
  4  5  1  1
  4  6  1  0
  6  7  1  1
  8  5  1  1
  6  9  1  0
  8  9  1  0
  8 10  1  0
  9 11  1  6
 10 12  1  6
 10 13  1  0
 11 14  1  0
 13 14  1  0
M  CHG  1   1  -1
M  END
