ucsf345-ucsf378
     RDKit          3D

 22 23  0  0  0  0  0  0  0  0999 V2000
   -6.9020   14.6560    1.7990 N   0  0  0  0  0  0  0  0  0  0  0  0
   -7.0970   14.6730    0.3640 C   0  0  2  0  0  0  0  0  0  0  0  0
   -8.0050   13.6600    0.0200 O   0  0  0  0  0  0  0  0  0  0  0  0
   -5.7950   14.5820   -0.4680 C   0  0  1  0  0  0  0  0  0  0  0  0
   -6.0250   15.1660   -1.8040 N   0  0  0  0  0  0  0  0  0  0  0  0
   -4.4970   15.0740    0.2310 C   0  0  0  0  0  0  0  0  0  0  0  0
   -5.0250   14.5540   -2.6480 C   0  0  0  0  0  0  0  0  0  0  0  0
   -3.4950   15.4830   -0.7690 N   0  0  0  0  0  0  0  0  0  0  0  0
   -3.6100   14.7530   -2.0690 C   0  0  2  0  0  0  0  0  0  0  0  0
   -2.8460   15.4460   -3.1630 C   0  0  0  0  0  0  0  0  0  0  0  0
   -2.1390   14.4780   -4.0830 C   0  0  0  0  0  0  0  0  0  0  0  0
   -0.6390   14.6320   -4.0080 C   0  0  1  0  0  0  0  0  0  0  0  0
    0.2680   13.4170   -4.3430 C   0  0  2  0  0  0  0  0  0  0  0  0
   -0.2530   15.9410   -4.6810 C   0  0  0  0  0  0  0  0  0  0  0  0
   -0.3190   12.1060   -3.7050 C   0  0  0  0  0  0  0  0  0  0  0  0
    1.6680   13.7030   -3.7860 C   0  0  1  0  0  0  0  0  0  0  0  0
    1.2310   16.1290   -4.6370 C   0  0  0  0  0  0  0  0  0  0  0  0
    2.9560   12.9410   -4.7590 Cl  0  0  0  0  0  0  0  0  0  0  0  0
    0.4580   11.5500   -2.4800 C   0  0  1  0  0  0  0  0  0  0  0  0
    1.9170   15.1970   -3.6440 C   0  0  0  0  0  0  0  0  0  0  0  0
   -0.0660   11.9800   -1.3450 O   0  0  0  0  0  0  0  0  0  0  0  0
    0.1870   10.1670   -2.4150 O   0  0  0  0  0  0  0  0  0  0  0  0
  2  1  1  1
  2  3  1  0
  2  4  1  0
  4  5  1  0
  4  6  1  1
  5  7  1  0
  6  8  1  0
  7  9  1  0
  8  9  1  0
  9 10  1  6
 10 11  1  0
 12 11  1  6
 12 13  1  0
 12 14  1  0
 13 15  1  1
 13 16  1  0
 14 17  1  0
 16 18  1  6
 15 19  1  0
 16 20  1  0
 17 20  1  0
 19 21  1  1
 19 22  1  0
M  CHG  1  21  -1
M  END
