ucsf303-ucsf110
     RDKit          3D

 20 22  0  0  0  0  0  0  0  0999 V2000
   -3.0150   13.6090   -3.7020 O   0  0  0  0  0  0  0  0  0  0  0  0
   -4.1320   14.0820   -2.6600 S   0  0  0  0  0  0  0  0  0  0  0  0
   -4.6800   15.4590   -3.2080 O   0  0  0  0  0  0  0  0  0  0  0  0
   -5.3710   13.0450   -2.4650 N   0  0  0  0  0  0  0  0  0  0  0  0
   -3.2530   14.5490   -1.1760 C   0  0  2  0  0  0  0  0  0  0  0  0
   -5.1680   11.6440   -2.6250 C   0  0  2  0  0  0  0  0  0  0  0  0
   -4.2590   14.3860   -0.0310 C   0  0  0  0  0  0  0  0  0  0  0  0
   -2.9180   15.9500   -1.4590 C   0  0  0  0  0  0  0  0  0  0  0  0
   -1.8170   13.9710   -1.1940 C   0  0  2  0  0  0  0  0  0  0  0  0
   -5.8370   10.9300   -1.5610 N   0  0  0  0  0  0  0  0  0  0  0  0
   -3.4340   11.2720   -2.3790 S   0  0  0  0  0  0  0  0  0  0  0  0
   -0.9460   14.1760    0.0510 C   0  0  0  0  0  0  0  0  0  0  0  0
   -3.9850   15.1790    1.1990 C   0  0  0  0  0  0  0  0  0  0  0  0
   -1.2710   14.5920   -2.4370 N   0  0  0  0  0  0  0  0  0  0  0  0
   -2.0720   15.7960   -2.7120 C   0  0  0  0  0  0  0  0  0  0  0  0
    0.1540   14.8900   -2.4520 C   0  0  0  0  0  0  0  0  0  0  0  0
   -3.9060    9.5710   -2.0270 C   0  0  0  0  0  0  0  0  0  0  0  0
   -5.3190    9.5520   -1.5920 N   0  0  0  0  0  0  0  0  0  0  0  0
   -1.4290   14.9400    1.2810 C   0  0  0  0  0  0  0  0  0  0  0  0
   -2.7930   14.6660    1.9110 C   0  0  0  0  0  0  0  0  0  0  0  0
  2  1  1  0
  2  3  1  0
  2  4  1  0
  5  2  1  6
  6  4  1  1
  5  7  1  0
  5  8  1  0
  5  9  1  0
  6 10  1  0
  6 11  1  0
  9 12  1  1
  7 13  1  0
  9 14  1  0
  8 15  1  0
 14 15  1  0
 14 16  1  0
 11 17  1  0
 10 18  1  0
 17 18  1  0
 12 19  1  0
 13 20  1  0
 19 20  1  0
M  END
