ucsf516-ucsf364
     RDKit          3D

 28 32  0  0  0  0  0  0  0  0999 V2000
    1.7430   13.2700   -5.2130 C   0  0  0  0  0  0  0  0  0  0  0  0
    0.8280   12.0410   -5.1940 C   0  0  2  0  0  0  0  0  0  0  0  0
    0.3000   11.9250   -6.6080 C   0  0  1  0  0  0  0  0  0  0  0  0
   -0.2720   12.0620   -4.0980 C   0  0  2  0  0  0  0  0  0  0  0  0
    1.3500   11.4490   -7.4510 O   0  0  0  0  0  0  0  0  0  0  0  0
    0.3650   12.3330   -2.7120 C   0  0  2  0  0  0  0  0  0  0  0  0
   -1.2550   10.9010   -4.1520 C   0  0  0  0  0  0  0  0  0  0  0  0
   -0.9630   11.0940   -6.8010 C   0  0  0  0  0  0  0  0  0  0  0  0
   -0.4240   12.0970   -1.6650 O   0  0  0  0  0  0  0  0  0  0  0  0
   -1.6290   10.4460   -5.5710 C   0  0  0  0  0  0  0  0  0  0  0  0
    0.9530   13.7840   -2.8070 C   0  0  0  0  0  0  0  0  0  0  0  0
    2.1620   13.6990   -3.8360 C   0  0  0  0  0  0  0  0  0  0  0  0
    2.1060   14.0240   -1.8150 C   0  0  0  0  0  0  0  0  0  0  0  0
   -0.0640   14.9190   -3.2500 C   0  0  1  0  0  0  0  0  0  0  0  0
    2.8850   13.0430   -2.7060 C   0  0  0  0  0  0  0  0  0  0  0  0
   -0.4080   14.9190   -4.7600 C   0  0  0  0  0  0  0  0  0  0  0  0
   -1.3630   14.9330   -2.5760 N   0  0  0  0  0  0  0  0  0  0  0  0
   -2.4410   14.5780   -3.4970 C   0  0  0  0  0  0  0  0  0  0  0  0
   -1.8960   14.6520   -4.9030 C   0  0  0  0  0  0  0  0  0  0  0  0
   -1.4620   14.3970   -1.2300 C   0  0  1  0  0  0  0  0  0  0  0  0
   -0.3330   14.9750   -0.5020 N   0  0  0  0  0  0  0  0  0  0  0  0
   -2.7780   14.3950   -0.4500 C   0  0  1  0  0  0  0  0  0  0  0  0
   -0.2930   14.6330    0.8770 C   0  0  0  0  0  0  0  0  0  0  0  0
   -2.6880   14.7250    1.0450 C   0  0  1  0  0  0  0  0  0  0  0  0
   -4.0000   15.1140   -0.9750 C   0  0  0  0  0  0  0  0  0  0  0  0
   -1.4330   15.2310    1.5040 N   0  0  0  0  0  0  0  0  0  0  0  0
   -3.6700   15.7740    1.2660 N   0  0  0  0  0  0  0  0  0  0  0  0
   -4.7090   15.5830    0.2680 C   0  0  0  0  0  0  0  0  0  0  0  0
  2  1  1  6
  2  3  1  0
  2  4  1  0
  3  5  1  6
  4  6  1  0
  4  7  1  1
  3  8  1  0
  6  9  1  1
  7 10  1  0
  8 10  1  0
  6 11  1  0
 11 12  1  0
 11 13  1  0
 14 11  1  1
 12 15  1  0
 13 15  1  0
 14 16  1  0
 14 17  1  0
 17 18  1  0
 16 19  1  0
 18 19  1  0
 20 17  1  6
 20 21  1  0
 20 22  1  0
 21 23  1  0
 22 24  1  0
 22 25  1  6
 23 26  1  0
 24 26  1  6
 24 27  1  0
 25 28  1  0
 27 28  1  0
M  CHG  1   9  -1
M  END
