ucsf303-ucsf278
     RDKit          3D

 27 30  0  0  0  0  0  0  0  0999 V2000
   -3.1210   14.0610   -3.4740 O   0  0  0  0  0  0  0  0  0  0  0  0
   -4.2260   14.4090   -2.3740 S   0  0  0  0  0  0  0  0  0  0  0  0
   -5.0870   15.5660   -2.9670 O   0  0  0  0  0  0  0  0  0  0  0  0
   -5.2370   13.1780   -2.0480 N   0  0  0  0  0  0  0  0  0  0  0  0
   -3.4290   15.1740   -1.0080 C   0  0  2  0  0  0  0  0  0  0  0  0
   -5.0270   11.8440   -2.4660 C   0  0  2  0  0  0  0  0  0  0  0  0
   -2.0060   14.7100   -0.6730 C   0  0  2  0  0  0  0  0  0  0  0  0
   -4.3610   15.0830    0.2100 C   0  0  0  0  0  0  0  0  0  0  0  0
   -0.9770   14.7650   -1.8270 C   0  0  0  0  0  0  0  0  0  0  0  0
   -5.8100   10.9330   -1.6440 N   0  0  0  0  0  0  0  0  0  0  0  0
   -3.3370   11.2980   -2.3360 S   0  0  0  0  0  0  0  0  0  0  0  0
   -2.0160   13.7800    0.4650 C   0  0  0  0  0  0  0  0  0  0  0  0
   -3.6440   15.4940    1.4720 C   0  0  0  0  0  0  0  0  0  0  0  0
   -3.9020    9.6010   -2.2870 C   0  0  0  0  0  0  0  0  0  0  0  0
   -5.3500    9.5880   -1.9960 N   0  0  0  0  0  0  0  0  0  0  0  0
   -2.4500   14.5660    1.6980 C   0  0  0  0  0  0  0  0  0  0  0  0
    0.0020   13.6730   -2.2360 C   0  0  1  0  0  0  0  0  0  0  0  0
   -0.2370   13.3590   -3.7310 C   0  0  2  0  0  0  0  0  0  0  0  0
    1.4130   14.2730   -2.1300 C   0  0  0  0  0  0  0  0  0  0  0  0
   -1.1200   12.1760   -4.0670 C   0  0  0  0  0  0  0  0  0  0  0  0
    1.0140   12.9780   -4.4870 C   0  0  1  0  0  0  0  0  0  0  0  0
    1.7780   15.0520   -3.4000 C   0  0  0  0  0  0  0  0  0  0  0  0
   -0.8580   12.0420   -5.5640 C   0  0  1  0  0  0  0  0  0  0  0  0
    0.5610   12.4130   -5.7640 N   0  0  0  0  0  0  0  0  0  0  0  0
    1.8890   14.1840   -4.6310 C   0  0  0  0  0  0  0  0  0  0  0  0
   -1.1120   10.6340   -6.1160 C   0  0  0  0  0  0  0  0  0  0  0  0
   -2.3410   10.1430   -5.5810 O   0  0  0  0  0  0  0  0  0  0  0  0
  2  1  1  0
  2  3  1  0
  2  4  1  0
  5  2  1  6
  6  4  1  1
  5  7  1  0
  5  8  1  0
  7  9  1  6
  6 10  1  0
  6 11  1  0
  7 12  1  0
  8 13  1  0
 11 14  1  0
 10 15  1  0
 14 15  1  0
 12 16  1  0
 13 16  1  0
 17  9  1  6
 17 18  1  0
 17 19  1  0
 18 20  1  1
 18 21  1  0
 19 22  1  0
 20 23  1  0
 21 24  1  0
 23 24  1  0
 21 25  1  6
 22 25  1  0
 23 26  1  1
 26 27  1  0
M  END
