ucsf385-ucsf345
     RDKit          3D

 19 20  0  0  0  0  0  0  0  0999 V2000
   -3.3640   13.3600   -1.1020 N   0  0  0  0  0  0  0  0  0  0  0  0
   -2.5500   14.4810   -0.5610 C   0  0  1  0  0  0  0  0  0  0  0  0
   -2.7450   14.3030    0.9910 C   0  0  0  0  0  0  0  0  0  0  0  0
   -1.0520   14.1930   -1.0580 C   0  0  1  0  0  0  0  0  0  0  0  0
   -3.4190   15.4800   -1.1230 N   0  0  0  0  0  0  0  0  0  0  0  0
   -0.4640   14.7830   -2.3880 C   0  0  1  0  0  0  0  0  0  0  0  0
    0.0380   14.5280    0.0030 C   0  0  0  0  0  0  0  0  0  0  0  0
   -1.6170   14.7360    1.8090 N   0  0  0  0  0  0  0  0  0  0  0  0
   -3.6080   15.3010   -2.5580 C   0  0  0  0  0  0  0  0  0  0  0  0
   -4.6780   15.6360   -0.3660 C   0  0  0  0  0  0  0  0  0  0  0  0
    0.6240   14.0250   -2.8540 O   0  0  0  0  0  0  0  0  0  0  0  0
   -1.2790   14.7620   -3.4140 O   0  0  0  0  0  0  0  0  0  0  0  0
   -0.3360   14.1890    1.4160 C   0  0  0  0  0  0  0  0  0  0  0  0
   -5.8070   14.6570   -0.7230 C   0  0  1  0  0  0  0  0  0  0  0  0
   -4.9070   14.5770   -2.9750 C   0  0  0  0  0  0  0  0  0  0  0  0
   -7.0980   14.7610    0.1430 C   0  0  2  0  0  0  0  0  0  0  0  0
   -6.1260   14.8000   -2.1740 N   0  0  0  0  0  0  0  0  0  0  0  0
   -6.8780   14.7020    1.5760 N   0  0  0  0  0  0  0  0  0  0  0  0
   -7.9500   13.6870   -0.2060 O   0  0  0  0  0  0  0  0  0  0  0  0
  2  1  1  6
  2  3  1  0
  2  4  1  0
  2  5  1  0
  4  6  1  0
  4  7  1  1
  3  8  1  0
  5  9  1  0
  5 10  1  0
  6 11  1  6
  6 12  1  0
  7 13  1  0
  8 13  1  0
 14 10  1  1
  9 15  1  0
 14 16  1  0
 14 17  1  0
 15 17  1  0
 16 18  1  1
 16 19  1  0
M  CHG  1  12  -1
M  END
