ucsf493-ucsf006
     RDKit          3D

 29 32  0  0  0  0  0  0  0  0999 V2000
   -4.4500   15.2970   -6.0670 C   0  0  0  0  0  0  0  0  0  0  0  0
   -3.7010   16.5050   -6.0820 O   0  0  0  0  0  0  0  0  0  0  0  0
   -2.6670   16.5330   -5.1000 C   0  0  1  0  0  0  0  0  0  0  0  0
   -2.0850   15.1250   -5.1230 C   0  0  0  0  0  0  0  0  0  0  0  0
   -1.6980   17.7070   -5.4130 C   0  0  0  0  0  0  0  0  0  0  0  0
   -0.6820   15.0820   -4.5660 C   0  0  2  0  0  0  0  0  0  0  0  0
   -0.3060   17.5480   -4.8090 C   0  0  0  0  0  0  0  0  0  0  0  0
    0.1940   16.1750   -5.1580 C   0  0  1  0  0  0  0  0  0  0  0  0
    0.1360   13.7980   -4.8140 C   0  0  2  0  0  0  0  0  0  0  0  0
    0.5490   12.8050   -3.7320 C   0  0  2  0  0  0  0  0  0  0  0  0
    1.5140   15.7700   -4.7610 N   0  0  0  0  0  0  0  0  0  0  0  0
    1.4520   14.3710   -5.2570 C   0  0  0  0  0  0  0  0  0  0  0  0
   -0.3470   11.7900   -2.9080 C   0  0  1  0  0  0  0  0  0  0  0  0
    1.3110   13.6460   -2.7270 C   0  0  0  0  0  0  0  0  0  0  0  0
    1.3800   11.9440   -4.5230 O   0  0  0  0  0  0  0  0  0  0  0  0
    0.1970   10.4930   -3.1400 O   0  0  0  0  0  0  0  0  0  0  0  0
   -0.1490   11.8820   -1.5960 O   0  0  0  0  0  0  0  0  0  0  0  0
    0.7150   15.0530   -2.5330 C   0  0  0  0  0  0  0  0  0  0  0  0
   -0.7590   15.1510   -2.2740 N   0  0  0  0  0  0  0  0  0  0  0  0
   -1.6230   14.0820   -2.7970 C   0  0  0  0  0  0  0  0  0  0  0  0
   -0.9670   15.3340   -0.8770 C   0  0  1  0  0  0  0  0  0  0  0  0
   -2.3950   15.5650   -0.4230 C   0  0  2  0  0  0  0  0  0  0  0  0
   -0.2380   14.3120   -0.1590 N   0  0  0  0  0  0  0  0  0  0  0  0
   -2.5510   14.7200    0.7760 C   0  0  1  0  0  0  0  0  0  0  0  0
   -0.2350   14.4670    1.2620 C   0  0  0  0  0  0  0  0  0  0  0  0
   -3.6920   15.2360   -1.1180 C   0  0  0  0  0  0  0  0  0  0  0  0
   -1.5230   14.9240    1.7360 N   0  0  0  0  0  0  0  0  0  0  0  0
   -3.8320   15.1410    1.2920 N   0  0  0  0  0  0  0  0  0  0  0  0
   -4.6370   15.4080    0.0730 C   0  0  0  0  0  0  0  0  0  0  0  0
  1  2  1  0
  3  2  1  6
  3  4  1  0
  3  5  1  0
  6  4  1  6
  5  7  1  0
  6  8  1  0
  8  7  1  1
  6  9  1  0
  9 10  1  0
  8 11  1  0
  9 12  1  1
 11 12  1  0
 10 13  1  0
 10 14  1  0
 10 15  1  6
 13 16  1  6
 13 17  1  0
 14 18  1  0
 18 19  1  0
 19 20  1  0
 21 19  1  6
 21 22  1  0
 21 23  1  0
 22 24  1  0
 23 25  1  0
 22 26  1  6
 24 27  1  1
 25 27  1  0
 24 28  1  0
 26 29  1  0
 28 29  1  0
M  CHG  1  17  -1
M  END
