ucsf248-ucsf320
     RDKit          3D

 17 18  0  0  0  0  0  0  0  0999 V2000
   -8.3200   12.7670    2.7380 N   0  0  0  0  0  0  0  0  0  0  0  0
   -8.3300   14.2970    2.1120 S   0  0  0  0  0  0  0  0  0  0  0  0
   -7.9840   15.3720    3.2480 O   0  0  0  0  0  0  0  0  0  0  0  0
   -9.7770   14.6880    1.5540 O   0  0  0  0  0  0  0  0  0  0  0  0
   -7.1400   14.6830    0.7810 C   0  0  1  0  0  0  0  0  0  0  0  0
   -5.7680   14.9280    1.3060 N   0  0  0  0  0  0  0  0  0  0  0  0
   -7.0280   13.6370   -0.1990 N   0  0  0  0  0  0  0  0  0  0  0  0
   -4.8450   14.1740    0.4260 C   0  0  1  0  0  0  0  0  0  0  0  0
   -5.7090   13.9480   -0.7700 C   0  0  2  0  0  0  0  0  0  0  0  0
   -3.4780   14.8090    0.0720 C   0  0  0  0  0  0  0  0  0  0  0  0
   -5.7410   15.1830   -1.6400 C   0  0  2  0  0  0  0  0  0  0  0  0
   -6.9440   15.1010   -2.4130 O   0  0  0  0  0  0  0  0  0  0  0  0
   -3.2730   15.4390   -1.3650 C   0  0  2  0  0  0  0  0  0  0  0  0
   -4.4160   15.1360   -2.3690 C   0  0  0  0  0  0  0  0  0  0  0  0
   -1.8970   15.1860   -2.0640 C   0  0  1  0  0  0  0  0  0  0  0  0
   -1.1810   14.3250   -1.3920 O   0  0  0  0  0  0  0  0  0  0  0  0
   -2.0670   14.5390   -3.3130 O   0  0  0  0  0  0  0  0  0  0  0  0
  1  2  1  0
  2  3  1  0
  2  4  1  0
  5  2  1  1
  5  6  1  0
  5  7  1  0
  6  8  1  0
  9  7  1  1
  8  9  1  0
  8 10  1  6
  9 11  1  0
 11 12  1  6
 13 10  1  1
 11 14  1  0
 13 14  1  0
 13 15  1  0
 15 16  1  1
 15 17  1  0
M  CHG  1  16  -1
M  END
