ucsf004-ucsf340
     RDKit          3D

 30 34  0  0  0  0  0  0  0  0999 V2000
   -2.4040   12.9730   -5.1650 F   0  0  0  0  0  0  0  0  0  0  0  0
   -1.6110   12.5930   -4.1280 C   0  0  1  0  0  0  0  0  0  0  0  0
   -0.1280   12.6490   -4.5580 C   0  0  1  0  0  0  0  0  0  0  0  0
   -1.9730   13.4680   -2.9050 C   0  0  0  0  0  0  0  0  0  0  0  0
   -1.0750   14.5980   -2.6830 N   0  0  0  0  0  0  0  0  0  0  0  0
    0.6250   13.9470   -4.4420 C   0  0  0  0  0  0  0  0  0  0  0  0
    0.7640   11.6680   -3.8980 C   0  0  0  0  0  0  0  0  0  0  0  0
   -0.3150   14.9250   -3.9030 C   0  0  2  0  0  0  0  0  0  0  0  0
   -0.9530   15.0830   -1.2980 C   0  0  2  0  0  0  0  0  0  0  0  0
    0.8330   11.5090   -2.3680 C   0  0  1  0  0  0  0  0  0  0  0  0
   -0.2300   14.1330   -0.4320 N   0  0  0  0  0  0  0  0  0  0  0  0
   -2.3010   15.4210   -0.6170 C   0  0  2  0  0  0  0  0  0  0  0  0
   -0.4330   16.2680   -4.4940 C   0  0  2  0  0  0  0  0  0  0  0  0
   -0.0360   12.2950   -1.6090 O   0  0  0  0  0  0  0  0  0  0  0  0
    0.3530   10.3170   -2.0730 O   0  0  0  0  0  0  0  0  0  0  0  0
   -0.0900   14.5330    0.9550 C   0  0  0  0  0  0  0  0  0  0  0  0
   -2.4300   14.7070    0.6970 C   0  0  1  0  0  0  0  0  0  0  0  0
   -3.6990   15.1880   -1.1470 C   0  0  0  0  0  0  0  0  0  0  0  0
    0.4990   17.4030   -4.2070 C   0  0  0  0  0  0  0  0  0  0  0  0
   -1.7110   16.8640   -4.1400 C   0  0  1  0  0  0  0  0  0  0  0  0
   -1.3250   14.9910    1.5350 N   0  0  0  0  0  0  0  0  0  0  0  0
   -3.6090   15.3360    1.2680 N   0  0  0  0  0  0  0  0  0  0  0  0
   -4.5350   15.4310    0.1180 C   0  0  0  0  0  0  0  0  0  0  0  0
   -0.1670   18.3990   -5.0690 N   0  0  0  0  0  0  0  0  0  0  0  0
   -1.6360   18.0520   -5.0920 C   0  0  1  0  0  0  0  0  0  0  0  0
   -2.8530   15.8700   -4.1710 C   0  0  0  0  0  0  0  0  0  0  0  0
    0.5040   18.5390   -6.3500 C   0  0  0  0  0  0  0  0  0  0  0  0
   -3.1340   15.4330   -5.5550 C   0  0  0  0  0  0  0  0  0  0  0  0
   -2.2010   17.7470   -6.4640 C   0  0  0  0  0  0  0  0  0  0  0  0
   -3.2280   16.5790   -6.5130 C   0  0  0  0  0  0  0  0  0  0  0  0
  2  1  1  6
  2  3  1  0
  2  4  1  0
  4  5  1  0
  3  6  1  0
  3  7  1  1
  5  8  1  0
  8  6  1  1
  9  5  1  6
  7 10  1  0
  9 11  1  0
  9 12  1  0
  8 13  1  0
 10 14  1  1
 10 15  1  0
 11 16  1  0
 12 17  1  0
 12 18  1  6
 13 19  1  1
 13 20  1  0
 16 21  1  0
 17 21  1  1
 17 22  1  0
 18 23  1  0
 22 23  1  0
 19 24  1  0
 20 25  1  0
 24 25  1  0
 20 26  1  6
 24 27  1  0
 26 28  1  0
 25 29  1  6
 28 30  1  0
 29 30  1  0
M  CHG  1  15  -1
M  END
