ucsf404-ucsf584
     RDKit          3D

 15 17  0  0  0  0  0  0  0  0999 V2000
   -7.2370   16.0080   -1.7920 Cl  0  0  0  0  0  0  0  0  0  0  0  0
   -6.2310   14.4090   -0.4670 S   0  0  0  0  0  0  0  0  0  0  0  0
   -4.8570   14.7580    0.3290 C   0  0  2  0  0  0  0  0  0  0  0  0
   -4.9790   14.3040   -1.7530 C   0  0  0  0  0  0  0  0  0  0  0  0
   -6.8990   13.4350    0.7850 N   0  0  0  0  0  0  0  0  0  0  0  0
   -7.8120   13.6800   -0.9340 N   0  0  0  0  0  0  0  0  0  0  0  0
   -4.4360   15.9880    0.7660 N   0  0  0  0  0  0  0  0  0  0  0  0
   -3.5570   14.0160    0.2140 C   0  0  2  0  0  0  0  0  0  0  0  0
   -3.6970   14.9740   -1.7380 C   0  0  0  0  0  0  0  0  0  0  0  0
   -8.7410   14.3480   -0.0220 C   0  0  0  0  0  0  0  0  0  0  0  0
   -7.9810   14.2790    1.2580 C   0  0  0  0  0  0  0  0  0  0  0  0
   -4.5330   15.6220    2.1670 C   0  0  2  0  0  0  0  0  0  0  0  0
   -3.1650   14.3730    1.9750 S   0  0  0  0  0  0  0  0  0  0  0  0
   -2.6290   14.4990   -0.7650 C   0  0  0  0  0  0  0  0  0  0  0  0
   -5.7820   14.9460    2.4330 N   0  0  0  0  0  0  0  0  0  0  0  0
  1  2  1  0
  2  3  1  0
  2  4  1  0
  2  5  1  0
  2  6  1  0
  3  7  1  6
  3  8  1  0
  4  9  1  0
  6 10  1  0
  5 11  1  0
 10 11  1  0
  7 12  1  0
  8 13  1  0
 12 13  1  0
  8 14  1  6
  9 14  1  0
 12 15  1  6
M  END
