ucsf404-ucsf380
     RDKit          3D

 21 23  0  0  0  0  0  0  0  0999 V2000
   -6.4650   14.6630   -2.3750 Cl  0  0  0  0  0  0  0  0  0  0  0  0
   -5.0350   15.4660   -1.6320 C   0  0  1  0  0  0  0  0  0  0  0  0
   -4.9730   15.2960   -0.1190 C   0  0  1  0  0  0  0  0  0  0  0  0
   -3.7320   15.1020   -2.4060 C   0  0  0  0  0  0  0  0  0  0  0  0
   -6.1560   14.8200    0.5800 N   0  0  0  0  0  0  0  0  0  0  0  0
   -3.8220   14.3910    0.2070 C   0  0  2  0  0  0  0  0  0  0  0  0
   -2.4040   15.0690   -1.5830 C   0  0  2  0  0  0  0  0  0  0  0  0
   -1.5460   13.7890   -1.8090 C   0  0  2  0  0  0  0  0  0  0  0  0
   -5.6860   14.7500    1.9200 C   0  0  2  0  0  0  0  0  0  0  0  0
   -4.1350   13.8460    1.8800 S   0  0  0  0  0  0  0  0  0  0  0  0
   -2.6000   15.2090   -0.0690 C   0  0  0  0  0  0  0  0  0  0  0  0
   -6.7370   14.0970    2.6240 N   0  0  0  0  0  0  0  0  0  0  0  0
   -0.0270   14.0380   -1.4210 C   0  0  2  0  0  0  0  0  0  0  0  0
   -1.7650   13.0240   -3.1840 C   0  0  0  0  0  0  0  0  0  0  0  0
    0.6380   14.6290   -2.3870 O   0  0  0  0  0  0  0  0  0  0  0  0
    0.6710   12.8150   -1.3150 O   0  0  0  0  0  0  0  0  0  0  0  0
   -2.4540   11.6510   -3.0370 C   0  0  0  0  0  0  0  0  0  0  0  0
   -0.5130   12.8250   -4.0600 C   0  0  0  0  0  0  0  0  0  0  0  0
   -2.8840   10.9850   -4.3390 C   0  0  0  0  0  0  0  0  0  0  0  0
   -0.7590   11.9880   -5.3260 C   0  0  0  0  0  0  0  0  0  0  0  0
   -2.2090   11.5690   -5.5650 C   0  0  0  0  0  0  0  0  0  0  0  0
  2  1  1  6
  2  3  1  0
  2  4  1  0
  3  5  1  6
  3  6  1  0
  7  4  1  6
  7  8  1  0
  5  9  1  0
  6 10  1  0
  9 10  1  0
  6 11  1  1
  7 11  1  0
  9 12  1  1
  8 13  1  0
  8 14  1  6
 13 15  1  6
 13 16  1  0
 14 17  1  0
 14 18  1  0
 17 19  1  0
 18 20  1  0
 19 21  1  0
 20 21  1  0
M  CHG  1  15  -1
M  END
