ucsf138-ucsf274
     RDKit          3D

 26 28  0  0  0  0  0  0  0  0999 V2000
    1.0090   12.9870   -2.4020 O   0  0  0  0  0  0  0  0  0  0  0  0
    1.1880   12.1650   -3.4110 C   0  0  1  0  0  0  0  0  0  0  0  0
    0.7010   10.9670   -2.8250 O   0  0  0  0  0  0  0  0  0  0  0  0
    0.3350   12.5110   -4.7450 C   0  0  2  0  0  0  0  0  0  0  0  0
    0.9730   12.6020   -6.0810 N   0  0  0  0  0  0  0  0  0  0  0  0
   -0.4180   13.8150   -4.4200 C   0  0  0  0  0  0  0  0  0  0  0  0
   -0.6270   11.2790   -4.9600 C   0  0  1  0  0  0  0  0  0  0  0  0
    1.1360   11.4690   -6.9460 C   0  0  2  0  0  0  0  0  0  0  0  0
   -2.0250   11.2350   -4.3150 C   0  0  1  0  0  0  0  0  0  0  0  0
   -0.7980   11.0400   -6.3940 N   0  0  0  0  0  0  0  0  0  0  0  0
    2.4380   11.5080   -7.3320 O   0  0  0  0  0  0  0  0  0  0  0  0
    0.3800   11.4710   -8.1620 N   0  0  0  0  0  0  0  0  0  0  0  0
   -2.6320   12.4920   -4.1350 O   0  0  0  0  0  0  0  0  0  0  0  0
   -2.9430   10.3370   -5.0550 N   0  0  0  0  0  0  0  0  0  0  0  0
   -0.9730    9.6300   -6.5680 C   0  0  1  0  0  0  0  0  0  0  0  0
    0.9440   10.6110   -9.2310 C   0  0  0  0  0  0  0  0  0  0  0  0
   -2.2300    9.2220   -5.7610 C   0  0  2  0  0  0  0  0  0  0  0  0
   -1.0710    9.3160   -8.0680 C   0  0  0  0  0  0  0  0  0  0  0  0
    0.0310   10.3730  -10.4420 C   0  0  0  0  0  0  0  0  0  0  0  0
    1.4340    9.2390   -8.6680 C   0  0  0  0  0  0  0  0  0  0  0  0
   -1.2970    7.8390   -8.3280 C   0  0  0  0  0  0  0  0  0  0  0  0
   -3.1530    8.3790   -6.6370 C   0  0  0  0  0  0  0  0  0  0  0  0
    0.6120    9.4110  -11.4840 C   0  0  0  0  0  0  0  0  0  0  0  0
    2.0160    8.2800   -9.7240 C   0  0  0  0  0  0  0  0  0  0  0  0
   -2.3700    7.2950   -7.3890 C   0  0  0  0  0  0  0  0  0  0  0  0
    1.0920    8.0750  -10.9100 C   0  0  0  0  0  0  0  0  0  0  0  0
  2  1  1  1
  2  3  1  0
  2  4  1  0
  4  5  1  0
  4  6  1  1
  4  7  1  0
  5  8  1  0
  7  9  1  0
  7 10  1  6
  8 11  1  6
  8 12  1  0
  9 13  1  6
  9 14  1  0
 10 15  1  0
 12 16  1  0
 14 17  1  0
 15 17  1  0
 15 18  1  6
 16 19  1  0
 16 20  1  0
 18 21  1  0
 17 22  1  6
 19 23  1  0
 20 24  1  0
 21 25  1  0
 22 25  1  0
 23 26  1  0
 24 26  1  0
M  CHG  1   1  -1
M  END
