ucsf320-ucsf523
     RDKit          3D

 16 17  0  0  0  0  0  0  0  0999 V2000
   -1.0460   14.3590   -2.1590 O   0  0  0  0  0  0  0  0  0  0  0  0
   -1.9160   15.0380   -2.8660 C   0  0  1  0  0  0  0  0  0  0  0  0
   -2.0460   14.2800   -4.0370 O   0  0  0  0  0  0  0  0  0  0  0  0
   -3.2640   15.1920   -2.0870 C   0  0  2  0  0  0  0  0  0  0  0  0
   -3.2910   15.0360   -0.5230 C   0  0  2  0  0  0  0  0  0  0  0  0
   -4.4360   14.4860   -2.8040 C   0  0  0  0  0  0  0  0  0  0  0  0
   -4.7150   15.5150   -0.0440 C   0  0  0  0  0  0  0  0  0  0  0  0
   -5.8150   14.8480   -2.2520 C   0  0  0  0  0  0  0  0  0  0  0  0
   -2.1070   15.8730   -0.0080 C   0  0  0  0  0  0  0  0  0  0  0  0
   -2.9930   13.6930    0.1510 C   0  0  0  0  0  0  0  0  0  0  0  0
   -5.8850   14.7950   -0.7390 C   0  0  2  0  0  0  0  0  0  0  0  0
   -0.7550   15.2270    0.0070 N   0  0  0  0  0  0  0  0  0  0  0  0
   -2.0590   13.8840    1.2710 N   0  0  0  0  0  0  0  0  0  0  0  0
   -7.1590   15.2810   -0.3160 O   0  0  0  0  0  0  0  0  0  0  0  0
   -0.7650   14.0310    0.7620 C   0  0  2  0  0  0  0  0  0  0  0  0
    0.0500   14.2200    1.9100 N   0  0  0  0  0  0  0  0  0  0  0  0
  2  1  1  1
  2  3  1  0
  2  4  1  0
  4  5  1  0
  4  6  1  6
  5  7  1  1
  6  8  1  0
  5  9  1  0
  5 10  1  0
  7 11  1  0
  8 11  1  0
  9 12  1  0
 10 13  1  0
 11 14  1  1
 12 15  1  0
 13 15  1  0
 15 16  1  1
M  CHG  1   1  -1
M  END
