ucsf364-ucsf584
     RDKit          3D

 23 25  0  0  0  0  0  0  0  0999 V2000
    2.3920   13.0310   -4.4820 C   0  0  0  0  0  0  0  0  0  0  0  0
    0.8920   12.8560   -4.7700 C   0  0  1  0  0  0  0  0  0  0  0  0
    0.6640   12.2870   -6.1990 C   0  0  1  0  0  0  0  0  0  0  0  0
    0.0170   12.0900   -3.7280 C   0  0  1  0  0  0  0  0  0  0  0  0
    1.8820   11.9340   -6.8370 O   0  0  0  0  0  0  0  0  0  0  0  0
   -0.0310   12.6780   -2.2660 C   0  0  2  0  0  0  0  0  0  0  0  0
   -1.4280   12.0120   -4.2970 C   0  0  0  0  0  0  0  0  0  0  0  0
   -0.2860   11.0910   -6.3520 C   0  0  0  0  0  0  0  0  0  0  0  0
   -0.7980   13.9040   -2.3100 O   0  0  0  0  0  0  0  0  0  0  0  0
    1.1940   12.9570   -1.8700 O   0  0  0  0  0  0  0  0  0  0  0  0
   -1.5850   11.2400   -5.6040 C   0  0  0  0  0  0  0  0  0  0  0  0
   -2.1920   13.6920   -2.0240 C   0  0  0  0  0  0  0  0  0  0  0  0
   -2.8780   14.9650   -1.7100 N   0  0  0  0  0  0  0  0  0  0  0  0
   -3.0660   15.1460   -0.2700 C   0  0  0  0  0  0  0  0  0  0  0  0
   -4.1330   15.1370   -2.4610 C   0  0  0  0  0  0  0  0  0  0  0  0
   -4.0930   14.1680    0.2770 C   0  0  0  0  0  0  0  0  0  0  0  0
   -5.3600   15.3230   -1.5390 C   0  0  0  0  0  0  0  0  0  0  0  0
   -5.4250   14.2040   -0.4910 C   0  0  0  0  0  0  0  0  0  0  0  0
   -6.7060   14.1540    0.4010 C   0  0  0  0  0  0  0  0  0  0  0  0
   -6.5430   14.6730    1.7440 N   0  0  0  0  0  0  0  0  0  0  0  0
   -7.9210   14.7510   -0.0920 N   0  0  0  0  0  0  0  0  0  0  0  0
   -8.8010   14.8470    1.0760 C   0  0  0  0  0  0  0  0  0  0  0  0
   -7.8970   14.6860    2.2900 C   0  0  0  0  0  0  0  0  0  0  0  0
  2  1  1  1
  2  3  1  0
  2  4  1  0
  3  5  1  1
  4  6  1  0
  4  7  1  6
  3  8  1  0
  6  9  1  0
  6 10  1  6
  7 11  1  0
  8 11  1  0
  9 12  1  0
 12 13  1  0
 13 14  1  0
 13 15  1  0
 14 16  1  0
 15 17  1  0
 16 18  1  0
 17 18  1  0
 18 19  1  0
 19 20  1  0
 19 21  1  0
 21 22  1  0
 20 23  1  0
 22 23  1  0
M  CHG  1  10  -1
M  END
