ucsf190-ucsf147
     RDKit          3D

 22 25  0  0  0  0  0  0  0  0999 V2000
    2.3040   10.9610   -3.6940 O   0  0  0  0  0  0  0  0  0  0  0  0
    1.3230   11.7980   -3.7950 C   0  0  1  0  0  0  0  0  0  0  0  0
    0.9490   12.2590   -2.4840 O   0  0  0  0  0  0  0  0  0  0  0  0
    1.8930   12.9600   -4.6430 C   0  0  0  0  0  0  0  0  0  0  0  0
    0.0460   13.3800   -2.5420 C   0  0  2  0  0  0  0  0  0  0  0  0
    1.2310   14.2970   -4.2870 C   0  0  2  0  0  0  0  0  0  0  0  0
   -0.6760   13.3630   -1.4550 O   0  0  0  0  0  0  0  0  0  0  0  0
   -0.2170   14.3050   -4.8160 C   0  0  1  0  0  0  0  0  0  0  0  0
    2.0830   15.4640   -4.6030 N   0  0  0  0  0  0  0  0  0  0  0  0
   -0.8370   13.2800   -3.8790 C   0  0  2  0  0  0  0  0  0  0  0  0
   -0.8750   15.7160   -4.8240 C   0  0  2  0  0  0  0  0  0  0  0  0
    1.3890   16.7130   -4.6680 N   0  0  0  0  0  0  0  0  0  0  0  0
   -2.3690   13.4250   -3.7230 C   0  0  0  0  0  0  0  0  0  0  0  0
    0.0600   16.6990   -4.0990 C   0  0  1  0  0  0  0  0  0  0  0  0
   -2.3790   15.8070   -4.4220 C   0  0  0  0  0  0  0  0  0  0  0  0
   -2.8080   14.8350   -3.2910 C   0  0  0  0  0  0  0  0  0  0  0  0
   -0.4210   18.0170   -4.2920 O   0  0  0  0  0  0  0  0  0  0  0  0
   -4.3140   14.8600   -2.8320 C   0  0  0  0  0  0  0  0  0  0  0  0
   -2.0250   15.2460   -2.0390 C   0  0  0  0  0  0  0  0  0  0  0  0
   -2.4040   14.4330   -0.8130 C   0  0  0  0  0  0  0  0  0  0  0  0
   -4.6210   15.4230   -1.4190 C   0  0  0  0  0  0  0  0  0  0  0  0
   -3.7520   14.8650   -0.2970 C   0  0  0  0  0  0  0  0  0  0  0  0
  2  1  1  1
  2  3  1  0
  2  4  1  0
  3  5  1  0
  6  4  1  6
  5  7  1  1
  8  6  1  1
  6  9  1  0
  5 10  1  0
  8 10  1  0
  8 11  1  0
  9 12  1  0
 10 13  1  1
 11 14  1  0
 12 14  1  0
 11 15  1  1
 16 13  1  0
 15 16  1  0
 14 17  1  6
 16 18  1  0
 16 19  1  0
 19 20  1  0
 18 21  1  0
 20 22  1  0
 21 22  1  0
M  CHG  2   1  -1   7  -1
M  END
