ucsf004-ucsf404
     RDKit          3D

 22 25  0  0  0  0  0  0  0  0999 V2000
   -1.9820   12.2160   -4.9160 F   0  0  0  0  0  0  0  0  0  0  0  0
   -1.6590   13.5410   -4.9760 C   0  0  2  0  0  0  0  0  0  0  0  0
   -0.1480   13.6590   -5.2040 C   0  0  0  0  0  0  0  0  0  0  0  0
   -2.1370   14.2260   -3.6890 C   0  0  0  0  0  0  0  0  0  0  0  0
   -1.0440   14.3240   -2.7300 N   0  0  0  0  0  0  0  0  0  0  0  0
    0.3770   14.9940   -4.6820 C   0  0  0  0  0  0  0  0  0  0  0  0
    0.0940   15.1460   -3.1760 C   0  0  0  0  0  0  0  0  0  0  0  0
   -1.3280   14.3070   -1.2930 C   0  0  1  0  0  0  0  0  0  0  0  0
   -0.0580   14.4360   -0.5800 N   0  0  0  0  0  0  0  0  0  0  0  0
   -2.2690   15.4400   -0.8370 C   0  0  2  0  0  0  0  0  0  0  0  0
   -0.1850   14.3340    0.8700 C   0  0  0  0  0  0  0  0  0  0  0  0
   -2.1760   15.5520    0.6910 C   0  0  2  0  0  0  0  0  0  0  0  0
   -3.8070   15.5200   -1.1020 C   0  0  1  0  0  0  0  0  0  0  0  0
   -4.6320   14.7780   -2.5220 Cl  0  0  0  0  0  0  0  0  0  0  0  0
   -1.5520   14.4220    1.2940 N   0  0  0  0  0  0  0  0  0  0  0  0
   -3.5320   15.6090    1.2060 N   0  0  0  0  0  0  0  0  0  0  0  0
   -4.3020   14.8980    0.2010 C   0  0  1  0  0  0  0  0  0  0  0  0
   -5.7370   15.1160    0.4930 N   0  0  0  0  0  0  0  0  0  0  0  0
   -4.0340   13.4130    0.2320 C   0  0  0  0  0  0  0  0  0  0  0  0
   -6.1920   14.1200    1.4290 C   0  0  1  0  0  0  0  0  0  0  0  0
   -4.8700   12.9590    1.7240 S   0  0  0  0  0  0  0  0  0  0  0  0
   -6.5200   14.8590    2.6060 N   0  0  0  0  0  0  0  0  0  0  0  0
  2  1  1  1
  2  3  1  0
  2  4  1  0
  4  5  1  0
  3  6  1  0
  5  7  1  0
  6  7  1  0
  8  5  1  6
  8  9  1  0
 10  8  1  1
  9 11  1  0
 10 12  1  0
 10 13  1  0
 13 14  1  6
 11 15  1  0
 12 15  1  1
 12 16  1  0
 13 17  1  0
 17 16  1  0
 17 18  1  0
 17 19  1  6
 18 20  1  0
 19 21  1  0
 20 21  1  0
 20 22  1  1
M  END
