ucsf172-ucsf519
     RDKit          3D

 21 21  0  0  0  0  0  0  0  0999 V2000
   -7.7820   14.8050    2.3590 C   0  0  0  0  0  0  0  0  0  0  0  0
   -6.7570   14.2960    0.9980 S   0  0  0  0  0  0  0  0  0  0  0  0
   -6.5190   12.8180    1.0690 O   0  0  0  0  0  0  0  0  0  0  0  0
   -7.5870   14.7780   -0.3070 O   0  0  0  0  0  0  0  0  0  0  0  0
   -5.2900   15.1880    1.2530 N   0  0  0  0  0  0  0  0  0  0  0  0
   -4.2930   15.2370    0.1740 C   0  0  1  0  0  0  0  0  0  0  0  0
   -3.3680   14.0810    0.2470 C   0  0  0  0  0  0  0  0  0  0  0  0
   -4.9890   15.4280   -1.1610 C   0  0  0  0  0  0  0  0  0  0  0  0
   -2.5070   13.7370   -0.9640 C   0  0  0  0  0  0  0  0  0  0  0  0
   -4.1660   14.6880   -2.2350 C   0  0  0  0  0  0  0  0  0  0  0  0
   -2.7740   14.8860   -1.9920 C   0  0  2  0  0  0  0  0  0  0  0  0
   -1.5800   14.5760   -3.4620 S   0  0  0  0  0  0  0  0  0  0  0  0
    0.1350   14.0570   -3.1040 O   0  0  0  0  0  0  0  0  0  0  0  0
   -2.1720   14.2580   -5.3490 O   0  0  0  0  0  0  0  0  0  0  0  0
   -1.0160   16.0320   -4.1130 C   0  0  0  0  0  0  0  0  0  0  0  0
   -1.3060   12.4910   -3.8400 S   0  0  0  0  0  0  0  0  0  0  0  0
    0.3400   12.0830   -3.9200 C   0  0  0  0  0  0  0  0  0  0  0  0
   -3.3040   14.7210   -5.3480 O   0  0  0  0  0  0  0  0  0  0  0  0
    0.8570   11.6910   -2.5650 C   0  0  1  0  0  0  0  0  0  0  0  0
    0.3290   12.4050   -1.5250 O   0  0  0  0  0  0  0  0  0  0  0  0
    0.5680   10.3010   -2.3420 O   0  0  0  0  0  0  0  0  0  0  0  0
  1  2  1  0
  2  3  1  0
  2  4  1  0
  2  5  1  0
  6  5  1  1
  6  7  1  0
  6  8  1  0
  7  9  1  0
  8 10  1  0
  9 11  1  0
 10 11  1  0
 11 12  1  6
 12 13  1  0
 12 14  1  0
 12 15  1  0
 12 16  1  0
 16 17  1  0
 14 18  1  0
 17 19  1  0
 19 20  1  1
 19 21  1  0
M  CHG  1  21  -1
M  END
