ucsf241-ucsf190
     RDKit          3D

 25 28  0  0  0  0  0  0  0  0999 V2000
    0.6150   10.6910   -2.4580 O   0  0  0  0  0  0  0  0  0  0  0  0
    0.6640   12.0080   -2.7300 C   0  0  1  0  0  0  0  0  0  0  0  0
    1.4530   12.6180   -1.7190 O   0  0  0  0  0  0  0  0  0  0  0  0
    1.3650   12.2710   -4.1080 C   0  0  0  0  0  0  0  0  0  0  0  0
    1.0620   13.9340   -1.3340 C   0  0  0  0  0  0  0  0  0  0  0  0
    1.2680   13.6640   -4.7720 C   0  0  1  0  0  0  0  0  0  0  0  0
   -0.2360   13.8460   -0.5280 C   0  0  2  0  0  0  0  0  0  0  0  0
   -0.1610   14.1370   -5.1730 C   0  0  2  0  0  0  0  0  0  0  0  0
    1.9720   14.6500   -3.9240 N   0  0  0  0  0  0  0  0  0  0  0  0
   -1.3730   14.4620   -1.3490 C   0  0  0  0  0  0  0  0  0  0  0  0
   -0.2030   14.3550    0.9340 C   0  0  0  0  0  0  0  0  0  0  0  0
   -0.6710   15.3790   -4.3790 C   0  0  1  0  0  0  0  0  0  0  0  0
    1.7970   15.9730   -4.4360 N   0  0  0  0  0  0  0  0  0  0  0  0
   -1.2130   13.0290   -5.3210 C   0  0  0  0  0  0  0  0  0  0  0  0
   -2.6540   14.4710   -0.5480 C   0  0  2  0  0  0  0  0  0  0  0  0
   -1.4940   14.4410    1.6270 N   0  0  0  0  0  0  0  0  0  0  0  0
    0.4490   16.4430   -4.1900 C   0  0  1  0  0  0  0  0  0  0  0  0
   -1.9680   15.9470   -4.9730 C   0  0  0  0  0  0  0  0  0  0  0  0
   -2.6040   13.4570   -4.8880 C   0  0  0  0  0  0  0  0  0  0  0  0
    0.2350   17.5890   -4.9970 O   0  0  0  0  0  0  0  0  0  0  0  0
   -3.8660   15.2330   -1.0540 C   0  0  0  0  0  0  0  0  0  0  0  0
   -2.4990   15.0600    0.8380 C   0  0  2  0  0  0  0  0  0  0  0  0
   -2.9620   14.8580   -5.3890 C   0  0  0  0  0  0  0  0  0  0  0  0
   -4.6140   15.4900    0.2600 C   0  0  0  0  0  0  0  0  0  0  0  0
   -3.8300   14.7900    1.2790 N   0  0  0  0  0  0  0  0  0  0  0  0
  2  1  1  1
  2  3  1  0
  2  4  1  0
  3  5  1  0
  6  4  1  1
  7  5  1  6
  6  8  1  0
  6  9  1  0
  7 10  1  0
  7 11  1  0
  8 12  1  0
  9 13  1  0
  8 14  1  1
 15 10  1  6
 11 16  1  0
 12 17  1  0
 13 17  1  0
 12 18  1  6
 14 19  1  0
 17 20  1  6
 15 21  1  0
 15 22  1  0
 22 16  1  1
 18 23  1  0
 19 23  1  0
 21 24  1  0
 22 25  1  0
 24 25  1  0
M  CHG  1   1  -1
M  END
