ucsf345-ucsf392
     RDKit          3D

 18 19  0  0  0  0  0  0  0  0999 V2000
   -7.2670   14.6970    1.1330 N   0  0  0  0  0  0  0  0  0  0  0  0
   -7.5240   15.0360   -0.2560 C   0  0  2  0  0  0  0  0  0  0  0  0
   -8.0080   13.8690   -0.8660 O   0  0  0  0  0  0  0  0  0  0  0  0
   -6.3670   15.6660   -1.1140 C   0  0  2  0  0  0  0  0  0  0  0  0
   -6.4580   15.0720   -2.4980 N   0  0  0  0  0  0  0  0  0  0  0  0
   -4.9820   15.4660   -0.4930 C   0  0  1  0  0  0  0  0  0  0  0  0
   -4.8270   14.0540   -0.0420 C   0  0  0  0  0  0  0  0  0  0  0  0
   -5.2040   14.5050   -3.0360 C   0  0  0  0  0  0  0  0  0  0  0  0
   -3.8280   15.8230   -1.3420 N   0  0  0  0  0  0  0  0  0  0  0  0
   -3.9010   15.2440   -2.6830 C   0  0  0  0  0  0  0  0  0  0  0  0
   -3.3880   13.8700    0.2980 C   0  0  2  0  0  0  0  0  0  0  0  0
   -2.9870   15.1150    1.0680 C   0  0  1  0  0  0  0  0  0  0  0  0
   -2.4690   13.6960   -0.9150 C   0  0  0  0  0  0  0  0  0  0  0  0
   -3.8830   15.4570    2.1510 N   0  0  0  0  0  0  0  0  0  0  0  0
   -1.7130   14.8670    1.6150 N   0  0  0  0  0  0  0  0  0  0  0  0
   -1.3120   14.5520   -0.7680 N   0  0  0  0  0  0  0  0  0  0  0  0
   -0.7820   14.4840    0.5800 C   0  0  1  0  0  0  0  0  0  0  0  0
    0.3680   15.4130    0.7180 C   0  0  0  0  0  0  0  0  0  0  0  0
  2  1  1  1
  2  3  1  0
  2  4  1  0
  4  5  1  6
  4  6  1  0
  6  7  1  6
  5  8  1  0
  6  9  1  0
  8 10  1  0
  9 10  1  0
 11  7  1  6
 11 12  1  0
 11 13  1  0
 12 14  1  1
 12 15  1  0
 13 16  1  0
 15 17  1  0
 16 17  1  0
 17 18  1  6
M  END
