ucsf224-ucsf170
     RDKit          3D

 19 21  0  0  0  0  0  0  0  0999 V2000
   -1.4070   18.0520   -5.6850 Cl  0  0  0  0  0  0  0  0  0  0  0  0
   -0.5230   16.9280   -4.6030 C   0  0  1  0  0  0  0  0  0  0  0  0
   -0.7200   15.4220   -4.8360 C   0  0  2  0  0  0  0  0  0  0  0  0
    0.9880   17.0460   -4.7980 C   0  0  0  0  0  0  0  0  0  0  0  0
   -2.0620   14.8690   -4.4780 C   0  0  0  0  0  0  0  0  0  0  0  0
    0.4080   14.9080   -3.9640 C   0  0  2  0  0  0  0  0  0  0  0  0
    1.5090   15.5990   -4.6980 C   0  0  0  0  0  0  0  0  0  0  0  0
    0.5770   13.3980   -3.7450 C   0  0  0  0  0  0  0  0  0  0  0  0
   -2.2400   14.8360   -2.9690 C   0  0  2  0  0  0  0  0  0  0  0  0
   -0.1620   13.0180   -2.4470 C   0  0  1  0  0  0  0  0  0  0  0  0
   -1.1040   14.2450   -2.0180 C   0  0  2  0  0  0  0  0  0  0  0  0
   -3.6760   14.5080   -2.6260 C   0  0  0  0  0  0  0  0  0  0  0  0
   -0.7100   11.8250   -2.5850 O   0  0  0  0  0  0  0  0  0  0  0  0
    0.7710   12.7130   -1.4340 O   0  0  0  0  0  0  0  0  0  0  0  0
   -1.5760   14.2650   -0.5190 C   0  0  0  0  0  0  0  0  0  0  0  0
   -3.9360   15.0690   -1.2650 C   0  0  0  0  0  0  0  0  0  0  0  0
   -3.0810   14.3570   -0.2220 C   0  0  2  0  0  0  0  0  0  0  0  0
   -3.3000   15.2780    1.3460 S   0  0  0  0  0  0  0  0  0  0  0  0
   -5.0860   15.0690    1.4150 C   0  0  0  0  0  0  0  0  0  0  0  0
  2  1  1  6
  2  3  1  0
  2  4  1  0
  3  5  1  1
  3  6  1  0
  4  7  1  0
  6  7  1  6
  6  8  1  0
  9  5  1  6
  8 10  1  0
  9 11  1  0
 10 11  1  0
  9 12  1  0
 10 13  1  6
 10 14  1  0
 11 15  1  1
 12 16  1  0
 15 17  1  0
 16 17  1  0
 17 18  1  1
 18 19  1  0
M  CHG  1  13  -1
M  END
