ucsf149
     RDKit          3D

 11 12  0  0  0  0  0  0  0  0999 V2000
   13.7880    9.0820   10.9310 O   0  0  0  0  0  0  0  0  0  0  0  0
   14.1540    8.1480   11.8600 C   0  0  0  0  0  0  0  0  0  0  0  0
   14.4930    6.9190   10.9840 C   0  0  0  0  0  0  0  0  0  0  0  0
   14.6490    5.7650   11.4800 N   0  0  0  0  0  0  0  0  0  0  0  0
   14.9210    4.9200   10.5200 C   0  0  0  0  0  0  0  0  0  0  0  0
   15.2040    3.5310   10.5210 C   0  0  0  0  0  0  0  0  0  0  0  0
   15.4520    2.8850    9.3890 C   0  0  0  0  0  0  0  0  0  0  0  0
   15.4220    3.6210    8.1550 C   0  0  0  0  0  0  0  0  0  0  0  0
   15.1360    4.8880    8.1570 C   0  0  0  0  0  0  0  0  0  0  0  0
   14.8920    5.6080    9.3830 C   0  0  0  0  0  0  0  0  0  0  0  0
   14.6060    6.8570    9.6780 N   0  0  0  0  0  0  0  0  0  0  0  0
  1  2  1  0
  2  3  1  0
  3  4  1  0
  4  5  1  0
  5  6  1  0
  6  7  1  0
  7  8  1  0
  8  9  1  0
  5 10  1  0
  9 10  1  0
  3 11  1  0
 10 11  1  0
M  END
