ucsf337-ucsf013
     RDKit          3D

 13 14  0  0  0  0  0  0  0  0999 V2000
   -8.0830   13.3490    1.1040 C   0  0  0  0  0  0  0  0  0  0  0  0
   -6.7820   12.6820    0.6320 C   0  0  0  0  0  0  0  0  0  0  0  0
   -6.4340   13.0030   -0.7520 N   0  0  0  0  0  0  0  0  0  0  0  0
   -5.0740   13.5480   -0.7800 C   0  0  2  0  0  0  0  0  0  0  0  0
   -7.3250   14.0700   -1.1590 N   0  0  0  0  0  0  0  0  0  0  0  0
   -4.9980   14.6970    0.2460 C   0  0  1  0  0  0  0  0  0  0  0  0
   -4.6170   14.1600   -2.1640 C   0  0  1  0  0  0  0  0  0  0  0  0
   -7.3220   15.1550   -0.2010 C   0  0  0  0  0  0  0  0  0  0  0  0
   -5.6540   14.6270   -3.1090 N   0  0  0  0  0  0  0  0  0  0  0  0
   -3.6660   14.4390    1.6420 Br  0  0  0  0  0  0  0  0  0  0  0  0
   -4.4920   15.9060   -0.5020 C   0  0  0  0  0  0  0  0  0  0  0  0
   -3.7760   15.3530   -1.7210 C   0  0  0  0  0  0  0  0  0  0  0  0
   -6.2970   14.9740    0.8390 N   0  0  0  0  0  0  0  0  0  0  0  0
  1  2  1  0
  2  3  1  0
  4  3  1  6
  3  5  1  0
  4  6  1  0
  4  7  1  0
  5  8  1  0
  7  9  1  6
  6 10  1  1
  6 11  1  0
  7 12  1  0
 11 12  1  0
  6 13  1  0
  8 13  1  0
M  END
