ucsf493-ucsf224
     RDKit          3D

 16 17  0  0  0  0  0  0  0  0999 V2000
   -4.4220   15.2130   -5.9600 C   0  0  0  0  0  0  0  0  0  0  0  0
   -3.6140   16.3800   -5.8770 O   0  0  0  0  0  0  0  0  0  0  0  0
   -2.4760   16.2580   -5.0170 C   0  0  1  0  0  0  0  0  0  0  0  0
   -1.8130   14.8750   -5.1810 C   0  0  0  0  0  0  0  0  0  0  0  0
   -1.6640   17.5350   -5.3140 C   0  0  0  0  0  0  0  0  0  0  0  0
   -0.2830   14.7960   -5.1880 C   0  0  1  0  0  0  0  0  0  0  0  0
   -0.2940   17.3740   -5.9450 C   0  0  0  0  0  0  0  0  0  0  0  0
    0.4810   16.1040   -5.5130 C   0  0  1  0  0  0  0  0  0  0  0  0
    0.3090   14.2730   -3.8810 C   0  0  1  0  0  0  0  0  0  0  0  0
    0.7130   12.7610   -3.7990 C   0  0  0  0  0  0  0  0  0  0  0  0
    1.3490   16.4280   -4.4630 N   0  0  0  0  0  0  0  0  0  0  0  0
    1.5230   15.1890   -3.6550 C   0  0  0  0  0  0  0  0  0  0  0  0
    0.0430   11.9350   -2.6450 C   0  0  1  0  0  0  0  0  0  0  0  0
    0.6610   17.9190   -3.8300 Cl  0  0  0  0  0  0  0  0  0  0  0  0
    0.5260   10.6010   -2.6100 O   0  0  0  0  0  0  0  0  0  0  0  0
    0.4640   12.3530   -1.4630 O   0  0  0  0  0  0  0  0  0  0  0  0
  1  2  1  0
  3  2  1  6
  3  4  1  0
  3  5  1  0
  6  4  1  1
  5  7  1  0
  6  8  1  0
  8  7  1  1
  6  9  1  0
  9 10  1  6
  8 11  1  0
  9 12  1  0
 11 12  1  0
 10 13  1  0
 11 14  1  0
 13 15  1  6
 13 16  1  0
M  CHG  1  16  -1
M  END
