ucsf013-ucsf411
     RDKit          3D

 27 30  0  0  0  0  0  0  0  0999 V2000
   -4.4490   15.3220    1.9160 N   0  0  0  0  0  0  0  0  0  0  0  0
   -5.1760   14.3510    1.1450 C   0  0  1  0  0  0  0  0  0  0  0  0
   -6.5680   14.6330    1.4640 N   0  0  0  0  0  0  0  0  0  0  0  0
   -4.7030   14.3120   -0.3190 C   0  0  1  0  0  0  0  0  0  0  0  0
   -5.8770   14.3390   -1.3080 C   0  0  1  0  0  0  0  0  0  0  0  0
   -7.4980   14.3030    0.4180 C   0  0  0  0  0  0  0  0  0  0  0  0
   -3.6090   15.3550   -0.6160 C   0  0  0  0  0  0  0  0  0  0  0  0
   -7.0650   14.9910   -0.7560 N   0  0  0  0  0  0  0  0  0  0  0  0
   -5.4640   15.0120   -2.6090 C   0  0  0  0  0  0  0  0  0  0  0  0
   -2.9920   15.2780   -2.0040 C   0  0  0  0  0  0  0  0  0  0  0  0
   -3.9950   14.8040   -3.0600 C   0  0  2  0  0  0  0  0  0  0  0  0
   -3.6880   15.4990   -4.4100 C   0  0  0  0  0  0  0  0  0  0  0  0
   -2.4490   15.0910   -5.2050 C   0  0  1  0  0  0  0  0  0  0  0  0
   -1.3170   16.1660   -5.1620 C   0  0  2  0  0  0  0  0  0  0  0  0
   -1.9980   13.7090   -4.7310 C   0  0  0  0  0  0  0  0  0  0  0  0
    0.0070   15.6870   -4.5720 C   0  0  1  0  0  0  0  0  0  0  0  0
   -0.6720   13.2840   -5.3220 C   0  0  0  0  0  0  0  0  0  0  0  0
   -1.6880   17.4860   -4.5860 C   0  0  0  0  0  0  0  0  0  0  0  0
    0.4630   14.2620   -4.9710 C   0  0  2  0  0  0  0  0  0  0  0  0
   -0.5740   18.4920   -4.7750 C   0  0  0  0  0  0  0  0  0  0  0  0
    1.1130   16.6800   -4.9130 C   0  0  0  0  0  0  0  0  0  0  0  0
    1.1840   13.7470   -3.8440 O   0  0  0  0  0  0  0  0  0  0  0  0
    0.6340   17.9750   -5.5230 C   0  0  0  0  0  0  0  0  0  0  0  0
    1.2950   12.3270   -3.6630 C   0  0  0  0  0  0  0  0  0  0  0  0
    0.3040   11.7430   -2.5890 C   0  0  1  0  0  0  0  0  0  0  0  0
    0.5640   10.4690   -2.3050 O   0  0  0  0  0  0  0  0  0  0  0  0
    0.5040   12.4010   -1.3510 O   0  0  0  0  0  0  0  0  0  0  0  0
  2  1  1  1
  2  3  1  0
  2  4  1  0
  4  5  1  0
  3  6  1  0
  4  7  1  6
  5  8  1  0
  6  8  1  0
  5  9  1  6
  7 10  1  0
  9 11  1  0
 10 11  1  0
 11 12  1  6
 13 12  1  1
 13 14  1  0
 13 15  1  0
 14 16  1  0
 15 17  1  0
 14 18  1  1
 16 19  1  0
 17 19  1  0
 18 20  1  0
 16 21  1  6
 19 22  1  1
 20 23  1  0
 21 23  1  0
 22 24  1  0
 24 25  1  0
 25 26  1  1
 25 27  1  0
M  CHG  1  26  -1
M  END
