ucsf258-ucsf519
     RDKit          3D

 16 17  0  0  0  0  0  0  0  0999 V2000
    0.3190   12.6680   -1.7560 O   0  0  0  0  0  0  0  0  0  0  0  0
   -0.4510   13.6530   -2.4400 C   0  0  2  0  0  0  0  0  0  0  0  0
    0.3010   14.4350   -3.4750 N   0  0  0  0  0  0  0  0  0  0  0  0
    0.2650   11.5760   -2.6840 C   0  0  1  0  0  0  0  0  0  0  0  0
    0.9550   11.9520   -4.0530 C   0  0  0  0  0  0  0  0  0  0  0  0
    0.7060   10.4570   -2.1410 O   0  0  0  0  0  0  0  0  0  0  0  0
   -1.8240   13.9440   -1.7240 C   0  0  2  0  0  0  0  0  0  0  0  0
   -0.2340   15.7560   -3.8500 C   0  0  0  0  0  0  0  0  0  0  0  0
    0.4680   13.5150   -4.8980 S   0  0  0  0  0  0  0  0  0  0  0  0
   -3.0070   14.3050   -2.6210 C   0  0  2  0  0  0  0  0  0  0  0  0
   -1.6510   14.8030   -0.5000 N   0  0  0  0  0  0  0  0  0  0  0  0
   -2.5660   14.5510   -3.9580 O   0  0  0  0  0  0  0  0  0  0  0  0
   -3.9080   15.3780   -2.0380 C   0  0  0  0  0  0  0  0  0  0  0  0
   -2.8820   14.9610    0.2900 C   0  0  0  0  0  0  0  0  0  0  0  0
   -3.5600   15.4000   -4.5850 O   0  0  0  0  0  0  0  0  0  0  0  0
   -4.1380   15.2490   -0.5330 C   0  0  0  0  0  0  0  0  0  0  0  0
  2  1  1  1
  2  3  1  0
  1  4  1  0
  4  5  1  0
  4  6  1  1
  2  7  1  0
  3  8  1  0
  3  9  1  0
  5  9  1  0
  7 10  1  0
  7 11  1  1
 10 12  1  6
 10 13  1  0
 11 14  1  0
 12 15  1  0
 13 16  1  0
 14 16  1  0
M  CHG  1   6  -1
M  END
