ucsf109-ucsf260
     RDKit          3D

 30 34  0  0  0  0  0  0  0  0999 V2000
   -3.9900   14.8830    2.0110 N   0  0  0  0  0  0  0  0  0  0  0  0
   -4.7820   14.5060    0.8560 C   0  0  2  0  0  0  0  0  0  0  0  0
   -4.4970   15.4750   -0.2630 C   0  0  2  0  0  0  0  0  0  0  0  0
   -6.1720   14.7440    1.1160 N   0  0  0  0  0  0  0  0  0  0  0  0
   -6.9370   14.0390    0.1220 C   0  0  2  0  0  0  0  0  0  0  0  0
   -5.4110   15.2320   -1.4800 C   0  0  2  0  0  0  0  0  0  0  0  0
   -3.0630   15.3910   -0.7550 C   0  0  0  0  0  0  0  0  0  0  0  0
   -6.7600   14.2230    2.3310 N   0  0  0  0  0  0  0  0  0  0  0  0
   -6.6750   14.4850   -1.2300 N   0  0  0  0  0  0  0  0  0  0  0  0
   -4.4850   14.7460   -2.6190 C   0  0  0  0  0  0  0  0  0  0  0  0
   -3.0910   14.5070   -1.9910 C   0  0  1  0  0  0  0  0  0  0  0  0
   -8.2660   14.4330    0.5340 N   0  0  0  0  0  0  0  0  0  0  0  0
   -8.1720   14.4510    2.0050 C   0  0  0  0  0  0  0  0  0  0  0  0
   -1.8250   14.8010   -2.8110 C   0  0  0  0  0  0  0  0  0  0  0  0
   -0.5950   15.0770   -1.9030 C   0  0  0  0  0  0  0  0  0  0  0  0
    0.7650   14.5880   -2.4270 C   0  0  0  0  0  0  0  0  0  0  0  0
    0.9820   13.2220   -2.0680 O   0  0  0  0  0  0  0  0  0  0  0  0
    0.5340   12.3120   -3.0780 C   0  0  2  0  0  0  0  0  0  0  0  0
    0.8690   11.0860   -2.7100 O   0  0  0  0  0  0  0  0  0  0  0  0
    1.3050   12.7130   -4.3800 C   0  0  0  0  0  0  0  0  0  0  0  0
    0.4480   13.0730   -5.6220 C   0  0  0  0  0  0  0  0  0  0  0  0
   -0.7700   12.2870   -5.9190 N   0  0  0  0  0  0  0  0  0  0  0  0
   -1.5640   11.7630   -4.8020 C   0  0  0  0  0  0  0  0  0  0  0  0
   -0.6900   11.2160   -6.9260 C   0  0  2  0  0  0  0  0  0  0  0  0
   -2.2230   10.5580   -5.3270 N   0  0  0  0  0  0  0  0  0  0  0  0
   -1.1300   10.0190   -6.1180 C   0  0  1  0  0  0  0  0  0  0  0  0
    0.6430   10.9180   -7.6120 C   0  0  0  0  0  0  0  0  0  0  0  0
   -1.4610    8.8860   -7.0580 C   0  0  0  0  0  0  0  0  0  0  0  0
    0.7220    9.5370   -8.3050 C   0  0  0  0  0  0  0  0  0  0  0  0
   -0.1930    8.4180   -7.7840 C   0  0  0  0  0  0  0  0  0  0  0  0
  2  1  1  1
  2  3  1  0
  2  4  1  0
  4  5  1  0
  3  6  1  0
  3  7  1  6
  4  8  1  0
  5  9  1  6
  6  9  1  0
  6 10  1  6
  7 11  1  0
 10 11  1  0
  5 12  1  0
  8 13  1  0
 12 13  1  0
 11 14  1  6
 14 15  1  0
 15 16  1  0
 16 17  1  0
 17 18  1  0
 18 19  1  1
 18 20  1  0
 20 21  1  0
 21 22  1  0
 22 23  1  0
 22 24  1  0
 23 25  1  0
 24 26  1  0
 25 26  1  0
 24 27  1  1
 26 28  1  6
 27 29  1  0
 28 30  1  0
 29 30  1  0
M  CHG  1  19  -1
M  END
