ucsf224-ucsf278
     RDKit          3D

 19 20  0  0  0  0  0  0  0  0999 V2000
   -0.0350   18.5090   -5.7900 Cl  0  0  0  0  0  0  0  0  0  0  0  0
   -0.6510   17.2640   -4.7350 C   0  0  1  0  0  0  0  0  0  0  0  0
   -0.4490   15.9860   -5.2560 C   0  0  2  0  0  0  0  0  0  0  0  0
    0.2700   16.5340   -3.8180 C   0  0  0  0  0  0  0  0  0  0  0  0
   -2.1720   15.4000   -5.3800 Cl  0  0  0  0  0  0  0  0  0  0  0  0
    0.3920   15.1030   -4.5410 C   0  0  1  0  0  0  0  0  0  0  0  0
   -0.6610   15.3450   -3.3460 C   0  0  0  0  0  0  0  0  0  0  0  0
    0.6700   15.5620   -2.8360 Cl  0  0  0  0  0  0  0  0  0  0  0  0
   -0.2500   13.6130   -4.0070 S   0  0  0  0  0  0  0  0  0  0  0  0
    1.1750   12.4660   -3.4400 C   0  0  0  0  0  0  0  0  0  0  0  0
   -1.9280   12.7950   -4.1910 C   0  0  0  0  0  0  0  0  0  0  0  0
   -0.5290   12.8820   -5.6710 N   0  0  0  0  0  0  0  0  0  0  0  0
    0.6650   11.7820   -2.2630 C   0  0  1  0  0  0  0  0  0  0  0  0
   -0.8350   11.6080   -5.5760 C   0  0  1  0  0  0  0  0  0  0  0  0
   -1.4870   11.3720   -4.2800 C   0  0  0  0  0  0  0  0  0  0  0  0
    0.5820   10.3820   -2.2290 O   0  0  0  0  0  0  0  0  0  0  0  0
    0.6070   12.4460   -1.0800 O   0  0  0  0  0  0  0  0  0  0  0  0
   -1.3920   10.7870   -6.6800 C   0  0  0  0  0  0  0  0  0  0  0  0
   -2.4970   10.0460   -6.1880 O   0  0  0  0  0  0  0  0  0  0  0  0
  2  1  1  6
  2  3  1  0
  2  4  1  0
  3  5  1  1
  3  6  1  0
  4  7  1  0
  6  8  1  1
  6  9  1  0
  7  9  1  0
  9 10  1  0
  9 11  1  0
  9 12  1  0
 10 13  1  0
 12 14  1  0
 11 15  1  0
 14 15  1  0
 13 16  1  1
 13 17  1  0
 14 18  1  6
 18 19  1  0
M  CHG  1  16  -1
M  END
