ucsf264-ucsf138
     RDKit          3D

 26 29  0  0  0  0  0  0  0  0999 V2000
    1.4750   12.6060   -3.2590 O   0  0  0  0  0  0  0  0  0  0  0  0
    0.2710   11.9640   -3.6460 C   0  0  2  0  0  0  0  0  0  0  0  0
    0.3980   10.6920   -3.1460 O   0  0  0  0  0  0  0  0  0  0  0  0
    0.0530   12.1170   -5.1310 C   0  0  1  0  0  0  0  0  0  0  0  0
    1.0030   11.5420   -5.9010 N   0  0  0  0  0  0  0  0  0  0  0  0
   -0.8250   11.4320   -5.9080 N   0  0  0  0  0  0  0  0  0  0  0  0
    0.8010   11.9240   -7.2620 C   0  0  2  0  0  0  0  0  0  0  0  0
   -0.6420   10.5040   -6.9070 C   0  0  1  0  0  0  0  0  0  0  0  0
   -1.7550   10.8890   -5.0450 C   0  0  1  0  0  0  0  0  0  0  0  0
    0.4260   10.6240   -8.2370 S   0  0  0  0  0  0  0  0  0  0  0  0
    2.1280   12.3310   -7.2380 O   0  0  0  0  0  0  0  0  0  0  0  0
   -0.8030    9.2450   -6.2130 C   0  0  1  0  0  0  0  0  0  0  0  0
   -3.0650   11.0370   -5.7110 C   0  0  0  0  0  0  0  0  0  0  0  0
   -1.2980    9.4870   -4.8110 C   0  0  0  0  0  0  0  0  0  0  0  0
   -0.2700    9.0880   -8.7570 F   0  0  0  0  0  0  0  0  0  0  0  0
    2.4720   10.3310   -7.5940 F   0  0  0  0  0  0  0  0  0  0  0  0
    1.4150    8.7580   -7.7110 F   0  0  0  0  0  0  0  0  0  0  0  0
   -1.8160    8.4840   -6.9140 C   0  0  0  0  0  0  0  0  0  0  0  0
   -3.8260    9.7680   -6.1260 C   0  0  0  0  0  0  0  0  0  0  0  0
    1.0420   10.4960   -9.8690 C   0  0  0  0  0  0  0  0  0  0  0  0
   -3.0800    8.4780   -6.1590 C   0  0  0  0  0  0  0  0  0  0  0  0
    0.2760   10.6540  -11.0680 C   0  0  0  0  0  0  0  0  0  0  0  0
    1.6700    9.1070   -9.7420 C   0  0  0  0  0  0  0  0  0  0  0  0
    0.0600    9.3450  -11.8170 C   0  0  0  0  0  0  0  0  0  0  0  0
    2.3130    8.6790  -11.0240 C   0  0  0  0  0  0  0  0  0  0  0  0
    1.2810    8.5200  -12.0310 C   0  0  0  0  0  0  0  0  0  0  0  0
  2  1  1  6
  2  3  1  0
  2  4  1  0
  4  5  1  6
  4  6  1  0
  5  7  1  0
  6  8  1  0
  6  9  1  0
  7 10  1  0
  8 10  1  1
  7 11  1  6
  8 12  1  0
  9 13  1  6
  9 14  1  0
 12 14  1  0
 10 15  1  0
 10 16  1  0
 10 17  1  0
 12 18  1  6
 13 19  1  0
 10 20  1  0
 18 21  1  0
 19 21  1  0
 20 22  1  0
 20 23  1  0
 22 24  1  0
 23 25  1  0
 24 26  1  0
 25 26  1  0
M  CHG  1   1  -1
M  END
