ucsf442-ucsf135
     RDKit          3D

 25 28  0  0  0  0  0  0  0  0999 V2000
   -0.2400   14.4780    0.9150 O   0  0  0  0  0  0  0  0  0  0  0  0
   -1.2950   15.2860    0.4930 C   0  0  1  0  0  0  0  0  0  0  0  0
   -1.6480   14.8540   -0.8270 N   0  0  0  0  0  0  0  0  0  0  0  0
   -2.3380   15.0930    1.4610 N   0  0  0  0  0  0  0  0  0  0  0  0
   -3.5720   14.7140    0.8210 C   0  0  2  0  0  0  0  0  0  0  0  0
   -2.8300   15.4590   -1.4270 C   0  0  1  0  0  0  0  0  0  0  0  0
   -3.0730   14.7060   -2.6120 O   0  0  0  0  0  0  0  0  0  0  0  0
   -3.9810   15.4970   -0.3910 C   0  0  1  0  0  0  0  0  0  0  0  0
   -4.7280   15.0890    1.5990 N   0  0  0  0  0  0  0  0  0  0  0  0
   -1.9020   13.9570   -2.9750 C   0  0  0  0  0  0  0  0  0  0  0  0
   -5.3050   14.9100   -0.6490 N   0  0  0  0  0  0  0  0  0  0  0  0
   -5.7690   14.5890    0.7080 C   0  0  0  0  0  0  0  0  0  0  0  0
   -2.0420   13.3880   -4.3820 C   0  0  0  0  0  0  0  0  0  0  0  0
   -2.0210   11.9650   -4.2860 O   0  0  0  0  0  0  0  0  0  0  0  0
   -0.6470   11.1340   -4.2970 S   0  0  2  0  0  0  0  0  0  0  0  0
   -0.3410   10.3690   -2.9360 O   0  0  0  0  0  0  0  0  0  0  0  0
    0.6810   11.8950   -4.9440 N   0  0  0  0  0  0  0  0  0  0  0  0
   -0.8680    9.8780   -5.5060 C   0  0  2  0  0  0  0  0  0  0  0  0
    0.7650   11.5920   -6.3830 C   0  0  1  0  0  0  0  0  0  0  0  0
   -0.4110   10.6450   -6.7670 C   0  0  1  0  0  0  0  0  0  0  0  0
   -2.2280    9.2760   -5.7160 C   0  0  0  0  0  0  0  0  0  0  0  0
    0.6660   12.7990   -7.0280 O   0  0  0  0  0  0  0  0  0  0  0  0
   -2.1650    8.2980   -6.8940 C   0  0  0  0  0  0  0  0  0  0  0  0
   -0.1880    9.6420   -7.8850 C   0  0  0  0  0  0  0  0  0  0  0  0
   -1.4980    8.8820   -8.1560 C   0  0  0  0  0  0  0  0  0  0  0  0
  2  1  1  1
  2  3  1  0
  2  4  1  0
  5  4  1  1
  3  6  1  0
  6  7  1  6
  5  8  1  0
  6  8  1  0
  5  9  1  0
  7 10  1  0
  8 11  1  6
  9 12  1  0
 11 12  1  0
 10 13  1  0
 13 14  1  0
 15 14  1  0
 15 16  1  1
 15 17  1  0
 15 18  1  0
 17 19  1  0
 18 20  1  0
 19 20  1  0
 18 21  1  6
 19 22  1  6
 21 23  1  0
 20 24  1  6
 23 25  1  0
 24 25  1  0
M  END
