ucsf124-ucsf392
     RDKit          3D

 26 28  0  0  0  0  0  0  0  0999 V2000
    0.6560   11.2880   -2.8600 O   0  0  0  0  0  0  0  0  0  0  0  0
    1.2650   12.3010   -3.4780 C   0  0  2  0  0  0  0  0  0  0  0  0
    1.6660   13.1750   -2.4100 O   0  0  0  0  0  0  0  0  0  0  0  0
    0.2840   13.0730   -4.4670 C   0  0  0  0  0  0  0  0  0  0  0  0
    0.5900   13.5080   -1.5520 C   0  0  0  0  0  0  0  0  0  0  0  0
   -0.3250   12.3450   -5.6250 N   0  0  0  0  0  0  0  0  0  0  0  0
    0.8880   14.7770   -0.7760 C   0  0  0  0  0  0  0  0  0  0  0  0
   -1.2540   11.3040   -5.2100 C   0  0  1  0  0  0  0  0  0  0  0  0
    0.5720   11.4590   -6.3020 C   0  0  2  0  0  0  0  0  0  0  0  0
   -2.4110   11.8730   -4.6530 O   0  0  0  0  0  0  0  0  0  0  0  0
    1.7970   12.0000   -6.7650 O   0  0  0  0  0  0  0  0  0  0  0  0
    0.0620   14.9570    0.5080 C   0  0  0  0  0  0  0  0  0  0  0  0
   -1.5890   10.5930   -6.5400 C   0  0  1  0  0  0  0  0  0  0  0  0
   -0.3080   10.8110   -7.3650 C   0  0  2  0  0  0  0  0  0  0  0  0
   -1.9580    9.1200   -6.3730 C   0  0  0  0  0  0  0  0  0  0  0  0
    0.2330    9.5430   -8.0450 C   0  0  0  0  0  0  0  0  0  0  0  0
   -1.3930   14.5810    0.3520 C   0  0  1  0  0  0  0  0  0  0  0  0
   -2.0370    8.3950   -7.7170 C   0  0  0  0  0  0  0  0  0  0  0  0
   -0.8980    8.7410   -8.6890 C   0  0  0  0  0  0  0  0  0  0  0  0
   -2.2930   15.3880    1.1120 N   0  0  0  0  0  0  0  0  0  0  0  0
   -1.6860   14.6450   -1.0610 N   0  0  0  0  0  0  0  0  0  0  0  0
   -3.5880   14.8050    1.0350 C   0  0  1  0  0  0  0  0  0  0  0  0
   -3.0630   14.9200   -1.4540 C   0  0  0  0  0  0  0  0  0  0  0  0
   -4.3830   15.6020    1.9220 N   0  0  0  0  0  0  0  0  0  0  0  0
   -4.1440   14.6980   -0.3970 C   0  0  2  0  0  0  0  0  0  0  0  0
   -5.3120   15.6270   -0.7080 C   0  0  0  0  0  0  0  0  0  0  0  0
  2  1  1  1
  2  3  1  0
  2  4  1  0
  3  5  1  0
  4  6  1  0
  5  7  1  0
  6  8  1  0
  6  9  1  0
  8 10  1  6
  9 11  1  6
  7 12  1  0
  8 13  1  0
  9 14  1  0
 13 14  1  0
 13 15  1  1
 14 16  1  1
 17 12  1  6
 15 18  1  0
 16 19  1  0
 18 19  1  0
 17 20  1  0
 17 21  1  0
 20 22  1  0
 21 23  1  0
 22 24  1  1
 22 25  1  0
 23 25  1  0
 25 26  1  1
M  CHG  1   1  -1
M  END
