ucsf224-ucsf274
     RDKit          3D

 24 26  0  0  0  0  0  0  0  0999 V2000
   -1.3190   18.6520   -5.1940 Cl  0  0  0  0  0  0  0  0  0  0  0  0
   -0.5970   17.0150   -5.2050 C   0  0  2  0  0  0  0  0  0  0  0  0
   -1.6290   15.9780   -4.7620 C   0  0  1  0  0  0  0  0  0  0  0  0
    0.6880   16.9640   -4.3670 C   0  0  0  0  0  0  0  0  0  0  0  0
   -3.1020   15.9490   -5.7910 Cl  0  0  0  0  0  0  0  0  0  0  0  0
   -0.9980   14.6230   -4.7640 C   0  0  0  0  0  0  0  0  0  0  0  0
    1.2620   15.5400   -4.2380 C   0  0  0  0  0  0  0  0  0  0  0  0
    0.1760   14.5480   -3.7860 C   0  0  2  0  0  0  0  0  0  0  0  0
    0.4450   13.0280   -3.7180 C   0  0  2  0  0  0  0  0  0  0  0  0
    1.1390   12.3490   -2.4900 C   0  0  2  0  0  0  0  0  0  0  0  0
    0.6370   12.4090   -5.1030 C   0  0  0  0  0  0  0  0  0  0  0  0
    0.6600   11.1190   -2.3560 O   0  0  0  0  0  0  0  0  0  0  0  0
    0.6260   12.8740   -1.2770 O   0  0  0  0  0  0  0  0  0  0  0  0
   -0.6370   12.0020   -5.8600 C   0  0  2  0  0  0  0  0  0  0  0  0
   -1.6060   11.2870   -4.8330 C   0  0  1  0  0  0  0  0  0  0  0  0
   -0.4370   11.2330   -7.0960 N   0  0  0  0  0  0  0  0  0  0  0  0
   -2.3020   12.1980   -4.0000 O   0  0  0  0  0  0  0  0  0  0  0  0
   -2.6110   10.4890   -5.5070 N   0  0  0  0  0  0  0  0  0  0  0  0
   -0.5850    9.7870   -6.8630 C   0  0  1  0  0  0  0  0  0  0  0  0
   -1.9040    9.3630   -6.1360 C   0  0  2  0  0  0  0  0  0  0  0  0
   -0.3630    9.0970   -8.2080 C   0  0  0  0  0  0  0  0  0  0  0  0
   -0.7510    7.6340   -8.1240 C   0  0  0  0  0  0  0  0  0  0  0  0
   -2.8680    8.6330   -7.0550 C   0  0  0  0  0  0  0  0  0  0  0  0
   -2.2140    7.4280   -7.7240 C   0  0  0  0  0  0  0  0  0  0  0  0
  2  1  1  1
  2  3  1  0
  2  4  1  0
  3  5  1  6
  3  6  1  0
  4  7  1  0
  8  6  1  6
  7  8  1  0
  8  9  1  0
  9 10  1  0
  9 11  1  6
 10 12  1  1
 10 13  1  0
 14 11  1  1
 14 15  1  0
 14 16  1  0
 15 17  1  6
 15 18  1  0
 16 19  1  0
 18 20  1  0
 19 20  1  0
 19 21  1  6
 21 22  1  0
 20 23  1  6
 22 24  1  0
 23 24  1  0
M  CHG  1  12  -1
M  END
