ucsf213-ucsf016
     RDKit          3D

 23 27  0  0  0  0  0  0  0  0999 V2000
    0.4390   10.4040   -2.4630 O   0  0  0  0  0  0  0  0  0  0  0  0
    0.8160   11.7510   -2.5660 C   0  0  2  0  0  0  0  0  0  0  0  0
    0.6240   12.4250   -1.3640 O   0  0  0  0  0  0  0  0  0  0  0  0
    0.2700   12.4440   -3.7480 C   0  0  0  0  0  0  0  0  0  0  0  0
    0.1650   13.8960   -3.5300 C   0  0  1  0  0  0  0  0  0  0  0  0
    1.0440   14.7490   -4.2700 C   0  0  0  0  0  0  0  0  0  0  0  0
   -1.6040   14.5880   -3.2210 S   0  0  0  0  0  0  0  0  0  0  0  0
    0.1740   15.5890   -5.0580 C   0  0  1  0  0  0  0  0  0  0  0  0
   -0.7300   16.0440   -4.0670 C   0  0  1  0  0  0  0  0  0  0  0  0
   -2.9620   14.7920   -4.6320 C   0  0  0  0  0  0  0  0  0  0  0  0
   -2.9490   13.5480   -4.2010 C   0  0  0  0  0  0  0  0  0  0  0  0
   -1.6920   15.1630   -1.4750 N   0  0  0  0  0  0  0  0  0  0  0  0
   -2.5360   14.5860   -1.4890 C   0  0  2  0  0  0  0  0  0  0  0  0
    0.8600   16.9460   -5.4080 C   0  0  0  0  0  0  0  0  0  0  0  0
   -1.7220   16.8710   -4.8150 C   0  0  0  0  0  0  0  0  0  0  0  0
   -0.4740   14.9560   -0.7900 C   0  0  0  0  0  0  0  0  0  0  0  0
   -2.1690   14.3150   -0.0670 C   0  0  1  0  0  0  0  0  0  0  0  0
   -3.8860   14.2530   -1.4980 C   0  0  0  0  0  0  0  0  0  0  0  0
   -0.0120   18.0180   -5.9810 C   0  0  0  0  0  0  0  0  0  0  0  0
   -1.1900   18.2300   -5.0270 C   0  0  0  0  0  0  0  0  0  0  0  0
   -0.9860   14.7370    0.5440 N   0  0  0  0  0  0  0  0  0  0  0  0
   -3.1600   15.2260    0.6050 N   0  0  0  0  0  0  0  0  0  0  0  0
   -4.3490   15.0470   -0.2360 C   0  0  0  0  0  0  0  0  0  0  0  0
  2  1  1  1
  2  3  1  0
  2  4  1  0
  5  4  1  6
  5  6  1  0
  5  7  1  0
  8  6  1  1
  7  9  1  0
  8  9  1  0
  7 10  1  0
  7 11  1  0
 10 11  1  0
  7 12  1  0
  7 13  1  0
  8 14  1  0
  9 15  1  6
 12 16  1  0
 13 17  1  0
 13 18  1  6
 14 19  1  0
 15 20  1  0
 19 20  1  0
 16 21  1  0
 17 21  1  6
 17 22  1  0
 18 23  1  0
 22 23  1  0
M  CHG  1   1  -1
M  END
