ucsf224-ucsf264
     RDKit          3D

 25 27  0  0  0  0  0  0  0  0999 V2000
   -1.1970   18.4030   -4.9930 Cl  0  0  0  0  0  0  0  0  0  0  0  0
   -0.5400   16.7440   -5.2140 C   0  0  2  0  0  0  0  0  0  0  0  0
   -1.6860   15.7030   -5.2480 C   0  0  2  0  0  0  0  0  0  0  0  0
    0.6550   16.4560   -4.2920 C   0  0  0  0  0  0  0  0  0  0  0  0
   -2.9450   15.7970   -3.9950 Cl  0  0  0  0  0  0  0  0  0  0  0  0
   -1.1490   14.2850   -5.2620 C   0  0  0  0  0  0  0  0  0  0  0  0
    1.0810   14.9780   -4.2190 C   0  0  0  0  0  0  0  0  0  0  0  0
   -0.1230   14.0120   -4.2000 C   0  0  2  0  0  0  0  0  0  0  0  0
   -0.0390   12.4550   -3.9410 C   0  0  2  0  0  0  0  0  0  0  0  0
    0.5660   12.0080   -2.5140 C   0  0  1  0  0  0  0  0  0  0  0  0
    0.1420   11.5280   -5.1570 N   0  0  0  0  0  0  0  0  0  0  0  0
    0.5980   10.6850   -2.3500 O   0  0  0  0  0  0  0  0  0  0  0  0
    1.9210   12.3950   -2.3710 O   0  0  0  0  0  0  0  0  0  0  0  0
    0.9060   11.9450   -6.3610 N   0  0  0  0  0  0  0  0  0  0  0  0
   -1.1070   11.0380   -5.7340 C   0  0  1  0  0  0  0  0  0  0  0  0
    0.3420   11.1640   -7.5250 C   0  0  2  0  0  0  0  0  0  0  0  0
   -0.5400   10.1410   -6.8320 C   0  0  2  0  0  0  0  0  0  0  0  0
   -2.0750   10.2860   -4.8210 C   0  0  0  0  0  0  0  0  0  0  0  0
    1.2530   10.5730   -8.5860 C   0  0  0  0  0  0  0  0  0  0  0  0
   -1.5970    9.4070   -7.6530 C   0  0  0  0  0  0  0  0  0  0  0  0
   -3.1050    9.4980   -5.6330 C   0  0  0  0  0  0  0  0  0  0  0  0
    1.5940    9.2780   -8.4110 F   0  0  0  0  0  0  0  0  0  0  0  0
    0.6940   10.6530   -9.8260 F   0  0  0  0  0  0  0  0  0  0  0  0
    2.3640   11.2670   -8.5980 F   0  0  0  0  0  0  0  0  0  0  0  0
   -2.4860    8.6040   -6.7100 C   0  0  0  0  0  0  0  0  0  0  0  0
  2  1  1  1
  2  3  1  0
  2  4  1  0
  3  5  1  1
  3  6  1  0
  4  7  1  0
  8  6  1  6
  7  8  1  0
  8  9  1  0
  9 10  1  0
  9 11  1  6
 10 12  1  6
 10 13  1  0
 11 14  1  0
 11 15  1  0
 14 16  1  0
 15 17  1  0
 16 17  1  0
 15 18  1  1
 16 19  1  1
 17 20  1  6
 18 21  1  0
 19 22  1  0
 19 23  1  0
 19 24  1  0
 20 25  1  0
 21 25  1  0
M  CHG  1  12  -1
M  END
