ucsf367-ucsf345
     RDKit          3D

 23 24  0  0  0  0  0  0  0  0999 V2000
    0.7290   10.9120   -2.9530 O   0  0  0  0  0  0  0  0  0  0  0  0
    0.3660   12.1360   -3.2920 C   0  0  1  0  0  0  0  0  0  0  0  0
    1.0740   13.0120   -2.4090 O   0  0  0  0  0  0  0  0  0  0  0  0
    0.8180   12.5180   -4.7470 C   0  0  0  0  0  0  0  0  0  0  0  0
    0.7900   11.4120   -5.6720 O   0  0  0  0  0  0  0  0  0  0  0  0
    0.2210   13.8120   -1.5910 C   0  0  0  0  0  0  0  0  0  0  0  0
   -1.0100   13.0560   -1.0860 C   0  0  0  0  0  0  0  0  0  0  0  0
   -0.4900   10.9930   -6.1530 C   0  0  0  0  0  0  0  0  0  0  0  0
   -2.3620   13.2500   -1.8010 C   0  0  0  0  0  0  0  0  0  0  0  0
   -0.4020    9.5390   -6.6630 C   0  0  0  0  0  0  0  0  0  0  0  0
   -1.5180   11.1210   -5.0250 C   0  0  0  0  0  0  0  0  0  0  0  0
   -1.7400    8.9970   -7.1050 C   0  0  0  0  0  0  0  0  0  0  0  0
   -2.8740   10.5420   -5.4240 C   0  0  0  0  0  0  0  0  0  0  0  0
   -2.9320   14.6810   -1.8250 C   0  0  1  0  0  0  0  0  0  0  0  0
   -2.7690    9.1250   -5.9920 C   0  0  0  0  0  0  0  0  0  0  0  0
   -4.2110   14.8040   -2.6950 C   0  0  0  0  0  0  0  0  0  0  0  0
   -3.0800   15.1760   -0.4360 N   0  0  0  0  0  0  0  0  0  0  0  0
   -5.4580   15.0790   -1.9710 N   0  0  0  0  0  0  0  0  0  0  0  0
   -4.2740   14.7000    0.2720 C   0  0  0  0  0  0  0  0  0  0  0  0
   -5.4880   14.4190   -0.6480 C   0  0  1  0  0  0  0  0  0  0  0  0
   -6.8370   14.7110    0.0780 C   0  0  2  0  0  0  0  0  0  0  0  0
   -6.7290   14.7170    1.5320 N   0  0  0  0  0  0  0  0  0  0  0  0
   -7.8560   13.8040   -0.2600 O   0  0  0  0  0  0  0  0  0  0  0  0
  2  1  1  1
  2  3  1  0
  2  4  1  0
  4  5  1  0
  3  6  1  0
  6  7  1  0
  5  8  1  0
  7  9  1  0
  8 10  1  0
  8 11  1  0
 10 12  1  0
 11 13  1  0
 14  9  1  1
 12 15  1  0
 13 15  1  0
 14 16  1  0
 14 17  1  0
 16 18  1  0
 17 19  1  0
 18 20  1  0
 20 19  1  1
 20 21  1  0
 21 22  1  1
 21 23  1  0
M  CHG  1   1  -1
M  END
