ucsf422-ucsf348
     RDKit          3D

 28 31  0  0  0  0  0  0  0  0999 V2000
    0.4370   10.9800   -2.7380 O   0  0  0  0  0  0  0  0  0  0  0  0
    0.4030   12.2630   -3.0230 C   0  0  1  0  0  0  0  0  0  0  0  0
    1.3890   12.7520   -2.1410 O   0  0  0  0  0  0  0  0  0  0  0  0
    0.8870   12.5590   -4.4610 C   0  0  0  0  0  0  0  0  0  0  0  0
    0.8270   14.0410   -4.8730 C   0  0  2  0  0  0  0  0  0  0  0  0
    1.8830   14.9170   -4.2590 C   0  0  0  0  0  0  0  0  0  0  0  0
   -0.3700   14.8360   -4.3460 C   0  0  1  0  0  0  0  0  0  0  0  0
    1.5020   16.2500   -4.7630 N   0  0  0  0  0  0  0  0  0  0  0  0
    0.0820   16.3120   -4.4190 C   0  0  1  0  0  0  0  0  0  0  0  0
   -1.7420   14.5840   -4.9260 C   0  0  0  0  0  0  0  0  0  0  0  0
   -0.6630   17.2190   -5.4150 C   0  0  0  0  0  0  0  0  0  0  0  0
   -2.6790   15.7600   -4.6780 C   0  0  2  0  0  0  0  0  0  0  0  0
   -4.0610   15.4350   -4.9390 O   0  0  0  0  0  0  0  0  0  0  0  0
   -2.1830   16.9840   -5.4780 C   0  0  0  0  0  0  0  0  0  0  0  0
   -4.6500   14.4190   -4.0710 C   0  0  0  0  0  0  0  0  0  0  0  0
   -5.7550   14.9770   -3.1310 C   0  0  0  0  0  0  0  0  0  0  0  0
   -6.2610   14.0320   -2.1930 O   0  0  0  0  0  0  0  0  0  0  0  0
   -5.7350   14.0580   -0.8610 C   0  0  2  0  0  0  0  0  0  0  0  0
   -6.5500   14.8510    0.0700 N   0  0  0  0  0  0  0  0  0  0  0  0
   -4.2490   14.4300   -0.7860 C   0  0  2  0  0  0  0  0  0  0  0  0
   -6.0910   14.6890    1.4380 C   0  0  1  0  0  0  0  0  0  0  0  0
   -3.9370   14.9810    0.5790 C   0  0  1  0  0  0  0  0  0  0  0  0
   -3.6560   15.3710   -1.8010 C   0  0  0  0  0  0  0  0  0  0  0  0
   -6.8690   13.6540    2.0020 N   0  0  0  0  0  0  0  0  0  0  0  0
   -4.7550   14.2010    1.4940 N   0  0  0  0  0  0  0  0  0  0  0  0
   -2.4420   14.8060    0.8340 C   0  0  0  0  0  0  0  0  0  0  0  0
   -2.1380   15.2640   -1.7190 C   0  0  0  0  0  0  0  0  0  0  0  0
   -1.5690   15.3820   -0.2940 C   0  0  0  0  0  0  0  0  0  0  0  0
  2  1  1  6
  2  3  1  0
  2  4  1  0
  5  4  1  1
  5  6  1  0
  5  7  1  0
  6  8  1  0
  7  9  1  0
  8  9  1  0
  7 10  1  6
  9 11  1  6
 10 12  1  0
 12 13  1  6
 11 14  1  0
 12 14  1  0
 13 15  1  0
 15 16  1  0
 16 17  1  0
 18 17  1  6
 18 19  1  0
 18 20  1  0
 19 21  1  0
 20 22  1  0
 20 23  1  6
 21 24  1  1
 21 25  1  0
 22 25  1  0
 22 26  1  1
 23 27  1  0
 26 28  1  0
 27 28  1  0
M  CHG  1   1  -1
M  END
