ucsf124-ucsf424
     RDKit          3D

 15 16  0  0  0  0  0  0  0  0999 V2000
    0.7930   11.1810   -2.5310 O   0  0  0  0  0  0  0  0  0  0  0  0
    1.3460   12.2460   -3.0850 C   0  0  2  0  0  0  0  0  0  0  0  0
    0.9690   13.2530   -2.1660 O   0  0  0  0  0  0  0  0  0  0  0  0
    0.7040   12.5500   -4.4800 C   0  0  0  0  0  0  0  0  0  0  0  0
    0.2910   11.4140   -5.3460 N   0  0  0  0  0  0  0  0  0  0  0  0
   -1.0820   11.0200   -5.1790 C   0  0  1  0  0  0  0  0  0  0  0  0
    0.4600   11.6920   -6.7550 C   0  0  1  0  0  0  0  0  0  0  0  0
   -1.8420   12.1810   -4.9920 O   0  0  0  0  0  0  0  0  0  0  0  0
    1.7930   11.5890   -7.1090 O   0  0  0  0  0  0  0  0  0  0  0  0
   -1.5440   10.3960   -6.5040 C   0  0  1  0  0  0  0  0  0  0  0  0
   -0.4070   10.6620   -7.4830 C   0  0  2  0  0  0  0  0  0  0  0  0
   -1.9010    8.9210   -6.3850 C   0  0  0  0  0  0  0  0  0  0  0  0
    0.2840    9.3920   -7.9920 C   0  0  0  0  0  0  0  0  0  0  0  0
   -1.9940    8.2600   -7.7640 C   0  0  0  0  0  0  0  0  0  0  0  0
   -0.7500    8.4740   -8.6390 C   0  0  0  0  0  0  0  0  0  0  0  0
  2  1  1  1
  2  3  1  0
  2  4  1  0
  4  5  1  0
  5  6  1  0
  5  7  1  0
  6  8  1  6
  7  9  1  6
  6 10  1  0
  7 11  1  0
 10 11  1  0
 10 12  1  1
 11 13  1  1
 12 14  1  0
 13 15  1  0
 14 15  1  0
M  CHG  1   1  -1
M  END
