ucsf339-ucsf013
     RDKit          3D

 19 21  0  0  0  0  0  0  0  0999 V2000
    1.9920   14.3820   -2.4890 O   0  0  0  0  0  0  0  0  0  0  0  0
    0.8250   13.6980   -2.1380 C   0  0  1  0  0  0  0  0  0  0  0  0
    0.7670   13.2790   -0.8190 O   0  0  0  0  0  0  0  0  0  0  0  0
   -0.4010   14.5300   -2.4810 C   0  0  2  0  0  0  0  0  0  0  0  0
   -1.4920   14.3630   -1.5460 C   0  0  0  0  0  0  0  0  0  0  0  0
   -0.6890   14.3130   -3.9720 C   0  0  0  0  0  0  0  0  0  0  0  0
   -2.7730   14.8060   -2.1180 C   0  0  1  0  0  0  0  0  0  0  0  0
   -2.0410   14.6990   -4.2470 N   0  0  0  0  0  0  0  0  0  0  0  0
   -3.0280   14.3010   -3.4040 C   0  0  0  0  0  0  0  0  0  0  0  0
   -4.2870   15.1450   -0.9190 S   0  0  0  0  0  0  0  0  0  0  0  0
   -3.8340   15.5590    0.8260 C   0  0  0  0  0  0  0  0  0  0  0  0
   -4.3000   13.5530    0.0040 C   0  0  0  0  0  0  0  0  0  0  0  0
   -5.0530   15.5400   -2.4200 C   0  0  0  0  0  0  0  0  0  0  0  0
   -6.1060   15.3060   -1.0440 C   0  0  0  0  0  0  0  0  0  0  0  0
   -4.6590   15.0370    1.8720 C   0  0  0  0  0  0  0  0  0  0  0  0
   -5.4690   13.2610    0.7960 C   0  0  0  0  0  0  0  0  0  0  0  0
   -6.6810   14.2070   -1.9040 C   0  0  0  0  0  0  0  0  0  0  0  0
   -5.7400   14.4260   -2.9690 C   0  0  0  0  0  0  0  0  0  0  0  0
   -5.9230   14.3590    1.6160 C   0  0  0  0  0  0  0  0  0  0  0  0
  2  1  1  1
  2  3  1  0
  2  4  1  0
  4  5  1  1
  4  6  1  0
  7  5  1  1
  6  8  1  0
  7  9  1  0
  8  9  1  0
  7 10  1  0
 10 11  1  0
 10 12  1  0
 10 13  1  0
 10 14  1  0
 11 15  1  0
 12 16  1  0
 14 17  1  0
 13 18  1  0
 17 18  1  0
 15 19  1  0
 16 19  1  0
M  CHG  1   1  -1
M  END
