ucsf030-ucsf262
     RDKit          3D

 28 31  0  0  0  0  0  0  0  0999 V2000
   -4.2560   15.3560   -1.3700 Cl  0  0  0  0  0  0  0  0  0  0  0  0
   -2.8980   14.5910   -0.4760 C   0  0  2  0  0  0  0  0  0  0  0  0
   -2.6980   15.3310    0.8510 C   0  0  1  0  0  0  0  0  0  0  0  0
   -1.5280   14.6450   -1.1950 C   0  0  1  0  0  0  0  0  0  0  0  0
   -3.9210   15.5520    1.6160 N   0  0  0  0  0  0  0  0  0  0  0  0
   -0.5070   14.9860   -0.1960 N   0  0  0  0  0  0  0  0  0  0  0  0
   -1.8280   14.6130    1.7290 N   0  0  0  0  0  0  0  0  0  0  0  0
   -1.1040   13.4370   -1.9310 N   0  0  0  0  0  0  0  0  0  0  0  0
   -0.5730   14.2750    1.0610 C   0  0  0  0  0  0  0  0  0  0  0  0
    0.3140   13.1570   -1.8750 C   0  0  0  0  0  0  0  0  0  0  0  0
   -1.4380   13.2970   -3.3170 C   0  0  0  0  0  0  0  0  0  0  0  0
    0.7730   12.3680   -3.1300 C   0  0  0  0  0  0  0  0  0  0  0  0
   -1.5840   11.8770   -3.8000 C   0  0  0  0  0  0  0  0  0  0  0  0
   -1.6530   14.5040   -4.2120 C   0  0  0  0  0  0  0  0  0  0  0  0
   -0.2070   11.2830   -3.6080 C   0  0  0  0  0  0  0  0  0  0  0  0
   -0.4500   15.4340   -4.4400 C   0  0  2  0  0  0  0  0  0  0  0  0
    0.7800   15.5030   -3.4930 C   0  0  1  0  0  0  0  0  0  0  0  0
   -0.9330   16.8780   -4.3880 C   0  0  1  0  0  0  0  0  0  0  0  0
    2.0440   14.5680   -3.5370 C   0  0  2  0  0  0  0  0  0  0  0  0
    0.3440   17.7070   -4.3910 C   0  0  1  0  0  0  0  0  0  0  0  0
    1.3680   16.7610   -4.0230 N   0  0  0  0  0  0  0  0  0  0  0  0
   -1.7440   17.1420   -5.6170 C   0  0  1  0  0  0  0  0  0  0  0  0
   -3.2200   16.1070   -5.7690 Cl  0  0  0  0  0  0  0  0  0  0  0  0
    1.8520   13.2940   -3.6510 O   0  0  0  0  0  0  0  0  0  0  0  0
    2.6270   14.5530   -2.2400 O   0  0  0  0  0  0  0  0  0  0  0  0
   -1.8920   18.5890   -5.9360 C   0  0  0  0  0  0  0  0  0  0  0  0
    0.6630   18.3410   -5.7480 C   0  0  0  0  0  0  0  0  0  0  0  0
   -0.5300   19.0310   -6.4610 C   0  0  0  0  0  0  0  0  0  0  0  0
  2  1  1  6
  2  3  1  0
  2  4  1  0
  3  5  1  1
  4  6  1  0
  3  7  1  0
  4  8  1  1
  6  9  1  0
  7  9  1  0
  8 10  1  0
  8 11  1  0
 10 12  1  0
 11 13  1  0
 11 14  1  0
 12 15  1  0
 13 15  1  0
 16 14  1  1
 16 17  1  0
 16 18  1  0
 17 19  1  0
 18 20  1  0
 17 21  1  6
 20 21  1  0
 18 22  1  6
 22 23  1  1
 19 24  1  1
 19 25  1  0
 22 26  1  0
 20 27  1  6
 26 28  1  0
 27 28  1  0
M  CHG  1  24  -1
M  END
