ucsf012-ucsf274
     RDKit          3D

 33 37  0  0  0  0  0  0  0  0999 V2000
   -3.2820   14.6070   -4.1540 C   0  0  0  0  0  0  0  0  0  0  0  0
   -2.5930   15.2850   -2.9730 C   0  0  1  0  0  0  0  0  0  0  0  0
   -3.3330   14.8930   -1.6740 C   0  0  2  0  0  0  0  0  0  0  0  0
   -1.1720   14.9220   -2.7120 N   0  0  0  0  0  0  0  0  0  0  0  0
   -4.7630   15.4330   -1.5510 C   0  0  0  0  0  0  0  0  0  0  0  0
   -0.4130   13.7500   -3.4550 C   0  0  2  0  0  0  0  0  0  0  0  0
   -2.3890   15.5030   -0.6720 C   0  0  2  0  0  0  0  0  0  0  0  0
   -0.9960   15.1720   -1.2480 C   0  0  1  0  0  0  0  0  0  0  0  0
    1.1320   13.4590   -2.9530 C   0  0  2  0  0  0  0  0  0  0  0  0
   -0.4330   13.7120   -5.0730 C   0  0  0  0  0  0  0  0  0  0  0  0
   -2.6570   15.1300    0.8030 C   0  0  1  0  0  0  0  0  0  0  0  0
   -0.4450   14.0460   -0.5230 N   0  0  0  0  0  0  0  0  0  0  0  0
   -1.2230   12.4290   -3.0670 C   0  0  2  0  0  0  0  0  0  0  0  0
   -3.8910   14.4050    1.0300 N   0  0  0  0  0  0  0  0  0  0  0  0
    1.7170   12.3910   -3.4840 O   0  0  0  0  0  0  0  0  0  0  0  0
    1.2010   13.0760   -1.5920 O   0  0  0  0  0  0  0  0  0  0  0  0
   -1.6320   14.3450    1.4620 N   0  0  0  0  0  0  0  0  0  0  0  0
   -0.3080   14.4060    0.8660 C   0  0  0  0  0  0  0  0  0  0  0  0
   -0.6830   11.5850   -1.9530 C   0  0  0  0  0  0  0  0  0  0  0  0
   -1.3560   11.4550   -4.0990 O   0  0  0  0  0  0  0  0  0  0  0  0
   -0.9650   12.5230   -5.9680 C   0  0  2  0  0  0  0  0  0  0  0  0
   -0.2090   10.6230   -4.0130 C   0  0  0  0  0  0  0  0  0  0  0  0
    0.3910   10.8220   -2.6490 C   0  0  0  0  0  0  0  0  0  0  0  0
   -2.3970   12.0150   -5.5260 C   0  0  1  0  0  0  0  0  0  0  0  0
   -0.0230   11.4060   -6.3220 N   0  0  0  0  0  0  0  0  0  0  0  0
   -3.3150   13.0730   -5.7190 O   0  0  0  0  0  0  0  0  0  0  0  0
   -2.9650   10.8680   -6.2210 N   0  0  0  0  0  0  0  0  0  0  0  0
   -0.5540   10.0270   -6.5180 C   0  0  1  0  0  0  0  0  0  0  0  0
   -2.0450    9.7370   -6.1910 C   0  0  2  0  0  0  0  0  0  0  0  0
   -0.1700    9.5640   -7.9300 C   0  0  0  0  0  0  0  0  0  0  0  0
   -0.4430    8.0730   -8.1440 C   0  0  0  0  0  0  0  0  0  0  0  0
   -2.6540    8.6090   -7.0340 C   0  0  0  0  0  0  0  0  0  0  0  0
   -1.6270    7.5300   -7.3400 C   0  0  0  0  0  0  0  0  0  0  0  0
  2  1  1  6
  2  3  1  0
  2  4  1  0
  3  5  1  6
  4  6  1  0
  3  7  1  0
  4  8  1  0
  7  8  1  0
  6  9  1  0
  6 10  1  6
  7 11  1  1
  8 12  1  1
  6 13  1  0
 11 14  1  6
  9 15  1  6
  9 16  1  0
 11 17  1  0
 12 18  1  0
 17 18  1  0
 13 19  1  1
 13 20  1  0
 21 10  1  1
 20 22  1  0
 19 23  1  0
 22 23  1  0
 21 24  1  0
 21 25  1  0
 24 26  1  6
 24 27  1  0
 25 28  1  0
 27 29  1  0
 28 29  1  0
 28 30  1  6
 30 31  1  0
 29 32  1  6
 31 33  1  0
 32 33  1  0
M  CHG  1  15  -1
M  END
