ucsf365-ucsf264
     RDKit          3D

 24 26  0  0  0  0  0  0  0  0999 V2000
    0.7520   11.4340   -2.2570 O   0  0  0  0  0  0  0  0  0  0  0  0
    0.9910   12.4710   -3.0540 C   0  0  1  0  0  0  0  0  0  0  0  0
    2.3660   12.3140   -3.2710 O   0  0  0  0  0  0  0  0  0  0  0  0
    0.0530   12.3160   -4.3250 C   0  0  1  0  0  0  0  0  0  0  0  0
   -1.0350   13.4030   -4.6360 C   0  0  2  0  0  0  0  0  0  0  0  0
    0.3550   11.3760   -5.4720 N   0  0  0  0  0  0  0  0  0  0  0  0
   -1.9750   12.9400   -5.7490 C   0  0  1  0  0  0  0  0  0  0  0  0
   -0.5540   14.8310   -4.9430 C   0  0  0  0  0  0  0  0  0  0  0  0
    1.0750   11.7560   -6.6820 N   0  0  0  0  0  0  0  0  0  0  0  0
   -0.8960   10.7610   -5.8290 C   0  0  1  0  0  0  0  0  0  0  0  0
   -2.6300   11.7090   -5.4560 O   0  0  0  0  0  0  0  0  0  0  0  0
   -3.1190   13.9090   -6.0100 C   0  0  0  0  0  0  0  0  0  0  0  0
   -1.7090   15.8320   -5.0790 C   0  0  0  0  0  0  0  0  0  0  0  0
    0.3110   11.1930   -7.8590 C   0  0  2  0  0  0  0  0  0  0  0  0
   -0.9230   10.4870   -7.3210 C   0  0  1  0  0  0  0  0  0  0  0  0
   -1.2570    9.5350   -5.0390 C   0  0  0  0  0  0  0  0  0  0  0  0
    0.9510   10.4180   -9.0310 C   0  0  0  0  0  0  0  0  0  0  0  0
   -3.0880   15.1880   -5.1870 C   0  0  0  0  0  0  0  0  0  0  0  0
   -1.1510    8.9940   -7.6350 C   0  0  0  0  0  0  0  0  0  0  0  0
   -2.5580    8.9250   -5.5450 C   0  0  0  0  0  0  0  0  0  0  0  0
    1.6010    9.2900   -8.6790 F   0  0  0  0  0  0  0  0  0  0  0  0
   -0.0100   10.0080   -9.8860 F   0  0  0  0  0  0  0  0  0  0  0  0
    1.7210   11.1750   -9.8340 F   0  0  0  0  0  0  0  0  0  0  0  0
   -2.4050    8.4250   -6.9760 C   0  0  0  0  0  0  0  0  0  0  0  0
  2  1  1  1
  2  3  1  0
  2  4  1  0
  4  5  1  0
  4  6  1  6
  5  7  1  0
  5  8  1  6
  6  9  1  0
  6 10  1  0
  7 11  1  1
  7 12  1  0
  8 13  1  0
  9 14  1  0
 10 15  1  0
 14 15  1  0
 10 16  1  1
 14 17  1  1
 12 18  1  0
 13 18  1  0
 15 19  1  1
 16 20  1  0
 17 21  1  0
 17 22  1  0
 17 23  1  0
 19 24  1  0
 20 24  1  0
M  CHG  1   1  -1
M  END
