ucsf260-ucsf173
     RDKit          3D

 23 26  0  0  0  0  0  0  0  0999 V2000
    0.4630   11.5770   -2.6730 O   0  0  0  0  0  0  0  0  0  0  0  0
    0.9120   12.7280   -3.1620 C   0  0  1  0  0  0  0  0  0  0  0  0
    2.0940   12.8500   -2.3920 O   0  0  0  0  0  0  0  0  0  0  0  0
    1.3480   12.6400   -4.6200 C   0  0  0  0  0  0  0  0  0  0  0  0
    0.0590   14.0060   -2.9190 C   0  0  2  0  0  0  0  0  0  0  0  0
    0.3940   13.1180   -5.7080 C   0  0  0  0  0  0  0  0  0  0  0  0
   -1.2900   14.2460   -3.6570 C   0  0  0  0  0  0  0  0  0  0  0  0
    0.8270   15.3380   -3.1540 C   0  0  0  0  0  0  0  0  0  0  0  0
   -0.7020   12.2380   -6.0880 N   0  0  0  0  0  0  0  0  0  0  0  0
   -1.0770   15.3450   -4.7150 C   0  0  2  0  0  0  0  0  0  0  0  0
    0.3290   15.9410   -4.4620 C   0  0  1  0  0  0  0  0  0  0  0  0
   -1.6140   11.8110   -5.0190 C   0  0  0  0  0  0  0  0  0  0  0  0
   -0.2740   10.9650   -6.6020 C   0  0  1  0  0  0  0  0  0  0  0  0
   -2.2040   16.3810   -4.8260 C   0  0  0  0  0  0  0  0  0  0  0  0
    0.3570   17.4630   -4.5310 C   0  0  0  0  0  0  0  0  0  0  0  0
   -2.1930   10.4980   -5.4110 N   0  0  0  0  0  0  0  0  0  0  0  0
   -1.5620   10.2130   -6.7090 C   0  0  2  0  0  0  0  0  0  0  0  0
    0.6370   10.8270   -7.8060 C   0  0  0  0  0  0  0  0  0  0  0  0
   -1.8700   17.5950   -5.7140 C   0  0  0  0  0  0  0  0  0  0  0  0
   -0.3870   17.9560   -5.7600 C   0  0  0  0  0  0  0  0  0  0  0  0
   -1.3350    8.7420   -7.0200 C   0  0  0  0  0  0  0  0  0  0  0  0
    0.7810    9.3980   -8.3210 C   0  0  0  0  0  0  0  0  0  0  0  0
   -0.5330    8.6020   -8.3180 C   0  0  0  0  0  0  0  0  0  0  0  0
  2  1  1  1
  2  3  1  0
  2  4  1  0
  2  5  1  0
  4  6  1  0
  5  7  1  6
  5  8  1  0
  6  9  1  0
 10  7  1  1
 11  8  1  1
 10 11  1  0
  9 12  1  0
  9 13  1  0
 10 14  1  0
 11 15  1  0
 12 16  1  0
 13 17  1  0
 16 17  1  0
 13 18  1  6
 14 19  1  0
 15 20  1  0
 19 20  1  0
 17 21  1  1
 18 22  1  0
 21 23  1  0
 22 23  1  0
M  CHG  1   1  -1
M  END
