ucsf371-ucsf006
     RDKit          3D

 22 24  0  0  0  0  0  0  0  0999 V2000
   -5.7210   13.9010   -1.9090 C   0  0  0  0  0  0  0  0  0  0  0  0
   -5.2730   14.6470   -3.1750 C   0  0  1  0  0  0  0  0  0  0  0  0
   -4.2650   15.5800   -2.9640 N   0  0  0  0  0  0  0  0  0  0  0  0
   -4.2040   13.5550   -4.2520 S   0  0  0  0  0  0  0  0  0  0  0  0
   -3.3620   15.6840   -3.9570 C   0  0  0  0  0  0  0  0  0  0  0  0
   -2.7060   14.3440   -4.0810 C   0  0  1  0  0  0  0  0  0  0  0  0
   -1.7020   14.2830   -2.6390 S   0  0  0  0  0  0  0  0  0  0  0  0
   -0.1700   14.4470   -3.4540 O   0  0  0  0  0  0  0  0  0  0  0  0
   -0.5120   12.4240   -3.4320 O   0  0  0  0  0  0  0  0  0  0  0  0
   -3.2650   13.9690   -1.9200 C   0  0  0  0  0  0  0  0  0  0  0  0
   -1.1450   14.4620   -0.9230 C   0  0  2  0  0  0  0  0  0  0  0  0
    0.2640   13.5090   -4.2040 C   0  0  1  0  0  0  0  0  0  0  0  0
   -2.2930   14.3050   -0.0590 C   0  0  1  0  0  0  0  0  0  0  0  0
    0.0290   15.2040   -0.6380 N   0  0  0  0  0  0  0  0  0  0  0  0
    0.4580   13.6690   -5.5840 O   0  0  0  0  0  0  0  0  0  0  0  0
    1.4250   12.7630   -3.8140 O   0  0  0  0  0  0  0  0  0  0  0  0
   -2.0930   14.5480    1.3560 C   0  0  1  0  0  0  0  0  0  0  0  0
    0.0370   15.4780    0.7340 C   0  0  0  0  0  0  0  0  0  0  0  0
   -3.6270   14.9600   -0.4180 C   0  0  0  0  0  0  0  0  0  0  0  0
   -0.6450   14.5530    1.5910 N   0  0  0  0  0  0  0  0  0  0  0  0
   -2.7550   15.7520    1.4430 N   0  0  0  0  0  0  0  0  0  0  0  0
   -4.0420   15.5920    0.8920 C   0  0  0  0  0  0  0  0  0  0  0  0
  2  1  1  1
  2  3  1  0
  2  4  1  0
  3  5  1  0
  4  6  1  0
  5  6  1  0
  6  7  1  1
  7  8  1  0
  7  9  1  0
  7 10  1  0
 11  7  1  6
  8 12  1  0
 11 13  1  0
 11 14  1  0
 12 15  1  6
 12 16  1  0
 13 17  1  0
 14 18  1  0
 13 19  1  6
 17 20  1  6
 18 20  1  0
 17 21  1  0
 19 22  1  0
 21 22  1  0
M  CHG  2   9  -1  16  -1
M  END
