ucsf487-ucsf523
     RDKit          3D

 19 21  0  0  0  0  0  0  0  0999 V2000
   -7.5880   13.8470    3.1620 N   0  0  0  0  0  0  0  0  0  0  0  0
   -7.1990   14.3620    1.8440 C   0  0  2  0  0  0  0  0  0  0  0  0
   -7.8660   13.6010    0.7070 C   0  0  0  0  0  0  0  0  0  0  0  0
   -5.6640   14.3810    1.6900 C   0  0  0  0  0  0  0  0  0  0  0  0
   -5.0920   13.8510    0.3430 C   0  0  1  0  0  0  0  0  0  0  0  0
   -7.4920   14.1030   -0.5950 N   0  0  0  0  0  0  0  0  0  0  0  0
   -6.0330   14.0870   -0.8770 C   0  0  1  0  0  0  0  0  0  0  0  0
   -3.5060   14.0500    0.2250 C   0  0  1  0  0  0  0  0  0  0  0  0
   -5.7040   15.3310   -1.6720 C   0  0  1  0  0  0  0  0  0  0  0  0
   -2.6330   14.3760   -1.0370 C   0  0  1  0  0  0  0  0  0  0  0  0
   -3.0200   15.0110    1.2710 C   0  0  0  0  0  0  0  0  0  0  0  0
   -5.3700   16.2570   -0.6030 O   0  0  0  0  0  0  0  0  0  0  0  0
   -2.4620   13.2650   -1.8800 O   0  0  0  0  0  0  0  0  0  0  0  0
   -4.5270   15.1290   -2.5780 C   0  0  0  0  0  0  0  0  0  0  0  0
   -3.2280   15.4240   -1.9320 C   0  0  0  0  0  0  0  0  0  0  0  0
   -1.2230   14.6750   -0.7290 N   0  0  0  0  0  0  0  0  0  0  0  0
   -1.6930   14.5880    1.6210 N   0  0  0  0  0  0  0  0  0  0  0  0
   -0.7260   14.7970    0.6140 C   0  0  1  0  0  0  0  0  0  0  0  0
    0.1030   13.6730    0.7700 N   0  0  0  0  0  0  0  0  0  0  0  0
  2  1  1  1
  2  3  1  0
  2  4  1  0
  5  4  1  1
  3  6  1  0
  5  7  1  0
  7  6  1  1
  5  8  1  0
  7  9  1  0
  8 10  1  0
  8 11  1  1
  9 12  1  1
 10 13  1  6
  9 14  1  0
 10 15  1  0
 14 15  1  0
 10 16  1  0
 11 17  1  0
 16 18  1  0
 17 18  1  0
 18 19  1  1
M  END
