ucsf403-ucsf006
     RDKit          3D

 26 28  0  0  0  0  0  0  0  0999 V2000
    0.8820    9.4610   -7.8370 Cl  0  0  0  0  0  0  0  0  0  0  0  0
   -0.6620    9.9340   -7.0010 C   0  0  2  0  0  0  0  0  0  0  0  0
   -0.4660   10.6940   -5.6630 C   0  0  0  0  0  0  0  0  0  0  0  0
   -1.4640    8.6470   -6.7490 C   0  0  0  0  0  0  0  0  0  0  0  0
    0.3470   11.8890   -5.6600 O   0  0  0  0  0  0  0  0  0  0  0  0
   -1.8550   11.0990   -5.1010 C   0  0  1  0  0  0  0  0  0  0  0  0
   -2.7270    8.8600   -5.9020 C   0  0  0  0  0  0  0  0  0  0  0  0
   -2.1540   12.8790   -5.3120 Cl  0  0  0  0  0  0  0  0  0  0  0  0
    0.2590   12.6680   -4.4020 C   0  0  1  0  0  0  0  0  0  0  0  0
   -3.0370   10.3360   -5.7400 C   0  0  0  0  0  0  0  0  0  0  0  0
    1.2170   12.1170   -3.3010 C   0  0  1  0  0  0  0  0  0  0  0  0
    0.4760   14.1670   -4.7260 C   0  0  0  0  0  0  0  0  0  0  0  0
    1.1660   12.7470   -2.1630 O   0  0  0  0  0  0  0  0  0  0  0  0
    0.6920   10.8740   -2.8470 O   0  0  0  0  0  0  0  0  0  0  0  0
    0.1460   15.1320   -3.5530 C   0  0  0  0  0  0  0  0  0  0  0  0
   -1.0630   14.8100   -2.7200 N   0  0  0  0  0  0  0  0  0  0  0  0
   -2.2600   15.3480   -3.4080 C   0  0  0  0  0  0  0  0  0  0  0  0
   -1.0430   15.1880   -1.2790 C   0  0  1  0  0  0  0  0  0  0  0  0
   -2.3820   15.5140   -0.5410 C   0  0  2  0  0  0  0  0  0  0  0  0
   -0.2960   14.2470   -0.4330 N   0  0  0  0  0  0  0  0  0  0  0  0
   -2.4880   14.8190    0.7910 C   0  0  1  0  0  0  0  0  0  0  0  0
   -0.1240   14.5920    0.9790 C   0  0  0  0  0  0  0  0  0  0  0  0
   -3.7710   15.1140   -1.0230 C   0  0  0  0  0  0  0  0  0  0  0  0
   -1.3540   14.9680    1.6160 N   0  0  0  0  0  0  0  0  0  0  0  0
   -3.7040   15.3320    1.3850 N   0  0  0  0  0  0  0  0  0  0  0  0
   -4.6310   15.3170    0.2340 C   0  0  0  0  0  0  0  0  0  0  0  0
  2  1  1  1
  2  3  1  0
  2  4  1  0
  3  5  1  0
  3  6  1  0
  4  7  1  0
  6  8  1  6
  5  9  1  0
  6 10  1  0
  7 10  1  0
  9 11  1  0
  9 12  1  6
 11 13  1  1
 11 14  1  0
 12 15  1  0
 15 16  1  0
 16 17  1  0
 18 16  1  6
 18 19  1  0
 18 20  1  0
 19 21  1  0
 20 22  1  0
 19 23  1  6
 21 24  1  1
 22 24  1  0
 21 25  1  0
 23 26  1  0
 25 26  1  0
M  CHG  1  13  -1
M  END
