ucsf149-ucsf242
     RDKit          3D

 12 13  0  0  0  0  0  0  0  0999 V2000
   13.9740    9.2620   10.9180 O   0  0  0  0  0  0  0  0  0  0  0  0
   14.1240    8.0520   11.6620 C   0  0  0  0  0  0  0  0  0  0  0  0
   15.2090    7.1400   11.0520 C   0  0  1  0  0  0  0  0  0  0  0  0
   15.3090    5.8590   11.7930 N   0  0  0  0  0  0  0  0  0  0  0  0
   14.9710    6.8110    9.6250 N   0  0  0  0  0  0  0  0  0  0  0  0
   14.1890    5.5720   12.6490 N   0  0  0  0  0  0  0  0  0  0  0  0
   15.5510    4.8340   10.7850 C   0  0  2  0  0  0  0  0  0  0  0  0
   14.7420    5.3590    9.6180 C   0  0  2  0  0  0  0  0  0  0  0  0
   15.1050    3.4090   11.0690 C   0  0  0  0  0  0  0  0  0  0  0  0
   15.1630    4.5910    8.3720 C   0  0  0  0  0  0  0  0  0  0  0  0
   15.4150    2.5530    9.8360 C   0  0  0  0  0  0  0  0  0  0  0  0
   16.0210    3.3820    8.7100 C   0  0  0  0  0  0  0  0  0  0  0  0
  1  2  1  0
  3  2  1  1
  3  4  1  0
  3  5  1  0
  4  6  1  0
  4  7  1  0
  5  8  1  0
  7  8  1  0
  7  9  1  1
  8 10  1  6
  9 11  1  0
 10 12  1  0
 11 12  1  0
M  END
