ucsf378-ucsf243
     RDKit          3D

 22 23  0  0  0  0  0  0  0  0999 V2000
   -2.2050   13.9890   -4.0940 C   0  0  0  0  0  0  0  0  0  0  0  0
   -0.7300   14.4100   -4.0290 C   0  0  1  0  0  0  0  0  0  0  0  0
    0.3050   13.3280   -4.4610 C   0  0  2  0  0  0  0  0  0  0  0  0
   -2.8960   14.1230   -2.7120 C   0  0  1  0  0  0  0  0  0  0  0  0
   -0.4880   15.8010   -4.6420 C   0  0  0  0  0  0  0  0  0  0  0  0
   -1.9040   14.2720   -1.4830 C   0  0  1  0  0  0  0  0  0  0  0  0
   -3.9040   15.2790   -2.6870 C   0  0  0  0  0  0  0  0  0  0  0  0
   -0.0220   11.8370   -4.0240 C   0  0  0  0  0  0  0  0  0  0  0  0
   -0.3750   14.2070   -1.7800 C   0  0  1  0  0  0  0  0  0  0  0  0
    1.6660   13.7140   -3.9050 C   0  0  1  0  0  0  0  0  0  0  0  0
    0.9870   16.0900   -4.8060 C   0  0  0  0  0  0  0  0  0  0  0  0
   -2.2100   15.5250   -0.6420 C   0  0  0  0  0  0  0  0  0  0  0  0
   -4.6310   15.3990   -1.3480 C   0  0  0  0  0  0  0  0  0  0  0  0
    3.0180   12.8610   -4.6850 Cl  0  0  0  0  0  0  0  0  0  0  0  0
   -0.3120   11.4370   -2.5310 C   0  0  2  0  0  0  0  0  0  0  0  0
    0.0310   15.3660   -2.4810 O   0  0  0  0  0  0  0  0  0  0  0  0
    0.3070   14.3820   -0.6720 O   0  0  0  0  0  0  0  0  0  0  0  0
    1.9030   15.2200   -3.9430 C   0  0  0  0  0  0  0  0  0  0  0  0
   -3.6650   15.6170   -0.1790 C   0  0  1  0  0  0  0  0  0  0  0  0
    0.5090   11.9460   -1.6270 O   0  0  0  0  0  0  0  0  0  0  0  0
    0.0800   10.0920   -2.4250 O   0  0  0  0  0  0  0  0  0  0  0  0
   -3.9600   14.7190    1.0150 C   0  0  0  0  0  0  0  0  0  0  0  0
  2  1  1  6
  2  3  1  0
  4  1  1  6
  2  5  1  0
  4  6  1  0
  4  7  1  0
  3  8  1  1
  6  9  1  0
  3 10  1  0
  5 11  1  0
  6 12  1  6
  7 13  1  0
 10 14  1  6
  8 15  1  0
  9 16  1  6
  9 17  1  0
 10 18  1  0
 11 18  1  0
 12 19  1  0
 13 19  1  0
 15 20  1  1
 15 21  1  0
 19 22  1  1
M  CHG  2  17  -1  20  -1
M  END
