ucsf340-ucsf248
     RDKit          3D

 29 32  0  0  0  0  0  0  0  0999 V2000
    0.6190   18.5420   -6.0020 C   0  0  0  0  0  0  0  0  0  0  0  0
    0.1900   17.1910   -5.6400 N   0  0  0  0  0  0  0  0  0  0  0  0
    1.0050   16.6180   -4.5490 C   0  0  0  0  0  0  0  0  0  0  0  0
   -1.1660   17.1270   -5.1070 C   0  0  2  0  0  0  0  0  0  0  0  0
    0.0770   15.7310   -3.6860 C   0  0  1  0  0  0  0  0  0  0  0  0
   -1.2120   15.7070   -4.5310 C   0  0  1  0  0  0  0  0  0  0  0  0
   -2.2360   17.4630   -6.1460 C   0  0  0  0  0  0  0  0  0  0  0  0
    0.7870   14.4860   -3.1080 C   0  0  0  0  0  0  0  0  0  0  0  0
   -2.6500   15.4210   -4.0930 C   0  0  2  0  0  0  0  0  0  0  0  0
   -3.3410   16.4100   -6.3660 C   0  0  0  0  0  0  0  0  0  0  0  0
    0.2290   13.0670   -3.4520 C   0  0  0  0  0  0  0  0  0  0  0  0
   -2.8680   14.2470   -3.1210 C   0  0  0  0  0  0  0  0  0  0  0  0
   -3.5350   15.3160   -5.3210 C   0  0  0  0  0  0  0  0  0  0  0  0
    0.7840   12.0200   -2.4370 C   0  0  1  0  0  0  0  0  0  0  0  0
   -3.6930   14.5090   -1.8340 C   0  0  1  0  0  0  0  0  0  0  0  0
    0.4700   12.4940   -1.1510 O   0  0  0  0  0  0  0  0  0  0  0  0
    0.1240   10.8620   -2.4470 O   0  0  0  0  0  0  0  0  0  0  0  0
   -2.9200   15.4810   -0.9040 C   0  0  0  0  0  0  0  0  0  0  0  0
   -5.1520   14.9730   -2.0300 C   0  0  0  0  0  0  0  0  0  0  0  0
   -5.7680   15.3350   -0.6920 C   0  0  2  0  0  0  0  0  0  0  0  0
   -3.5430   15.5160    0.4890 C   0  0  0  0  0  0  0  0  0  0  0  0
   -4.8850   14.8050    0.4230 C   0  0  1  0  0  0  0  0  0  0  0  0
   -7.0860   14.7490   -0.3570 N   0  0  0  0  0  0  0  0  0  0  0  0
   -6.9240   14.2560    1.0170 C   0  0  1  0  0  0  0  0  0  0  0  0
   -5.7720   14.9650    1.5600 N   0  0  0  0  0  0  0  0  0  0  0  0
   -8.3880   14.3410    2.1040 S   0  0  0  0  0  0  0  0  0  0  0  0
   -8.7800   12.9420    2.8880 N   0  0  0  0  0  0  0  0  0  0  0  0
   -8.0790   15.4790    3.1860 O   0  0  0  0  0  0  0  0  0  0  0  0
   -9.6100   14.8780    1.2200 O   0  0  0  0  0  0  0  0  0  0  0  0
  1  2  1  0
  2  3  1  0
  2  4  1  0
  3  5  1  0
  4  6  1  0
  6  5  1  1
  4  7  1  6
  5  8  1  6
  6  9  1  0
  7 10  1  0
  8 11  1  0
  9 12  1  6
  9 13  1  0
 10 13  1  0
 11 14  1  0
 15 12  1  6
 14 16  1  1
 14 17  1  0
 15 18  1  0
 15 19  1  0
 20 19  1  6
 18 21  1  0
 20 22  1  0
 22 21  1  1
 20 23  1  0
 23 24  1  0
 22 25  1  0
 24 25  1  0
 24 26  1  1
 26 27  1  0
 26 28  1  0
 26 29  1  0
M  CHG  1  17  -1
M  END
