ucsf511-ucsf345
     RDKit          3D

 17 19  0  0  0  0  0  0  0  0999 V2000
    0.7430   14.8330   -1.1020 O   0  0  0  0  0  0  0  0  0  0  0  0
    0.0990   14.0070   -2.0370 C   0  0  2  0  0  0  0  0  0  0  0  0
    0.4590   14.5270   -3.3490 N   0  0  0  0  0  0  0  0  0  0  0  0
   -1.4120   13.8390   -1.7400 C   0  0  2  0  0  0  0  0  0  0  0  0
   -2.2880   13.9490   -2.9720 C   0  0  2  0  0  0  0  0  0  0  0  0
   -0.4850   14.3520   -4.4340 C   0  0  0  0  0  0  0  0  0  0  0  0
   -2.0210   14.6970   -0.7710 O   0  0  0  0  0  0  0  0  0  0  0  0
   -1.7880   14.8360   -4.0220 N   0  0  0  0  0  0  0  0  0  0  0  0
   -3.4220   14.3680   -0.8830 C   0  0  2  0  0  0  0  0  0  0  0  0
   -3.6800   14.1480   -2.3800 C   0  0  1  0  0  0  0  0  0  0  0  0
   -4.6130   15.1550   -2.9800 C   0  0  0  0  0  0  0  0  0  0  0  0
   -4.3190   15.3820   -0.1540 C   0  0  0  0  0  0  0  0  0  0  0  0
   -5.9140   15.2520   -2.2260 C   0  0  0  0  0  0  0  0  0  0  0  0
   -5.7470   15.5840   -0.7400 C   0  0  1  0  0  0  0  0  0  0  0  0
   -6.8870   14.9090    0.0710 C   0  0  2  0  0  0  0  0  0  0  0  0
   -6.5580   14.6610    1.4580 N   0  0  0  0  0  0  0  0  0  0  0  0
   -7.2600   13.6780   -0.4620 O   0  0  0  0  0  0  0  0  0  0  0  0
  2  1  1  1
  2  3  1  0
  2  4  1  0
  4  5  1  0
  3  6  1  0
  4  7  1  1
  5  8  1  6
  6  8  1  0
  7  9  1  0
  5 10  1  0
  9 10  1  0
 10 11  1  6
  9 12  1  6
 11 13  1  0
 14 12  1  1
 13 14  1  0
 14 15  1  0
 15 16  1  1
 15 17  1  0
M  END
