ucsf422-ucsf365
     RDKit          3D

 21 23  0  0  0  0  0  0  0  0999 V2000
    0.3540   11.1930   -2.1820 O   0  0  0  0  0  0  0  0  0  0  0  0
    0.6180   12.4360   -2.5560 C   0  0  1  0  0  0  0  0  0  0  0  0
    1.9610   12.5990   -2.1890 O   0  0  0  0  0  0  0  0  0  0  0  0
    0.4480   12.6750   -4.1080 C   0  0  2  0  0  0  0  0  0  0  0  0
    0.9840   14.1110   -4.4860 C   0  0  2  0  0  0  0  0  0  0  0  0
   -0.9950   12.5510   -4.7000 C   0  0  2  0  0  0  0  0  0  0  0  0
    1.7870   15.0180   -3.5680 C   0  0  0  0  0  0  0  0  0  0  0  0
   -0.0880   15.0630   -5.0660 C   0  0  2  0  0  0  0  0  0  0  0  0
   -1.5920   11.1980   -5.1010 C   0  0  1  0  0  0  0  0  0  0  0  0
   -1.1020   13.3870   -5.9790 C   0  0  0  0  0  0  0  0  0  0  0  0
   -1.3900   10.2580   -4.0310 O   0  0  0  0  0  0  0  0  0  0  0  0
    1.2290   16.3800   -3.7590 N   0  0  0  0  0  0  0  0  0  0  0  0
    0.6490   16.3870   -5.0910 C   0  0  2  0  0  0  0  0  0  0  0  0
   -1.4120   15.1910   -4.2980 C   0  0  0  0  0  0  0  0  0  0  0  0
   -3.0950   11.3400   -5.3580 C   0  0  0  0  0  0  0  0  0  0  0  0
   -2.5100   13.4460   -6.5450 C   0  0  0  0  0  0  0  0  0  0  0  0
   -0.2060   17.6290   -5.3350 C   0  0  0  0  0  0  0  0  0  0  0  0
   -2.3640   16.2570   -4.8230 C   0  0  2  0  0  0  0  0  0  0  0  0
   -3.4990   12.7880   -5.6050 C   0  0  0  0  0  0  0  0  0  0  0  0
   -3.7750   15.4720   -5.9270 Br  0  0  0  0  0  0  0  0  0  0  0  0
   -1.7090   17.4220   -5.5650 C   0  0  0  0  0  0  0  0  0  0  0  0
  2  1  1  6
  2  3  1  0
  4  2  1  1
  4  5  1  0
  4  6  1  0
  5  7  1  1
  5  8  1  0
  6  9  1  0
  6 10  1  6
  9 11  1  1
  7 12  1  0
  8 13  1  0
 12 13  1  0
  8 14  1  1
  9 15  1  0
 10 16  1  0
 13 17  1  1
 14 18  1  0
 15 19  1  0
 16 19  1  0
 18 20  1  6
 17 21  1  0
 18 21  1  0
M  CHG  1   1  -1
M  END
