ucsf264-ucsf028
     RDKit          3D

 34 38  0  0  0  0  0  0  0  0999 V2000
    1.3990   13.2780   -3.4680 O   0  0  0  0  0  0  0  0  0  0  0  0
    1.3510   12.4410   -4.4940 C   0  0  1  0  0  0  0  0  0  0  0  0
    0.6770   11.2440   -4.0150 O   0  0  0  0  0  0  0  0  0  0  0  0
    0.4320   13.0280   -5.6250 C   0  0  0  0  0  0  0  0  0  0  0  0
   -0.0580   12.0450   -6.6520 N   0  0  0  0  0  0  0  0  0  0  0  0
    0.0540   11.3830   -2.7010 N   0  0  0  0  0  0  0  0  0  0  0  0
    0.9610   11.6090   -7.6070 N   0  0  0  0  0  0  0  0  0  0  0  0
   -0.7430   10.8190   -6.1830 C   0  0  2  0  0  0  0  0  0  0  0  0
    0.0220   12.7730   -2.3040 O   0  0  0  0  0  0  0  0  0  0  0  0
   -1.3420   10.9880   -2.8300 C   0  0  2  0  0  0  0  0  0  0  0  0
    0.1680   10.6570   -8.3880 C   0  0  2  0  0  0  0  0  0  0  0  0
   -0.3870    9.7840   -7.2720 C   0  0  2  0  0  0  0  0  0  0  0  0
   -2.2660   10.9610   -6.0220 C   0  0  0  0  0  0  0  0  0  0  0  0
   -1.4710   10.0920   -3.9050 O   0  0  0  0  0  0  0  0  0  0  0  0
   -2.0850   12.2810   -3.0950 C   0  0  0  0  0  0  0  0  0  0  0  0
   -0.9680   13.3000   -3.1870 C   0  0  1  0  0  0  0  0  0  0  0  0
    0.8700    9.8540   -9.4970 C   0  0  0  0  0  0  0  0  0  0  0  0
   -1.6110    8.9840   -7.7480 C   0  0  0  0  0  0  0  0  0  0  0  0
   -3.0380    9.6520   -5.8080 C   0  0  0  0  0  0  0  0  0  0  0  0
   -1.2920   14.7460   -2.7930 C   0  0  0  0  0  0  0  0  0  0  0  0
    1.5990    8.8310   -8.9840 F   0  0  0  0  0  0  0  0  0  0  0  0
   -0.0070    9.3160  -10.3680 F   0  0  0  0  0  0  0  0  0  0  0  0
    1.6990   10.6290  -10.2230 F   0  0  0  0  0  0  0  0  0  0  0  0
   -2.4220    8.4860   -6.5640 C   0  0  0  0  0  0  0  0  0  0  0  0
   -2.1580   14.9320   -1.6130 N   0  0  0  0  0  0  0  0  0  0  0  0
   -3.5780   15.0900   -1.9010 C   0  0  0  0  0  0  0  0  0  0  0  0
   -1.9090   13.9570   -0.5690 C   0  0  2  0  0  0  0  0  0  0  0  0
   -4.2870   15.5550   -0.7260 N   0  0  0  0  0  0  0  0  0  0  0  0
   -2.5830   14.3890    0.7250 C   0  0  2  0  0  0  0  0  0  0  0  0
   -0.4990   13.9170   -0.1610 N   0  0  0  0  0  0  0  0  0  0  0  0
   -4.0740   14.7040    0.4320 C   0  0  1  0  0  0  0  0  0  0  0  0
   -1.6670   15.4070    1.2380 N   0  0  0  0  0  0  0  0  0  0  0  0
   -0.3840   14.7250    1.0450 C   0  0  0  0  0  0  0  0  0  0  0  0
   -4.7250   15.3990    1.5200 N   0  0  0  0  0  0  0  0  0  0  0  0
  2  1  1  1
  2  3  1  0
  2  4  1  0
  4  5  1  0
  3  6  1  0
  5  7  1  0
  5  8  1  0
  6  9  1  0
  6 10  1  0
  7 11  1  0
  8 12  1  0
 11 12  1  0
  8 13  1  6
 10 14  1  6
 10 15  1  0
  9 16  1  0
 15 16  1  0
 11 17  1  6
 12 18  1  6
 13 19  1  0
 16 20  1  1
 17 21  1  0
 17 22  1  0
 17 23  1  0
 18 24  1  0
 19 24  1  0
 20 25  1  0
 25 26  1  0
 25 27  1  0
 26 28  1  0
 27 29  1  0
 27 30  1  1
 28 31  1  0
 29 31  1  0
 29 32  1  6
 30 33  1  0
 32 33  1  0
 31 34  1  1
M  CHG  1   1  -1
M  END
