ucsf519-ucsf371
     RDKit          3D

 16 16  0  0  0  0  0  0  0  0999 V2000
   -0.2450   16.0280   -4.7340 C   0  0  0  0  0  0  0  0  0  0  0  0
   -0.5740   14.7180   -3.9970 C   0  0  2  0  0  0  0  0  0  0  0  0
   -0.2560   13.3600   -5.2200 S   0  0  0  0  0  0  0  0  0  0  0  0
   -2.0660   14.6580   -3.4770 C   0  0  2  0  0  0  0  0  0  0  0  0
    0.7770   12.1690   -4.2390 C   0  0  0  0  0  0  0  0  0  0  0  0
   -2.9460   15.3570   -4.3670 O   0  0  0  0  0  0  0  0  0  0  0  0
   -2.4150   15.0680   -2.1180 N   0  0  0  0  0  0  0  0  0  0  0  0
    0.4030   11.7860   -2.7680 C   0  0  2  0  0  0  0  0  0  0  0  0
   -3.8430   15.0000   -1.7910 C   0  0  0  0  0  0  0  0  0  0  0  0
   -1.7150   14.4360   -1.0330 C   0  0  1  0  0  0  0  0  0  0  0  0
    1.3520   12.3660   -1.9070 O   0  0  0  0  0  0  0  0  0  0  0  0
    0.4960   10.4820   -2.4850 O   0  0  0  0  0  0  0  0  0  0  0  0
   -0.4410   15.0180   -0.9320 O   0  0  0  0  0  0  0  0  0  0  0  0
   -3.8580   14.6540   -0.2980 C   0  0  1  0  0  0  0  0  0  0  0  0
   -2.4650   14.8200    0.1440 N   0  0  0  0  0  0  0  0  0  0  0  0
   -4.7910   15.5430    0.4860 C   0  0  0  0  0  0  0  0  0  0  0  0
  2  1  1  6
  2  3  1  0
  2  4  1  0
  3  5  1  0
  4  6  1  6
  4  7  1  0
  5  8  1  0
  7  9  1  0
  7 10  1  0
  8 11  1  1
  8 12  1  0
 10 13  1  1
  9 14  1  0
 10 15  1  0
 14 15  1  0
 14 16  1  1
M  CHG  1  12  -1
M  END
