ucsf338-ucsf039
     RDKit          3D

 27 30  0  0  0  0  0  0  0  0999 V2000
   -9.4680   13.9700   -0.1310 O   0  0  0  0  0  0  0  0  0  0  0  0
   -8.1650   14.3550    0.3610 N   0  0  0  0  0  0  0  0  0  0  0  0
   -7.4740   15.0670   -0.7030 C   0  0  2  0  0  0  0  0  0  0  0  0
   -7.5900   14.3740   -1.9280 O   0  0  0  0  0  0  0  0  0  0  0  0
   -6.0000   15.2670   -0.3960 C   0  0  2  0  0  0  0  0  0  0  0  0
   -5.0370   15.2020   -1.5790 C   0  0  2  0  0  0  0  0  0  0  0  0
   -5.5120   14.5020    0.8540 C   0  0  0  0  0  0  0  0  0  0  0  0
   -4.9540   13.9110   -2.1710 O   0  0  0  0  0  0  0  0  0  0  0  0
   -3.6580   15.7250   -1.1470 C   0  0  0  0  0  0  0  0  0  0  0  0
   -4.0770   14.5610    0.5330 C   0  0  2  0  0  0  0  0  0  0  0  0
   -3.5350   15.8740    0.3770 C   0  0  0  0  0  0  0  0  0  0  0  0
   -3.1440   13.5290   -0.0460 C   0  0  1  0  0  0  0  0  0  0  0  0
   -3.4710   13.3260   -1.4890 N   0  0  0  0  0  0  0  0  0  0  0  0
   -1.6670   13.8680    0.1390 C   0  0  1  0  0  0  0  0  0  0  0  0
   -2.7080   14.0200   -2.5460 C   0  0  0  0  0  0  0  0  0  0  0  0
   -0.9990   14.4870   -1.0620 C   0  0  2  0  0  0  0  0  0  0  0  0
   -1.2810   14.8230    1.1400 N   0  0  0  0  0  0  0  0  0  0  0  0
   -1.2760   13.8590   -2.3280 N   0  0  0  0  0  0  0  0  0  0  0  0
    0.3410   14.4520   -0.5480 N   0  0  0  0  0  0  0  0  0  0  0  0
    0.1300   14.7290    0.8880 C   0  0  0  0  0  0  0  0  0  0  0  0
   -0.4320   14.2280   -3.5060 C   0  0  0  0  0  0  0  0  0  0  0  0
   -0.1920   15.7420   -3.8680 C   0  0  1  0  0  0  0  0  0  0  0  0
    1.1320   16.0600   -4.5540 C   0  0  0  0  0  0  0  0  0  0  0  0
   -1.2840   16.4300   -4.6200 N   0  0  0  0  0  0  0  0  0  0  0  0
   -0.8170   17.7620   -5.0360 C   0  0  1  0  0  0  0  0  0  0  0  0
    0.9480   17.6740   -5.3420 S   0  0  0  0  0  0  0  0  0  0  0  0
   -1.5390   18.2490   -6.2870 C   0  0  0  0  0  0  0  0  0  0  0  0
  1  2  1  0
  2  3  1  0
  3  4  1  6
  3  5  1  0
  5  6  1  0
  5  7  1  1
  6  8  1  1
  6  9  1  0
 10  7  1  6
  9 11  1  0
 10 11  1  0
 10 12  1  0
 12 13  1  6
 12 14  1  0
 13 15  1  0
 14 16  1  0
 14 17  1  1
 15 18  1  0
 16 18  1  0
 16 19  1  1
 17 20  1  0
 19 20  1  0
 18 21  1  0
 22 21  1  6
 22 23  1  0
 22 24  1  0
 24 25  1  0
 23 26  1  0
 25 26  1  0
 25 27  1  6
M  END
