ucsf241-ucsf243
     RDKit          3D

 20 22  0  0  0  0  0  0  0  0999 V2000
   -4.4240   14.0180   -1.8830 C   0  0  0  0  0  0  0  0  0  0  0  0
   -3.8670   15.1870   -2.6980 C   0  0  2  0  0  0  0  0  0  0  0  0
   -4.1880   14.9390   -4.1670 C   0  0  0  0  0  0  0  0  0  0  0  0
   -2.3490   15.4640   -2.5200 C   0  0  0  0  0  0  0  0  0  0  0  0
   -1.4750   14.3010   -3.0560 C   0  0  2  0  0  0  0  0  0  0  0  0
   -3.3910   13.7560   -4.6660 C   0  0  0  0  0  0  0  0  0  0  0  0
    0.0590   14.4970   -2.9340 C   0  0  2  0  0  0  0  0  0  0  0  0
   -1.8910   14.0170   -4.5140 C   0  0  1  0  0  0  0  0  0  0  0  0
   -1.5510   15.0850   -5.3890 O   0  0  0  0  0  0  0  0  0  0  0  0
    0.7330   13.5860   -3.7780 O   0  0  0  0  0  0  0  0  0  0  0  0
    0.4870   14.2560   -1.6020 O   0  0  0  0  0  0  0  0  0  0  0  0
   -0.4900   14.7150   -0.6790 C   0  0  1  0  0  0  0  0  0  0  0  0
   -1.6780   13.7710   -0.8100 C   0  0  0  0  0  0  0  0  0  0  0  0
   -0.0970   14.7140    0.7910 C   0  0  0  0  0  0  0  0  0  0  0  0
   -2.8430   14.2390    0.0340 C   0  0  2  0  0  0  0  0  0  0  0  0
   -1.2160   15.2040    1.5670 N   0  0  0  0  0  0  0  0  0  0  0  0
   -3.3920   15.6230   -0.2870 C   0  0  0  0  0  0  0  0  0  0  0  0
   -2.4120   14.4370    1.4580 C   0  0  1  0  0  0  0  0  0  0  0  0
   -4.1110   15.9770    0.9850 C   0  0  0  0  0  0  0  0  0  0  0  0
   -3.4400   15.2470    2.0480 N   0  0  0  0  0  0  0  0  0  0  0  0
  2  1  1  1
  2  3  1  0
  2  4  1  0
  5  4  1  6
  3  6  1  0
  5  7  1  0
  5  8  1  0
  6  8  1  0
  8  9  1  6
  7 10  1  6
  7 11  1  0
 12 11  1  6
 12 13  1  0
 12 14  1  0
 15 13  1  6
 14 16  1  0
 15 17  1  0
 15 18  1  0
 18 16  1  6
 17 19  1  0
 18 20  1  0
 19 20  1  0
M  END
