ucsf404-ucsf357
     RDKit          3D

 14 15  0  0  0  0  0  0  0  0999 V2000
   -6.1360   15.1930   -2.4920 Cl  0  0  0  0  0  0  0  0  0  0  0  0
   -4.6010   14.5180   -1.8250 C   0  0  2  0  0  0  0  0  0  0  0  0
   -4.6360   14.4920   -0.2810 C   0  0  2  0  0  0  0  0  0  0  0  0
   -3.3200   15.1900   -2.4120 C   0  0  2  0  0  0  0  0  0  0  0  0
   -2.8890   14.5550   -3.5490 F   0  0  0  0  0  0  0  0  0  0  0  0
   -5.8390   14.9410    0.4280 N   0  0  0  0  0  0  0  0  0  0  0  0
   -3.5390   15.2870    0.3780 C   0  0  1  0  0  0  0  0  0  0  0  0
   -2.0480   15.2980   -1.5140 C   0  0  2  0  0  0  0  0  0  0  0  0
   -0.9390   14.5880   -2.0990 O   0  0  0  0  0  0  0  0  0  0  0  0
   -5.5690   14.4390    1.7590 C   0  0  1  0  0  0  0  0  0  0  0  0
   -3.8980   15.0290    2.1120 S   0  0  0  0  0  0  0  0  0  0  0  0
   -2.1950   14.8130   -0.0780 C   0  0  0  0  0  0  0  0  0  0  0  0
   -6.9830   14.2870   -0.1540 O   0  0  0  0  0  0  0  0  0  0  0  0
   -6.5310   14.9440    2.6930 N   0  0  0  0  0  0  0  0  0  0  0  0
  2  1  1  1
  2  3  1  0
  2  4  1  0
  4  5  1  6
  3  6  1  1
  3  7  1  0
  4  8  1  0
  8  9  1  6
  6 10  1  0
  7 11  1  0
 10 11  1  0
  7 12  1  1
  8 12  1  0
  6 13  1  0
 10 14  1  1
M  END
