ucsf387-ucsf520
     RDKit          3D

 23 25  0  0  0  0  0  0  0  0999 V2000
    1.0810   18.3400   -5.7200 Cl  0  0  0  0  0  0  0  0  0  0  0  0
    0.3610   17.0400   -4.7380 C   0  0  1  0  0  0  0  0  0  0  0  0
   -1.0910   16.9150   -5.1670 C   0  0  0  0  0  0  0  0  0  0  0  0
    1.1030   15.6970   -4.8520 C   0  0  0  0  0  0  0  0  0  0  0  0
    0.5380   14.7000   -3.8370 C   0  0  2  0  0  0  0  0  0  0  0  0
   -1.5420   15.4800   -4.9870 C   0  0  2  0  0  0  0  0  0  0  0  0
   -3.3290   15.3460   -5.1730 Cl  0  0  0  0  0  0  0  0  0  0  0  0
    0.8470   13.2000   -4.0670 C   0  0  0  0  0  0  0  0  0  0  0  0
   -0.9840   14.9610   -3.6650 C   0  0  1  0  0  0  0  0  0  0  0  0
    0.6350   12.4210   -2.7430 C   0  0  1  0  0  0  0  0  0  0  0  0
   -1.7530   13.7460   -3.1280 C   0  0  0  0  0  0  0  0  0  0  0  0
    0.5710   11.1230   -2.9290 O   0  0  0  0  0  0  0  0  0  0  0  0
    1.8100   12.5530   -2.0080 O   0  0  0  0  0  0  0  0  0  0  0  0
   -2.4560   14.0710   -1.8750 N   0  0  0  0  0  0  0  0  0  0  0  0
   -3.3840   15.2090   -2.0020 C   0  0  0  0  0  0  0  0  0  0  0  0
   -1.6990   14.2120   -0.6370 C   0  0  2  0  0  0  0  0  0  0  0  0
   -4.3390   15.2870   -0.8970 N   0  0  0  0  0  0  0  0  0  0  0  0
   -2.2680   15.2530    0.2790 C   0  0  1  0  0  0  0  0  0  0  0  0
   -0.3160   14.6220   -0.6370 N   0  0  0  0  0  0  0  0  0  0  0  0
   -3.7460   14.8830    0.3580 C   0  0  1  0  0  0  0  0  0  0  0  0
   -1.3740   15.1030    1.4260 N   0  0  0  0  0  0  0  0  0  0  0  0
   -0.0940   14.7400    0.8040 C   0  0  0  0  0  0  0  0  0  0  0  0
   -4.4480   15.5590    1.4230 N   0  0  0  0  0  0  0  0  0  0  0  0
  2  1  1  6
  2  3  1  0
  2  4  1  0
  4  5  1  0
  3  6  1  0
  6  7  1  1
  5  8  1  6
  5  9  1  0
  6  9  1  0
  8 10  1  0
  9 11  1  6
 10 12  1  6
 10 13  1  0
 11 14  1  0
 14 15  1  0
 14 16  1  0
 15 17  1  0
 16 18  1  0
 16 19  1  6
 17 20  1  0
 18 20  1  0
 18 21  1  1
 19 22  1  0
 21 22  1  0
 20 23  1  1
M  CHG  1  12  -1
M  END
