ucsf412-ucsf260
     RDKit          3D

 28 31  0  0  0  0  0  0  0  0999 V2000
   -7.6630   13.9950   -0.9770 O   0  0  0  0  0  0  0  0  0  0  0  0
   -7.0640   15.0800   -0.3250 C   0  0  1  0  0  0  0  0  0  0  0  0
   -7.2870   14.8480    1.1000 N   0  0  0  0  0  0  0  0  0  0  0  0
   -5.6170   15.3530   -0.8180 C   0  0  1  0  0  0  0  0  0  0  0  0
   -4.5030   14.7630    0.0480 C   0  0  2  0  0  0  0  0  0  0  0  0
   -6.1100   14.6320    1.9330 C   0  0  0  0  0  0  0  0  0  0  0  0
   -5.4420   14.9090   -2.2680 C   0  0  0  0  0  0  0  0  0  0  0  0
   -4.7560   15.1940    1.4630 C   0  0  0  0  0  0  0  0  0  0  0  0
   -3.1220   15.2240   -0.4360 C   0  0  0  0  0  0  0  0  0  0  0  0
   -4.0300   15.0670   -2.8300 C   0  0  0  0  0  0  0  0  0  0  0  0
   -2.8520   14.7890   -1.8860 C   0  0  1  0  0  0  0  0  0  0  0  0
   -1.4770   15.2110   -2.4750 C   0  0  0  0  0  0  0  0  0  0  0  0
   -0.2720   15.3780   -1.5360 C   0  0  0  0  0  0  0  0  0  0  0  0
    0.3990   14.0780   -1.0430 C   0  0  0  0  0  0  0  0  0  0  0  0
    1.2140   13.4540   -2.0630 O   0  0  0  0  0  0  0  0  0  0  0  0
    0.6340   12.4880   -2.9720 C   0  0  2  0  0  0  0  0  0  0  0  0
    0.8030   11.2390   -2.5580 O   0  0  0  0  0  0  0  0  0  0  0  0
    1.2610   12.6610   -4.3930 C   0  0  0  0  0  0  0  0  0  0  0  0
    0.4060   13.2930   -5.5090 C   0  0  0  0  0  0  0  0  0  0  0  0
   -0.6290   12.4500   -6.1630 N   0  0  0  0  0  0  0  0  0  0  0  0
   -1.7370   12.2000   -5.2620 C   0  0  0  0  0  0  0  0  0  0  0  0
   -0.1900   11.0820   -6.4620 C   0  0  1  0  0  0  0  0  0  0  0  0
   -2.2920   10.8590   -5.5440 N   0  0  0  0  0  0  0  0  0  0  0  0
   -1.5040   10.3900   -6.6750 C   0  0  2  0  0  0  0  0  0  0  0  0
    0.7270   10.9210   -7.6670 C   0  0  0  0  0  0  0  0  0  0  0  0
   -1.3440    8.8810   -6.7720 C   0  0  0  0  0  0  0  0  0  0  0  0
    0.6080    9.5740   -8.3810 C   0  0  0  0  0  0  0  0  0  0  0  0
   -0.1220    8.4640   -7.6060 C   0  0  0  0  0  0  0  0  0  0  0  0
  2  1  1  6
  2  3  1  0
  2  4  1  0
  4  5  1  0
  3  6  1  0
  4  7  1  6
  5  8  1  1
  6  8  1  0
  5  9  1  0
  7 10  1  0
  9 11  1  0
 10 11  1  0
 11 12  1  6
 12 13  1  0
 13 14  1  0
 14 15  1  0
 15 16  1  0
 16 17  1  1
 16 18  1  0
 18 19  1  0
 19 20  1  0
 20 21  1  0
 20 22  1  0
 21 23  1  0
 22 24  1  0
 23 24  1  0
 22 25  1  6
 24 26  1  1
 25 27  1  0
 26 28  1  0
 27 28  1  0
M  CHG  1  17  -1
M  END
