ucsf442-ucsf320
     RDKit          3D

 14 15  0  0  0  0  0  0  0  0999 V2000
   -0.5010   14.3070    0.5380 O   0  0  0  0  0  0  0  0  0  0  0  0
   -1.2960   15.4530    0.4560 C   0  0  1  0  0  0  0  0  0  0  0  0
   -1.5960   15.7680   -0.9210 N   0  0  0  0  0  0  0  0  0  0  0  0
   -2.3870   15.3370    1.3760 N   0  0  0  0  0  0  0  0  0  0  0  0
   -3.5570   14.7590    0.8330 C   0  0  2  0  0  0  0  0  0  0  0  0
   -2.9160   15.4510   -1.5370 C   0  0  1  0  0  0  0  0  0  0  0  0
   -2.6410   14.3240   -2.4580 N   0  0  0  0  0  0  0  0  0  0  0  0
   -4.0700   15.3490   -0.4570 C   0  0  1  0  0  0  0  0  0  0  0  0
   -4.6860   15.0720    1.6630 N   0  0  0  0  0  0  0  0  0  0  0  0
   -1.3430   13.8470   -2.1060 O   0  0  0  0  0  0  0  0  0  0  0  0
   -2.3360   14.8910   -3.7600 O   0  0  0  0  0  0  0  0  0  0  0  0
   -5.4220   14.6970   -0.5460 N   0  0  0  0  0  0  0  0  0  0  0  0
   -5.7560   14.4950    0.8750 C   0  0  0  0  0  0  0  0  0  0  0  0
   -6.4630   15.6600   -0.9410 O   0  0  0  0  0  0  0  0  0  0  0  0
  2  1  1  6
  2  3  1  0
  2  4  1  0
  5  4  1  1
  3  6  1  0
  6  7  1  1
  5  8  1  0
  6  8  1  0
  5  9  1  0
  7 10  1  0
  7 11  1  0
  8 12  1  6
  9 13  1  0
 12 13  1  0
 12 14  1  0
M  CHG  1  10  -1
M  END
