ucsf260-ucsf115
     RDKit          3D

 30 34  0  0  0  0  0  0  0  0999 V2000
    1.8170   11.0300   -4.1750 O   0  0  0  0  0  0  0  0  0  0  0  0
    1.5920   12.1120   -3.5070 C   0  0  1  0  0  0  0  0  0  0  0  0
    2.7560   12.3990   -2.7960 O   0  0  0  0  0  0  0  0  0  0  0  0
    1.3420   13.3020   -4.4750 C   0  0  0  0  0  0  0  0  0  0  0  0
    0.5000   11.8450   -2.4710 C   0  0  2  0  0  0  0  0  0  0  0  0
    0.3710   13.0860   -5.6610 C   0  0  0  0  0  0  0  0  0  0  0  0
   -0.6430   10.9450   -2.9460 C   0  0  0  0  0  0  0  0  0  0  0  0
   -0.2360   13.0800   -2.0680 C   0  0  0  0  0  0  0  0  0  0  0  0
   -0.4010   11.8200   -5.6180 N   0  0  0  0  0  0  0  0  0  0  0  0
   -1.7150   11.8600   -3.3080 O   0  0  0  0  0  0  0  0  0  0  0  0
   -1.0680   13.1540   -3.3170 C   0  0  1  0  0  0  0  0  0  0  0  0
   -2.0130   14.3470   -3.4360 C   0  0  0  0  0  0  0  0  0  0  0  0
   -1.8420   12.0220   -5.4890 C   0  0  0  0  0  0  0  0  0  0  0  0
   -0.4050   11.1040   -6.8710 C   0  0  2  0  0  0  0  0  0  0  0  0
   -1.6690   15.5110   -2.6140 N   0  0  0  0  0  0  0  0  0  0  0  0
   -2.4400   10.7060   -5.8420 N   0  0  0  0  0  0  0  0  0  0  0  0
   -1.2870    9.9720   -6.4000 C   0  0  1  0  0  0  0  0  0  0  0  0
    0.9430   10.6150   -7.3410 C   0  0  0  0  0  0  0  0  0  0  0  0
   -1.6000    8.9720   -7.4990 C   0  0  0  0  0  0  0  0  0  0  0  0
    0.7630    9.4990   -8.3810 C   0  0  0  0  0  0  0  0  0  0  0  0
   -1.8580   15.3810   -1.1710 C   0  0  2  0  0  0  0  0  0  0  0  0
   -0.2800    8.4220   -8.0350 C   0  0  0  0  0  0  0  0  0  0  0  0
   -0.5600   15.2160   -0.5400 N   0  0  0  0  0  0  0  0  0  0  0  0
   -2.9630   14.4450   -0.6540 C   0  0  1  0  0  0  0  0  0  0  0  0
   -0.6120   14.5930    0.7660 C   0  0  0  0  0  0  0  0  0  0  0  0
   -2.9820   14.5260    0.8750 C   0  0  1  0  0  0  0  0  0  0  0  0
   -4.2940   14.9130   -1.0770 N   0  0  0  0  0  0  0  0  0  0  0  0
   -1.7860   15.0800    1.4630 N   0  0  0  0  0  0  0  0  0  0  0  0
   -4.1260   15.3780    1.1580 N   0  0  0  0  0  0  0  0  0  0  0  0
   -5.0710   14.9330    0.1360 C   0  0  0  0  0  0  0  0  0  0  0  0
  2  1  1  6
  2  3  1  0
  2  4  1  0
  2  5  1  0
  4  6  1  0
  5  7  1  6
  5  8  1  0
  6  9  1  0
  7 10  1  0
  8 11  1  0
 10 11  1  0
 11 12  1  1
  9 13  1  0
  9 14  1  0
 12 15  1  0
 13 16  1  0
 14 17  1  0
 16 17  1  0
 14 18  1  1
 17 19  1  6
 18 20  1  0
 21 15  1  6
 19 22  1  0
 20 22  1  0
 21 23  1  0
 21 24  1  0
 23 25  1  0
 24 26  1  0
 24 27  1  6
 25 28  1  0
 26 28  1  6
 26 29  1  0
 27 30  1  0
 29 30  1  0
M  CHG  1   1  -1
M  END
