ucsf247-ucsf213
     RDKit          3D

 24 26  0  0  0  0  0  0  0  0999 V2000
    0.8260   13.5290   -1.3960 O   0  0  0  0  0  0  0  0  0  0  0  0
    0.2650   12.9660   -2.5450 C   0  0  0  0  0  0  0  0  0  0  0  0
    1.1690   13.0560   -3.6680 O   0  0  0  0  0  0  0  0  0  0  0  0
   -1.0620   13.7560   -2.8930 C   0  0  0  0  0  0  0  0  0  0  0  0
   -0.0270   11.5990   -2.2690 O   0  0  0  0  0  0  0  0  0  0  0  0
   -1.9560   14.2010   -1.7860 N   0  0  0  0  0  0  0  0  0  0  0  0
    0.9010   14.0400   -4.6660 C   0  0  2  0  0  0  0  0  0  0  0  0
   -2.8360   15.2780   -2.1730 C   0  0  1  0  0  0  0  0  0  0  0  0
    1.1690   15.4840   -4.2250 C   0  0  0  0  0  0  0  0  0  0  0  0
   -0.8610   14.0520   -5.2800 S   0  0  0  0  0  0  0  0  0  0  0  0
   -3.4390   15.0120   -3.4210 O   0  0  0  0  0  0  0  0  0  0  0  0
   -3.9480   15.4870   -1.1340 C   0  0  1  0  0  0  0  0  0  0  0  0
    0.2430   16.3800   -5.0410 C   0  0  1  0  0  0  0  0  0  0  0  0
   -1.1280   15.7750   -4.7810 C   0  0  1  0  0  0  0  0  0  0  0  0
   -5.0760   14.4610   -1.1990 C   0  0  0  0  0  0  0  0  0  0  0  0
   -3.3890   15.6050    0.3020 C   0  0  0  0  0  0  0  0  0  0  0  0
    0.3020   17.8610   -4.6990 C   0  0  0  0  0  0  0  0  0  0  0  0
   -2.2780   16.5250   -5.4530 C   0  0  0  0  0  0  0  0  0  0  0  0
   -6.0940   14.8580   -0.1570 C   0  0  1  0  0  0  0  0  0  0  0  0
   -4.0120   14.6230    1.2850 C   0  0  0  0  0  0  0  0  0  0  0  0
   -0.8910   18.6550   -5.2440 C   0  0  0  0  0  0  0  0  0  0  0  0
   -1.8460   17.8450   -6.1000 C   0  0  0  0  0  0  0  0  0  0  0  0
   -7.3290   14.1680   -0.3140 O   0  0  0  0  0  0  0  0  0  0  0  0
   -5.5400   14.6080    1.2450 C   0  0  0  0  0  0  0  0  0  0  0  0
  2  1  1  0
  2  3  1  0
  2  4  1  0
  2  5  1  0
  4  6  1  0
  7  3  1  1
  6  8  1  0
  7  9  1  0
  7 10  1  0
  8 11  1  6
  8 12  1  0
 13  9  1  1
 10 14  1  0
 13 14  1  0
 12 15  1  1
 12 16  1  0
 13 17  1  0
 14 18  1  6
 15 19  1  0
 16 20  1  0
 17 21  1  0
 18 22  1  0
 21 22  1  0
 19 23  1  6
 19 24  1  0
 20 24  1  0
M  CHG  2   1  -1   5  -1
M  END
