ucsf241-ucsf424
     RDKit          3D

 23 26  0  0  0  0  0  0  0  0999 V2000
    0.9040   13.7060   -2.6820 O   0  0  0  0  0  0  0  0  0  0  0  0
    0.7430   12.4620   -3.3370 C   0  0  1  0  0  0  0  0  0  0  0  0
   -0.2140   11.6360   -2.6850 O   0  0  0  0  0  0  0  0  0  0  0  0
    0.9890   13.7280   -1.2600 C   0  0  0  0  0  0  0  0  0  0  0  0
    0.2650   12.7440   -4.7680 C   0  0  0  0  0  0  0  0  0  0  0  0
   -0.0650   14.6060   -0.5730 C   0  0  1  0  0  0  0  0  0  0  0  0
   -1.3800   14.5070   -1.3830 C   0  0  0  0  0  0  0  0  0  0  0  0
   -0.1470   14.3430    0.9600 C   0  0  0  0  0  0  0  0  0  0  0  0
    0.2510   11.4830   -5.6090 C   0  0  2  0  0  0  0  0  0  0  0  0
   -2.6310   14.4790   -0.5380 C   0  0  2  0  0  0  0  0  0  0  0  0
   -1.4660   14.3330    1.5990 N   0  0  0  0  0  0  0  0  0  0  0  0
    1.1260   11.6370   -6.7930 N   0  0  0  0  0  0  0  0  0  0  0  0
   -1.0150   11.0400   -6.2880 C   0  0  1  0  0  0  0  0  0  0  0  0
   -3.8640   15.2340   -0.9930 C   0  0  0  0  0  0  0  0  0  0  0  0
   -2.4400   15.0270    0.8560 C   0  0  2  0  0  0  0  0  0  0  0  0
    0.7350   10.5440   -7.7010 O   0  0  0  0  0  0  0  0  0  0  0  0
   -0.3830    9.9170   -7.0830 C   0  0  2  0  0  0  0  0  0  0  0  0
   -2.1870   10.5290   -5.4690 C   0  0  0  0  0  0  0  0  0  0  0  0
   -4.5610   15.4980    0.3440 C   0  0  0  0  0  0  0  0  0  0  0  0
   -3.7570   14.7730    1.3350 N   0  0  0  0  0  0  0  0  0  0  0  0
   -1.3690    9.2820   -8.0380 C   0  0  0  0  0  0  0  0  0  0  0  0
   -2.4210    9.0330   -5.7350 C   0  0  0  0  0  0  0  0  0  0  0  0
   -2.5100    8.6780   -7.2220 C   0  0  0  0  0  0  0  0  0  0  0  0
  1  2  1  0
  2  3  1  1
  1  4  1  0
  2  5  1  0
  6  4  1  6
  6  7  1  0
  6  8  1  0
  9  5  1  6
 10  7  1  6
  8 11  1  0
  9 12  1  0
  9 13  1  0
 10 14  1  0
 10 15  1  0
 15 11  1  1
 12 16  1  0
 13 17  1  0
 16 17  1  0
 13 18  1  1
 14 19  1  0
 15 20  1  0
 19 20  1  0
 17 21  1  6
 18 22  1  0
 21 23  1  0
 22 23  1  0
M  END
