ucsf006-ucsf190
     RDKit          3D

 30 33  0  0  0  0  0  0  0  0999 V2000
   -2.3070   15.0130   -3.0720 C   0  0  0  0  0  0  0  0  0  0  0  0
   -1.1030   14.6600   -2.3320 N   0  0  0  0  0  0  0  0  0  0  0  0
    0.1730   15.1180   -2.9700 C   0  0  0  0  0  0  0  0  0  0  0  0
   -1.1920   14.9570   -0.9340 C   0  0  1  0  0  0  0  0  0  0  0  0
    1.4670   14.3910   -2.5180 C   0  0  0  0  0  0  0  0  0  0  0  0
   -2.5450   14.5110   -0.4080 C   0  0  1  0  0  0  0  0  0  0  0  0
   -0.1520   14.2710   -0.2040 N   0  0  0  0  0  0  0  0  0  0  0  0
    1.9850   13.1490   -3.3190 C   0  0  2  0  0  0  0  0  0  0  0  0
   -2.5390   14.7080    1.1000 C   0  0  1  0  0  0  0  0  0  0  0  0
   -0.1780   14.6270    1.1760 C   0  0  0  0  0  0  0  0  0  0  0  0
   -3.8020   15.2030   -0.8960 C   0  0  0  0  0  0  0  0  0  0  0  0
    2.6830   13.6800   -4.4240 O   0  0  0  0  0  0  0  0  0  0  0  0
    1.0770   12.2320   -3.9390 N   0  0  0  0  0  0  0  0  0  0  0  0
   -1.3600   15.3850    1.4750 N   0  0  0  0  0  0  0  0  0  0  0  0
   -3.6770   15.5520    1.3960 N   0  0  0  0  0  0  0  0  0  0  0  0
   -4.6410   15.2060    0.3620 C   0  0  0  0  0  0  0  0  0  0  0  0
    0.2440   11.6400   -2.8170 C   0  0  1  0  0  0  0  0  0  0  0  0
    0.4920   13.1540   -4.9870 C   0  0  1  0  0  0  0  0  0  0  0  0
    0.4720   10.3610   -2.5500 O   0  0  0  0  0  0  0  0  0  0  0  0
    0.6200   12.2110   -1.5720 O   0  0  0  0  0  0  0  0  0  0  0  0
   -0.8770   13.8460   -4.7470 C   0  0  1  0  0  0  0  0  0  0  0  0
    1.5120   14.1890   -5.3690 N   0  0  0  0  0  0  0  0  0  0  0  0
   -0.9870   15.4420   -4.7110 C   0  0  1  0  0  0  0  0  0  0  0  0
    1.4800   15.5650   -4.8400 N   0  0  0  0  0  0  0  0  0  0  0  0
   -1.8530   13.1590   -5.6800 C   0  0  0  0  0  0  0  0  0  0  0  0
    0.2500   16.2690   -5.1190 C   0  0  2  0  0  0  0  0  0  0  0  0
   -2.2570   16.0850   -5.3430 C   0  0  0  0  0  0  0  0  0  0  0  0
   -3.2360   13.6970   -5.4550 C   0  0  0  0  0  0  0  0  0  0  0  0
    0.2600   17.5690   -4.5660 O   0  0  0  0  0  0  0  0  0  0  0  0
   -3.3550   15.1560   -5.8680 C   0  0  0  0  0  0  0  0  0  0  0  0
  1  2  1  0
  2  3  1  0
  4  2  1  6
  3  5  1  0
  4  6  1  0
  4  7  1  0
  5  8  1  0
  6  9  1  0
  7 10  1  0
  6 11  1  6
  8 12  1  6
  8 13  1  0
  9 14  1  6
 10 14  1  0
  9 15  1  0
 11 16  1  0
 15 16  1  0
 13 17  1  0
 18 13  1  1
 17 19  1  1
 17 20  1  0
 18 21  1  0
 18 22  1  0
 21 23  1  0
 22 24  1  0
 21 25  1  6
 23 26  1  0
 24 26  1  0
 23 27  1  6
 25 28  1  0
 26 29  1  1
 27 30  1  0
 28 30  1  0
M  CHG  1  19  -1
M  END
