ucsf213-ucsf378
     RDKit          3D

 16 17  0  0  0  0  0  0  0  0999 V2000
    0.5900   10.5150   -2.4550 O   0  0  0  0  0  0  0  0  0  0  0  0
    0.5520   11.9260   -2.6490 C   0  0  1  0  0  0  0  0  0  0  0  0
    1.6010   12.5570   -1.9650 O   0  0  0  0  0  0  0  0  0  0  0  0
   -0.8090   10.1500   -2.4460 O   0  0  0  0  0  0  0  0  0  0  0  0
    0.6030   12.2290   -4.1470 C   0  0  0  0  0  0  0  0  0  0  0  0
   -0.0080   13.5990   -4.3700 C   0  0  1  0  0  0  0  0  0  0  0  0
    0.9260   14.7390   -4.6500 C   0  0  2  0  0  0  0  0  0  0  0  0
   -1.3180   13.9000   -5.5580 S   0  0  0  0  0  0  0  0  0  0  0  0
    2.3690   14.4760   -3.6480 Cl  0  0  0  0  0  0  0  0  0  0  0  0
    0.0080   15.9720   -4.3860 C   0  0  2  0  0  0  0  0  0  0  0  0
   -1.4620   15.5370   -4.7540 C   0  0  2  0  0  0  0  0  0  0  0  0
   -2.4340   15.0420   -3.3230 Cl  0  0  0  0  0  0  0  0  0  0  0  0
    0.5110   17.2330   -5.1290 C   0  0  0  0  0  0  0  0  0  0  0  0
   -2.3670   16.5520   -5.4830 C   0  0  0  0  0  0  0  0  0  0  0  0
   -0.5460   18.3170   -5.2200 C   0  0  0  0  0  0  0  0  0  0  0  0
   -1.7560   17.8540   -6.0040 C   0  0  0  0  0  0  0  0  0  0  0  0
  1  2  1  0
  2  3  1  1
  1  4  1  0
  2  5  1  0
  6  5  1  6
  6  7  1  0
  6  8  1  0
  7  9  1  1
  7 10  1  0
  8 11  1  0
 10 11  1  0
 11 12  1  1
 10 13  1  6
 11 14  1  0
 13 15  1  0
 14 16  1  0
 15 16  1  0
M  END
