ucsf320-ucsf224
     RDKit          3D

 22 23  0  0  0  0  0  0  0  0999 V2000
   -0.9770   14.5740   -1.2990 O   0  0  0  0  0  0  0  0  0  0  0  0
   -1.7720   14.7660   -2.3310 C   0  0  1  0  0  0  0  0  0  0  0  0
   -1.4750   13.8150   -3.3760 O   0  0  0  0  0  0  0  0  0  0  0  0
   -3.2440   14.5590   -1.8250 C   0  0  1  0  0  0  0  0  0  0  0  0
   -3.4450   15.1260   -0.4070 C   0  0  0  0  0  0  0  0  0  0  0  0
   -4.3670   15.0400   -2.7630 C   0  0  0  0  0  0  0  0  0  0  0  0
   -1.0240   14.3910   -4.6250 C   0  0  2  0  0  0  0  0  0  0  0  0
   -4.8460   14.9280    0.1440 C   0  0  0  0  0  0  0  0  0  0  0  0
   -5.7840   14.9020   -2.2180 C   0  0  0  0  0  0  0  0  0  0  0  0
    0.5300   14.2560   -4.7480 C   0  0  2  0  0  0  0  0  0  0  0  0
   -1.6050   15.8410   -4.6240 C   0  0  2  0  0  0  0  0  0  0  0  0
   -3.0030   15.9840   -5.7590 Cl  0  0  0  0  0  0  0  0  0  0  0  0
    1.0770   12.8870   -4.2140 C   0  0  0  0  0  0  0  0  0  0  0  0
   -5.9300   15.4300   -0.8000 C   0  0  1  0  0  0  0  0  0  0  0  0
   -0.6570   17.0760   -4.6140 C   0  0  2  0  0  0  0  0  0  0  0  0
    1.2610   15.4800   -4.1750 C   0  0  0  0  0  0  0  0  0  0  0  0
   -7.2200   15.0600   -0.2900 O   0  0  0  0  0  0  0  0  0  0  0  0
   -1.1810   18.4450   -5.6690 Cl  0  0  0  0  0  0  0  0  0  0  0  0
    0.6120   12.4870   -2.7790 C   0  0  1  0  0  0  0  0  0  0  0  0
    0.8150   16.7780   -4.8520 C   0  0  0  0  0  0  0  0  0  0  0  0
    0.5500   11.1790   -2.6220 O   0  0  0  0  0  0  0  0  0  0  0  0
    1.6320   12.8210   -1.8800 O   0  0  0  0  0  0  0  0  0  0  0  0
  2  1  1  1
  2  3  1  0
  2  4  1  0
  4  5  1  1
  4  6  1  0
  7  3  1  1
  5  8  1  0
  6  9  1  0
  7 10  1  0
  7 11  1  0
 11 12  1  6
 10 13  1  1
  8 14  1  0
  9 14  1  0
 11 15  1  0
 10 16  1  0
 14 17  1  1
 15 18  1  6
 13 19  1  0
 15 20  1  0
 16 20  1  0
 19 21  1  6
 19 22  1  0
M  CHG  2   1  -1  21  -1
M  END
