ucsf303-ucsf028
     RDKit          3D

 26 29  0  0  0  0  0  0  0  0999 V2000
   -2.9840   14.5430   -3.5330 O   0  0  0  0  0  0  0  0  0  0  0  0
   -4.1400   14.4930   -2.4190 S   0  0  0  0  0  0  0  0  0  0  0  0
   -4.9360   15.8320   -2.6080 O   0  0  0  0  0  0  0  0  0  0  0  0
   -5.1030   13.1920   -2.6320 N   0  0  0  0  0  0  0  0  0  0  0  0
   -3.3630   14.7080   -0.8670 C   0  0  1  0  0  0  0  0  0  0  0  0
   -4.9110   12.0220   -1.8140 C   0  0  1  0  0  0  0  0  0  0  0  0
   -1.8250   14.6130   -0.7110 C   0  0  2  0  0  0  0  0  0  0  0  0
   -3.9310   15.7720    0.0690 C   0  0  0  0  0  0  0  0  0  0  0  0
   -1.4120   13.3640   -1.6160 C   0  0  0  0  0  0  0  0  0  0  0  0
   -5.9880   11.0710   -2.0410 N   0  0  0  0  0  0  0  0  0  0  0  0
   -3.3750   11.2520   -2.3510 S   0  0  0  0  0  0  0  0  0  0  0  0
   -1.6560   14.6910    0.8120 C   0  0  1  0  0  0  0  0  0  0  0  0
   -3.9810   15.2410    1.4760 C   0  0  0  0  0  0  0  0  0  0  0  0
   -0.8050   15.7070   -0.8910 C   0  0  0  0  0  0  0  0  0  0  0  0
   -4.1080    9.6260   -2.4470 C   0  0  0  0  0  0  0  0  0  0  0  0
   -5.4720    9.6860   -1.9130 N   0  0  0  0  0  0  0  0  0  0  0  0
   -2.8370   14.2440    1.6630 C   0  0  0  0  0  0  0  0  0  0  0  0
   -0.4770   13.2990   -2.8370 C   0  0  2  0  0  0  0  0  0  0  0  0
    0.3380   15.0640   -0.1790 N   0  0  0  0  0  0  0  0  0  0  0  0
   -0.2140   14.3300    0.9790 C   0  0  0  0  0  0  0  0  0  0  0  0
   -1.0560   12.8180   -4.1560 C   0  0  0  0  0  0  0  0  0  0  0  0
    0.6700   12.5090   -2.5750 O   0  0  0  0  0  0  0  0  0  0  0  0
    0.4690   11.2570   -3.3000 N   0  0  0  0  0  0  0  0  0  0  0  0
   -0.1080   11.7050   -4.5500 C   0  0  1  0  0  0  0  0  0  0  0  0
   -0.7530   10.6310   -5.2130 O   0  0  0  0  0  0  0  0  0  0  0  0
   -0.4060   10.5950   -6.5880 C   0  0  0  0  0  0  0  0  0  0  0  0
  2  1  1  0
  2  3  1  0
  2  4  1  0
  5  2  1  6
  6  4  1  6
  5  7  1  0
  5  8  1  0
  7  9  1  6
  6 10  1  0
  6 11  1  0
  7 12  1  0
  8 13  1  0
  7 14  1  0
 11 15  1  0
 10 16  1  0
 15 16  1  0
 12 17  1  1
 13 17  1  0
 18  9  1  1
 14 19  1  0
 12 20  1  0
 19 20  1  0
 18 21  1  0
 18 22  1  0
 22 23  1  0
 21 24  1  0
 23 24  1  0
 24 25  1  1
 25 26  1  0
M  END
