ucsf260-ucsf584
     RDKit          3D

 28 31  0  0  0  0  0  0  0  0999 V2000
    0.8450   11.0640   -2.6760 O   0  0  0  0  0  0  0  0  0  0  0  0
    0.5560   12.3230   -2.9580 C   0  0  1  0  0  0  0  0  0  0  0  0
    1.0680   13.1200   -1.8830 O   0  0  0  0  0  0  0  0  0  0  0  0
    1.2890   12.7820   -4.2560 C   0  0  0  0  0  0  0  0  0  0  0  0
    0.3360   13.1960   -5.4110 C   0  0  0  0  0  0  0  0  0  0  0  0
    0.0220   13.6660   -1.0700 C   0  0  0  0  0  0  0  0  0  0  0  0
   -0.3400   15.0780   -1.5620 C   0  0  0  0  0  0  0  0  0  0  0  0
   -0.6870   12.2420   -5.8700 N   0  0  0  0  0  0  0  0  0  0  0  0
   -1.6150   15.0830   -2.4290 C   0  0  0  0  0  0  0  0  0  0  0  0
   -1.7060   11.8690   -4.9000 C   0  0  0  0  0  0  0  0  0  0  0  0
   -0.2220   10.9620   -6.3400 C   0  0  1  0  0  0  0  0  0  0  0  0
   -2.3910   10.6890   -5.4830 N   0  0  0  0  0  0  0  0  0  0  0  0
   -1.5660   10.3410   -6.6490 C   0  0  2  0  0  0  0  0  0  0  0  0
    0.6500   10.9660   -7.5860 C   0  0  0  0  0  0  0  0  0  0  0  0
   -2.8980   14.8010   -1.7340 N   0  0  0  0  0  0  0  0  0  0  0  0
   -1.4300    8.8500   -6.9270 C   0  0  0  0  0  0  0  0  0  0  0  0
    0.5410    9.6700   -8.4070 C   0  0  0  0  0  0  0  0  0  0  0  0
   -2.8630   15.3490   -0.3690 C   0  0  0  0  0  0  0  0  0  0  0  0
   -4.1090   15.1470   -2.5030 C   0  0  0  0  0  0  0  0  0  0  0  0
   -0.1330    8.5000   -7.6830 C   0  0  0  0  0  0  0  0  0  0  0  0
   -4.1220   15.1290    0.4760 C   0  0  0  0  0  0  0  0  0  0  0  0
   -5.3950   15.2140   -1.6640 C   0  0  0  0  0  0  0  0  0  0  0  0
   -5.2150   14.4410   -0.3470 C   0  0  0  0  0  0  0  0  0  0  0  0
   -6.5470   14.1920    0.4170 C   0  0  0  0  0  0  0  0  0  0  0  0
   -6.4990   14.6880    1.7810 N   0  0  0  0  0  0  0  0  0  0  0  0
   -7.7170   14.8710   -0.1060 N   0  0  0  0  0  0  0  0  0  0  0  0
   -8.7130   14.7210    0.9610 C   0  0  0  0  0  0  0  0  0  0  0  0
   -7.8900   14.6390    2.2380 C   0  0  0  0  0  0  0  0  0  0  0  0
  2  1  1  1
  2  3  1  0
  2  4  1  0
  4  5  1  0
  3  6  1  0
  6  7  1  0
  5  8  1  0
  7  9  1  0
  8 10  1  0
  8 11  1  0
 10 12  1  0
 11 13  1  0
 12 13  1  0
 11 14  1  6
  9 15  1  0
 13 16  1  1
 14 17  1  0
 15 18  1  0
 15 19  1  0
 16 20  1  0
 17 20  1  0
 18 21  1  0
 19 22  1  0
 21 23  1  0
 22 23  1  0
 23 24  1  0
 24 25  1  0
 24 26  1  0
 26 27  1  0
 25 28  1  0
 27 28  1  0
M  CHG  1   1  -1
M  END
