ucsf392-ucsf403
     RDKit          3D

 24 25  0  0  0  0  0  0  0  0999 V2000
   -5.2560   14.4920   -0.5210 C   0  0  0  0  0  0  0  0  0  0  0  0
   -4.2330   15.6070   -0.4710 C   0  0  2  0  0  0  0  0  0  0  0  0
   -3.1670   15.4490   -1.5420 C   0  0  0  0  0  0  0  0  0  0  0  0
   -3.6330   15.8630    0.9360 C   0  0  1  0  0  0  0  0  0  0  0  0
   -4.4700   15.3860    1.9930 N   0  0  0  0  0  0  0  0  0  0  0  0
   -2.3170   15.3160    1.2490 N   0  0  0  0  0  0  0  0  0  0  0  0
   -1.8660   15.7430   -1.0010 N   0  0  0  0  0  0  0  0  0  0  0  0
   -1.5840   14.8780    0.0930 C   0  0  1  0  0  0  0  0  0  0  0  0
   -0.0890   14.8450    0.2370 C   0  0  0  0  0  0  0  0  0  0  0  0
    0.4200   13.6090   -0.4520 C   0  0  0  0  0  0  0  0  0  0  0  0
    1.3200   13.7640   -1.6850 C   0  0  0  0  0  0  0  0  0  0  0  0
    0.6130   13.1920   -2.8000 O   0  0  0  0  0  0  0  0  0  0  0  0
    1.2880   12.2300   -3.6100 C   0  0  1  0  0  0  0  0  0  0  0  0
    0.7740   10.9600   -3.2300 O   0  0  0  0  0  0  0  0  0  0  0  0
    0.9830   12.5360   -5.1080 C   0  0  0  0  0  0  0  0  0  0  0  0
    0.6590   11.3880   -5.9300 O   0  0  0  0  0  0  0  0  0  0  0  0
   -0.4930   10.5760   -5.5780 C   0  0  0  0  0  0  0  0  0  0  0  0
   -1.8250   11.3420   -5.7770 C   0  0  2  0  0  0  0  0  0  0  0  0
   -0.4730    9.3080   -6.4740 C   0  0  2  0  0  0  0  0  0  0  0  0
    0.6100    9.4890   -7.8960 Cl  0  0  0  0  0  0  0  0  0  0  0  0
   -1.8920   12.8130   -4.7480 Cl  0  0  0  0  0  0  0  0  0  0  0  0
   -3.0770   10.5100   -5.4590 C   0  0  0  0  0  0  0  0  0  0  0  0
   -1.8570    8.8860   -6.9550 C   0  0  0  0  0  0  0  0  0  0  0  0
   -2.9230    9.0530   -5.8770 C   0  0  0  0  0  0  0  0  0  0  0  0
  2  1  1  1
  2  3  1  0
  2  4  1  0
  4  5  1  1
  4  6  1  0
  3  7  1  0
  6  8  1  0
  7  8  1  0
  8  9  1  1
  9 10  1  0
 10 11  1  0
 11 12  1  0
 12 13  1  0
 13 14  1  1
 13 15  1  0
 15 16  1  0
 16 17  1  0
 17 18  1  0
 17 19  1  0
 19 20  1  6
 18 21  1  1
 18 22  1  0
 19 23  1  0
 22 24  1  0
 23 24  1  0
M  END
