ucsf422-ucsf135
     RDKit          3D

 25 28  0  0  0  0  0  0  0  0999 V2000
    1.2150   11.8160   -3.8050 O   0  0  0  0  0  0  0  0  0  0  0  0
    0.3740   12.3050   -2.7840 C   0  0  1  0  0  0  0  0  0  0  0  0
    0.9850   12.2980   -1.5200 O   0  0  0  0  0  0  0  0  0  0  0  0
    0.3930   11.1470   -4.8130 N   0  0  0  0  0  0  0  0  0  0  0  0
    0.0710   13.7220   -3.1370 C   0  0  0  0  0  0  0  0  0  0  0  0
    0.4080   11.7230   -6.1760 C   0  0  1  0  0  0  0  0  0  0  0  0
   -1.2010   10.8820   -4.3340 S   0  0  1  0  0  0  0  0  0  0  0  0
    1.6760   11.7570   -6.8020 O   0  0  0  0  0  0  0  0  0  0  0  0
   -1.9520   12.2920   -4.1520 O   0  0  0  0  0  0  0  0  0  0  0  0
    0.8230   14.2710   -4.3450 C   0  0  2  0  0  0  0  0  0  0  0  0
   -1.7200   10.3170   -5.9300 C   0  0  1  0  0  0  0  0  0  0  0  0
   -0.6610   10.8770   -6.9500 C   0  0  2  0  0  0  0  0  0  0  0  0
    1.9130   15.2210   -3.8940 C   0  0  0  0  0  0  0  0  0  0  0  0
   -0.0790   15.1020   -5.2300 C   0  0  2  0  0  0  0  0  0  0  0  0
   -1.9320    8.8140   -5.9620 C   0  0  0  0  0  0  0  0  0  0  0  0
   -0.1400    9.7210   -7.8170 C   0  0  0  0  0  0  0  0  0  0  0  0
    1.3860   16.5600   -4.0930 N   0  0  0  0  0  0  0  0  0  0  0  0
    0.5340   16.5110   -5.2670 C   0  0  2  0  0  0  0  0  0  0  0  0
   -1.5150   15.0180   -4.6710 C   0  0  0  0  0  0  0  0  0  0  0  0
   -2.2920    8.3600   -7.3640 C   0  0  0  0  0  0  0  0  0  0  0  0
   -1.2880    8.8800   -8.3970 C   0  0  0  0  0  0  0  0  0  0  0  0
   -0.4490   17.6720   -5.2610 C   0  0  0  0  0  0  0  0  0  0  0  0
   -2.4900   16.1160   -5.0280 C   0  0  2  0  0  0  0  0  0  0  0  0
   -3.9310   15.3330   -6.0950 Br  0  0  0  0  0  0  0  0  0  0  0  0
   -1.8830   17.3520   -5.6840 C   0  0  0  0  0  0  0  0  0  0  0  0
  1  2  1  0
  2  3  1  1
  1  4  1  0
  2  5  1  0
  4  6  1  0
  4  7  1  0
  6  8  1  6
  7  9  1  6
 10  5  1  1
  7 11  1  0
  6 12  1  0
 11 12  1  0
 10 13  1  0
 10 14  1  0
 11 15  1  1
 12 16  1  1
 13 17  1  0
 14 18  1  0
 17 18  1  0
 14 19  1  1
 15 20  1  0
 16 21  1  0
 20 21  1  0
 18 22  1  1
 19 23  1  0
 23 24  1  6
 22 25  1  0
 23 25  1  0
M  END
