ucsf424-ucsf264
     RDKit          3D

 17 18  0  0  0  0  0  0  0  0999 V2000
    1.2080   12.3040   -2.3600 O   0  0  0  0  0  0  0  0  0  0  0  0
    0.5200   11.7600   -3.3420 C   0  0  1  0  0  0  0  0  0  0  0  0
   -0.8000   12.0760   -2.9750 O   0  0  0  0  0  0  0  0  0  0  0  0
    0.8740   12.4640   -4.6810 C   0  0  0  0  0  0  0  0  0  0  0  0
    0.1990   11.8620   -5.9310 C   0  0  1  0  0  0  0  0  0  0  0  0
    1.1230   11.5970   -7.0510 N   0  0  0  0  0  0  0  0  0  0  0  0
   -0.5510   10.5150   -5.7860 C   0  0  2  0  0  0  0  0  0  0  0  0
    0.2820   10.8430   -7.9920 N   0  0  0  0  0  0  0  0  0  0  0  0
   -0.3010    9.8180   -7.1410 C   0  0  2  0  0  0  0  0  0  0  0  0
   -2.0530   10.6070   -5.4890 C   0  0  0  0  0  0  0  0  0  0  0  0
    0.8960   10.2750   -9.1980 C   0  0  0  0  0  0  0  0  0  0  0  0
   -1.5490    9.2560   -7.8230 C   0  0  0  0  0  0  0  0  0  0  0  0
   -2.7470    9.2460   -5.6040 C   0  0  0  0  0  0  0  0  0  0  0  0
    1.6170    9.1620   -8.9070 F   0  0  0  0  0  0  0  0  0  0  0  0
   -0.0270    9.9050  -10.1030 F   0  0  0  0  0  0  0  0  0  0  0  0
    1.6840   11.1460   -9.8510 F   0  0  0  0  0  0  0  0  0  0  0  0
   -2.3670    8.4360   -6.8400 C   0  0  0  0  0  0  0  0  0  0  0  0
  2  1  1  1
  2  3  1  0
  2  4  1  0
  5  4  1  1
  5  6  1  0
  5  7  1  0
  6  8  1  0
  7  9  1  0
  8  9  1  0
  7 10  1  6
  8 11  1  0
  9 12  1  6
 10 13  1  0
 11 14  1  0
 11 15  1  0
 11 16  1  0
 12 17  1  0
 13 17  1  0
M  CHG  1   1  -1
M  END
