ucsf520-ucsf380
     RDKit          3D

 25 28  0  0  0  0  0  0  0  0999 V2000
   -4.6930   14.8600    1.1080 N   0  0  0  0  0  0  0  0  0  0  0  0
   -3.8190   15.5040    0.1340 C   0  0  1  0  0  0  0  0  0  0  0  0
   -2.3310   15.4890    0.5600 C   0  0  2  0  0  0  0  0  0  0  0  0
   -4.1750   14.8820   -1.1160 N   0  0  0  0  0  0  0  0  0  0  0  0
   -3.2010   15.0440   -2.2080 C   0  0  0  0  0  0  0  0  0  0  0  0
   -1.4300   15.4610   -0.6680 C   0  0  2  0  0  0  0  0  0  0  0  0
   -1.8800   14.3450    1.3900 N   0  0  0  0  0  0  0  0  0  0  0  0
   -1.8840   14.6550   -1.7690 N   0  0  0  0  0  0  0  0  0  0  0  0
   -0.1710   14.9510   -0.1160 N   0  0  0  0  0  0  0  0  0  0  0  0
   -0.4410   14.2650    1.1200 C   0  0  0  0  0  0  0  0  0  0  0  0
   -0.8470   14.3420   -2.8340 C   0  0  2  0  0  0  0  0  0  0  0  0
    0.6380   13.9760   -2.1730 C   0  0  2  0  0  0  0  0  0  0  0  0
   -0.6290   15.4200   -4.0420 C   0  0  1  0  0  0  0  0  0  0  0  0
   -1.4340   13.0500   -3.5930 C   0  0  0  0  0  0  0  0  0  0  0  0
    1.6030   14.8730   -2.3130 O   0  0  0  0  0  0  0  0  0  0  0  0
    1.2210   12.7840   -2.6390 O   0  0  0  0  0  0  0  0  0  0  0  0
   -1.2070   16.7360   -3.8220 O   0  0  0  0  0  0  0  0  0  0  0  0
    0.7540   15.6940   -4.6470 C   0  0  0  0  0  0  0  0  0  0  0  0
   -2.2850   12.0220   -2.8240 C   0  0  0  0  0  0  0  0  0  0  0  0
   -0.3920   12.3310   -4.4650 C   0  0  0  0  0  0  0  0  0  0  0  0
    0.6550   17.1080   -5.1850 C   0  0  0  0  0  0  0  0  0  0  0  0
   -0.7670   17.5410   -4.9180 C   0  0  0  0  0  0  0  0  0  0  0  0
   -2.7830   10.9410   -3.7900 C   0  0  0  0  0  0  0  0  0  0  0  0
   -1.0390   11.5490   -5.5890 C   0  0  0  0  0  0  0  0  0  0  0  0
   -2.4960   11.2230   -5.2670 C   0  0  0  0  0  0  0  0  0  0  0  0
  2  1  1  1
  2  3  1  0
  2  4  1  0
  4  5  1  0
  3  6  1  0
  3  7  1  1
  5  8  1  0
  6  8  1  0
  6  9  1  1
  7 10  1  0
  9 10  1  0
 11  8  1  0
 11 12  1  0
 11 13  1  0
 11 14  1  6
 12 15  1  6
 12 16  1  0
 13 17  1  0
 13 18  1  1
 14 19  1  0
 14 20  1  0
 18 21  1  0
 17 22  1  0
 21 22  1  0
 19 23  1  0
 20 24  1  0
 23 25  1  0
 24 25  1  0
M  CHG  1  15  -1
M  END
