ucsf516-ucsf005
     RDKit          3D

 21 24  0  0  0  0  0  0  0  0999 V2000
   -3.8400   14.4730   -2.5650 C   0  0  0  0  0  0  0  0  0  0  0  0
   -3.9490   15.2170   -1.2440 C   0  0  2  0  0  0  0  0  0  0  0  0
   -2.6190   15.5770   -0.5810 C   0  0  1  0  0  0  0  0  0  0  0  0
   -4.7150   14.4390   -0.1530 C   0  0  0  0  0  0  0  0  0  0  0  0
   -2.8780   15.1230    0.8580 C   0  0  2  0  0  0  0  0  0  0  0  0
   -1.3900   14.8030   -1.1540 C   0  0  1  0  0  0  0  0  0  0  0  0
   -3.6930   13.9830    0.7880 N   0  0  0  0  0  0  0  0  0  0  0  0
   -3.8030   15.8700    1.6600 N   0  0  0  0  0  0  0  0  0  0  0  0
   -0.8310   15.2250   -2.4570 N   0  0  0  0  0  0  0  0  0  0  0  0
   -0.3340   14.9230   -0.1580 N   0  0  0  0  0  0  0  0  0  0  0  0
   -1.7480   14.9560    1.6580 N   0  0  0  0  0  0  0  0  0  0  0  0
    0.3040   14.6230   -3.1870 C   0  0  1  0  0  0  0  0  0  0  0  0
   -1.8190   15.6350   -3.4670 C   0  0  0  0  0  0  0  0  0  0  0  0
   -0.7630   14.1920    0.9890 C   0  0  2  0  0  0  0  0  0  0  0  0
    0.2390   14.2200    1.9760 N   0  0  0  0  0  0  0  0  0  0  0  0
    0.7950   13.2950   -2.5690 C   0  0  0  0  0  0  0  0  0  0  0  0
   -0.2040   14.3710   -4.6270 C   0  0  0  0  0  0  0  0  0  0  0  0
   -1.7040   14.5990   -4.5650 C   0  0  0  0  0  0  0  0  0  0  0  0
    1.7710   12.4640   -3.4650 C   0  0  0  0  0  0  0  0  0  0  0  0
   -0.2000   12.0960   -2.5920 C   0  0  0  0  0  0  0  0  0  0  0  0
    0.7660   11.2970   -3.4790 C   0  0  0  0  0  0  0  0  0  0  0  0
  2  1  1  6
  3  2  1  6
  2  4  1  0
  3  5  1  0
  3  6  1  0
  4  7  1  0
  5  7  1  0
  5  8  1  1
  6  9  1  6
  6 10  1  0
  5 11  1  0
  9 12  1  0
  9 13  1  0
 10 14  1  0
 11 14  1  0
 14 15  1  1
 12 16  1  1
 12 17  1  0
 13 18  1  0
 17 18  1  0
 16 19  1  0
 16 20  1  0
 19 21  1  0
 20 21  1  0
M  END
