ucsf424-ucsf030
     RDKit          3D

 30 34  0  0  0  0  0  0  0  0999 V2000
    0.9190   11.3110   -2.7390 O   0  0  0  0  0  0  0  0  0  0  0  0
    0.2100   12.1520   -3.4570 C   0  0  2  0  0  0  0  0  0  0  0  0
   -1.0140   11.4810   -3.5670 O   0  0  0  0  0  0  0  0  0  0  0  0
    0.8190   12.4790   -4.8250 C   0  0  0  0  0  0  0  0  0  0  0  0
    0.0370   13.3470   -2.5490 C   0  0  2  0  0  0  0  0  0  0  0  0
    0.1360   11.9120   -6.0810 C   0  0  1  0  0  0  0  0  0  0  0  0
    0.3300   14.9060   -2.7290 C   0  0  2  0  0  0  0  0  0  0  0  0
    1.0520   13.3030   -1.4160 C   0  0  0  0  0  0  0  0  0  0  0  0
    1.2160   11.5530   -7.0510 N   0  0  0  0  0  0  0  0  0  0  0  0
   -0.6380   10.5940   -5.9850 C   0  0  2  0  0  0  0  0  0  0  0  0
    0.8070   15.2860   -4.1380 C   0  0  0  0  0  0  0  0  0  0  0  0
    1.4930   14.7250   -1.7070 C   0  0  0  0  0  0  0  0  0  0  0  0
   -0.8240   15.6980   -2.2270 N   0  0  0  0  0  0  0  0  0  0  0  0
    0.7800   10.3780   -7.8060 O   0  0  0  0  0  0  0  0  0  0  0  0
   -0.5600   10.1240   -7.4150 C   0  0  1  0  0  0  0  0  0  0  0  0
   -2.0540   10.5030   -5.4110 C   0  0  0  0  0  0  0  0  0  0  0  0
   -1.3320   15.5510   -0.8710 C   0  0  1  0  0  0  0  0  0  0  0  0
   -1.7480   16.0400   -3.3020 C   0  0  0  0  0  0  0  0  0  0  0  0
   -0.3200   15.1780   -5.1490 C   0  0  0  0  0  0  0  0  0  0  0  0
   -0.9390    8.6710   -7.5950 C   0  0  0  0  0  0  0  0  0  0  0  0
   -2.9270    9.5650   -6.2470 C   0  0  0  0  0  0  0  0  0  0  0  0
   -2.6530   14.8600   -0.5630 C   0  0  2  0  0  0  0  0  0  0  0  0
   -0.2720   15.0420   -0.0180 N   0  0  0  0  0  0  0  0  0  0  0  0
   -1.6730   15.0650   -4.4650 C   0  0  0  0  0  0  0  0  0  0  0  0
   -4.0920   15.4150   -1.5350 Cl  0  0  0  0  0  0  0  0  0  0  0  0
   -2.1690    8.3360   -6.7570 C   0  0  0  0  0  0  0  0  0  0  0  0
   -2.8600   15.2230    0.8910 C   0  0  1  0  0  0  0  0  0  0  0  0
   -0.6030   14.2930    1.1740 C   0  0  0  0  0  0  0  0  0  0  0  0
   -4.1870   14.9650    1.4140 N   0  0  0  0  0  0  0  0  0  0  0  0
   -1.9090   14.6060    1.7700 N   0  0  0  0  0  0  0  0  0  0  0  0
  2  1  1  1
  2  3  1  0
  2  4  1  0
  2  5  1  0
  6  4  1  1
  5  7  1  0
  5  8  1  1
  6  9  1  0
  6 10  1  0
  7 11  1  6
  7 12  1  0
  8 12  1  0
  7 13  1  0
  9 14  1  0
 10 15  1  0
 14 15  1  0
 10 16  1  6
 17 13  1  6
 13 18  1  0
 11 19  1  0
 15 20  1  1
 16 21  1  0
 17 22  1  0
 17 23  1  0
 18 24  1  0
 19 24  1  0
 22 25  1  6
 20 26  1  0
 21 26  1  0
 22 27  1  0
 23 28  1  0
 27 29  1  1
 27 30  1  0
 28 30  1  0
M  CHG  1   1  -1
M  END
