ucsf016-ucsf345
     RDKit          3D

 20 23  0  0  0  0  0  0  0  0999 V2000
   -6.5540   14.6840    1.6220 N   0  0  0  0  0  0  0  0  0  0  0  0
   -6.0900   14.8980    0.2500 C   0  0  2  0  0  0  0  0  0  0  0  0
   -6.3440   13.7140   -0.4510 O   0  0  0  0  0  0  0  0  0  0  0  0
   -4.6190   15.4750    0.1150 C   0  0  1  0  0  0  0  0  0  0  0  0
   -3.6900   15.2770    1.2670 N   0  0  0  0  0  0  0  0  0  0  0  0
   -3.8220   15.1250   -1.1520 C   0  0  0  0  0  0  0  0  0  0  0  0
   -2.4810   14.5750    0.8110 C   0  0  1  0  0  0  0  0  0  0  0  0
   -2.4880   14.5070   -0.6950 C   0  0  2  0  0  0  0  0  0  0  0  0
   -1.3680   15.2950    1.3310 N   0  0  0  0  0  0  0  0  0  0  0  0
   -1.1850   15.1510   -1.2490 C   0  0  2  0  0  0  0  0  0  0  0  0
   -0.9860   14.8610   -2.6640 N   0  0  0  0  0  0  0  0  0  0  0  0
    0.0060   14.7570   -0.5200 N   0  0  0  0  0  0  0  0  0  0  0  0
   -0.0850   14.8040    0.9180 C   0  0  0  0  0  0  0  0  0  0  0  0
    0.2530   14.2410   -3.1530 C   0  0  0  0  0  0  0  0  0  0  0  0
   -1.7420   15.5860   -3.6710 C   0  0  0  0  0  0  0  0  0  0  0  0
   -2.0310   14.7110   -4.8610 C   0  0  0  0  0  0  0  0  0  0  0  0
    0.0220   13.3310   -4.3620 C   0  0  0  0  0  0  0  0  0  0  0  0
   -3.3000   13.8770   -4.8190 C   0  0  0  0  0  0  0  0  0  0  0  0
   -3.2110   15.0420   -5.7610 C   0  0  0  0  0  0  0  0  0  0  0  0
   -0.7800   14.0560   -5.4290 C   0  0  0  0  0  0  0  0  0  0  0  0
  2  1  1  1
  2  3  1  0
  2  4  1  0
  4  5  1  0
  4  6  1  6
  7  5  1  6
  8  6  1  6
  7  8  1  0
  7  9  1  0
  8 10  1  0
 10 11  1  6
 10 12  1  0
  9 13  1  0
 12 13  1  0
 11 14  1  0
 11 15  1  0
 16 15  1  0
 14 17  1  0
 16 18  1  0
 16 19  1  0
 18 19  1  0
 16 20  1  0
 17 20  1  0
M  END
