ucsf274-ucsf396
     RDKit          3D

 27 29  0  0  0  0  0  0  0  0999 V2000
    0.4710   10.8630   -2.4060 O   0  0  0  0  0  0  0  0  0  0  0  0
    1.0460   12.0690   -2.4010 C   0  0  2  0  0  0  0  0  0  0  0  0
    0.5870   12.5820   -1.1700 O   0  0  0  0  0  0  0  0  0  0  0  0
    0.5160   13.0500   -3.4840 C   0  0  0  0  0  0  0  0  0  0  0  0
    0.5710   12.6780   -4.9790 C   0  0  0  0  0  0  0  0  0  0  0  0
   -0.7980   12.3460   -5.5860 C   0  0  2  0  0  0  0  0  0  0  0  0
   -1.7080   11.5740   -4.5570 C   0  0  1  0  0  0  0  0  0  0  0  0
   -0.6360   11.5810   -6.8490 N   0  0  0  0  0  0  0  0  0  0  0  0
   -2.4780   12.5020   -3.7660 O   0  0  0  0  0  0  0  0  0  0  0  0
   -2.6440   10.6650   -5.2560 N   0  0  0  0  0  0  0  0  0  0  0  0
   -0.6110   10.1340   -6.6680 C   0  0  1  0  0  0  0  0  0  0  0  0
   -2.3310   12.4140   -2.3310 C   0  0  0  0  0  0  0  0  0  0  0  0
   -1.8760    9.6030   -5.9400 C   0  0  2  0  0  0  0  0  0  0  0  0
   -0.2850    9.3860   -7.9700 C   0  0  0  0  0  0  0  0  0  0  0  0
   -3.4230   13.1940   -1.5410 C   0  0  0  0  0  0  0  0  0  0  0  0
   -0.6140    7.9000   -7.8750 C   0  0  0  0  0  0  0  0  0  0  0  0
   -2.7780    8.8240   -6.9040 C   0  0  0  0  0  0  0  0  0  0  0  0
   -3.0360   14.5620   -1.1190 N   0  0  0  0  0  0  0  0  0  0  0  0
   -2.0860    7.6340   -7.5650 C   0  0  0  0  0  0  0  0  0  0  0  0
   -3.5850   15.0210    0.1630 C   0  0  2  0  0  0  0  0  0  0  0  0
   -3.1210   14.1970    1.2200 O   0  0  0  0  0  0  0  0  0  0  0  0
   -5.1260   15.1720    0.1510 C   0  0  1  0  0  0  0  0  0  0  0  0
   -5.8290   14.6750   -1.1120 C   0  0  0  0  0  0  0  0  0  0  0  0
   -5.7520   14.5530    1.4170 C   0  0  0  0  0  0  0  0  0  0  0  0
   -7.2490   15.0160   -1.0280 N   0  0  0  0  0  0  0  0  0  0  0  0
   -7.2770   14.4510    1.4350 C   0  0  0  0  0  0  0  0  0  0  0  0
   -7.9060   14.2770    0.0520 C   0  0  0  0  0  0  0  0  0  0  0  0
  2  1  1  6
  2  3  1  0
  2  4  1  0
  4  5  1  0
  6  5  1  1
  6  7  1  0
  6  8  1  0
  7  9  1  6
  7 10  1  0
  8 11  1  0
  9 12  1  0
 10 13  1  0
 11 13  1  0
 11 14  1  6
 12 15  1  0
 14 16  1  0
 13 17  1  6
 15 18  1  0
 16 19  1  0
 17 19  1  0
 18 20  1  0
 20 21  1  1
 20 22  1  0
 22 23  1  6
 22 24  1  0
 23 25  1  0
 24 26  1  0
 25 27  1  0
 26 27  1  0
M  CHG  1   1  -1
M  END
