ucsf013-ucsf412
     RDKit          3D

 11 12  0  0  0  0  0  0  0  0999 V2000
   -4.3210   15.5360    2.0080 N   0  0  0  0  0  0  0  0  0  0  0  0
   -5.0920   14.5110    1.3550 C   0  0  1  0  0  0  0  0  0  0  0  0
   -6.4820   14.7440    1.6550 N   0  0  0  0  0  0  0  0  0  0  0  0
   -4.8760   14.3600   -0.1540 C   0  0  1  0  0  0  0  0  0  0  0  0
   -5.8820   15.1810   -0.9700 C   0  0  2  0  0  0  0  0  0  0  0  0
   -7.3990   14.2100    0.6790 C   0  0  0  0  0  0  0  0  0  0  0  0
   -3.4280   14.6270   -0.5900 C   0  0  0  0  0  0  0  0  0  0  0  0
   -7.2690   14.9220   -0.5730 N   0  0  0  0  0  0  0  0  0  0  0  0
   -5.7580   14.8410   -2.4610 C   0  0  0  0  0  0  0  0  0  0  0  0
   -3.3360   15.2980   -1.9540 C   0  0  0  0  0  0  0  0  0  0  0  0
   -4.3160   14.7610   -2.9660 C   0  0  0  0  0  0  0  0  0  0  0  0
  2  1  1  6
  2  3  1  0
  2  4  1  0
  4  5  1  0
  3  6  1  0
  4  7  1  1
  5  8  1  0
  6  8  1  0
  5  9  1  6
  7 10  1  0
  9 11  1  0
 10 11  1  0
M  END
