ucsf247-ucsf378
     RDKit          3D

 24 25  0  0  0  0  0  0  0  0999 V2000
    0.2920   12.5310   -1.7160 O   0  0  0  0  0  0  0  0  0  0  0  0
    0.7170   13.8840   -1.8280 C   0  0  0  0  0  0  0  0  0  0  0  0
    1.9800   13.9960   -2.4560 O   0  0  0  0  0  0  0  0  0  0  0  0
    0.6810   11.6610   -2.7900 C   0  0  1  0  0  0  0  0  0  0  0  0
    0.3120   10.3120   -2.4740 O   0  0  0  0  0  0  0  0  0  0  0  0
    0.0610   11.9990   -4.1730 C   0  0  0  0  0  0  0  0  0  0  0  0
    0.3690   13.4010   -4.7610 C   0  0  2  0  0  0  0  0  0  0  0  0
    1.6240   13.9270   -4.0640 C   0  0  1  0  0  0  0  0  0  0  0  0
   -0.8570   14.3520   -4.7420 C   0  0  2  0  0  0  0  0  0  0  0  0
    3.0340   12.9770   -4.6150 Cl  0  0  0  0  0  0  0  0  0  0  0  0
    1.8430   15.4160   -4.1910 C   0  0  0  0  0  0  0  0  0  0  0  0
   -0.5070   15.8600   -4.7610 C   0  0  0  0  0  0  0  0  0  0  0  0
   -1.7600   13.9760   -3.5850 C   0  0  0  0  0  0  0  0  0  0  0  0
    0.6370   16.2340   -3.8490 C   0  0  0  0  0  0  0  0  0  0  0  0
   -1.9750   15.0000   -2.6020 N   0  0  0  0  0  0  0  0  0  0  0  0
   -3.3570   15.3060   -2.4600 C   0  0  1  0  0  0  0  0  0  0  0  0
   -4.0770   14.9550   -3.6250 O   0  0  0  0  0  0  0  0  0  0  0  0
   -3.9350   14.6400   -1.2180 C   0  0  2  0  0  0  0  0  0  0  0  0
   -5.4250   14.3500   -1.3120 C   0  0  0  0  0  0  0  0  0  0  0  0
   -3.5450   15.3630    0.0790 C   0  0  0  0  0  0  0  0  0  0  0  0
   -6.1860   15.0590   -0.2310 C   0  0  1  0  0  0  0  0  0  0  0  0
   -4.1940   14.8400    1.3300 C   0  0  0  0  0  0  0  0  0  0  0  0
   -7.5790   14.7690   -0.3350 O   0  0  0  0  0  0  0  0  0  0  0  0
   -5.6940   14.6430    1.1540 C   0  0  0  0  0  0  0  0  0  0  0  0
  1  2  1  0
  2  3  1  0
  1  4  1  0
  4  5  1  1
  4  6  1  0
  7  6  1  1
  7  8  1  0
  7  9  1  0
  8 10  1  6
  8 11  1  0
  9 12  1  0
  9 13  1  1
 11 14  1  0
 12 14  1  0
 13 15  1  0
 15 16  1  0
 16 17  1  6
 16 18  1  0
 18 19  1  6
 18 20  1  0
 19 21  1  0
 20 22  1  0
 21 23  1  1
 21 24  1  0
 22 24  1  0
M  END
