ucsf367-ucsf169
     RDKit          3D

 20 21  0  0  0  0  0  0  0  0999 V2000
    0.7760   11.2170   -2.6060 O   0  0  0  0  0  0  0  0  0  0  0  0
    0.8810   12.4360   -3.1020 C   0  0  1  0  0  0  0  0  0  0  0  0
    2.2730   12.5680   -3.2460 O   0  0  0  0  0  0  0  0  0  0  0  0
    0.1490   12.6000   -4.4870 C   0  0  2  0  0  0  0  0  0  0  0  0
    0.5200   11.6990   -5.5560 O   0  0  0  0  0  0  0  0  0  0  0  0
   -0.2570   14.0030   -5.1000 C   0  0  1  0  0  0  0  0  0  0  0  0
   -0.6470   11.1870   -6.2100 C   0  0  0  0  0  0  0  0  0  0  0  0
   -1.8180   14.0680   -5.2190 C   0  0  0  0  0  0  0  0  0  0  0  0
    0.3340   15.2330   -4.3520 C   0  0  0  0  0  0  0  0  0  0  0  0
   -0.3590    9.9500   -7.0720 C   0  0  0  0  0  0  0  0  0  0  0  0
   -1.6570   10.8930   -5.0860 C   0  0  0  0  0  0  0  0  0  0  0  0
   -0.2750   16.5140   -4.9190 C   0  0  2  0  0  0  0  0  0  0  0  0
   -2.5100   15.4350   -5.3730 C   0  0  0  0  0  0  0  0  0  0  0  0
    0.2510   17.7650   -4.4490 O   0  0  0  0  0  0  0  0  0  0  0  0
   -1.0570    8.7030   -6.5420 C   0  0  0  0  0  0  0  0  0  0  0  0
   -2.9090   10.2000   -5.6000 C   0  0  0  0  0  0  0  0  0  0  0  0
   -1.7680   16.4880   -4.6160 C   0  0  2  0  0  0  0  0  0  0  0  0
    1.1160   18.3390   -5.4130 C   0  0  0  0  0  0  0  0  0  0  0  0
   -2.3180   17.8050   -4.8070 O   0  0  0  0  0  0  0  0  0  0  0  0
   -2.5610    8.9200   -6.3440 C   0  0  0  0  0  0  0  0  0  0  0  0
  2  1  1  6
  2  3  1  0
  2  4  1  0
  4  5  1  6
  4  6  1  0
  5  7  1  0
  6  8  1  1
  6  9  1  0
  7 10  1  0
  7 11  1  0
  9 12  1  0
  8 13  1  0
 12 14  1  1
 10 15  1  0
 11 16  1  0
 12 17  1  0
 13 17  1  0
 14 18  1  0
 17 19  1  6
 15 20  1  0
 16 20  1  0
M  CHG  1   1  -1
M  END
