ucsf519-ucsf224
     RDKit          3D

 21 23  0  0  0  0  0  0  0  0999 V2000
    0.4500   14.8100   -2.9060 C   0  0  0  0  0  0  0  0  0  0  0  0
   -0.9200   14.1140   -2.7530 C   0  0  2  0  0  0  0  0  0  0  0  0
   -1.1800   12.7680   -3.9860 S   0  0  0  0  0  0  0  0  0  0  0  0
   -1.9630   15.1860   -2.6940 C   0  0  1  0  0  0  0  0  0  0  0  0
    0.4370   13.2280   -4.5350 C   0  0  2  0  0  0  0  0  0  0  0  0
   -2.3290   15.3340   -4.0340 O   0  0  0  0  0  0  0  0  0  0  0  0
   -2.9000   14.6690   -1.7300 N   0  0  0  0  0  0  0  0  0  0  0  0
    1.4370   12.3680   -3.6500 C   0  0  1  0  0  0  0  0  0  0  0  0
   -4.1950   15.2870   -1.5510 C   0  0  0  0  0  0  0  0  0  0  0  0
   -2.2370   14.5260   -0.4620 C   0  0  1  0  0  0  0  0  0  0  0  0
    0.2510   14.7810   -4.3840 C   0  0  2  0  0  0  0  0  0  0  0  0
   -1.0990   15.5140   -4.8080 C   0  0  2  0  0  0  0  0  0  0  0  0
    1.6890   12.9580   -2.3900 O   0  0  0  0  0  0  0  0  0  0  0  0
    0.8200   11.2760   -3.2070 O   0  0  0  0  0  0  0  0  0  0  0  0
   -0.9020   14.9700   -0.5010 O   0  0  0  0  0  0  0  0  0  0  0  0
   -4.2690   15.4600   -0.0390 C   0  0  0  0  0  0  0  0  0  0  0  0
   -2.8950   15.4180    0.4490 N   0  0  0  0  0  0  0  0  0  0  0  0
   -0.6730   16.9980   -4.6060 C   0  0  2  0  0  0  0  0  0  0  0  0
    1.3240   15.6630   -5.0010 C   0  0  0  0  0  0  0  0  0  0  0  0
   -1.5370   18.1930   -5.5960 Cl  0  0  0  0  0  0  0  0  0  0  0  0
    0.8320   17.0910   -4.8330 C   0  0  0  0  0  0  0  0  0  0  0  0
  2  1  1  6
  2  3  1  0
  2  4  1  0
  5  3  1  1
  4  6  1  0
  4  7  1  1
  5  8  1  0
  7  9  1  0
  7 10  1  0
  5 11  1  0
 12  6  1  1
 11 12  1  0
  8 13  1  1
  8 14  1  0
 10 15  1  6
  9 16  1  0
 10 17  1  0
 16 17  1  0
 12 18  1  0
 11 19  1  6
 18 20  1  6
 18 21  1  0
 19 21  1  0
M  CHG  1  14  -1
M  END
