ucsf262-ucsf243
     RDKit          3D

 22 24  0  0  0  0  0  0  0  0999 V2000
   -3.0270   15.6900   -5.7520 Cl  0  0  0  0  0  0  0  0  0  0  0  0
   -1.9290   16.8260   -4.9030 C   0  0  1  0  0  0  0  0  0  0  0  0
   -0.5810   16.2870   -4.3770 C   0  0  1  0  0  0  0  0  0  0  0  0
   -1.8220   18.1380   -5.7000 C   0  0  0  0  0  0  0  0  0  0  0  0
   -0.1520   14.8410   -4.6360 C   0  0  0  0  0  0  0  0  0  0  0  0
    0.6930   17.0990   -4.5790 C   0  0  1  0  0  0  0  0  0  0  0  0
   -0.5170   18.4640   -6.4160 C   0  0  0  0  0  0  0  0  0  0  0  0
    1.3140   14.8050   -4.1980 C   0  0  1  0  0  0  0  0  0  0  0  0
    1.7660   16.1130   -4.7290 N   0  0  0  0  0  0  0  0  0  0  0  0
    0.7910   18.0810   -5.7370 C   0  0  0  0  0  0  0  0  0  0  0  0
    1.6080   14.6520   -2.6660 C   0  0  2  0  0  0  0  0  0  0  0  0
    2.8820   14.3150   -2.4620 O   0  0  0  0  0  0  0  0  0  0  0  0
    0.7170   13.7020   -2.0900 O   0  0  0  0  0  0  0  0  0  0  0  0
   -0.2550   14.4870   -1.3920 C   0  0  0  0  0  0  0  0  0  0  0  0
   -1.7120   14.0580   -1.6460 C   0  0  1  0  0  0  0  0  0  0  0  0
   -2.4840   14.2650   -0.3350 C   0  0  0  0  0  0  0  0  0  0  0  0
   -2.4140   14.8040   -2.8240 C   0  0  1  0  0  0  0  0  0  0  0  0
   -2.1520   14.1840   -4.0810 O   0  0  0  0  0  0  0  0  0  0  0  0
   -3.3650   15.5100   -0.3490 C   0  0  2  0  0  0  0  0  0  0  0  0
   -3.9450   14.8200   -2.7210 C   0  0  0  0  0  0  0  0  0  0  0  0
   -3.9240   15.8210    1.0410 C   0  0  0  0  0  0  0  0  0  0  0  0
   -4.4730   15.3390   -1.3850 C   0  0  0  0  0  0  0  0  0  0  0  0
  2  1  1  6
  2  3  1  0
  2  4  1  0
  3  5  1  6
  3  6  1  0
  4  7  1  0
  8  5  1  1
  6  9  1  0
  8  9  1  0
  6 10  1  6
  7 10  1  0
  8 11  1  0
 11 12  1  6
 11 13  1  0
 13 14  1  0
 15 14  1  1
 15 16  1  0
 15 17  1  0
 17 18  1  6
 16 19  1  0
 17 20  1  0
 19 21  1  1
 19 22  1  0
 20 22  1  0
M  CHG  1  12  -1
M  END
