ucsf357-ucsf392
     RDKit          3D

 13 13  0  0  0  0  0  0  0  0999 V2000
   -5.9440   15.2030   -2.0450 O   0  0  0  0  0  0  0  0  0  0  0  0
   -5.4650   14.4900   -1.0530 C   0  0  2  0  0  0  0  0  0  0  0  0
   -5.9200   15.1920    0.0810 O   0  0  0  0  0  0  0  0  0  0  0  0
   -3.9110   14.4500   -1.0900 C   0  0  1  0  0  0  0  0  0  0  0  0
   -3.3470   15.4870   -2.0680 C   0  0  0  0  0  0  0  0  0  0  0  0
   -3.1330   14.3370    0.2790 C   0  0  2  0  0  0  0  0  0  0  0  0
   -3.5000   15.3100    1.3440 N   0  0  0  0  0  0  0  0  0  0  0  0
   -1.8930   15.2770   -2.4090 C   0  0  2  0  0  0  0  0  0  0  0  0
   -1.5930   14.2760    0.0180 C   0  0  2  0  0  0  0  0  0  0  0  0
   -1.7920   14.7700   -3.6840 F   0  0  0  0  0  0  0  0  0  0  0  0
   -0.6940   15.1960    0.8540 C   0  0  0  0  0  0  0  0  0  0  0  0
   -1.1780   14.2910   -1.4770 C   0  0  2  0  0  0  0  0  0  0  0  0
    0.2380   14.5590   -1.5340 O   0  0  0  0  0  0  0  0  0  0  0  0
  2  1  1  6
  2  3  1  0
  2  4  1  0
  4  5  1  1
  4  6  1  0
  6  7  1  1
  5  8  1  0
  6  9  1  0
  8 10  1  6
  9 11  1  1
  8 12  1  0
  9 12  1  0
 12 13  1  1
M  CHG  1   1  -1
M  END
