ucsf016-ucsf333
     RDKit          3D

 22 25  0  0  0  0  0  0  0  0999 V2000
   -6.0930   15.5660   -0.8670 Cl  0  0  0  0  0  0  0  0  0  0  0  0
   -4.5760   14.7290   -0.4910 C   0  0  2  0  0  0  0  0  0  0  0  0
   -3.9360   15.2440    0.7440 N   0  0  0  0  0  0  0  0  0  0  0  0
   -3.5740   14.9330   -1.6180 C   0  0  0  0  0  0  0  0  0  0  0  0
   -2.5860   14.8150    0.4430 C   0  0  1  0  0  0  0  0  0  0  0  0
   -2.3520   15.4430   -0.8880 C   0  0  1  0  0  0  0  0  0  0  0  0
   -1.5710   15.1060    1.3930 N   0  0  0  0  0  0  0  0  0  0  0  0
   -1.0170   14.9740   -1.4260 C   0  0  1  0  0  0  0  0  0  0  0  0
   -0.6920   15.5440   -2.7370 N   0  0  0  0  0  0  0  0  0  0  0  0
    0.0040   15.2980   -0.4290 N   0  0  0  0  0  0  0  0  0  0  0  0
   -0.2770   14.6990    0.8750 C   0  0  0  0  0  0  0  0  0  0  0  0
    0.4530   14.9600   -3.4050 C   0  0  0  0  0  0  0  0  0  0  0  0
   -1.7890   15.9060   -3.6600 C   0  0  0  0  0  0  0  0  0  0  0  0
   -2.0810   14.8470   -4.7410 C   0  0  0  0  0  0  0  0  0  0  0  0
   -0.0280   13.6820   -4.0580 C   0  0  1  0  0  0  0  0  0  0  0  0
   -3.3920   14.0820   -4.6600 C   0  0  0  0  0  0  0  0  0  0  0  0
   -3.2110   15.1230   -5.7220 C   0  0  0  0  0  0  0  0  0  0  0  0
   -0.8620   14.0980   -5.2490 C   0  0  0  0  0  0  0  0  0  0  0  0
    1.1220   12.7360   -4.3510 C   0  0  0  0  0  0  0  0  0  0  0  0
    1.5810   12.0930   -3.0400 C   0  0  1  0  0  0  0  0  0  0  0  0
    1.2790   12.8160   -1.9990 O   0  0  0  0  0  0  0  0  0  0  0  0
    0.7580   10.9610   -2.7980 O   0  0  0  0  0  0  0  0  0  0  0  0
  2  1  1  6
  2  3  1  0
  2  4  1  0
  5  3  1  1
  6  4  1  6
  5  6  1  0
  5  7  1  0
  6  8  1  0
  8  9  1  6
  8 10  1  0
  7 11  1  0
 10 11  1  0
  9 12  1  0
  9 13  1  0
 14 13  1  0
 12 15  1  0
 14 16  1  0
 14 17  1  0
 16 17  1  0
 14 18  1  0
 15 18  1  0
 15 19  1  6
 19 20  1  0
 20 21  1  1
 20 22  1  0
M  CHG  1  21  -1
M  END
