ucsf387-ucsf378
     RDKit          3D

 14 14  0  0  0  0  0  0  0  0999 V2000
    1.0550   18.3470   -5.6510 Cl  0  0  0  0  0  0  0  0  0  0  0  0
    0.2410   17.1130   -4.6740 C   0  0  1  0  0  0  0  0  0  0  0  0
   -1.2090   17.0320   -5.1640 C   0  0  0  0  0  0  0  0  0  0  0  0
    1.0130   15.7990   -4.6690 C   0  0  0  0  0  0  0  0  0  0  0  0
    0.2040   14.6140   -4.1310 C   0  0  2  0  0  0  0  0  0  0  0  0
   -1.8990   15.6530   -5.1990 C   0  0  2  0  0  0  0  0  0  0  0  0
   -3.2790   15.6000   -4.0830 Cl  0  0  0  0  0  0  0  0  0  0  0  0
    0.9920   13.3600   -3.6680 C   0  0  0  0  0  0  0  0  0  0  0  0
   -1.0520   14.3930   -4.9860 C   0  0  2  0  0  0  0  0  0  0  0  0
    0.3310   12.4120   -2.6590 C   0  0  1  0  0  0  0  0  0  0  0  0
   -2.1400   13.2350   -4.1130 Cl  0  0  0  0  0  0  0  0  0  0  0  0
    0.7680   11.0920   -2.9170 O   0  0  0  0  0  0  0  0  0  0  0  0
    0.6800   12.7410   -1.3270 O   0  0  0  0  0  0  0  0  0  0  0  0
   -0.2440   10.2130   -2.3730 O   0  0  0  0  0  0  0  0  0  0  0  0
  2  1  1  6
  2  3  1  0
  2  4  1  0
  4  5  1  0
  3  6  1  0
  6  7  1  1
  5  8  1  6
  5  9  1  0
  6  9  1  0
  8 10  1  0
  9 11  1  1
 10 12  1  0
 10 13  1  1
 12 14  1  0
M  END
