ucsf110-ucsf243
     RDKit          3D

 14 15  0  0  0  0  0  0  0  0999 V2000
   -0.2390   14.7830   -3.3260 C   0  0  0  0  0  0  0  0  0  0  0  0
    0.9900   14.1400   -2.6020 C   0  0  0  0  0  0  0  0  0  0  0  0
    1.1420   14.6890   -1.4120 O   0  0  0  0  0  0  0  0  0  0  0  0
   -1.3990   15.0490   -2.4830 N   0  0  0  0  0  0  0  0  0  0  0  0
   -2.7440   14.8920   -2.9820 C   0  0  1  0  0  0  0  0  0  0  0  0
   -1.3750   14.4520   -1.1750 C   0  0  2  0  0  0  0  0  0  0  0  0
   -2.8290   14.1150   -4.1580 O   0  0  0  0  0  0  0  0  0  0  0  0
   -3.5520   14.3040   -1.8140 C   0  0  0  0  0  0  0  0  0  0  0  0
   -2.7500   14.7820   -0.6170 C   0  0  1  0  0  0  0  0  0  0  0  0
   -0.2640   14.9310   -0.3990 N   0  0  0  0  0  0  0  0  0  0  0  0
   -2.8720   14.3050    0.8200 C   0  0  2  0  0  0  0  0  0  0  0  0
   -0.5630   15.1360    0.9920 C   0  0  0  0  0  0  0  0  0  0  0  0
   -3.7370   15.1740    1.5890 N   0  0  0  0  0  0  0  0  0  0  0  0
   -1.6360   14.3100    1.5600 N   0  0  0  0  0  0  0  0  0  0  0  0
  1  2  1  0
  2  3  1  0
  1  4  1  0
  4  5  1  0
  4  6  1  0
  5  7  1  6
  5  8  1  0
  6  9  1  0
  9  8  1  6
  6 10  1  1
  9 11  1  0
 10 12  1  0
 11 13  1  1
 11 14  1  0
 12 14  1  0
M  CHG  1   3  -1
M  END
