ucsf339-ucsf337
     RDKit          3D

 17 18  0  0  0  0  0  0  0  0999 V2000
    1.3430   14.6180   -2.6920 O   0  0  0  0  0  0  0  0  0  0  0  0
    0.5240   13.6020   -2.5100 C   0  0  1  0  0  0  0  0  0  0  0  0
    0.6600   13.3290   -1.1160 O   0  0  0  0  0  0  0  0  0  0  0  0
   -0.9620   13.9930   -2.7860 C   0  0  1  0  0  0  0  0  0  0  0  0
   -1.6830   14.6060   -1.5900 C   0  0  0  0  0  0  0  0  0  0  0  0
   -1.2260   14.8930   -4.0090 C   0  0  0  0  0  0  0  0  0  0  0  0
   -3.0890   15.1400   -1.9930 C   0  0  1  0  0  0  0  0  0  0  0  0
   -2.6640   14.9340   -4.4260 N   0  0  0  0  0  0  0  0  0  0  0  0
   -3.5890   14.5730   -3.3310 C   0  0  0  0  0  0  0  0  0  0  0  0
   -4.0940   15.2640   -0.8080 C   0  0  2  0  0  0  0  0  0  0  0  0
   -3.5480   14.6300    0.4740 C   0  0  0  0  0  0  0  0  0  0  0  0
   -5.6100   15.0260   -1.0230 C   0  0  1  0  0  0  0  0  0  0  0  0
   -5.8960   14.4920   -2.3740 N   0  0  0  0  0  0  0  0  0  0  0  0
   -4.3930   15.0390    1.6460 C   0  0  0  0  0  0  0  0  0  0  0  0
   -6.2840   14.1770    0.1100 C   0  0  2  0  0  0  0  0  0  0  0  0
   -7.7790   14.5060    0.1850 C   0  0  0  0  0  0  0  0  0  0  0  0
   -5.7340   14.3410    1.5430 C   0  0  0  0  0  0  0  0  0  0  0  0
  2  1  1  1
  2  3  1  0
  2  4  1  0
  4  5  1  1
  4  6  1  0
  7  5  1  1
  6  8  1  0
  7  9  1  0
  8  9  1  0
  7 10  1  0
 10 11  1  1
 10 12  1  0
 12 13  1  6
 11 14  1  0
 12 15  1  0
 15 16  1  1
 14 17  1  0
 15 17  1  0
M  CHG  1   1  -1
M  END
