ucsf224-ucsf385
     RDKit          3D

 23 24  0  0  0  0  0  0  0  0999 V2000
   -1.3000   18.0120   -5.6510 Cl  0  0  0  0  0  0  0  0  0  0  0  0
   -0.5270   16.6250   -4.7700 C   0  0  1  0  0  0  0  0  0  0  0  0
   -1.3060   15.3070   -4.9810 C   0  0  2  0  0  0  0  0  0  0  0  0
    0.9600   16.5240   -5.0380 C   0  0  0  0  0  0  0  0  0  0  0  0
   -3.0860   15.5110   -4.9060 Cl  0  0  0  0  0  0  0  0  0  0  0  0
   -0.7470   14.1450   -4.2000 C   0  0  0  0  0  0  0  0  0  0  0  0
    1.5380   15.3420   -4.2770 C   0  0  0  0  0  0  0  0  0  0  0  0
    0.7440   14.0470   -4.5630 C   0  0  1  0  0  0  0  0  0  0  0  0
    1.4000   12.7140   -4.1420 C   0  0  0  0  0  0  0  0  0  0  0  0
    1.3700   12.2250   -2.6590 C   0  0  2  0  0  0  0  0  0  0  0  0
    0.6460   11.1140   -2.6180 O   0  0  0  0  0  0  0  0  0  0  0  0
    0.7940   13.1640   -1.7700 O   0  0  0  0  0  0  0  0  0  0  0  0
    1.3370   14.4730   -1.8740 C   0  0  0  0  0  0  0  0  0  0  0  0
    0.2810   15.3320   -2.3260 O   0  0  0  0  0  0  0  0  0  0  0  0
   -0.9850   14.6730   -2.1550 C   0  0  2  0  0  0  0  0  0  0  0  0
   -1.9410   15.3070   -2.8210 O   0  0  0  0  0  0  0  0  0  0  0  0
   -1.3880   14.7040   -0.6560 C   0  0  2  0  0  0  0  0  0  0  0  0
   -2.8600   14.9670   -0.2730 C   0  0  1  0  0  0  0  0  0  0  0  0
   -0.3590   15.2040    0.3600 C   0  0  0  0  0  0  0  0  0  0  0  0
   -3.8350   14.4760   -1.2590 N   0  0  0  0  0  0  0  0  0  0  0  0
   -0.5070   14.2410    1.4970 C   0  0  0  0  0  0  0  0  0  0  0  0
   -3.0620   14.3010    1.0760 C   0  0  0  0  0  0  0  0  0  0  0  0
   -1.9030   14.2210    1.9910 N   0  0  0  0  0  0  0  0  0  0  0  0
  2  1  1  6
  2  3  1  0
  2  4  1  0
  3  5  1  1
  3  6  1  0
  4  7  1  0
  6  8  1  0
  7  8  1  0
  8  9  1  1
  9 10  1  0
 10 11  1  6
 10 12  1  0
 12 13  1  0
 13 14  1  0
 14 15  1  0
 15 16  1  6
 15 17  1  0
 17 18  1  0
 17 19  1  1
 18 20  1  6
 19 21  1  0
 18 22  1  0
 21 23  1  0
 22 23  1  0
M  CHG  2  11  -1  16  -1
M  END
