ucsf135-ucsf264
     RDKit          3D

 18 19  0  0  0  0  0  0  0  0999 V2000
    1.8530   11.9250   -6.9840 O   0  0  0  0  0  0  0  0  0  0  0  0
    0.4870   11.8710   -6.7330 C   0  0  2  0  0  0  0  0  0  0  0  0
    0.2640   12.2000   -5.3470 N   0  0  0  0  0  0  0  0  0  0  0  0
   -0.2570   10.5610   -7.2130 C   0  0  1  0  0  0  0  0  0  0  0  0
    0.6390    9.9610   -8.3330 C   0  0  0  0  0  0  0  0  0  0  0  0
   -0.6430   11.0180   -4.6640 S   0  0  2  0  0  0  0  0  0  0  0  0
   -0.6660    9.7140   -5.9150 C   0  0  1  0  0  0  0  0  0  0  0  0
   -1.5580   10.8320   -7.9800 C   0  0  0  0  0  0  0  0  0  0  0  0
   -2.1580   11.4380   -4.3840 O   0  0  0  0  0  0  0  0  0  0  0  0
    0.0010   10.4600   -3.3200 O   0  0  0  0  0  0  0  0  0  0  0  0
    1.4260    8.9220   -7.9620 F   0  0  0  0  0  0  0  0  0  0  0  0
   -0.0870    9.5330   -9.3960 F   0  0  0  0  0  0  0  0  0  0  0  0
    1.4340   10.8600   -8.9160 F   0  0  0  0  0  0  0  0  0  0  0  0
   -2.0170    8.9990   -5.9620 C   0  0  0  0  0  0  0  0  0  0  0  0
   -2.2640    9.5370   -8.4210 C   0  0  0  0  0  0  0  0  0  0  0  0
    0.4520   11.4360   -2.3500 C   0  0  0  0  0  0  0  0  0  0  0  0
   -2.3570    8.4610   -7.3390 C   0  0  0  0  0  0  0  0  0  0  0  0
    1.3480   12.2580   -2.8740 O   0  0  0  0  0  0  0  0  0  0  0  0
  2  1  1  1
  2  3  1  0
  2  4  1  0
  4  5  1  6
  3  6  1  0
  4  7  1  0
  6  7  1  0
  4  8  1  0
  6  9  1  1
  6 10  1  0
  5 11  1  0
  5 12  1  0
  5 13  1  0
  7 14  1  6
  8 15  1  0
 10 16  1  0
 14 17  1  0
 15 17  1  0
 16 18  1  0
M  CHG  1  18  -1
M  END
