ucsf422-ucsf173
     RDKit          3D

 14 15  0  0  0  0  0  0  0  0999 V2000
    0.4720   10.5670   -2.4240 O   0  0  0  0  0  0  0  0  0  0  0  0
    0.0140   11.8000   -2.5920 C   0  0  1  0  0  0  0  0  0  0  0  0
    0.5130   12.4090   -1.4160 O   0  0  0  0  0  0  0  0  0  0  0  0
    0.6640   12.5300   -3.7950 C   0  0  0  0  0  0  0  0  0  0  0  0
    0.7700   14.0840   -3.6950 C   0  0  1  0  0  0  0  0  0  0  0  0
    1.7080   14.5450   -4.7840 C   0  0  0  0  0  0  0  0  0  0  0  0
   -0.3870   15.0350   -4.0290 C   0  0  1  0  0  0  0  0  0  0  0  0
    1.6670   16.0190   -4.7220 N   0  0  0  0  0  0  0  0  0  0  0  0
    0.2920   16.3750   -4.3430 C   0  0  1  0  0  0  0  0  0  0  0  0
   -1.5310   14.6620   -4.9350 C   0  0  0  0  0  0  0  0  0  0  0  0
   -0.4100   17.2570   -5.3810 C   0  0  0  0  0  0  0  0  0  0  0  0
   -2.5440   15.7970   -4.9740 C   0  0  2  0  0  0  0  0  0  0  0  0
   -4.0430   15.2350   -6.1080 Br  0  0  0  0  0  0  0  0  0  0  0  0
   -1.9480   17.1200   -5.4780 C   0  0  0  0  0  0  0  0  0  0  0  0
  2  1  1  1
  2  3  1  0
  2  4  1  0
  5  4  1  6
  5  6  1  0
  5  7  1  0
  6  8  1  0
  7  9  1  0
  8  9  1  0
  7 10  1  6
  9 11  1  6
 10 12  1  0
 12 13  1  6
 11 14  1  0
 12 14  1  0
M  CHG  1   1  -1
M  END
