ucsf519-ucsf243
     RDKit          3D

 17 18  0  0  0  0  0  0  0  0999 V2000
   -0.2130   16.1100   -4.3170 C   0  0  0  0  0  0  0  0  0  0  0  0
   -0.6320   14.7710   -3.6590 C   0  0  2  0  0  0  0  0  0  0  0  0
   -0.2780   13.4270   -4.9150 S   0  0  0  0  0  0  0  0  0  0  0  0
   -2.1680   14.7090   -3.3540 C   0  0  2  0  0  0  0  0  0  0  0  0
    0.0480   14.5410   -2.2980 C   0  0  0  0  0  0  0  0  0  0  0  0
    0.7870   12.2200   -3.9770 C   0  0  0  0  0  0  0  0  0  0  0  0
   -2.9310   15.1000   -4.5010 O   0  0  0  0  0  0  0  0  0  0  0  0
   -0.3670   15.4690   -1.2990 O   0  0  0  0  0  0  0  0  0  0  0  0
   -2.6190   15.5320   -2.2320 N   0  0  0  0  0  0  0  0  0  0  0  0
    0.2170   11.5850   -2.6570 C   0  0  2  0  0  0  0  0  0  0  0  0
   -3.9310   15.1050   -1.6950 C   0  0  0  0  0  0  0  0  0  0  0  0
   -1.7510   15.5300   -1.0700 C   0  0  1  0  0  0  0  0  0  0  0  0
    0.8250   12.1680   -1.5270 O   0  0  0  0  0  0  0  0  0  0  0  0
    0.5100   10.3070   -2.4840 O   0  0  0  0  0  0  0  0  0  0  0  0
   -3.6890   14.7440   -0.2220 C   0  0  1  0  0  0  0  0  0  0  0  0
   -2.2460   14.5720   -0.1200 N   0  0  0  0  0  0  0  0  0  0  0  0
   -4.1530   15.8200    0.7380 C   0  0  0  0  0  0  0  0  0  0  0  0
  2  1  1  6
  2  3  1  0
  2  4  1  0
  2  5  1  0
  3  6  1  0
  4  7  1  6
  5  8  1  0
  4  9  1  0
  6 10  1  0
  9 11  1  0
  8 12  1  0
  9 12  1  0
 10 13  1  1
 10 14  1  0
 11 15  1  0
 12 16  1  1
 15 16  1  0
 15 17  1  1
M  CHG  1  14  -1
M  END
