ucsf017-ucsf151
     RDKit          3D

 22 25  0  0  0  0  0  0  0  0999 V2000
   -0.2470   11.4340   -1.9460 O   0  0  0  0  0  0  0  0  0  0  0  0
   -1.0990   12.4320   -1.9390 C   0  0  1  0  0  0  0  0  0  0  0  0
   -0.4890   13.0280   -0.8130 O   0  0  0  0  0  0  0  0  0  0  0  0
   -1.0200   13.5310   -3.0990 C   0  0  2  0  0  0  0  0  0  0  0  0
   -2.4090   14.0990   -3.5940 C   0  0  0  0  0  0  0  0  0  0  0  0
   -0.5490   12.8300   -4.3990 C   0  0  1  0  0  0  0  0  0  0  0  0
   -0.1690   14.5550   -2.4470 N   0  0  0  0  0  0  0  0  0  0  0  0
   -0.9570   13.8300   -5.4680 C   0  0  0  0  0  0  0  0  0  0  0  0
   -2.3500   14.1770   -5.0950 N   0  0  0  0  0  0  0  0  0  0  0  0
    0.8850   12.4020   -4.3580 C   0  0  0  0  0  0  0  0  0  0  0  0
    1.2240   14.0390   -2.4190 C   0  0  0  0  0  0  0  0  0  0  0  0
   -0.7960   14.6000   -1.0880 C   0  0  1  0  0  0  0  0  0  0  0  0
   -2.6040   15.5610   -5.4960 O   0  0  0  0  0  0  0  0  0  0  0  0
    1.4720   12.6150   -2.9790 C   0  0  0  0  0  0  0  0  0  0  0  0
    0.1790   14.9450   -0.0640 N   0  0  0  0  0  0  0  0  0  0  0  0
   -2.0970   15.3330   -0.6720 C   0  0  2  0  0  0  0  0  0  0  0  0
   -0.2240   14.4800    1.2590 C   0  0  0  0  0  0  0  0  0  0  0  0
   -2.4610   14.8160    0.6790 C   0  0  1  0  0  0  0  0  0  0  0  0
   -3.4510   15.0720   -1.3480 C   0  0  0  0  0  0  0  0  0  0  0  0
   -1.4730   15.1160    1.6390 N   0  0  0  0  0  0  0  0  0  0  0  0
   -3.6720   15.5460    0.9990 N   0  0  0  0  0  0  0  0  0  0  0  0
   -4.4480   15.4540   -0.2400 C   0  0  0  0  0  0  0  0  0  0  0  0
  2  1  1  6
  2  3  1  0
  2  4  1  0
  4  5  1  6
  4  6  1  0
  4  7  1  0
  6  8  1  6
  5  9  1  0
  8  9  1  0
  6 10  1  0
  7 11  1  0
 12  7  1  6
  9 13  1  0
 10 14  1  0
 11 14  1  0
 12 15  1  0
 12 16  1  0
 15 17  1  0
 16 18  1  0
 16 19  1  6
 17 20  1  0
 18 20  1  1
 18 21  1  0
 19 22  1  0
 21 22  1  0
M  CHG  1   1  -1
M  END
