ucsf243-ucsf258
     RDKit          3D

 11 11  0  0  0  0  0  0  0  0999 V2000
   -4.0220   15.7650    0.8490 C   0  0  0  0  0  0  0  0  0  0  0  0
   -3.4970   15.0800   -0.4130 C   0  0  1  0  0  0  0  0  0  0  0  0
   -4.4190   15.2600   -1.6310 C   0  0  0  0  0  0  0  0  0  0  0  0
   -2.0470   15.4280   -0.7140 C   0  0  0  0  0  0  0  0  0  0  0  0
   -1.4690   14.7670   -1.9850 C   0  0  2  0  0  0  0  0  0  0  0  0
   -3.7080   15.4250   -2.9880 C   0  0  0  0  0  0  0  0  0  0  0  0
   -0.0060   15.0790   -2.3600 C   0  0  2  0  0  0  0  0  0  0  0  0
   -2.4480   14.6140   -3.1700 C   0  0  1  0  0  0  0  0  0  0  0  0
   -1.8820   14.9220   -4.4380 O   0  0  0  0  0  0  0  0  0  0  0  0
    0.3710   14.2390   -3.4310 O   0  0  0  0  0  0  0  0  0  0  0  0
    0.8070   14.6810   -1.4060 O   0  0  0  0  0  0  0  0  0  0  0  0
  2  1  1  1
  2  3  1  0
  2  4  1  0
  5  4  1  1
  3  6  1  0
  5  7  1  0
  5  8  1  0
  6  8  1  0
  8  9  1  6
  7 10  1  6
  7 11  1  0
M  CHG  1  11  -1
M  END
