ucsf303-ucsf213
     RDKit          3D

 30 33  0  0  0  0  0  0  0  0999 V2000
   -2.8790   13.3990   -3.1800 O   0  0  0  0  0  0  0  0  0  0  0  0
   -4.1630   14.1520   -2.5860 S   0  0  1  0  0  0  0  0  0  0  0  0
   -4.4880   15.2430   -3.6620 O   0  0  0  0  0  0  0  0  0  0  0  0
   -5.3570   13.0770   -2.3000 N   0  0  0  0  0  0  0  0  0  0  0  0
   -3.5080   14.9800   -1.1680 C   0  0  0  0  0  0  0  0  0  0  0  0
   -3.3250   15.8260   -4.1280 C   0  0  0  0  0  0  0  0  0  0  0  0
   -5.0050   11.9290   -1.5400 C   0  0  1  0  0  0  0  0  0  0  0  0
   -2.2410   14.2750   -0.6060 C   0  0  0  0  0  0  0  0  0  0  0  0
   -4.6110   15.2390   -0.1520 C   0  0  0  0  0  0  0  0  0  0  0  0
   -3.1870   16.1550   -5.5970 C   0  0  0  0  0  0  0  0  0  0  0  0
   -6.0120   10.9060   -1.6930 N   0  0  0  0  0  0  0  0  0  0  0  0
   -3.4610   11.3160   -2.2190 S   0  0  0  0  0  0  0  0  0  0  0  0
   -1.8170   14.6360    0.8190 C   0  0  0  0  0  0  0  0  0  0  0  0
   -4.3060   14.6720    1.1970 C   0  0  0  0  0  0  0  0  0  0  0  0
   -3.9980    9.6180   -2.0990 C   0  0  0  0  0  0  0  0  0  0  0  0
   -5.4170    9.5790   -1.7680 N   0  0  0  0  0  0  0  0  0  0  0  0
   -2.9740   15.1930    1.6140 C   0  0  0  0  0  0  0  0  0  0  0  0
   -1.8140   16.8060   -5.5870 C   0  0  2  0  0  0  0  0  0  0  0  0
   -0.9790   15.9230   -4.6590 C   0  0  2  0  0  0  0  0  0  0  0  0
   -1.6390   18.2410   -5.1520 C   0  0  0  0  0  0  0  0  0  0  0  0
    0.4780   16.3380   -4.6020 C   0  0  1  0  0  0  0  0  0  0  0  0
   -0.9830   14.1480   -5.0380 S   0  0  0  0  0  0  0  0  0  0  0  0
   -0.1720   18.5970   -5.2810 C   0  0  0  0  0  0  0  0  0  0  0  0
    0.4670   13.9870   -3.9730 C   0  0  2  0  0  0  0  0  0  0  0  0
    1.3140   15.0440   -4.6970 C   0  0  0  0  0  0  0  0  0  0  0  0
    0.6800   17.4190   -5.6580 C   0  0  0  0  0  0  0  0  0  0  0  0
    1.0500   12.5620   -3.8620 C   0  0  0  0  0  0  0  0  0  0  0  0
    1.0890   11.9920   -2.4070 C   0  0  2  0  0  0  0  0  0  0  0  0
    0.5210   10.7780   -2.3440 O   0  0  0  0  0  0  0  0  0  0  0  0
    0.3080   12.6830   -1.4630 O   0  0  0  0  0  0  0  0  0  0  0  0
  2  1  1  6
  2  3  1  0
  2  4  1  0
  2  5  1  0
  3  6  1  0
  7  4  1  6
  5  8  1  0
  5  9  1  0
  6 10  1  0
  7 11  1  0
  7 12  1  0
  8 13  1  0
  9 14  1  0
 12 15  1  0
 11 16  1  0
 15 16  1  0
 13 17  1  0
 14 17  1  0
 18 10  1  1
 18 19  1  0
 18 20  1  0
 19 21  1  0
 19 22  1  6
 20 23  1  0
 22 24  1  0
 21 25  1  6
 24 25  1  0
 21 26  1  0
 23 26  1  0
 24 27  1  6
 27 28  1  0
 28 29  1  6
 28 30  1  0
M  CHG  1  29  -1
M  END
