ucsf584-ucsf348
     RDKit          3D

 16 18  0  0  0  0  0  0  0  0999 V2000
   -6.0670   15.0400    2.5580 N   0  0  0  0  0  0  0  0  0  0  0  0
   -5.0950   15.0400    1.4470 C   0  0  1  0  0  0  0  0  0  0  0  0
   -4.4860   13.8410    1.2090 N   0  0  0  0  0  0  0  0  0  0  0  0
   -5.5020   15.4390    0.3070 N   0  0  0  0  0  0  0  0  0  0  0  0
   -4.3970   13.8960   -0.2970 C   0  0  1  0  0  0  0  0  0  0  0  0
   -5.9340   14.3840   -0.9700 S   0  0  0  0  0  0  0  0  0  0  0  0
   -6.3000   12.4080   -1.2120 O   0  0  0  0  0  0  0  0  0  0  0  0
   -7.5770   14.1720   -0.0790 C   0  0  0  0  0  0  0  0  0  0  0  0
   -3.1350   14.6620   -0.3820 C   0  0  0  0  0  0  0  0  0  0  0  0
   -4.8740   14.6240   -2.4070 C   0  0  0  0  0  0  0  0  0  0  0  0
   -7.3840   13.8580    1.3140 N   0  0  0  0  0  0  0  0  0  0  0  0
   -8.4690   15.2550    0.0080 N   0  0  0  0  0  0  0  0  0  0  0  0
   -2.7140   14.9340   -1.7510 N   0  0  0  0  0  0  0  0  0  0  0  0
   -3.8270   15.6580   -2.3340 C   0  0  0  0  0  0  0  0  0  0  0  0
   -9.1940   15.2300    1.1970 C   0  0  0  0  0  0  0  0  0  0  0  0
   -8.3670   14.4320    2.1390 C   0  0  0  0  0  0  0  0  0  0  0  0
  2  1  1  1
  2  3  1  0
  2  4  1  0
  3  5  1  0
  4  6  1  0
  5  6  1  0
  6  7  1  0
  6  8  1  0
  5  9  1  1
  6 10  1  0
  8 11  1  0
  8 12  1  0
  9 13  1  0
 10 14  1  0
 13 14  1  0
 12 15  1  0
 11 16  1  0
 15 16  1  0
M  END
