ucsf365-ucsf424
     RDKit          3D

 20 22  0  0  0  0  0  0  0  0999 V2000
    0.6530   11.4500   -2.4400 O   0  0  0  0  0  0  0  0  0  0  0  0
    0.8700   12.5060   -3.2080 C   0  0  1  0  0  0  0  0  0  0  0  0
    2.2400   12.4320   -3.4490 O   0  0  0  0  0  0  0  0  0  0  0  0
   -0.0650   12.3840   -4.4780 C   0  0  1  0  0  0  0  0  0  0  0  0
   -0.8570   13.6350   -4.9700 C   0  0  1  0  0  0  0  0  0  0  0  0
    0.1720   11.7970   -5.9420 C   0  0  1  0  0  0  0  0  0  0  0  0
   -2.0700   13.0220   -5.6940 C   0  0  1  0  0  0  0  0  0  0  0  0
   -1.2400   14.8240   -4.0830 C   0  0  0  0  0  0  0  0  0  0  0  0
    1.4340   11.5350   -6.6590 N   0  0  0  0  0  0  0  0  0  0  0  0
   -0.6870   10.5790   -6.2570 C   0  0  1  0  0  0  0  0  0  0  0  0
   -2.2780   11.6680   -5.3300 O   0  0  0  0  0  0  0  0  0  0  0  0
   -3.3640   13.7400   -5.3780 C   0  0  0  0  0  0  0  0  0  0  0  0
   -2.0910   15.8500   -4.8580 C   0  0  0  0  0  0  0  0  0  0  0  0
    1.0960   10.5410   -7.7090 O   0  0  0  0  0  0  0  0  0  0  0  0
    0.0740    9.7110   -7.1730 C   0  0  2  0  0  0  0  0  0  0  0  0
   -1.3370    9.6470   -5.2710 C   0  0  0  0  0  0  0  0  0  0  0  0
   -3.2580   15.2330   -5.6160 C   0  0  0  0  0  0  0  0  0  0  0  0
   -0.9560    9.1410   -8.1370 C   0  0  0  0  0  0  0  0  0  0  0  0
   -2.4840    8.9290   -5.9880 C   0  0  0  0  0  0  0  0  0  0  0  0
   -2.1290    8.4230   -7.4030 C   0  0  0  0  0  0  0  0  0  0  0  0
  2  1  1  1
  2  3  1  0
  4  2  1  6
  4  5  1  0
  4  6  1  0
  5  7  1  0
  5  8  1  1
  6  9  1  1
  6 10  1  0
  7 11  1  1
  7 12  1  0
  8 13  1  0
  9 14  1  0
 10 15  1  0
 14 15  1  0
 10 16  1  1
 12 17  1  0
 13 17  1  0
 15 18  1  6
 16 19  1  0
 18 20  1  0
 19 20  1  0
M  CHG  1   1  -1
M  END
