ucsf124-ucsf243
     RDKit          3D

 24 26  0  0  0  0  0  0  0  0999 V2000
    0.7140   10.9620   -2.1020 O   0  0  0  0  0  0  0  0  0  0  0  0
    0.1330   12.0190   -2.6790 C   0  0  1  0  0  0  0  0  0  0  0  0
    0.3490   13.2120   -1.8800 O   0  0  0  0  0  0  0  0  0  0  0  0
    0.7040   12.2760   -4.1390 C   0  0  0  0  0  0  0  0  0  0  0  0
    0.0020   14.4370   -2.5590 C   0  0  0  0  0  0  0  0  0  0  0  0
    0.0220   11.6950   -5.3100 N   0  0  0  0  0  0  0  0  0  0  0  0
   -1.0230   10.7160   -5.0630 C   0  0  1  0  0  0  0  0  0  0  0  0
    0.7360   11.3640   -6.5400 C   0  0  2  0  0  0  0  0  0  0  0  0
   -1.2810   15.1550   -2.0360 C   0  0  2  0  0  0  0  0  0  0  0  0
   -2.1660   11.2330   -4.4230 O   0  0  0  0  0  0  0  0  0  0  0  0
    0.5070   12.4120   -7.4090 O   0  0  0  0  0  0  0  0  0  0  0  0
   -1.3940   10.3670   -6.5010 C   0  0  1  0  0  0  0  0  0  0  0  0
    0.0010   10.1040   -7.0510 C   0  0  1  0  0  0  0  0  0  0  0  0
   -1.9270   14.6590   -0.7290 C   0  0  0  0  0  0  0  0  0  0  0  0
   -2.3280   15.3500   -3.1650 C   0  0  1  0  0  0  0  0  0  0  0  0
   -1.9140   14.7120   -4.3730 O   0  0  0  0  0  0  0  0  0  0  0  0
   -2.3560    9.2000   -6.7310 C   0  0  0  0  0  0  0  0  0  0  0  0
   -0.0210    9.7570   -8.5350 C   0  0  0  0  0  0  0  0  0  0  0  0
   -3.1910   15.4680   -0.4150 C   0  0  2  0  0  0  0  0  0  0  0  0
   -3.7220   14.8060   -2.8370 C   0  0  0  0  0  0  0  0  0  0  0  0
   -3.7270   15.3200    1.0130 C   0  0  0  0  0  0  0  0  0  0  0  0
   -1.7570    8.0960   -7.6180 C   0  0  0  0  0  0  0  0  0  0  0  0
   -1.0180    8.6250   -8.8450 C   0  0  0  0  0  0  0  0  0  0  0  0
   -4.2710   15.2500   -1.4790 C   0  0  0  0  0  0  0  0  0  0  0  0
  2  1  1  1
  2  3  1  0
  2  4  1  0
  3  5  1  0
  4  6  1  0
  6  7  1  0
  6  8  1  0
  9  5  1  6
  7 10  1  6
  8 11  1  6
  7 12  1  0
  8 13  1  0
 12 13  1  0
  9 14  1  0
  9 15  1  0
 15 16  1  6
 12 17  1  1
 13 18  1  6
 14 19  1  0
 15 20  1  0
 19 21  1  1
 17 22  1  0
 18 23  1  0
 22 23  1  0
 19 24  1  0
 20 24  1  0
M  CHG  1   1  -1
M  END
