ucsf169-ucsf151
     RDKit          3D

 14 14  0  0  0  0  0  0  0  0999 V2000
    1.1850   18.2630   -5.7140 C   0  0  0  0  0  0  0  0  0  0  0  0
   -0.1600   17.8560   -5.6250 O   0  0  0  0  0  0  0  0  0  0  0  0
   -0.3350   16.8060   -4.6570 C   0  0  1  0  0  0  0  0  0  0  0  0
   -1.8600   16.5260   -4.5720 C   0  0  1  0  0  0  0  0  0  0  0  0
    0.4970   15.5630   -4.9300 C   0  0  0  0  0  0  0  0  0  0  0  0
   -2.4850   17.7740   -4.8420 O   0  0  0  0  0  0  0  0  0  0  0  0
   -2.4410   15.3840   -5.3690 C   0  0  0  0  0  0  0  0  0  0  0  0
   -0.2750   14.3520   -4.4410 C   0  0  2  0  0  0  0  0  0  0  0  0
    0.5640   13.0880   -4.1970 C   0  0  0  0  0  0  0  0  0  0  0  0
   -1.5570   14.1310   -5.2690 C   0  0  0  0  0  0  0  0  0  0  0  0
    0.8010   12.7260   -2.7410 C   0  0  0  0  0  0  0  0  0  0  0  0
    2.1250   12.6440   -2.3840 O   0  0  0  0  0  0  0  0  0  0  0  0
    0.2880   11.5910   -2.3510 O   0  0  0  0  0  0  0  0  0  0  0  0
    0.2190   13.7170   -1.9410 O   0  0  0  0  0  0  0  0  0  0  0  0
  1  2  1  0
  3  2  1  6
  3  4  1  0
  3  5  1  0
  4  6  1  6
  4  7  1  0
  5  8  1  0
  8  9  1  6
  7 10  1  0
  8 10  1  0
  9 11  1  0
 11 12  1  0
 11 13  1  0
 11 14  1  0
M  CHG  1  13  -1
M  END
