ucsf365-ucsf013
     RDKit          3D

 23 25  0  0  0  0  0  0  0  0999 V2000
    0.4160   11.1270   -2.5780 O   0  0  0  0  0  0  0  0  0  0  0  0
    0.5330   12.4180   -2.8110 C   0  0  1  0  0  0  0  0  0  0  0  0
    1.5990   12.8520   -1.9770 O   0  0  0  0  0  0  0  0  0  0  0  0
    0.9740   12.6940   -4.2790 C   0  0  0  0  0  0  0  0  0  0  0  0
   -0.1040   13.2850   -5.2260 C   0  0  1  0  0  0  0  0  0  0  0  0
   -1.3690   12.3840   -5.1360 C   0  0  2  0  0  0  0  0  0  0  0  0
   -0.3560   14.8010   -4.9630 C   0  0  0  0  0  0  0  0  0  0  0  0
   -1.1910   11.1330   -5.8040 O   0  0  0  0  0  0  0  0  0  0  0  0
   -2.6250   13.0480   -5.6670 C   0  0  0  0  0  0  0  0  0  0  0  0
   -1.8110   15.2960   -4.9660 C   0  0  0  0  0  0  0  0  0  0  0  0
   -2.8080   14.1830   -4.6990 C   0  0  1  0  0  0  0  0  0  0  0  0
   -4.2280   14.6560   -4.4660 C   0  0  0  0  0  0  0  0  0  0  0  0
   -4.3530   15.1410   -3.0120 C   0  0  1  0  0  0  0  0  0  0  0  0
   -5.7180   14.7510   -2.4330 C   0  0  0  0  0  0  0  0  0  0  0  0
   -3.1930   14.6240   -2.1660 C   0  0  0  0  0  0  0  0  0  0  0  0
   -5.9470   15.3690   -1.0570 C   0  0  2  0  0  0  0  0  0  0  0  0
   -3.4950   14.5910   -0.6870 C   0  0  0  0  0  0  0  0  0  0  0  0
   -4.6690   15.4320   -0.2040 C   0  0  2  0  0  0  0  0  0  0  0  0
   -7.1110   14.7180   -0.4250 N   0  0  0  0  0  0  0  0  0  0  0  0
   -4.8680   15.2400    1.2860 C   0  0  2  0  0  0  0  0  0  0  0  0
   -6.8340   13.9400    0.7580 C   0  0  0  0  0  0  0  0  0  0  0  0
   -3.9940   14.2450    1.8060 N   0  0  0  0  0  0  0  0  0  0  0  0
   -6.1780   14.8010    1.7120 N   0  0  0  0  0  0  0  0  0  0  0  0
  2  1  1  6
  2  3  1  0
  2  4  1  0
  5  4  1  1
  5  6  1  0
  5  7  1  0
  6  8  1  6
  6  9  1  0
  7 10  1  0
  9 11  1  0
 10 11  1  0
 11 12  1  6
 13 12  1  6
 13 14  1  0
 13 15  1  0
 16 14  1  6
 15 17  1  0
 16 18  1  0
 18 17  1  6
 16 19  1  0
 18 20  1  0
 19 21  1  0
 20 22  1  6
 20 23  1  0
 21 23  1  0
M  CHG  1   1  -1
M  END
