ucsf378-ucsf516
     RDKit          3D

 30 34  0  0  0  0  0  0  0  0999 V2000
   -2.0800   12.5680   -5.0060 Cl  0  0  0  0  0  0  0  0  0  0  0  0
   -0.4150   13.1720   -5.2960 C   0  0  2  0  0  0  0  0  0  0  0  0
    0.7740   12.3290   -4.7130 C   0  0  2  0  0  0  0  0  0  0  0  0
   -0.4100   14.6750   -4.9520 C   0  0  0  0  0  0  0  0  0  0  0  0
    0.8410   11.8160   -3.2090 C   0  0  2  0  0  0  0  0  0  0  0  0
    2.0640   13.0490   -5.0920 C   0  0  2  0  0  0  0  0  0  0  0  0
    0.9500   15.3540   -5.0100 C   0  0  0  0  0  0  0  0  0  0  0  0
    3.5040   12.1560   -4.5000 Cl  0  0  0  0  0  0  0  0  0  0  0  0
   -0.4830   11.4260   -2.4800 C   0  0  2  0  0  0  0  0  0  0  0  0
    2.0070   14.4430   -4.4320 C   0  0  0  0  0  0  0  0  0  0  0  0
    1.5020   12.9400   -2.3640 C   0  0  1  0  0  0  0  0  0  0  0  0
   -0.4780   11.8090   -1.2240 O   0  0  0  0  0  0  0  0  0  0  0  0
   -0.4510   10.0470   -2.2920 O   0  0  0  0  0  0  0  0  0  0  0  0
    1.6780   14.3570   -3.0060 C   0  0  0  0  0  0  0  0  0  0  0  0
    0.7580   13.7280   -1.2430 C   0  0  0  0  0  0  0  0  0  0  0  0
    0.3890   14.8190   -2.2870 C   0  0  2  0  0  0  0  0  0  0  0  0
   -1.0160   14.8590   -2.9330 C   0  0  2  0  0  0  0  0  0  0  0  0
   -1.1290   15.6240   -4.2600 C   0  0  0  0  0  0  0  0  0  0  0  0
   -1.9770   15.6790   -2.2310 N   0  0  0  0  0  0  0  0  0  0  0  0
   -3.1680   15.4550   -3.0550 C   0  0  0  0  0  0  0  0  0  0  0  0
   -2.6440   15.6650   -4.4740 C   0  0  0  0  0  0  0  0  0  0  0  0
   -2.1640   15.5000   -0.8010 C   0  0  2  0  0  0  0  0  0  0  0  0
   -0.8100   15.2820   -0.2770 N   0  0  0  0  0  0  0  0  0  0  0  0
   -3.0490   14.3430   -0.3610 C   0  0  1  0  0  0  0  0  0  0  0  0
   -0.8080   14.6100    0.9870 C   0  0  0  0  0  0  0  0  0  0  0  0
   -3.1260   14.4020    1.1600 C   0  0  1  0  0  0  0  0  0  0  0  0
   -4.5200   14.3120   -0.7600 C   0  0  0  0  0  0  0  0  0  0  0  0
   -1.9790   15.0580    1.6900 N   0  0  0  0  0  0  0  0  0  0  0  0
   -4.3040   15.1710    1.4720 N   0  0  0  0  0  0  0  0  0  0  0  0
   -5.2750   14.5830    0.5440 C   0  0  0  0  0  0  0  0  0  0  0  0
  2  1  1  1
  3  2  1  1
  2  4  1  0
  3  5  1  0
  3  6  1  0
  4  7  1  0
  6  8  1  1
  5  9  1  1
  6 10  1  0
  7 10  1  0
  5 11  1  0
  9 12  1  1
  9 13  1  0
 11 14  1  6
 11 15  1  0
 16 14  1  6
 15 16  1  0
 16 17  1  0
 17 18  1  6
 17 19  1  0
 19 20  1  0
 18 21  1  0
 20 21  1  0
 22 19  1  6
 22 23  1  0
 22 24  1  0
 23 25  1  0
 24 26  1  0
 24 27  1  6
 25 28  1  0
 26 28  1  6
 26 29  1  0
 27 30  1  0
 29 30  1  0
M  CHG  1  12  -1
M  END
