ucsf114-ucsf260
     RDKit          3D

 29 33  0  0  0  0  0  0  0  0999 V2000
    0.7070   18.0080   -4.4370 C   0  0  0  0  0  0  0  0  0  0  0  0
   -0.3400   17.3780   -5.3500 C   0  0  0  0  0  0  0  0  0  0  0  0
   -1.6140   18.2130   -5.3770 C   0  0  0  0  0  0  0  0  0  0  0  0
   -0.7030   16.0700   -4.8790 O   0  0  0  0  0  0  0  0  0  0  0  0
    0.3310   15.0660   -5.0410 C   0  0  0  0  0  0  0  0  0  0  0  0
    0.1260   13.6620   -4.2440 C   0  0  1  0  0  0  0  0  0  0  0  0
    1.5610   13.0510   -4.3400 C   0  0  0  0  0  0  0  0  0  0  0  0
   -0.1890   14.0710   -2.7880 N   0  0  0  0  0  0  0  0  0  0  0  0
   -0.8850   12.6720   -4.9260 N   0  0  0  0  0  0  0  0  0  0  0  0
    2.1210   12.5560   -3.0120 C   0  0  2  0  0  0  0  0  0  0  0  0
   -1.5670   14.1880   -2.2380 C   0  0  1  0  0  0  0  0  0  0  0  0
    0.8600   14.5910   -1.9040 C   0  0  2  0  0  0  0  0  0  0  0  0
   -1.3190   11.5230   -4.1620 C   0  0  0  0  0  0  0  0  0  0  0  0
   -0.7910   12.0640   -6.3330 C   0  0  2  0  0  0  0  0  0  0  0  0
    2.5570   14.0540   -2.1420 S   0  0  0  0  0  0  0  0  0  0  0  0
    3.2070   11.9080   -3.2360 O   0  0  0  0  0  0  0  0  0  0  0  0
   -1.7190   14.3010   -0.6700 C   0  0  1  0  0  0  0  0  0  0  0  0
    0.6180   14.1690   -0.5490 N   0  0  0  0  0  0  0  0  0  0  0  0
   -2.4820   15.3130   -2.7150 C   0  0  0  0  0  0  0  0  0  0  0  0
   -2.4060   10.9580   -4.9810 N   0  0  0  0  0  0  0  0  0  0  0  0
   -1.7480   10.8430   -6.2890 C   0  0  2  0  0  0  0  0  0  0  0  0
    0.6140   11.5680   -6.7030 C   0  0  0  0  0  0  0  0  0  0  0  0
   -0.4570   14.8650    0.0230 C   0  0  2  0  0  0  0  0  0  0  0  0
   -2.9340   15.1120   -0.4110 N   0  0  0  0  0  0  0  0  0  0  0  0
   -3.6040   15.2850   -1.6910 C   0  0  0  0  0  0  0  0  0  0  0  0
   -1.1330    9.4680   -6.5520 C   0  0  0  0  0  0  0  0  0  0  0  0
    0.6950   10.5650   -7.8750 C   0  0  0  0  0  0  0  0  0  0  0  0
   -0.3970   14.5990    1.4190 O   0  0  0  0  0  0  0  0  0  0  0  0
   -0.2810    9.3920   -7.7980 C   0  0  0  0  0  0  0  0  0  0  0  0
  1  2  1  0
  2  3  1  0
  2  4  1  0
  4  5  1  0
  6  5  1  6
  6  7  1  0
  6  8  1  0
  6  9  1  0
  7 10  1  0
  8 11  1  0
  8 12  1  0
  9 13  1  0
  9 14  1  0
 10 15  1  0
 12 15  1  0
 10 16  1  6
 11 17  1  0
 12 18  1  1
 11 19  1  6
 13 20  1  0
 14 21  1  0
 20 21  1  0
 14 22  1  1
 17 23  1  0
 18 23  1  0
 17 24  1  6
 19 25  1  0
 24 25  1  0
 21 26  1  1
 22 27  1  0
 23 28  1  1
 26 29  1  0
 27 29  1  0
M  CHG  1  16  -1
M  END
