ucsf124-ucsf365
     RDKit          3D

 21 24  0  0  0  0  0  0  0  0999 V2000
    0.9460   11.4510   -2.3290 O   0  0  0  0  0  0  0  0  0  0  0  0
    1.0200   12.5510   -3.0540 C   0  0  1  0  0  0  0  0  0  0  0  0
    2.3890   12.6590   -3.3170 O   0  0  0  0  0  0  0  0  0  0  0  0
    0.0900   12.4150   -4.3220 C   0  0  2  0  0  0  0  0  0  0  0  0
    0.2260   11.2060   -5.1940 N   0  0  0  0  0  0  0  0  0  0  0  0
   -0.5830   13.5810   -5.0880 C   0  0  1  0  0  0  0  0  0  0  0  0
   -1.1010   10.6620   -5.2890 C   0  0  1  0  0  0  0  0  0  0  0  0
    0.7390   11.3900   -6.5460 C   0  0  2  0  0  0  0  0  0  0  0  0
   -1.8230   12.8640   -5.6820 C   0  0  1  0  0  0  0  0  0  0  0  0
   -0.9700   14.8280   -4.2770 C   0  0  0  0  0  0  0  0  0  0  0  0
   -2.0730   11.6230   -5.0210 O   0  0  0  0  0  0  0  0  0  0  0  0
    0.5840   12.7390   -6.8190 O   0  0  0  0  0  0  0  0  0  0  0  0
   -1.3550   10.1610   -6.6790 C   0  0  1  0  0  0  0  0  0  0  0  0
   -0.1500   10.5630   -7.5090 C   0  0  2  0  0  0  0  0  0  0  0  0
   -3.1550   13.5820   -5.5320 C   0  0  0  0  0  0  0  0  0  0  0  0
   -1.9270   15.7770   -5.0120 C   0  0  0  0  0  0  0  0  0  0  0  0
   -1.7860    8.7090   -6.7560 C   0  0  0  0  0  0  0  0  0  0  0  0
    0.5070    9.3410   -8.1700 C   0  0  0  0  0  0  0  0  0  0  0  0
   -3.0960   15.0860   -5.7150 C   0  0  0  0  0  0  0  0  0  0  0  0
   -1.7540    8.1280   -8.1580 C   0  0  0  0  0  0  0  0  0  0  0  0
   -0.5050    8.5060   -8.9610 C   0  0  0  0  0  0  0  0  0  0  0  0
  2  1  1  1
  2  3  1  0
  2  4  1  0
  4  5  1  6
  4  6  1  0
  5  7  1  0
  5  8  1  0
  6  9  1  0
  6 10  1  1
  7 11  1  6
  9 11  1  0
  8 12  1  6
  7 13  1  0
  8 14  1  0
 13 14  1  0
  9 15  1  1
 10 16  1  0
 13 17  1  1
 14 18  1  1
 15 19  1  0
 16 19  1  0
 17 20  1  0
 18 21  1  0
 20 21  1  0
M  CHG  1   1  -1
M  END
