ucsf123-ucsf147
     RDKit          3D

 20 21  0  0  0  0  0  0  0  0999 V2000
   -1.8130   18.5430   -4.7880 N   0  0  0  0  0  0  0  0  0  0  0  0
   -1.5360   17.2490   -5.7230 S   0  0  0  0  0  0  0  0  0  0  0  0
   -0.3700   17.6850   -6.7100 O   0  0  0  0  0  0  0  0  0  0  0  0
   -2.7770   16.9500   -6.6750 O   0  0  0  0  0  0  0  0  0  0  0  0
   -0.9960   15.6680   -5.0560 C   0  0  1  0  0  0  0  0  0  0  0  0
    0.3210   15.7850   -4.3630 C   0  0  0  0  0  0  0  0  0  0  0  0
   -2.0580   14.7580   -4.3560 C   0  0  0  0  0  0  0  0  0  0  0  0
    0.5150   14.3790   -3.8830 C   0  0  1  0  0  0  0  0  0  0  0  0
   -1.8390   14.4480   -2.8270 C   0  0  0  0  0  0  0  0  0  0  0  0
    1.9460   13.8300   -3.9910 C   0  0  0  0  0  0  0  0  0  0  0  0
   -0.2600   14.2070   -2.5530 C   0  0  1  0  0  0  0  0  0  0  0  0
   -2.6780   13.3150   -2.1460 C   0  0  0  0  0  0  0  0  0  0  0  0
   -2.5130   15.6970   -2.1550 C   0  0  0  0  0  0  0  0  0  0  0  0
    0.3210   12.9760   -1.7880 C   0  0  0  0  0  0  0  0  0  0  0  0
   -3.1430   13.6110   -0.6920 C   0  0  0  0  0  0  0  0  0  0  0  0
   -4.0160   15.5640   -1.7900 C   0  0  0  0  0  0  0  0  0  0  0  0
    1.6600   12.7290   -2.0220 O   0  0  0  0  0  0  0  0  0  0  0  0
   -0.2840   11.7250   -1.7890 O   0  0  0  0  0  0  0  0  0  0  0  0
    0.3140   13.2660   -0.4490 O   0  0  0  0  0  0  0  0  0  0  0  0
   -4.2100   14.6820   -0.6120 C   0  0  0  0  0  0  0  0  0  0  0  0
  1  2  1  0
  2  3  1  0
  2  4  1  0
  5  2  1  1
  5  6  1  0
  5  7  1  0
  6  8  1  0
  9  7  1  0
  8 10  1  1
  8 11  1  0
  9 11  1  0
  9 12  1  0
  9 13  1  0
 11 14  1  6
 12 15  1  0
 13 16  1  0
 14 17  1  0
 14 18  1  0
 14 19  1  0
 15 20  1  0
 16 20  1  0
M  CHG  2  18  -1  19  -1
M  END
