ucsf016-ucsf336
     RDKit          3D

 29 33  0  0  0  0  0  0  0  0999 V2000
    2.0010   12.8980   -4.6640 O   0  0  0  0  0  0  0  0  0  0  0  0
    1.0010   12.7240   -3.8220 C   0  0  2  0  0  0  0  0  0  0  0  0
    1.6210   12.5860   -2.5520 O   0  0  0  0  0  0  0  0  0  0  0  0
    0.1390   11.4640   -4.1560 C   0  0  2  0  0  0  0  0  0  0  0  0
    0.0120   13.8840   -3.8310 C   0  0  2  0  0  0  0  0  0  0  0  0
    0.3230   10.3820   -3.2630 O   0  0  0  0  0  0  0  0  0  0  0  0
    0.1350   11.1960   -5.5820 N   0  0  0  0  0  0  0  0  0  0  0  0
   -0.7330   14.2250   -5.1120 C   0  0  0  0  0  0  0  0  0  0  0  0
    0.5030   15.1760   -3.2320 C   0  0  0  0  0  0  0  0  0  0  0  0
   -2.0000   14.9280   -4.6590 C   0  0  0  0  0  0  0  0  0  0  0  0
   -0.6900   15.7710   -2.6320 N   0  0  0  0  0  0  0  0  0  0  0  0
   -0.6440   10.0520   -5.9660 C   0  0  0  0  0  0  0  0  0  0  0  0
   -3.2680   14.0990   -4.5520 C   0  0  0  0  0  0  0  0  0  0  0  0
   -3.1340   15.1080   -5.6550 C   0  0  0  0  0  0  0  0  0  0  0  0
   -1.7660   16.0400   -3.6240 C   0  0  0  0  0  0  0  0  0  0  0  0
   -1.1320   15.1000   -1.4070 C   0  0  1  0  0  0  0  0  0  0  0  0
   -0.5820    9.9200   -7.4880 C   0  0  0  0  0  0  0  0  0  0  0  0
   -2.0930   10.2200   -5.5050 C   0  0  0  0  0  0  0  0  0  0  0  0
   -0.0380   15.2800   -0.4590 N   0  0  0  0  0  0  0  0  0  0  0  0
   -2.4190   15.6110   -0.7610 C   0  0  2  0  0  0  0  0  0  0  0  0
   -1.3980    8.7220   -7.9500 C   0  0  0  0  0  0  0  0  0  0  0  0
   -2.9240    9.0190   -5.9330 C   0  0  0  0  0  0  0  0  0  0  0  0
   -0.1560   14.4880    0.7420 C   0  0  0  0  0  0  0  0  0  0  0  0
   -2.3540   15.4580    0.7370 C   0  0  2  0  0  0  0  0  0  0  0  0
   -3.6860   14.8730   -1.1040 C   0  0  0  0  0  0  0  0  0  0  0  0
   -2.8360    8.7740   -7.4370 C   0  0  0  0  0  0  0  0  0  0  0  0
   -1.5140   14.4150    1.2110 N   0  0  0  0  0  0  0  0  0  0  0  0
   -3.7180   15.3470    1.2470 N   0  0  0  0  0  0  0  0  0  0  0  0
   -4.5850   15.2500    0.0590 C   0  0  0  0  0  0  0  0  0  0  0  0
  2  1  1  6
  2  3  1  0
  2  4  1  0
  2  5  1  0
  4  6  1  1
  4  7  1  0
  5  8  1  6
  5  9  1  0
 10  8  1  0
  9 11  1  0
  7 12  1  0
 10 13  1  0
 10 14  1  0
 13 14  1  0
 10 15  1  0
 11 15  1  0
 16 11  1  6
 12 17  1  0
 12 18  1  0
 16 19  1  0
 16 20  1  0
 17 21  1  0
 18 22  1  0
 19 23  1  0
 20 24  1  0
 20 25  1  6
 21 26  1  0
 22 26  1  0
 23 27  1  0
 24 27  1  6
 24 28  1  0
 25 29  1  0
 28 29  1  0
M  CHG  1   1  -1
M  END
