ucsf404-ucsf365
     RDKit          3D

 23 25  0  0  0  0  0  0  0  0999 V2000
   -6.8490   15.0720   -2.2770 Cl  0  0  0  0  0  0  0  0  0  0  0  0
   -5.0740   15.2280   -2.0800 C   0  0  1  0  0  0  0  0  0  0  0  0
   -4.6560   15.2770   -0.6270 C   0  0  1  0  0  0  0  0  0  0  0  0
   -4.3330   14.1120   -2.7780 C   0  0  0  0  0  0  0  0  0  0  0  0
   -5.7350   15.0930    0.3130 N   0  0  0  0  0  0  0  0  0  0  0  0
   -3.6450   14.1940   -0.2840 C   0  0  2  0  0  0  0  0  0  0  0  0
   -2.8150   14.2470   -2.6330 C   0  0  1  0  0  0  0  0  0  0  0  0
   -2.2370   15.3750   -3.5340 C   0  0  0  0  0  0  0  0  0  0  0  0
   -5.0640   15.3240    1.5460 C   0  0  2  0  0  0  0  0  0  0  0  0
   -3.4830   14.4370    1.4850 S   0  0  0  0  0  0  0  0  0  0  0  0
   -2.3960   14.3240   -1.1340 C   0  0  0  0  0  0  0  0  0  0  0  0
   -6.1140   14.8950    2.4240 N   0  0  0  0  0  0  0  0  0  0  0  0
   -1.8740   15.1620   -5.0200 C   0  0  2  0  0  0  0  0  0  0  0  0
   -3.0040   14.4020   -5.7540 C   0  0  0  0  0  0  0  0  0  0  0  0
   -0.5740   14.3860   -5.1530 C   0  0  0  0  0  0  0  0  0  0  0  0
   -0.7900   13.1260   -4.3380 C   0  0  2  0  0  0  0  0  0  0  0  0
   -2.6500   12.9470   -6.0860 C   0  0  0  0  0  0  0  0  0  0  0  0
    0.4450   12.2710   -3.9850 C   0  0  0  0  0  0  0  0  0  0  0  0
   -1.8750   12.2370   -4.9800 C   0  0  1  0  0  0  0  0  0  0  0  0
    0.5480   11.9190   -2.4910 C   0  0  1  0  0  0  0  0  0  0  0  0
   -1.2950   11.0440   -5.5070 O   0  0  0  0  0  0  0  0  0  0  0  0
    0.5960   10.6110   -2.2870 O   0  0  0  0  0  0  0  0  0  0  0  0
    1.7550   12.4280   -2.0060 O   0  0  0  0  0  0  0  0  0  0  0  0
  2  1  1  1
  2  3  1  0
  2  4  1  0
  3  5  1  1
  3  6  1  0
  4  7  1  0
  7  8  1  6
  5  9  1  0
  6 10  1  0
  9 10  1  0
  6 11  1  6
  7 11  1  0
  9 12  1  1
 13  8  1  1
 13 14  1  0
 13 15  1  0
 15 16  1  0
 14 17  1  0
 16 18  1  6
 16 19  1  0
 17 19  1  0
 18 20  1  0
 19 21  1  6
 20 22  1  6
 20 23  1  0
M  CHG  1  22  -1
M  END
