ucsf511-ucsf151
     RDKit          3D

 16 18  0  0  0  0  0  0  0  0999 V2000
    0.8270   13.6030   -1.2460 O   0  0  0  0  0  0  0  0  0  0  0  0
    0.0400   14.2270   -2.2300 C   0  0  0  0  0  0  0  0  0  0  0  0
    0.3600   13.7120   -3.5450 N   0  0  0  0  0  0  0  0  0  0  0  0
   -1.4530   14.0530   -1.8800 C   0  0  2  0  0  0  0  0  0  0  0  0
    0.4600   15.5580   -2.2470 O   0  0  0  0  0  0  0  0  0  0  0  0
   -2.2770   14.6620   -3.0060 C   0  0  1  0  0  0  0  0  0  0  0  0
   -0.4430   14.3340   -4.5990 C   0  0  0  0  0  0  0  0  0  0  0  0
   -2.0080   14.6280   -0.6670 O   0  0  0  0  0  0  0  0  0  0  0  0
   -1.9100   14.2420   -4.3650 N   0  0  0  0  0  0  0  0  0  0  0  0
   -3.3320   15.0460   -1.0720 C   0  0  1  0  0  0  0  0  0  0  0  0
   -3.6150   14.3510   -2.3930 C   0  0  1  0  0  0  0  0  0  0  0  0
   -2.5320   15.2570   -5.2380 O   0  0  0  0  0  0  0  0  0  0  0  0
   -4.8250   14.9490   -3.0300 C   0  0  0  0  0  0  0  0  0  0  0  0
   -4.4580   14.8390   -0.0960 C   0  0  0  0  0  0  0  0  0  0  0  0
   -6.0430   15.1230   -2.0890 C   0  0  0  0  0  0  0  0  0  0  0  0
   -5.7030   15.5320   -0.6510 C   0  0  0  0  0  0  0  0  0  0  0  0
  2  1  1  0
  2  3  1  0
  2  4  1  0
  2  5  1  0
  4  6  1  0
  3  7  1  0
  4  8  1  1
  6  9  1  6
  7  9  1  0
  8 10  1  0
  6 11  1  0
 10 11  1  0
  9 12  1  0
 11 13  1  6
 10 14  1  1
 13 15  1  0
 14 16  1  0
 15 16  1  0
M  END
