ucsf584-ucsf123
     RDKit          3D

 25 27  0  0  0  0  0  0  0  0999 V2000
   -2.0750   19.0900   -5.2700 N   0  0  0  0  0  0  0  0  0  0  0  0
   -1.5250   17.6380   -5.7820 S   0  0  0  0  0  0  0  0  0  0  0  0
   -0.3200   17.9230   -6.7820 O   0  0  0  0  0  0  0  0  0  0  0  0
   -2.6390   16.9260   -6.6710 O   0  0  0  0  0  0  0  0  0  0  0  0
   -0.8340   16.4480   -4.6470 C   0  0  2  0  0  0  0  0  0  0  0  0
    0.6670   16.1120   -4.7860 C   0  0  0  0  0  0  0  0  0  0  0  0
   -1.6180   15.2040   -4.3760 C   0  0  0  0  0  0  0  0  0  0  0  0
    1.2360   14.8540   -4.0440 C   0  0  0  0  0  0  0  0  0  0  0  0
   -1.0000   14.6430   -3.1180 C   0  0  1  0  0  0  0  0  0  0  0  0
   -1.9780   14.1560   -2.0750 C   0  0  0  0  0  0  0  0  0  0  0  0
    0.2390   13.7990   -3.4770 C   0  0  2  0  0  0  0  0  0  0  0  0
    0.8110   12.7260   -2.4580 C   0  0  1  0  0  0  0  0  0  0  0  0
   -2.9630   15.1820   -1.7180 N   0  0  0  0  0  0  0  0  0  0  0  0
    0.4590   13.0170   -1.1210 O   0  0  0  0  0  0  0  0  0  0  0  0
    0.3060   11.5190   -2.5810 O   0  0  0  0  0  0  0  0  0  0  0  0
   -3.0840   15.3020   -0.2550 C   0  0  0  0  0  0  0  0  0  0  0  0
   -4.1860   15.0270   -2.5580 C   0  0  0  0  0  0  0  0  0  0  0  0
   -4.3610   14.6660    0.2750 C   0  0  0  0  0  0  0  0  0  0  0  0
   -5.5080   14.6540   -1.8830 C   0  0  0  0  0  0  0  0  0  0  0  0
   -5.5940   15.1900   -0.4700 C   0  0  0  0  0  0  0  0  0  0  0  0
   -6.9300   14.8860    0.2420 C   0  0  0  0  0  0  0  0  0  0  0  0
   -6.7730   14.7090    1.6770 N   0  0  0  0  0  0  0  0  0  0  0  0
   -7.6370   13.6910   -0.1280 N   0  0  0  0  0  0  0  0  0  0  0  0
   -8.6900   13.6660    0.8950 C   0  0  0  0  0  0  0  0  0  0  0  0
   -8.1220   14.3920    2.1110 C   0  0  0  0  0  0  0  0  0  0  0  0
  1  2  1  0
  2  3  1  0
  2  4  1  0
  5  2  1  6
  5  6  1  0
  5  7  1  0
  6  8  1  0
  7  9  1  0
  9 10  1  6
 11  8  1  1
  9 11  1  0
 11 12  1  0
 10 13  1  0
 12 14  1  1
 12 15  1  0
 13 16  1  0
 13 17  1  0
 16 18  1  0
 17 19  1  0
 18 20  1  0
 19 20  1  0
 20 21  1  0
 21 22  1  0
 21 23  1  0
 23 24  1  0
 22 25  1  0
 24 25  1  0
M  CHG  1  15  -1
M  END
