ucsf364-ucsf169
     RDKit          3D

 21 22  0  0  0  0  0  0  0  0999 V2000
    1.4090   13.7280   -4.6730 C   0  0  0  0  0  0  0  0  0  0  0  0
    0.8640   12.3340   -4.7080 C   0  0  2  0  0  0  0  0  0  0  0  0
    0.5360   12.0150   -6.1790 C   0  0  1  0  0  0  0  0  0  0  0  0
    0.3210   14.7590   -5.0030 C   0  0  1  0  0  0  0  0  0  0  0  0
   -0.3050   12.2260   -3.7080 C   0  0  2  0  0  0  0  0  0  0  0  0
   -1.1660   14.4120   -4.7330 C   0  0  0  0  0  0  0  0  0  0  0  0
    0.6950   16.0790   -4.3720 C   0  0  0  0  0  0  0  0  0  0  0  0
    1.7130   11.7150   -6.9260 O   0  0  0  0  0  0  0  0  0  0  0  0
    0.1390   12.2750   -2.2420 C   0  0  0  0  0  0  0  0  0  0  0  0
   -1.2860   11.0750   -3.9930 C   0  0  0  0  0  0  0  0  0  0  0  0
   -0.4780   10.9070   -6.4050 C   0  0  0  0  0  0  0  0  0  0  0  0
   -0.2050   17.1180   -4.9630 C   0  0  2  0  0  0  0  0  0  0  0  0
   -2.1540   15.6040   -4.8420 C   0  0  0  0  0  0  0  0  0  0  0  0
   -0.6000   13.2140   -1.5180 O   0  0  0  0  0  0  0  0  0  0  0  0
    1.4740   12.6370   -2.0950 O   0  0  0  0  0  0  0  0  0  0  0  0
   -0.0740   11.0790   -1.5460 O   0  0  0  0  0  0  0  0  0  0  0  0
    0.2020   18.4540   -4.8280 O   0  0  0  0  0  0  0  0  0  0  0  0
   -0.8850   10.1680   -5.1430 C   0  0  0  0  0  0  0  0  0  0  0  0
   -1.5740   16.9320   -4.3650 C   0  0  2  0  0  0  0  0  0  0  0  0
    1.2850   18.6580   -5.7030 C   0  0  0  0  0  0  0  0  0  0  0  0
   -2.3770   18.0320   -4.7590 O   0  0  0  0  0  0  0  0  0  0  0  0
  2  1  1  6
  2  3  1  0
  4  1  1  1
  2  5  1  0
  4  6  1  0
  4  7  1  0
  3  8  1  6
  5  9  1  1
  5 10  1  0
  3 11  1  0
  7 12  1  0
  6 13  1  0
  9 14  1  0
  9 15  1  0
  9 16  1  0
 12 17  1  1
 10 18  1  0
 11 18  1  0
 12 19  1  0
 13 19  1  0
 17 20  1  0
 19 21  1  6
M  CHG  2  15  -1  16  -1
M  END
