ucsf169-ucsf340
     RDKit          3D

 18 19  0  0  0  0  0  0  0  0999 V2000
    0.9870   18.0350   -5.1290 C   0  0  0  0  0  0  0  0  0  0  0  0
    0.5990   17.7520   -3.7840 O   0  0  0  0  0  0  0  0  0  0  0  0
   -0.2210   16.5730   -3.5320 C   0  0  1  0  0  0  0  0  0  0  0  0
   -1.4190   16.5550   -4.4930 C   0  0  2  0  0  0  0  0  0  0  0  0
    0.5810   15.2170   -3.4700 C   0  0  2  0  0  0  0  0  0  0  0  0
   -2.4670   17.3230   -3.8860 O   0  0  0  0  0  0  0  0  0  0  0  0
    1.8630   15.2630   -4.2370 C   0  0  0  0  0  0  0  0  0  0  0  0
   -2.0110   15.1360   -4.8110 C   0  0  2  0  0  0  0  0  0  0  0  0
   -0.2140   13.9090   -3.7800 C   0  0  2  0  0  0  0  0  0  0  0  0
   -1.1130   17.4200   -5.7010 C   0  0  0  0  0  0  0  0  0  0  0  0
    0.6190   12.6030   -3.7520 C   0  0  0  0  0  0  0  0  0  0  0  0
   -0.9740   14.0720   -5.0650 C   0  0  0  0  0  0  0  0  0  0  0  0
   -3.0580   15.1450   -5.9090 C   0  0  0  0  0  0  0  0  0  0  0  0
   -2.4400   17.7040   -6.3170 C   0  0  0  0  0  0  0  0  0  0  0  0
    0.8470   11.9770   -2.3500 C   0  0  1  0  0  0  0  0  0  0  0  0
   -3.4390   16.5700   -5.9810 C   0  0  0  0  0  0  0  0  0  0  0  0
    0.1760   12.6690   -1.3270 O   0  0  0  0  0  0  0  0  0  0  0  0
    0.2380   10.7950   -2.2710 O   0  0  0  0  0  0  0  0  0  0  0  0
  1  2  1  0
  3  2  1  6
  3  4  1  0
  3  5  1  0
  4  6  1  1
  5  7  1  6
  4  8  1  0
  5  9  1  0
  4 10  1  0
  9 11  1  6
  8 12  1  6
  9 12  1  0
  8 13  1  0
 10 14  1  0
 11 15  1  0
 13 16  1  0
 14 16  1  0
 15 17  1  1
 15 18  1  0
M  CHG  1  18  -1
M  END
