ucsf135-ucsf487
     RDKit          3D

 25 28  0  0  0  0  0  0  0  0999 V2000
    1.6890   11.7200   -7.0890 O   0  0  0  0  0  0  0  0  0  0  0  0
    0.4610   12.0070   -6.4800 C   0  0  2  0  0  0  0  0  0  0  0  0
    0.6700   11.9830   -5.0360 N   0  0  0  0  0  0  0  0  0  0  0  0
   -0.6340   10.9620   -6.8690 C   0  0  2  0  0  0  0  0  0  0  0  0
   -0.6770   11.3890   -4.2870 S   0  0  2  0  0  0  0  0  0  0  0  0
   -1.5000   10.5740   -5.6370 C   0  0  2  0  0  0  0  0  0  0  0  0
   -0.2100    9.7240   -7.6690 C   0  0  0  0  0  0  0  0  0  0  0  0
   -1.6680   12.5140   -3.6870 O   0  0  0  0  0  0  0  0  0  0  0  0
   -0.3050   10.2770   -3.2060 O   0  0  0  0  0  0  0  0  0  0  0  0
   -1.7330    9.0760   -5.5350 C   0  0  0  0  0  0  0  0  0  0  0  0
   -1.4150    8.8480   -8.0510 C   0  0  0  0  0  0  0  0  0  0  0  0
   -2.9330   12.8480   -4.2530 C   0  0  0  0  0  0  0  0  0  0  0  0
   -2.2840    8.4940   -6.8480 C   0  0  0  0  0  0  0  0  0  0  0  0
   -3.3730   14.2540   -3.7910 C   0  0  0  0  0  0  0  0  0  0  0  0
   -4.0120   14.2990   -2.3740 C   0  0  2  0  0  0  0  0  0  0  0  0
   -5.4460   14.8380   -2.3300 C   0  0  0  0  0  0  0  0  0  0  0  0
   -3.1890   15.1180   -1.4130 C   0  0  0  0  0  0  0  0  0  0  0  0
   -6.0480   15.0740   -0.9260 C   0  0  2  0  0  0  0  0  0  0  0  0
   -3.6150   14.7960    0.0030 C   0  0  0  0  0  0  0  0  0  0  0  0
   -5.0820   15.1430    0.2900 C   0  0  2  0  0  0  0  0  0  0  0  0
   -7.1700   14.1590   -0.6960 N   0  0  0  0  0  0  0  0  0  0  0  0
   -5.6050   14.3530    1.5070 C   0  0  0  0  0  0  0  0  0  0  0  0
   -7.9540   14.5170    0.4830 C   0  0  0  0  0  0  0  0  0  0  0  0
   -7.1170   14.5290    1.7700 C   0  0  1  0  0  0  0  0  0  0  0  0
   -7.5800   13.5220    2.7190 N   0  0  0  0  0  0  0  0  0  0  0  0
  2  1  1  6
  2  3  1  0
  2  4  1  0
  3  5  1  0
  4  6  1  0
  5  6  1  0
  4  7  1  1
  5  8  1  0
  5  9  1  1
  6 10  1  1
  7 11  1  0
  8 12  1  0
 10 13  1  0
 11 13  1  0
 12 14  1  0
 15 14  1  6
 15 16  1  0
 15 17  1  0
 18 16  1  6
 17 19  1  0
 18 20  1  0
 20 19  1  6
 18 21  1  0
 20 22  1  0
 21 23  1  0
 22 24  1  0
 23 24  1  0
 24 25  1  1
M  END
