ucsf412-ucsf169
     RDKit          3D

 25 27  0  0  0  0  0  0  0  0999 V2000
   -8.0200   14.9950   -0.3850 O   0  0  0  0  0  0  0  0  0  0  0  0
   -7.0040   14.3300    0.3240 C   0  0  2  0  0  0  0  0  0  0  0  0
   -7.0850   14.8260    1.6750 N   0  0  0  0  0  0  0  0  0  0  0  0
   -5.6700   14.3880   -0.4650 C   0  0  2  0  0  0  0  0  0  0  0  0
   -4.3970   14.5510    0.3730 C   0  0  2  0  0  0  0  0  0  0  0  0
   -5.8550   14.7490    2.4390 C   0  0  0  0  0  0  0  0  0  0  0  0
   -5.6660   15.3480   -1.6440 C   0  0  0  0  0  0  0  0  0  0  0  0
   -4.5910   15.2010    1.7300 C   0  0  0  0  0  0  0  0  0  0  0  0
   -3.2450   15.1940   -0.4100 C   0  0  0  0  0  0  0  0  0  0  0  0
   -4.5440   14.9890   -2.6010 C   0  0  0  0  0  0  0  0  0  0  0  0
   -3.1870   14.8550   -1.9100 C   0  0  1  0  0  0  0  0  0  0  0  0
   -2.2130   15.7400   -2.7020 C   0  0  0  0  0  0  0  0  0  0  0  0
   -2.2380   15.5250   -4.2320 C   0  0  1  0  0  0  0  0  0  0  0  0
   -1.6820   16.7130   -5.0530 C   0  0  1  0  0  0  0  0  0  0  0  0
   -1.4620   14.2620   -4.5830 C   0  0  0  0  0  0  0  0  0  0  0  0
   -2.1400   18.0230   -4.6670 O   0  0  0  0  0  0  0  0  0  0  0  0
   -0.1440   16.7280   -5.1820 C   0  0  1  0  0  0  0  0  0  0  0  0
   -0.0790   14.3570   -3.9460 C   0  0  1  0  0  0  0  0  0  0  0  0
    0.3320   17.9440   -4.6040 O   0  0  0  0  0  0  0  0  0  0  0  0
    0.5590   12.9370   -3.7210 C   0  0  0  0  0  0  0  0  0  0  0  0
    0.6800   15.5120   -4.6470 C   0  0  0  0  0  0  0  0  0  0  0  0
    1.2360   18.5060   -5.5270 C   0  0  0  0  0  0  0  0  0  0  0  0
    0.0210   12.1010   -2.5080 C   0  0  2  0  0  0  0  0  0  0  0  0
    0.4920   12.6340   -1.2930 O   0  0  0  0  0  0  0  0  0  0  0  0
    0.4710   10.8530   -2.4550 O   0  0  0  0  0  0  0  0  0  0  0  0
  2  1  1  6
  2  3  1  0
  2  4  1  0
  4  5  1  0
  3  6  1  0
  4  7  1  6
  5  8  1  1
  6  8  1  0
  5  9  1  0
  7 10  1  0
  9 11  1  0
 10 11  1  0
 11 12  1  6
 13 12  1  1
 13 14  1  0
 13 15  1  0
 14 16  1  1
 14 17  1  0
 15 18  1  0
 17 19  1  1
 18 20  1  6
 17 21  1  0
 18 21  1  0
 19 22  1  0
 20 23  1  0
 23 24  1  1
 23 25  1  0
M  CHG  1  25  -1
M  END
