ucsf520-ucsf396
     RDKit          3D

 24 27  0  0  0  0  0  0  0  0999 V2000
   -4.3970   14.9410    0.5490 C   0  0  2  0  0  0  0  0  0  0  0  0
   -4.2950   16.0740   -0.3150 N   0  0  0  0  0  0  0  0  0  0  0  0
   -3.9400   15.3790    1.8190 O   0  0  0  0  0  0  0  0  0  0  0  0
   -3.3510   13.9990   -0.0210 C   0  0  1  0  0  0  0  0  0  0  0  0
   -5.8100   14.3750    0.5100 C   0  0  2  0  0  0  0  0  0  0  0  0
   -3.5200   13.6960   -1.4540 N   0  0  0  0  0  0  0  0  0  0  0  0
   -2.0230   14.5890    0.2410 C   0  0  2  0  0  0  0  0  0  0  0  0
   -6.5150   14.9140   -0.7510 C   0  0  0  0  0  0  0  0  0  0  0  0
   -6.6190   14.4870    1.8160 C   0  0  0  0  0  0  0  0  0  0  0  0
   -2.9500   14.7150   -2.3310 C   0  0  0  0  0  0  0  0  0  0  0  0
   -1.1010   14.2050   -0.8840 C   0  0  1  0  0  0  0  0  0  0  0  0
   -1.3450   14.2440    1.4720 N   0  0  0  0  0  0  0  0  0  0  0  0
   -7.8560   14.3890   -0.8260 N   0  0  0  0  0  0  0  0  0  0  0  0
   -8.1260   14.6570    1.6780 C   0  0  0  0  0  0  0  0  0  0  0  0
   -1.5030   14.8160   -2.1510 N   0  0  0  0  0  0  0  0  0  0  0  0
    0.1210   14.7420   -0.3230 N   0  0  0  0  0  0  0  0  0  0  0  0
    0.0280   14.3240    1.0790 C   0  0  0  0  0  0  0  0  0  0  0  0
   -8.6380   14.9440    0.2640 C   0  0  0  0  0  0  0  0  0  0  0  0
   -0.7870   14.2210   -3.2920 C   0  0  0  0  0  0  0  0  0  0  0  0
   -0.6370   15.1450   -4.5270 C   0  0  1  0  0  0  0  0  0  0  0  0
   -1.3840   16.3630   -4.3300 O   0  0  0  0  0  0  0  0  0  0  0  0
    0.8030   15.5660   -4.7850 C   0  0  0  0  0  0  0  0  0  0  0  0
    0.7280   17.0220   -5.1970 C   0  0  0  0  0  0  0  0  0  0  0  0
   -0.7340   17.3900   -5.0830 C   0  0  0  0  0  0  0  0  0  0  0  0
  1  2  1  6
  1  3  1  0
  1  4  1  0
  1  5  1  0
  4  6  1  6
  4  7  1  0
  5  8  1  6
  5  9  1  0
  6 10  1  0
  7 11  1  0
  7 12  1  1
  8 13  1  0
  9 14  1  0
 10 15  1  0
 11 15  1  0
 11 16  1  1
 12 17  1  0
 16 17  1  0
 13 18  1  0
 14 18  1  0
 15 19  1  0
 20 19  1  1
 20 21  1  0
 20 22  1  0
 22 23  1  0
 21 24  1  0
 23 24  1  0
M  END
