ucsf493-ucsf519
     RDKit          3D

 24 27  0  0  0  0  0  0  0  0999 V2000
   -4.0290   15.0380   -4.5490 C   0  0  0  0  0  0  0  0  0  0  0  0
   -2.8490   15.8400   -4.2890 N   0  0  0  0  0  0  0  0  0  0  0  0
   -2.2720   15.8050   -2.9540 C   0  0  2  0  0  0  0  0  0  0  0  0
   -1.7180   15.8530   -5.2410 C   0  0  2  0  0  0  0  0  0  0  0  0
   -1.2720   14.7020   -2.9790 C   0  0  2  0  0  0  0  0  0  0  0  0
   -0.1550   15.3040   -5.2450 C   0  0  1  0  0  0  0  0  0  0  0  0
   -1.4690   17.3640   -5.5580 C   0  0  0  0  0  0  0  0  0  0  0  0
   -3.0640   15.7760   -1.7320 N   0  0  0  0  0  0  0  0  0  0  0  0
    0.0880   15.2990   -3.2950 C   0  0  0  0  0  0  0  0  0  0  0  0
   -1.6240   13.4560   -4.2920 S   0  0  0  0  0  0  0  0  0  0  0  0
    0.7740   16.5090   -5.2360 C   0  0  1  0  0  0  0  0  0  0  0  0
   -0.0980   17.7360   -5.0020 C   0  0  0  0  0  0  0  0  0  0  0  0
    0.7270   14.1670   -4.6300 C   0  0  2  0  0  0  0  0  0  0  0  0
   -4.3240   15.0710   -1.6750 C   0  0  0  0  0  0  0  0  0  0  0  0
   -2.3320   15.0810   -0.7220 C   0  0  1  0  0  0  0  0  0  0  0  0
    0.0450   13.1250   -3.8040 C   0  0  2  0  0  0  0  0  0  0  0  0
   -1.0500   15.5910   -0.4490 O   0  0  0  0  0  0  0  0  0  0  0  0
    1.8110   16.2580   -4.2430 N   0  0  0  0  0  0  0  0  0  0  0  0
    1.9710   14.8020   -4.0680 C   0  0  0  0  0  0  0  0  0  0  0  0
   -4.4930   14.9200   -0.1660 C   0  0  0  0  0  0  0  0  0  0  0  0
   -3.1710   15.2390    0.4290 N   0  0  0  0  0  0  0  0  0  0  0  0
    0.6750   11.7510   -3.4730 C   0  0  1  0  0  0  0  0  0  0  0  0
    2.0560   11.9740   -3.3750 O   0  0  0  0  0  0  0  0  0  0  0  0
    0.4630   11.4210   -2.2120 O   0  0  0  0  0  0  0  0  0  0  0  0
  1  2  1  0
  2  3  1  0
  2  4  1  0
  3  5  1  0
  6  4  1  1
  4  7  1  1
  3  8  1  1
  5  9  1  6
  5 10  1  0
  6 11  1  0
  7 12  1  0
 11 12  1  1
  6 13  1  0
  8 14  1  0
  8 15  1  0
 16 10  1  6
 13 16  1  0
 15 17  1  1
 11 18  1  0
 13 19  1  1
 18 19  1  0
 14 20  1  0
 15 21  1  0
 20 21  1  0
 16 22  1  0
 22 23  1  1
 22 24  1  0
M  CHG  1  24  -1
M  END
