ucsf248-ucsf320
     RDKit          3D

 17 18  0  0  0  0  0  0  0  0999 V2000
   -8.2810   12.7470    2.8060 N   0  0  0  0  0  0  0  0  0  0  0  0
   -8.2890   14.2760    2.1800 S   0  0  0  0  0  0  0  0  0  0  0  0
   -7.9880   15.3720    3.3070 O   0  0  0  0  0  0  0  0  0  0  0  0
   -9.7240   14.6500    1.5850 O   0  0  0  0  0  0  0  0  0  0  0  0
   -7.0830   14.6610    0.8680 C   0  0  1  0  0  0  0  0  0  0  0  0
   -5.7000   14.9260    1.3740 N   0  0  0  0  0  0  0  0  0  0  0  0
   -6.9790   13.6250   -0.1280 N   0  0  0  0  0  0  0  0  0  0  0  0
   -4.7930   14.1950    0.4580 C   0  0  1  0  0  0  0  0  0  0  0  0
   -5.6780   13.9540   -0.7230 C   0  0  2  0  0  0  0  0  0  0  0  0
   -3.4440   14.8500    0.0830 C   0  0  0  0  0  0  0  0  0  0  0  0
   -5.7350   15.1830   -1.6040 C   0  0  2  0  0  0  0  0  0  0  0  0
   -6.9480   15.0790   -2.3620 O   0  0  0  0  0  0  0  0  0  0  0  0
   -3.2590   15.4520   -1.3700 C   0  0  2  0  0  0  0  0  0  0  0  0
   -4.4210   15.1280   -2.3510 C   0  0  0  0  0  0  0  0  0  0  0  0
   -1.8890   15.1830   -2.0790 C   0  0  1  0  0  0  0  0  0  0  0  0
   -1.1740   14.3270   -1.4050 O   0  0  0  0  0  0  0  0  0  0  0  0
   -2.0720   14.5250   -3.3210 O   0  0  0  0  0  0  0  0  0  0  0  0
  1  2  1  0
  2  3  1  0
  2  4  1  0
  5  2  1  1
  5  6  1  0
  5  7  1  0
  6  8  1  0
  9  7  1  1
  8  9  1  0
  8 10  1  6
  9 11  1  0
 11 12  1  6
 13 10  1  1
 11 14  1  0
 13 14  1  0
 13 15  1  0
 15 16  1  1
 15 17  1  0
M  CHG  1  16  -1
M  END
