ucsf135
     RDKit          3D

 12 13  0  0  0  0  0  0  0  0999 V2000
    1.7150   11.9830   -7.1970 O   0  0  0  0  0  0  0  0  0  0  0  0
    0.8670   11.5870   -6.4710 C   0  0  0  0  0  0  0  0  0  0  0  0
    0.6340   12.0400   -5.0510 N   0  0  0  0  0  0  0  0  0  0  0  0
   -0.6080   11.2340   -4.4820 S   0  0  2  0  0  0  0  0  0  0  0  0
   -1.7140   12.1780   -4.3090 O   0  0  0  0  0  0  0  0  0  0  0  0
   -0.1510   10.4690   -3.3190 O   0  0  0  0  0  0  0  0  0  0  0  0
   -1.1320   10.2120   -5.7270 C   0  0  0  0  0  0  0  0  0  0  0  0
   -2.1650    9.2930   -5.7960 C   0  0  0  0  0  0  0  0  0  0  0  0
   -2.3800    8.5650   -6.9740 C   0  0  0  0  0  0  0  0  0  0  0  0
   -1.5400    8.7720   -8.0990 C   0  0  0  0  0  0  0  0  0  0  0  0
   -0.4930    9.7020   -8.0320 C   0  0  0  0  0  0  0  0  0  0  0  0
   -0.2970   10.4140   -6.8490 C   0  0  0  0  0  0  0  0  0  0  0  0
  1  2  1  0
  2  3  1  0
  3  4  1  0
  4  5  1  1
  4  6  1  0
  4  7  1  0
  7  8  1  0
  8  9  1  0
  9 10  1  0
 10 11  1  0
  2 12  1  0
  7 12  1  0
 11 12  1  0
M  END
