ucsf006-ucsf247
     RDKit          3D

 20 21  0  0  0  0  0  0  0  0999 V2000
   -2.0340   15.8270   -3.3780 C   0  0  0  0  0  0  0  0  0  0  0  0
   -1.1880   14.6700   -2.7800 C   0  0  2  0  0  0  0  0  0  0  0  0
    0.3840   14.8740   -3.1130 C   0  0  2  0  0  0  0  0  0  0  0  0
   -3.3150   15.4140   -3.9000 O   0  0  0  0  0  0  0  0  0  0  0  0
   -1.6890   13.3940   -3.4650 C   0  0  0  0  0  0  0  0  0  0  0  0
   -1.4060   14.6500   -1.1920 C   0  0  2  0  0  0  0  0  0  0  0  0
    0.7830   14.5970   -4.6450 C   0  0  0  0  0  0  0  0  0  0  0  0
    1.0490   13.9730   -2.3700 O   0  0  0  0  0  0  0  0  0  0  0  0
   -2.6230   15.2890   -0.5350 C   0  0  2  0  0  0  0  0  0  0  0  0
   -0.2450   15.0430   -0.3330 N   0  0  0  0  0  0  0  0  0  0  0  0
    1.1210   13.1040   -5.0130 C   0  0  2  0  0  0  0  0  0  0  0  0
   -2.7030   14.7050    0.8290 C   0  0  1  0  0  0  0  0  0  0  0  0
   -0.3770   14.6330    1.0530 C   0  0  0  0  0  0  0  0  0  0  0  0
   -4.0270   14.9970   -1.0790 C   0  0  0  0  0  0  0  0  0  0  0  0
   -0.0360   12.3520   -5.3310 O   0  0  0  0  0  0  0  0  0  0  0  0
    1.5250   12.4400   -3.9340 O   0  0  0  0  0  0  0  0  0  0  0  0
   -1.6050   15.1770    1.6190 N   0  0  0  0  0  0  0  0  0  0  0  0
   -3.9920   15.1800    1.2980 N   0  0  0  0  0  0  0  0  0  0  0  0
   -4.8060   14.6710    0.2000 C   0  0  1  0  0  0  0  0  0  0  0  0
   -6.1170   15.2160    0.1670 O   0  0  0  0  0  0  0  0  0  0  0  0
  2  1  1  0
  2  3  1  0
  1  4  1  0
  2  5  1  6
  2  6  1  0
  3  7  1  0
  3  8  1  1
  6  9  1  0
  6 10  1  1
  7 11  1  0
  9 12  1  0
 10 13  1  0
  9 14  1  6
 11 15  1  1
 11 16  1  0
 12 17  1  1
 13 17  1  0
 12 18  1  0
 14 19  1  0
 18 19  1  0
 19 20  1  6
M  CHG  2   8  -1  16  -1
M  END
