ucsf336-ucsf012
     RDKit          3D

 30 33  0  0  0  0  0  0  0  0999 V2000
    3.0810   13.4300   -4.5920 O   0  0  0  0  0  0  0  0  0  0  0  0
    1.7980   13.5170   -4.3730 C   0  0  2  0  0  0  0  0  0  0  0  0
    1.8470   13.7100   -2.9640 O   0  0  0  0  0  0  0  0  0  0  0  0
    1.0780   12.1310   -4.7130 C   0  0  2  0  0  0  0  0  0  0  0  0
    1.9080   11.1080   -4.2510 O   0  0  0  0  0  0  0  0  0  0  0  0
    0.3560   12.0330   -6.0250 N   0  0  0  0  0  0  0  0  0  0  0  0
   -0.0260   12.0690   -3.7280 C   0  0  1  0  0  0  0  0  0  0  0  0
   -0.7230   11.0650   -6.3390 C   0  0  0  0  0  0  0  0  0  0  0  0
   -1.3130   11.9780   -4.2850 O   0  0  0  0  0  0  0  0  0  0  0  0
   -0.0590   11.1250   -2.5970 C   0  0  0  0  0  0  0  0  0  0  0  0
   -0.5580   10.4760   -7.7470 C   0  0  0  0  0  0  0  0  0  0  0  0
   -2.2150   11.2770   -6.1270 C   0  0  0  0  0  0  0  0  0  0  0  0
   -1.2550   11.8020   -2.0190 C   0  0  0  0  0  0  0  0  0  0  0  0
   -1.7560   12.6880   -3.1860 C   0  0  1  0  0  0  0  0  0  0  0  0
   -1.0780   14.0920   -3.2850 C   0  0  0  0  0  0  0  0  0  0  0  0
   -1.4610    9.2560   -8.0180 C   0  0  0  0  0  0  0  0  0  0  0  0
   -2.9280    9.9190   -6.0010 C   0  0  0  0  0  0  0  0  0  0  0  0
   -2.3340    8.7850   -6.8500 C   0  0  0  0  0  0  0  0  0  0  0  0
   -1.7210   14.9750   -2.3660 N   0  0  0  0  0  0  0  0  0  0  0  0
   -3.1400   15.2480   -2.6580 C   0  0  1  0  0  0  0  0  0  0  0  0
   -1.6120   14.4730   -0.9990 C   0  0  2  0  0  0  0  0  0  0  0  0
   -3.8270   14.4860   -3.7840 C   0  0  0  0  0  0  0  0  0  0  0  0
   -3.8680   15.3720   -1.3060 C   0  0  2  0  0  0  0  0  0  0  0  0
   -2.9840   14.5990   -0.3420 C   0  0  2  0  0  0  0  0  0  0  0  0
   -0.5890   15.0530   -0.1590 N   0  0  0  0  0  0  0  0  0  0  0  0
   -5.3330   14.9800   -1.2850 C   0  0  0  0  0  0  0  0  0  0  0  0
   -2.7470   15.1830    1.0270 C   0  0  1  0  0  0  0  0  0  0  0  0
   -0.5000   14.3540    1.0960 C   0  0  0  0  0  0  0  0  0  0  0  0
   -3.9510   15.2010    1.8140 N   0  0  0  0  0  0  0  0  0  0  0  0
   -1.8290   14.3100    1.6920 N   0  0  0  0  0  0  0  0  0  0  0  0
  2  1  1  1
  2  3  1  0
  2  4  1  0
  4  5  1  1
  4  6  1  0
  4  7  1  0
  6  8  1  0
  7  9  1  0
  7 10  1  1
  8 11  1  0
  8 12  1  0
 10 13  1  0
  9 14  1  0
 13 14  1  0
 14 15  1  1
 11 16  1  0
 12 17  1  0
 16 18  1  0
 17 18  1  0
 15 19  1  0
 19 20  1  0
 19 21  1  0
 20 22  1  6
 20 23  1  0
 21 24  1  0
 23 24  1  0
 21 25  1  1
 23 26  1  6
 24 27  1  1
 25 28  1  0
 27 29  1  1
 27 30  1  0
 28 30  1  0
M  CHG  1   1  -1
M  END
