ucsf392-ucsf523
     RDKit          3D

 15 16  0  0  0  0  0  0  0  0999 V2000
   -4.3920   15.9460   -1.1540 C   0  0  0  0  0  0  0  0  0  0  0  0
   -3.7600   14.6540   -0.7160 C   0  0  1  0  0  0  0  0  0  0  0  0
   -2.3690   14.4710   -1.4470 C   0  0  1  0  0  0  0  0  0  0  0  0
   -3.6190   14.5800    0.8630 C   0  0  2  0  0  0  0  0  0  0  0  0
   -4.8520   13.8080   -1.2220 N   0  0  0  0  0  0  0  0  0  0  0  0
   -3.9060   15.8070    1.5390 N   0  0  0  0  0  0  0  0  0  0  0  0
   -2.2710   15.1040   -2.7090 O   0  0  0  0  0  0  0  0  0  0  0  0
   -2.3130   14.2150    1.2650 N   0  0  0  0  0  0  0  0  0  0  0  0
   -1.1610   14.8450   -0.7350 N   0  0  0  0  0  0  0  0  0  0  0  0
   -4.5220   13.6590    1.4640 N   0  0  0  0  0  0  0  0  0  0  0  0
   -6.0330   14.2130   -0.4540 C   0  0  0  0  0  0  0  0  0  0  0  0
   -1.2780   15.0190    0.7060 C   0  0  2  0  0  0  0  0  0  0  0  0
   -5.8810   13.8860    1.0500 C   0  0  2  0  0  0  0  0  0  0  0  0
    0.0210   14.5210    1.2600 C   0  0  0  0  0  0  0  0  0  0  0  0
   -6.3470   14.9140    1.8840 O   0  0  0  0  0  0  0  0  0  0  0  0
  2  1  1  1
  2  3  1  0
  2  4  1  0
  2  5  1  0
  4  6  1  1
  3  7  1  6
  4  8  1  0
  3  9  1  0
  4 10  1  0
  5 11  1  0
  8 12  1  0
  9 12  1  0
 10 13  1  0
 11 13  1  0
 12 14  1  1
 13 15  1  1
M  END
