ucsf241-ucsf519
     RDKit          3D

 19 20  0  0  0  0  0  0  0  0999 V2000
   -0.7140   15.9480   -4.5660 C   0  0  0  0  0  0  0  0  0  0  0  0
   -1.1430   14.6680   -3.8180 C   0  0  2  0  0  0  0  0  0  0  0  0
   -0.6190   13.2680   -4.9050 S   0  0  0  0  0  0  0  0  0  0  0  0
   -2.6750   14.7360   -3.3740 C   0  0  2  0  0  0  0  0  0  0  0  0
    0.6760   12.3890   -3.8890 C   0  0  0  0  0  0  0  0  0  0  0  0
   -3.1980   15.9690   -3.8840 O   0  0  0  0  0  0  0  0  0  0  0  0
   -3.0130   14.5810   -1.8440 C   0  0  2  0  0  0  0  0  0  0  0  0
    0.1320   11.6580   -2.6140 C   0  0  2  0  0  0  0  0  0  0  0  0
   -4.1390   15.3140   -1.0600 C   0  0  0  0  0  0  0  0  0  0  0  0
   -1.8350   14.8980   -0.9630 C   0  0  1  0  0  0  0  0  0  0  0  0
    0.7710   12.1980   -1.4810 O   0  0  0  0  0  0  0  0  0  0  0  0
    0.5260   10.3940   -2.5330 O   0  0  0  0  0  0  0  0  0  0  0  0
   -1.0480   15.9880   -1.4730 O   0  0  0  0  0  0  0  0  0  0  0  0
   -2.4070   15.3080    0.4210 C   0  0  1  0  0  0  0  0  0  0  0  0
   -3.8270   15.0290    0.3810 N   0  0  0  0  0  0  0  0  0  0  0  0
   -0.8940   13.7430   -0.8700 C   0  0  0  0  0  0  0  0  0  0  0  0
    0.2360   14.1300    0.0320 C   0  0  0  0  0  0  0  0  0  0  0  0
   -1.7380   14.5580    1.4560 N   0  0  0  0  0  0  0  0  0  0  0  0
   -0.3010   14.8080    1.2620 C   0  0  0  0  0  0  0  0  0  0  0  0
  2  1  1  6
  2  3  1  0
  2  4  1  0
  3  5  1  0
  4  6  1  1
  4  7  1  0
  5  8  1  0
  7  9  1  1
  7 10  1  0
  8 11  1  1
  8 12  1  0
 10 13  1  6
 10 14  1  0
  9 15  1  0
 14 15  1  6
 10 16  1  0
 16 17  1  0
 14 18  1  0
 17 19  1  0
 18 19  1  0
M  CHG  1  12  -1
M  END
