ucsf516-ucsf364
     RDKit          3D

 28 32  0  0  0  0  0  0  0  0999 V2000
    1.7470   13.2680   -5.2120 C   0  0  0  0  0  0  0  0  0  0  0  0
    0.8300   12.0400   -5.1940 C   0  0  2  0  0  0  0  0  0  0  0  0
    0.3020   11.9250   -6.6100 C   0  0  1  0  0  0  0  0  0  0  0  0
   -0.2700   12.0610   -4.0980 C   0  0  2  0  0  0  0  0  0  0  0  0
    1.3510   11.4490   -7.4500 O   0  0  0  0  0  0  0  0  0  0  0  0
    0.3660   12.3320   -2.7140 C   0  0  2  0  0  0  0  0  0  0  0  0
   -1.2520   10.9000   -4.1520 C   0  0  0  0  0  0  0  0  0  0  0  0
   -0.9590   11.0920   -6.8000 C   0  0  0  0  0  0  0  0  0  0  0  0
   -0.4230   12.0940   -1.6660 O   0  0  0  0  0  0  0  0  0  0  0  0
   -1.6260   10.4450   -5.5710 C   0  0  0  0  0  0  0  0  0  0  0  0
    0.9540   13.7840   -2.8050 C   0  0  0  0  0  0  0  0  0  0  0  0
    2.1630   13.7000   -3.8360 C   0  0  0  0  0  0  0  0  0  0  0  0
    2.1090   14.0230   -1.8170 C   0  0  0  0  0  0  0  0  0  0  0  0
   -0.0640   14.9210   -3.2490 C   0  0  1  0  0  0  0  0  0  0  0  0
    2.8860   13.0450   -2.7080 C   0  0  0  0  0  0  0  0  0  0  0  0
   -0.4080   14.9200   -4.7570 C   0  0  0  0  0  0  0  0  0  0  0  0
   -1.3620   14.9330   -2.5720 N   0  0  0  0  0  0  0  0  0  0  0  0
   -2.4400   14.5800   -3.4950 C   0  0  0  0  0  0  0  0  0  0  0  0
   -1.8970   14.6540   -4.9000 C   0  0  0  0  0  0  0  0  0  0  0  0
   -1.4590   14.3960   -1.2320 C   0  0  1  0  0  0  0  0  0  0  0  0
   -0.3300   14.9750   -0.5040 N   0  0  0  0  0  0  0  0  0  0  0  0
   -2.7770   14.3960   -0.4470 C   0  0  1  0  0  0  0  0  0  0  0  0
   -0.2880   14.6330    0.8750 C   0  0  0  0  0  0  0  0  0  0  0  0
   -2.6870   14.7280    1.0440 C   0  0  1  0  0  0  0  0  0  0  0  0
   -3.9960   15.1160   -0.9760 C   0  0  0  0  0  0  0  0  0  0  0  0
   -1.4280   15.2290    1.5040 N   0  0  0  0  0  0  0  0  0  0  0  0
   -3.6690   15.7770    1.2650 N   0  0  0  0  0  0  0  0  0  0  0  0
   -4.7060   15.5850    0.2680 C   0  0  0  0  0  0  0  0  0  0  0  0
  2  1  1  6
  2  3  1  0
  2  4  1  0
  3  5  1  6
  4  6  1  0
  4  7  1  1
  3  8  1  0
  6  9  1  1
  7 10  1  0
  8 10  1  0
  6 11  1  0
 11 12  1  0
 11 13  1  0
 14 11  1  1
 12 15  1  0
 13 15  1  0
 14 16  1  0
 14 17  1  0
 17 18  1  0
 16 19  1  0
 18 19  1  0
 20 17  1  6
 20 21  1  0
 20 22  1  0
 21 23  1  0
 22 24  1  0
 22 25  1  6
 23 26  1  0
 24 26  1  6
 24 27  1  0
 25 28  1  0
 27 28  1  0
M  CHG  1   9  -1
M  END
