ucsf357-ucsf258
     RDKit          3D

 13 13  0  0  0  0  0  0  0  0999 V2000
   -6.0340   15.2650   -2.1130 O   0  0  0  0  0  0  0  0  0  0  0  0
   -5.5480   14.5350   -1.1350 C   0  0  2  0  0  0  0  0  0  0  0  0
   -5.8640   15.3400   -0.0230 O   0  0  0  0  0  0  0  0  0  0  0  0
   -4.0050   14.4110   -1.2960 C   0  0  1  0  0  0  0  0  0  0  0  0
   -3.5140   15.1250   -2.5680 C   0  0  0  0  0  0  0  0  0  0  0  0
   -3.2040   14.8970   -0.0840 C   0  0  0  0  0  0  0  0  0  0  0  0
   -2.0370   14.9370   -2.8660 C   0  0  2  0  0  0  0  0  0  0  0  0
   -1.7230   14.5270   -0.2350 C   0  0  0  0  0  0  0  0  0  0  0  0
   -1.9130   13.8850   -3.7330 F   0  0  0  0  0  0  0  0  0  0  0  0
   -1.0710   14.6830   -1.6600 C   0  0  1  0  0  0  0  0  0  0  0  0
   -0.2050   13.5150   -1.9590 N   0  0  0  0  0  0  0  0  0  0  0  0
    0.9730   13.5820   -1.1700 O   0  0  0  0  0  0  0  0  0  0  0  0
    0.3100   13.7640   -3.2940 O   0  0  0  0  0  0  0  0  0  0  0  0
  2  1  1  6
  2  3  1  0
  2  4  1  0
  4  5  1  6
  4  6  1  0
  5  7  1  0
  6  8  1  0
  7  9  1  6
  7 10  1  0
  8 10  1  0
 10 11  1  6
 11 12  1  0
 11 13  1  0
M  CHG  2   1  -1  12  -1
M  END
