ucsf336-ucsf004
     RDKit          3D

 29 32  0  0  0  0  0  0  0  0999 V2000
    1.7160   13.7280   -4.2910 O   0  0  0  0  0  0  0  0  0  0  0  0
    1.5580   12.5440   -3.7520 C   0  0  1  0  0  0  0  0  0  0  0  0
    1.5560   12.7800   -2.3630 O   0  0  0  0  0  0  0  0  0  0  0  0
    0.2370   11.7620   -4.2830 C   0  0  2  0  0  0  0  0  0  0  0  0
    0.2120   10.5130   -3.5750 O   0  0  0  0  0  0  0  0  0  0  0  0
    0.0210   11.5360   -5.7420 N   0  0  0  0  0  0  0  0  0  0  0  0
   -0.5870   12.6760   -6.3570 C   0  0  0  0  0  0  0  0  0  0  0  0
   -0.8570   10.4320   -6.1370 C   0  0  0  0  0  0  0  0  0  0  0  0
   -1.6760   13.1590   -5.5530 O   0  0  0  0  0  0  0  0  0  0  0  0
   -0.3020    9.4130   -7.1360 C   0  0  0  0  0  0  0  0  0  0  0  0
   -1.7120    9.7460   -5.0930 C   0  0  0  0  0  0  0  0  0  0  0  0
   -1.4420    8.7760   -7.9180 C   0  0  0  0  0  0  0  0  0  0  0  0
   -2.8900    9.0640   -5.7970 C   0  0  0  0  0  0  0  0  0  0  0  0
   -1.0750   13.9060   -4.5170 C   0  0  2  0  0  0  0  0  0  0  0  0
   -2.5060    8.1780   -6.9950 C   0  0  0  0  0  0  0  0  0  0  0  0
   -1.9750   14.5700   -3.4700 C   0  0  0  0  0  0  0  0  0  0  0  0
   -0.2100   14.9610   -5.1950 C   0  0  0  0  0  0  0  0  0  0  0  0
   -1.1360   15.2020   -2.4410 N   0  0  0  0  0  0  0  0  0  0  0  0
    0.6280   15.6760   -4.1780 C   0  0  0  0  0  0  0  0  0  0  0  0
    0.2920   15.1510   -2.7860 C   0  0  0  0  0  0  0  0  0  0  0  0
   -1.3790   14.6690   -1.1170 C   0  0  1  0  0  0  0  0  0  0  0  0
   -0.1810   14.8880   -0.2730 N   0  0  0  0  0  0  0  0  0  0  0  0
   -2.5950   15.3400   -0.5170 C   0  0  2  0  0  0  0  0  0  0  0  0
   -0.3000   14.2930    1.0420 C   0  0  0  0  0  0  0  0  0  0  0  0
   -2.3950   15.3950    0.9700 C   0  0  2  0  0  0  0  0  0  0  0  0
   -3.9490   14.7070   -0.6480 C   0  0  0  0  0  0  0  0  0  0  0  0
   -1.6920   14.2490    1.4580 N   0  0  0  0  0  0  0  0  0  0  0  0
   -3.7130   15.5620    1.5690 N   0  0  0  0  0  0  0  0  0  0  0  0
   -4.6730   15.4510    0.4510 C   0  0  0  0  0  0  0  0  0  0  0  0
  2  1  1  6
  2  3  1  0
  2  4  1  0
  4  5  1  1
  4  6  1  0
  6  7  1  0
  6  8  1  0
  7  9  1  0
  8 10  1  0
  8 11  1  0
 10 12  1  0
 11 13  1  0
 14  9  1  6
 12 15  1  0
 13 15  1  0
 14 16  1  0
 14 17  1  0
 16 18  1  0
 17 19  1  0
 18 20  1  0
 19 20  1  0
 21 18  1  6
 21 22  1  0
 21 23  1  0
 22 24  1  0
 23 25  1  0
 23 26  1  1
 24 27  1  0
 25 27  1  1
 25 28  1  0
 26 29  1  0
 28 29  1  0
M  CHG  1   1  -1
M  END
