ucsf004-ucsf262
     RDKit          3D

 25 28  0  0  0  0  0  0  0  0999 V2000
   -1.9860   12.2300   -5.2900 F   0  0  0  0  0  0  0  0  0  0  0  0
   -1.1700   13.0190   -4.5350 C   0  0  1  0  0  0  0  0  0  0  0  0
   -0.5680   14.1340   -5.3940 C   0  0  0  0  0  0  0  0  0  0  0  0
   -1.9670   13.5060   -3.3250 C   0  0  0  0  0  0  0  0  0  0  0  0
   -1.1750   14.4450   -2.5160 N   0  0  0  0  0  0  0  0  0  0  0  0
   -0.2070   15.4040   -4.5400 C   0  0  2  0  0  0  0  0  0  0  0  0
    0.1560   14.6020   -3.1700 C   0  0  1  0  0  0  0  0  0  0  0  0
   -1.3790   14.2770   -1.0830 C   0  0  1  0  0  0  0  0  0  0  0  0
   -1.4980   16.3530   -4.5180 C   0  0  2  0  0  0  0  0  0  0  0  0
    1.0390   16.2190   -5.0630 C   0  0  0  0  0  0  0  0  0  0  0  0
    1.4780   14.6770   -2.2270 C   0  0  2  0  0  0  0  0  0  0  0  0
   -3.0050   15.4470   -5.0300 Cl  0  0  0  0  0  0  0  0  0  0  0  0
   -0.1360   14.5550   -0.3720 N   0  0  0  0  0  0  0  0  0  0  0  0
   -2.3960   15.3120   -0.5900 C   0  0  2  0  0  0  0  0  0  0  0  0
   -1.5870   17.5910   -5.4630 C   0  0  0  0  0  0  0  0  0  0  0  0
    0.9060   17.7470   -5.2530 C   0  0  0  0  0  0  0  0  0  0  0  0
    2.6800   14.6840   -2.7790 O   0  0  0  0  0  0  0  0  0  0  0  0
    1.5670   13.4380   -1.5360 O   0  0  0  0  0  0  0  0  0  0  0  0
   -0.2110   14.2660    1.0390 C   0  0  0  0  0  0  0  0  0  0  0  0
   -2.3200   15.3790    0.9100 C   0  0  2  0  0  0  0  0  0  0  0  0
   -3.8630   14.9620   -0.8230 C   0  0  0  0  0  0  0  0  0  0  0  0
   -0.3090   18.1880   -6.0070 C   0  0  0  0  0  0  0  0  0  0  0  0
   -1.5700   14.3320    1.5190 N   0  0  0  0  0  0  0  0  0  0  0  0
   -3.6500   15.5250    1.4800 N   0  0  0  0  0  0  0  0  0  0  0  0
   -4.5890   15.5540    0.3600 C   0  0  0  0  0  0  0  0  0  0  0  0
  2  1  1  6
  2  3  1  0
  2  4  1  0
  4  5  1  0
  6  3  1  6
  7  5  1  1
  6  7  1  0
  8  5  1  6
  6  9  1  0
  6 10  1  0
  7 11  1  0
  9 12  1  6
  8 13  1  0
  8 14  1  0
  9 15  1  0
 10 16  1  0
 11 17  1  6
 11 18  1  0
 13 19  1  0
 14 20  1  0
 14 21  1  1
 15 22  1  0
 16 22  1  0
 19 23  1  0
 20 23  1  1
 20 24  1  0
 21 25  1  0
 24 25  1  0
M  CHG  1  17  -1
M  END
