ucsf519-ucsf170
     RDKit          3D

 17 17  0  0  0  0  0  0  0  0999 V2000
    0.0020   16.1670   -4.8670 C   0  0  0  0  0  0  0  0  0  0  0  0
   -0.5480   15.0060   -4.0330 C   0  0  2  0  0  0  0  0  0  0  0  0
   -0.5440   13.4500   -5.0120 S   0  0  0  0  0  0  0  0  0  0  0  0
   -1.9390   15.3000   -3.3580 C   0  0  1  0  0  0  0  0  0  0  0  0
    1.0460   12.6880   -4.4570 C   0  0  0  0  0  0  0  0  0  0  0  0
   -2.9360   15.2170   -4.3940 O   0  0  0  0  0  0  0  0  0  0  0  0
   -2.3770   14.4080   -2.2830 N   0  0  0  0  0  0  0  0  0  0  0  0
    1.2970   12.0440   -3.0490 C   0  0  1  0  0  0  0  0  0  0  0  0
   -3.8110   14.4390   -2.0130 C   0  0  0  0  0  0  0  0  0  0  0  0
   -1.7320   14.6060   -0.9830 C   0  0  1  0  0  0  0  0  0  0  0  0
    1.0050   12.9240   -1.9880 O   0  0  0  0  0  0  0  0  0  0  0  0
    0.5520   10.9890   -2.7450 O   0  0  0  0  0  0  0  0  0  0  0  0
   -0.6330   15.4750   -1.1300 O   0  0  0  0  0  0  0  0  0  0  0  0
   -3.9060   15.4440   -0.9000 C   0  0  0  0  0  0  0  0  0  0  0  0
   -2.7500   15.1380   -0.0840 N   0  0  0  0  0  0  0  0  0  0  0  0
   -2.8870   14.8560    1.5150 S   0  0  0  0  0  0  0  0  0  0  0  0
   -4.6290   15.2930    1.6970 C   0  0  0  0  0  0  0  0  0  0  0  0
  2  1  1  6
  2  3  1  0
  2  4  1  0
  3  5  1  0
  4  6  1  6
  4  7  1  0
  5  8  1  0
  7  9  1  0
  7 10  1  0
  8 11  1  1
  8 12  1  0
 10 13  1  6
  9 14  1  0
 10 15  1  0
 14 15  1  0
 15 16  1  0
 16 17  1  0
M  CHG  1  12  -1
M  END
