ucsf123-ucsf403
     RDKit          3D

 24 25  0  0  0  0  0  0  0  0999 V2000
   -2.0520   18.9930   -5.1620 N   0  0  0  0  0  0  0  0  0  0  0  0
   -1.5910   17.5540   -5.7900 S   0  0  0  0  0  0  0  0  0  0  0  0
   -0.3170   17.7960   -6.7060 O   0  0  0  0  0  0  0  0  0  0  0  0
   -2.7310   16.9770   -6.7330 O   0  0  0  0  0  0  0  0  0  0  0  0
   -1.1130   16.2530   -4.6830 C   0  0  2  0  0  0  0  0  0  0  0  0
    0.3300   16.4350   -4.1930 C   0  0  0  0  0  0  0  0  0  0  0  0
   -1.3620   14.8330   -5.1170 C   0  0  0  0  0  0  0  0  0  0  0  0
    0.8960   15.1530   -3.5870 C   0  0  0  0  0  0  0  0  0  0  0  0
   -1.3950   13.9910   -3.8510 C   0  0  0  0  0  0  0  0  0  0  0  0
   -0.1600   14.2380   -2.9330 C   0  0  1  0  0  0  0  0  0  0  0  0
    0.4460   12.8660   -2.5680 C   0  0  2  0  0  0  0  0  0  0  0  0
    1.8200   12.9800   -2.2210 O   0  0  0  0  0  0  0  0  0  0  0  0
    0.2740   11.8430   -3.5760 N   0  0  0  0  0  0  0  0  0  0  0  0
    0.5700   10.5380   -3.0360 O   0  0  0  0  0  0  0  0  0  0  0  0
    0.9300   12.1340   -4.8690 C   0  0  0  0  0  0  0  0  0  0  0  0
    0.6110   11.2680   -5.9620 O   0  0  0  0  0  0  0  0  0  0  0  0
   -0.4120   10.3030   -5.7010 C   0  0  1  0  0  0  0  0  0  0  0  0
   -1.7310   11.0490   -5.5030 C   0  0  1  0  0  0  0  0  0  0  0  0
   -0.3980    9.0220   -6.5930 C   0  0  2  0  0  0  0  0  0  0  0  0
    0.6890    9.0960   -8.0170 Cl  0  0  0  0  0  0  0  0  0  0  0  0
   -1.7870   12.6590   -6.2560 Cl  0  0  0  0  0  0  0  0  0  0  0  0
   -3.0060   10.2900   -5.8650 C   0  0  0  0  0  0  0  0  0  0  0  0
   -1.7660    8.4830   -7.0130 C   0  0  0  0  0  0  0  0  0  0  0  0
   -2.8190    8.7920   -5.9770 C   0  0  0  0  0  0  0  0  0  0  0  0
  1  2  1  0
  2  3  1  0
  2  4  1  0
  5  2  1  6
  5  6  1  0
  5  7  1  0
  6  8  1  0
  7  9  1  0
 10  8  1  6
  9 10  1  0
 10 11  1  0
 11 12  1  6
 11 13  1  0
 13 14  1  0
 13 15  1  0
 15 16  1  0
 17 16  1  6
 17 18  1  0
 17 19  1  0
 19 20  1  6
 18 21  1  6
 18 22  1  0
 19 23  1  0
 22 24  1  0
 23 24  1  0
M  END
