ucsf338-ucsf345
     RDKit          3D

 12 12  0  0  0  0  0  0  0  0999 V2000
   -8.5720   13.3130   -0.3350 O   0  0  0  0  0  0  0  0  0  0  0  0
   -7.1100   13.3930   -0.4830 N   0  0  0  0  0  0  0  0  0  0  0  0
   -6.8330   14.7580   -0.1820 C   0  0  1  0  0  0  0  0  0  0  0  0
   -7.5470   15.5100   -1.1130 O   0  0  0  0  0  0  0  0  0  0  0  0
   -7.4950   14.8630    1.0980 N   0  0  0  0  0  0  0  0  0  0  0  0
   -5.3520   15.2200   -0.1170 C   0  0  2  0  0  0  0  0  0  0  0  0
   -4.3520   14.7250   -1.1800 C   0  0  1  0  0  0  0  0  0  0  0  0
   -4.8080   14.8710    1.2640 C   0  0  0  0  0  0  0  0  0  0  0  0
   -4.7640   15.1040   -2.4950 O   0  0  0  0  0  0  0  0  0  0  0  0
   -2.9570   15.3240   -0.9430 C   0  0  0  0  0  0  0  0  0  0  0  0
   -3.4820   15.5350    1.5140 C   0  0  0  0  0  0  0  0  0  0  0  0
   -2.4410   15.1520    0.4830 C   0  0  0  0  0  0  0  0  0  0  0  0
  1  2  1  0
  2  3  1  0
  3  4  1  0
  3  5  1  1
  3  6  1  0
  6  7  1  0
  6  8  1  1
  7  9  1  6
  7 10  1  0
  8 11  1  0
 10 12  1  0
 11 12  1  0
M  END
