ucsf213-ucsf357
     RDKit          3D

 24 26  0  0  0  0  0  0  0  0999 V2000
    0.5190   10.6570   -2.1510 O   0  0  0  0  0  0  0  0  0  0  0  0
    0.9190   11.9000   -2.4380 C   0  0  2  0  0  0  0  0  0  0  0  0
    0.6270   12.5430   -1.2160 O   0  0  0  0  0  0  0  0  0  0  0  0
   -0.0180   12.5150   -3.4890 C   0  0  0  0  0  0  0  0  0  0  0  0
    0.5320   13.4280   -4.6010 C   0  0  2  0  0  0  0  0  0  0  0  0
    1.0610   14.8290   -4.1580 C   0  0  0  0  0  0  0  0  0  0  0  0
   -0.8860   13.8080   -5.7050 S   0  0  0  0  0  0  0  0  0  0  0  0
    0.2280   15.8870   -4.8960 C   0  0  1  0  0  0  0  0  0  0  0  0
   -1.1940   15.3440   -4.8000 C   0  0  2  0  0  0  0  0  0  0  0  0
   -1.3380   14.8240   -3.4740 O   0  0  0  0  0  0  0  0  0  0  0  0
    0.3640   17.3770   -4.6020 C   0  0  0  0  0  0  0  0  0  0  0  0
   -2.2920   16.3280   -5.3120 C   0  0  0  0  0  0  0  0  0  0  0  0
   -0.4290   18.1790   -5.6080 C   0  0  0  0  0  0  0  0  0  0  0  0
   -1.8990   17.7750   -5.7040 C   0  0  0  0  0  0  0  0  0  0  0  0
   -1.9740   15.4770   -2.3900 C   0  0  1  0  0  0  0  0  0  0  0  0
   -3.4560   15.0810   -2.4020 C   0  0  0  0  0  0  0  0  0  0  0  0
   -1.1600   14.9640   -1.1830 C   0  0  1  0  0  0  0  0  0  0  0  0
    0.1260   15.5800   -1.1710 O   0  0  0  0  0  0  0  0  0  0  0  0
   -4.1000   14.8890   -1.0110 C   0  0  2  0  0  0  0  0  0  0  0  0
   -1.7820   15.1600    0.1860 C   0  0  0  0  0  0  0  0  0  0  0  0
   -5.5480   15.4300   -1.0550 C   0  0  1  0  0  0  0  0  0  0  0  0
   -3.2660   15.4860    0.1540 C   0  0  0  0  0  0  0  0  0  0  0  0
   -6.1490   14.9850   -2.1320 O   0  0  0  0  0  0  0  0  0  0  0  0
   -6.3220   14.8650   -0.0190 O   0  0  0  0  0  0  0  0  0  0  0  0
  2  1  1  1
  2  3  1  0
  2  4  1  0
  5  4  1  1
  5  6  1  0
  5  7  1  0
  8  6  1  1
  7  9  1  0
  8  9  1  0
  9 10  1  1
  8 11  1  0
  9 12  1  0
 11 13  1  0
 12 14  1  0
 13 14  1  0
 15 10  1  6
 15 16  1  0
 15 17  1  0
 17 18  1  1
 19 16  1  6
 17 20  1  0
 19 21  1  0
 19 22  1  0
 20 22  1  0
 21 23  1  6
 21 24  1  0
M  CHG  2   1  -1  23  -1
M  END
