ucsf387-ucsf320
     RDKit          3D

 22 23  0  0  0  0  0  0  0  0999 V2000
    1.1240   18.3780   -5.7650 Cl  0  0  0  0  0  0  0  0  0  0  0  0
    0.3320   17.0540   -4.8730 C   0  0  1  0  0  0  0  0  0  0  0  0
   -1.1360   17.0800   -5.2860 C   0  0  0  0  0  0  0  0  0  0  0  0
    0.9970   15.6910   -5.0680 C   0  0  0  0  0  0  0  0  0  0  0  0
    0.3940   14.6770   -4.0980 C   0  0  2  0  0  0  0  0  0  0  0  0
   -1.9540   15.9510   -4.6700 C   0  0  1  0  0  0  0  0  0  0  0  0
   -3.0860   15.1570   -5.8260 Cl  0  0  0  0  0  0  0  0  0  0  0  0
    0.7810   13.1700   -4.2480 C   0  0  0  0  0  0  0  0  0  0  0  0
   -1.0980   15.0180   -3.7960 C   0  0  1  0  0  0  0  0  0  0  0  0
    0.4320   12.4070   -2.9180 C   0  0  1  0  0  0  0  0  0  0  0  0
   -1.7900   13.9970   -3.1490 O   0  0  0  0  0  0  0  0  0  0  0  0
    0.6190   11.1100   -2.9960 O   0  0  0  0  0  0  0  0  0  0  0  0
    1.3740   12.7460   -1.9290 O   0  0  0  0  0  0  0  0  0  0  0  0
   -1.8490   14.3170   -1.7610 C   0  0  2  0  0  0  0  0  0  0  0  0
   -1.5660   13.2890   -0.9880 O   0  0  0  0  0  0  0  0  0  0  0  0
   -3.2940   14.8510   -1.5000 C   0  0  2  0  0  0  0  0  0  0  0  0
   -3.8790   14.3340   -0.1930 C   0  0  0  0  0  0  0  0  0  0  0  0
   -4.3100   14.8130   -2.6550 C   0  0  0  0  0  0  0  0  0  0  0  0
   -5.0380   15.1890    0.2630 C   0  0  0  0  0  0  0  0  0  0  0  0
   -5.7740   14.8110   -2.2020 C   0  0  0  0  0  0  0  0  0  0  0  0
   -6.0550   15.4670   -0.8460 C   0  0  1  0  0  0  0  0  0  0  0  0
   -7.3410   15.0770   -0.3730 O   0  0  0  0  0  0  0  0  0  0  0  0
  2  1  1  6
  2  3  1  0
  2  4  1  0
  4  5  1  0
  3  6  1  0
  6  7  1  6
  5  8  1  6
  5  9  1  0
  6  9  1  0
  8 10  1  0
  9 11  1  6
 10 12  1  6
 10 13  1  0
 11 14  1  0
 14 15  1  1
 14 16  1  0
 16 17  1  1
 16 18  1  0
 17 19  1  0
 18 20  1  0
 19 21  1  0
 20 21  1  0
 21 22  1  1
M  CHG  2  12  -1  15  -1
M  END
