ucsf172-ucsf336
     RDKit          3D

 27 28  0  0  0  0  0  0  0  0999 V2000
   -8.0890   14.9820    2.5410 C   0  0  0  0  0  0  0  0  0  0  0  0
   -7.0050   14.3320    1.3290 S   0  0  0  0  0  0  0  0  0  0  0  0
   -6.7390   12.8430    1.8230 O   0  0  0  0  0  0  0  0  0  0  0  0
   -7.8910   14.2690   -0.0040 O   0  0  0  0  0  0  0  0  0  0  0  0
   -5.5960   15.0930    1.0230 N   0  0  0  0  0  0  0  0  0  0  0  0
   -4.6400   14.6720    0.0440 C   0  0  2  0  0  0  0  0  0  0  0  0
   -3.1770   14.8460    0.4370 C   0  0  0  0  0  0  0  0  0  0  0  0
   -4.9360   15.4800   -1.2080 C   0  0  0  0  0  0  0  0  0  0  0  0
   -2.1960   14.3960   -0.6310 C   0  0  0  0  0  0  0  0  0  0  0  0
   -4.0290   15.1600   -2.3890 C   0  0  0  0  0  0  0  0  0  0  0  0
   -2.7090   14.4120   -2.0930 C   0  0  1  0  0  0  0  0  0  0  0  0
   -1.5940   14.7590   -3.1350 C   0  0  1  0  0  0  0  0  0  0  0  0
   -0.3250   14.8120   -2.4500 O   0  0  0  0  0  0  0  0  0  0  0  0
   -1.5640   13.8510   -4.0840 O   0  0  0  0  0  0  0  0  0  0  0  0
    0.0740   13.6000   -1.7910 C   0  0  0  0  0  0  0  0  0  0  0  0
    1.2210   13.0470   -2.4370 O   0  0  0  0  0  0  0  0  0  0  0  0
    1.1680   13.3080   -3.8560 C   0  0  1  0  0  0  0  0  0  0  0  0
    2.4010   13.5410   -4.2910 O   0  0  0  0  0  0  0  0  0  0  0  0
    0.6730   11.9690   -4.5580 C   0  0  1  0  0  0  0  0  0  0  0  0
    0.3230   10.9990   -3.5550 O   0  0  0  0  0  0  0  0  0  0  0  0
   -0.3950   11.9510   -5.5350 N   0  0  0  0  0  0  0  0  0  0  0  0
   -0.8120   10.5870   -5.8440 C   0  0  0  0  0  0  0  0  0  0  0  0
   -0.4600   10.2290   -7.2960 C   0  0  0  0  0  0  0  0  0  0  0  0
   -2.3260   10.4320   -5.6040 C   0  0  0  0  0  0  0  0  0  0  0  0
   -1.5130    9.3580   -8.0020 C   0  0  0  0  0  0  0  0  0  0  0  0
   -2.8910    9.0410   -5.8860 C   0  0  0  0  0  0  0  0  0  0  0  0
   -2.2460    8.3690   -7.0880 C   0  0  0  0  0  0  0  0  0  0  0  0
  1  2  1  0
  2  3  1  0
  2  4  1  0
  2  5  1  0
  6  5  1  1
  6  7  1  0
  6  8  1  0
  7  9  1  0
  8 10  1  0
 11  9  1  1
 10 11  1  0
 11 12  1  0
 12 13  1  0
 12 14  1  6
 13 15  1  0
 15 16  1  0
 16 17  1  0
 17 18  1  6
 17 19  1  0
 19 20  1  1
 19 21  1  0
 21 22  1  0
 22 23  1  0
 22 24  1  0
 23 25  1  0
 24 26  1  0
 25 27  1  0
 26 27  1  0
M  CHG  2  14  -1  18  -1
M  END
