ucsf345-ucsf115
     RDKit          3D

 21 23  0  0  0  0  0  0  0  0999 V2000
   -6.7440   14.8270    1.3520 N   0  0  0  0  0  0  0  0  0  0  0  0
   -6.8660   14.9710   -0.0940 C   0  0  2  0  0  0  0  0  0  0  0  0
   -7.8320   14.0140   -0.4460 O   0  0  0  0  0  0  0  0  0  0  0  0
   -5.5280   14.6480   -0.8040 C   0  0  1  0  0  0  0  0  0  0  0  0
   -5.7100   14.5340   -2.2430 N   0  0  0  0  0  0  0  0  0  0  0  0
   -4.2770   15.5440   -0.6300 C   0  0  0  0  0  0  0  0  0  0  0  0
   -4.4830   13.9340   -2.6880 C   0  0  0  0  0  0  0  0  0  0  0  0
   -3.1110   14.5120   -0.6180 C   0  0  2  0  0  0  0  0  0  0  0  0
   -3.7290   13.3620   -1.4720 C   0  0  0  0  0  0  0  0  0  0  0  0
   -2.8930   14.1680    0.8640 C   0  0  0  0  0  0  0  0  0  0  0  0
   -1.7210   14.6390   -1.3320 C   0  0  1  0  0  0  0  0  0  0  0  0
   -1.6250   15.1540   -2.7010 N   0  0  0  0  0  0  0  0  0  0  0  0
   -0.5650   15.0890   -0.5730 N   0  0  0  0  0  0  0  0  0  0  0  0
   -1.6720   14.7000    1.4740 N   0  0  0  0  0  0  0  0  0  0  0  0
   -1.4650   14.1770   -3.7800 C   0  0  0  0  0  0  0  0  0  0  0  0
   -0.4450   14.5190    0.7400 C   0  0  0  0  0  0  0  0  0  0  0  0
   -1.2060   12.7740   -3.2080 C   0  0  1  0  0  0  0  0  0  0  0  0
   -0.9200   11.8410   -4.2560 O   0  0  0  0  0  0  0  0  0  0  0  0
   -0.0160   12.6910   -2.2570 C   0  0  0  0  0  0  0  0  0  0  0  0
    0.6100   11.3650   -2.5840 C   0  0  0  0  0  0  0  0  0  0  0  0
   -0.3410   10.7420   -3.5720 C   0  0  0  0  0  0  0  0  0  0  0  0
  2  1  1  1
  2  3  1  0
  2  4  1  0
  4  5  1  0
  4  6  1  6
  5  7  1  0
  8  6  1  1
  7  9  1  0
  8  9  1  0
  8 10  1  0
  8 11  1  0
 11 12  1  6
 11 13  1  0
 10 14  1  0
 12 15  1  0
 13 16  1  0
 14 16  1  0
 17 15  1  6
 17 18  1  0
 17 19  1  0
 19 20  1  0
 18 21  1  0
 20 21  1  0
M  END
