ucsf109-ucsf241
     RDKit          3D

 21 25  0  0  0  0  0  0  0  0999 V2000
   -4.4080   13.0660    1.5060 N   0  0  0  0  0  0  0  0  0  0  0  0
   -5.1820   13.9900    0.6510 C   0  0  1  0  0  0  0  0  0  0  0  0
   -4.6660   14.0150   -0.7000 C   0  0  1  0  0  0  0  0  0  0  0  0
   -6.4910   13.6110    0.9100 N   0  0  0  0  0  0  0  0  0  0  0  0
   -7.5690   13.8030   -0.0300 C   0  0  2  0  0  0  0  0  0  0  0  0
   -5.7550   14.7900   -1.2170 C   0  0  2  0  0  0  0  0  0  0  0  0
   -3.1790   14.8850   -0.4650 S   0  0  0  0  0  0  0  0  0  0  0  0
   -6.8080   14.4810    2.0000 N   0  0  0  0  0  0  0  0  0  0  0  0
   -7.0530   14.3290   -1.2540 N   0  0  0  0  0  0  0  0  0  0  0  0
   -5.1290   14.8920   -2.4580 C   0  0  0  0  0  0  0  0  0  0  0  0
   -4.0470   15.7870   -1.8480 C   0  0  0  0  0  0  0  0  0  0  0  0
   -8.5760   14.5830    0.6430 N   0  0  0  0  0  0  0  0  0  0  0  0
   -8.2470   14.4030    2.0420 C   0  0  0  0  0  0  0  0  0  0  0  0
   -3.5980   16.1620    0.9900 C   0  0  0  0  0  0  0  0  0  0  0  0
   -1.9400   15.1060    0.7570 C   0  0  2  0  0  0  0  0  0  0  0  0
   -1.8210   13.6740   -0.3120 C   0  0  0  0  0  0  0  0  0  0  0  0
   -2.3940   14.9150    2.0070 N   0  0  0  0  0  0  0  0  0  0  0  0
   -0.5200   13.9630   -0.8680 C   0  0  0  0  0  0  0  0  0  0  0  0
   -0.6920   15.5780    0.7380 N   0  0  0  0  0  0  0  0  0  0  0  0
   -3.6960   15.3030    2.1190 C   0  0  0  0  0  0  0  0  0  0  0  0
    0.2470   14.6640    0.2860 C   0  0  0  0  0  0  0  0  0  0  0  0
  2  1  1  1
  2  3  1  0
  2  4  1  0
  4  5  1  0
  3  6  1  0
  3  7  1  1
  4  8  1  0
  5  9  1  6
  6  9  1  0
  6 10  1  6
  7 11  1  0
 10 11  1  0
  5 12  1  0
  8 13  1  0
 12 13  1  0
  7 14  1  0
  7 15  1  0
  7 16  1  0
 15 17  1  1
 16 18  1  0
 15 19  1  0
 14 20  1  0
 17 20  1  0
 18 21  1  0
 19 21  1  0
M  END
