ucsf378-ucsf411
     RDKit          3D

 23 25  0  0  0  0  0  0  0  0999 V2000
   -2.2460   14.1840   -3.4140 Cl  0  0  0  0  0  0  0  0  0  0  0  0
   -0.6610   14.5330   -2.6380 C   0  0  1  0  0  0  0  0  0  0  0  0
    0.4340   13.4970   -3.0110 C   0  0  1  0  0  0  0  0  0  0  0  0
   -0.2940   16.0290   -2.8720 C   0  0  0  0  0  0  0  0  0  0  0  0
   -0.1420   12.1160   -3.4070 C   0  0  0  0  0  0  0  0  0  0  0  0
    1.2970   14.0550   -4.1030 C   0  0  2  0  0  0  0  0  0  0  0  0
    0.9070   16.3440   -3.7920 C   0  0  0  0  0  0  0  0  0  0  0  0
    1.8350   13.1440   -5.1460 C   0  0  0  0  0  0  0  0  0  0  0  0
    0.2260   11.1540   -2.2920 C   0  0  1  0  0  0  0  0  0  0  0  0
    1.9920   15.2850   -3.7210 C   0  0  0  0  0  0  0  0  0  0  0  0
    0.2100   11.8640   -1.1980 O   0  0  0  0  0  0  0  0  0  0  0  0
   -0.7870   10.2310   -2.0840 O   0  0  0  0  0  0  0  0  0  0  0  0
    0.9220   13.6230   -6.1240 O   0  0  0  0  0  0  0  0  0  0  0  0
   -0.2510   14.1170   -5.4050 C   0  0  1  0  0  0  0  0  0  0  0  0
   -0.3080   15.6730   -5.1320 C   0  0  2  0  0  0  0  0  0  0  0  0
   -1.5440   13.4510   -5.8690 C   0  0  0  0  0  0  0  0  0  0  0  0
   -1.5720   16.4920   -5.5100 C   0  0  1  0  0  0  0  0  0  0  0  0
   -2.8250   14.3020   -5.9630 C   0  0  0  0  0  0  0  0  0  0  0  0
    0.9510   16.5110   -5.4440 C   0  0  0  0  0  0  0  0  0  0  0  0
   -2.8750   15.7320   -5.4030 C   0  0  0  0  0  0  0  0  0  0  0  0
   -1.5840   17.7660   -4.7380 C   0  0  0  0  0  0  0  0  0  0  0  0
    0.6620   17.9300   -5.9260 C   0  0  0  0  0  0  0  0  0  0  0  0
   -0.3610   18.5980   -5.0340 C   0  0  0  0  0  0  0  0  0  0  0  0
  2  1  1  6
  2  3  1  0
  2  4  1  0
  3  5  1  6
  3  6  1  0
  4  7  1  0
  6  8  1  1
  5  9  1  0
  6 10  1  0
  7 10  1  0
  9 11  1  1
  9 12  1  0
  8 13  1  0
 14 13  1  6
 14 15  1  0
 14 16  1  0
 15 17  1  0
 16 18  1  0
 15 19  1  6
 17 20  1  1
 18 20  1  0
 17 21  1  0
 19 22  1  0
 21 23  1  0
 22 23  1  0
M  CHG  1  11  -1
M  END
