ucsf345-ucsf403
     RDKit          3D

 24 25  0  0  0  0  0  0  0  0999 V2000
   -6.7830   14.6360    1.4500 N   0  0  0  0  0  0  0  0  0  0  0  0
   -6.9240   14.8640    0.0190 C   0  0  2  0  0  0  0  0  0  0  0  0
   -7.5280   13.7280   -0.5200 O   0  0  0  0  0  0  0  0  0  0  0  0
   -5.5690   15.1930   -0.6790 C   0  0  2  0  0  0  0  0  0  0  0  0
   -5.5490   14.6770   -2.0740 N   0  0  0  0  0  0  0  0  0  0  0  0
   -4.3530   14.6690    0.1430 C   0  0  0  0  0  0  0  0  0  0  0  0
   -4.2430   15.0230   -2.6720 C   0  0  0  0  0  0  0  0  0  0  0  0
   -3.0410   14.9290   -0.4830 N   0  0  0  0  0  0  0  0  0  0  0  0
   -2.9990   14.5040   -1.8950 C   0  0  1  0  0  0  0  0  0  0  0  0
   -2.8690   12.9730   -2.0240 C   0  0  0  0  0  0  0  0  0  0  0  0
   -3.3470   12.4090   -3.3740 C   0  0  0  0  0  0  0  0  0  0  0  0
   -2.2910   12.4950   -4.4920 C   0  0  0  0  0  0  0  0  0  0  0  0
   -1.7220   11.1370   -4.9650 C   0  0  2  0  0  0  0  0  0  0  0  0
   -0.8930   11.3010   -6.2610 C   0  0  1  0  0  0  0  0  0  0  0  0
   -2.7770   10.0070   -5.0800 C   0  0  0  0  0  0  0  0  0  0  0  0
    0.5240   11.3350   -5.9710 O   0  0  0  0  0  0  0  0  0  0  0  0
   -3.5200    9.9380   -6.4160 C   0  0  0  0  0  0  0  0  0  0  0  0
   -1.2010   10.1290   -7.2050 C   0  0  2  0  0  0  0  0  0  0  0  0
    0.0070    9.8830   -8.5330 Cl  0  0  0  0  0  0  0  0  0  0  0  0
    0.9440   12.3920   -5.0770 C   0  0  0  0  0  0  0  0  0  0  0  0
   -2.6280   10.1330   -7.6370 C   0  0  0  0  0  0  0  0  0  0  0  0
    1.5420   11.8430   -3.7410 C   0  0  1  0  0  0  0  0  0  0  0  0
    1.4140   12.6900   -2.7460 O   0  0  0  0  0  0  0  0  0  0  0  0
    0.7410   10.7850   -3.2470 O   0  0  0  0  0  0  0  0  0  0  0  0
  2  1  1  1
  2  3  1  0
  2  4  1  0
  4  5  1  0
  4  6  1  1
  5  7  1  0
  6  8  1  0
  7  9  1  0
  8  9  1  0
  9 10  1  1
 10 11  1  0
 11 12  1  0
 13 12  1  6
 13 14  1  0
 13 15  1  0
 14 16  1  1
 15 17  1  0
 14 18  1  0
 18 19  1  6
 16 20  1  0
 17 21  1  0
 18 21  1  0
 20 22  1  0
 22 23  1  1
 22 24  1  0
M  CHG  1  23  -1
M  END
