ucsf378
     RDKit          3D

 12 12  0  0  0  0  0  0  0  0999 V2000
   -2.2710   14.0830   -3.9800 Cl  0  0  0  0  0  0  0  0  0  0  0  0
    3.0610   12.7880   -4.5020 Cl  0  0  0  0  0  0  0  0  0  0  0  0
    0.4650   12.1390   -1.7880 O   0  0  0  0  0  0  0  0  0  0  0  0
    0.1460   11.4450   -2.7840 C   0  0  0  0  0  0  0  0  0  0  0  0
   -0.1480   10.2250   -2.6730 O   0  0  0  0  0  0  0  0  0  0  0  0
    0.0750   12.0610   -4.1830 C   0  0  0  0  0  0  0  0  0  0  0  0
    0.4180   13.5580   -4.2660 C   0  0  0  0  0  0  0  0  0  0  0  0
   -0.5730   14.5160   -4.1910 C   0  0  0  0  0  0  0  0  0  0  0  0
   -0.2680   15.8450   -4.2740 C   0  0  0  0  0  0  0  0  0  0  0  0
    1.0390   16.2360   -4.4360 C   0  0  0  0  0  0  0  0  0  0  0  0
    2.0430   15.3050   -4.4770 C   0  0  0  0  0  0  0  0  0  0  0  0
    1.7340   13.9770   -4.4170 C   0  0  0  0  0  0  0  0  0  0  0  0
  3  4  1  0
  4  5  1  0
  4  6  1  0
  6  7  1  0
  1  8  1  0
  7  8  1  0
  8  9  1  0
  9 10  1  0
 10 11  1  0
  2 12  1  0
  7 12  1  0
 11 12  1  0
M  CHG  1   3  -1
M  END
