ucsf411-ucsf336
     RDKit          3D

 22 24  0  0  0  0  0  0  0  0999 V2000
    0.8650   10.7450   -3.1020 O   0  0  0  0  0  0  0  0  0  0  0  0
    0.5380   11.8820   -3.6530 C   0  0  1  0  0  0  0  0  0  0  0  0
    0.0300   12.5430   -2.5380 O   0  0  0  0  0  0  0  0  0  0  0  0
    1.6880   12.7740   -4.2290 C   0  0  0  0  0  0  0  0  0  0  0  0
   -0.5000   11.5940   -4.6550 N   0  0  0  0  0  0  0  0  0  0  0  0
    1.3190   14.1720   -4.3900 O   0  0  0  0  0  0  0  0  0  0  0  0
   -0.6110   10.3330   -5.4040 C   0  0  0  0  0  0  0  0  0  0  0  0
    0.0910   14.4490   -5.1030 C   0  0  2  0  0  0  0  0  0  0  0  0
   -0.2410   10.4530   -6.8960 C   0  0  0  0  0  0  0  0  0  0  0  0
   -2.0630    9.8790   -5.2330 C   0  0  0  0  0  0  0  0  0  0  0  0
   -0.1100   15.9810   -5.2680 C   0  0  1  0  0  0  0  0  0  0  0  0
   -1.0900   13.7890   -4.3960 C   0  0  0  0  0  0  0  0  0  0  0  0
   -0.7170    9.2450   -7.7120 C   0  0  0  0  0  0  0  0  0  0  0  0
   -2.6520    8.8430   -6.1900 C   0  0  0  0  0  0  0  0  0  0  0  0
   -1.5590   16.5520   -5.2980 C   0  0  1  0  0  0  0  0  0  0  0  0
   -2.4330   14.3020   -4.8680 C   0  0  0  0  0  0  0  0  0  0  0  0
    0.8090   16.8570   -4.4540 C   0  0  0  0  0  0  0  0  0  0  0  0
   -2.2190    9.0130   -7.6250 C   0  0  0  0  0  0  0  0  0  0  0  0
   -2.5750   15.7600   -4.4860 C   0  0  0  0  0  0  0  0  0  0  0  0
   -1.4950   18.0620   -5.1040 C   0  0  0  0  0  0  0  0  0  0  0  0
    1.0120   18.1440   -5.2320 C   0  0  0  0  0  0  0  0  0  0  0  0
   -0.3000   18.6090   -5.8690 C   0  0  0  0  0  0  0  0  0  0  0  0
  2  1  1  1
  2  3  1  0
  2  4  1  0
  2  5  1  0
  4  6  1  0
  5  7  1  0
  8  6  1  1
  7  9  1  0
  7 10  1  0
  8 11  1  0
  8 12  1  0
  9 13  1  0
 10 14  1  0
 11 15  1  0
 12 16  1  0
 11 17  1  1
 13 18  1  0
 14 18  1  0
 15 19  1  1
 16 19  1  0
 15 20  1  0
 17 21  1  0
 20 22  1  0
 21 22  1  0
M  CHG  1   1  -1
M  END
