ucsf241-ucsf519
     RDKit          3D

 19 20  0  0  0  0  0  0  0  0999 V2000
   -0.7070   15.9470   -4.5660 C   0  0  0  0  0  0  0  0  0  0  0  0
   -1.1420   14.6680   -3.8190 C   0  0  2  0  0  0  0  0  0  0  0  0
   -0.6210   13.2650   -4.9060 S   0  0  0  0  0  0  0  0  0  0  0  0
   -2.6740   14.7410   -3.3790 C   0  0  2  0  0  0  0  0  0  0  0  0
    0.6740   12.3890   -3.8910 C   0  0  0  0  0  0  0  0  0  0  0  0
   -3.1900   15.9770   -3.8920 O   0  0  0  0  0  0  0  0  0  0  0  0
   -3.0150   14.5850   -1.8460 C   0  0  2  0  0  0  0  0  0  0  0  0
    0.1310   11.6580   -2.6160 C   0  0  2  0  0  0  0  0  0  0  0  0
   -4.1400   15.3120   -1.0660 C   0  0  0  0  0  0  0  0  0  0  0  0
   -1.8360   14.8980   -0.9680 C   0  0  1  0  0  0  0  0  0  0  0  0
    0.7690   12.1980   -1.4830 O   0  0  0  0  0  0  0  0  0  0  0  0
    0.5260   10.3940   -2.5340 O   0  0  0  0  0  0  0  0  0  0  0  0
   -1.0510   15.9910   -1.4740 O   0  0  0  0  0  0  0  0  0  0  0  0
   -2.4140   15.3090    0.4180 C   0  0  1  0  0  0  0  0  0  0  0  0
   -3.8330   15.0290    0.3750 N   0  0  0  0  0  0  0  0  0  0  0  0
   -0.8940   13.7460   -0.8690 C   0  0  0  0  0  0  0  0  0  0  0  0
    0.2360   14.1310    0.0300 C   0  0  0  0  0  0  0  0  0  0  0  0
   -1.7410   14.5590    1.4520 N   0  0  0  0  0  0  0  0  0  0  0  0
   -0.3050   14.8080    1.2630 C   0  0  0  0  0  0  0  0  0  0  0  0
  2  1  1  6
  2  3  1  0
  2  4  1  0
  3  5  1  0
  4  6  1  1
  4  7  1  0
  5  8  1  0
  7  9  1  1
  7 10  1  0
  8 11  1  1
  8 12  1  0
 10 13  1  6
 10 14  1  0
  9 15  1  0
 14 15  1  6
 10 16  1  0
 16 17  1  0
 14 18  1  0
 17 19  1  0
 18 19  1  0
M  CHG  1  12  -1
M  END
