ucsf345-ucsf337
     RDKit          3D

 10 10  0  0  0  0  0  0  0  0999 V2000
   -6.7110   14.7930    1.8080 N   0  0  0  0  0  0  0  0  0  0  0  0
   -6.8210   14.6750    0.3520 C   0  0  2  0  0  0  0  0  0  0  0  0
   -7.8220   13.7050    0.1180 O   0  0  0  0  0  0  0  0  0  0  0  0
   -5.4860   14.3460   -0.3760 C   0  0  1  0  0  0  0  0  0  0  0  0
   -5.7080   14.5710   -1.8370 N   0  0  0  0  0  0  0  0  0  0  0  0
   -4.2750   15.1350    0.2040 C   0  0  0  0  0  0  0  0  0  0  0  0
   -4.5220   14.3250   -2.5950 C   0  0  1  0  0  0  0  0  0  0  0  0
   -3.0490   14.8790   -0.5690 N   0  0  0  0  0  0  0  0  0  0  0  0
   -4.8910   14.7640   -3.9090 N   0  0  0  0  0  0  0  0  0  0  0  0
   -3.2990   15.0970   -2.0130 C   0  0  0  0  0  0  0  0  0  0  0  0
  2  1  1  1
  2  3  1  0
  2  4  1  0
  4  5  1  0
  4  6  1  1
  5  7  1  0
  6  8  1  0
  7  9  1  6
  7 10  1  0
  8 10  1  0
M  END
