ucsf303-ucsf260
     RDKit          3D

 30 33  0  0  0  0  0  0  0  0999 V2000
   -3.5020   14.2210   -3.4620 O   0  0  0  0  0  0  0  0  0  0  0  0
   -4.5130   14.4980   -2.2500 S   0  0  0  0  0  0  0  0  0  0  0  0
   -5.4380   15.6680   -2.7360 O   0  0  0  0  0  0  0  0  0  0  0  0
   -5.4660   13.2360   -1.8440 N   0  0  0  0  0  0  0  0  0  0  0  0
   -3.5800   15.2620   -1.0210 C   0  0  0  0  0  0  0  0  0  0  0  0
   -5.1080   11.9840   -2.3850 C   0  0  2  0  0  0  0  0  0  0  0  0
   -2.2080   14.6160   -0.8920 C   0  0  0  0  0  0  0  0  0  0  0  0
   -4.4060   15.1980    0.2580 C   0  0  0  0  0  0  0  0  0  0  0  0
   -5.3250   10.8170   -1.5030 N   0  0  0  0  0  0  0  0  0  0  0  0
   -3.3670   11.9650   -2.6640 S   0  0  0  0  0  0  0  0  0  0  0  0
   -2.0980   13.9600    0.4450 C   0  0  0  0  0  0  0  0  0  0  0  0
   -3.6320   15.6840    1.4420 C   0  0  0  0  0  0  0  0  0  0  0  0
   -3.7810   10.3430   -3.2230 C   0  0  2  0  0  0  0  0  0  0  0  0
   -4.4250    9.7360   -2.0270 N   0  0  0  0  0  0  0  0  0  0  0  0
   -2.3820   14.8440    1.6260 C   0  0  0  0  0  0  0  0  0  0  0  0
   -2.5800    9.7640   -4.0280 C   0  0  0  0  0  0  0  0  0  0  0  0
   -2.2010   10.4890   -5.2680 N   0  0  0  0  0  0  0  0  0  0  0  0
   -1.7910   11.8600   -4.9170 C   0  0  0  0  0  0  0  0  0  0  0  0
   -1.0160    9.9970   -5.9840 C   0  0  2  0  0  0  0  0  0  0  0  0
   -0.9140   12.3600   -5.9810 N   0  0  0  0  0  0  0  0  0  0  0  0
   -0.6780   11.2010   -6.8740 C   0  0  1  0  0  0  0  0  0  0  0  0
   -1.2580    8.7430   -6.8290 C   0  0  0  0  0  0  0  0  0  0  0  0
    0.2160   13.1910   -5.4750 C   0  0  0  0  0  0  0  0  0  0  0  0
   -0.5230    8.7780   -8.1730 C   0  0  0  0  0  0  0  0  0  0  0  0
    0.6680   10.9860   -7.5520 C   0  0  0  0  0  0  0  0  0  0  0  0
    1.2050   12.4470   -4.5800 C   0  0  0  0  0  0  0  0  0  0  0  0
    0.7910    9.5780   -8.1390 C   0  0  0  0  0  0  0  0  0  0  0  0
    0.7550   12.2800   -3.1010 C   0  0  1  0  0  0  0  0  0  0  0  0
    0.7370   11.0200   -2.7140 O   0  0  0  0  0  0  0  0  0  0  0  0
    1.7680   12.7960   -2.2670 O   0  0  0  0  0  0  0  0  0  0  0  0
  2  1  1  0
  2  3  1  0
  2  4  1  0
  2  5  1  0
  6  4  1  1
  5  7  1  0
  5  8  1  0
  6  9  1  0
  6 10  1  0
  7 11  1  0
  8 12  1  0
 10 13  1  0
  9 14  1  0
 13 14  1  0
 11 15  1  0
 12 15  1  0
 13 16  1  1
 16 17  1  0
 17 18  1  0
 17 19  1  0
 18 20  1  0
 19 21  1  0
 20 21  1  0
 19 22  1  6
 20 23  1  0
 22 24  1  0
 21 25  1  1
 23 26  1  0
 24 27  1  0
 25 27  1  0
 26 28  1  0
 28 29  1  1
 28 30  1  0
M  CHG  1  29  -1
M  END
