ucsf243-ucsf013
     RDKit          3D

 16 17  0  0  0  0  0  0  0  0999 V2000
   -3.9440   13.2910    0.4070 C   0  0  0  0  0  0  0  0  0  0  0  0
   -4.2130   14.8220   -0.7810 S   0  0  0  0  0  0  0  0  0  0  0  0
   -3.6970   15.5400   -2.3950 C   0  0  0  0  0  0  0  0  0  0  0  0
   -2.3960   15.2640   -0.9890 C   0  0  0  0  0  0  0  0  0  0  0  0
   -4.7330   15.7250    0.6980 C   0  0  0  0  0  0  0  0  0  0  0  0
   -5.9670   15.5310   -0.9380 C   0  0  0  0  0  0  0  0  0  0  0  0
   -1.5830   15.0430   -2.1400 C   0  0  1  0  0  0  0  0  0  0  0  0
   -3.3570   14.4000   -3.2600 C   0  0  0  0  0  0  0  0  0  0  0  0
   -7.0410   14.9630   -0.2500 N   0  0  0  0  0  0  0  0  0  0  0  0
   -5.7050   15.1180    1.4150 N   0  0  0  0  0  0  0  0  0  0  0  0
   -0.1850   14.4090   -1.8780 C   0  0  1  0  0  0  0  0  0  0  0  0
   -1.9380   14.2470   -3.3790 C   0  0  1  0  0  0  0  0  0  0  0  0
   -6.5660   14.1210    0.8640 C   0  0  0  0  0  0  0  0  0  0  0  0
   -1.4200   14.9170   -4.5200 O   0  0  0  0  0  0  0  0  0  0  0  0
    0.3970   14.1890   -3.1250 O   0  0  0  0  0  0  0  0  0  0  0  0
    0.6300   15.2920   -1.1950 O   0  0  0  0  0  0  0  0  0  0  0  0
  1  2  1  0
  2  3  1  0
  2  4  1  0
  2  5  1  0
  2  6  1  0
  7  4  1  1
  3  8  1  0
  6  9  1  0
  5 10  1  0
  7 11  1  0
  7 12  1  0
  8 12  1  0
  9 13  1  0
 10 13  1  0
 12 14  1  6
 11 15  1  6
 11 16  1  0
M  CHG  1  16  -1
M  END
