ucsf493-ucsf016
     RDKit          3D

 31 36  0  0  0  0  0  0  0  0999 V2000
   -4.3830   15.3860   -6.1030 C   0  0  0  0  0  0  0  0  0  0  0  0
   -3.4990   16.4610   -6.2580 O   0  0  0  0  0  0  0  0  0  0  0  0
   -2.3430   16.5300   -5.4680 C   0  0  1  0  0  0  0  0  0  0  0  0
   -1.5430   15.2190   -5.3960 C   0  0  0  0  0  0  0  0  0  0  0  0
   -1.5980   17.7190   -5.9690 C   0  0  0  0  0  0  0  0  0  0  0  0
   -0.0750   15.2050   -5.4100 C   0  0  1  0  0  0  0  0  0  0  0  0
   -0.4350   17.8170   -4.9850 C   0  0  0  0  0  0  0  0  0  0  0  0
    0.3710   16.5810   -5.1570 C   0  0  1  0  0  0  0  0  0  0  0  0
    0.5570   14.0080   -4.1490 S   0  0  0  0  0  0  0  0  0  0  0  0
    0.7090   12.1680   -4.7140 C   0  0  0  0  0  0  0  0  0  0  0  0
    1.0660   16.4650   -4.0120 N   0  0  0  0  0  0  0  0  0  0  0  0
    1.6700   15.3750   -4.6950 C   0  0  0  0  0  0  0  0  0  0  0  0
   -1.1720   13.6060   -3.7230 C   0  0  0  0  0  0  0  0  0  0  0  0
    0.3500   14.3470   -2.3650 C   0  0  0  0  0  0  0  0  0  0  0  0
    0.2910   11.4220   -3.5730 C   0  0  1  0  0  0  0  0  0  0  0  0
   -2.0550   14.6280   -3.6110 C   0  0  0  0  0  0  0  0  0  0  0  0
   -0.6390   15.2410   -2.0810 N   0  0  0  0  0  0  0  0  0  0  0  0
    0.2070   10.0630   -3.8100 O   0  0  0  0  0  0  0  0  0  0  0  0
    0.8630   11.5820   -2.3300 O   0  0  0  0  0  0  0  0  0  0  0  0
   -3.6190   14.4640   -3.6070 C   0  0  0  0  0  0  0  0  0  0  0  0
   -2.9620   14.8000   -4.8530 C   0  0  0  0  0  0  0  0  0  0  0  0
   -1.5770   15.8320   -2.9340 C   0  0  0  0  0  0  0  0  0  0  0  0
   -1.0970   14.9300   -0.8080 C   0  0  1  0  0  0  0  0  0  0  0  0
   -0.1270   15.1550    0.1710 N   0  0  0  0  0  0  0  0  0  0  0  0
   -2.3340   15.5380   -0.4190 C   0  0  2  0  0  0  0  0  0  0  0  0
   -0.3340   14.3260    1.3090 C   0  0  0  0  0  0  0  0  0  0  0  0
   -2.5000   15.3930    1.0000 C   0  0  2  0  0  0  0  0  0  0  0  0
   -3.5480   14.7700   -0.9190 C   0  0  0  0  0  0  0  0  0  0  0  0
   -1.7450   14.3180    1.6040 N   0  0  0  0  0  0  0  0  0  0  0  0
   -3.8860   15.4420    1.3730 N   0  0  0  0  0  0  0  0  0  0  0  0
   -4.6090   15.2070    0.1060 C   0  0  0  0  0  0  0  0  0  0  0  0
  1  2  1  0
  3  2  1  6
  3  4  1  0
  3  5  1  0
  6  4  1  1
  5  7  1  0
  6  8  1  0
  8  7  1  1
  6  9  1  0
  9 10  1  0
  8 11  1  0
  9 12  1  0
 11 12  1  0
  9 13  1  0
  9 14  1  0
 10 15  1  0
 16 13  1  0
 14 17  1  0
 15 18  1  6
 15 19  1  0
 16 20  1  0
 16 21  1  0
 20 21  1  0
 16 22  1  0
 17 22  1  0
 23 17  1  6
 23 24  1  0
 23 25  1  0
 24 26  1  0
 25 27  1  0
 25 28  1  6
 26 29  1  0
 27 29  1  6
 27 30  1  0
 28 31  1  0
 30 31  1  0
M  CHG  1  19  -1
M  END
