ucsf385-ucsf138
     RDKit          3D

 25 26  0  0  0  0  0  0  0  0999 V2000
   -3.4490   15.1590   -1.4360 N   0  0  0  0  0  0  0  0  0  0  0  0
   -2.6630   14.2860   -0.5280 C   0  0  2  0  0  0  0  0  0  0  0  0
   -2.6730   14.8850    0.8900 C   0  0  0  0  0  0  0  0  0  0  0  0
   -1.1920   13.9980   -0.9770 C   0  0  1  0  0  0  0  0  0  0  0  0
   -0.8960   14.3110   -2.4850 C   0  0  2  0  0  0  0  0  0  0  0  0
   -0.1720   14.6250   -0.0040 C   0  0  0  0  0  0  0  0  0  0  0  0
   -1.8280   14.1270    1.8010 N   0  0  0  0  0  0  0  0  0  0  0  0
    0.4240   14.8860   -2.5290 O   0  0  0  0  0  0  0  0  0  0  0  0
   -1.7620   15.1940   -2.9370 O   0  0  0  0  0  0  0  0  0  0  0  0
   -0.4110   14.1320    1.4160 C   0  0  0  0  0  0  0  0  0  0  0  0
    1.5000   13.9340   -2.6360 C   0  0  0  0  0  0  0  0  0  0  0  0
    1.1620   12.6160   -2.1640 O   0  0  0  0  0  0  0  0  0  0  0  0
    0.3240   11.8850   -3.0520 C   0  0  2  0  0  0  0  0  0  0  0  0
    0.4100   10.4890   -2.7420 O   0  0  0  0  0  0  0  0  0  0  0  0
    0.7680   12.1620   -4.5230 C   0  0  0  0  0  0  0  0  0  0  0  0
    0.2430   11.1720   -5.4970 N   0  0  0  0  0  0  0  0  0  0  0  0
    0.8750   11.3070   -6.7740 C   0  0  2  0  0  0  0  0  0  0  0  0
    0.7030   12.5970   -7.1710 O   0  0  0  0  0  0  0  0  0  0  0  0
    0.0840   10.4760   -7.6450 N   0  0  0  0  0  0  0  0  0  0  0  0
    0.8090   10.0590   -8.8660 C   0  0  0  0  0  0  0  0  0  0  0  0
   -0.0690   10.1420  -10.1310 C   0  0  0  0  0  0  0  0  0  0  0  0
    1.3830    8.6450   -8.6520 C   0  0  0  0  0  0  0  0  0  0  0  0
    0.6420    9.5750  -11.3600 C   0  0  0  0  0  0  0  0  0  0  0  0
    2.0970    8.0900   -9.8830 C   0  0  0  0  0  0  0  0  0  0  0  0
    1.1970    8.1690  -11.1120 C   0  0  0  0  0  0  0  0  0  0  0  0
  2  1  1  6
  2  3  1  0
  2  4  1  0
  4  5  1  0
  4  6  1  1
  3  7  1  0
  5  8  1  0
  5  9  1  1
  6 10  1  0
  7 10  1  0
  8 11  1  0
 11 12  1  0
 12 13  1  0
 13 14  1  1
 13 15  1  0
 15 16  1  0
 16 17  1  0
 17 18  1  6
 17 19  1  0
 19 20  1  0
 20 21  1  0
 20 22  1  0
 21 23  1  0
 22 24  1  0
 23 25  1  0
 24 25  1  0
M  CHG  1   9  -1
M  END
