ucsf357-ucsf264
     RDKit          3D

 29 31  0  0  0  0  0  0  0  0999 V2000
   -5.9930   15.0500   -2.2180 O   0  0  0  0  0  0  0  0  0  0  0  0
   -5.4020   15.4030   -1.0990 C   0  0  1  0  0  0  0  0  0  0  0  0
   -6.2840   14.8950   -0.1310 O   0  0  0  0  0  0  0  0  0  0  0  0
   -4.0000   14.7300   -1.0220 C   0  0  1  0  0  0  0  0  0  0  0  0
   -3.2150   14.9700   -2.3210 C   0  0  0  0  0  0  0  0  0  0  0  0
   -3.1800   15.1020    0.2250 C   0  0  0  0  0  0  0  0  0  0  0  0
   -1.7520   14.5330   -2.3740 C   0  0  1  0  0  0  0  0  0  0  0  0
   -1.6850   14.7570    0.2550 C   0  0  0  0  0  0  0  0  0  0  0  0
   -1.1320   15.1810   -3.3890 F   0  0  0  0  0  0  0  0  0  0  0  0
   -0.9090   14.6440   -1.0740 C   0  0  1  0  0  0  0  0  0  0  0  0
    0.0320   13.5450   -0.8680 O   0  0  0  0  0  0  0  0  0  0  0  0
    1.1510   13.5170   -1.7320 C   0  0  0  0  0  0  0  0  0  0  0  0
    0.6610   13.6210   -3.0380 O   0  0  0  0  0  0  0  0  0  0  0  0
    1.1350   12.6040   -3.8810 C   0  0  1  0  0  0  0  0  0  0  0  0
    0.6500   11.3670   -3.3490 O   0  0  0  0  0  0  0  0  0  0  0  0
    0.6280   12.7890   -5.3180 C   0  0  0  0  0  0  0  0  0  0  0  0
    0.3690   11.5350   -6.0330 N   0  0  0  0  0  0  0  0  0  0  0  0
    1.2220   11.4710   -7.2060 N   0  0  0  0  0  0  0  0  0  0  0  0
   -1.0060   11.3370   -6.4980 C   0  0  1  0  0  0  0  0  0  0  0  0
    0.6730   10.3240   -7.9550 C   0  0  1  0  0  0  0  0  0  0  0  0
   -0.8300   10.5180   -7.8030 C   0  0  1  0  0  0  0  0  0  0  0  0
   -1.9070   10.7410   -5.4020 C   0  0  0  0  0  0  0  0  0  0  0  0
    1.0610   10.1500   -9.4280 C   0  0  0  0  0  0  0  0  0  0  0  0
   -1.5800    9.1920   -7.9780 C   0  0  0  0  0  0  0  0  0  0  0  0
   -2.6990    9.5000   -5.7920 C   0  0  0  0  0  0  0  0  0  0  0  0
    1.8250    9.0530   -9.5980 F   0  0  0  0  0  0  0  0  0  0  0  0
   -0.0230    9.9950  -10.2060 F   0  0  0  0  0  0  0  0  0  0  0  0
    1.7060   11.2070   -9.9370 F   0  0  0  0  0  0  0  0  0  0  0  0
   -1.9090    8.5490   -6.6540 C   0  0  0  0  0  0  0  0  0  0  0  0
  2  1  1  6
  2  3  1  0
  2  4  1  0
  4  5  1  6
  4  6  1  0
  5  7  1  0
  6  8  1  0
  7  9  1  6
  7 10  1  0
  8 10  1  0
 10 11  1  1
 11 12  1  0
 12 13  1  0
 13 14  1  0
 14 15  1  1
 14 16  1  0
 16 17  1  0
 17 18  1  0
 17 19  1  0
 18 20  1  0
 19 21  1  0
 20 21  1  0
 19 22  1  1
 20 23  1  6
 21 24  1  1
 22 25  1  0
 23 26  1  0
 23 27  1  0
 23 28  1  0
 24 29  1  0
 25 29  1  0
M  CHG  1   1  -1
M  END
