ucsf264-ucsf523
     RDKit          3D

 32 35  0  0  0  0  0  0  0  0999 V2000
    0.7340   12.9490   -2.3880 O   0  0  0  0  0  0  0  0  0  0  0  0
    1.1870   12.2110   -3.3670 C   0  0  1  0  0  0  0  0  0  0  0  0
    0.5750   10.9810   -3.0110 O   0  0  0  0  0  0  0  0  0  0  0  0
    0.7470   12.6550   -4.8440 C   0  0  2  0  0  0  0  0  0  0  0  0
   -0.4240   13.6980   -4.8790 C   0  0  0  0  0  0  0  0  0  0  0  0
    0.4240   11.5290   -5.7910 N   0  0  0  0  0  0  0  0  0  0  0  0
   -0.5520   14.5550   -3.6210 C   0  0  0  0  0  0  0  0  0  0  0  0
    1.2170   11.5440   -7.0160 N   0  0  0  0  0  0  0  0  0  0  0  0
   -0.9760   11.3120   -6.1450 C   0  0  1  0  0  0  0  0  0  0  0  0
   -1.3700   13.8460   -2.6740 O   0  0  0  0  0  0  0  0  0  0  0  0
    0.3160   11.1400   -8.1340 C   0  0  2  0  0  0  0  0  0  0  0  0
   -0.9260   10.5510   -7.4670 C   0  0  1  0  0  0  0  0  0  0  0  0
   -1.7050   10.5410   -5.0300 C   0  0  0  0  0  0  0  0  0  0  0  0
    0.9210   10.2930   -9.2560 C   0  0  0  0  0  0  0  0  0  0  0  0
   -0.9690    9.0290   -7.3010 C   0  0  0  0  0  0  0  0  0  0  0  0
   -2.7950    9.6600   -5.6230 C   0  0  0  0  0  0  0  0  0  0  0  0
   -1.7490   14.6190   -1.5490 C   0  0  2  0  0  0  0  0  0  0  0  0
    1.5710    9.1870   -8.8060 F   0  0  0  0  0  0  0  0  0  0  0  0
   -0.0200    9.8550  -10.1170 F   0  0  0  0  0  0  0  0  0  0  0  0
    1.7630   11.0050  -10.0280 F   0  0  0  0  0  0  0  0  0  0  0  0
   -2.2230    8.5800   -6.5420 C   0  0  0  0  0  0  0  0  0  0  0  0
   -0.6320   14.6750   -0.5960 N   0  0  0  0  0  0  0  0  0  0  0  0
   -3.1110   14.1160   -1.0420 C   0  0  1  0  0  0  0  0  0  0  0  0
   -0.8820   14.9960    0.7740 C   0  0  2  0  0  0  0  0  0  0  0  0
   -3.0260   13.9770    0.4870 C   0  0  1  0  0  0  0  0  0  0  0  0
   -4.3280   14.8530   -1.5130 N   0  0  0  0  0  0  0  0  0  0  0  0
   -0.1420   14.1160    1.6190 N   0  0  0  0  0  0  0  0  0  0  0  0
   -2.2640   15.0090    1.1300 N   0  0  0  0  0  0  0  0  0  0  0  0
   -4.3290   13.9300    1.1540 N   0  0  0  0  0  0  0  0  0  0  0  0
   -4.7760   15.7650   -0.4440 C   0  0  0  0  0  0  0  0  0  0  0  0
   -5.0930   15.1290    0.9450 C   0  0  1  0  0  0  0  0  0  0  0  0
   -6.4630   14.8200    1.1340 O   0  0  0  0  0  0  0  0  0  0  0  0
  2  1  1  1
  2  3  1  0
  2  4  1  0
  4  5  1  1
  4  6  1  0
  5  7  1  0
  6  8  1  0
  6  9  1  0
  7 10  1  0
  8 11  1  0
  9 12  1  0
 11 12  1  0
  9 13  1  1
 11 14  1  6
 12 15  1  1
 13 16  1  0
 17 10  1  6
 14 18  1  0
 14 19  1  0
 14 20  1  0
 15 21  1  0
 16 21  1  0
 17 22  1  0
 17 23  1  0
 22 24  1  0
 23 25  1  0
 23 26  1  1
 24 27  1  1
 24 28  1  0
 25 28  1  1
 25 29  1  0
 26 30  1  0
 29 31  1  0
 30 31  1  0
 31 32  1  6
M  CHG  1   1  -1
M  END
