ucsf404-ucsf520
     RDKit          3D

 22 25  0  0  0  0  0  0  0  0999 V2000
   -5.5370   14.3670   -2.8170 Cl  0  0  0  0  0  0  0  0  0  0  0  0
   -4.6320   15.3540   -1.6260 C   0  0  1  0  0  0  0  0  0  0  0  0
   -4.9300   15.0680   -0.1090 C   0  0  1  0  0  0  0  0  0  0  0  0
   -3.1040   15.6440   -1.8950 C   0  0  2  0  0  0  0  0  0  0  0  0
   -2.2600   14.8460   -2.9800 C   0  0  0  0  0  0  0  0  0  0  0  0
   -6.2480   14.4470    0.2000 N   0  0  0  0  0  0  0  0  0  0  0  0
   -3.8010   14.4870    0.7980 C   0  0  1  0  0  0  0  0  0  0  0  0
   -2.4860   15.9090   -0.4980 C   0  0  1  0  0  0  0  0  0  0  0  0
   -3.4040   16.4970    0.4970 N   0  0  0  0  0  0  0  0  0  0  0  0
   -6.1330   13.6990    1.4230 C   0  0  1  0  0  0  0  0  0  0  0  0
   -4.4870   12.9940    1.4950 S   0  0  0  0  0  0  0  0  0  0  0  0
   -2.3360   14.6440    0.2680 C   0  0  1  0  0  0  0  0  0  0  0  0
   -1.6080   15.6360   -4.1710 C   0  0  1  0  0  0  0  0  0  0  0  0
   -6.3810   14.6920    2.4310 N   0  0  0  0  0  0  0  0  0  0  0  0
   -1.6760   17.0790   -3.9560 O   0  0  0  0  0  0  0  0  0  0  0  0
   -0.1100   15.3610   -4.3570 C   0  0  0  0  0  0  0  0  0  0  0  0
   -1.3620   14.8210    1.3750 N   0  0  0  0  0  0  0  0  0  0  0  0
   -1.6090   13.6270   -0.5990 C   0  0  0  0  0  0  0  0  0  0  0  0
    0.4000   16.6080   -5.0470 C   0  0  0  0  0  0  0  0  0  0  0  0
   -0.5100   17.6980   -4.5260 C   0  0  0  0  0  0  0  0  0  0  0  0
   -0.2520   14.1740   -0.5700 N   0  0  0  0  0  0  0  0  0  0  0  0
   -0.0650   14.4960    0.8320 C   0  0  0  0  0  0  0  0  0  0  0  0
  2  1  1  6
  2  3  1  0
  2  4  1  0
  4  5  1  1
  3  6  1  6
  3  7  1  0
  4  8  1  0
  8  9  1  1
  6 10  1  0
  7 11  1  6
 10 11  1  0
  7 12  1  0
  8 12  1  0
 13  5  1  1
 10 14  1  1
 13 15  1  0
 13 16  1  0
 12 17  1  0
 12 18  1  6
 16 19  1  0
 15 20  1  0
 19 20  1  0
 18 21  1  0
 17 22  1  0
 21 22  1  0
M  END
