ucsf493-ucsf110
     RDKit          3D

 26 29  0  0  0  0  0  0  0  0999 V2000
   -4.5180   15.2470   -6.0730 C   0  0  0  0  0  0  0  0  0  0  0  0
   -3.6930   16.4000   -6.1710 O   0  0  0  0  0  0  0  0  0  0  0  0
   -2.5750   16.3710   -5.2940 C   0  0  1  0  0  0  0  0  0  0  0  0
   -1.9720   14.9670   -5.2170 C   0  0  0  0  0  0  0  0  0  0  0  0
   -1.6120   17.5040   -5.7590 C   0  0  0  0  0  0  0  0  0  0  0  0
   -0.6390   15.1330   -4.5550 C   0  0  2  0  0  0  0  0  0  0  0  0
   -0.0830   17.3150   -5.5770 C   0  0  0  0  0  0  0  0  0  0  0  0
    0.3950   15.8880   -5.3170 C   0  0  1  0  0  0  0  0  0  0  0  0
    0.1180   13.9690   -3.9450 C   0  0  1  0  0  0  0  0  0  0  0  0
    0.3900   12.5980   -4.5490 C   0  0  0  0  0  0  0  0  0  0  0  0
    1.6100   15.7680   -4.5140 N   0  0  0  0  0  0  0  0  0  0  0  0
    1.2200   14.8320   -3.4320 C   0  0  1  0  0  0  0  0  0  0  0  0
   -0.0130   11.6090   -3.4210 C   0  0  1  0  0  0  0  0  0  0  0  0
    0.4190   15.6080   -2.3720 C   0  0  0  0  0  0  0  0  0  0  0  0
    0.2580   10.2870   -3.7670 O   0  0  0  0  0  0  0  0  0  0  0  0
    0.7620   11.7790   -2.3680 O   0  0  0  0  0  0  0  0  0  0  0  0
   -0.8880   15.0090   -2.0010 N   0  0  0  0  0  0  0  0  0  0  0  0
   -2.1200   15.5060   -2.6460 C   0  0  0  0  0  0  0  0  0  0  0  0
   -1.0250   15.2810   -0.6100 C   0  0  1  0  0  0  0  0  0  0  0  0
   -3.2050   15.1870   -1.6370 C   0  0  0  0  0  0  0  0  0  0  0  0
   -2.5060   15.5330   -0.3460 C   0  0  1  0  0  0  0  0  0  0  0  0
   -0.4930   14.1110    0.0150 N   0  0  0  0  0  0  0  0  0  0  0  0
   -2.8590   14.7130    0.8620 C   0  0  2  0  0  0  0  0  0  0  0  0
   -0.5100   14.2720    1.4160 C   0  0  0  0  0  0  0  0  0  0  0  0
   -4.0260   15.2260    1.5440 N   0  0  0  0  0  0  0  0  0  0  0  0
   -1.7950   14.8140    1.8150 N   0  0  0  0  0  0  0  0  0  0  0  0
  1  2  1  0
  3  2  1  6
  3  4  1  0
  3  5  1  0
  6  4  1  6
  5  7  1  0
  6  8  1  0
  8  7  1  1
  6  9  1  0
  9 10  1  6
  8 11  1  0
  9 12  1  0
 11 12  1  0
 10 13  1  0
 12 14  1  1
 13 15  1  6
 13 16  1  0
 14 17  1  0
 17 18  1  0
 17 19  1  0
 18 20  1  0
 19 21  1  0
 21 20  1  6
 19 22  1  1
 21 23  1  0
 22 24  1  0
 23 25  1  1
 23 26  1  0
 24 26  1  0
M  CHG  1  16  -1
M  END
