ucsf135-ucsf039
     RDKit          3D

 30 34  0  0  0  0  0  0  0  0999 V2000
    0.5320   12.4450   -7.3530 O   0  0  0  0  0  0  0  0  0  0  0  0
    0.9780   11.4080   -6.5670 C   0  0  1  0  0  0  0  0  0  0  0  0
    0.9370   11.8580   -5.1770 N   0  0  0  0  0  0  0  0  0  0  0  0
    0.0570   10.1480   -6.7510 C   0  0  1  0  0  0  0  0  0  0  0  0
   -0.4940   11.3720   -4.5270 S   0  0  2  0  0  0  0  0  0  0  0  0
   -0.7890    9.8810   -5.4780 C   0  0  1  0  0  0  0  0  0  0  0  0
   -0.7750   10.1080   -8.0250 C   0  0  0  0  0  0  0  0  0  0  0  0
   -1.6650   12.4390   -4.7640 O   0  0  0  0  0  0  0  0  0  0  0  0
   -0.4120   10.8440   -3.0180 O   0  0  0  0  0  0  0  0  0  0  0  0
   -2.2500    9.6020   -5.7940 C   0  0  0  0  0  0  0  0  0  0  0  0
   -1.6600    8.8720   -8.1560 C   0  0  0  0  0  0  0  0  0  0  0  0
   -2.0510   13.3480   -3.7270 C   0  0  0  0  0  0  0  0  0  0  0  0
   -2.3840    8.5160   -6.8580 C   0  0  0  0  0  0  0  0  0  0  0  0
   -1.0710   14.5070   -3.2940 C   0  0  2  0  0  0  0  0  0  0  0  0
   -1.7730   15.2350   -2.1950 N   0  0  0  0  0  0  0  0  0  0  0  0
   -0.4550   15.4050   -4.4360 C   0  0  2  0  0  0  0  0  0  0  0  0
   -3.2170   14.9270   -2.2020 C   0  0  0  0  0  0  0  0  0  0  0  0
   -1.1980   15.3530   -0.8630 C   0  0  1  0  0  0  0  0  0  0  0  0
    0.8820   16.0640   -4.0120 C   0  0  0  0  0  0  0  0  0  0  0  0
   -1.3800   16.5060   -4.8470 N   0  0  0  0  0  0  0  0  0  0  0  0
   -4.0240   15.6130   -1.2040 N   0  0  0  0  0  0  0  0  0  0  0  0
   -2.1800   14.7790    0.1610 C   0  0  2  0  0  0  0  0  0  0  0  0
   -0.0530   14.5380   -0.5550 N   0  0  0  0  0  0  0  0  0  0  0  0
   -0.5860   17.5280   -5.5150 C   0  0  2  0  0  0  0  0  0  0  0  0
    0.7640   17.8400   -4.3780 S   0  0  0  0  0  0  0  0  0  0  0  0
   -1.3690   18.7890   -5.8670 C   0  0  0  0  0  0  0  0  0  0  0  0
   -3.4790   15.5820    0.1200 C   0  0  2  0  0  0  0  0  0  0  0  0
   -1.3810   14.7890    1.3920 N   0  0  0  0  0  0  0  0  0  0  0  0
   -0.0370   14.5160    0.9000 C   0  0  0  0  0  0  0  0  0  0  0  0
   -4.5520   15.0490    0.9240 N   0  0  0  0  0  0  0  0  0  0  0  0
  2  1  1  6
  2  3  1  0
  2  4  1  0
  3  5  1  0
  4  6  1  0
  5  6  1  0
  4  7  1  6
  5  8  1  0
  5  9  1  1
  6 10  1  6
  7 11  1  0
  8 12  1  0
 10 13  1  0
 11 13  1  0
 14 12  1  6
 14 15  1  0
 14 16  1  0
 15 17  1  0
 15 18  1  0
 16 19  1  1
 16 20  1  0
 17 21  1  0
 18 22  1  0
 18 23  1  6
 20 24  1  0
 19 25  1  0
 24 25  1  0
 24 26  1  1
 21 27  1  0
 22 27  1  0
 22 28  1  1
 23 29  1  0
 28 29  1  0
 27 30  1  1
M  END
