ucsf345-ucsf365
     RDKit          3D

 21 22  0  0  0  0  0  0  0  0999 V2000
   -6.8660   14.6870    1.7410 N   0  0  0  0  0  0  0  0  0  0  0  0
   -6.9940   14.6980    0.3000 C   0  0  2  0  0  0  0  0  0  0  0  0
   -7.9130   13.6930   -0.0480 O   0  0  0  0  0  0  0  0  0  0  0  0
   -5.6820   14.5660   -0.5290 C   0  0  1  0  0  0  0  0  0  0  0  0
   -5.9280   15.0490   -1.8960 N   0  0  0  0  0  0  0  0  0  0  0  0
   -4.4120   15.1950    0.1210 C   0  0  0  0  0  0  0  0  0  0  0  0
   -4.7080   15.0370   -2.6800 C   0  0  0  0  0  0  0  0  0  0  0  0
   -3.1870   14.9260   -0.6710 N   0  0  0  0  0  0  0  0  0  0  0  0
   -3.5430   14.3350   -1.9830 C   0  0  2  0  0  0  0  0  0  0  0  0
   -2.3720   14.2130   -2.9550 C   0  0  0  0  0  0  0  0  0  0  0  0
   -2.7270   14.4810   -4.4430 C   0  0  2  0  0  0  0  0  0  0  0  0
   -2.6720   13.2250   -5.3030 C   0  0  0  0  0  0  0  0  0  0  0  0
   -1.7010   15.4480   -4.9770 C   0  0  0  0  0  0  0  0  0  0  0  0
   -1.4050   12.4590   -4.9790 C   0  0  1  0  0  0  0  0  0  0  0  0
   -0.2870   14.8450   -4.9800 C   0  0  0  0  0  0  0  0  0  0  0  0
   -1.4360   11.2670   -5.7580 O   0  0  0  0  0  0  0  0  0  0  0  0
   -0.1350   13.3020   -5.2180 C   0  0  1  0  0  0  0  0  0  0  0  0
    1.0300   12.8120   -4.3070 C   0  0  0  0  0  0  0  0  0  0  0  0
    0.6400   12.4830   -2.8440 C   0  0  1  0  0  0  0  0  0  0  0  0
    0.5120   11.1850   -2.6520 O   0  0  0  0  0  0  0  0  0  0  0  0
    1.7460   12.7530   -2.0210 O   0  0  0  0  0  0  0  0  0  0  0  0
  2  1  1  1
  2  3  1  0
  2  4  1  0
  4  5  1  0
  4  6  1  1
  5  7  1  0
  6  8  1  0
  7  9  1  0
  8  9  1  0
  9 10  1  6
 11 10  1  1
 11 12  1  0
 11 13  1  0
 12 14  1  0
 13 15  1  0
 14 16  1  6
 14 17  1  0
 15 17  1  0
 17 18  1  1
 18 19  1  0
 19 20  1  6
 19 21  1  0
M  CHG  1  20  -1
M  END
