ucsf110-ucsf380
     RDKit          3D

 20 22  0  0  0  0  0  0  0  0999 V2000
    0.1580   14.8270   -2.7650 C   0  0  2  0  0  0  0  0  0  0  0  0
    0.2910   13.5200   -2.2360 O   0  0  0  0  0  0  0  0  0  0  0  0
    1.2310   15.3140   -2.2100 O   0  0  0  0  0  0  0  0  0  0  0  0
   -1.0130   15.5340   -2.2260 N   0  0  0  0  0  0  0  0  0  0  0  0
   -2.2690   14.8290   -2.5120 C   0  0  1  0  0  0  0  0  0  0  0  0
   -1.0100   15.4950   -0.7770 C   0  0  1  0  0  0  0  0  0  0  0  0
   -2.1530   13.3360   -2.3280 C   0  0  0  0  0  0  0  0  0  0  0  0
   -3.3190   15.3720   -1.5590 C   0  0  0  0  0  0  0  0  0  0  0  0
   -2.4700   15.7500   -0.3830 C   0  0  1  0  0  0  0  0  0  0  0  0
   -0.4960   14.2860   -0.2430 N   0  0  0  0  0  0  0  0  0  0  0  0
   -2.7660   15.2500    1.0050 C   0  0  1  0  0  0  0  0  0  0  0  0
   -0.3560   14.4080    1.1510 C   0  0  0  0  0  0  0  0  0  0  0  0
   -2.0620   12.4470   -3.5420 C   0  0  0  0  0  0  0  0  0  0  0  0
   -3.7720   14.2220    1.0380 N   0  0  0  0  0  0  0  0  0  0  0  0
   -1.6450   14.7280    1.7730 N   0  0  0  0  0  0  0  0  0  0  0  0
   -2.4660   11.0160   -3.2590 C   0  0  0  0  0  0  0  0  0  0  0  0
   -0.7840   12.5350   -4.3710 C   0  0  0  0  0  0  0  0  0  0  0  0
   -2.8030   10.2900   -4.5500 C   0  0  0  0  0  0  0  0  0  0  0  0
   -0.9110   11.6460   -5.6020 C   0  0  0  0  0  0  0  0  0  0  0  0
   -2.3120   11.0530   -5.7760 C   0  0  0  0  0  0  0  0  0  0  0  0
  1  2  1  1
  1  3  1  0
  1  4  1  0
  4  5  1  0
  4  6  1  0
  5  7  1  1
  5  8  1  0
  6  9  1  0
  9  8  1  6
  6 10  1  6
  9 11  1  0
 10 12  1  0
  7 13  1  0
 11 14  1  6
 11 15  1  0
 12 15  1  0
 13 16  1  0
 13 17  1  0
 16 18  1  0
 17 19  1  0
 18 20  1  0
 19 20  1  0
M  CHG  1   3  -1
M  END
