ucsf005-ucsf412
     RDKit          3D

 18 20  0  0  0  0  0  0  0  0999 V2000
   -0.9750   15.2840   -3.2030 C   0  0  0  0  0  0  0  0  0  0  0  0
   -2.0890   15.4590   -2.4030 N   0  0  0  0  0  0  0  0  0  0  0  0
   -3.3350   15.0780   -2.8280 C   0  0  0  0  0  0  0  0  0  0  0  0
   -2.0940   14.9300   -1.0980 C   0  0  2  0  0  0  0  0  0  0  0  0
   -3.6360   14.2040   -1.7740 N   0  0  0  0  0  0  0  0  0  0  0  0
   -3.6920   15.1710   -0.3000 S   0  0  0  0  0  0  0  0  0  0  0  0
   -0.9880   15.6240   -0.4510 N   0  0  0  0  0  0  0  0  0  0  0  0
   -2.5170   14.8720    1.0220 C   0  0  1  0  0  0  0  0  0  0  0  0
   -0.2630   14.7740    0.4410 C   0  0  2  0  0  0  0  0  0  0  0  0
   -5.4480   15.4510   -0.7710 C   0  0  0  0  0  0  0  0  0  0  0  0
   -4.6840   15.8180    0.9200 C   0  0  0  0  0  0  0  0  0  0  0  0
   -3.2560   14.7180    2.2660 N   0  0  0  0  0  0  0  0  0  0  0  0
    0.6580   13.9240   -0.1660 N   0  0  0  0  0  0  0  0  0  0  0  0
   -1.4030   14.1880    0.9540 N   0  0  0  0  0  0  0  0  0  0  0  0
   -6.5100   14.5040   -0.2390 C   0  0  2  0  0  0  0  0  0  0  0  0
   -5.5140   14.8360    1.7330 C   0  0  0  0  0  0  0  0  0  0  0  0
   -7.6850   14.6600   -0.9710 O   0  0  0  0  0  0  0  0  0  0  0  0
   -6.8650   14.6970    1.1840 N   0  0  0  0  0  0  0  0  0  0  0  0
  1  2  1  0
  2  3  1  0
  2  4  1  0
  3  5  1  0
  4  6  1  0
  5  6  1  0
  4  7  1  1
  6  8  1  0
  7  9  1  0
  6 10  1  0
  6 11  1  0
  8 12  1  1
  9 13  1  6
  8 14  1  0
  9 14  1  0
 10 15  1  0
 11 16  1  0
 15 17  1  6
 15 18  1  0
 16 18  1  0
M  END
