ucsf339-ucsf138
     RDKit          3D

 28 30  0  0  0  0  0  0  0  0999 V2000
    1.4170   14.5960   -3.4990 O   0  0  0  0  0  0  0  0  0  0  0  0
    0.6750   14.3470   -2.4400 C   0  0  2  0  0  0  0  0  0  0  0  0
    0.7470   12.9560   -2.0900 O   0  0  0  0  0  0  0  0  0  0  0  0
   -0.8480   14.5550   -2.7190 C   0  0  1  0  0  0  0  0  0  0  0  0
    1.0910   12.0440   -3.1430 C   0  0  1  0  0  0  0  0  0  0  0  0
   -1.6450   15.0060   -1.4830 C   0  0  0  0  0  0  0  0  0  0  0  0
   -1.2060   15.3900   -3.9550 C   0  0  0  0  0  0  0  0  0  0  0  0
    0.4490   10.8030   -2.8670 O   0  0  0  0  0  0  0  0  0  0  0  0
    0.6820   12.4900   -4.5870 C   0  0  0  0  0  0  0  0  0  0  0  0
   -3.0470   15.4830   -1.8570 C   0  0  1  0  0  0  0  0  0  0  0  0
   -2.6200   15.1740   -4.3530 N   0  0  0  0  0  0  0  0  0  0  0  0
    0.3420   11.3640   -5.5300 N   0  0  0  0  0  0  0  0  0  0  0  0
   -3.4960   14.9080   -3.2040 C   0  0  0  0  0  0  0  0  0  0  0  0
   -4.0620   15.2650   -0.7120 C   0  0  0  0  0  0  0  0  0  0  0  0
    1.0520   11.2770   -6.7910 C   0  0  2  0  0  0  0  0  0  0  0  0
   -3.3850   15.0230    0.6300 C   0  0  0  0  0  0  0  0  0  0  0  0
   -5.1560   14.2100   -0.9650 C   0  0  0  0  0  0  0  0  0  0  0  0
    1.6920   12.4780   -7.0030 O   0  0  0  0  0  0  0  0  0  0  0  0
    0.2080   10.7930   -7.8370 N   0  0  0  0  0  0  0  0  0  0  0  0
   -4.4110   15.2530    1.7010 C   0  0  0  0  0  0  0  0  0  0  0  0
   -6.2460   14.3210    0.0890 C   0  0  0  0  0  0  0  0  0  0  0  0
   -5.6700   14.3820    1.5020 C   0  0  0  0  0  0  0  0  0  0  0  0
    0.9500   10.2490   -8.9790 C   0  0  0  0  0  0  0  0  0  0  0  0
    0.0990   10.3470  -10.2610 C   0  0  0  0  0  0  0  0  0  0  0  0
    1.4100    8.7980   -8.6910 C   0  0  0  0  0  0  0  0  0  0  0  0
    0.7100    9.6250  -11.4560 C   0  0  0  0  0  0  0  0  0  0  0  0
    2.0440    8.1190   -9.9000 C   0  0  0  0  0  0  0  0  0  0  0  0
    1.1240    8.1920  -11.1140 C   0  0  0  0  0  0  0  0  0  0  0  0
  2  1  1  6
  2  3  1  0
  2  4  1  0
  3  5  1  0
  4  6  1  1
  4  7  1  0
  5  8  1  1
  5  9  1  0
  6 10  1  0
  7 11  1  0
  9 12  1  0
 10 13  1  0
 11 13  1  0
 10 14  1  1
 12 15  1  0
 14 16  1  0
 14 17  1  0
 15 18  1  6
 15 19  1  0
 16 20  1  0
 17 21  1  0
 20 22  1  0
 21 22  1  0
 19 23  1  0
 23 24  1  0
 23 25  1  0
 24 26  1  0
 25 27  1  0
 26 28  1  0
 27 28  1  0
M  CHG  1   1  -1
M  END
