ucsf170-ucsf339
     RDKit          3D

 17 18  0  0  0  0  0  0  0  0999 V2000
   -4.1570   15.9300    1.7010 C   0  0  0  0  0  0  0  0  0  0  0  0
   -2.5550   15.2040    1.2990 S   0  0  0  0  0  0  0  0  0  0  0  0
   -2.6380   15.5200   -0.5010 C   0  0  1  0  0  0  0  0  0  0  0  0
   -1.2680   15.2730   -1.1690 C   0  0  0  0  0  0  0  0  0  0  0  0
   -3.8800   14.7680   -1.0930 C   0  0  0  0  0  0  0  0  0  0  0  0
   -1.2020   13.9820   -1.9780 C   0  0  2  0  0  0  0  0  0  0  0  0
   -3.6410   14.5740   -2.6360 C   0  0  0  0  0  0  0  0  0  0  0  0
   -3.8970   13.4410   -0.2620 C   0  0  0  0  0  0  0  0  0  0  0  0
   -5.2890   15.4300   -0.9100 C   0  0  0  0  0  0  0  0  0  0  0  0
    0.2530   13.6460   -2.4520 C   0  0  2  0  0  0  0  0  0  0  0  0
   -2.2760   14.0100   -3.0900 C   0  0  1  0  0  0  0  0  0  0  0  0
   -4.4850   13.5480    1.1630 C   0  0  0  0  0  0  0  0  0  0  0  0
   -6.3470   14.5710   -0.1940 C   0  0  0  0  0  0  0  0  0  0  0  0
   -1.8760   14.7210   -4.2720 O   0  0  0  0  0  0  0  0  0  0  0  0
    1.1840   14.4770   -1.7830 O   0  0  0  0  0  0  0  0  0  0  0  0
    0.4380   14.0070   -3.6960 O   0  0  0  0  0  0  0  0  0  0  0  0
   -5.8980   14.1020    1.1840 C   0  0  0  0  0  0  0  0  0  0  0  0
  1  2  1  0
  3  2  1  1
  3  4  1  0
  3  5  1  0
  6  4  1  6
  5  7  1  0
  5  8  1  0
  5  9  1  0
  6 10  1  0
  6 11  1  0
  7 11  1  0
  8 12  1  0
  9 13  1  0
 11 14  1  6
 10 15  1  1
 10 16  1  0
 12 17  1  0
 13 17  1  0
M  CHG  1  16  -1
M  END
