ucsf110
     RDKit          3D

 11 12  0  0  0  0  0  0  0  0999 V2000
   -0.1630   15.0240   -3.2520 C   0  0  0  0  0  0  0  0  0  0  0  0
   -1.2710   15.0700   -2.3150 N   0  0  0  0  0  0  0  0  0  0  0  0
   -2.5550   15.1480   -2.6570 C   0  0  0  0  0  0  0  0  0  0  0  0
   -3.3040   15.1710   -1.4890 C   0  0  0  0  0  0  0  0  0  0  0  0
   -2.4060   15.1000   -0.4020 C   0  0  0  0  0  0  0  0  0  0  0  0
   -2.4990   15.0800    1.0150 C   0  0  0  0  0  0  0  0  0  0  0  0
   -3.7980   15.1430    1.6610 N   0  0  0  0  0  0  0  0  0  0  0  0
   -1.3930   15.0050    1.7470 N   0  0  0  0  0  0  0  0  0  0  0  0
   -0.1960   14.9470    1.1710 C   0  0  0  0  0  0  0  0  0  0  0  0
   -0.0580   14.9630   -0.1430 N   0  0  0  0  0  0  0  0  0  0  0  0
   -1.1500   15.0390   -0.9490 C   0  0  0  0  0  0  0  0  0  0  0  0
  1  2  1  0
  2  3  1  0
  3  4  1  0
  4  5  1  0
  5  6  1  0
  6  7  1  0
  6  8  1  0
  8  9  1  0
  9 10  1  0
  2 11  1  0
  5 11  1  0
 10 11  1  0
M  END
