ucsf006-ucsf348
     RDKit          3D

 22 24  0  0  0  0  0  0  0  0999 V2000
   -2.4950   15.2660   -3.5520 C   0  0  0  0  0  0  0  0  0  0  0  0
   -1.3670   14.8050   -2.7470 N   0  0  0  0  0  0  0  0  0  0  0  0
   -0.0820   15.2850   -3.3600 C   0  0  0  0  0  0  0  0  0  0  0  0
   -1.4860   15.1490   -1.3190 C   0  0  1  0  0  0  0  0  0  0  0  0
    0.4710   14.4560   -4.5490 C   0  0  0  0  0  0  0  0  0  0  0  0
   -2.7590   14.6340   -0.5600 C   0  0  1  0  0  0  0  0  0  0  0  0
   -0.2520   14.6140   -0.6870 N   0  0  0  0  0  0  0  0  0  0  0  0
    0.3640   12.9260   -4.3380 C   0  0  1  0  0  0  0  0  0  0  0  0
   -2.2790   14.5670    0.8690 C   0  0  1  0  0  0  0  0  0  0  0  0
   -0.0620   14.9450    0.7130 C   0  0  0  0  0  0  0  0  0  0  0  0
   -4.0830   15.4720   -0.4720 C   0  0  2  0  0  0  0  0  0  0  0  0
    0.0840   12.2990   -5.5760 O   0  0  0  0  0  0  0  0  0  0  0  0
    1.5590   12.4400   -4.0330 O   0  0  0  0  0  0  0  0  0  0  0  0
   -1.2850   15.5490    1.1470 N   0  0  0  0  0  0  0  0  0  0  0  0
   -3.3370   14.9130    1.7510 N   0  0  0  0  0  0  0  0  0  0  0  0
   -4.2600   15.7300    1.0350 C   0  0  2  0  0  0  0  0  0  0  0  0
   -5.4690   15.0190   -0.9750 C   0  0  1  0  0  0  0  0  0  0  0  0
   -5.5370   14.5900   -2.3150 O   0  0  0  0  0  0  0  0  0  0  0  0
   -6.0480   14.0000   -0.1190 N   0  0  0  0  0  0  0  0  0  0  0  0
   -5.4650   15.2970    1.7290 N   0  0  0  0  0  0  0  0  0  0  0  0
   -6.5230   14.6440    1.0430 C   0  0  2  0  0  0  0  0  0  0  0  0
   -6.9180   13.6420    1.9600 N   0  0  0  0  0  0  0  0  0  0  0  0
  1  2  1  0
  2  3  1  0
  4  2  1  6
  3  5  1  0
  6  4  1  6
  4  7  1  0
  5  8  1  0
  6  9  1  0
  7 10  1  0
  6 11  1  0
  8 12  1  6
  8 13  1  0
  9 14  1  6
 10 14  1  0
  9 15  1  0
 11 16  1  0
 16 15  1  1
 11 17  1  1
 17 18  1  6
 17 19  1  0
 16 20  1  0
 19 21  1  0
 20 21  1  0
 21 22  1  1
M  CHG  1  13  -1
M  END
