ucsf371-ucsf519
     RDKit          3D

 16 16  0  0  0  0  0  0  0  0999 V2000
   -4.9840   14.7430    0.5370 C   0  0  0  0  0  0  0  0  0  0  0  0
   -4.2990   15.2110   -0.7390 C   0  0  2  0  0  0  0  0  0  0  0  0
   -4.8150   14.5530   -1.9470 N   0  0  0  0  0  0  0  0  0  0  0  0
   -2.5280   14.9230   -0.6990 S   0  0  0  0  0  0  0  0  0  0  0  0
   -3.7760   14.7010   -3.0220 C   0  0  0  0  0  0  0  0  0  0  0  0
   -2.5420   15.4360   -2.4610 C   0  0  2  0  0  0  0  0  0  0  0  0
   -1.2160   15.5140   -3.3060 C   0  0  2  0  0  0  0  0  0  0  0  0
   -0.8980   14.7610   -4.5450 N   0  0  0  0  0  0  0  0  0  0  0  0
   -0.1380   15.6860   -2.5610 O   0  0  0  0  0  0  0  0  0  0  0  0
   -1.3900   16.8050   -3.8380 O   0  0  0  0  0  0  0  0  0  0  0  0
    0.2580   15.3880   -5.1950 C   0  0  0  0  0  0  0  0  0  0  0  0
   -1.0270   13.0760   -4.7630 S   0  0  0  0  0  0  0  0  0  0  0  0
    0.6120   12.3980   -4.2210 C   0  0  0  0  0  0  0  0  0  0  0  0
    0.5990   12.0010   -2.7080 C   0  0  2  0  0  0  0  0  0  0  0  0
    1.8220   12.4000   -2.1350 O   0  0  0  0  0  0  0  0  0  0  0  0
    0.6040   10.6680   -2.5170 O   0  0  0  0  0  0  0  0  0  0  0  0
  2  1  1  1
  2  3  1  0
  2  4  1  0
  3  5  1  0
  4  6  1  0
  6  5  1  6
  6  7  1  0
  7  8  1  0
  7  9  1  1
  7 10  1  0
  8 11  1  0
  8 12  1  0
 12 13  1  0
 13 14  1  0
 14 15  1  1
 14 16  1  0
M  CHG  2   9  -1  16  -1
M  END
