ucsf247-ucsf493
     RDKit          3D

 28 30  0  0  0  0  0  0  0  0999 V2000
    0.8760   12.7390   -2.1670 O   0  0  0  0  0  0  0  0  0  0  0  0
    0.5290   14.0960   -1.9800 C   0  0  1  0  0  0  0  0  0  0  0  0
    1.6080   14.8940   -2.4320 O   0  0  0  0  0  0  0  0  0  0  0  0
    0.1200   12.0350   -3.1330 C   0  0  1  0  0  0  0  0  0  0  0  0
   -0.7330   14.4450   -2.8090 C   0  0  0  0  0  0  0  0  0  0  0  0
    0.4650   12.4740   -4.5800 C   0  0  0  0  0  0  0  0  0  0  0  0
    0.3580   10.6530   -2.9830 O   0  0  0  0  0  0  0  0  0  0  0  0
   -1.9430   14.2200   -2.0120 N   0  0  0  0  0  0  0  0  0  0  0  0
    0.6320   13.9590   -4.9710 C   0  0  1  0  0  0  0  0  0  0  0  0
   -2.9190   15.2440   -2.3110 C   0  0  1  0  0  0  0  0  0  0  0  0
   -0.3980   15.0170   -4.5360 C   0  0  2  0  0  0  0  0  0  0  0  0
    1.8870   14.6350   -4.4980 C   0  0  0  0  0  0  0  0  0  0  0  0
   -3.6360   14.9220   -3.4840 O   0  0  0  0  0  0  0  0  0  0  0  0
   -3.8990   15.3950   -1.1510 C   0  0  1  0  0  0  0  0  0  0  0  0
   -1.7400   14.8720   -5.2470 C   0  0  0  0  0  0  0  0  0  0  0  0
    0.3800   16.3560   -4.6180 C   0  0  1  0  0  0  0  0  0  0  0  0
    1.6810   15.9560   -5.1160 N   0  0  0  0  0  0  0  0  0  0  0  0
   -5.1460   14.5260   -1.2750 C   0  0  0  0  0  0  0  0  0  0  0  0
   -3.2090   15.1790    0.2010 C   0  0  0  0  0  0  0  0  0  0  0  0
   -2.4520   16.1920   -5.5690 C   0  0  1  0  0  0  0  0  0  0  0  0
   -0.2690   17.4730   -5.4030 C   0  0  0  0  0  0  0  0  0  0  0  0
   -3.7400   16.0860   -5.0170 O   0  0  0  0  0  0  0  0  0  0  0  0
   -6.1100   14.9970   -0.2150 C   0  0  1  0  0  0  0  0  0  0  0  0
   -4.1480   15.4950    1.3490 C   0  0  0  0  0  0  0  0  0  0  0  0
   -1.7490   17.4640   -5.0630 C   0  0  0  0  0  0  0  0  0  0  0  0
   -7.3650   14.3360   -0.3050 O   0  0  0  0  0  0  0  0  0  0  0  0
   -4.5420   15.1750   -5.7680 C   0  0  0  0  0  0  0  0  0  0  0  0
   -5.5040   14.8030    1.1840 C   0  0  0  0  0  0  0  0  0  0  0  0
  1  2  1  0
  2  3  1  6
  1  4  1  0
  2  5  1  0
  4  6  1  0
  4  7  1  6
  5  8  1  0
  9  6  1  1
  8 10  1  0
  9 11  1  0
  9 12  1  0
 10 13  1  6
 10 14  1  0
 11 15  1  6
 11 16  1  0
 12 17  1  0
 16 17  1  0
 14 18  1  6
 14 19  1  0
 15 20  1  0
 16 21  1  6
 20 22  1  1
 18 23  1  0
 19 24  1  0
 20 25  1  0
 21 25  1  0
 23 26  1  1
 22 27  1  0
 23 28  1  0
 24 28  1  0
M  END
