ucsf364-ucsf243
     RDKit          3D

 19 20  0  0  0  0  0  0  0  0999 V2000
    1.4250   13.9290   -4.7030 C   0  0  0  0  0  0  0  0  0  0  0  0
    1.0960   12.4390   -4.5820 C   0  0  2  0  0  0  0  0  0  0  0  0
    0.7950   11.8070   -5.9560 C   0  0  2  0  0  0  0  0  0  0  0  0
   -0.0470   11.9950   -3.6050 C   0  0  1  0  0  0  0  0  0  0  0  0
    1.8850   11.9480   -6.8620 O   0  0  0  0  0  0  0  0  0  0  0  0
   -0.2060   12.6560   -2.1890 C   0  0  2  0  0  0  0  0  0  0  0  0
   -1.4730   11.9470   -4.2520 C   0  0  0  0  0  0  0  0  0  0  0  0
   -0.5040   12.2380   -6.5610 C   0  0  0  0  0  0  0  0  0  0  0  0
   -0.4160   14.0730   -2.3080 O   0  0  0  0  0  0  0  0  0  0  0  0
    0.8070   12.3480   -1.4180 O   0  0  0  0  0  0  0  0  0  0  0  0
   -1.5870   11.5900   -5.7420 C   0  0  0  0  0  0  0  0  0  0  0  0
   -1.7990   14.3440   -2.0300 C   0  0  1  0  0  0  0  0  0  0  0  0
   -2.0460   15.0730   -0.7200 C   0  0  0  0  0  0  0  0  0  0  0  0
   -2.4390   15.1590   -3.1320 C   0  0  1  0  0  0  0  0  0  0  0  0
   -2.0550   14.7240   -4.4420 O   0  0  0  0  0  0  0  0  0  0  0  0
   -3.5450   14.9830   -0.3710 C   0  0  1  0  0  0  0  0  0  0  0  0
   -3.9430   14.9910   -2.9610 C   0  0  0  0  0  0  0  0  0  0  0  0
   -3.8660   15.8480    0.8330 C   0  0  0  0  0  0  0  0  0  0  0  0
   -4.4710   15.3350   -1.5540 C   0  0  0  0  0  0  0  0  0  0  0  0
  2  1  1  6
  2  3  1  0
  2  4  1  0
  3  5  1  6
  4  6  1  0
  4  7  1  6
  3  8  1  0
  6  9  1  0
  6 10  1  1
  7 11  1  0
  8 11  1  0
 12  9  1  6
 12 13  1  0
 12 14  1  0
 14 15  1  6
 13 16  1  0
 14 17  1  0
 16 18  1  1
 16 19  1  0
 17 19  1  0
M  CHG  1  10  -1
M  END
