ucsf487-ucsf004
     RDKit          3D

 23 26  0  0  0  0  0  0  0  0999 V2000
   -7.7330   13.5330    2.6960 N   0  0  0  0  0  0  0  0  0  0  0  0
   -7.2010   14.5020    1.7430 C   0  0  2  0  0  0  0  0  0  0  0  0
   -7.9350   14.4440    0.3780 C   0  0  0  0  0  0  0  0  0  0  0  0
   -5.6710   14.3490    1.6820 C   0  0  0  0  0  0  0  0  0  0  0  0
   -4.9580   14.8760    0.4460 C   0  0  2  0  0  0  0  0  0  0  0  0
   -7.0660   14.2060   -0.7720 N   0  0  0  0  0  0  0  0  0  0  0  0
   -5.8700   15.0640   -0.7760 C   0  0  2  0  0  0  0  0  0  0  0  0
   -3.7470   14.0000    0.0740 C   0  0  0  0  0  0  0  0  0  0  0  0
   -5.0320   14.9060   -2.0590 C   0  0  0  0  0  0  0  0  0  0  0  0
   -2.7550   14.8450   -0.7400 C   0  0  1  0  0  0  0  0  0  0  0  0
   -3.6400   15.5380   -1.8600 C   0  0  0  0  0  0  0  0  0  0  0  0
   -2.1910   15.8090    0.2940 C   0  0  0  0  0  0  0  0  0  0  0  0
   -1.4620   14.1340   -1.3190 C   0  0  1  0  0  0  0  0  0  0  0  0
   -1.1180   14.2730   -2.7350 N   0  0  0  0  0  0  0  0  0  0  0  0
   -0.2590   14.3390   -0.4880 N   0  0  0  0  0  0  0  0  0  0  0  0
   -1.5810   15.0540    1.3780 N   0  0  0  0  0  0  0  0  0  0  0  0
   -2.1240   14.2650   -3.7980 C   0  0  0  0  0  0  0  0  0  0  0  0
    0.0920   15.0240   -3.0930 C   0  0  0  0  0  0  0  0  0  0  0  0
   -0.3460   14.4550    0.9560 C   0  0  0  0  0  0  0  0  0  0  0  0
   -1.6600   13.4830   -5.0340 C   0  0  2  0  0  0  0  0  0  0  0  0
    0.3760   14.8970   -4.6000 C   0  0  0  0  0  0  0  0  0  0  0  0
   -1.9760   12.1660   -4.8560 F   0  0  0  0  0  0  0  0  0  0  0  0
   -0.1560   13.5980   -5.2200 C   0  0  0  0  0  0  0  0  0  0  0  0
  2  1  1  1
  2  3  1  0
  2  4  1  0
  5  4  1  1
  3  6  1  0
  5  7  1  0
  6  7  1  0
  5  8  1  0
  7  9  1  6
 10  8  1  1
  9 11  1  0
 10 11  1  0
 10 12  1  0
 10 13  1  0
 13 14  1  6
 13 15  1  0
 12 16  1  0
 14 17  1  0
 14 18  1  0
 15 19  1  0
 16 19  1  0
 17 20  1  0
 18 21  1  0
 20 22  1  1
 20 23  1  0
 21 23  1  0
M  END
