ucsf357-ucsf338
     RDKit          3D

 19 20  0  0  0  0  0  0  0  0999 V2000
   -5.6680   14.9640   -2.1850 O   0  0  0  0  0  0  0  0  0  0  0  0
   -4.7390   14.3090   -1.5060 C   0  0  1  0  0  0  0  0  0  0  0  0
   -3.3650   15.0060   -1.8270 C   0  0  2  0  0  0  0  0  0  0  0  0
   -5.2100   14.1410    0.0360 C   0  0  0  0  0  0  0  0  0  0  0  0
   -2.9210   14.8620   -3.2970 C   0  0  0  0  0  0  0  0  0  0  0  0
   -2.3270   14.6430   -0.7210 C   0  0  0  0  0  0  0  0  0  0  0  0
   -4.2540   13.3250    0.9170 C   0  0  0  0  0  0  0  0  0  0  0  0
   -5.2280   15.5220    0.7030 C   0  0  0  0  0  0  0  0  0  0  0  0
   -6.6160   13.4370    0.2220 C   0  0  0  0  0  0  0  0  0  0  0  0
   -1.4250   14.9100   -3.5500 C   0  0  2  0  0  0  0  0  0  0  0  0
   -0.8480   14.5500   -1.0890 C   0  0  0  0  0  0  0  0  0  0  0  0
   -2.8780   13.9340    1.2210 C   0  0  0  0  0  0  0  0  0  0  0  0
   -4.0130   16.0220    1.4840 C   0  0  0  0  0  0  0  0  0  0  0  0
   -7.7620   14.3010    0.5600 N   0  0  0  0  0  0  0  0  0  0  0  0
   -1.1990   14.3560   -4.7760 F   0  0  0  0  0  0  0  0  0  0  0  0
   -0.6020   14.1340   -2.5280 C   0  0  2  0  0  0  0  0  0  0  0  0
   -2.7840   15.3920    0.9690 C   0  0  0  0  0  0  0  0  0  0  0  0
   -8.8700   13.9200   -0.3030 O   0  0  0  0  0  0  0  0  0  0  0  0
    0.7900   14.3440   -2.8100 O   0  0  0  0  0  0  0  0  0  0  0  0
  2  1  1  6
  2  3  1  0
  2  4  1  0
  3  5  1  6
  3  6  1  0
  4  7  1  0
  4  8  1  0
  4  9  1  0
  5 10  1  0
  6 11  1  0
  7 12  1  0
  8 13  1  0
  9 14  1  0
 10 15  1  6
 10 16  1  0
 11 16  1  0
 12 17  1  0
 13 17  1  0
 14 18  1  0
 16 19  1  6
M  CHG  1   1  -1
M  END
