ucsf385-ucsf264
     RDKit          3D

 28 30  0  0  0  0  0  0  0  0999 V2000
   -3.7050   15.0560   -1.3170 N   0  0  0  0  0  0  0  0  0  0  0  0
   -2.4770   15.1470   -0.4760 C   0  0  1  0  0  0  0  0  0  0  0  0
   -2.8540   14.7730    0.9760 C   0  0  0  0  0  0  0  0  0  0  0  0
   -1.3630   14.1940   -1.0160 C   0  0  1  0  0  0  0  0  0  0  0  0
   -0.9870   14.5090   -2.5100 C   0  0  2  0  0  0  0  0  0  0  0  0
   -0.0930   14.2760   -0.1320 C   0  0  0  0  0  0  0  0  0  0  0  0
   -1.7090   14.3000    1.7670 N   0  0  0  0  0  0  0  0  0  0  0  0
    0.3000   15.1500   -2.5060 O   0  0  0  0  0  0  0  0  0  0  0  0
   -1.8510   15.3650   -3.0180 O   0  0  0  0  0  0  0  0  0  0  0  0
   -0.4230   14.7780    1.2450 C   0  0  0  0  0  0  0  0  0  0  0  0
    1.4000   14.2560   -2.6080 C   0  0  0  0  0  0  0  0  0  0  0  0
    0.9990   12.8940   -2.5360 O   0  0  0  0  0  0  0  0  0  0  0  0
    1.1130   12.2090   -3.7580 C   0  0  1  0  0  0  0  0  0  0  0  0
    0.4480   10.9710   -3.4860 O   0  0  0  0  0  0  0  0  0  0  0  0
    0.5010   12.9330   -4.9950 C   0  0  0  0  0  0  0  0  0  0  0  0
   -0.1360   12.0910   -6.0670 N   0  0  0  0  0  0  0  0  0  0  0  0
    0.5270   12.0630   -7.3620 N   0  0  0  0  0  0  0  0  0  0  0  0
   -0.5740   10.7290   -5.7300 C   0  0  2  0  0  0  0  0  0  0  0  0
    0.8300   10.6710   -7.7180 C   0  0  1  0  0  0  0  0  0  0  0  0
   -0.2390    9.8680   -6.9650 C   0  0  2  0  0  0  0  0  0  0  0  0
   -2.0710   10.7770   -5.3750 C   0  0  0  0  0  0  0  0  0  0  0  0
    0.9880   10.2900   -9.2010 C   0  0  0  0  0  0  0  0  0  0  0  0
   -1.5010    9.5020   -7.7440 C   0  0  0  0  0  0  0  0  0  0  0  0
   -2.7420    9.4110   -5.4960 C   0  0  0  0  0  0  0  0  0  0  0  0
    1.6110    9.1010   -9.3620 F   0  0  0  0  0  0  0  0  0  0  0  0
   -0.1970   10.1970   -9.8380 F   0  0  0  0  0  0  0  0  0  0  0  0
    1.6810   11.1970   -9.9120 F   0  0  0  0  0  0  0  0  0  0  0  0
   -2.4630    8.7260   -6.8400 C   0  0  0  0  0  0  0  0  0  0  0  0
  2  1  1  6
  2  3  1  0
  2  4  1  0
  4  5  1  0
  4  6  1  1
  3  7  1  0
  5  8  1  0
  5  9  1  1
  6 10  1  0
  7 10  1  0
  8 11  1  0
 11 12  1  0
 12 13  1  0
 13 14  1  1
 13 15  1  0
 15 16  1  0
 16 17  1  0
 16 18  1  0
 17 19  1  0
 18 20  1  0
 19 20  1  0
 18 21  1  6
 19 22  1  6
 20 23  1  6
 21 24  1  0
 22 25  1  0
 22 26  1  0
 22 27  1  0
 23 28  1  0
 24 28  1  0
M  CHG  1   9  -1
M  END
