ucsf357-ucsf333
     RDKit          3D

 19 20  0  0  0  0  0  0  0  0999 V2000
   -6.1780   15.1190   -2.1760 O   0  0  0  0  0  0  0  0  0  0  0  0
   -5.5050   15.5000   -1.1150 C   0  0  1  0  0  0  0  0  0  0  0  0
   -6.3010   14.9490   -0.0860 O   0  0  0  0  0  0  0  0  0  0  0  0
   -4.1180   14.8120   -1.1290 C   0  0  1  0  0  0  0  0  0  0  0  0
   -3.3430   15.2220   -2.4080 C   0  0  0  0  0  0  0  0  0  0  0  0
   -3.3410   15.0420    0.1960 C   0  0  0  0  0  0  0  0  0  0  0  0
   -1.9220   14.6650   -2.4180 C   0  0  2  0  0  0  0  0  0  0  0  0
   -1.9840   14.3370    0.2130 C   0  0  0  0  0  0  0  0  0  0  0  0
   -2.0620   13.4050   -2.8920 F   0  0  0  0  0  0  0  0  0  0  0  0
   -1.1750   14.6440   -1.0440 C   0  0  2  0  0  0  0  0  0  0  0  0
   -0.9400   15.1650   -3.3650 N   0  0  0  0  0  0  0  0  0  0  0  0
   -0.2050   15.6360   -0.7910 O   0  0  0  0  0  0  0  0  0  0  0  0
    0.3300   14.5230   -2.9680 C   0  0  1  0  0  0  0  0  0  0  0  0
    0.0590   13.4800   -1.4890 S   0  0  0  0  0  0  0  0  0  0  0  0
    1.0080   13.7740   -4.1100 C   0  0  0  0  0  0  0  0  0  0  0  0
    1.2240   12.2590   -3.8830 C   0  0  0  0  0  0  0  0  0  0  0  0
    0.3940   11.6210   -2.7140 C   0  0  2  0  0  0  0  0  0  0  0  0
    1.0290   11.7800   -1.5760 O   0  0  0  0  0  0  0  0  0  0  0  0
    0.4120   10.2030   -2.7460 O   0  0  0  0  0  0  0  0  0  0  0  0
  2  1  1  6
  2  3  1  0
  2  4  1  0
  4  5  1  6
  4  6  1  0
  5  7  1  0
  6  8  1  0
  7  9  1  6
  7 10  1  0
  8 10  1  0
  7 11  1  0
 10 12  1  1
 11 13  1  0
 10 14  1  0
 13 14  1  0
 13 15  1  6
 15 16  1  0
 16 17  1  0
 17 18  1  1
 17 19  1  0
M  CHG  2   1  -1  18  -1
M  END
