ucsf345-ucsf190
     RDKit          3D

 25 27  0  0  0  0  0  0  0  0999 V2000
   -6.8040   14.7780    2.0220 N   0  0  0  0  0  0  0  0  0  0  0  0
   -6.9060   14.6280    0.5740 C   0  0  2  0  0  0  0  0  0  0  0  0
   -7.9830   13.7630    0.3400 O   0  0  0  0  0  0  0  0  0  0  0  0
   -5.5930   14.1850   -0.1280 C   0  0  1  0  0  0  0  0  0  0  0  0
   -6.0220   13.6500   -1.4310 N   0  0  0  0  0  0  0  0  0  0  0  0
   -4.5040   15.3030   -0.2230 C   0  0  0  0  0  0  0  0  0  0  0  0
   -5.6800   14.6370   -2.4130 C   0  0  0  0  0  0  0  0  0  0  0  0
   -3.5120   15.1360   -1.3240 N   0  0  0  0  0  0  0  0  0  0  0  0
   -4.1860   14.6020   -2.5400 C   0  0  2  0  0  0  0  0  0  0  0  0
   -3.8530   15.1990   -3.8930 C   0  0  0  0  0  0  0  0  0  0  0  0
   -2.5420   14.7960   -4.4630 C   0  0  2  0  0  0  0  0  0  0  0  0
   -1.8030   16.0610   -4.8070 C   0  0  0  0  0  0  0  0  0  0  0  0
   -2.3620   13.7270   -5.5250 C   0  0  0  0  0  0  0  0  0  0  0  0
   -0.4930   15.7500   -4.1800 C   0  0  1  0  0  0  0  0  0  0  0  0
   -0.8640   13.4290   -5.4900 C   0  0  0  0  0  0  0  0  0  0  0  0
   -0.1840   14.2340   -4.3420 C   0  0  1  0  0  0  0  0  0  0  0  0
    0.6050   16.7400   -4.5050 C   0  0  2  0  0  0  0  0  0  0  0  0
    0.1020   17.7420   -5.3650 O   0  0  0  0  0  0  0  0  0  0  0  0
    1.2700   13.9090   -4.0260 C   0  0  1  0  0  0  0  0  0  0  0  0
    1.6640   16.0530   -5.1710 N   0  0  0  0  0  0  0  0  0  0  0  0
    1.7540   12.5710   -4.5910 C   0  0  0  0  0  0  0  0  0  0  0  0
    2.1880   15.0150   -4.3160 N   0  0  0  0  0  0  0  0  0  0  0  0
    1.8540   11.5600   -3.4550 C   0  0  2  0  0  0  0  0  0  0  0  0
    0.7480   10.8780   -3.2450 O   0  0  0  0  0  0  0  0  0  0  0  0
    1.8800   12.3170   -2.2570 O   0  0  0  0  0  0  0  0  0  0  0  0
  2  1  1  1
  2  3  1  0
  2  4  1  0
  4  5  1  0
  4  6  1  6
  5  7  1  0
  6  8  1  0
  7  9  1  0
  8  9  1  0
  9 10  1  6
 11 10  1  6
 11 12  1  0
 11 13  1  0
 14 12  1  6
 13 15  1  0
 14 16  1  0
 16 15  1  6
 14 17  1  0
 17 18  1  6
 16 19  1  0
 17 20  1  0
 19 21  1  6
 19 22  1  0
 20 22  1  0
 21 23  1  0
 23 24  1  1
 23 25  1  0
M  CHG  1  24  -1
M  END
