ucsf138-ucsf404
     RDKit          3D

 28 30  0  0  0  0  0  0  0  0999 V2000
    1.9720   12.3190   -2.5810 O   0  0  0  0  0  0  0  0  0  0  0  0
    0.8040   12.1250   -3.1260 C   0  0  2  0  0  0  0  0  0  0  0  0
    0.4900   10.7830   -2.8130 O   0  0  0  0  0  0  0  0  0  0  0  0
    0.9200   12.3480   -4.6760 C   0  0  0  0  0  0  0  0  0  0  0  0
   -0.2610   13.0280   -2.5100 C   0  0  0  0  0  0  0  0  0  0  0  0
    0.1150   11.4410   -5.5220 N   0  0  0  0  0  0  0  0  0  0  0  0
   -1.4470   12.3520   -1.8130 C   0  0  0  0  0  0  0  0  0  0  0  0
    0.4960   11.5390   -6.8930 C   0  0  1  0  0  0  0  0  0  0  0  0
   -2.8040   12.9510   -2.1460 C   0  0  0  0  0  0  0  0  0  0  0  0
    1.8480   11.7960   -6.9980 O   0  0  0  0  0  0  0  0  0  0  0  0
    0.1480   10.3000   -7.5740 N   0  0  0  0  0  0  0  0  0  0  0  0
   -2.7660   14.4530   -1.8490 C   0  0  1  0  0  0  0  0  0  0  0  0
    0.8540   10.0280   -8.8460 C   0  0  0  0  0  0  0  0  0  0  0  0
   -3.9510   15.2090   -2.5200 C   0  0  0  0  0  0  0  0  0  0  0  0
   -2.5870   14.6210   -0.3170 C   0  0  0  0  0  0  0  0  0  0  0  0
   -0.0530   10.1090  -10.0810 C   0  0  0  0  0  0  0  0  0  0  0  0
    1.4420    8.6130   -8.7390 C   0  0  0  0  0  0  0  0  0  0  0  0
   -3.8020   15.2680    0.2890 C   0  0  1  0  0  0  0  0  0  0  0  0
   -5.1860   15.4270   -1.6370 C   0  0  1  0  0  0  0  0  0  0  0  0
   -6.6870   14.9370   -2.4800 Cl  0  0  0  0  0  0  0  0  0  0  0  0
    0.6080    9.5650  -11.3650 C   0  0  0  0  0  0  0  0  0  0  0  0
    2.1330    8.0830  -10.0060 C   0  0  0  0  0  0  0  0  0  0  0  0
   -5.0440   14.6740   -0.3470 C   0  0  2  0  0  0  0  0  0  0  0  0
   -4.0330   15.0090    2.0370 S   0  0  0  0  0  0  0  0  0  0  0  0
    1.2440    8.1770  -11.2260 C   0  0  0  0  0  0  0  0  0  0  0  0
   -5.6870   14.3490    1.8340 C   0  0  2  0  0  0  0  0  0  0  0  0
   -6.1710   14.8180    0.5800 N   0  0  0  0  0  0  0  0  0  0  0  0
   -6.5940   14.8990    2.7870 N   0  0  0  0  0  0  0  0  0  0  0  0
  2  1  1  1
  2  3  1  0
  2  4  1  0
  2  5  1  0
  4  6  1  0
  5  7  1  0
  6  8  1  0
  7  9  1  0
  8 10  1  1
  8 11  1  0
 12  9  1  1
 11 13  1  0
 12 14  1  0
 12 15  1  0
 13 16  1  0
 13 17  1  0
 18 15  1  6
 14 19  1  0
 19 20  1  6
 16 21  1  0
 17 22  1  0
 18 23  1  0
 19 23  1  0
 18 24  1  0
 21 25  1  0
 22 25  1  0
 24 26  1  0
 23 27  1  1
 26 27  1  0
 26 28  1  1
M  CHG  1   1  -1
M  END
