ucsf378-ucsf320
     RDKit          3D

 21 22  0  0  0  0  0  0  0  0999 V2000
   -1.9830   14.5140   -3.4250 C   0  0  0  0  0  0  0  0  0  0  0  0
   -2.1960   15.4150   -2.1760 C   0  0  2  0  0  0  0  0  0  0  0  0
   -1.4090   14.9590   -1.2110 O   0  0  0  0  0  0  0  0  0  0  0  0
   -0.5130   14.6200   -3.7870 C   0  0  1  0  0  0  0  0  0  0  0  0
    0.4080   13.4210   -3.3730 C   0  0  1  0  0  0  0  0  0  0  0  0
   -0.2290   15.2020   -5.1520 C   0  0  0  0  0  0  0  0  0  0  0  0
   -3.6650   15.3300   -1.6810 C   0  0  2  0  0  0  0  0  0  0  0  0
   -0.1630   12.0100   -3.6210 C   0  0  0  0  0  0  0  0  0  0  0  0
    1.7890   13.7490   -3.9230 C   0  0  1  0  0  0  0  0  0  0  0  0
    1.0550   15.9660   -5.0140 C   0  0  0  0  0  0  0  0  0  0  0  0
   -3.7910   14.6180   -0.3220 C   0  0  0  0  0  0  0  0  0  0  0  0
   -4.6330   14.7270   -2.7060 C   0  0  0  0  0  0  0  0  0  0  0  0
    2.3190   12.8280   -5.3340 Cl  0  0  0  0  0  0  0  0  0  0  0  0
   -0.4380   11.2180   -2.3340 C   0  0  2  0  0  0  0  0  0  0  0  0
    1.9890   15.2470   -4.0590 C   0  0  0  0  0  0  0  0  0  0  0  0
   -5.2240   14.6100    0.1880 C   0  0  0  0  0  0  0  0  0  0  0  0
   -6.0670   14.8400   -2.2280 C   0  0  0  0  0  0  0  0  0  0  0  0
    0.0660   11.8660   -1.3000 O   0  0  0  0  0  0  0  0  0  0  0  0
    0.3840   10.0750   -2.3370 O   0  0  0  0  0  0  0  0  0  0  0  0
   -6.1540   15.3380   -0.7840 C   0  0  1  0  0  0  0  0  0  0  0  0
   -7.4950   15.1680   -0.3170 O   0  0  0  0  0  0  0  0  0  0  0  0
  1  2  1  0
  2  3  1  1
  4  1  1  6
  4  5  1  0
  4  6  1  0
  2  7  1  0
  5  8  1  6
  5  9  1  0
  6 10  1  0
  7 11  1  1
  7 12  1  0
  9 13  1  6
  8 14  1  0
  9 15  1  0
 10 15  1  0
 11 16  1  0
 12 17  1  0
 14 18  1  1
 14 19  1  0
 16 20  1  0
 17 20  1  0
 20 21  1  1
M  CHG  2   3  -1  18  -1
M  END
