ucsf012-ucsf337
     RDKit          3D

 26 29  0  0  0  0  0  0  0  0999 V2000
   -3.0080   15.3270   -4.2180 C   0  0  0  0  0  0  0  0  0  0  0  0
   -2.5110   14.5370   -3.0040 C   0  0  2  0  0  0  0  0  0  0  0  0
   -3.3650   14.7160   -1.7480 C   0  0  1  0  0  0  0  0  0  0  0  0
   -1.1530   14.7880   -2.5140 N   0  0  0  0  0  0  0  0  0  0  0  0
   -4.7020   14.0640   -1.8100 C   0  0  0  0  0  0  0  0  0  0  0  0
   -0.0860   14.5090   -3.4600 C   0  0  0  0  0  0  0  0  0  0  0  0
   -2.4650   14.2490   -0.6180 C   0  0  1  0  0  0  0  0  0  0  0  0
   -1.0440   14.2660   -1.1520 C   0  0  2  0  0  0  0  0  0  0  0  0
   -2.5550   14.7130    0.8410 C   0  0  1  0  0  0  0  0  0  0  0  0
   -0.2040   15.0540   -0.2930 N   0  0  0  0  0  0  0  0  0  0  0  0
    0.2840   13.0540   -3.8420 C   0  0  1  0  0  0  0  0  0  0  0  0
   -3.7530   14.2120    1.5210 N   0  0  0  0  0  0  0  0  0  0  0  0
   -1.4090   14.2480    1.6000 N   0  0  0  0  0  0  0  0  0  0  0  0
   -0.1110   14.4620    1.0170 C   0  0  0  0  0  0  0  0  0  0  0  0
    0.9140   12.2080   -2.7380 C   0  0  0  0  0  0  0  0  0  0  0  0
   -0.8920   12.3310   -4.2810 O   0  0  0  0  0  0  0  0  0  0  0  0
   -0.6260   10.9530   -4.0370 C   0  0  0  0  0  0  0  0  0  0  0  0
    0.0990   10.9270   -2.7170 C   0  0  0  0  0  0  0  0  0  0  0  0
   -4.9770   14.9170    1.0930 C   0  0  2  0  0  0  0  0  0  0  0  0
   -6.1780   14.0230    0.6010 C   0  0  1  0  0  0  0  0  0  0  0  0
   -4.4480   15.8250    0.0350 C   0  0  0  0  0  0  0  0  0  0  0  0
   -7.4640   14.3720    1.3630 C   0  0  0  0  0  0  0  0  0  0  0  0
   -5.3470   16.1650   -1.1170 C   0  0  0  0  0  0  0  0  0  0  0  0
   -6.5480   14.0210   -0.8450 N   0  0  0  0  0  0  0  0  0  0  0  0
   -6.5110   15.2940   -1.5030 C   0  0  2  0  0  0  0  0  0  0  0  0
   -6.4840   15.0110   -2.9330 N   0  0  0  0  0  0  0  0  0  0  0  0
  2  1  1  6
  2  3  1  0
  2  4  1  0
  3  5  1  6
  4  6  1  0
  3  7  1  0
  4  8  1  0
  7  8  1  0
  7  9  1  1
  8 10  1  1
 11  6  1  1
  9 12  1  1
  9 13  1  0
 10 14  1  0
 13 14  1  0
 11 15  1  0
 11 16  1  0
 16 17  1  0
 15 18  1  0
 17 18  1  0
 19 12  1  6
 19 20  1  0
 19 21  1  0
 20 22  1  1
 21 23  1  0
 20 24  1  0
 23 25  1  0
 24 25  1  0
 25 26  1  6
M  END
