ucsf584-ucsf243
     RDKit          3D

 15 16  0  0  0  0  0  0  0  0999 V2000
   -2.1900   14.5680   -3.5970 O   0  0  0  0  0  0  0  0  0  0  0  0
   -3.1960   14.3540   -2.5490 N   0  0  0  0  0  0  0  0  0  0  0  0
   -2.5960   14.6950   -1.2300 C   0  0  1  0  0  0  0  0  0  0  0  0
   -4.2880   15.2230   -2.8830 C   0  0  0  0  0  0  0  0  0  0  0  0
   -1.0310   15.0960   -1.3040 C   0  0  2  0  0  0  0  0  0  0  0  0
   -3.5550   15.3850   -0.1840 C   0  0  0  0  0  0  0  0  0  0  0  0
   -5.4600   15.1280   -1.9340 C   0  0  0  0  0  0  0  0  0  0  0  0
   -0.5410   14.8760   -2.6360 O   0  0  0  0  0  0  0  0  0  0  0  0
   -0.2080   14.3020   -0.6450 O   0  0  0  0  0  0  0  0  0  0  0  0
   -5.1020   15.4410   -0.4780 C   0  0  1  0  0  0  0  0  0  0  0  0
   -6.0300   14.5430    0.4200 C   0  0  0  0  0  0  0  0  0  0  0  0
   -6.1720   14.9390    1.8300 N   0  0  0  0  0  0  0  0  0  0  0  0
   -7.4180   14.5630   -0.0920 N   0  0  0  0  0  0  0  0  0  0  0  0
   -8.3080   14.2420    1.0310 C   0  0  0  0  0  0  0  0  0  0  0  0
   -7.5220   14.5670    2.2790 C   0  0  0  0  0  0  0  0  0  0  0  0
  1  2  1  0
  2  3  1  0
  2  4  1  0
  3  5  1  0
  3  6  1  6
  4  7  1  0
  5  8  1  6
  5  9  1  0
  6 10  1  0
  7 10  1  0
 10 11  1  1
 11 12  1  0
 11 13  1  0
 13 14  1  0
 12 15  1  0
 14 15  1  0
M  CHG  1   9  -1
M  END
