ucsf404-ucsf274
     RDKit          3D

 29 32  0  0  0  0  0  0  0  0999 V2000
   -6.5990   14.8050   -2.2590 Cl  0  0  0  0  0  0  0  0  0  0  0  0
   -5.1160   15.5030   -1.5350 C   0  0  1  0  0  0  0  0  0  0  0  0
   -4.9720   15.2500   -0.0290 C   0  0  1  0  0  0  0  0  0  0  0  0
   -3.9060   15.1810   -2.4310 C   0  0  0  0  0  0  0  0  0  0  0  0
   -5.9400   14.3040    0.5500 N   0  0  0  0  0  0  0  0  0  0  0  0
   -3.5440   15.0480    0.4900 C   0  0  1  0  0  0  0  0  0  0  0  0
   -2.9760   14.1060   -1.8770 C   0  0  2  0  0  0  0  0  0  0  0  0
   -3.5740   12.6830   -1.9060 C   0  0  0  0  0  0  0  0  0  0  0  0
   -5.5520   13.9340    1.8760 C   0  0  1  0  0  0  0  0  0  0  0  0
   -3.7640   14.0780    1.9790 S   0  0  0  0  0  0  0  0  0  0  0  0
   -2.4990   14.4280   -0.4450 C   0  0  0  0  0  0  0  0  0  0  0  0
   -6.2540   14.7730    2.8050 N   0  0  0  0  0  0  0  0  0  0  0  0
   -2.7060   11.6750   -2.6600 C   0  0  0  0  0  0  0  0  0  0  0  0
   -2.2170   12.2640   -3.8640 O   0  0  0  0  0  0  0  0  0  0  0  0
   -1.4450   11.3570   -4.6570 C   0  0  2  0  0  0  0  0  0  0  0  0
   -0.6000   12.0950   -5.7610 C   0  0  1  0  0  0  0  0  0  0  0  0
   -2.4230   10.4050   -5.1800 N   0  0  0  0  0  0  0  0  0  0  0  0
    0.3910   13.1330   -5.1880 C   0  0  0  0  0  0  0  0  0  0  0  0
   -2.1150    9.8290   -6.5060 C   0  0  1  0  0  0  0  0  0  0  0  0
    0.1390   11.1410   -6.5880 N   0  0  0  0  0  0  0  0  0  0  0  0
    0.3030   13.2500   -3.6540 C   0  0  0  0  0  0  0  0  0  0  0  0
   -0.7840   10.2290   -7.2620 C   0  0  1  0  0  0  0  0  0  0  0  0
   -2.2620    8.3110   -6.3600 C   0  0  0  0  0  0  0  0  0  0  0  0
    1.2450   12.2790   -2.9220 C   0  0  2  0  0  0  0  0  0  0  0  0
    0.0080    9.0050   -7.7270 C   0  0  0  0  0  0  0  0  0  0  0  0
   -2.1060    7.5920   -7.6950 C   0  0  0  0  0  0  0  0  0  0  0  0
    0.5820   11.2420   -2.4380 O   0  0  0  0  0  0  0  0  0  0  0  0
    1.6600   12.9250   -1.7570 O   0  0  0  0  0  0  0  0  0  0  0  0
   -0.8870    8.0480   -8.4960 C   0  0  0  0  0  0  0  0  0  0  0  0
  2  1  1  6
  2  3  1  0
  2  4  1  0
  3  5  1  6
  3  6  1  0
  4  7  1  0
  7  8  1  1
  5  9  1  0
  6 10  1  0
  9 10  1  0
  6 11  1  6
  7 11  1  0
  9 12  1  1
  8 13  1  0
 13 14  1  0
 15 14  1  6
 15 16  1  0
 15 17  1  0
 16 18  1  1
 17 19  1  0
 16 20  1  0
 18 21  1  0
 19 22  1  0
 20 22  1  0
 19 23  1  1
 21 24  1  0
 22 25  1  1
 23 26  1  0
 24 27  1  1
 24 28  1  0
 25 29  1  0
 26 29  1  0
M  CHG  1  27  -1
M  END
