ucsf404-ucsf115
     RDKit          3D

 23 26  0  0  0  0  0  0  0  0999 V2000
   -7.0030   15.6840   -2.0470 Cl  0  0  0  0  0  0  0  0  0  0  0  0
   -5.7300   14.4850   -1.7590 C   0  0  2  0  0  0  0  0  0  0  0  0
   -5.2910   14.4530   -0.3050 C   0  0  2  0  0  0  0  0  0  0  0  0
   -4.4740   14.6770   -2.5840 C   0  0  0  0  0  0  0  0  0  0  0  0
   -6.3280   14.7820    0.6540 N   0  0  0  0  0  0  0  0  0  0  0  0
   -4.0400   15.3250   -0.0460 C   0  0  1  0  0  0  0  0  0  0  0  0
   -3.3710   13.8710   -1.9060 C   0  0  0  0  0  0  0  0  0  0  0  0
   -5.6550   14.5620    1.8790 C   0  0  1  0  0  0  0  0  0  0  0  0
   -4.1220   15.4890    1.7720 S   0  0  0  0  0  0  0  0  0  0  0  0
   -2.8030   14.6360   -0.6930 C   0  0  2  0  0  0  0  0  0  0  0  0
   -6.5310   15.0090    2.9050 N   0  0  0  0  0  0  0  0  0  0  0  0
   -2.2000   13.7010    0.3550 C   0  0  0  0  0  0  0  0  0  0  0  0
   -1.6410   15.5090   -1.2480 C   0  0  2  0  0  0  0  0  0  0  0  0
   -1.5290   15.6070   -2.7170 N   0  0  0  0  0  0  0  0  0  0  0  0
   -0.3840   15.0880   -0.6740 N   0  0  0  0  0  0  0  0  0  0  0  0
   -1.4740   14.4460    1.3570 N   0  0  0  0  0  0  0  0  0  0  0  0
   -1.4120   14.4470   -3.6310 C   0  0  0  0  0  0  0  0  0  0  0  0
   -0.4320   15.2420    0.7570 C   0  0  0  0  0  0  0  0  0  0  0  0
   -1.1130   13.0660   -3.0070 C   0  0  1  0  0  0  0  0  0  0  0  0
   -1.0440   12.0580   -4.0390 O   0  0  0  0  0  0  0  0  0  0  0  0
    0.2000   12.9720   -2.2410 C   0  0  0  0  0  0  0  0  0  0  0  0
    0.7280   11.6030   -2.5870 C   0  0  0  0  0  0  0  0  0  0  0  0
   -0.3250   10.9740   -3.4650 C   0  0  0  0  0  0  0  0  0  0  0  0
  2  1  1  1
  2  3  1  0
  2  4  1  0
  3  5  1  1
  3  6  1  0
  4  7  1  0
  5  8  1  0
  6  9  1  1
  8  9  1  0
  6 10  1  0
 10  7  1  6
  8 11  1  1
 10 12  1  0
 10 13  1  0
 13 14  1  6
 13 15  1  0
 12 16  1  0
 14 17  1  0
 15 18  1  0
 16 18  1  0
 19 17  1  6
 19 20  1  0
 19 21  1  0
 21 22  1  0
 20 23  1  0
 22 23  1  0
M  END
