ucsf387-ucsf487
     RDKit          3D

 25 27  0  0  0  0  0  0  0  0999 V2000
    0.9740   18.1420   -4.3990 Cl  0  0  0  0  0  0  0  0  0  0  0  0
    0.4210   16.5880   -5.0520 C   0  0  2  0  0  0  0  0  0  0  0  0
   -1.1210   16.6730   -5.0140 C   0  0  0  0  0  0  0  0  0  0  0  0
    1.1260   15.4220   -4.3220 C   0  0  0  0  0  0  0  0  0  0  0  0
    0.1680   14.2900   -3.8970 C   0  0  2  0  0  0  0  0  0  0  0  0
   -1.8870   15.3820   -4.6970 C   0  0  1  0  0  0  0  0  0  0  0  0
   -3.2110   15.3110   -5.4810 C   0  0  0  0  0  0  0  0  0  0  0  0
    0.8520   12.9180   -3.5780 C   0  0  0  0  0  0  0  0  0  0  0  0
   -0.9810   14.1770   -4.8920 C   0  0  0  0  0  0  0  0  0  0  0  0
    0.1390   12.0520   -2.4850 C   0  0  1  0  0  0  0  0  0  0  0  0
   -4.2550   14.4130   -4.8080 C   0  0  0  0  0  0  0  0  0  0  0  0
    0.5560   10.7980   -2.3960 O   0  0  0  0  0  0  0  0  0  0  0  0
    0.4370   12.5630   -1.2110 O   0  0  0  0  0  0  0  0  0  0  0  0
   -3.9620   14.1200   -3.3250 C   0  0  0  0  0  0  0  0  0  0  0  0
   -4.0690   15.3340   -2.3760 C   0  0  1  0  0  0  0  0  0  0  0  0
   -5.5360   15.5430   -1.9330 C   0  0  0  0  0  0  0  0  0  0  0  0
   -3.1170   15.2600   -1.1700 C   0  0  0  0  0  0  0  0  0  0  0  0
   -6.0210   14.4810   -0.9720 C   0  0  1  0  0  0  0  0  0  0  0  0
   -3.8790   15.3600    0.1490 C   0  0  0  0  0  0  0  0  0  0  0  0
   -5.0530   14.3580    0.2350 C   0  0  1  0  0  0  0  0  0  0  0  0
   -7.4380   14.6450   -0.6500 N   0  0  0  0  0  0  0  0  0  0  0  0
   -5.6710   14.4200    1.6500 C   0  0  0  0  0  0  0  0  0  0  0  0
   -7.8540   13.8720    0.5050 C   0  0  0  0  0  0  0  0  0  0  0  0
   -7.2070   14.4380    1.7690 C   0  0  1  0  0  0  0  0  0  0  0  0
   -7.6620   13.6830    2.9360 N   0  0  0  0  0  0  0  0  0  0  0  0
  2  1  1  1
  2  3  1  0
  2  4  1  0
  4  5  1  0
  3  6  1  0
  6  7  1  6
  5  8  1  6
  5  9  1  0
  6  9  1  0
  8 10  1  0
  7 11  1  0
 10 12  1  1
 10 13  1  0
 11 14  1  0
 15 14  1  1
 15 16  1  0
 15 17  1  0
 18 16  1  1
 17 19  1  0
 18 20  1  0
 20 19  1  1
 18 21  1  0
 20 22  1  0
 21 23  1  0
 22 24  1  0
 23 24  1  0
 24 25  1  1
M  CHG  1  12  -1
M  END
