ucsf523-ucsf151
     RDKit          3D

 24 26  0  0  0  0  0  0  0  0999 V2000
    0.1340   14.3950    1.8130 N   0  0  0  0  0  0  0  0  0  0  0  0
   -0.7140   14.0960    0.7440 C   0  0  1  0  0  0  0  0  0  0  0  0
   -2.0150   13.8800    1.2360 N   0  0  0  0  0  0  0  0  0  0  0  0
   -0.6480   15.0870   -0.2310 N   0  0  0  0  0  0  0  0  0  0  0  0
   -1.7410   14.9710   -1.1910 C   0  0  2  0  0  0  0  0  0  0  0  0
   -3.0220   14.8620    0.9310 C   0  0  1  0  0  0  0  0  0  0  0  0
   -1.3950   15.7560   -2.2960 O   0  0  0  0  0  0  0  0  0  0  0  0
   -3.0350   15.4260   -0.5160 C   0  0  2  0  0  0  0  0  0  0  0  0
   -4.2580   14.1950    1.2250 N   0  0  0  0  0  0  0  0  0  0  0  0
    0.0260   15.6780   -2.4130 C   0  0  0  0  0  0  0  0  0  0  0  0
   -5.2800   15.1330    0.9440 C   0  0  2  0  0  0  0  0  0  0  0  0
   -4.2450   15.0270   -1.3310 N   0  0  0  0  0  0  0  0  0  0  0  0
   -6.4400   14.7330    1.6320 O   0  0  0  0  0  0  0  0  0  0  0  0
    0.4480   14.3260   -3.0220 C   0  0  2  0  0  0  0  0  0  0  0  0
   -5.4660   15.3690   -0.5750 C   0  0  0  0  0  0  0  0  0  0  0  0
    0.5090   13.3380   -2.1420 O   0  0  0  0  0  0  0  0  0  0  0  0
    1.7910   14.4570   -3.4160 O   0  0  0  0  0  0  0  0  0  0  0  0
   -0.4720   14.0250   -4.2350 C   0  0  2  0  0  0  0  0  0  0  0  0
   -1.1180   15.3240   -4.7780 C   0  0  0  0  0  0  0  0  0  0  0  0
   -1.5460   12.9430   -4.0220 C   0  0  0  0  0  0  0  0  0  0  0  0
   -2.6020   15.1880   -5.1320 C   0  0  1  0  0  0  0  0  0  0  0  0
   -2.3900   12.6700   -5.2070 N   0  0  0  0  0  0  0  0  0  0  0  0
   -2.9790   16.2680   -5.9990 O   0  0  0  0  0  0  0  0  0  0  0  0
   -2.9660   13.8690   -5.8380 C   0  0  0  0  0  0  0  0  0  0  0  0
  2  1  1  1
  2  3  1  0
  2  4  1  0
  4  5  1  0
  6  3  1  6
  5  7  1  6
  5  8  1  0
  6  8  1  0
  6  9  1  0
  7 10  1  0
  9 11  1  0
  8 12  1  6
 11 13  1  6
 10 14  1  0
 11 15  1  0
 12 15  1  0
 14 16  1  1
 14 17  1  0
 14 18  1  0
 18 19  1  1
 18 20  1  0
 19 21  1  0
 20 22  1  0
 21 23  1  6
 21 24  1  0
 22 24  1  0
M  CHG  1  16  -1
M  END
