ucsf258-ucsf371
     RDKit          3D

 11 11  0  0  0  0  0  0  0  0999 V2000
    0.7640   13.6550   -1.4790 O   0  0  0  0  0  0  0  0  0  0  0  0
   -0.2050   13.5740   -2.3640 C   0  0  2  0  0  0  0  0  0  0  0  0
    0.2080   14.4670   -3.3770 O   0  0  0  0  0  0  0  0  0  0  0  0
   -1.5700   14.0420   -1.7290 C   0  0  2  0  0  0  0  0  0  0  0  0
   -2.3880   15.0170   -2.6030 C   0  0  1  0  0  0  0  0  0  0  0  0
   -1.4290   14.6630   -0.3950 N   0  0  0  0  0  0  0  0  0  0  0  0
   -2.4520   14.5770   -3.9740 O   0  0  0  0  0  0  0  0  0  0  0  0
   -3.8120   15.1140   -2.0380 C   0  0  0  0  0  0  0  0  0  0  0  0
   -2.7190   14.6460    0.2740 C   0  0  0  0  0  0  0  0  0  0  0  0
   -3.8360   15.3730   -0.5090 C   0  0  2  0  0  0  0  0  0  0  0  0
   -5.2100   15.0990    0.1020 C   0  0  0  0  0  0  0  0  0  0  0  0
  2  1  1  1
  2  3  1  0
  2  4  1  0
  4  5  1  0
  4  6  1  1
  5  7  1  6
  5  8  1  0
  6  9  1  0
  8 10  1  0
  9 10  1  0
 10 11  1  1
M  CHG  1   1  -1
M  END
