ucsf151-ucsf123
     RDKit          3D

 14 14  0  0  0  0  0  0  0  0999 V2000
    0.5150   12.6640   -1.7200 O   0  0  0  0  0  0  0  0  0  0  0  0
    0.0610   13.9280   -2.1820 C   0  0  1  0  0  0  0  0  0  0  0  0
    1.1400   14.5830   -2.7590 O   0  0  0  0  0  0  0  0  0  0  0  0
    0.3640   11.6770   -2.5840 O   0  0  0  0  0  0  0  0  0  0  0  0
   -1.1020   13.8500   -3.1780 C   0  0  1  0  0  0  0  0  0  0  0  0
   -1.4810   15.2150   -3.6500 C   0  0  0  0  0  0  0  0  0  0  0  0
   -0.9650   12.9510   -4.3750 C   0  0  0  0  0  0  0  0  0  0  0  0
   -1.7760   15.2540   -5.1130 C   0  0  2  0  0  0  0  0  0  0  0  0
   -2.1660   12.8920   -5.2070 N   0  0  0  0  0  0  0  0  0  0  0  0
   -2.0660   16.5190   -5.5430 O   0  0  0  0  0  0  0  0  0  0  0  0
   -2.7700   14.1680   -5.4130 C   0  0  0  0  0  0  0  0  0  0  0  0
   -1.4990   17.6330   -5.7920 S   0  0  2  0  0  0  0  0  0  0  0  0
   -2.1760   19.1540   -5.1020 N   0  0  0  0  0  0  0  0  0  0  0  0
   -1.2880   18.2040   -7.4040 O   0  0  0  0  0  0  0  0  0  0  0  0
  1  2  1  0
  2  3  1  6
  1  4  1  0
  2  5  1  0
  5  6  1  6
  5  7  1  0
  6  8  1  0
  7  9  1  0
  8 10  1  1
  8 11  1  0
  9 11  1  0
 10 12  1  0
 12 13  1  1
 12 14  1  0
M  CHG  1   4  -1
M  END
