ucsf109-ucsf337
     RDKit          3D

 14 16  0  0  0  0  0  0  0  0999 V2000
   -3.9560   15.1230    1.7050 N   0  0  0  0  0  0  0  0  0  0  0  0
   -4.8010   14.2790    0.8760 C   0  0  2  0  0  0  0  0  0  0  0  0
   -4.2500   14.1420   -0.5530 C   0  0  1  0  0  0  0  0  0  0  0  0
   -6.1740   14.7210    1.0530 N   0  0  0  0  0  0  0  0  0  0  0  0
   -7.0430   14.3750   -0.0340 C   0  0  2  0  0  0  0  0  0  0  0  0
   -5.3140   14.1480   -1.6660 C   0  0  1  0  0  0  0  0  0  0  0  0
   -3.2640   15.1790   -1.0450 C   0  0  0  0  0  0  0  0  0  0  0  0
   -6.9170   14.2260    2.2150 N   0  0  0  0  0  0  0  0  0  0  0  0
   -6.5220   14.8630   -1.3120 N   0  0  0  0  0  0  0  0  0  0  0  0
   -4.5730   14.5480   -2.9470 C   0  0  0  0  0  0  0  0  0  0  0  0
   -3.1760   14.9690   -2.5440 C   0  0  0  0  0  0  0  0  0  0  0  0
   -8.3460   14.8210    0.4310 N   0  0  0  0  0  0  0  0  0  0  0  0
   -8.2860   14.6450    1.8930 C   0  0  0  0  0  0  0  0  0  0  0  0
   -7.4240   14.9350   -2.4620 N   0  0  0  0  0  0  0  0  0  0  0  0
  2  1  1  1
  2  3  1  0
  2  4  1  0
  4  5  1  0
  3  6  1  0
  3  7  1  6
  4  8  1  0
  5  9  1  0
  6  9  1  0
  6 10  1  6
  7 11  1  0
 10 11  1  0
  5 12  1  1
  8 13  1  0
 12 13  1  0
  9 14  1  0
M  END
