ucsf520-ucsf493
     RDKit          3D

 26 29  0  0  0  0  0  0  0  0999 V2000
   -4.4420   15.5700    1.5600 N   0  0  0  0  0  0  0  0  0  0  0  0
   -3.8320   14.7950    0.5040 C   0  0  2  0  0  0  0  0  0  0  0  0
   -2.3230   14.5570    0.7050 C   0  0  1  0  0  0  0  0  0  0  0  0
   -4.1880   15.5260   -0.6880 N   0  0  0  0  0  0  0  0  0  0  0  0
   -3.6460   14.8830   -1.8660 C   0  0  0  0  0  0  0  0  0  0  0  0
   -1.7380   14.0070   -0.5880 C   0  0  1  0  0  0  0  0  0  0  0  0
   -1.3950   15.6280    1.0490 N   0  0  0  0  0  0  0  0  0  0  0  0
   -2.2240   14.6950   -1.7620 N   0  0  0  0  0  0  0  0  0  0  0  0
   -0.2950   14.1960   -0.3770 N   0  0  0  0  0  0  0  0  0  0  0  0
   -0.1560   14.8740    0.8960 C   0  0  0  0  0  0  0  0  0  0  0  0
   -1.5920   14.2100   -2.9720 C   0  0  0  0  0  0  0  0  0  0  0  0
   -0.3850   14.9980   -3.4220 C   0  0  2  0  0  0  0  0  0  0  0  0
   -0.7140   16.3190   -4.1880 C   0  0  2  0  0  0  0  0  0  0  0  0
    0.7490   14.0800   -3.9750 C   0  0  1  0  0  0  0  0  0  0  0  0
    0.6000   12.5100   -3.9470 C   0  0  0  0  0  0  0  0  0  0  0  0
   -1.6630   16.4060   -5.3370 N   0  0  0  0  0  0  0  0  0  0  0  0
    0.5690   16.9240   -4.7990 C   0  0  2  0  0  0  0  0  0  0  0  0
    1.0200   14.5730   -5.3810 C   0  0  0  0  0  0  0  0  0  0  0  0
   -3.0560   16.3630   -4.8980 O   0  0  0  0  0  0  0  0  0  0  0  0
    0.0660   11.7990   -2.6490 C   0  0  1  0  0  0  0  0  0  0  0  0
    0.0670   17.9240   -5.8440 C   0  0  0  0  0  0  0  0  0  0  0  0
    1.4740   15.9630   -5.4060 N   0  0  0  0  0  0  0  0  0  0  0  0
   -1.4490   17.7600   -5.8580 C   0  0  0  0  0  0  0  0  0  0  0  0
   -3.7910   15.4230   -5.6980 C   0  0  0  0  0  0  0  0  0  0  0  0
    0.5130   10.4490   -2.6260 O   0  0  0  0  0  0  0  0  0  0  0  0
    0.6330   12.2340   -1.5410 O   0  0  0  0  0  0  0  0  0  0  0  0
  2  1  1  1
  2  3  1  0
  2  4  1  0
  4  5  1  0
  3  6  1  0
  3  7  1  6
  5  8  1  0
  6  8  1  0
  6  9  1  1
  7 10  1  0
  9 10  1  0
  8 11  1  0
 12 11  1  6
 12 13  1  0
 12 14  1  0
 14 15  1  6
 13 16  1  6
 13 17  1  0
 14 18  1  0
 16 19  1  0
 15 20  1  0
 17 21  1  6
 17 22  1  0
 18 22  1  0
 16 23  1  0
 21 23  1  0
 19 24  1  0
 20 25  1  6
 20 26  1  0
M  CHG  1  26  -1
M  END
