ucsf247-ucsf110
     RDKit          3D

 24 26  0  0  0  0  0  0  0  0999 V2000
   -0.0320   11.8760   -1.7260 O   0  0  0  0  0  0  0  0  0  0  0  0
    0.3490   12.9770   -2.3910 C   0  0  1  0  0  0  0  0  0  0  0  0
    1.1640   12.4310   -3.4230 O   0  0  0  0  0  0  0  0  0  0  0  0
   -0.8580   13.8500   -3.0630 C   0  0  1  0  0  0  0  0  0  0  0  0
   -2.2160   13.2420   -2.8820 N   0  0  0  0  0  0  0  0  0  0  0  0
   -0.8780   15.0890   -2.3180 N   0  0  0  0  0  0  0  0  0  0  0  0
   -3.3210   14.2080   -2.9880 C   0  0  1  0  0  0  0  0  0  0  0  0
   -2.1160   15.8680   -2.4930 C   0  0  0  0  0  0  0  0  0  0  0  0
   -0.8730   14.7120   -0.9130 C   0  0  2  0  0  0  0  0  0  0  0  0
   -4.1570   13.9620   -4.0910 O   0  0  0  0  0  0  0  0  0  0  0  0
   -4.2450   14.3340   -1.7210 C   0  0  1  0  0  0  0  0  0  0  0  0
   -2.8100   15.9360   -1.1320 C   0  0  0  0  0  0  0  0  0  0  0  0
   -2.3180   14.6950   -0.4640 C   0  0  2  0  0  0  0  0  0  0  0  0
   -0.0050   15.3890   -0.0130 N   0  0  0  0  0  0  0  0  0  0  0  0
   -5.7050   14.7020   -2.0360 C   0  0  0  0  0  0  0  0  0  0  0  0
   -4.1860   13.1770   -0.7030 C   0  0  0  0  0  0  0  0  0  0  0  0
   -2.5440   14.5620    1.0350 C   0  0  2  0  0  0  0  0  0  0  0  0
   -0.1400   14.6370    1.1890 C   0  0  0  0  0  0  0  0  0  0  0  0
   -3.5550   15.3560    1.6900 N   0  0  0  0  0  0  0  0  0  0  0  0
   -6.4330   15.1490   -0.7710 C   0  0  1  0  0  0  0  0  0  0  0  0
   -4.9600   13.5100    0.5680 C   0  0  0  0  0  0  0  0  0  0  0  0
   -1.4020   14.9640    1.7620 N   0  0  0  0  0  0  0  0  0  0  0  0
   -7.7010   14.5080   -0.6440 O   0  0  0  0  0  0  0  0  0  0  0  0
   -5.6280   14.8880    0.5080 C   0  0  0  0  0  0  0  0  0  0  0  0
  2  1  1  6
  2  3  1  0
  2  4  1  0
  4  5  1  1
  4  6  1  0
  5  7  1  0
  6  8  1  0
  6  9  1  0
  7 10  1  6
  7 11  1  0
  8 12  1  0
  9 13  1  0
 13 12  1  1
  9 14  1  1
 11 15  1  6
 11 16  1  0
 13 17  1  0
 14 18  1  0
 17 19  1  1
 15 20  1  0
 16 21  1  0
 17 22  1  0
 18 22  1  0
 20 23  1  1
 20 24  1  0
 21 24  1  0
M  CHG  1   1  -1
M  END
