ucsf348-ucsf016
     RDKit          3D

 24 28  0  0  0  0  0  0  0  0999 V2000
   -6.7550   13.6400    2.5470 N   0  0  0  0  0  0  0  0  0  0  0  0
   -6.1590   14.7000    1.8280 C   0  0  1  0  0  0  0  0  0  0  0  0
   -4.8200   14.2570    1.5500 N   0  0  0  0  0  0  0  0  0  0  0  0
   -6.9940   14.7940    0.6690 N   0  0  0  0  0  0  0  0  0  0  0  0
   -6.2850   14.4930   -0.5450 C   0  0  1  0  0  0  0  0  0  0  0  0
   -4.0910   15.1050    0.5600 C   0  0  2  0  0  0  0  0  0  0  0  0
   -7.0930   14.7450   -1.6840 O   0  0  0  0  0  0  0  0  0  0  0  0
   -4.9930   15.2740   -0.6980 C   0  0  1  0  0  0  0  0  0  0  0  0
   -2.6320   14.5200    0.3310 C   0  0  1  0  0  0  0  0  0  0  0  0
   -2.1650   14.2550   -1.1470 C   0  0  1  0  0  0  0  0  0  0  0  0
   -4.4540   14.8030   -2.0310 C   0  0  0  0  0  0  0  0  0  0  0  0
   -1.5890   15.1240    1.1650 N   0  0  0  0  0  0  0  0  0  0  0  0
   -3.0090   15.0060   -2.1590 C   0  0  0  0  0  0  0  0  0  0  0  0
   -0.2610   14.6940    0.8490 C   0  0  0  0  0  0  0  0  0  0  0  0
   -0.6370   14.3240   -1.4950 C   0  0  1  0  0  0  0  0  0  0  0  0
   -0.2920   14.8950   -2.8320 N   0  0  0  0  0  0  0  0  0  0  0  0
    0.0600   15.0930   -0.4860 N   0  0  0  0  0  0  0  0  0  0  0  0
    0.7700   14.1520   -3.5480 C   0  0  0  0  0  0  0  0  0  0  0  0
   -1.4020   15.3740   -3.7330 C   0  0  0  0  0  0  0  0  0  0  0  0
   -1.8270   14.4100   -4.8300 C   0  0  0  0  0  0  0  0  0  0  0  0
    0.1910   13.0760   -4.4590 C   0  0  0  0  0  0  0  0  0  0  0  0
   -3.1500   13.6670   -4.7440 C   0  0  0  0  0  0  0  0  0  0  0  0
   -3.0200   14.8340   -5.6770 C   0  0  0  0  0  0  0  0  0  0  0  0
   -0.6680   13.7380   -5.5100 C   0  0  0  0  0  0  0  0  0  0  0  0
  2  1  1  1
  2  3  1  0
  2  4  1  0
  4  5  1  0
  6  3  1  1
  5  7  1  6
  5  8  1  0
  6  8  1  0
  6  9  1  0
  9 10  1  0
  8 11  1  6
  9 12  1  6
 10 13  1  6
 11 13  1  0
 12 14  1  0
 10 15  1  0
 15 16  1  6
 14 17  1  0
 15 17  1  0
 16 18  1  0
 16 19  1  0
 20 19  1  0
 18 21  1  0
 20 22  1  0
 20 23  1  0
 22 23  1  0
 20 24  1  0
 21 24  1  0
M  END
