ucsf247-ucsf385
     RDKit          3D

 20 21  0  0  0  0  0  0  0  0999 V2000
    0.7150   13.1060   -2.1010 O   0  0  0  0  0  0  0  0  0  0  0  0
    0.5550   13.6310   -3.2990 C   0  0  2  0  0  0  0  0  0  0  0  0
    1.7120   14.4320   -3.4490 O   0  0  0  0  0  0  0  0  0  0  0  0
   -0.7530   14.5000   -3.3760 C   0  0  0  0  0  0  0  0  0  0  0  0
   -1.6270   14.5240   -2.1630 N   0  0  0  0  0  0  0  0  0  0  0  0
   -2.8510   15.2710   -2.4300 C   0  0  1  0  0  0  0  0  0  0  0  0
   -0.8310   14.9140   -0.9810 C   0  0  0  0  0  0  0  0  0  0  0  0
   -3.4910   14.9150   -3.6550 O   0  0  0  0  0  0  0  0  0  0  0  0
   -3.8650   15.1160   -1.2650 C   0  0  1  0  0  0  0  0  0  0  0  0
   -1.6020   15.9000   -0.1160 C   0  0  0  0  0  0  0  0  0  0  0  0
   -0.1870   13.8180   -0.1170 C   0  0  0  0  0  0  0  0  0  0  0  0
   -5.3240   14.9810   -1.7050 C   0  0  0  0  0  0  0  0  0  0  0  0
   -3.5370   13.9310   -0.3350 C   0  0  0  0  0  0  0  0  0  0  0  0
   -0.3010   14.1050    1.3730 C   0  0  0  0  0  0  0  0  0  0  0  0
   -2.4320   15.1710    0.9170 C   0  0  0  0  0  0  0  0  0  0  0  0
   -6.2290   15.1820   -0.5100 C   0  0  1  0  0  0  0  0  0  0  0  0
   -4.4270   13.9650    0.8940 C   0  0  0  0  0  0  0  0  0  0  0  0
   -1.6680   14.3280    1.8140 N   0  0  0  0  0  0  0  0  0  0  0  0
   -7.3050   14.2500   -0.5190 O   0  0  0  0  0  0  0  0  0  0  0  0
   -5.4440   15.0990    0.8200 C   0  0  0  0  0  0  0  0  0  0  0  0
  2  1  1  1
  2  3  1  0
  2  4  1  0
  4  5  1  0
  5  6  1  0
  5  7  1  0
  6  8  1  6
  6  9  1  0
  7 10  1  0
  7 11  1  0
  9 12  1  6
  9 13  1  0
 11 14  1  0
 10 15  1  0
 12 16  1  0
 13 17  1  0
 14 18  1  0
 15 18  1  0
 16 19  1  1
 16 20  1  0
 17 20  1  0
M  CHG  1   1  -1
M  END
