ucsf348-ucsf017
     RDKit          3D

 25 29  0  0  0  0  0  0  0  0999 V2000
   -6.9010   14.7480    2.4670 N   0  0  0  0  0  0  0  0  0  0  0  0
   -6.1170   14.3290    1.3630 C   0  0  2  0  0  0  0  0  0  0  0  0
   -4.8230   14.9000    1.4500 N   0  0  0  0  0  0  0  0  0  0  0  0
   -6.7710   14.8000    0.2000 N   0  0  0  0  0  0  0  0  0  0  0  0
   -6.1200   14.2580   -0.9640 C   0  0  1  0  0  0  0  0  0  0  0  0
   -3.8820   14.4830    0.4090 C   0  0  1  0  0  0  0  0  0  0  0  0
   -6.7110   14.8520   -2.1000 O   0  0  0  0  0  0  0  0  0  0  0  0
   -4.5760   14.4300   -0.9770 C   0  0  2  0  0  0  0  0  0  0  0  0
   -2.4850   15.2220    0.4830 C   0  0  2  0  0  0  0  0  0  0  0  0
   -1.7220   15.4950   -0.8500 C   0  0  2  0  0  0  0  0  0  0  0  0
   -4.1090   15.5680   -1.8350 C   0  0  0  0  0  0  0  0  0  0  0  0
   -1.6620   14.6320    1.5490 N   0  0  0  0  0  0  0  0  0  0  0  0
   -2.6200   15.5920   -2.0840 C   0  0  0  0  0  0  0  0  0  0  0  0
   -0.2560   14.6350    1.3060 C   0  0  0  0  0  0  0  0  0  0  0  0
   -0.5070   14.5410   -1.1000 C   0  0  2  0  0  0  0  0  0  0  0  0
   -0.6840   13.3930   -2.0100 N   0  0  0  0  0  0  0  0  0  0  0  0
    0.0400   13.9440    0.1110 N   0  0  0  0  0  0  0  0  0  0  0  0
   -1.2810   13.5500   -3.3670 C   0  0  1  0  0  0  0  0  0  0  0  0
    0.4700   12.5030   -2.1330 C   0  0  0  0  0  0  0  0  0  0  0  0
   -1.7030   14.8810   -3.9850 C   0  0  0  0  0  0  0  0  0  0  0  0
   -0.4200   12.9950   -4.4840 C   0  0  2  0  0  0  0  0  0  0  0  0
    0.0790   11.2030   -2.8210 C   0  0  0  0  0  0  0  0  0  0  0  0
   -1.3130   13.3010   -5.6640 C   0  0  0  0  0  0  0  0  0  0  0  0
   -1.9540   14.5640   -5.3760 O   0  0  0  0  0  0  0  0  0  0  0  0
   -0.1820   11.4940   -4.2950 C   0  0  0  0  0  0  0  0  0  0  0  0
  2  1  1  1
  2  3  1  0
  2  4  1  0
  4  5  1  0
  6  3  1  1
  5  7  1  6
  5  8  1  0
  6  8  1  0
  6  9  1  0
  9 10  1  0
  8 11  1  1
  9 12  1  1
 10 13  1  6
 11 13  1  0
 12 14  1  0
 10 15  1  0
 15 16  1  6
 14 17  1  0
 15 17  1  0
 16 18  1  0
 16 19  1  0
 18 20  1  6
 18 21  1  0
 19 22  1  0
 21 23  1  6
 20 24  1  0
 23 24  1  0
 21 25  1  0
 22 25  1  0
M  END
