ucsf173-ucsf147
     RDKit          3D

 19 21  0  0  0  0  0  0  0  0999 V2000
    1.5160   12.4100   -2.3160 O   0  0  0  0  0  0  0  0  0  0  0  0
    0.1900   12.7940   -2.2380 C   0  0  0  0  0  0  0  0  0  0  0  0
   -0.5590   11.6910   -2.6430 O   0  0  0  0  0  0  0  0  0  0  0  0
   -0.0910   12.9000   -0.8760 O   0  0  0  0  0  0  0  0  0  0  0  0
   -0.1280   14.1290   -2.9240 C   0  0  2  0  0  0  0  0  0  0  0  0
   -1.5870   14.7610   -3.1320 C   0  0  0  0  0  0  0  0  0  0  0  0
    0.7940   14.5530   -4.1170 C   0  0  1  0  0  0  0  0  0  0  0  0
    1.2710   13.4590   -5.0870 C   0  0  0  0  0  0  0  0  0  0  0  0
   -1.4840   15.3280   -4.6180 C   0  0  2  0  0  0  0  0  0  0  0  0
    0.0050   15.6530   -4.8570 C   0  0  1  0  0  0  0  0  0  0  0  0
   -1.8340   15.8120   -2.0230 C   0  0  0  0  0  0  0  0  0  0  0  0
   -2.9140   13.9170   -3.0000 C   0  0  0  0  0  0  0  0  0  0  0  0
   -2.4320   16.4610   -5.0600 C   0  0  0  0  0  0  0  0  0  0  0  0
    0.4040   17.0900   -4.5180 C   0  0  0  0  0  0  0  0  0  0  0  0
   -2.6190   15.3330   -0.7810 C   0  0  0  0  0  0  0  0  0  0  0  0
   -4.1650   14.7520   -2.5880 C   0  0  0  0  0  0  0  0  0  0  0  0
   -1.7950   17.6690   -5.7330 C   0  0  0  0  0  0  0  0  0  0  0  0
   -0.5470   18.1680   -5.0270 C   0  0  0  0  0  0  0  0  0  0  0  0
   -4.0830   15.2070   -1.1420 C   0  0  0  0  0  0  0  0  0  0  0  0
  2  1  1  0
  2  3  1  0
  2  4  1  0
  5  2  1  6
  5  6  1  0
  5  7  1  0
  7  8  1  6
  6  9  1  0
  7 10  1  0
  9 10  1  0
  6 11  1  0
  6 12  1  0
  9 13  1  1
 10 14  1  1
 11 15  1  0
 12 16  1  0
 13 17  1  0
 14 18  1  0
 17 18  1  0
 15 19  1  0
 16 19  1  0
M  CHG  2   1  -1   4  -1
M  END
