ucsf387-ucsf411
     RDKit          3D

 16 17  0  0  0  0  0  0  0  0999 V2000
    0.6260   18.0930   -3.6930 Cl  0  0  0  0  0  0  0  0  0  0  0  0
    0.2990   17.1050   -5.1320 C   0  0  1  0  0  0  0  0  0  0  0  0
    1.0670   15.8070   -4.9710 C   0  0  0  0  0  0  0  0  0  0  0  0
   -1.2000   16.9900   -5.3370 C   0  0  1  0  0  0  0  0  0  0  0  0
    0.6870   18.1720   -6.1440 C   0  0  0  0  0  0  0  0  0  0  0  0
    0.2980   14.5340   -4.5840 C   0  0  1  0  0  0  0  0  0  0  0  0
   -1.9450   15.9690   -4.4820 C   0  0  1  0  0  0  0  0  0  0  0  0
   -1.5680   18.4480   -5.2580 C   0  0  0  0  0  0  0  0  0  0  0  0
   -0.6160   18.9680   -6.3340 C   0  0  0  0  0  0  0  0  0  0  0  0
   -3.2550   15.2510   -5.4920 Cl  0  0  0  0  0  0  0  0  0  0  0  0
    1.0940   13.4540   -3.7880 C   0  0  1  0  0  0  0  0  0  0  0  0
   -1.0780   14.8230   -3.9310 C   0  0  0  0  0  0  0  0  0  0  0  0
    0.3380   12.5190   -2.7550 C   0  0  1  0  0  0  0  0  0  0  0  0
    1.8090   12.6520   -4.7260 O   0  0  0  0  0  0  0  0  0  0  0  0
    0.6090   11.2520   -2.9110 O   0  0  0  0  0  0  0  0  0  0  0  0
    0.6660   12.8410   -1.3990 O   0  0  0  0  0  0  0  0  0  0  0  0
  2  1  1  1
  2  3  1  0
  2  4  1  0
  2  5  1  0
  6  3  1  1
  4  7  1  0
  4  8  1  1
  5  9  1  0
  8  9  1  0
  7 10  1  6
  6 11  1  0
  6 12  1  0
  7 12  1  0
 11 13  1  0
 11 14  1  6
 13 15  1  6
 13 16  1  0
M  CHG  1  15  -1
M  END
