ucsf005-ucsf243
     RDKit          3D

 15 16  0  0  0  0  0  0  0  0999 V2000
   -0.8500   16.1500   -2.7140 C   0  0  0  0  0  0  0  0  0  0  0  0
   -1.5870   14.8530   -2.3600 C   0  0  1  0  0  0  0  0  0  0  0  0
   -3.1260   14.9810   -2.6730 C   0  0  0  0  0  0  0  0  0  0  0  0
   -0.7080   13.7040   -2.9270 C   0  0  1  0  0  0  0  0  0  0  0  0
   -1.6470   14.5130   -0.8720 C   0  0  2  0  0  0  0  0  0  0  0  0
    0.1780   14.1770   -3.9160 O   0  0  0  0  0  0  0  0  0  0  0  0
    0.1800   13.3280   -2.0060 O   0  0  0  0  0  0  0  0  0  0  0  0
   -3.8140   15.3920   -1.3990 N   0  0  0  0  0  0  0  0  0  0  0  0
   -3.1490   14.4620   -0.4890 C   0  0  2  0  0  0  0  0  0  0  0  0
   -0.7920   15.1450    0.1190 N   0  0  0  0  0  0  0  0  0  0  0  0
   -3.3770   14.4080    1.0590 C   0  0  2  0  0  0  0  0  0  0  0  0
   -1.0390   14.2410    1.1580 C   0  0  1  0  0  0  0  0  0  0  0  0
   -4.4380   15.2660    1.5550 N   0  0  0  0  0  0  0  0  0  0  0  0
    0.0470   14.2780    2.0650 N   0  0  0  0  0  0  0  0  0  0  0  0
   -2.1890   14.7560    1.8050 N   0  0  0  0  0  0  0  0  0  0  0  0
  2  1  1  1
  2  3  1  0
  2  4  1  0
  2  5  1  0
  4  6  1  6
  4  7  1  0
  3  8  1  0
  5  9  1  0
  9  8  1  1
  5 10  1  1
  9 11  1  0
 10 12  1  0
 11 13  1  6
 12 14  1  1
 11 15  1  0
 12 15  1  0
M  CHG  1   7  -1
M  END
