ucsf520-ucsf336
     RDKit          3D

 29 32  0  0  0  0  0  0  0  0999 V2000
   -4.2470   15.6110    1.2910 N   0  0  0  0  0  0  0  0  0  0  0  0
   -3.7350   14.7630    0.2200 C   0  0  2  0  0  0  0  0  0  0  0  0
   -2.2360   14.4290    0.2820 C   0  0  1  0  0  0  0  0  0  0  0  0
   -4.0740   15.4100   -1.0210 N   0  0  0  0  0  0  0  0  0  0  0  0
   -3.3330   14.9110   -2.1850 C   0  0  0  0  0  0  0  0  0  0  0  0
   -1.4690   15.2860   -0.6890 C   0  0  2  0  0  0  0  0  0  0  0  0
   -1.4880   14.7160    1.5080 N   0  0  0  0  0  0  0  0  0  0  0  0
   -1.9120   15.2370   -2.0600 N   0  0  0  0  0  0  0  0  0  0  0  0
   -0.1430   14.7630   -0.4390 N   0  0  0  0  0  0  0  0  0  0  0  0
   -0.1170   14.5670    1.0040 C   0  0  0  0  0  0  0  0  0  0  0  0
   -1.0140   14.6230   -3.0880 C   0  0  2  0  0  0  0  0  0  0  0  0
    0.3480   14.0040   -2.6380 C   0  0  0  0  0  0  0  0  0  0  0  0
   -0.9080   15.4900   -4.3760 C   0  0  1  0  0  0  0  0  0  0  0  0
    1.0650   12.9180   -3.4720 C   0  0  1  0  0  0  0  0  0  0  0  0
   -1.4410   16.8280   -4.1300 O   0  0  0  0  0  0  0  0  0  0  0  0
    0.5340   15.7110   -4.8670 C   0  0  0  0  0  0  0  0  0  0  0  0
    1.7580   13.4170   -4.4840 O   0  0  0  0  0  0  0  0  0  0  0  0
    2.0980   12.3100   -2.7500 O   0  0  0  0  0  0  0  0  0  0  0  0
    0.0200   11.8170   -3.9980 C   0  0  2  0  0  0  0  0  0  0  0  0
    0.4740   17.0940   -5.4630 C   0  0  0  0  0  0  0  0  0  0  0  0
   -0.4560   17.7910   -4.5080 C   0  0  0  0  0  0  0  0  0  0  0  0
    0.2220   10.6160   -3.2470 O   0  0  0  0  0  0  0  0  0  0  0  0
    0.1310   11.5370   -5.4190 N   0  0  0  0  0  0  0  0  0  0  0  0
   -0.5640   10.3480   -5.8890 C   0  0  0  0  0  0  0  0  0  0  0  0
   -0.4540   10.0630   -7.3910 C   0  0  0  0  0  0  0  0  0  0  0  0
   -2.0420   10.4460   -5.4760 C   0  0  0  0  0  0  0  0  0  0  0  0
   -1.2170    8.7960   -7.7700 C   0  0  0  0  0  0  0  0  0  0  0  0
   -2.8020    9.1740   -5.8350 C   0  0  0  0  0  0  0  0  0  0  0  0
   -2.6720    8.8370   -7.3190 C   0  0  0  0  0  0  0  0  0  0  0  0
  2  1  1  1
  2  3  1  0
  2  4  1  0
  4  5  1  0
  3  6  1  0
  3  7  1  1
  5  8  1  0
  6  8  1  0
  6  9  1  6
  7 10  1  0
  9 10  1  0
  8 11  1  0
 11 12  1  1
 11 13  1  0
 12 14  1  0
 13 15  1  0
 13 16  1  1
 14 17  1  6
 14 18  1  0
 14 19  1  0
 16 20  1  0
 15 21  1  0
 20 21  1  0
 19 22  1  1
 19 23  1  0
 23 24  1  0
 24 25  1  0
 24 26  1  0
 25 27  1  0
 26 28  1  0
 27 29  1  0
 28 29  1  0
M  CHG  1  17  -1
M  END
