ucsf337-ucsf371
     RDKit          3D

 18 19  0  0  0  0  0  0  0  0999 V2000
   -8.5990   13.9820    0.2870 C   0  0  0  0  0  0  0  0  0  0  0  0
   -7.3890   14.7620   -0.2030 C   0  0  2  0  0  0  0  0  0  0  0  0
   -7.2290   14.5230   -1.6400 N   0  0  0  0  0  0  0  0  0  0  0  0
   -6.1440   14.4240    0.6320 C   0  0  2  0  0  0  0  0  0  0  0  0
   -6.5440   14.6540    2.5370 Br  0  0  0  0  0  0  0  0  0  0  0  0
   -4.9710   15.2930    0.2360 C   0  0  1  0  0  0  0  0  0  0  0  0
   -5.8590   14.6430   -2.0320 C   0  0  1  0  0  0  0  0  0  0  0  0
   -5.9510   14.9130   -3.4450 N   0  0  0  0  0  0  0  0  0  0  0  0
   -3.6400   14.6520    0.5230 C   0  0  0  0  0  0  0  0  0  0  0  0
   -5.1550   15.7400   -1.2220 C   0  0  0  0  0  0  0  0  0  0  0  0
   -2.7280   14.4070   -0.6560 C   0  0  1  0  0  0  0  0  0  0  0  0
   -3.4650   14.0700   -1.8810 N   0  0  0  0  0  0  0  0  0  0  0  0
   -1.6480   15.8000   -0.9070 S   0  0  0  0  0  0  0  0  0  0  0  0
   -3.1670   15.0150   -2.9860 C   0  0  0  0  0  0  0  0  0  0  0  0
   -1.8760   15.7890   -2.7130 C   0  0  2  0  0  0  0  0  0  0  0  0
   -0.6180   15.3870   -3.4980 C   0  0  2  0  0  0  0  0  0  0  0  0
   -1.0050   14.6990   -4.6750 O   0  0  0  0  0  0  0  0  0  0  0  0
    0.1040   14.4880   -2.8710 O   0  0  0  0  0  0  0  0  0  0  0  0
  2  1  1  1
  2  3  1  0
  2  4  1  0
  4  5  1  1
  4  6  1  0
  3  7  1  0
  7  8  1  6
  6  9  1  6
  6 10  1  0
  7 10  1  0
 11  9  1  1
 11 12  1  0
 11 13  1  0
 12 14  1  0
 13 15  1  0
 15 14  1  1
 15 16  1  0
 16 17  1  6
 16 18  1  0
M  CHG  1  18  -1
M  END
