ucsf248-ucsf017
     RDKit          3D

 27 31  0  0  0  0  0  0  0  0999 V2000
   -8.5290   12.6070    2.5980 N   0  0  0  0  0  0  0  0  0  0  0  0
   -8.3560   14.1620    2.0780 S   0  0  0  0  0  0  0  0  0  0  0  0
   -8.4700   15.1900    3.2960 O   0  0  0  0  0  0  0  0  0  0  0  0
   -9.5280   14.5790    1.0650 O   0  0  0  0  0  0  0  0  0  0  0  0
   -6.8060   14.6310    1.2380 C   0  0  1  0  0  0  0  0  0  0  0  0
   -5.7420   13.6620    1.2410 N   0  0  0  0  0  0  0  0  0  0  0  0
   -6.8730   14.9920   -0.1750 N   0  0  0  0  0  0  0  0  0  0  0  0
   -4.7200   14.5480    0.6510 C   0  0  2  0  0  0  0  0  0  0  0  0
   -5.4600   15.3560   -0.4200 C   0  0  1  0  0  0  0  0  0  0  0  0
   -3.5210   13.7680    0.1020 C   0  0  0  0  0  0  0  0  0  0  0  0
   -4.9040   15.0870   -1.8080 C   0  0  0  0  0  0  0  0  0  0  0  0
   -2.5470   14.6860   -0.6530 C   0  0  1  0  0  0  0  0  0  0  0  0
   -3.3620   15.2340   -1.8950 C   0  0  0  0  0  0  0  0  0  0  0  0
   -2.1450   15.7450    0.3700 C   0  0  0  0  0  0  0  0  0  0  0  0
   -1.1370   13.9920   -0.9760 C   0  0  1  0  0  0  0  0  0  0  0  0
   -0.5820   13.9410   -2.3350 N   0  0  0  0  0  0  0  0  0  0  0  0
   -0.0940   14.4470   -0.0670 N   0  0  0  0  0  0  0  0  0  0  0  0
   -1.6670   15.0430    1.5660 N   0  0  0  0  0  0  0  0  0  0  0  0
   -1.3830   13.7470   -3.5240 C   0  0  1  0  0  0  0  0  0  0  0  0
    0.5850   13.0280   -2.3250 C   0  0  0  0  0  0  0  0  0  0  0  0
   -0.4150   14.3720    1.3260 C   0  0  0  0  0  0  0  0  0  0  0  0
   -1.9830   14.9090   -4.3190 C   0  0  0  0  0  0  0  0  0  0  0  0
   -0.5660   13.0730   -4.6210 C   0  0  2  0  0  0  0  0  0  0  0  0
    0.1920   11.6180   -2.7740 C   0  0  0  0  0  0  0  0  0  0  0  0
   -1.5420   13.1350   -5.7720 C   0  0  0  0  0  0  0  0  0  0  0  0
   -2.2730   14.3660   -5.6250 O   0  0  0  0  0  0  0  0  0  0  0  0
   -0.2120   11.6360   -4.2360 C   0  0  0  0  0  0  0  0  0  0  0  0
  1  2  1  0
  2  3  1  0
  2  4  1  0
  5  2  1  6
  5  6  1  0
  5  7  1  0
  6  8  1  0
  7  9  1  0
  8  9  1  0
  8 10  1  6
  9 11  1  6
 12 10  1  1
 11 13  1  0
 12 13  1  0
 12 14  1  0
 12 15  1  0
 15 16  1  6
 15 17  1  0
 14 18  1  0
 16 19  1  0
 16 20  1  0
 17 21  1  0
 18 21  1  0
 19 22  1  6
 19 23  1  0
 20 24  1  0
 23 25  1  6
 22 26  1  0
 25 26  1  0
 23 27  1  0
 24 27  1  0
M  END
