ucsf487-ucsf213
     RDKit          3D

 26 29  0  0  0  0  0  0  0  0999 V2000
   -7.7490   13.6100    2.8950 N   0  0  0  0  0  0  0  0  0  0  0  0
   -7.3130   14.5850    1.9010 C   0  0  2  0  0  0  0  0  0  0  0  0
   -8.0600   14.3710    0.5620 C   0  0  0  0  0  0  0  0  0  0  0  0
   -5.7800   14.5590    1.7450 C   0  0  0  0  0  0  0  0  0  0  0  0
   -5.1830   15.1590    0.4610 C   0  0  2  0  0  0  0  0  0  0  0  0
   -7.1570   14.0170   -0.5330 N   0  0  0  0  0  0  0  0  0  0  0  0
   -6.1900   15.0900   -0.7250 C   0  0  2  0  0  0  0  0  0  0  0  0
   -3.7520   14.6970    0.2370 C   0  0  0  0  0  0  0  0  0  0  0  0
   -5.5760   15.0090   -2.1310 C   0  0  0  0  0  0  0  0  0  0  0  0
   -3.2720   15.0470   -1.1260 C   0  0  0  0  0  0  0  0  0  0  0  0
   -4.1470   14.4870   -2.2130 C   0  0  2  0  0  0  0  0  0  0  0  0
   -3.4790   14.6560   -3.5750 C   0  0  0  0  0  0  0  0  0  0  0  0
   -1.9650   14.8260   -3.4550 C   0  0  0  0  0  0  0  0  0  0  0  0
   -1.2260   15.5300   -4.6070 C   0  0  1  0  0  0  0  0  0  0  0  0
    0.1580   16.1880   -4.3090 C   0  0  1  0  0  0  0  0  0  0  0  0
   -0.7320   13.9680   -5.4400 S   0  0  0  0  0  0  0  0  0  0  0  0
   -2.2320   16.4370   -5.3810 C   0  0  0  0  0  0  0  0  0  0  0  0
    0.9410   13.8060   -4.6410 C   0  0  1  0  0  0  0  0  0  0  0  0
    1.1970   15.1340   -3.9010 C   0  0  0  0  0  0  0  0  0  0  0  0
    0.6170   17.2810   -5.2540 C   0  0  0  0  0  0  0  0  0  0  0  0
   -1.7700   17.8100   -5.9100 C   0  0  0  0  0  0  0  0  0  0  0  0
    1.2130   12.5160   -3.7730 C   0  0  0  0  0  0  0  0  0  0  0  0
   -0.4690   18.3340   -5.3480 C   0  0  0  0  0  0  0  0  0  0  0  0
    0.2670   12.0560   -2.5950 C   0  0  1  0  0  0  0  0  0  0  0  0
    0.4180   10.7510   -2.3160 O   0  0  0  0  0  0  0  0  0  0  0  0
    0.6360   12.6360   -1.3590 O   0  0  0  0  0  0  0  0  0  0  0  0
  2  1  1  1
  2  3  1  0
  2  4  1  0
  5  4  1  1
  3  6  1  0
  5  7  1  0
  6  7  1  0
  5  8  1  0
  7  9  1  6
  8 10  1  0
  9 11  1  0
 10 11  1  0
 11 12  1  6
 12 13  1  0
 14 13  1  1
 14 15  1  0
 14 16  1  0
 14 17  1  0
 16 18  1  0
 15 19  1  6
 18 19  1  0
 15 20  1  0
 17 21  1  0
 18 22  1  1
 20 23  1  0
 21 23  1  0
 22 24  1  0
 24 25  1  1
 24 26  1  0
M  CHG  1  25  -1
M  END
