ucsf169-ucsf424
     RDKit          3D

 22 24  0  0  0  0  0  0  0  0999 V2000
    1.1480   18.3830   -5.4170 C   0  0  0  0  0  0  0  0  0  0  0  0
    0.1540   17.9320   -4.5130 O   0  0  0  0  0  0  0  0  0  0  0  0
   -0.3310   16.6520   -4.9580 C   0  0  2  0  0  0  0  0  0  0  0  0
   -1.8320   16.5480   -4.6840 C   0  0  1  0  0  0  0  0  0  0  0  0
    0.3930   15.4890   -4.2960 C   0  0  0  0  0  0  0  0  0  0  0  0
   -2.4520   17.8040   -4.9590 O   0  0  0  0  0  0  0  0  0  0  0  0
   -2.4830   15.3450   -5.2900 C   0  0  0  0  0  0  0  0  0  0  0  0
   -0.1280   14.1980   -4.9340 C   0  0  1  0  0  0  0  0  0  0  0  0
    0.6630   12.8530   -4.7380 C   0  0  1  0  0  0  0  0  0  0  0  0
   -1.6810   14.0870   -4.8850 C   0  0  0  0  0  0  0  0  0  0  0  0
    0.8990   12.3930   -3.2170 C   0  0  1  0  0  0  0  0  0  0  0  0
    0.4470   11.7040   -5.7800 C   0  0  2  0  0  0  0  0  0  0  0  0
    0.5650   13.3740   -2.2700 O   0  0  0  0  0  0  0  0  0  0  0  0
    0.1070   11.4100   -2.8280 O   0  0  0  0  0  0  0  0  0  0  0  0
    0.1750   12.0420   -7.1860 N   0  0  0  0  0  0  0  0  0  0  0  0
   -0.4410   10.4540   -5.6750 C   0  0  2  0  0  0  0  0  0  0  0  0
    0.5180   10.7620   -7.8140 O   0  0  0  0  0  0  0  0  0  0  0  0
   -0.1500    9.7740   -7.0120 C   0  0  2  0  0  0  0  0  0  0  0  0
   -1.9340   10.4820   -5.3810 C   0  0  0  0  0  0  0  0  0  0  0  0
   -1.3630    9.2960   -7.7940 C   0  0  0  0  0  0  0  0  0  0  0  0
   -2.7310    9.2080   -5.6740 C   0  0  0  0  0  0  0  0  0  0  0  0
   -2.3100    8.4770   -6.9470 C   0  0  0  0  0  0  0  0  0  0  0  0
  1  2  1  0
  3  2  1  1
  3  4  1  0
  3  5  1  0
  4  6  1  6
  4  7  1  0
  8  5  1  1
  8  9  1  0
  7 10  1  0
  8 10  1  0
  9 11  1  1
  9 12  1  0
 11 13  1  1
 11 14  1  0
 12 15  1  6
 12 16  1  0
 15 17  1  0
 16 18  1  0
 17 18  1  0
 16 19  1  6
 18 20  1  6
 19 21  1  0
 20 22  1  0
 21 22  1  0
M  CHG  1  14  -1
M  END
