ucsf260-ucsf190
     RDKit          3D

 25 28  0  0  0  0  0  0  0  0999 V2000
    0.8070   11.3130   -2.1590 O   0  0  0  0  0  0  0  0  0  0  0  0
    1.0480   12.5410   -2.5900 C   0  0  1  0  0  0  0  0  0  0  0  0
    2.2730   12.8030   -1.9880 O   0  0  0  0  0  0  0  0  0  0  0  0
    1.1680   12.5400   -4.1390 C   0  0  1  0  0  0  0  0  0  0  0  0
    0.0030   11.6490   -4.6260 C   0  0  0  0  0  0  0  0  0  0  0  0
    1.0910   13.9700   -4.7660 C   0  0  1  0  0  0  0  0  0  0  0  0
   -0.7140   11.7810   -5.8860 N   0  0  0  0  0  0  0  0  0  0  0  0
   -0.3770   14.4460   -4.9540 C   0  0  2  0  0  0  0  0  0  0  0  0
    1.9250   15.0070   -4.1170 N   0  0  0  0  0  0  0  0  0  0  0  0
   -2.1210   11.4820   -5.7000 C   0  0  0  0  0  0  0  0  0  0  0  0
   -0.2130   10.7220   -6.7150 C   0  0  1  0  0  0  0  0  0  0  0  0
   -0.7410   15.8180   -4.3540 C   0  0  1  0  0  0  0  0  0  0  0  0
    1.6510   16.2620   -4.7860 N   0  0  0  0  0  0  0  0  0  0  0  0
   -1.4880   13.5250   -4.5030 C   0  0  0  0  0  0  0  0  0  0  0  0
   -2.2950   10.0480   -5.7510 N   0  0  0  0  0  0  0  0  0  0  0  0
   -1.0370    9.5160   -6.2830 C   0  0  1  0  0  0  0  0  0  0  0  0
   -0.2570   10.9830   -8.2030 C   0  0  0  0  0  0  0  0  0  0  0  0
    0.4220   16.8190   -4.2890 C   0  0  1  0  0  0  0  0  0  0  0  0
   -2.0250   16.3400   -5.0300 C   0  0  0  0  0  0  0  0  0  0  0  0
   -2.7480   13.8830   -5.2820 C   0  0  0  0  0  0  0  0  0  0  0  0
    0.1600   18.0140   -4.9850 O   0  0  0  0  0  0  0  0  0  0  0  0
   -1.2810    8.5370   -7.4190 C   0  0  0  0  0  0  0  0  0  0  0  0
    0.3480    9.8100   -8.9520 C   0  0  0  0  0  0  0  0  0  0  0  0
   -3.1750   15.3230   -5.0320 C   0  0  0  0  0  0  0  0  0  0  0  0
   -0.1050    8.4560   -8.3910 C   0  0  0  0  0  0  0  0  0  0  0  0
  2  1  1  1
  2  3  1  0
  2  4  1  0
  4  5  1  6
  4  6  1  0
  5  7  1  0
  6  8  1  0
  6  9  1  1
  7 10  1  0
  7 11  1  0
  8 12  1  0
  9 13  1  0
  8 14  1  1
 10 15  1  0
 11 16  1  0
 15 16  1  0
 11 17  1  6
 12 18  1  0
 13 18  1  0
 12 19  1  6
 14 20  1  0
 18 21  1  6
 16 22  1  6
 17 23  1  0
 19 24  1  0
 20 24  1  0
 22 25  1  0
 23 25  1  0
M  CHG  1   1  -1
M  END
