ucsf412-ucsf520
     RDKit          3D

 22 25  0  0  0  0  0  0  0  0999 V2000
   -7.3450   14.8840   -1.1210 O   0  0  0  0  0  0  0  0  0  0  0  0
   -6.5450   14.1330   -0.2340 C   0  0  2  0  0  0  0  0  0  0  0  0
   -6.7390   14.7620    1.0530 N   0  0  0  0  0  0  0  0  0  0  0  0
   -5.0650   13.9830   -0.7130 C   0  0  2  0  0  0  0  0  0  0  0  0
   -4.1340   14.4480    0.4260 C   0  0  1  0  0  0  0  0  0  0  0  0
   -5.9120   14.2650    2.1460 C   0  0  0  0  0  0  0  0  0  0  0  0
   -4.7420   14.6280   -2.1160 C   0  0  0  0  0  0  0  0  0  0  0  0
   -4.4950   13.8250    1.7470 C   0  0  0  0  0  0  0  0  0  0  0  0
   -2.6410   14.7160    0.0500 C   0  0  1  0  0  0  0  0  0  0  0  0
   -3.4130   15.4590   -2.2470 C   0  0  2  0  0  0  0  0  0  0  0  0
   -2.1940   14.8260   -3.0290 C   0  0  0  0  0  0  0  0  0  0  0  0
   -3.0820   15.8880   -0.8030 C   0  0  1  0  0  0  0  0  0  0  0  0
   -1.7360   15.1820    1.1520 N   0  0  0  0  0  0  0  0  0  0  0  0
   -1.8070   13.6840   -0.7020 C   0  0  0  0  0  0  0  0  0  0  0  0
   -4.2610   16.2760   -0.0050 N   0  0  0  0  0  0  0  0  0  0  0  0
   -1.6060   15.6600   -4.2170 C   0  0  1  0  0  0  0  0  0  0  0  0
   -0.4220   14.1280   -0.4540 N   0  0  0  0  0  0  0  0  0  0  0  0
   -0.4210   14.5820    0.9260 C   0  0  0  0  0  0  0  0  0  0  0  0
   -1.6710   17.0890   -3.9310 O   0  0  0  0  0  0  0  0  0  0  0  0
   -0.1230   15.3990   -4.5120 C   0  0  0  0  0  0  0  0  0  0  0  0
    0.3690   16.6970   -5.1130 C   0  0  0  0  0  0  0  0  0  0  0  0
   -0.5210   17.7430   -4.4840 C   0  0  0  0  0  0  0  0  0  0  0  0
  2  1  1  6
  2  3  1  0
  2  4  1  0
  4  5  1  0
  3  6  1  0
  4  7  1  6
  5  8  1  1
  6  8  1  0
  5  9  1  0
  7 10  1  0
 10 11  1  1
  9 12  1  0
 10 12  1  0
  9 13  1  0
  9 14  1  6
 12 15  1  1
 16 11  1  1
 14 17  1  0
 13 18  1  0
 17 18  1  0
 16 19  1  0
 16 20  1  0
 20 21  1  0
 19 22  1  0
 21 22  1  0
M  END
