ucsf378-ucsf147
     RDKit          3D

 25 28  0  0  0  0  0  0  0  0999 V2000
    0.3760   15.3840   -2.5400 Cl  0  0  0  0  0  0  0  0  0  0  0  0
    0.4290   13.5950   -2.5770 C   0  0  1  0  0  0  0  0  0  0  0  0
    0.1690   12.9430   -3.9880 C   0  0  2  0  0  0  0  0  0  0  0  0
    1.8170   13.2980   -2.0700 C   0  0  0  0  0  0  0  0  0  0  0  0
    0.3430   11.4440   -3.9190 C   0  0  0  0  0  0  0  0  0  0  0  0
    1.1840   13.5660   -4.9460 C   0  0  1  0  0  0  0  0  0  0  0  0
    2.8320   13.8330   -3.0380 C   0  0  0  0  0  0  0  0  0  0  0  0
    0.6920   14.9980   -4.8560 C   0  0  0  0  0  0  0  0  0  0  0  0
   -0.4940   10.7930   -2.8550 C   0  0  2  0  0  0  0  0  0  0  0  0
    2.5940   13.2640   -4.4150 C   0  0  0  0  0  0  0  0  0  0  0  0
   -1.2880   11.8110   -2.3160 O   0  0  0  0  0  0  0  0  0  0  0  0
    0.3920   10.1800   -1.9520 O   0  0  0  0  0  0  0  0  0  0  0  0
   -0.7540   15.0140   -4.2290 C   0  0  1  0  0  0  0  0  0  0  0  0
   -0.5470   13.0320   -2.1920 C   0  0  1  0  0  0  0  0  0  0  0  0
   -1.6400   14.6280   -5.2900 O   0  0  0  0  0  0  0  0  0  0  0  0
   -1.3160   14.2350   -2.9230 C   0  0  2  0  0  0  0  0  0  0  0  0
   -0.4200   13.1590   -0.8620 O   0  0  0  0  0  0  0  0  0  0  0  0
   -2.9610   14.4860   -4.7130 N   0  0  0  0  0  0  0  0  0  0  0  0
   -2.7610   13.9390   -3.3370 C   0  0  2  0  0  0  0  0  0  0  0  0
   -3.7770   14.5910   -2.3880 C   0  0  0  0  0  0  0  0  0  0  0  0
   -3.5490   14.2270   -0.9020 C   0  0  0  0  0  0  0  0  0  0  0  0
   -5.2490   14.2960   -2.7590 C   0  0  0  0  0  0  0  0  0  0  0  0
   -4.4410   15.1010   -0.0360 C   0  0  0  0  0  0  0  0  0  0  0  0
   -6.1390   15.1280   -1.8570 C   0  0  0  0  0  0  0  0  0  0  0  0
   -5.2180   15.9610   -0.9940 C   0  0  0  0  0  0  0  0  0  0  0  0
  2  1  1  6
  2  3  1  0
  2  4  1  0
  3  5  1  1
  3  6  1  0
  4  7  1  0
  6  8  1  1
  5  9  1  0
  6 10  1  0
  7 10  1  0
  9 11  1  0
  9 12  1  1
 13  8  1  6
 11 14  1  0
 13 15  1  0
 13 16  1  0
 16 14  1  6
 14 17  1  1
 15 18  1  0
 16 19  1  0
 18 19  1  0
 19 20  1  1
 20 21  1  0
 20 22  1  0
 21 23  1  0
 22 24  1  0
 23 25  1  0
 24 25  1  0
M  CHG  1  17  -1
M  END
