ucsf348-ucsf190
     RDKit          3D

 28 31  0  0  0  0  0  0  0  0999 V2000
   -7.0350   14.7970    2.7310 N   0  0  0  0  0  0  0  0  0  0  0  0
   -6.3190   14.3470    1.5910 C   0  0  2  0  0  0  0  0  0  0  0  0
   -5.0700   15.0650    1.6400 N   0  0  0  0  0  0  0  0  0  0  0  0
   -7.1310   14.7330    0.4740 N   0  0  0  0  0  0  0  0  0  0  0  0
   -6.3720   15.1580   -0.6890 C   0  0  2  0  0  0  0  0  0  0  0  0
   -4.2720   14.4100    0.6150 C   0  0  1  0  0  0  0  0  0  0  0  0
   -7.0270   14.7350   -1.8720 O   0  0  0  0  0  0  0  0  0  0  0  0
   -4.9370   14.6540   -0.7370 C   0  0  2  0  0  0  0  0  0  0  0  0
   -2.7700   14.7530    0.6000 C   0  0  0  0  0  0  0  0  0  0  0  0
   -2.1340   14.3310   -0.7540 C   0  0  0  0  0  0  0  0  0  0  0  0
   -4.1110   15.5950   -1.5510 C   0  0  0  0  0  0  0  0  0  0  0  0
   -2.9080   14.8540   -1.9930 C   0  0  2  0  0  0  0  0  0  0  0  0
   -3.3280   13.8920   -3.1340 C   0  0  0  0  0  0  0  0  0  0  0  0
   -2.4760   14.1520   -4.3410 C   0  0  2  0  0  0  0  0  0  0  0  0
   -2.1340   15.5640   -4.7450 C   0  0  0  0  0  0  0  0  0  0  0  0
   -2.4370   13.2780   -5.5580 C   0  0  0  0  0  0  0  0  0  0  0  0
   -0.6560   15.4600   -4.3960 C   0  0  1  0  0  0  0  0  0  0  0  0
   -0.9150   13.1190   -5.7180 C   0  0  0  0  0  0  0  0  0  0  0  0
   -0.1380   13.9910   -4.6650 C   0  0  1  0  0  0  0  0  0  0  0  0
    0.3140   16.6470   -4.6530 C   0  0  2  0  0  0  0  0  0  0  0  0
   -0.1490   17.6100   -5.5780 O   0  0  0  0  0  0  0  0  0  0  0  0
    1.3660   13.9080   -4.8000 C   0  0  2  0  0  0  0  0  0  0  0  0
    1.6410   16.2080   -5.0400 N   0  0  0  0  0  0  0  0  0  0  0  0
    1.8390   12.5790   -4.1810 C   0  0  0  0  0  0  0  0  0  0  0  0
    2.0310   15.0870   -4.2310 N   0  0  0  0  0  0  0  0  0  0  0  0
    1.4790   12.2020   -2.7070 C   0  0  2  0  0  0  0  0  0  0  0  0
    0.7970   11.0710   -2.6060 O   0  0  0  0  0  0  0  0  0  0  0  0
    0.6580   13.1710   -2.1020 O   0  0  0  0  0  0  0  0  0  0  0  0
  2  1  1  1
  2  3  1  0
  2  4  1  0
  4  5  1  0
  3  6  1  0
  5  7  1  6
  5  8  1  0
  6  8  1  0
  6  9  1  6
  9 10  1  0
  8 11  1  1
 10 12  1  0
 11 12  1  0
 12 13  1  6
 14 13  1  6
 14 15  1  0
 14 16  1  0
 17 15  1  6
 16 18  1  0
 17 19  1  0
 19 18  1  6
 17 20  1  0
 20 21  1  6
 19 22  1  0
 20 23  1  0
 22 24  1  1
 22 25  1  0
 23 25  1  0
 24 26  1  0
 26 27  1  6
 26 28  1  0
M  CHG  1  27  -1
M  END
