ucsf262-ucsf320
     RDKit          3D

 23 25  0  0  0  0  0  0  0  0999 V2000
   -3.1380   15.7890   -5.4090 Cl  0  0  0  0  0  0  0  0  0  0  0  0
   -1.5760   16.7200   -5.3420 C   0  0  2  0  0  0  0  0  0  0  0  0
   -0.8060   16.5370   -4.1000 C   0  0  1  0  0  0  0  0  0  0  0  0
   -1.7360   18.1650   -5.7490 C   0  0  0  0  0  0  0  0  0  0  0  0
   -0.4180   15.0700   -3.8330 C   0  0  2  0  0  0  0  0  0  0  0  0
    0.5220   17.2990   -4.2040 C   0  0  1  0  0  0  0  0  0  0  0  0
   -0.3970   18.6570   -6.2730 C   0  0  0  0  0  0  0  0  0  0  0  0
   -1.5350   14.4830   -3.1660 O   0  0  0  0  0  0  0  0  0  0  0  0
    0.8120   15.3800   -2.9600 C   0  0  2  0  0  0  0  0  0  0  0  0
    1.5320   16.2810   -3.9060 N   0  0  0  0  0  0  0  0  0  0  0  0
    0.8040   18.0160   -5.5550 C   0  0  0  0  0  0  0  0  0  0  0  0
    1.7030   14.2180   -2.3350 C   0  0  2  0  0  0  0  0  0  0  0  0
   -1.6730   14.9840   -1.8300 C   0  0  2  0  0  0  0  0  0  0  0  0
    3.0020   14.3630   -2.6060 O   0  0  0  0  0  0  0  0  0  0  0  0
    1.4340   12.9600   -2.9250 O   0  0  0  0  0  0  0  0  0  0  0  0
   -1.1840   14.0830   -0.9980 O   0  0  0  0  0  0  0  0  0  0  0  0
   -3.1880   15.1970   -1.5270 C   0  0  2  0  0  0  0  0  0  0  0  0
   -3.6290   14.4620   -0.2600 C   0  0  0  0  0  0  0  0  0  0  0  0
   -4.1790   14.9740   -2.6920 C   0  0  0  0  0  0  0  0  0  0  0  0
   -4.9760   14.9610    0.2340 C   0  0  0  0  0  0  0  0  0  0  0  0
   -5.6370   14.8560   -2.2470 C   0  0  0  0  0  0  0  0  0  0  0  0
   -5.9130   15.4580   -0.8710 C   0  0  1  0  0  0  0  0  0  0  0  0
   -7.2610   15.1560   -0.4950 O   0  0  0  0  0  0  0  0  0  0  0  0
  2  1  1  1
  3  2  1  6
  2  4  1  0
  3  5  1  0
  3  6  1  0
  4  7  1  0
  5  8  1  1
  5  9  1  0
  6 10  1  0
  9 10  1  6
  6 11  1  6
  7 11  1  0
  9 12  1  0
  8 13  1  0
 12 14  1  6
 12 15  1  0
 13 16  1  1
 13 17  1  0
 17 18  1  1
 17 19  1  0
 18 20  1  0
 19 21  1  0
 20 22  1  0
 21 22  1  0
 22 23  1  1
M  CHG  2  14  -1  16  -1
M  END
