ucsf403-ucsf016
     RDKit          3D

 30 34  0  0  0  0  0  0  0  0999 V2000
    0.9370    8.7730   -7.6960 Cl  0  0  0  0  0  0  0  0  0  0  0  0
   -0.5380    9.5940   -7.0510 C   0  0  2  0  0  0  0  0  0  0  0  0
   -0.2840   10.4680   -5.8040 C   0  0  1  0  0  0  0  0  0  0  0  0
   -1.5850    8.5080   -6.8170 C   0  0  0  0  0  0  0  0  0  0  0  0
    0.5310   11.6240   -6.1080 O   0  0  0  0  0  0  0  0  0  0  0  0
   -1.6250   11.0840   -5.3590 C   0  0  2  0  0  0  0  0  0  0  0  0
   -2.8720    8.9840   -6.1590 C   0  0  0  0  0  0  0  0  0  0  0  0
   -1.5510   12.3480   -4.4700 C   0  0  0  0  0  0  0  0  0  0  0  0
    1.7160   11.8760   -5.3110 C   0  0  0  0  0  0  0  0  0  0  0  0
   -2.6950   10.0350   -5.0790 C   0  0  0  0  0  0  0  0  0  0  0  0
    1.6540   11.6410   -3.7600 C   0  0  1  0  0  0  0  0  0  0  0  0
   -1.2590   13.7760   -4.9830 C   0  0  1  0  0  0  0  0  0  0  0  0
    0.9210   12.4920   -3.0910 O   0  0  0  0  0  0  0  0  0  0  0  0
    1.0530   10.3980   -3.4380 O   0  0  0  0  0  0  0  0  0  0  0  0
   -2.3040   14.8170   -4.6120 C   0  0  0  0  0  0  0  0  0  0  0  0
    0.1810   14.2320   -4.7810 C   0  0  0  0  0  0  0  0  0  0  0  0
   -3.7900   14.5050   -4.6200 C   0  0  0  0  0  0  0  0  0  0  0  0
   -3.2170   15.3080   -5.7380 C   0  0  0  0  0  0  0  0  0  0  0  0
    0.4910   14.9740   -3.4800 C   0  0  0  0  0  0  0  0  0  0  0  0
   -1.8000   15.9080   -3.6770 C   0  0  0  0  0  0  0  0  0  0  0  0
   -0.7230   15.4430   -2.7960 N   0  0  0  0  0  0  0  0  0  0  0  0
   -1.0380   14.7970   -1.5030 C   0  0  1  0  0  0  0  0  0  0  0  0
    0.1240   14.9020   -0.6170 N   0  0  0  0  0  0  0  0  0  0  0  0
   -2.2600   15.4240   -0.8170 C   0  0  2  0  0  0  0  0  0  0  0  0
   -0.0990   14.7230    0.8250 C   0  0  0  0  0  0  0  0  0  0  0  0
   -2.4310   14.7840    0.5230 C   0  0  1  0  0  0  0  0  0  0  0  0
   -3.6370   15.1780   -1.4160 C   0  0  0  0  0  0  0  0  0  0  0  0
   -1.3570   15.2170    1.3340 N   0  0  0  0  0  0  0  0  0  0  0  0
   -3.6930   15.3120    1.0020 N   0  0  0  0  0  0  0  0  0  0  0  0
   -4.5440   15.3990   -0.2060 C   0  0  0  0  0  0  0  0  0  0  0  0
  2  1  1  1
  2  3  1  0
  2  4  1  0
  3  5  1  6
  3  6  1  0
  4  7  1  0
  6  8  1  1
  5  9  1  0
  6 10  1  0
  7 10  1  0
  9 11  1  0
 12  8  1  1
 11 13  1  1
 11 14  1  0
 12 15  1  0
 12 16  1  0
 15 17  1  0
 15 18  1  0
 17 18  1  0
 16 19  1  0
 15 20  1  0
 19 21  1  0
 20 21  1  0
 22 21  1  6
 22 23  1  0
 22 24  1  0
 23 25  1  0
 24 26  1  0
 24 27  1  6
 25 28  1  0
 26 28  1  1
 26 29  1  0
 27 30  1  0
 29 30  1  0
M  CHG  1  13  -1
M  END
