ucsf013-ucsf124
     RDKit          3D

 28 31  0  0  0  0  0  0  0  0999 V2000
   -4.1770   15.5310    1.9950 N   0  0  0  0  0  0  0  0  0  0  0  0
   -4.9270   14.4730    1.3870 C   0  0  1  0  0  0  0  0  0  0  0  0
   -6.2770   14.7160    1.8300 N   0  0  0  0  0  0  0  0  0  0  0  0
   -4.7790   14.3750   -0.1260 C   0  0  1  0  0  0  0  0  0  0  0  0
   -5.8360   15.2280   -0.8270 C   0  0  2  0  0  0  0  0  0  0  0  0
   -7.2890   14.2260    0.9140 C   0  0  0  0  0  0  0  0  0  0  0  0
   -3.3890   14.6530   -0.6750 C   0  0  0  0  0  0  0  0  0  0  0  0
   -7.2050   14.9060   -0.3720 N   0  0  0  0  0  0  0  0  0  0  0  0
   -5.7700   15.0590   -2.3540 C   0  0  0  0  0  0  0  0  0  0  0  0
   -3.4530   14.1560   -2.1150 C   0  0  2  0  0  0  0  0  0  0  0  0
   -2.1230   13.8770   -2.8310 C   0  0  0  0  0  0  0  0  0  0  0  0
   -4.3370   15.1190   -2.8920 C   0  0  0  0  0  0  0  0  0  0  0  0
   -2.3780   13.1720   -4.1740 C   0  0  0  0  0  0  0  0  0  0  0  0
   -1.7810   11.8760   -4.3020 O   0  0  0  0  0  0  0  0  0  0  0  0
   -1.2110   11.7270   -5.5960 C   0  0  1  0  0  0  0  0  0  0  0  0
    0.1940   12.1470   -5.6160 N   0  0  0  0  0  0  0  0  0  0  0  0
   -1.1300   10.2610   -6.0840 C   0  0  2  0  0  0  0  0  0  0  0  0
    0.7950   12.8270   -4.4520 C   0  0  0  0  0  0  0  0  0  0  0  0
   -0.0050   10.4210   -7.1080 C   0  0  1  0  0  0  0  0  0  0  0  0
    0.9900   11.0880   -6.1800 C   0  0  1  0  0  0  0  0  0  0  0  0
   -2.3820    9.6140   -6.6890 C   0  0  0  0  0  0  0  0  0  0  0  0
    0.5610   12.2120   -3.0270 C   0  0  1  0  0  0  0  0  0  0  0  0
    2.1140   11.6340   -6.7940 O   0  0  0  0  0  0  0  0  0  0  0  0
   -2.0350    8.3460   -7.4810 C   0  0  0  0  0  0  0  0  0  0  0  0
    0.3440    9.1420   -7.8570 C   0  0  0  0  0  0  0  0  0  0  0  0
    0.9840   10.9720   -2.8870 O   0  0  0  0  0  0  0  0  0  0  0  0
    1.4200   12.8960   -2.1250 O   0  0  0  0  0  0  0  0  0  0  0  0
   -0.9200    8.5660   -8.5070 C   0  0  0  0  0  0  0  0  0  0  0  0
  2  1  1  6
  2  3  1  0
  2  4  1  0
  4  5  1  0
  3  6  1  0
  4  7  1  1
  5  8  1  0
  6  8  1  0
  5  9  1  6
  7 10  1  0
 10 11  1  6
  9 12  1  0
 10 12  1  0
 11 13  1  0
 13 14  1  0
 15 14  1  1
 15 16  1  0
 15 17  1  0
 16 18  1  0
 17 19  1  0
 16 20  1  0
 19 20  1  0
 17 21  1  6
 18 22  1  0
 20 23  1  6
 21 24  1  0
 19 25  1  1
 22 26  1  6
 22 27  1  0
 24 28  1  0
 25 28  1  0
M  CHG  1  26  -1
M  END
