ucsf520-ucsf364
     RDKit          3D

 26 29  0  0  0  0  0  0  0  0999 V2000
   -4.4140   15.5700    1.1040 N   0  0  0  0  0  0  0  0  0  0  0  0
   -3.7330   14.7330    0.1260 C   0  0  2  0  0  0  0  0  0  0  0  0
   -2.2930   14.3260    0.5390 C   0  0  1  0  0  0  0  0  0  0  0  0
   -3.8580   15.4080   -1.1490 N   0  0  0  0  0  0  0  0  0  0  0  0
   -3.0440   14.8320   -2.2420 C   0  0  0  0  0  0  0  0  0  0  0  0
   -1.4430   14.0130   -0.6750 C   0  0  1  0  0  0  0  0  0  0  0  0
   -1.4920   15.3370    1.2540 N   0  0  0  0  0  0  0  0  0  0  0  0
   -1.6510   14.8310   -1.8240 N   0  0  0  0  0  0  0  0  0  0  0  0
   -0.0650   14.2430   -0.2310 N   0  0  0  0  0  0  0  0  0  0  0  0
   -0.1370   14.8250    1.0790 C   0  0  0  0  0  0  0  0  0  0  0  0
   -0.5450   14.5310   -2.8030 C   0  0  1  0  0  0  0  0  0  0  0  0
    0.0490   13.0320   -2.6280 C   0  0  2  0  0  0  0  0  0  0  0  0
   -0.7190   15.1600   -4.2390 C   0  0  1  0  0  0  0  0  0  0  0  0
    1.2790   13.0580   -2.1170 O   0  0  0  0  0  0  0  0  0  0  0  0
   -1.4900   16.3900   -4.3020 O   0  0  0  0  0  0  0  0  0  0  0  0
    0.6450   15.4880   -4.8690 C   0  0  0  0  0  0  0  0  0  0  0  0
    0.0410   12.0720   -3.8640 C   0  0  2  0  0  0  0  0  0  0  0  0
    0.6560   16.9730   -5.1250 C   0  0  0  0  0  0  0  0  0  0  0  0
   -0.8000   17.3560   -5.0990 C   0  0  0  0  0  0  0  0  0  0  0  0
    0.8310   12.7470   -5.0570 C   0  0  1  0  0  0  0  0  0  0  0  0
   -1.3770   11.5370   -4.2270 C   0  0  0  0  0  0  0  0  0  0  0  0
    2.3020   13.0180   -4.6620 C   0  0  0  0  0  0  0  0  0  0  0  0
   -1.5970   11.3470   -5.7180 C   0  0  0  0  0  0  0  0  0  0  0  0
    0.6920   12.0080   -6.3930 C   0  0  1  0  0  0  0  0  0  0  0  0
    1.9320   11.4940   -6.8380 O   0  0  0  0  0  0  0  0  0  0  0  0
   -0.3310   10.8950   -6.4040 C   0  0  0  0  0  0  0  0  0  0  0  0
  2  1  1  1
  2  3  1  0
  2  4  1  0
  4  5  1  0
  3  6  1  0
  3  7  1  6
  5  8  1  0
  6  8  1  0
  6  9  1  1
  7 10  1  0
  9 10  1  0
 11  8  1  6
 11 12  1  0
 11 13  1  0
 12 14  1  6
 13 15  1  0
 13 16  1  1
 12 17  1  0
 16 18  1  0
 15 19  1  0
 18 19  1  0
 17 20  1  0
 17 21  1  6
 20 22  1  1
 21 23  1  0
 20 24  1  0
 24 25  1  1
 23 26  1  0
 24 26  1  0
M  CHG  1  14  -1
M  END
