ucsf378-ucsf364
     RDKit          3D

 20 22  0  0  0  0  0  0  0  0999 V2000
   -1.8760   13.8290   -3.0020 Cl  0  0  0  0  0  0  0  0  0  0  0  0
   -0.2090   14.4730   -3.2460 C   0  0  1  0  0  0  0  0  0  0  0  0
    1.0030   13.4860   -3.1340 C   0  0  1  0  0  0  0  0  0  0  0  0
   -0.2720   15.2670   -4.5300 C   0  0  0  0  0  0  0  0  0  0  0  0
    0.9060   11.9640   -3.4440 C   0  0  0  0  0  0  0  0  0  0  0  0
    2.0660   13.8750   -3.9680 C   0  0  1  0  0  0  0  0  0  0  0  0
    1.0010   15.9920   -4.7720 C   0  0  0  0  0  0  0  0  0  0  0  0
    1.6610   13.2560   -5.1960 C   0  0  0  0  0  0  0  0  0  0  0  0
   -0.4050   11.5190   -2.7090 S   0  0  0  0  0  0  0  0  0  0  0  0
    2.1160   15.3450   -4.0450 C   0  0  0  0  0  0  0  0  0  0  0  0
   -0.2840   12.6800   -0.9600 O   0  0  0  0  0  0  0  0  0  0  0  0
    0.2330   10.4850   -1.3720 O   0  0  0  0  0  0  0  0  0  0  0  0
   -1.8310   10.3700   -3.0720 O   0  0  0  0  0  0  0  0  0  0  0  0
    0.6310   12.2970   -4.9740 C   0  0  1  0  0  0  0  0  0  0  0  0
   -0.6220   12.4720   -4.1340 C   0  0  1  0  0  0  0  0  0  0  0  0
   -1.7970   12.3040   -4.9830 C   0  0  0  0  0  0  0  0  0  0  0  0
    0.4470   11.6130   -6.3110 C   0  0  2  0  0  0  0  0  0  0  0  0
    1.5480   11.6720   -7.1360 O   0  0  0  0  0  0  0  0  0  0  0  0
   -1.7780   11.2190   -6.0070 C   0  0  0  0  0  0  0  0  0  0  0  0
   -0.8250   11.7590   -6.9960 C   0  0  0  0  0  0  0  0  0  0  0  0
  2  1  1  6
  2  3  1  0
  2  4  1  0
  3  5  1  6
  3  6  1  0
  4  7  1  0
  6  8  1  6
  5  9  1  0
  6 10  1  0
  7 10  1  0
  9 11  1  0
  9 12  1  0
  9 13  1  0
 14  8  1  6
  9 15  1  0
 14 15  1  0
 15 16  1  6
 14 17  1  0
 17 18  1  6
 16 19  1  0
 17 20  1  0
 19 20  1  0
M  CHG  1  11  -1
M  END
