ucsf005-ucsf378
     RDKit          3D

 23 25  0  0  0  0  0  0  0  0999 V2000
   -2.0370   14.0320   -3.5810 C   0  0  0  0  0  0  0  0  0  0  0  0
   -2.3660   14.9530   -2.4980 N   0  0  0  0  0  0  0  0  0  0  0  0
   -3.7790   15.2660   -2.6220 C   0  0  0  0  0  0  0  0  0  0  0  0
   -0.8630   14.3570   -4.5250 C   0  0  2  0  0  0  0  0  0  0  0  0
   -2.2380   14.3530   -1.1740 C   0  0  2  0  0  0  0  0  0  0  0  0
    0.2680   13.2660   -4.5460 C   0  0  2  0  0  0  0  0  0  0  0  0
   -0.3900   15.8030   -4.2030 C   0  0  0  0  0  0  0  0  0  0  0  0
   -0.1280   11.9530   -3.8090 C   0  0  0  0  0  0  0  0  0  0  0  0
   -4.2870   15.5780   -1.2910 N   0  0  0  0  0  0  0  0  0  0  0  0
   -3.5290   14.6570   -0.4200 C   0  0  2  0  0  0  0  0  0  0  0  0
   -1.1010   14.7640   -0.4020 N   0  0  0  0  0  0  0  0  0  0  0  0
    1.7320   13.7690   -4.5200 C   0  0  2  0  0  0  0  0  0  0  0  0
    1.0190   16.1520   -4.6080 C   0  0  0  0  0  0  0  0  0  0  0  0
    2.9680   12.7470   -3.7400 Cl  0  0  0  0  0  0  0  0  0  0  0  0
    0.5470   11.5420   -2.4730 C   0  0  1  0  0  0  0  0  0  0  0  0
   -3.1900   15.2740    0.9490 C   0  0  1  0  0  0  0  0  0  0  0  0
   -1.0560   14.1440    0.8730 C   0  0  1  0  0  0  0  0  0  0  0  0
    1.8930   15.1570   -3.9160 C   0  0  0  0  0  0  0  0  0  0  0  0
   -4.4120   15.4120    1.7360 N   0  0  0  0  0  0  0  0  0  0  0  0
    0.0240   14.7690    1.5230 N   0  0  0  0  0  0  0  0  0  0  0  0
   -0.1520   11.9100   -1.4180 O   0  0  0  0  0  0  0  0  0  0  0  0
    0.4180   10.1390   -2.3860 O   0  0  0  0  0  0  0  0  0  0  0  0
   -2.2180   14.4940    1.6830 N   0  0  0  0  0  0  0  0  0  0  0  0
  1  2  1  0
  2  3  1  0
  4  1  1  1
  2  5  1  0
  4  6  1  0
  4  7  1  0
  6  8  1  1
  3  9  1  0
  5 10  1  0
 10  9  1  6
  5 11  1  1
  6 12  1  0
  7 13  1  0
 12 14  1  1
  8 15  1  0
 10 16  1  0
 11 17  1  0
 12 18  1  0
 13 18  1  0
 16 19  1  1
 17 20  1  1
 15 21  1  1
 15 22  1  0
 16 23  1  0
 17 23  1  0
M  CHG  1  21  -1
M  END
