ucsf262-ucsf241
     RDKit          3D

 23 26  0  0  0  0  0  0  0  0999 V2000
   -3.0520   15.9920   -4.3180 Cl  0  0  0  0  0  0  0  0  0  0  0  0
   -1.8420   16.6830   -5.4240 C   0  0  2  0  0  0  0  0  0  0  0  0
   -0.4610   16.1480   -5.0950 C   0  0  2  0  0  0  0  0  0  0  0  0
   -1.7600   18.2200   -5.4830 C   0  0  0  0  0  0  0  0  0  0  0  0
   -0.3150   15.0820   -4.0210 C   0  0  0  0  0  0  0  0  0  0  0  0
    0.4990   17.2450   -4.6690 C   0  0  1  0  0  0  0  0  0  0  0  0
   -0.5720   18.7230   -6.3270 C   0  0  0  0  0  0  0  0  0  0  0  0
    0.8780   15.6500   -3.2450 C   0  0  2  0  0  0  0  0  0  0  0  0
    1.5900   16.4200   -4.2590 N   0  0  0  0  0  0  0  0  0  0  0  0
    0.7690   18.1920   -5.8120 C   0  0  0  0  0  0  0  0  0  0  0  0
    1.6980   14.6910   -2.3540 C   0  0  2  0  0  0  0  0  0  0  0  0
    2.9520   14.5010   -2.7280 O   0  0  0  0  0  0  0  0  0  0  0  0
    0.9190   13.5180   -2.4630 O   0  0  0  0  0  0  0  0  0  0  0  0
    0.7430   13.1260   -1.1550 C   0  0  0  0  0  0  0  0  0  0  0  0
   -0.5190   13.6470   -0.4820 C   0  0  2  0  0  0  0  0  0  0  0  0
   -1.3810   14.5440   -1.3480 C   0  0  0  0  0  0  0  0  0  0  0  0
   -0.2650   14.2540    0.9310 C   0  0  0  0  0  0  0  0  0  0  0  0
   -2.6620   14.5860   -0.5630 C   0  0  2  0  0  0  0  0  0  0  0  0
   -1.5360   14.5560    1.6220 N   0  0  0  0  0  0  0  0  0  0  0  0
   -3.7940   15.3920   -1.0920 C   0  0  0  0  0  0  0  0  0  0  0  0
   -2.3700   15.3020    0.7270 C   0  0  2  0  0  0  0  0  0  0  0  0
   -4.6030   15.5840    0.1810 C   0  0  0  0  0  0  0  0  0  0  0  0
   -3.6660   15.5510    1.3250 N   0  0  0  0  0  0  0  0  0  0  0  0
  2  1  1  1
  2  3  1  0
  2  4  1  0
  3  5  1  1
  3  6  1  0
  4  7  1  0
  8  5  1  6
  6  9  1  0
  8  9  1  0
  6 10  1  6
  7 10  1  0
  8 11  1  0
 11 12  1  6
 11 13  1  0
 13 14  1  0
 15 14  1  6
 15 16  1  0
 15 17  1  0
 18 16  1  6
 17 19  1  0
 18 20  1  0
 18 21  1  0
 21 19  1  1
 20 22  1  0
 21 23  1  0
 22 23  1  0
M  CHG  1  12  -1
M  END
