ucsf274-ucsf172
     RDKit          3D

 29 31  0  0  0  0  0  0  0  0999 V2000
    0.6280   11.1350   -2.1790 O   0  0  0  0  0  0  0  0  0  0  0  0
    0.7410   12.4500   -2.3500 C   0  0  2  0  0  0  0  0  0  0  0  0
    0.5140   12.8390   -1.0150 O   0  0  0  0  0  0  0  0  0  0  0  0
   -0.4100   13.0360   -3.3070 C   0  0  2  0  0  0  0  0  0  0  0  0
    0.0290   12.8960   -4.8160 C   0  0  0  0  0  0  0  0  0  0  0  0
   -1.0370   14.5060   -2.9570 C   0  0  1  0  0  0  0  0  0  0  0  0
   -1.4850   15.0770   -4.0830 O   0  0  0  0  0  0  0  0  0  0  0  0
   -0.4390   11.5180   -5.2400 C   0  0  1  0  0  0  0  0  0  0  0  0
   -2.2260   14.5950   -1.8810 C   0  0  2  0  0  0  0  0  0  0  0  0
   -1.8730   11.2490   -4.6970 C   0  0  1  0  0  0  0  0  0  0  0  0
   -0.3080   11.2470   -6.6900 N   0  0  0  0  0  0  0  0  0  0  0  0
   -2.3300   13.6610   -0.6660 C   0  0  0  0  0  0  0  0  0  0  0  0
   -3.6260   14.9510   -2.4250 C   0  0  0  0  0  0  0  0  0  0  0  0
   -2.6090   12.4080   -4.3640 O   0  0  0  0  0  0  0  0  0  0  0  0
   -2.7180   10.4600   -5.6010 N   0  0  0  0  0  0  0  0  0  0  0  0
   -0.5720    9.8240   -6.8590 C   0  0  1  0  0  0  0  0  0  0  0  0
   -3.1660   14.3140    0.4530 C   0  0  0  0  0  0  0  0  0  0  0  0
   -4.6310   15.3850   -1.3450 C   0  0  0  0  0  0  0  0  0  0  0  0
   -1.9120    9.3770   -6.1960 C   0  0  2  0  0  0  0  0  0  0  0  0
   -0.5390    9.4410   -8.3320 C   0  0  0  0  0  0  0  0  0  0  0  0
   -4.5900   14.5410   -0.0550 C   0  0  2  0  0  0  0  0  0  0  0  0
   -5.4840   15.1220    0.9560 N   0  0  0  0  0  0  0  0  0  0  0  0
   -0.7800    7.9470   -8.5490 C   0  0  0  0  0  0  0  0  0  0  0  0
   -2.7760    8.4350   -7.0480 C   0  0  0  0  0  0  0  0  0  0  0  0
   -6.9450   14.3810    1.2040 S   0  0  0  0  0  0  0  0  0  0  0  0
   -1.9720    7.3760   -7.7840 C   0  0  0  0  0  0  0  0  0  0  0  0
   -7.9930   14.9650    2.4870 C   0  0  0  0  0  0  0  0  0  0  0  0
   -6.6910   12.8670    1.6370 O   0  0  0  0  0  0  0  0  0  0  0  0
   -7.8840   14.3630   -0.0980 O   0  0  0  0  0  0  0  0  0  0  0  0
  2  1  1  1
  2  3  1  0
  2  4  1  0
  4  5  1  6
  4  6  1  0
  6  7  1  6
  8  5  1  6
  6  9  1  0
  8 10  1  0
  8 11  1  0
  9 12  1  6
  9 13  1  0
 10 14  1  6
 10 15  1  0
 11 16  1  0
 12 17  1  0
 13 18  1  0
 15 19  1  0
 16 19  1  0
 16 20  1  6
 17 21  1  0
 18 21  1  0
 21 22  1  1
 20 23  1  0
 19 24  1  6
 22 25  1  0
 23 26  1  0
 24 26  1  0
 25 27  1  0
 25 28  1  0
 25 29  1  0
M  CHG  2   1  -1   7  -1
M  END
