ucsf404-ucsf442
     RDKit          3D

 12 13  0  0  0  0  0  0  0  0999 V2000
   -6.5210   15.0270   -2.3250 Cl  0  0  0  0  0  0  0  0  0  0  0  0
   -4.8420   15.3120   -1.7490 C   0  0  1  0  0  0  0  0  0  0  0  0
   -4.7370   15.4980   -0.2160 C   0  0  1  0  0  0  0  0  0  0  0  0
   -3.9100   14.2610   -2.2990 C   0  0  0  0  0  0  0  0  0  0  0  0
   -5.9390   15.0300    0.5000 N   0  0  0  0  0  0  0  0  0  0  0  0
   -3.4400   14.9850    0.4960 C   0  0  1  0  0  0  0  0  0  0  0  0
   -2.4760   14.4790   -1.8370 C   0  0  0  0  0  0  0  0  0  0  0  0
   -5.5320   14.8040    1.8300 C   0  0  2  0  0  0  0  0  0  0  0  0
   -4.0880   13.7870    1.6720 S   0  0  0  0  0  0  0  0  0  0  0  0
   -2.3020   14.3440   -0.3170 C   0  0  1  0  0  0  0  0  0  0  0  0
   -6.6620   14.1560    2.4080 N   0  0  0  0  0  0  0  0  0  0  0  0
   -1.0210   14.8750    0.0500 O   0  0  0  0  0  0  0  0  0  0  0  0
  2  1  1  1
  2  3  1  0
  2  4  1  0
  3  5  1  1
  3  6  1  0
  4  7  1  0
  5  8  1  0
  6  9  1  1
  8  9  1  0
  6 10  1  0
  7 10  1  0
  8 11  1  1
 10 12  1  1
M  END
