ucsf151-ucsf404
     RDKit          3D

 20 22  0  0  0  0  0  0  0  0999 V2000
    0.1140   12.4000   -1.3860 O   0  0  0  0  0  0  0  0  0  0  0  0
   -0.2880   13.7910   -1.4060 C   0  0  1  0  0  0  0  0  0  0  0  0
    0.7090   14.3100   -2.1510 O   0  0  0  0  0  0  0  0  0  0  0  0
   -2.0330   13.9340   -2.4410 S   0  0  0  0  0  0  0  0  0  0  0  0
   -1.3940   14.9870   -3.8350 C   0  0  0  0  0  0  0  0  0  0  0  0
   -2.3920   13.0360   -4.1400 C   0  0  0  0  0  0  0  0  0  0  0  0
   -3.7950   13.5570   -1.7600 C   0  0  0  0  0  0  0  0  0  0  0  0
   -2.8320   14.8980   -1.2190 C   0  0  0  0  0  0  0  0  0  0  0  0
   -2.4180   15.5360   -4.7370 C   0  0  1  0  0  0  0  0  0  0  0  0
   -2.3480   13.5330   -5.3060 N   0  0  0  0  0  0  0  0  0  0  0  0
   -3.4060   15.2660   -0.0290 C   0  0  1  0  0  0  0  0  0  0  0  0
   -4.6730   14.7390   -1.7750 C   0  0  1  0  0  0  0  0  0  0  0  0
   -2.1150   16.7620   -5.3810 O   0  0  0  0  0  0  0  0  0  0  0  0
   -6.3790   14.1830   -2.0770 Cl  0  0  0  0  0  0  0  0  0  0  0  0
   -3.1620   14.6410   -5.6790 C   0  0  0  0  0  0  0  0  0  0  0  0
   -4.8780   15.5990   -0.5560 C   0  0  1  0  0  0  0  0  0  0  0  0
   -3.8630   14.0740    1.3370 S   0  0  0  0  0  0  0  0  0  0  0  0
   -5.4380   14.9590    1.6200 C   0  0  1  0  0  0  0  0  0  0  0  0
   -5.8490   15.0270    0.2630 N   0  0  0  0  0  0  0  0  0  0  0  0
   -6.4420   14.3670    2.4210 N   0  0  0  0  0  0  0  0  0  0  0  0
  2  1  1  6
  2  3  1  0
  2  4  1  0
  4  5  1  0
  4  6  1  0
  4  7  1  0
  4  8  1  0
  5  9  1  0
  6 10  1  0
 11  8  1  6
  7 12  1  0
  9 13  1  6
 12 14  1  1
  9 15  1  0
 10 15  1  0
 11 16  1  0
 12 16  1  0
 11 17  1  0
 17 18  1  0
 16 19  1  1
 18 19  1  0
 18 20  1  1
M  CHG  1   1  -1
M  END
