ucsf248-ucsf243
     RDKit          3D

 17 18  0  0  0  0  0  0  0  0999 V2000
   -8.1480   12.5480    2.4810 N   0  0  0  0  0  0  0  0  0  0  0  0
   -8.1990   14.0930    1.9140 S   0  0  0  0  0  0  0  0  0  0  0  0
   -8.0210   15.1150    3.1380 O   0  0  0  0  0  0  0  0  0  0  0  0
   -9.6180   14.4490    1.2670 O   0  0  0  0  0  0  0  0  0  0  0  0
   -6.9640   14.6780    0.7090 C   0  0  1  0  0  0  0  0  0  0  0  0
   -5.6360   14.9970    1.2990 N   0  0  0  0  0  0  0  0  0  0  0  0
   -6.7070   13.9350   -0.5140 N   0  0  0  0  0  0  0  0  0  0  0  0
   -4.6860   14.5700    0.2400 C   0  0  1  0  0  0  0  0  0  0  0  0
   -5.5600   14.7720   -0.9620 C   0  0  1  0  0  0  0  0  0  0  0  0
   -3.2980   15.2300    0.1490 C   0  0  0  0  0  0  0  0  0  0  0  0
   -4.8720   14.3640   -2.2570 C   0  0  0  0  0  0  0  0  0  0  0  0
   -2.5980   15.2820   -1.2700 C   0  0  2  0  0  0  0  0  0  0  0  0
   -3.5850   15.1730   -2.4880 C   0  0  1  0  0  0  0  0  0  0  0  0
   -2.8880   14.6300   -3.6310 O   0  0  0  0  0  0  0  0  0  0  0  0
   -1.2570   14.4240   -1.4620 C   0  0  1  0  0  0  0  0  0  0  0  0
   -0.7410   14.5240   -2.7980 O   0  0  0  0  0  0  0  0  0  0  0  0
   -0.2790   14.8650   -0.6990 O   0  0  0  0  0  0  0  0  0  0  0  0
  1  2  1  0
  2  3  1  0
  2  4  1  0
  5  2  1  1
  5  6  1  0
  5  7  1  0
  6  8  1  0
  7  9  1  0
  8  9  1  0
  8 10  1  6
  9 11  1  6
 12 10  1  1
 11 13  1  0
 12 13  1  0
 13 14  1  6
 12 15  1  0
 15 16  1  6
 15 17  1  0
M  CHG  1  17  -1
M  END
