ucsf404-ucsf123
     RDKit          3D

 25 27  0  0  0  0  0  0  0  0999 V2000
   -6.8470   15.4200   -2.1810 Cl  0  0  0  0  0  0  0  0  0  0  0  0
   -5.2200   15.4490   -1.4220 C   0  0  1  0  0  0  0  0  0  0  0  0
   -5.2110   14.3510   -0.3650 C   0  0  2  0  0  0  0  0  0  0  0  0
   -4.1520   15.2840   -2.4830 C   0  0  0  0  0  0  0  0  0  0  0  0
   -6.2750   14.5510    0.6540 N   0  0  0  0  0  0  0  0  0  0  0  0
   -3.8660   14.0900    0.3130 C   0  0  2  0  0  0  0  0  0  0  0  0
   -2.8340   14.6290   -2.0570 C   0  0  1  0  0  0  0  0  0  0  0  0
   -5.6850   14.3780    1.9410 C   0  0  1  0  0  0  0  0  0  0  0  0
   -4.0240   14.9970    1.8610 S   0  0  0  0  0  0  0  0  0  0  0  0
   -2.6330   14.4050   -0.5270 C   0  0  0  0  0  0  0  0  0  0  0  0
   -2.6270   13.3840   -2.9550 C   0  0  0  0  0  0  0  0  0  0  0  0
   -6.5410   15.0360    2.8670 N   0  0  0  0  0  0  0  0  0  0  0  0
   -1.4330   13.5170   -3.9410 C   0  0  2  0  0  0  0  0  0  0  0  0
   -0.2030   13.7930   -3.0420 C   0  0  1  0  0  0  0  0  0  0  0  0
   -1.5950   14.5590   -5.0570 C   0  0  0  0  0  0  0  0  0  0  0  0
    0.2330   12.4410   -2.3670 C   0  0  2  0  0  0  0  0  0  0  0  0
   -1.0510   15.9310   -4.6820 C   0  0  2  0  0  0  0  0  0  0  0  0
    0.9280   14.6860   -3.6140 C   0  0  0  0  0  0  0  0  0  0  0  0
   -1.5460   17.3510   -5.6620 S   0  0  0  0  0  0  0  0  0  0  0  0
    0.6550   12.7280   -1.0520 O   0  0  0  0  0  0  0  0  0  0  0  0
    1.2480   11.9010   -2.9880 O   0  0  0  0  0  0  0  0  0  0  0  0
    0.4580   15.8900   -4.4280 C   0  0  0  0  0  0  0  0  0  0  0  0
   -1.8630   18.7960   -4.9550 N   0  0  0  0  0  0  0  0  0  0  0  0
   -0.2790   17.5970   -6.5950 O   0  0  0  0  0  0  0  0  0  0  0  0
   -2.7080   16.9610   -6.6770 O   0  0  0  0  0  0  0  0  0  0  0  0
  2  1  1  6
  2  3  1  0
  2  4  1  0
  3  5  1  1
  3  6  1  0
  4  7  1  0
  5  8  1  0
  6  9  1  0
  8  9  1  0
  6 10  1  6
  7 10  1  0
  7 11  1  6
  8 12  1  1
 13 11  1  1
 13 14  1  0
 13 15  1  0
 14 16  1  0
 15 17  1  0
 14 18  1  6
 17 19  1  6
 16 20  1  1
 16 21  1  0
 17 22  1  0
 18 22  1  0
 19 23  1  0
 19 24  1  0
 19 25  1  0
M  CHG  1  21  -1
M  END
