ucsf109-ucsf264
     RDKit          3D

 33 37  0  0  0  0  0  0  0  0999 V2000
   -3.8280   14.4280    1.8230 N   0  0  0  0  0  0  0  0  0  0  0  0
   -4.7610   15.1810    1.0240 C   0  0  1  0  0  0  0  0  0  0  0  0
   -4.3120   15.3150   -0.4370 C   0  0  2  0  0  0  0  0  0  0  0  0
   -6.0390   14.4800    1.1730 N   0  0  0  0  0  0  0  0  0  0  0  0
   -7.0070   14.6220    0.1150 C   0  0  1  0  0  0  0  0  0  0  0  0
   -5.4020   15.0600   -1.4800 C   0  0  2  0  0  0  0  0  0  0  0  0
   -3.1770   14.3870   -0.8200 C   0  0  0  0  0  0  0  0  0  0  0  0
   -6.7690   14.7040    2.3980 N   0  0  0  0  0  0  0  0  0  0  0  0
   -6.4230   14.0790   -1.0720 N   0  0  0  0  0  0  0  0  0  0  0  0
   -4.6150   14.7680   -2.7650 C   0  0  0  0  0  0  0  0  0  0  0  0
   -3.3060   14.0980   -2.3200 C   0  0  1  0  0  0  0  0  0  0  0  0
   -8.0920   13.8300    0.6360 N   0  0  0  0  0  0  0  0  0  0  0  0
   -8.0860   14.1470    2.0760 C   0  0  0  0  0  0  0  0  0  0  0  0
   -2.0140   14.5410   -3.0280 C   0  0  0  0  0  0  0  0  0  0  0  0
   -0.7730   14.4350   -2.1190 C   0  0  0  0  0  0  0  0  0  0  0  0
    0.5970   14.3420   -2.7770 C   0  0  0  0  0  0  0  0  0  0  0  0
    1.0880   13.0130   -2.5990 O   0  0  0  0  0  0  0  0  0  0  0  0
    1.0900   12.2220   -3.7850 C   0  0  1  0  0  0  0  0  0  0  0  0
    0.4580   10.9810   -3.4830 O   0  0  0  0  0  0  0  0  0  0  0  0
    0.3720   12.9300   -4.9680 C   0  0  0  0  0  0  0  0  0  0  0  0
    0.0390   12.0950   -6.1490 N   0  0  0  0  0  0  0  0  0  0  0  0
    1.1340   11.8020   -7.0950 N   0  0  0  0  0  0  0  0  0  0  0  0
   -0.6580   10.8340   -5.9280 C   0  0  2  0  0  0  0  0  0  0  0  0
    0.7410   10.5290   -7.7900 C   0  0  1  0  0  0  0  0  0  0  0  0
   -0.7090   10.3600   -7.3740 C   0  0  1  0  0  0  0  0  0  0  0  0
   -2.0530   10.9130   -5.3070 C   0  0  0  0  0  0  0  0  0  0  0  0
    0.9650   10.3180   -9.2980 C   0  0  0  0  0  0  0  0  0  0  0  0
   -1.2880    8.9580   -7.5180 C   0  0  0  0  0  0  0  0  0  0  0  0
   -2.9790    9.7870   -5.7980 C   0  0  0  0  0  0  0  0  0  0  0  0
    1.6520    9.1630   -9.4810 F   0  0  0  0  0  0  0  0  0  0  0  0
   -0.1720   10.2160  -10.0030 F   0  0  0  0  0  0  0  0  0  0  0  0
    1.6790   11.2820   -9.8940 F   0  0  0  0  0  0  0  0  0  0  0  0
   -2.2190    8.5840   -6.3580 C   0  0  0  0  0  0  0  0  0  0  0  0
  2  1  1  1
  2  3  1  0
  2  4  1  0
  4  5  1  0
  3  6  1  0
  3  7  1  6
  4  8  1  0
  5  9  1  6
  6  9  1  0
  6 10  1  6
  7 11  1  0
 10 11  1  0
  5 12  1  0
  8 13  1  0
 12 13  1  0
 11 14  1  6
 14 15  1  0
 15 16  1  0
 16 17  1  0
 17 18  1  0
 18 19  1  1
 18 20  1  0
 20 21  1  0
 21 22  1  0
 21 23  1  0
 22 24  1  0
 23 25  1  0
 24 25  1  0
 23 26  1  6
 24 27  1  6
 25 28  1  1
 26 29  1  0
 27 30  1  0
 27 31  1  0
 27 32  1  0
 28 33  1  0
 29 33  1  0
M  END
