ucsf584-ucsf243
     RDKit          3D

 15 16  0  0  0  0  0  0  0  0999 V2000
   -2.1870   14.5680   -3.5950 O   0  0  0  0  0  0  0  0  0  0  0  0
   -3.1970   14.3570   -2.5490 N   0  0  0  0  0  0  0  0  0  0  0  0
   -2.5970   14.6960   -1.2290 C   0  0  1  0  0  0  0  0  0  0  0  0
   -4.2880   15.2230   -2.8840 C   0  0  0  0  0  0  0  0  0  0  0  0
   -1.0310   15.0990   -1.3040 C   0  0  2  0  0  0  0  0  0  0  0  0
   -3.5570   15.3860   -0.1830 C   0  0  0  0  0  0  0  0  0  0  0  0
   -5.4610   15.1280   -1.9340 C   0  0  0  0  0  0  0  0  0  0  0  0
   -0.5410   14.8790   -2.6350 O   0  0  0  0  0  0  0  0  0  0  0  0
   -0.2090   14.3030   -0.6460 O   0  0  0  0  0  0  0  0  0  0  0  0
   -5.1010   15.4450   -0.4780 C   0  0  1  0  0  0  0  0  0  0  0  0
   -6.0320   14.5450    0.4200 C   0  0  0  0  0  0  0  0  0  0  0  0
   -6.1730   14.9390    1.8280 N   0  0  0  0  0  0  0  0  0  0  0  0
   -7.4180   14.5640   -0.0920 N   0  0  0  0  0  0  0  0  0  0  0  0
   -8.3110   14.2400    1.0280 C   0  0  0  0  0  0  0  0  0  0  0  0
   -7.5220   14.5660    2.2810 C   0  0  0  0  0  0  0  0  0  0  0  0
  1  2  1  0
  2  3  1  0
  2  4  1  0
  3  5  1  0
  3  6  1  6
  4  7  1  0
  5  8  1  6
  5  9  1  0
  6 10  1  0
  7 10  1  0
 10 11  1  1
 11 12  1  0
 11 13  1  0
 13 14  1  0
 12 15  1  0
 14 15  1  0
M  CHG  1   9  -1
M  END
