ucsf340-ucsf487
     RDKit          3D

 27 30  0  0  0  0  0  0  0  0999 V2000
    0.8530   18.5700   -5.8440 C   0  0  0  0  0  0  0  0  0  0  0  0
    0.1130   17.7570   -4.8900 N   0  0  0  0  0  0  0  0  0  0  0  0
    1.0230   16.6940   -4.4380 C   0  0  0  0  0  0  0  0  0  0  0  0
   -0.8690   16.9520   -5.5690 C   0  0  1  0  0  0  0  0  0  0  0  0
    0.1560   15.5900   -3.8370 C   0  0  1  0  0  0  0  0  0  0  0  0
   -1.0450   15.6350   -4.7890 C   0  0  1  0  0  0  0  0  0  0  0  0
   -2.2000   17.5570   -5.9970 C   0  0  0  0  0  0  0  0  0  0  0  0
    0.8770   14.2300   -3.7500 C   0  0  0  0  0  0  0  0  0  0  0  0
   -2.4760   15.5420   -4.2430 C   0  0  2  0  0  0  0  0  0  0  0  0
   -3.2660   16.4860   -6.3460 C   0  0  0  0  0  0  0  0  0  0  0  0
    0.0630   12.9130   -3.6340 C   0  0  0  0  0  0  0  0  0  0  0  0
   -2.7470   14.5300   -3.1530 C   0  0  0  0  0  0  0  0  0  0  0  0
   -3.3810   15.3270   -5.4150 C   0  0  0  0  0  0  0  0  0  0  0  0
    0.2710   12.1310   -2.3030 C   0  0  2  0  0  0  0  0  0  0  0  0
   -3.5510   15.1000   -1.9860 C   0  0  1  0  0  0  0  0  0  0  0  0
    1.6100   12.3790   -1.9620 O   0  0  0  0  0  0  0  0  0  0  0  0
    0.2910   10.8030   -2.4400 O   0  0  0  0  0  0  0  0  0  0  0  0
   -5.0700   14.8460   -2.0830 C   0  0  0  0  0  0  0  0  0  0  0  0
   -2.9530   14.5670   -0.6920 C   0  0  0  0  0  0  0  0  0  0  0  0
   -5.7380   14.4490   -0.7630 C   0  0  1  0  0  0  0  0  0  0  0  0
   -3.5840   15.1420    0.5380 C   0  0  0  0  0  0  0  0  0  0  0  0
   -5.1010   15.1780    0.4270 C   0  0  2  0  0  0  0  0  0  0  0  0
   -7.1680   14.6980   -0.8060 N   0  0  0  0  0  0  0  0  0  0  0  0
   -5.6500   14.6680    1.7580 C   0  0  0  0  0  0  0  0  0  0  0  0
   -7.8700   14.5710    0.4740 C   0  0  0  0  0  0  0  0  0  0  0  0
   -7.0500   14.0600    1.6860 C   0  0  2  0  0  0  0  0  0  0  0  0
   -7.7050   14.2710    2.9850 N   0  0  0  0  0  0  0  0  0  0  0  0
  1  2  1  0
  2  3  1  0
  2  4  1  0
  3  5  1  0
  4  6  1  0
  6  5  1  1
  4  7  1  1
  5  8  1  6
  6  9  1  0
  7 10  1  0
  8 11  1  0
  9 12  1  1
  9 13  1  0
 10 13  1  0
 11 14  1  0
 15 12  1  6
 14 16  1  6
 14 17  1  0
 15 18  1  0
 15 19  1  0
 20 18  1  6
 19 21  1  0
 20 22  1  0
 22 21  1  1
 20 23  1  0
 22 24  1  0
 23 25  1  0
 24 26  1  0
 25 26  1  0
 26 27  1  1
M  CHG  1  17  -1
M  END
