ucsf260-ucsf039
     RDKit          3D

 32 36  0  0  0  0  0  0  0  0999 V2000
    0.7230   10.3090   -2.3790 O   0  0  0  0  0  0  0  0  0  0  0  0
    0.6160   11.5760   -2.7450 C   0  0  1  0  0  0  0  0  0  0  0  0
    1.4560   12.2970   -1.8920 O   0  0  0  0  0  0  0  0  0  0  0  0
    1.0180   11.8670   -4.2030 C   0  0  0  0  0  0  0  0  0  0  0  0
    0.3410   13.0310   -4.8970 C   0  0  2  0  0  0  0  0  0  0  0  0
   -0.0300   13.7720   -3.5930 C   0  0  0  0  0  0  0  0  0  0  0  0
   -0.7480   12.3480   -5.7030 N   0  0  0  0  0  0  0  0  0  0  0  0
   -1.1860   14.7130   -3.6850 C   0  0  1  0  0  0  0  0  0  0  0  0
   -1.8870   11.8990   -4.9160 C   0  0  0  0  0  0  0  0  0  0  0  0
   -0.2230   11.0830   -6.2930 C   0  0  1  0  0  0  0  0  0  0  0  0
   -2.5150   10.8520   -5.7290 N   0  0  0  0  0  0  0  0  0  0  0  0
   -1.3600   10.0620   -6.1490 C   0  0  1  0  0  0  0  0  0  0  0  0
    0.4010   11.1030   -7.6990 C   0  0  0  0  0  0  0  0  0  0  0  0
   -1.9120   14.7740   -2.3570 N   0  0  0  0  0  0  0  0  0  0  0  0
   -0.6760   15.9310   -4.5440 C   0  0  2  0  0  0  0  0  0  0  0  0
   -1.6570    9.2460   -7.4020 C   0  0  0  0  0  0  0  0  0  0  0  0
    0.7010    9.7050   -8.2450 C   0  0  0  0  0  0  0  0  0  0  0  0
   -3.3370   15.1190   -2.4760 C   0  0  0  0  0  0  0  0  0  0  0  0
   -1.2740   14.8000   -1.0240 C   0  0  1  0  0  0  0  0  0  0  0  0
    0.6410   16.5440   -4.0520 C   0  0  0  0  0  0  0  0  0  0  0  0
   -1.6400   17.0230   -4.8500 N   0  0  0  0  0  0  0  0  0  0  0  0
   -0.3720    8.6520   -7.9610 C   0  0  0  0  0  0  0  0  0  0  0  0
   -4.1510   14.8270   -1.3000 N   0  0  0  0  0  0  0  0  0  0  0  0
   -2.2130   14.5600    0.1710 C   0  0  2  0  0  0  0  0  0  0  0  0
   -0.3680   13.7680   -0.6320 N   0  0  0  0  0  0  0  0  0  0  0  0
   -0.9060   18.2240   -5.2520 C   0  0  1  0  0  0  0  0  0  0  0  0
    0.8680   17.9230   -5.1930 S   0  0  0  0  0  0  0  0  0  0  0  0
   -1.3160   18.6860   -6.6460 C   0  0  0  0  0  0  0  0  0  0  0  0
   -3.5620   15.2630   -0.0630 C   0  0  2  0  0  0  0  0  0  0  0  0
   -1.2960   14.9090    1.2520 N   0  0  0  0  0  0  0  0  0  0  0  0
   -0.0790   14.2820    0.7230 C   0  0  0  0  0  0  0  0  0  0  0  0
   -4.5430   15.0240    0.9660 N   0  0  0  0  0  0  0  0  0  0  0  0
  2  1  1  1
  2  3  1  0
  2  4  1  0
  5  4  1  1
  5  6  1  0
  5  7  1  0
  8  6  1  1
  7  9  1  0
  7 10  1  0
  9 11  1  0
 10 12  1  0
 11 12  1  0
 10 13  1  6
  8 14  1  0
  8 15  1  0
 12 16  1  6
 13 17  1  0
 14 18  1  0
 14 19  1  0
 15 20  1  1
 15 21  1  0
 16 22  1  0
 17 22  1  0
 18 23  1  0
 19 24  1  0
 19 25  1  6
 21 26  1  0
 20 27  1  0
 26 27  1  0
 26 28  1  6
 23 29  1  0
 24 29  1  0
 24 30  1  1
 25 31  1  0
 30 31  1  0
 29 32  1  1
M  CHG  1   1  -1
M  END
