ucsf028-ucsf584
     RDKit          3D

 22 25  0  0  0  0  0  0  0  0999 V2000
   -3.8740   16.5230    1.0720 N   0  0  0  0  0  0  0  0  0  0  0  0
   -3.8680   15.0750    0.8300 C   0  0  2  0  0  0  0  0  0  0  0  0
   -2.4600   14.4320    0.7350 C   0  0  1  0  0  0  0  0  0  0  0  0
   -4.8180   14.5950   -0.3370 C   0  0  0  0  0  0  0  0  0  0  0  0
   -3.9420   14.4790   -1.7100 C   0  0  0  0  0  0  0  0  0  0  0  0
   -1.7840   14.4940   -0.6030 C   0  0  2  0  0  0  0  0  0  0  0  0
   -1.4090   15.1120    1.5100 N   0  0  0  0  0  0  0  0  0  0  0  0
   -5.4190   13.3300    0.1810 N   0  0  0  0  0  0  0  0  0  0  0  0
   -6.1000   15.3680   -0.5210 N   0  0  0  0  0  0  0  0  0  0  0  0
   -2.4840   14.0250   -1.7550 N   0  0  0  0  0  0  0  0  0  0  0  0
   -0.5180   13.8580   -0.2930 N   0  0  0  0  0  0  0  0  0  0  0  0
   -0.1820   14.5000    0.9880 C   0  0  0  0  0  0  0  0  0  0  0  0
   -7.2370   14.6830    0.1560 C   0  0  0  0  0  0  0  0  0  0  0  0
   -6.5300   13.7360    1.0690 C   0  0  0  0  0  0  0  0  0  0  0  0
   -1.7730   14.4950   -2.9810 C   0  0  0  0  0  0  0  0  0  0  0  0
   -0.6600   13.5630   -3.5370 C   0  0  2  0  0  0  0  0  0  0  0  0
   -1.1050   12.6950   -4.6840 C   0  0  0  0  0  0  0  0  0  0  0  0
   -0.2100   12.6310   -2.5310 O   0  0  0  0  0  0  0  0  0  0  0  0
   -0.0030   11.3230   -3.1650 N   0  0  0  0  0  0  0  0  0  0  0  0
   -0.1290   11.5560   -4.5950 C   0  0  1  0  0  0  0  0  0  0  0  0
   -0.6330   10.4000   -5.2300 O   0  0  0  0  0  0  0  0  0  0  0  0
   -0.5100   10.5140   -6.6400 C   0  0  0  0  0  0  0  0  0  0  0  0
  2  1  1  6
  2  3  1  0
  2  4  1  0
  4  5  1  0
  3  6  1  0
  3  7  1  1
  4  8  1  0
  4  9  1  0
  5 10  1  0
  6 10  1  0
  6 11  1  1
  7 12  1  0
 11 12  1  0
  9 13  1  0
  8 14  1  0
 13 14  1  0
 10 15  1  0
 16 15  1  1
 16 17  1  0
 16 18  1  0
 18 19  1  0
 17 20  1  0
 19 20  1  0
 20 21  1  6
 21 22  1  0
M  END
