ucsf385-ucsf340
     RDKit          3D

 24 26  0  0  0  0  0  0  0  0999 V2000
   -3.8550   15.3160   -1.1290 N   0  0  0  0  0  0  0  0  0  0  0  0
   -2.7370   14.7360   -0.3530 C   0  0  2  0  0  0  0  0  0  0  0  0
   -2.8450   15.0680    1.1150 C   0  0  0  0  0  0  0  0  0  0  0  0
   -1.3440   15.1800   -0.9020 C   0  0  2  0  0  0  0  0  0  0  0  0
   -0.9860   14.2400   -2.0970 C   0  0  2  0  0  0  0  0  0  0  0  0
   -0.2660   15.1920    0.2190 C   0  0  0  0  0  0  0  0  0  0  0  0
   -1.8910   14.3010    1.9070 N   0  0  0  0  0  0  0  0  0  0  0  0
    0.1600   14.5880   -2.9460 N   0  0  0  0  0  0  0  0  0  0  0  0
   -2.0440   14.1840   -2.8750 O   0  0  0  0  0  0  0  0  0  0  0  0
   -0.5430   14.1970    1.3260 C   0  0  0  0  0  0  0  0  0  0  0  0
    0.7160   13.3850   -3.6310 C   0  0  0  0  0  0  0  0  0  0  0  0
    0.0530   15.8400   -3.7160 C   0  0  1  0  0  0  0  0  0  0  0  0
    1.0990   12.1370   -2.7210 C   0  0  1  0  0  0  0  0  0  0  0  0
    0.7890   16.0640   -5.0520 C   0  0  0  0  0  0  0  0  0  0  0  0
   -1.3740   16.1340   -4.1780 C   0  0  1  0  0  0  0  0  0  0  0  0
    0.8210   12.5110   -1.3740 O   0  0  0  0  0  0  0  0  0  0  0  0
    0.2800   11.0900   -2.7920 O   0  0  0  0  0  0  0  0  0  0  0  0
    0.1080   17.1800   -5.7830 N   0  0  0  0  0  0  0  0  0  0  0  0
   -1.1820   17.3510   -5.0950 C   0  0  1  0  0  0  0  0  0  0  0  0
   -2.0560   14.9730   -4.8760 C   0  0  0  0  0  0  0  0  0  0  0  0
    0.8910   18.4070   -5.7560 C   0  0  0  0  0  0  0  0  0  0  0  0
   -3.4120   15.4380   -5.2990 C   0  0  0  0  0  0  0  0  0  0  0  0
   -2.2570   17.6180   -6.1620 C   0  0  0  0  0  0  0  0  0  0  0  0
   -3.3110   16.5050   -6.3590 C   0  0  0  0  0  0  0  0  0  0  0  0
  2  1  1  6
  2  3  1  0
  2  4  1  0
  4  5  1  0
  4  6  1  1
  3  7  1  0
  5  8  1  0
  5  9  1  6
  6 10  1  0
  7 10  1  0
  8 11  1  0
 12  8  1  6
 11 13  1  0
 12 14  1  0
 12 15  1  0
 13 16  1  1
 13 17  1  0
 14 18  1  0
 15 19  1  0
 18 19  1  0
 15 20  1  6
 18 21  1  0
 20 22  1  0
 19 23  1  6
 22 24  1  0
 23 24  1  0
M  CHG  2   9  -1  17  -1
M  END
