ucsf365-ucsf367
     RDKit          3D

 18 19  0  0  0  0  0  0  0  0999 V2000
    0.4960   10.6020   -2.4800 O   0  0  0  0  0  0  0  0  0  0  0  0
    0.3510   11.9170   -2.6420 C   0  0  1  0  0  0  0  0  0  0  0  0
    1.4950   12.4330   -1.9990 O   0  0  0  0  0  0  0  0  0  0  0  0
    0.3160   12.4650   -4.1390 C   0  0  1  0  0  0  0  0  0  0  0  0
    0.3810   11.5300   -5.2600 O   0  0  0  0  0  0  0  0  0  0  0  0
   -0.9260   13.4010   -4.3530 C   0  0  2  0  0  0  0  0  0  0  0  0
   -2.0210   12.6970   -5.1680 C   0  0  2  0  0  0  0  0  0  0  0  0
   -0.5570   14.7740   -4.9460 C   0  0  0  0  0  0  0  0  0  0  0  0
   -0.4030   10.3140   -5.1980 C   0  0  0  0  0  0  0  0  0  0  0  0
   -1.4040   11.7710   -6.0420 O   0  0  0  0  0  0  0  0  0  0  0  0
   -2.8490   13.6030   -6.0620 C   0  0  0  0  0  0  0  0  0  0  0  0
   -1.7680   15.7050   -5.0540 C   0  0  0  0  0  0  0  0  0  0  0  0
   -0.5340    9.7700   -6.6270 C   0  0  0  0  0  0  0  0  0  0  0  0
   -1.7720   10.5390   -4.5520 C   0  0  0  0  0  0  0  0  0  0  0  0
   -3.0470   15.0050   -5.5120 C   0  0  0  0  0  0  0  0  0  0  0  0
   -1.4980    8.5880   -6.7310 C   0  0  0  0  0  0  0  0  0  0  0  0
   -2.9670   10.2140   -5.4620 C   0  0  0  0  0  0  0  0  0  0  0  0
   -2.8540    8.8310   -6.0770 C   0  0  0  0  0  0  0  0  0  0  0  0
  2  1  1  6
  2  3  1  0
  2  4  1  0
  4  5  1  6
  4  6  1  0
  6  7  1  0
  6  8  1  6
  5  9  1  0
  7 10  1  6
  7 11  1  0
  8 12  1  0
  9 13  1  0
  9 14  1  0
 11 15  1  0
 12 15  1  0
 13 16  1  0
 14 17  1  0
 16 18  1  0
 17 18  1  0
M  CHG  1   1  -1
M  END
