ucsf241-ucsf387
     RDKit          3D

 22 24  0  0  0  0  0  0  0  0999 V2000
    0.9840   18.1930   -4.3440 Cl  0  0  0  0  0  0  0  0  0  0  0  0
    0.4580   16.6690   -5.0490 C   0  0  2  0  0  0  0  0  0  0  0  0
   -1.0640   16.7140   -5.1030 C   0  0  0  0  0  0  0  0  0  0  0  0
    1.0290   15.4970   -4.2820 C   0  0  0  0  0  0  0  0  0  0  0  0
    0.5170   14.1760   -4.8730 C   0  0  0  0  0  0  0  0  0  0  0  0
   -1.7660   15.4110   -4.7180 C   0  0  1  0  0  0  0  0  0  0  0  0
   -3.3630   15.3910   -5.5390 Cl  0  0  0  0  0  0  0  0  0  0  0  0
    1.1190   12.9150   -4.1910 C   0  0  0  0  0  0  0  0  0  0  0  0
   -1.0140   14.1170   -5.0450 C   0  0  0  0  0  0  0  0  0  0  0  0
    0.5620   12.5280   -2.7850 C   0  0  1  0  0  0  0  0  0  0  0  0
    0.4760   11.2070   -2.7150 O   0  0  0  0  0  0  0  0  0  0  0  0
    1.5180   12.9910   -1.8280 O   0  0  0  0  0  0  0  0  0  0  0  0
    1.2130   14.2870   -1.3090 C   0  0  0  0  0  0  0  0  0  0  0  0
   -0.1390   14.1980   -0.6020 C   0  0  2  0  0  0  0  0  0  0  0  0
   -1.1820   15.0530   -1.3050 C   0  0  0  0  0  0  0  0  0  0  0  0
   -0.1310   14.4710    0.9250 C   0  0  0  0  0  0  0  0  0  0  0  0
   -2.4790   14.7200   -0.6200 C   0  0  2  0  0  0  0  0  0  0  0  0
   -1.4390   14.6380    1.6010 N   0  0  0  0  0  0  0  0  0  0  0  0
   -3.7540   15.3690   -1.1350 C   0  0  0  0  0  0  0  0  0  0  0  0
   -2.4490   15.2240    0.7830 C   0  0  2  0  0  0  0  0  0  0  0  0
   -4.5980   15.5400    0.1300 C   0  0  0  0  0  0  0  0  0  0  0  0
   -3.7930   14.9620    1.2050 N   0  0  0  0  0  0  0  0  0  0  0  0
  2  1  1  1
  2  3  1  0
  2  4  1  0
  4  5  1  0
  3  6  1  0
  6  7  1  6
  5  8  1  0
  5  9  1  0
  6  9  1  0
  8 10  1  0
 10 11  1  6
 10 12  1  0
 12 13  1  0
 14 13  1  6
 14 15  1  0
 14 16  1  0
 17 15  1  6
 16 18  1  0
 17 19  1  0
 17 20  1  0
 20 18  1  1
 19 21  1  0
 20 22  1  0
 21 22  1  0
M  CHG  1  11  -1
M  END
