ucsf523-ucsf039
     RDKit          3D

 25 28  0  0  0  0  0  0  0  0999 V2000
    0.0610   13.6010    1.2480 N   0  0  0  0  0  0  0  0  0  0  0  0
   -0.6050   14.2650    0.1990 C   0  0  2  0  0  0  0  0  0  0  0  0
   -1.5970   14.8490    0.9930 N   0  0  0  0  0  0  0  0  0  0  0  0
   -0.9830   13.1800   -0.6680 N   0  0  0  0  0  0  0  0  0  0  0  0
   -2.7830   15.4550    0.4670 C   0  0  1  0  0  0  0  0  0  0  0  0
   -2.0730   13.4920   -1.6430 C   0  0  2  0  0  0  0  0  0  0  0  0
   -2.1610   14.9420   -2.1390 C   0  0  1  0  0  0  0  0  0  0  0  0
   -3.0170   15.7630   -1.0740 C   0  0  1  0  0  0  0  0  0  0  0  0
   -3.7860   14.5800    1.0700 N   0  0  0  0  0  0  0  0  0  0  0  0
   -3.5910   13.3430   -1.2910 C   0  0  2  0  0  0  0  0  0  0  0  0
   -0.8460   15.5100   -2.4300 O   0  0  0  0  0  0  0  0  0  0  0  0
   -3.9820   12.1790   -0.5500 N   0  0  0  0  0  0  0  0  0  0  0  0
   -5.0420   15.2330    0.9260 C   0  0  2  0  0  0  0  0  0  0  0  0
   -4.4740   15.8970   -1.4700 N   0  0  0  0  0  0  0  0  0  0  0  0
   -4.4270   13.2670   -2.4890 N   0  0  0  0  0  0  0  0  0  0  0  0
   -2.8680   14.8530   -3.4370 N   0  0  0  0  0  0  0  0  0  0  0  0
   -6.0310   14.5910    1.7200 O   0  0  0  0  0  0  0  0  0  0  0  0
   -5.4710   15.3010   -0.5540 C   0  0  0  0  0  0  0  0  0  0  0  0
   -4.2550   14.3940   -3.3960 C   0  0  0  0  0  0  0  0  0  0  0  0
   -0.5500   15.6760   -3.8340 C   0  0  2  0  0  0  0  0  0  0  0  0
    0.9030   16.1500   -4.0860 C   0  0  0  0  0  0  0  0  0  0  0  0
   -1.4970   16.6410   -4.4650 N   0  0  0  0  0  0  0  0  0  0  0  0
   -0.8560   17.9280   -4.7990 C   0  0  1  0  0  0  0  0  0  0  0  0
    0.8070   17.9560   -4.1190 S   0  0  0  0  0  0  0  0  0  0  0  0
   -0.8630   18.2050   -6.3010 C   0  0  0  0  0  0  0  0  0  0  0  0
  2  1  1  1
  2  3  1  0
  2  4  1  0
  5  3  1  6
  6  4  1  1
  6  7  1  0
  5  8  1  0
  7  8  1  0
  5  9  1  0
  6 10  1  0
  7 11  1  6
 10 12  1  6
  9 13  1  0
  8 14  1  6
 10 15  1  0
  7 16  1  0
 13 17  1  1
 13 18  1  0
 14 18  1  0
 15 19  1  0
 16 19  1  0
 20 11  1  1
 20 21  1  0
 20 22  1  0
 22 23  1  0
 21 24  1  0
 23 24  1  0
 23 25  1  6
M  END
