ucsf371-ucsf364
     RDKit          3D

 19 20  0  0  0  0  0  0  0  0999 V2000
   -4.9490   14.8200    0.5590 C   0  0  0  0  0  0  0  0  0  0  0  0
   -4.1420   15.3090   -0.6400 C   0  0  2  0  0  0  0  0  0  0  0  0
   -4.7480   14.9590   -1.9310 N   0  0  0  0  0  0  0  0  0  0  0  0
   -2.4470   14.6770   -0.6310 S   0  0  0  0  0  0  0  0  0  0  0  0
   -3.6630   15.0970   -2.9280 C   0  0  0  0  0  0  0  0  0  0  0  0
   -2.4650   14.2990   -2.4280 C   0  0  1  0  0  0  0  0  0  0  0  0
   -1.1980   14.5220   -3.2750 C   0  0  1  0  0  0  0  0  0  0  0  0
   -1.2340   15.7260   -4.0130 O   0  0  0  0  0  0  0  0  0  0  0  0
   -0.0310   14.4400   -2.4630 O   0  0  0  0  0  0  0  0  0  0  0  0
    0.5130   13.0910   -2.3150 C   0  0  1  0  0  0  0  0  0  0  0  0
   -0.0400   12.4480   -1.2830 O   0  0  0  0  0  0  0  0  0  0  0  0
    0.2410   12.2650   -3.6410 C   0  0  2  0  0  0  0  0  0  0  0  0
    0.9900   12.8410   -4.8830 C   0  0  1  0  0  0  0  0  0  0  0  0
   -1.2730   12.0220   -4.0130 C   0  0  0  0  0  0  0  0  0  0  0  0
    2.4940   13.0490   -4.6520 C   0  0  0  0  0  0  0  0  0  0  0  0
   -1.5500   11.3680   -5.3830 C   0  0  0  0  0  0  0  0  0  0  0  0
    0.7200   11.8390   -5.9940 C   0  0  2  0  0  0  0  0  0  0  0  0
    1.6900   11.8110   -7.0380 O   0  0  0  0  0  0  0  0  0  0  0  0
   -0.6840   11.9400   -6.4920 C   0  0  0  0  0  0  0  0  0  0  0  0
  2  1  1  1
  2  3  1  0
  2  4  1  0
  3  5  1  0
  4  6  1  0
  6  5  1  6
  6  7  1  0
  7  8  1  1
  7  9  1  0
  9 10  1  0
 10 11  1  1
 10 12  1  0
 12 13  1  0
 12 14  1  6
 13 15  1  1
 14 16  1  0
 13 17  1  0
 17 18  1  6
 16 19  1  0
 17 19  1  0
M  CHG  1  11  -1
M  END
