ucsf371-ucsf487
     RDKit          3D

 15 16  0  0  0  0  0  0  0  0999 V2000
   -4.1060   15.9900    1.2880 C   0  0  0  0  0  0  0  0  0  0  0  0
   -4.5720   14.8310   -0.2440 S   0  0  0  0  0  0  0  0  0  0  0  0
   -4.0400   15.6740   -1.6430 N   0  0  0  0  0  0  0  0  0  0  0  0
   -2.5600   14.6950   -0.7320 S   0  0  0  0  0  0  0  0  0  0  0  0
   -5.6780   13.8300    0.8210 C   0  0  0  0  0  0  0  0  0  0  0  0
   -6.1270   14.5140   -1.0230 C   0  0  0  0  0  0  0  0  0  0  0  0
   -3.6410   14.9440   -2.7720 C   0  0  0  0  0  0  0  0  0  0  0  0
   -2.2850   15.2010   -2.3590 C   0  0  2  0  0  0  0  0  0  0  0  0
   -6.8610   14.2890    1.4720 C   0  0  2  0  0  0  0  0  0  0  0  0
   -7.2500   15.0540   -0.4650 N   0  0  0  0  0  0  0  0  0  0  0  0
   -1.1570   14.6380   -3.1350 C   0  0  1  0  0  0  0  0  0  0  0  0
   -7.3540   13.3660    2.5060 N   0  0  0  0  0  0  0  0  0  0  0  0
   -8.0260   14.3260    0.4760 C   0  0  0  0  0  0  0  0  0  0  0  0
   -1.1140   14.9340   -4.4660 O   0  0  0  0  0  0  0  0  0  0  0  0
    0.0360   15.0930   -2.5360 O   0  0  0  0  0  0  0  0  0  0  0  0
  1  2  1  0
  2  3  1  0
  2  4  1  0
  2  5  1  0
  2  6  1  0
  3  7  1  0
  4  8  1  0
  8  7  1  6
  5  9  1  0
  6 10  1  0
  8 11  1  0
  9 12  1  1
  9 13  1  0
 10 13  1  0
 11 14  1  6
 11 15  1  0
M  CHG  1  15  -1
M  END
