ucsf012-ucsf378
     RDKit          3D

 29 32  0  0  0  0  0  0  0  0999 V2000
   -2.5200   14.5260   -3.8250 C   0  0  0  0  0  0  0  0  0  0  0  0
   -3.3570   13.6360   -2.8270 C   0  0  2  0  0  0  0  0  0  0  0  0
   -4.1740   14.3100   -1.6870 C   0  0  2  0  0  0  0  0  0  0  0  0
   -0.9620   14.7790   -3.7350 C   0  0  1  0  0  0  0  0  0  0  0  0
   -2.4160   12.8540   -2.0010 N   0  0  0  0  0  0  0  0  0  0  0  0
    0.1100   13.6370   -3.9520 C   0  0  2  0  0  0  0  0  0  0  0  0
   -0.5950   15.9940   -4.6270 C   0  0  0  0  0  0  0  0  0  0  0  0
   -4.9220   15.5440   -2.1370 C   0  0  0  0  0  0  0  0  0  0  0  0
   -1.5440   11.9810   -2.8080 C   0  0  0  0  0  0  0  0  0  0  0  0
   -0.1140   12.1910   -3.4180 C   0  0  0  0  0  0  0  0  0  0  0  0
   -3.0930   14.6930   -0.6840 C   0  0  2  0  0  0  0  0  0  0  0  0
   -1.8600   13.9100   -1.1330 C   0  0  1  0  0  0  0  0  0  0  0  0
    1.4850   14.1460   -3.5150 C   0  0  1  0  0  0  0  0  0  0  0  0
    0.7860   15.8920   -5.2250 C   0  0  0  0  0  0  0  0  0  0  0  0
    2.8150   13.0080   -3.9710 Cl  0  0  0  0  0  0  0  0  0  0  0  0
    0.5640   11.6550   -2.1450 C   0  0  1  0  0  0  0  0  0  0  0  0
   -3.2390   14.4210    0.8000 C   0  0  2  0  0  0  0  0  0  0  0  0
   -0.9560   13.5300   -0.0760 N   0  0  0  0  0  0  0  0  0  0  0  0
   -1.9800   11.7370   -4.2910 C   0  0  1  0  0  0  0  0  0  0  0  0
    1.7810   15.4680   -4.1800 C   0  0  0  0  0  0  0  0  0  0  0  0
   -4.3720   15.0690    1.4220 N   0  0  0  0  0  0  0  0  0  0  0  0
   -0.0940   11.9610   -1.0730 O   0  0  0  0  0  0  0  0  0  0  0  0
    0.5360   10.2430   -2.1540 O   0  0  0  0  0  0  0  0  0  0  0  0
   -2.1000   14.9340    1.5270 N   0  0  0  0  0  0  0  0  0  0  0  0
   -0.8090   14.4990    0.9960 C   0  0  0  0  0  0  0  0  0  0  0  0
   -0.8710   11.2690   -5.2440 C   0  0  0  0  0  0  0  0  0  0  0  0
   -2.9940   10.7200   -4.3830 O   0  0  0  0  0  0  0  0  0  0  0  0
   -2.3670    9.5330   -4.9170 C   0  0  0  0  0  0  0  0  0  0  0  0
   -0.8780    9.7930   -4.9850 C   0  0  0  0  0  0  0  0  0  0  0  0
  2  1  1  1
  2  3  1  0
  4  1  1  6
  2  5  1  0
  4  6  1  0
  4  7  1  0
  3  8  1  6
  5  9  1  0
  6 10  1  1
  3 11  1  0
  5 12  1  0
 11 12  1  0
  6 13  1  0
  7 14  1  0
 13 15  1  6
 10 16  1  0
 11 17  1  1
 12 18  1  1
 19  9  1  1
 13 20  1  0
 14 20  1  0
 17 21  1  1
 16 22  1  1
 16 23  1  0
 17 24  1  0
 18 25  1  0
 24 25  1  0
 19 26  1  0
 19 27  1  0
 27 28  1  0
 26 29  1  0
 28 29  1  0
M  CHG  1  22  -1
M  END
