ucsf169-ucsf392
     RDKit          3D

 24 25  0  0  0  0  0  0  0  0999 V2000
    1.2480   18.5180   -5.6610 C   0  0  0  0  0  0  0  0  0  0  0  0
    0.3220   18.1120   -4.6810 O   0  0  0  0  0  0  0  0  0  0  0  0
   -0.2330   16.8560   -5.0550 C   0  0  2  0  0  0  0  0  0  0  0  0
   -1.6090   16.7810   -4.3960 C   0  0  1  0  0  0  0  0  0  0  0  0
    0.6810   15.6770   -4.7100 C   0  0  0  0  0  0  0  0  0  0  0  0
   -2.3140   17.9820   -4.7280 O   0  0  0  0  0  0  0  0  0  0  0  0
   -2.3800   15.5580   -4.8620 C   0  0  0  0  0  0  0  0  0  0  0  0
   -0.1000   14.4320   -4.2680 C   0  0  2  0  0  0  0  0  0  0  0  0
    0.7240   13.1100   -4.3460 C   0  0  0  0  0  0  0  0  0  0  0  0
   -1.4920   14.3080   -4.9370 C   0  0  0  0  0  0  0  0  0  0  0  0
    1.0040   12.4290   -2.9730 C   0  0  1  0  0  0  0  0  0  0  0  0
    0.2570   13.2170   -2.0630 O   0  0  0  0  0  0  0  0  0  0  0  0
    0.4620   11.2210   -2.9560 O   0  0  0  0  0  0  0  0  0  0  0  0
    0.9890   13.9500   -1.1010 C   0  0  0  0  0  0  0  0  0  0  0  0
    0.2340   13.6350    0.1720 C   0  0  0  0  0  0  0  0  0  0  0  0
   -0.2290   14.8470    0.8860 C   0  0  0  0  0  0  0  0  0  0  0  0
   -1.6000   15.0420    0.3400 C   0  0  1  0  0  0  0  0  0  0  0  0
   -2.5270   15.6180    1.2250 N   0  0  0  0  0  0  0  0  0  0  0  0
   -1.6650   15.6490   -0.9500 N   0  0  0  0  0  0  0  0  0  0  0  0
   -3.7170   14.9160    0.9560 C   0  0  1  0  0  0  0  0  0  0  0  0
   -2.9600   15.4060   -1.5410 C   0  0  0  0  0  0  0  0  0  0  0  0
   -4.6700   15.5430    1.8260 N   0  0  0  0  0  0  0  0  0  0  0  0
   -4.0700   14.9110   -0.5600 C   0  0  2  0  0  0  0  0  0  0  0  0
   -5.3510   15.6640   -0.9060 C   0  0  0  0  0  0  0  0  0  0  0  0
  1  2  1  0
  3  2  1  1
  3  4  1  0
  3  5  1  0
  4  6  1  6
  4  7  1  0
  5  8  1  0
  8  9  1  6
  7 10  1  0
  8 10  1  0
  9 11  1  0
 11 12  1  0
 11 13  1  6
 12 14  1  0
 14 15  1  0
 15 16  1  0
 17 16  1  1
 17 18  1  0
 17 19  1  0
 18 20  1  0
 19 21  1  0
 20 22  1  1
 20 23  1  0
 21 23  1  0
 23 24  1  1
M  CHG  1  13  -1
M  END
