ucsf337-ucsf115
     RDKit          3D

 21 23  0  0  0  0  0  0  0  0999 V2000
   -7.6150   14.5780    0.8390 C   0  0  0  0  0  0  0  0  0  0  0  0
   -6.4130   14.2120   -0.0520 C   0  0  1  0  0  0  0  0  0  0  0  0
   -6.7110   14.7830   -1.3750 N   0  0  0  0  0  0  0  0  0  0  0  0
   -5.0010   14.5620    0.5480 C   0  0  1  0  0  0  0  0  0  0  0  0
   -4.5250   13.1350    1.7490 Br  0  0  0  0  0  0  0  0  0  0  0  0
   -3.8480   15.1780   -0.3840 C   0  0  1  0  0  0  0  0  0  0  0  0
   -5.5170   14.8030   -2.1210 C   0  0  1  0  0  0  0  0  0  0  0  0
   -5.9270   14.9580   -3.4890 N   0  0  0  0  0  0  0  0  0  0  0  0
   -4.6040   15.8550   -1.5370 C   0  0  0  0  0  0  0  0  0  0  0  0
   -2.9820   16.0160    0.5420 C   0  0  0  0  0  0  0  0  0  0  0  0
   -2.6020   14.6480   -1.1750 C   0  0  2  0  0  0  0  0  0  0  0  0
   -2.9460   14.1700   -2.4930 N   0  0  0  0  0  0  0  0  0  0  0  0
   -1.6910   13.7780   -0.4720 N   0  0  0  0  0  0  0  0  0  0  0  0
   -2.1680   15.1370    1.3930 N   0  0  0  0  0  0  0  0  0  0  0  0
   -1.8350   14.0240   -3.4180 C   0  0  0  0  0  0  0  0  0  0  0  0
   -1.1070   14.4600    0.6650 C   0  0  0  0  0  0  0  0  0  0  0  0
   -1.1350   12.7470   -3.0140 C   0  0  1  0  0  0  0  0  0  0  0  0
   -0.9950   11.8410   -4.1020 O   0  0  0  0  0  0  0  0  0  0  0  0
    0.2400   12.9110   -2.4190 C   0  0  0  0  0  0  0  0  0  0  0  0
    0.8080   11.5460   -2.6390 C   0  0  0  0  0  0  0  0  0  0  0  0
   -0.1890   10.8240   -3.5330 C   0  0  0  0  0  0  0  0  0  0  0  0
  2  1  1  1
  2  3  1  0
  2  4  1  0
  4  5  1  6
  4  6  1  0
  3  7  1  0
  7  8  1  6
  6  9  1  6
  7  9  1  0
  6 10  1  0
  6 11  1  0
 11 12  1  6
 11 13  1  0
 10 14  1  0
 12 15  1  0
 13 16  1  0
 14 16  1  0
 17 15  1  6
 17 18  1  0
 17 19  1  0
 19 20  1  0
 18 21  1  0
 20 21  1  0
M  END
