ucsf213-ucsf378
     RDKit          3D

 16 17  0  0  0  0  0  0  0  0999 V2000
    0.5870   10.5120   -2.4470 O   0  0  0  0  0  0  0  0  0  0  0  0
    0.5520   11.9220   -2.6470 C   0  0  1  0  0  0  0  0  0  0  0  0
    1.6000   12.5540   -1.9620 O   0  0  0  0  0  0  0  0  0  0  0  0
   -0.8150   10.1550   -2.4550 O   0  0  0  0  0  0  0  0  0  0  0  0
    0.6010   12.2270   -4.1470 C   0  0  0  0  0  0  0  0  0  0  0  0
   -0.0090   13.5950   -4.3680 C   0  0  1  0  0  0  0  0  0  0  0  0
    0.9210   14.7400   -4.6490 C   0  0  2  0  0  0  0  0  0  0  0  0
   -1.3190   13.9020   -5.5570 S   0  0  0  0  0  0  0  0  0  0  0  0
    2.3670   14.4770   -3.6470 Cl  0  0  0  0  0  0  0  0  0  0  0  0
    0.0090   15.9720   -4.3840 C   0  0  2  0  0  0  0  0  0  0  0  0
   -1.4650   15.5370   -4.7490 C   0  0  2  0  0  0  0  0  0  0  0  0
   -2.4370   15.0400   -3.3180 Cl  0  0  0  0  0  0  0  0  0  0  0  0
    0.5100   17.2320   -5.1260 C   0  0  0  0  0  0  0  0  0  0  0  0
   -2.3670   16.5500   -5.4800 C   0  0  0  0  0  0  0  0  0  0  0  0
   -0.5470   18.3140   -5.2220 C   0  0  0  0  0  0  0  0  0  0  0  0
   -1.7570   17.8520   -6.0030 C   0  0  0  0  0  0  0  0  0  0  0  0
  1  2  1  0
  2  3  1  1
  1  4  1  0
  2  5  1  0
  6  5  1  6
  6  7  1  0
  6  8  1  0
  7  9  1  1
  7 10  1  0
  8 11  1  0
 10 11  1  0
 11 12  1  1
 10 13  1  6
 11 14  1  0
 13 15  1  0
 14 16  1  0
 15 16  1  0
M  END
