ucsf404-ucsf006
     RDKit          3D

 23 25  0  0  0  0  0  0  0  0999 V2000
   -6.7200   14.4880   -2.4410 Cl  0  0  0  0  0  0  0  0  0  0  0  0
   -5.3760   15.3720   -1.6700 C   0  0  1  0  0  0  0  0  0  0  0  0
   -5.2920   15.1380   -0.1640 C   0  0  1  0  0  0  0  0  0  0  0  0
   -4.0760   15.1750   -2.3910 C   0  0  0  0  0  0  0  0  0  0  0  0
   -6.4350   14.3900    0.3790 N   0  0  0  0  0  0  0  0  0  0  0  0
   -3.9370   14.6470    0.4240 C   0  0  1  0  0  0  0  0  0  0  0  0
   -2.9990   15.7680   -1.5110 C   0  0  0  0  0  0  0  0  0  0  0  0
   -6.0520   13.8020    1.6210 C   0  0  1  0  0  0  0  0  0  0  0  0
   -4.3690   13.1990    1.4150 S   0  0  0  0  0  0  0  0  0  0  0  0
   -2.5830   14.8490   -0.3960 C   0  0  2  0  0  0  0  0  0  0  0  0
   -6.1900   14.8610    2.5780 N   0  0  0  0  0  0  0  0  0  0  0  0
   -1.5480   13.7880   -1.0450 C   0  0  1  0  0  0  0  0  0  0  0  0
   -1.9320   15.6210    0.7700 C   0  0  0  0  0  0  0  0  0  0  0  0
   -1.0640   13.8660   -2.4860 N   0  0  0  0  0  0  0  0  0  0  0  0
   -0.6400   16.0410    0.4160 N   0  0  0  0  0  0  0  0  0  0  0  0
   -0.3520   13.7050   -0.1760 N   0  0  0  0  0  0  0  0  0  0  0  0
   -2.0350   14.3100   -3.4950 C   0  0  0  0  0  0  0  0  0  0  0  0
    0.2150   14.6110   -2.8140 C   0  0  0  0  0  0  0  0  0  0  0  0
    0.1960   14.8880    0.4710 C   0  0  0  0  0  0  0  0  0  0  0  0
    0.6450   14.6300   -4.3120 C   0  0  0  0  0  0  0  0  0  0  0  0
    1.0400   13.2280   -4.8480 C   0  0  2  0  0  0  0  0  0  0  0  0
   -0.1210   12.5200   -5.2430 O   0  0  0  0  0  0  0  0  0  0  0  0
    1.4990   12.4900   -3.8570 O   0  0  0  0  0  0  0  0  0  0  0  0
  2  1  1  6
  2  3  1  0
  2  4  1  0
  3  5  1  6
  3  6  1  0
  4  7  1  0
  5  8  1  0
  6  9  1  6
  8  9  1  0
  6 10  1  0
 10  7  1  6
  8 11  1  1
 10 12  1  0
 10 13  1  0
 12 14  1  6
 13 15  1  0
 12 16  1  0
 14 17  1  0
 14 18  1  0
 15 19  1  0
 16 19  1  0
 18 20  1  0
 20 21  1  0
 21 22  1  1
 21 23  1  0
M  CHG  1  23  -1
M  END
