ucsf135-ucsf340
     RDKit          3D

 26 29  0  0  0  0  0  0  0  0999 V2000
    0.4980   12.1030   -7.8290 O   0  0  0  0  0  0  0  0  0  0  0  0
    0.8640   11.2650   -6.8010 C   0  0  1  0  0  0  0  0  0  0  0  0
    0.6470   11.9910   -5.5530 N   0  0  0  0  0  0  0  0  0  0  0  0
   -0.0480   10.0080   -6.8540 C   0  0  1  0  0  0  0  0  0  0  0  0
   -0.5560   11.2890   -4.6540 S   0  0  2  0  0  0  0  0  0  0  0  0
   -0.7740    9.7570   -5.4930 C   0  0  1  0  0  0  0  0  0  0  0  0
   -1.0290    9.9700   -8.0100 C   0  0  0  0  0  0  0  0  0  0  0  0
   -1.9730   12.0190   -4.7320 O   0  0  0  0  0  0  0  0  0  0  0  0
   -0.1200   11.0580   -3.1400 O   0  0  0  0  0  0  0  0  0  0  0  0
   -2.1930    9.2680   -5.6820 C   0  0  0  0  0  0  0  0  0  0  0  0
   -1.6600    8.5780   -8.0770 C   0  0  0  0  0  0  0  0  0  0  0  0
    0.1260   12.3010   -2.5080 C   0  0  2  0  0  0  0  0  0  0  0  0
   -2.2240    8.1430   -6.7240 C   0  0  0  0  0  0  0  0  0  0  0  0
    1.0730   13.1700   -3.3220 C   0  0  0  0  0  0  0  0  0  0  0  0
    0.6970   12.1470   -1.2340 O   0  0  0  0  0  0  0  0  0  0  0  0
    0.7970   14.6660   -3.2020 C   0  0  0  0  0  0  0  0  0  0  0  0
    0.3900   15.3400   -4.5120 C   0  0  2  0  0  0  0  0  0  0  0  0
    1.0990   16.6970   -4.6810 C   0  0  0  0  0  0  0  0  0  0  0  0
   -1.0580   15.7620   -4.5740 C   0  0  1  0  0  0  0  0  0  0  0  0
    0.0860   17.7270   -4.9060 N   0  0  0  0  0  0  0  0  0  0  0  0
   -0.9360   16.9430   -5.5190 C   0  0  2  0  0  0  0  0  0  0  0  0
   -2.1270   14.7550   -4.9340 C   0  0  0  0  0  0  0  0  0  0  0  0
    0.6380   18.6520   -5.8800 C   0  0  0  0  0  0  0  0  0  0  0  0
   -3.4390   15.4630   -5.1240 C   0  0  0  0  0  0  0  0  0  0  0  0
   -2.2480   17.5650   -5.9710 C   0  0  0  0  0  0  0  0  0  0  0  0
   -3.3130   16.4820   -6.2320 C   0  0  0  0  0  0  0  0  0  0  0  0
  2  1  1  6
  2  3  1  0
  2  4  1  0
  3  5  1  0
  4  6  1  0
  5  6  1  0
  4  7  1  6
  5  8  1  1
  5  9  1  0
  6 10  1  6
  7 11  1  0
  9 12  1  0
 10 13  1  0
 11 13  1  0
 12 14  1  0
 12 15  1  1
 14 16  1  0
 17 16  1  1
 17 18  1  0
 17 19  1  0
 18 20  1  0
 19 21  1  0
 20 21  1  0
 19 22  1  6
 20 23  1  0
 22 24  1  0
 21 25  1  1
 24 26  1  0
 25 26  1  0
M  END
