ucsf274-ucsf039
     RDKit          3D

 32 36  0  0  0  0  0  0  0  0999 V2000
    0.5230   11.6580   -2.8910 O   0  0  0  0  0  0  0  0  0  0  0  0
    0.8820   12.8810   -3.2770 C   0  0  2  0  0  0  0  0  0  0  0  0
    1.4740   13.2590   -2.0490 O   0  0  0  0  0  0  0  0  0  0  0  0
   -0.3310   13.9210   -3.7940 C   0  0  1  0  0  0  0  0  0  0  0  0
   -0.8970   13.4870   -5.2350 C   0  0  0  0  0  0  0  0  0  0  0  0
   -1.3430   14.2390   -2.5760 N   0  0  0  0  0  0  0  0  0  0  0  0
    0.1770   15.3310   -4.4100 C   0  0  2  0  0  0  0  0  0  0  0  0
   -1.3480   12.0770   -5.6780 C   0  0  2  0  0  0  0  0  0  0  0  0
   -2.7280   14.6590   -2.8470 C   0  0  0  0  0  0  0  0  0  0  0  0
   -0.9720   14.0850   -1.1660 C   0  0  2  0  0  0  0  0  0  0  0  0
    1.0140   16.2410   -3.5690 C   0  0  0  0  0  0  0  0  0  0  0  0
   -0.9330   16.2040   -4.9460 N   0  0  0  0  0  0  0  0  0  0  0  0
   -2.3460   11.3880   -4.7210 C   0  0  2  0  0  0  0  0  0  0  0  0
   -0.2510   11.1600   -6.1010 N   0  0  0  0  0  0  0  0  0  0  0  0
   -3.4040   15.3640   -1.7370 N   0  0  0  0  0  0  0  0  0  0  0  0
   -2.0330   14.1950   -0.0270 C   0  0  2  0  0  0  0  0  0  0  0  0
    0.0680   14.9970   -0.6850 N   0  0  0  0  0  0  0  0  0  0  0  0
   -0.3120   17.3860   -5.5170 C   0  0  2  0  0  0  0  0  0  0  0  0
    0.8790   17.9240   -4.2970 S   0  0  0  0  0  0  0  0  0  0  0  0
   -2.1610   11.7250   -3.3680 O   0  0  0  0  0  0  0  0  0  0  0  0
   -1.3090   18.4860   -5.8890 C   0  0  0  0  0  0  0  0  0  0  0  0
   -2.3870    9.9480   -4.9000 N   0  0  0  0  0  0  0  0  0  0  0  0
   -0.9040   10.1840   -6.9880 C   0  0  2  0  0  0  0  0  0  0  0  0
   -3.4140   14.7460   -0.4500 C   0  0  1  0  0  0  0  0  0  0  0  0
   -1.4000   15.0240    1.0510 N   0  0  0  0  0  0  0  0  0  0  0  0
   -0.0030   14.8400    0.7450 C   0  0  0  0  0  0  0  0  0  0  0  0
   -4.0290   15.6410    0.5360 N   0  0  0  0  0  0  0  0  0  0  0  0
   -2.1730    9.5820   -6.3150 C   0  0  1  0  0  0  0  0  0  0  0  0
    0.0270    9.0540   -7.4470 C   0  0  0  0  0  0  0  0  0  0  0  0
   -0.6540    8.1200   -8.4440 C   0  0  0  0  0  0  0  0  0  0  0  0
   -2.2610    8.0570   -6.4890 C   0  0  0  0  0  0  0  0  0  0  0  0
   -2.0110    7.6430   -7.9340 C   0  0  0  0  0  0  0  0  0  0  0  0
  2  1  1  1
  2  3  1  0
  2  4  1  0
  4  5  1  6
  4  6  1  0
  4  7  1  0
  8  5  1  1
  6  9  1  0
  6 10  1  0
  7 11  1  1
  7 12  1  0
  8 13  1  0
  8 14  1  0
  9 15  1  0
 10 16  1  0
 10 17  1  1
 12 18  1  0
 11 19  1  0
 18 19  1  0
 13 20  1  1
 18 21  1  1
 13 22  1  0
 14 23  1  0
 15 24  1  0
 16 24  1  0
 16 25  1  1
 17 26  1  0
 25 26  1  0
 24 27  1  1
 22 28  1  0
 23 28  1  0
 23 29  1  1
 29 30  1  0
 28 31  1  1
 30 32  1  0
 31 32  1  0
M  CHG  1   1  -1
M  END
