ucsf247-ucsf396
     RDKit          3D

 15 15  0  0  0  0  0  0  0  0999 V2000
    0.7110   13.2800   -1.8460 O   0  0  0  0  0  0  0  0  0  0  0  0
    0.6030   13.6640   -3.1120 C   0  0  2  0  0  0  0  0  0  0  0  0
    1.7930   14.3900   -3.3290 O   0  0  0  0  0  0  0  0  0  0  0  0
   -0.6220   14.6260   -3.3020 C   0  0  0  0  0  0  0  0  0  0  0  0
   -1.8460   14.1730   -2.6270 N   0  0  0  0  0  0  0  0  0  0  0  0
   -3.0430   14.9730   -2.8140 C   0  0  1  0  0  0  0  0  0  0  0  0
   -3.8940   14.4930   -3.8130 O   0  0  0  0  0  0  0  0  0  0  0  0
   -3.7920   15.2720   -1.5100 C   0  0  1  0  0  0  0  0  0  0  0  0
   -5.1910   14.6630   -1.4810 C   0  0  0  0  0  0  0  0  0  0  0  0
   -3.0450   14.8100   -0.2640 C   0  0  0  0  0  0  0  0  0  0  0  0
   -5.8960   15.1730   -0.2410 C   0  0  1  0  0  0  0  0  0  0  0  0
   -3.6900   15.2760    1.0280 C   0  0  1  0  0  0  0  0  0  0  0  0
   -7.2500   14.6960   -0.1990 O   0  0  0  0  0  0  0  0  0  0  0  0
   -5.1640   14.8510    1.0820 C   0  0  0  0  0  0  0  0  0  0  0  0
   -2.9630   14.7010    2.1170 O   0  0  0  0  0  0  0  0  0  0  0  0
  2  1  1  1
  2  3  1  0
  2  4  1  0
  4  5  1  0
  5  6  1  0
  6  7  1  6
  6  8  1  0
  8  9  1  6
  8 10  1  0
  9 11  1  0
 10 12  1  0
 11 13  1  1
 11 14  1  0
 12 14  1  0
 12 15  1  1
M  CHG  1   1  -1
M  END
