ucsf006-ucsf520
     RDKit          3D

 21 23  0  0  0  0  0  0  0  0999 V2000
   -2.4000   14.0240   -3.3500 C   0  0  0  0  0  0  0  0  0  0  0  0
   -1.2020   14.9250   -3.0030 C   0  0  2  0  0  0  0  0  0  0  0  0
    0.1320   14.1310   -3.1400 C   0  0  0  0  0  0  0  0  0  0  0  0
   -1.3220   15.3710   -1.4740 C   0  0  1  0  0  0  0  0  0  0  0  0
   -1.1000   15.9930   -4.1610 C   0  0  1  0  0  0  0  0  0  0  0  0
    0.7540   14.0900   -4.5460 C   0  0  0  0  0  0  0  0  0  0  0  0
   -2.5350   14.8220   -0.6870 C   0  0  1  0  0  0  0  0  0  0  0  0
   -0.0740   15.0500   -0.6980 N   0  0  0  0  0  0  0  0  0  0  0  0
   -1.4640   17.3600   -3.8670 O   0  0  0  0  0  0  0  0  0  0  0  0
    0.3060   16.0950   -4.7780 C   0  0  0  0  0  0  0  0  0  0  0  0
    1.1400   12.6790   -4.9830 C   0  0  2  0  0  0  0  0  0  0  0  0
   -2.3980   15.2920    0.7490 C   0  0  2  0  0  0  0  0  0  0  0  0
   -0.1250   15.4530    0.6980 C   0  0  0  0  0  0  0  0  0  0  0  0
   -3.9600   15.2820   -0.9760 C   0  0  0  0  0  0  0  0  0  0  0  0
    0.2480   17.3940   -5.5110 C   0  0  0  0  0  0  0  0  0  0  0  0
   -0.5410   18.2170   -4.5380 C   0  0  0  0  0  0  0  0  0  0  0  0
   -0.0220   11.9630   -5.3450 O   0  0  0  0  0  0  0  0  0  0  0  0
    1.5800   12.0420   -3.9270 O   0  0  0  0  0  0  0  0  0  0  0  0
   -1.2210   14.7900    1.3630 N   0  0  0  0  0  0  0  0  0  0  0  0
   -3.6170   14.8320    1.3390 N   0  0  0  0  0  0  0  0  0  0  0  0
   -4.5810   15.4210    0.4210 C   0  0  0  0  0  0  0  0  0  0  0  0
  2  1  1  6
  2  3  1  0
  2  4  1  0
  2  5  1  0
  3  6  1  0
  4  7  1  0
  4  8  1  1
  5  9  1  0
  5 10  1  1
  6 11  1  0
  7 12  1  0
  8 13  1  0
  7 14  1  6
 10 15  1  0
  9 16  1  0
 15 16  1  0
 11 17  1  1
 11 18  1  0
 12 19  1  1
 13 19  1  0
 12 20  1  0
 14 21  1  0
 20 21  1  0
M  CHG  1  18  -1
M  END
