ucsf114-ucsf387
     RDKit          3D

 26 28  0  0  0  0  0  0  0  0999 V2000
    0.5860   17.8150   -5.1440 C   0  0  0  0  0  0  0  0  0  0  0  0
   -0.7230   18.4420   -4.6790 C   0  0  1  0  0  0  0  0  0  0  0  0
   -1.5110   19.1850   -5.7570 C   0  0  0  0  0  0  0  0  0  0  0  0
    0.2840   16.3220   -5.2760 C   0  0  2  0  0  0  0  0  0  0  0  0
   -1.5270   17.4090   -4.1910 O   0  0  0  0  0  0  0  0  0  0  0  0
   -1.2610   16.1910   -5.2500 C   0  0  0  0  0  0  0  0  0  0  0  0
    1.0530   15.4080   -4.3260 C   0  0  0  0  0  0  0  0  0  0  0  0
   -0.6940   16.5800   -3.3840 C   0  0  0  0  0  0  0  0  0  0  0  0
    0.1770   14.2910   -3.7210 C   0  0  1  0  0  0  0  0  0  0  0  0
   -1.8450   14.7900   -5.3120 C   0  0  2  0  0  0  0  0  0  0  0  0
   -3.5970   14.8570   -4.9200 Cl  0  0  0  0  0  0  0  0  0  0  0  0
    0.0090   14.5910   -2.2940 N   0  0  0  0  0  0  0  0  0  0  0  0
   -1.0000   13.7570   -4.5890 C   0  0  0  0  0  0  0  0  0  0  0  0
   -1.3600   14.4720   -1.7450 C   0  0  1  0  0  0  0  0  0  0  0  0
    0.8930   13.9350   -1.3450 C   0  0  1  0  0  0  0  0  0  0  0  0
    2.6440   14.0000   -1.8960 S   0  0  0  0  0  0  0  0  0  0  0  0
   -1.5850   15.3690   -0.5360 C   0  0  2  0  0  0  0  0  0  0  0  0
    0.8110   14.5800   -0.0010 N   0  0  0  0  0  0  0  0  0  0  0  0
   -2.6460   14.7350   -2.5270 C   0  0  0  0  0  0  0  0  0  0  0  0
    0.4660   12.5640   -1.2060 O   0  0  0  0  0  0  0  0  0  0  0  0
   -0.4630   15.1130    0.5040 C   0  0  2  0  0  0  0  0  0  0  0  0
   -2.9860   15.0780   -0.1600 N   0  0  0  0  0  0  0  0  0  0  0  0
   -3.6870   15.0680   -1.4520 C   0  0  0  0  0  0  0  0  0  0  0  0
    0.4400   11.6890   -2.3490 C   0  0  0  0  0  0  0  0  0  0  0  0
   -0.9100   14.3390    1.6270 O   0  0  0  0  0  0  0  0  0  0  0  0
    0.2470   10.4340   -1.9820 O   0  0  0  0  0  0  0  0  0  0  0  0
  1  2  1  0
  2  3  1  6
  4  1  1  1
  2  5  1  0
  4  6  1  0
  4  7  1  0
  5  8  1  0
  7  9  1  0
  6 10  1  0
 10 11  1  1
  9 12  1  1
  9 13  1  0
 10 13  1  0
 12 14  1  0
 12 15  1  0
 15 16  1  6
 14 17  1  0
 15 18  1  0
 14 19  1  6
 15 20  1  0
 17 21  1  0
 18 21  1  0
 17 22  1  1
 19 23  1  0
 22 23  1  0
 20 24  1  0
 21 25  1  1
 24 26  1  0
M  CHG  1  26  -1
M  END
