ucsf364-ucsf278
     RDKit          3D

 16 17  0  0  0  0  0  0  0  0999 V2000
    2.2140   12.8910   -5.2050 C   0  0  0  0  0  0  0  0  0  0  0  0
    0.9280   12.1900   -4.9360 C   0  0  2  0  0  0  0  0  0  0  0  0
    0.4180   11.6320   -6.1490 C   0  0  2  0  0  0  0  0  0  0  0  0
   -0.0610   12.8820   -3.5980 S   0  0  0  0  0  0  0  0  0  0  0  0
    1.3760   11.6560   -7.1970 O   0  0  0  0  0  0  0  0  0  0  0  0
    0.7660   12.0200   -2.1250 C   0  0  0  0  0  0  0  0  0  0  0  0
   -1.0020   11.4880   -4.3320 C   0  0  0  0  0  0  0  0  0  0  0  0
   -0.9040   11.9040   -6.6810 C   0  0  0  0  0  0  0  0  0  0  0  0
   -0.6750   14.4970   -4.2830 C   0  0  0  0  0  0  0  0  0  0  0  0
    0.5520   14.3550   -2.8230 C   0  0  0  0  0  0  0  0  0  0  0  0
    0.1180   12.3570   -0.9540 O   0  0  0  0  0  0  0  0  0  0  0  0
   -1.8220   11.6030   -5.5800 C   0  0  1  0  0  0  0  0  0  0  0  0
    0.1050   15.6890   -3.9220 C   0  0  0  0  0  0  0  0  0  0  0  0
    1.9460   14.6830   -3.3310 C   0  0  0  0  0  0  0  0  0  0  0  0
    1.5060   15.8420   -4.1110 C   0  0  0  0  0  0  0  0  0  0  0  0
   -2.6460   10.4990   -5.7590 O   0  0  0  0  0  0  0  0  0  0  0  0
  2  1  1  6
  2  3  1  0
  2  4  1  0
  3  5  1  6
  4  6  1  0
  4  7  1  0
  3  8  1  0
  4  9  1  0
  4 10  1  0
  6 11  1  0
  7 12  1  0
  8 12  1  0
  9 13  1  0
 10 14  1  0
 13 15  1  0
 14 15  1  0
 12 16  1  6
M  CHG  1  11  -1
M  END
