ucsf345-ucsf151
     RDKit          3D

 18 19  0  0  0  0  0  0  0  0999 V2000
   -6.3210   14.7880    1.3980 N   0  0  0  0  0  0  0  0  0  0  0  0
   -6.4030   14.8380   -0.0570 C   0  0  2  0  0  0  0  0  0  0  0  0
   -7.5700   14.1040   -0.3550 O   0  0  0  0  0  0  0  0  0  0  0  0
   -5.1640   14.3300   -0.8720 C   0  0  1  0  0  0  0  0  0  0  0  0
   -5.3710   14.3310   -2.3250 N   0  0  0  0  0  0  0  0  0  0  0  0
   -3.8320   15.0140   -0.5000 C   0  0  0  0  0  0  0  0  0  0  0  0
   -4.1910   13.7620   -3.0130 C   0  0  0  0  0  0  0  0  0  0  0  0
   -2.9410   15.4200   -1.6310 N   0  0  0  0  0  0  0  0  0  0  0  0
   -2.8210   14.4970   -2.8320 C   0  0  1  0  0  0  0  0  0  0  0  0
   -1.4370   13.6880   -2.8410 C   0  0  1  0  0  0  0  0  0  0  0  0
   -2.5220   15.2310   -4.2380 C   0  0  2  0  0  0  0  0  0  0  0  0
   -0.4720   13.5680   -1.6070 C   0  0  1  0  0  0  0  0  0  0  0  0
   -3.4630   16.1730   -4.7580 O   0  0  0  0  0  0  0  0  0  0  0  0
   -2.3310   14.1870   -5.3680 C   0  0  0  0  0  0  0  0  0  0  0  0
   -1.6130   12.4580   -3.7470 C   0  0  0  0  0  0  0  0  0  0  0  0
    0.0990   12.3830   -1.4570 O   0  0  0  0  0  0  0  0  0  0  0  0
    0.6520   14.4070   -1.8730 O   0  0  0  0  0  0  0  0  0  0  0  0
   -2.4800   12.7820   -4.9120 N   0  0  0  0  0  0  0  0  0  0  0  0
  2  1  1  1
  2  3  1  0
  2  4  1  0
  4  5  1  0
  4  6  1  6
  5  7  1  0
  6  8  1  0
  9  7  1  6
  9  8  1  0
  9 10  1  0
  9 11  1  0
 10 12  1  0
 11 13  1  6
 11 14  1  0
 10 15  1  1
 12 16  1  6
 12 17  1  0
 14 18  1  0
 15 18  1  0
M  CHG  1  16  -1
M  END
