ucsf147-ucsf124
     RDKit          3D

 27 30  0  0  0  0  0  0  0  0999 V2000
    0.8140   12.7210   -5.2360 C   0  0  0  0  0  0  0  0  0  0  0  0
   -0.4410   13.2800   -4.6410 C   0  0  2  0  0  0  0  0  0  0  0  0
   -1.1940   14.1370   -5.4940 O   0  0  0  0  0  0  0  0  0  0  0  0
    0.3370   11.4070   -5.6610 N   0  0  0  0  0  0  0  0  0  0  0  0
   -0.4580   13.9940   -3.3420 C   0  0  2  0  0  0  0  0  0  0  0  0
   -1.1130   11.1390   -5.5130 C   0  0  2  0  0  0  0  0  0  0  0  0
    0.4960   11.2730   -7.0560 C   0  0  1  0  0  0  0  0  0  0  0  0
    0.4470   13.3770   -2.2760 C   0  0  0  0  0  0  0  0  0  0  0  0
   -1.5370   10.5360   -4.3090 O   0  0  0  0  0  0  0  0  0  0  0  0
    1.8210   11.3180   -7.3220 O   0  0  0  0  0  0  0  0  0  0  0  0
   -2.3620   14.4010   -4.6590 N   0  0  0  0  0  0  0  0  0  0  0  0
   -1.9700   13.7780   -3.3490 C   0  0  2  0  0  0  0  0  0  0  0  0
   -1.4490   10.2080   -6.6870 C   0  0  1  0  0  0  0  0  0  0  0  0
   -0.0890    9.9080   -7.2510 C   0  0  1  0  0  0  0  0  0  0  0  0
   -0.1770   13.0010   -1.0850 O   0  0  0  0  0  0  0  0  0  0  0  0
    1.4370   14.2930   -1.9090 O   0  0  0  0  0  0  0  0  0  0  0  0
    1.0510   12.1680   -2.6830 O   0  0  0  0  0  0  0  0  0  0  0  0
   -2.8980   14.2200   -2.2090 C   0  0  0  0  0  0  0  0  0  0  0  0
   -2.2120    8.9220   -6.4190 C   0  0  0  0  0  0  0  0  0  0  0  0
   -0.1460    9.3370   -8.6540 C   0  0  0  0  0  0  0  0  0  0  0  0
   -2.2250   14.5710   -0.8770 C   0  0  0  0  0  0  0  0  0  0  0  0
   -3.8680   15.3060   -2.6770 C   0  0  0  0  0  0  0  0  0  0  0  0
   -2.0220    7.9200   -7.5760 C   0  0  0  0  0  0  0  0  0  0  0  0
   -1.4350    8.5220   -8.8610 C   0  0  0  0  0  0  0  0  0  0  0  0
   -3.0530   15.5190   -0.0200 C   0  0  0  0  0  0  0  0  0  0  0  0
   -5.0320   15.3730   -1.7070 C   0  0  0  0  0  0  0  0  0  0  0  0
   -4.5640   15.4650   -0.2540 C   0  0  0  0  0  0  0  0  0  0  0  0
  2  1  1  6
  2  3  1  0
  1  4  1  0
  2  5  1  0
  4  6  1  0
  4  7  1  0
  5  8  1  1
  6  9  1  1
  7 10  1  1
  3 11  1  0
  5 12  1  0
 11 12  1  0
  6 13  1  0
  7 14  1  0
 13 14  1  0
  8 15  1  0
  8 16  1  0
  8 17  1  0
 12 18  1  1
 13 19  1  1
 14 20  1  6
 18 21  1  0
 18 22  1  0
 19 23  1  0
 20 24  1  0
 23 24  1  0
 21 25  1  0
 22 26  1  0
 25 27  1  0
 26 27  1  0
M  CHG  2  16  -1  17  -1
M  END
