ucsf380-ucsf248
     RDKit          3D

 24 26  0  0  0  0  0  0  0  0999 V2000
    1.1820   14.5500   -1.9090 O   0  0  0  0  0  0  0  0  0  0  0  0
    0.0780   14.0320   -1.4210 C   0  0  2  0  0  0  0  0  0  0  0  0
    0.3140   12.6350   -1.4630 O   0  0  0  0  0  0  0  0  0  0  0  0
   -1.1800   14.4860   -2.2520 C   0  0  2  0  0  0  0  0  0  0  0  0
   -2.3660   15.1840   -1.4590 C   0  0  2  0  0  0  0  0  0  0  0  0
   -1.6930   13.4140   -3.3350 C   0  0  0  0  0  0  0  0  0  0  0  0
   -2.3400   14.6950    0.0130 C   0  0  0  0  0  0  0  0  0  0  0  0
   -3.8060   15.2870   -2.0240 C   0  0  0  0  0  0  0  0  0  0  0  0
   -2.3730   12.1480   -2.7710 C   0  0  0  0  0  0  0  0  0  0  0  0
   -0.6020   12.9720   -4.3270 C   0  0  0  0  0  0  0  0  0  0  0  0
   -3.4840   15.1460    0.8900 C   0  0  0  0  0  0  0  0  0  0  0  0
   -4.9620   15.6390   -1.0670 C   0  0  0  0  0  0  0  0  0  0  0  0
   -2.9480   11.2630   -3.8830 C   0  0  0  0  0  0  0  0  0  0  0  0
   -1.1740   12.1370   -5.4670 C   0  0  0  0  0  0  0  0  0  0  0  0
   -4.8540   14.9050    0.2750 C   0  0  2  0  0  0  0  0  0  0  0  0
   -1.9230   10.9130   -4.9570 C   0  0  0  0  0  0  0  0  0  0  0  0
   -5.8410   15.1640    1.3040 N   0  0  0  0  0  0  0  0  0  0  0  0
   -5.2640   13.4650    0.0350 C   0  0  0  0  0  0  0  0  0  0  0  0
   -7.0990   14.6720    0.7860 C   0  0  1  0  0  0  0  0  0  0  0  0
   -6.7330   13.5720   -0.1060 N   0  0  0  0  0  0  0  0  0  0  0  0
   -8.3460   14.2630    2.0410 S   0  0  0  0  0  0  0  0  0  0  0  0
   -8.3980   12.7250    2.6510 N   0  0  0  0  0  0  0  0  0  0  0  0
   -8.1410   15.2990    3.2410 O   0  0  0  0  0  0  0  0  0  0  0  0
   -9.7380   14.6210    1.3260 O   0  0  0  0  0  0  0  0  0  0  0  0
  2  1  1  6
  2  3  1  0
  2  4  1  0
  4  5  1  0
  4  6  1  1
  5  7  1  1
  5  8  1  0
  6  9  1  0
  6 10  1  0
  7 11  1  0
  8 12  1  0
  9 13  1  0
 10 14  1  0
 15 11  1  1
 12 15  1  0
 13 16  1  0
 14 16  1  0
 15 17  1  0
 15 18  1  0
 17 19  1  0
 18 20  1  0
 19 20  1  0
 19 21  1  1
 21 22  1  0
 21 23  1  0
 21 24  1  0
M  CHG  1   1  -1
M  END
