ucsf339-ucsf367
     RDKit          3D

 25 27  0  0  0  0  0  0  0  0999 V2000
    1.6370   15.0020   -2.3890 O   0  0  0  0  0  0  0  0  0  0  0  0
    0.7400   14.2150   -2.9570 C   0  0  1  0  0  0  0  0  0  0  0  0
    0.7320   12.9490   -2.2880 O   0  0  0  0  0  0  0  0  0  0  0  0
   -0.6940   14.8560   -2.8940 C   0  0  2  0  0  0  0  0  0  0  0  0
    1.1410   11.9340   -3.2280 C   0  0  1  0  0  0  0  0  0  0  0  0
   -1.5410   14.3910   -1.6770 C   0  0  0  0  0  0  0  0  0  0  0  0
   -1.5010   14.6610   -4.1930 C   0  0  0  0  0  0  0  0  0  0  0  0
    0.5140   10.7970   -2.8940 O   0  0  0  0  0  0  0  0  0  0  0  0
    0.7240   12.4490   -4.6620 C   0  0  0  0  0  0  0  0  0  0  0  0
   -3.0110   14.8940   -1.7170 C   0  0  1  0  0  0  0  0  0  0  0  0
   -2.8710   15.2410   -4.1550 N   0  0  0  0  0  0  0  0  0  0  0  0
    0.7070   11.4140   -5.6760 O   0  0  0  0  0  0  0  0  0  0  0  0
   -3.6390   14.6090   -3.0850 C   0  0  0  0  0  0  0  0  0  0  0  0
   -3.8430   14.4140   -0.4930 C   0  0  0  0  0  0  0  0  0  0  0  0
   -3.9310   15.5400    0.5440 C   0  0  0  0  0  0  0  0  0  0  0  0
   -5.2670   13.9450   -0.8500 C   0  0  0  0  0  0  0  0  0  0  0  0
   -0.3820   10.5100   -5.5460 C   0  0  0  0  0  0  0  0  0  0  0  0
   -4.4970   15.0360    1.8410 C   0  0  0  0  0  0  0  0  0  0  0  0
   -6.3040   14.3040    0.2140 C   0  0  0  0  0  0  0  0  0  0  0  0
   -0.4650    9.7130   -6.8380 C   0  0  0  0  0  0  0  0  0  0  0  0
   -1.7150   11.2220   -5.2950 C   0  0  0  0  0  0  0  0  0  0  0  0
   -5.7650   14.2210    1.6380 C   0  0  0  0  0  0  0  0  0  0  0  0
   -1.5930    8.6840   -6.7660 C   0  0  0  0  0  0  0  0  0  0  0  0
   -2.9010   10.2540   -5.2420 C   0  0  0  0  0  0  0  0  0  0  0  0
   -2.9520    9.3050   -6.4320 C   0  0  0  0  0  0  0  0  0  0  0  0
  2  1  1  1
  2  3  1  0
  2  4  1  0
  3  5  1  0
  4  6  1  1
  4  7  1  0
  5  8  1  1
  5  9  1  0
  6 10  1  0
  7 11  1  0
  9 12  1  0
 10 13  1  0
 11 13  1  0
 10 14  1  1
 14 15  1  0
 14 16  1  0
 12 17  1  0
 15 18  1  0
 16 19  1  0
 17 20  1  0
 17 21  1  0
 18 22  1  0
 19 22  1  0
 20 23  1  0
 21 24  1  0
 23 25  1  0
 24 25  1  0
M  CHG  2   1  -1   8  -1
M  END
