ucsf338-ucsf173
     RDKit          3D

 25 27  0  0  0  0  0  0  0  0999 V2000
   -8.9000   14.4760   -0.1560 O   0  0  0  0  0  0  0  0  0  0  0  0
   -7.4840   14.2820    0.1980 N   0  0  0  0  0  0  0  0  0  0  0  0
   -6.6550   15.0530   -0.7480 C   0  0  2  0  0  0  0  0  0  0  0  0
   -6.7410   14.4270   -2.0150 O   0  0  0  0  0  0  0  0  0  0  0  0
   -5.2070   15.2810   -0.2150 C   0  0  2  0  0  0  0  0  0  0  0  0
   -4.0450   14.7080   -1.0830 C   0  0  1  0  0  0  0  0  0  0  0  0
   -4.9710   14.8310    1.2510 C   0  0  0  0  0  0  0  0  0  0  0  0
   -4.2680   14.9440   -2.4900 O   0  0  0  0  0  0  0  0  0  0  0  0
   -2.6920   15.2930   -0.6530 C   0  0  0  0  0  0  0  0  0  0  0  0
   -3.5090   14.8320    1.6740 C   0  0  0  0  0  0  0  0  0  0  0  0
   -4.1070   13.7560   -3.3150 C   0  0  0  0  0  0  0  0  0  0  0  0
   -2.7110   15.7640    0.7910 C   0  0  0  0  0  0  0  0  0  0  0  0
   -2.6560   13.5810   -3.8240 C   0  0  0  0  0  0  0  0  0  0  0  0
   -1.5280   14.4910   -3.2970 C   0  0  1  0  0  0  0  0  0  0  0  0
   -0.0290   14.0350   -3.0980 C   0  0  1  0  0  0  0  0  0  0  0  0
   -1.3620   15.9000   -3.9580 C   0  0  1  0  0  0  0  0  0  0  0  0
    0.3910   12.6110   -2.5880 C   0  0  1  0  0  0  0  0  0  0  0  0
    0.1430   16.1710   -4.0800 C   0  0  1  0  0  0  0  0  0  0  0  0
    0.7650   14.7690   -4.1970 C   0  0  0  0  0  0  0  0  0  0  0  0
   -2.2440   16.3450   -5.1280 C   0  0  0  0  0  0  0  0  0  0  0  0
    0.4130   12.5600   -1.2680 O   0  0  0  0  0  0  0  0  0  0  0  0
   -0.5880   11.6520   -2.9790 O   0  0  0  0  0  0  0  0  0  0  0  0
   -1.8380   17.6470   -5.8260 C   0  0  0  0  0  0  0  0  0  0  0  0
    0.5490   17.1800   -5.1360 C   0  0  0  0  0  0  0  0  0  0  0  0
   -0.5250   18.2320   -5.3270 C   0  0  0  0  0  0  0  0  0  0  0  0
  1  2  1  0
  2  3  1  0
  3  4  1  6
  3  5  1  0
  5  6  1  0
  5  7  1  1
  6  8  1  6
  6  9  1  0
  7 10  1  0
  8 11  1  0
  9 12  1  0
 10 12  1  0
 11 13  1  0
 14 13  1  6
 14 15  1  0
 14 16  1  0
 15 17  1  0
 16 18  1  0
 15 19  1  6
 18 19  1  6
 16 20  1  6
 17 21  1  1
 17 22  1  0
 20 23  1  0
 18 24  1  0
 23 25  1  0
 24 25  1  0
M  CHG  1  21  -1
M  END
