ucsf028-ucsf241
     RDKit          3D

 18 20  0  0  0  0  0  0  0  0999 V2000
   -4.5640   15.3260    1.0850 N   0  0  0  0  0  0  0  0  0  0  0  0
   -3.5480   14.7990    0.1720 C   0  0  2  0  0  0  0  0  0  0  0  0
   -2.1410   15.3310    0.4720 C   0  0  2  0  0  0  0  0  0  0  0  0
   -4.0730   15.1080   -1.1400 N   0  0  0  0  0  0  0  0  0  0  0  0
   -3.0930   15.4420   -2.1630 C   0  0  0  0  0  0  0  0  0  0  0  0
   -1.2010   15.2450   -0.7500 C   0  0  2  0  0  0  0  0  0  0  0  0
   -1.4560   14.6050    1.5440 N   0  0  0  0  0  0  0  0  0  0  0  0
   -1.8300   14.7440   -1.9720 N   0  0  0  0  0  0  0  0  0  0  0  0
   -0.1180   14.3790   -0.3240 N   0  0  0  0  0  0  0  0  0  0  0  0
   -0.0970   14.4200    1.1180 C   0  0  0  0  0  0  0  0  0  0  0  0
   -0.9970   14.8580   -3.1860 C   0  0  0  0  0  0  0  0  0  0  0  0
   -0.3170   13.5780   -3.7230 C   0  0  2  0  0  0  0  0  0  0  0  0
   -1.1530   12.7010   -4.6290 C   0  0  0  0  0  0  0  0  0  0  0  0
    0.0650   12.7180   -2.6360 O   0  0  0  0  0  0  0  0  0  0  0  0
    0.1900   11.3750   -3.1920 N   0  0  0  0  0  0  0  0  0  0  0  0
   -0.9240   11.2840   -4.1180 C   0  0  2  0  0  0  0  0  0  0  0  0
   -0.6530   10.3950   -5.1970 O   0  0  0  0  0  0  0  0  0  0  0  0
   -0.2030   11.0360   -6.3880 C   0  0  0  0  0  0  0  0  0  0  0  0
  2  1  1  1
  2  3  1  0
  2  4  1  0
  4  5  1  0
  3  6  1  0
  3  7  1  1
  5  8  1  0
  6  8  1  0
  6  9  1  1
  7 10  1  0
  9 10  1  0
  8 11  1  0
 12 11  1  1
 12 13  1  0
 12 14  1  0
 14 15  1  0
 13 16  1  0
 15 16  1  0
 16 17  1  6
 17 18  1  0
M  END
