ucsf114-ucsf028
     RDKit          3D

 25 27  0  0  0  0  0  0  0  0999 V2000
    0.7950   18.1290   -4.4980 C   0  0  0  0  0  0  0  0  0  0  0  0
   -0.3310   17.5580   -5.3470 C   0  0  0  0  0  0  0  0  0  0  0  0
   -1.5720   18.4400   -5.3030 C   0  0  0  0  0  0  0  0  0  0  0  0
   -0.7120   16.2710   -4.8570 O   0  0  0  0  0  0  0  0  0  0  0  0
    0.3980   15.3710   -4.7210 C   0  0  0  0  0  0  0  0  0  0  0  0
    0.1560   14.2470   -3.6560 C   0  0  1  0  0  0  0  0  0  0  0  0
    0.0580   14.7400   -2.2550 N   0  0  0  0  0  0  0  0  0  0  0  0
   -1.0030   13.2990   -3.9440 C   0  0  1  0  0  0  0  0  0  0  0  0
   -1.3100   14.7290   -1.6850 C   0  0  2  0  0  0  0  0  0  0  0  0
    0.8840   14.0400   -1.2970 C   0  0  1  0  0  0  0  0  0  0  0  0
   -0.8960   12.4930   -5.2010 C   0  0  0  0  0  0  0  0  0  0  0  0
   -1.0330   12.3260   -2.8910 O   0  0  0  0  0  0  0  0  0  0  0  0
    2.6710   14.1970   -1.5980 S   0  0  0  0  0  0  0  0  0  0  0  0
   -1.6790   13.8380   -0.5280 C   0  0  1  0  0  0  0  0  0  0  0  0
    0.6080   14.6490   -0.0030 N   0  0  0  0  0  0  0  0  0  0  0  0
   -2.5610   14.7080   -2.5500 C   0  0  0  0  0  0  0  0  0  0  0  0
   -0.3510   11.1220   -3.3450 N   0  0  0  0  0  0  0  0  0  0  0  0
   -0.0560   11.3350   -4.7490 C   0  0  1  0  0  0  0  0  0  0  0  0
   -0.4430   10.1810   -5.4620 O   0  0  0  0  0  0  0  0  0  0  0  0
   -0.6380   14.1690    0.5800 C   0  0  1  0  0  0  0  0  0  0  0  0
   -3.0930   14.2970   -0.2360 N   0  0  0  0  0  0  0  0  0  0  0  0
   -3.6010   14.9800   -1.4670 C   0  0  0  0  0  0  0  0  0  0  0  0
   -1.1510   15.1360    1.4960 O   0  0  0  0  0  0  0  0  0  0  0  0
   -3.2860   15.1240    0.9430 N   0  0  0  0  0  0  0  0  0  0  0  0
   -0.3740   10.4250   -6.8570 C   0  0  0  0  0  0  0  0  0  0  0  0
  1  2  1  0
  2  3  1  0
  2  4  1  0
  4  5  1  0
  6  5  1  6
  6  7  1  0
  6  8  1  0
  7  9  1  0
  7 10  1  0
  8 11  1  6
  8 12  1  0
 10 13  1  6
  9 14  1  0
 10 15  1  0
  9 16  1  6
 12 17  1  0
 11 18  1  0
 17 18  1  0
 18 19  1  6
 14 20  1  0
 15 20  1  0
 14 21  1  1
 16 22  1  0
 21 22  1  0
 20 23  1  1
 21 24  1  0
 19 25  1  0
M  END
