ucsf424-ucsf385
     RDKit          3D

 24 26  0  0  0  0  0  0  0  0999 V2000
    1.7350   12.2590   -2.9530 O   0  0  0  0  0  0  0  0  0  0  0  0
    0.9030   12.8640   -3.7810 C   0  0  2  0  0  0  0  0  0  0  0  0
   -0.3400   12.3330   -3.3610 O   0  0  0  0  0  0  0  0  0  0  0  0
    1.1300   12.5530   -5.2760 C   0  0  0  0  0  0  0  0  0  0  0  0
    1.0020   14.4380   -3.6540 C   0  0  0  0  0  0  0  0  0  0  0  0
    0.3570   14.9730   -2.4850 O   0  0  0  0  0  0  0  0  0  0  0  0
   -0.0120   11.9740   -6.1570 C   0  0  1  0  0  0  0  0  0  0  0  0
   -0.9970   14.5580   -2.3280 C   0  0  2  0  0  0  0  0  0  0  0  0
    0.4960   11.7680   -7.5450 N   0  0  0  0  0  0  0  0  0  0  0  0
   -0.6290   10.6120   -5.8130 C   0  0  2  0  0  0  0  0  0  0  0  0
   -1.8440   15.3060   -3.0290 O   0  0  0  0  0  0  0  0  0  0  0  0
    0.8520   10.3580   -7.6440 O   0  0  0  0  0  0  0  0  0  0  0  0
   -0.1640    9.6670   -6.9170 C   0  0  2  0  0  0  0  0  0  0  0  0
   -2.1560   10.6550   -5.8550 C   0  0  0  0  0  0  0  0  0  0  0  0
   -1.2940   14.6610   -0.7830 C   0  0  2  0  0  0  0  0  0  0  0  0
   -1.2650    9.2090   -7.8760 C   0  0  0  0  0  0  0  0  0  0  0  0
   -2.7340    9.2420   -5.8430 C   0  0  0  0  0  0  0  0  0  0  0  0
   -2.7700   14.9030   -0.3340 C   0  0  1  0  0  0  0  0  0  0  0  0
   -0.2030   15.1590    0.1720 C   0  0  0  0  0  0  0  0  0  0  0  0
   -3.7410   14.3780   -1.3220 N   0  0  0  0  0  0  0  0  0  0  0  0
   -2.3630    8.4810   -7.1140 C   0  0  0  0  0  0  0  0  0  0  0  0
   -0.3830   14.2930    1.3850 C   0  0  0  0  0  0  0  0  0  0  0  0
   -2.9500   14.2900    1.0450 C   0  0  0  0  0  0  0  0  0  0  0  0
   -1.7630   14.3310    1.9270 N   0  0  0  0  0  0  0  0  0  0  0  0
  2  1  1  1
  2  3  1  0
  2  4  1  0
  2  5  1  0
  5  6  1  0
  7  4  1  1
  6  8  1  0
  7  9  1  0
  7 10  1  0
  8 11  1  6
  9 12  1  0
 10 13  1  0
 12 13  1  0
 10 14  1  6
  8 15  1  0
 13 16  1  6
 14 17  1  0
 15 18  1  0
 15 19  1  6
 18 20  1  6
 16 21  1  0
 17 21  1  0
 19 22  1  0
 18 23  1  0
 22 24  1  0
 23 24  1  0
M  CHG  2   1  -1  11  -1
M  END
