ucsf337-ucsf519
     RDKit          3D

 22 23  0  0  0  0  0  0  0  0999 V2000
   -7.3310   14.5370    0.9980 C   0  0  0  0  0  0  0  0  0  0  0  0
   -6.2040   14.2960   -0.0100 C   0  0  1  0  0  0  0  0  0  0  0  0
   -6.4010   15.2030   -1.1540 N   0  0  0  0  0  0  0  0  0  0  0  0
   -4.7820   14.3790    0.6250 C   0  0  2  0  0  0  0  0  0  0  0  0
   -4.6430   15.5420    2.1690 Br  0  0  0  0  0  0  0  0  0  0  0  0
   -3.7520   14.9900   -0.2800 C   0  0  2  0  0  0  0  0  0  0  0  0
   -5.2890   15.2630   -2.1070 C   0  0  2  0  0  0  0  0  0  0  0  0
   -5.9170   14.8410   -3.3450 N   0  0  0  0  0  0  0  0  0  0  0  0
   -3.9630   14.5530   -1.7060 C   0  0  1  0  0  0  0  0  0  0  0  0
   -2.3340   14.7320    0.0270 N   0  0  0  0  0  0  0  0  0  0  0  0
   -2.6650   15.0260   -2.2370 N   0  0  0  0  0  0  0  0  0  0  0  0
   -1.7500   14.4730   -1.2670 C   0  0  1  0  0  0  0  0  0  0  0  0
   -2.3490   14.6800   -3.6290 C   0  0  2  0  0  0  0  0  0  0  0  0
   -0.5190   15.1350   -1.3260 O   0  0  0  0  0  0  0  0  0  0  0  0
   -0.8220   14.6720   -4.0200 C   0  0  2  0  0  0  0  0  0  0  0  0
   -3.0910   15.5060   -4.5150 O   0  0  0  0  0  0  0  0  0  0  0  0
   -0.3560   15.8860   -4.8430 C   0  0  0  0  0  0  0  0  0  0  0  0
   -0.3280   13.1510   -4.9330 S   0  0  0  0  0  0  0  0  0  0  0  0
    1.1070   12.5570   -3.9280 C   0  0  0  0  0  0  0  0  0  0  0  0
    1.0190   11.8110   -2.5450 C   0  0  1  0  0  0  0  0  0  0  0  0
    0.2400   12.4450   -1.5620 O   0  0  0  0  0  0  0  0  0  0  0  0
    0.4850   10.5810   -2.5660 O   0  0  0  0  0  0  0  0  0  0  0  0
  2  1  1  1
  2  3  1  0
  2  4  1  0
  4  5  1  1
  4  6  1  0
  3  7  1  0
  7  8  1  6
  6  9  1  0
  7  9  1  0
  6 10  1  1
  9 11  1  6
 10 12  1  0
 11 12  1  0
 11 13  1  0
 12 14  1  1
 13 15  1  0
 13 16  1  6
 15 17  1  6
 15 18  1  0
 18 19  1  0
 19 20  1  0
 20 21  1  1
 20 22  1  0
M  CHG  1  22  -1
M  END
