ucsf260-ucsf247
     RDKit          3D

 26 28  0  0  0  0  0  0  0  0999 V2000
    0.7260   11.1400   -3.0640 O   0  0  0  0  0  0  0  0  0  0  0  0
    1.4900   12.2170   -3.1540 C   0  0  2  0  0  0  0  0  0  0  0  0
    0.9580   13.2040   -2.2490 O   0  0  0  0  0  0  0  0  0  0  0  0
    1.5170   12.7330   -4.6460 C   0  0  0  0  0  0  0  0  0  0  0  0
    0.2190   13.2290   -5.3270 C   0  0  0  0  0  0  0  0  0  0  0  0
    0.6210   14.4780   -2.8020 C   0  0  0  0  0  0  0  0  0  0  0  0
   -0.8430   14.5640   -3.2690 C   0  0  0  0  0  0  0  0  0  0  0  0
   -0.7430   12.2160   -5.8310 N   0  0  0  0  0  0  0  0  0  0  0  0
   -1.7970   14.5930   -2.1570 N   0  0  0  0  0  0  0  0  0  0  0  0
   -1.8250   11.8730   -4.9150 C   0  0  0  0  0  0  0  0  0  0  0  0
   -0.2400   10.9200   -6.2420 C   0  0  1  0  0  0  0  0  0  0  0  0
   -2.9190   15.4480   -2.4330 C   0  0  1  0  0  0  0  0  0  0  0  0
   -2.3030   10.5210   -5.3200 N   0  0  0  0  0  0  0  0  0  0  0  0
   -1.5540   10.2660   -6.5600 C   0  0  2  0  0  0  0  0  0  0  0  0
    0.6530   11.0280   -7.4770 C   0  0  0  0  0  0  0  0  0  0  0  0
   -3.5910   15.0060   -3.5940 O   0  0  0  0  0  0  0  0  0  0  0  0
   -1.3940    8.8290   -7.0160 C   0  0  0  0  0  0  0  0  0  0  0  0
    0.5190    9.8180   -8.4050 C   0  0  0  0  0  0  0  0  0  0  0  0
   -3.8950   15.4610   -1.2400 C   0  0  1  0  0  0  0  0  0  0  0  0
   -0.0600    8.5720   -7.7190 C   0  0  0  0  0  0  0  0  0  0  0  0
   -5.1050   14.5400   -1.3370 C   0  0  0  0  0  0  0  0  0  0  0  0
   -3.1760   15.2300    0.1030 C   0  0  0  0  0  0  0  0  0  0  0  0
   -6.0630   14.9630   -0.2440 C   0  0  1  0  0  0  0  0  0  0  0  0
   -4.0770   15.4320    1.3220 C   0  0  0  0  0  0  0  0  0  0  0  0
   -7.2920   14.2390   -0.3360 O   0  0  0  0  0  0  0  0  0  0  0  0
   -5.4580   14.7840    1.1630 C   0  0  0  0  0  0  0  0  0  0  0  0
  2  1  1  6
  2  3  1  0
  2  4  1  0
  4  5  1  0
  3  6  1  0
  6  7  1  0
  5  8  1  0
  7  9  1  0
  8 10  1  0
  8 11  1  0
  9 12  1  0
 10 13  1  0
 11 14  1  0
 13 14  1  0
 11 15  1  6
 12 16  1  6
 14 17  1  1
 15 18  1  0
 12 19  1  0
 17 20  1  0
 18 20  1  0
 19 21  1  6
 19 22  1  0
 21 23  1  0
 22 24  1  0
 23 25  1  1
 23 26  1  0
 24 26  1  0
M  CHG  1   1  -1
M  END
