ucsf005-ucsf016
     RDKit          3D

 19 22  0  0  0  0  0  0  0  0999 V2000
   -2.7440   12.7660   -3.2020 C   0  0  0  0  0  0  0  0  0  0  0  0
   -3.2240   13.4460   -2.0230 N   0  0  0  0  0  0  0  0  0  0  0  0
   -4.5680   13.9940   -2.1940 C   0  0  0  0  0  0  0  0  0  0  0  0
   -2.5290   14.6230   -1.6880 C   0  0  1  0  0  0  0  0  0  0  0  0
   -4.7620   15.0010   -1.1400 N   0  0  0  0  0  0  0  0  0  0  0  0
   -3.3920   15.3170   -0.6750 C   0  0  1  0  0  0  0  0  0  0  0  0
   -1.0240   14.8980   -1.6760 C   0  0  1  0  0  0  0  0  0  0  0  0
   -3.0090   14.8530    0.7060 C   0  0  2  0  0  0  0  0  0  0  0  0
   -0.6670   15.2860   -0.0990 C   0  0  2  0  0  0  0  0  0  0  0  0
   -0.2040   13.6600   -2.2050 C   0  0  0  0  0  0  0  0  0  0  0  0
   -1.0350   15.9220   -2.8730 C   0  0  0  0  0  0  0  0  0  0  0  0
   -3.8770   15.4390    1.7070 N   0  0  0  0  0  0  0  0  0  0  0  0
    0.2240   14.3650    0.5660 N   0  0  0  0  0  0  0  0  0  0  0  0
   -1.6890   15.3650    0.9790 N   0  0  0  0  0  0  0  0  0  0  0  0
   -1.5250   15.2790   -4.2070 C   0  0  0  0  0  0  0  0  0  0  0  0
    0.3180   13.6520   -3.6800 C   0  0  0  0  0  0  0  0  0  0  0  0
   -3.0050   14.9110   -4.3430 C   0  0  0  0  0  0  0  0  0  0  0  0
   -2.4650   16.0420   -5.1370 C   0  0  0  0  0  0  0  0  0  0  0  0
   -0.5610   14.2750   -4.7740 C   0  0  0  0  0  0  0  0  0  0  0  0
  1  2  1  0
  2  3  1  0
  4  2  1  1
  3  5  1  0
  4  6  1  0
  6  5  1  6
  4  7  1  0
  6  8  1  0
  7  9  1  0
  7 10  1  6
  7 11  1  0
  8 12  1  1
  9 13  1  1
  8 14  1  0
  9 14  1  0
 15 11  1  0
 10 16  1  0
 15 17  1  0
 15 18  1  0
 17 18  1  0
 15 19  1  0
 16 19  1  0
M  END
