ucsf224-ucsf110
     RDKit          3D

 23 25  0  0  0  0  0  0  0  0999 V2000
   -1.1970   18.3870   -4.9790 Cl  0  0  0  0  0  0  0  0  0  0  0  0
   -0.3930   16.8740   -5.5060 C   0  0  2  0  0  0  0  0  0  0  0  0
   -1.1420   15.6080   -5.1060 C   0  0  2  0  0  0  0  0  0  0  0  0
    1.0490   16.7730   -5.0250 C   0  0  0  0  0  0  0  0  0  0  0  0
   -2.9470   15.7650   -5.1470 Cl  0  0  0  0  0  0  0  0  0  0  0  0
   -0.5760   15.3480   -3.7260 C   0  0  1  0  0  0  0  0  0  0  0  0
    1.5300   15.3070   -4.8000 C   0  0  0  0  0  0  0  0  0  0  0  0
   -1.5690   15.0580   -2.6550 C   0  0  0  0  0  0  0  0  0  0  0  0
    0.7230   14.5540   -3.7630 C   0  0  2  0  0  0  0  0  0  0  0  0
    0.6230   12.9990   -3.8920 C   0  0  0  0  0  0  0  0  0  0  0  0
   -1.8000   13.7560   -2.2460 N   0  0  0  0  0  0  0  0  0  0  0  0
    1.0870   12.1480   -2.6650 C   0  0  2  0  0  0  0  0  0  0  0  0
   -3.2190   13.4740   -2.4430 C   0  0  0  0  0  0  0  0  0  0  0  0
   -1.5670   13.7810   -0.8180 C   0  0  2  0  0  0  0  0  0  0  0  0
    0.4370   11.0030   -2.6300 O   0  0  0  0  0  0  0  0  0  0  0  0
    0.6470   12.7160   -1.4450 O   0  0  0  0  0  0  0  0  0  0  0  0
   -3.9070   13.9790   -1.1760 C   0  0  0  0  0  0  0  0  0  0  0  0
   -2.7660   14.5860   -0.3960 C   0  0  1  0  0  0  0  0  0  0  0  0
   -0.3500   14.3850   -0.3290 N   0  0  0  0  0  0  0  0  0  0  0  0
   -2.7810   14.5930    1.1030 C   0  0  2  0  0  0  0  0  0  0  0  0
   -0.3040   14.5880    1.0960 C   0  0  0  0  0  0  0  0  0  0  0  0
   -3.8050   15.4360    1.6840 N   0  0  0  0  0  0  0  0  0  0  0  0
   -1.5560   15.1360    1.6100 N   0  0  0  0  0  0  0  0  0  0  0  0
  2  1  1  1
  2  3  1  0
  2  4  1  0
  3  5  1  1
  3  6  1  0
  4  7  1  0
  6  8  1  1
  6  9  1  0
  7  9  1  0
  9 10  1  6
  8 11  1  0
 10 12  1  0
 11 13  1  0
 11 14  1  0
 12 15  1  6
 12 16  1  0
 13 17  1  0
 14 18  1  0
 18 17  1  6
 14 19  1  6
 18 20  1  0
 19 21  1  0
 20 22  1  6
 20 23  1  0
 21 23  1  0
M  CHG  1  15  -1
M  END
