ucsf170-ucsf151
     RDKit          3D

 19 20  0  0  0  0  0  0  0  0999 V2000
   -4.9960   14.9910    1.2480 C   0  0  0  0  0  0  0  0  0  0  0  0
   -3.3550   15.7000    1.0130 S   0  0  0  0  0  0  0  0  0  0  0  0
   -2.6680   14.4960   -0.2020 C   0  0  2  0  0  0  0  0  0  0  0  0
   -1.2410   14.9250   -0.5660 C   0  0  0  0  0  0  0  0  0  0  0  0
   -3.6020   14.3600   -1.4060 C   0  0  0  0  0  0  0  0  0  0  0  0
   -0.9270   15.2610   -2.0750 C   0  0  1  0  0  0  0  0  0  0  0  0
   -3.5100   15.5470   -2.3260 C   0  0  0  0  0  0  0  0  0  0  0  0
    0.0680   14.2610   -2.7850 C   0  0  2  0  0  0  0  0  0  0  0  0
   -2.1270   15.7510   -2.9360 C   0  0  2  0  0  0  0  0  0  0  0  0
   -2.1740   15.1450   -4.2030 O   0  0  0  0  0  0  0  0  0  0  0  0
    0.4680   13.2700   -1.8520 O   0  0  0  0  0  0  0  0  0  0  0  0
    1.1700   14.8720   -3.1220 O   0  0  0  0  0  0  0  0  0  0  0  0
   -0.5700   13.5850   -4.0580 C   0  0  2  0  0  0  0  0  0  0  0  0
   -0.9640   14.5480   -5.2220 C   0  0  0  0  0  0  0  0  0  0  0  0
   -1.6860   12.5400   -3.7740 C   0  0  0  0  0  0  0  0  0  0  0  0
   -2.4480   14.6180   -5.6950 C   0  0  2  0  0  0  0  0  0  0  0  0
   -2.6220   12.3220   -4.8820 N   0  0  0  0  0  0  0  0  0  0  0  0
   -2.9980   15.9350   -5.5980 O   0  0  0  0  0  0  0  0  0  0  0  0
   -3.3530   13.5660   -5.0910 C   0  0  0  0  0  0  0  0  0  0  0  0
  1  2  1  0
  3  2  1  1
  3  4  1  0
  3  5  1  0
  6  4  1  1
  5  7  1  0
  6  8  1  0
  6  9  1  0
  7  9  1  0
  9 10  1  6
  8 11  1  1
  8 12  1  0
  8 13  1  0
 13 14  1  6
 13 15  1  0
 14 16  1  0
 15 17  1  0
 16 18  1  1
 16 19  1  0
 17 19  1  0
M  CHG  1  12  -1
M  END
