ucsf404-ucsf493
     RDKit          3D

 28 31  0  0  0  0  0  0  0  0999 V2000
   -6.6690   15.0060   -2.5720 Cl  0  0  0  0  0  0  0  0  0  0  0  0
   -5.2250   14.5060   -1.6340 C   0  0  2  0  0  0  0  0  0  0  0  0
   -5.2300   15.3500   -0.3660 C   0  0  1  0  0  0  0  0  0  0  0  0
   -3.9360   14.5860   -2.4760 C   0  0  1  0  0  0  0  0  0  0  0  0
   -6.2490   14.7940    0.5650 N   0  0  0  0  0  0  0  0  0  0  0  0
   -3.8630   15.4580    0.2980 C   0  0  1  0  0  0  0  0  0  0  0  0
   -2.6310   14.4810   -1.6610 C   0  0  0  0  0  0  0  0  0  0  0  0
   -3.9280   13.4880   -3.5590 C   0  0  0  0  0  0  0  0  0  0  0  0
   -5.6690   14.4740    1.8250 C   0  0  1  0  0  0  0  0  0  0  0  0
   -4.1970   15.4580    2.0410 S   0  0  0  0  0  0  0  0  0  0  0  0
   -2.8500   14.4370   -0.1650 C   0  0  0  0  0  0  0  0  0  0  0  0
   -4.0650   14.0050   -4.9830 C   0  0  0  0  0  0  0  0  0  0  0  0
   -6.6780   14.8470    2.7670 N   0  0  0  0  0  0  0  0  0  0  0  0
   -3.7920   15.4440   -5.0500 N   0  0  0  0  0  0  0  0  0  0  0  0
   -4.1550   15.8450   -6.3580 C   0  0  0  0  0  0  0  0  0  0  0  0
   -2.4050   15.8550   -4.7760 C   0  0  1  0  0  0  0  0  0  0  0  0
   -1.3990   14.7330   -4.8100 C   0  0  0  0  0  0  0  0  0  0  0  0
   -1.8700   17.1670   -5.4090 C   0  0  0  0  0  0  0  0  0  0  0  0
   -0.3020   15.1210   -3.8780 C   0  0  2  0  0  0  0  0  0  0  0  0
   -0.3300   17.3230   -5.3460 C   0  0  0  0  0  0  0  0  0  0  0  0
    0.4190   16.3700   -4.3840 C   0  0  2  0  0  0  0  0  0  0  0  0
    0.7830   14.0540   -3.7740 C   0  0  1  0  0  0  0  0  0  0  0  0
    0.2290   12.6060   -3.6980 C   0  0  0  0  0  0  0  0  0  0  0  0
    1.6420   15.8730   -5.0100 N   0  0  0  0  0  0  0  0  0  0  0  0
    1.5790   14.3900   -4.9880 C   0  0  0  0  0  0  0  0  0  0  0  0
    0.6970   11.7980   -2.4620 C   0  0  2  0  0  0  0  0  0  0  0  0
    0.3890   10.4230   -2.5680 O   0  0  0  0  0  0  0  0  0  0  0  0
    0.0660   12.1460   -1.3570 O   0  0  0  0  0  0  0  0  0  0  0  0
  2  1  1  6
  2  3  1  0
  2  4  1  0
  3  5  1  1
  3  6  1  0
  4  7  1  0
  4  8  1  6
  5  9  1  0
  6 10  1  0
  9 10  1  0
  6 11  1  1
  7 11  1  0
  8 12  1  0
  9 13  1  1
 12 14  1  0
 14 15  1  0
 16 14  1  6
 16 17  1  0
 16 18  1  0
 19 17  1  6
 18 20  1  0
 19 21  1  0
 21 20  1  6
 19 22  1  0
 22 23  1  6
 21 24  1  0
 22 25  1  0
 24 25  1  0
 23 26  1  0
 26 27  1  6
 26 28  1  0
M  CHG  1  28  -1
M  END
