ucsf403-ucsf224
     RDKit          3D

 22 23  0  0  0  0  0  0  0  0999 V2000
    0.7830    9.3500   -7.8470 Cl  0  0  0  0  0  0  0  0  0  0  0  0
   -0.6780    9.9060   -6.9610 C   0  0  2  0  0  0  0  0  0  0  0  0
   -0.4190   10.4310   -5.5240 C   0  0  0  0  0  0  0  0  0  0  0  0
   -1.6650    8.7320   -6.9460 C   0  0  0  0  0  0  0  0  0  0  0  0
    0.5360   11.5420   -5.5250 O   0  0  0  0  0  0  0  0  0  0  0  0
   -1.7670   10.8750   -4.9240 C   0  0  1  0  0  0  0  0  0  0  0  0
   -3.0030    9.1490   -6.3600 C   0  0  0  0  0  0  0  0  0  0  0  0
   -2.4250   12.3420   -5.6850 Cl  0  0  0  0  0  0  0  0  0  0  0  0
    0.3590   12.5070   -4.4380 C   0  0  1  0  0  0  0  0  0  0  0  0
   -2.8390    9.7850   -4.9780 C   0  0  0  0  0  0  0  0  0  0  0  0
    1.2490   12.2660   -3.1740 C   0  0  2  0  0  0  0  0  0  0  0  0
    0.4070   13.9470   -5.0640 C   0  0  1  0  0  0  0  0  0  0  0  0
    1.2010   13.3730   -2.2730 O   0  0  0  0  0  0  0  0  0  0  0  0
    2.5860   12.0830   -3.5350 O   0  0  0  0  0  0  0  0  0  0  0  0
   -1.0810   14.3560   -5.1840 C   0  0  0  0  0  0  0  0  0  0  0  0
    1.2420   15.0430   -4.3830 C   0  0  0  0  0  0  0  0  0  0  0  0
    0.5890   12.9680   -0.9990 O   0  0  0  0  0  0  0  0  0  0  0  0
   -1.5430   15.8120   -5.1330 C   0  0  1  0  0  0  0  0  0  0  0  0
    0.9490   16.4170   -4.9850 C   0  0  0  0  0  0  0  0  0  0  0  0
   -3.0060   15.7960   -4.1220 Cl  0  0  0  0  0  0  0  0  0  0  0  0
   -0.4870   16.8320   -4.7410 C   0  0  1  0  0  0  0  0  0  0  0  0
   -0.8590   18.4430   -5.4300 Cl  0  0  0  0  0  0  0  0  0  0  0  0
  2  1  1  1
  2  3  1  0
  2  4  1  0
  3  5  1  0
  3  6  1  0
  4  7  1  0
  6  8  1  6
  9  5  1  6
  6 10  1  0
  7 10  1  0
  9 11  1  0
  9 12  1  0
 11 13  1  0
 11 14  1  6
 12 15  1  1
 12 16  1  0
 13 17  1  0
 15 18  1  0
 16 19  1  0
 18 20  1  1
 18 21  1  0
 19 21  1  0
 21 22  1  6
M  END
