ucsf247-ucsf336
     RDKit          3D

 23 24  0  0  0  0  0  0  0  0999 V2000
    0.5560   13.2620   -1.9270 O   0  0  0  0  0  0  0  0  0  0  0  0
    0.2550   13.3610   -3.2190 C   0  0  2  0  0  0  0  0  0  0  0  0
    1.4940   13.7370   -3.7990 O   0  0  0  0  0  0  0  0  0  0  0  0
   -0.8190   14.4920   -3.4150 C   0  0  0  0  0  0  0  0  0  0  0  0
   -0.2310   11.9420   -3.7500 C   0  0  2  0  0  0  0  0  0  0  0  0
   -1.6220   14.7510   -2.2050 N   0  0  0  0  0  0  0  0  0  0  0  0
    0.3660   10.9060   -2.9910 O   0  0  0  0  0  0  0  0  0  0  0  0
    0.0170   11.7380   -5.1940 N   0  0  0  0  0  0  0  0  0  0  0  0
   -3.0130   15.0890   -2.4270 C   0  0  1  0  0  0  0  0  0  0  0  0
   -0.6100   10.5020   -5.6770 C   0  0  0  0  0  0  0  0  0  0  0  0
   -3.5210   14.5460   -3.6260 O   0  0  0  0  0  0  0  0  0  0  0  0
   -3.8110   14.5560   -1.2320 C   0  0  2  0  0  0  0  0  0  0  0  0
   -0.3750   10.3240   -7.1850 C   0  0  0  0  0  0  0  0  0  0  0  0
   -2.1190   10.4400   -5.3850 C   0  0  0  0  0  0  0  0  0  0  0  0
   -5.3190   14.5920   -1.4900 C   0  0  0  0  0  0  0  0  0  0  0  0
   -3.4400   15.3300    0.0540 C   0  0  0  0  0  0  0  0  0  0  0  0
   -1.0220    9.0340   -7.7030 C   0  0  0  0  0  0  0  0  0  0  0  0
   -2.7730    9.1490   -5.8720 C   0  0  0  0  0  0  0  0  0  0  0  0
   -6.0390   15.2040   -0.3080 C   0  0  1  0  0  0  0  0  0  0  0  0
   -4.1360   14.8490    1.3100 C   0  0  0  0  0  0  0  0  0  0  0  0
   -2.5040    8.8820   -7.3450 C   0  0  0  0  0  0  0  0  0  0  0  0
   -7.4470   15.0400   -0.4900 O   0  0  0  0  0  0  0  0  0  0  0  0
   -5.6200   14.6470    1.0610 C   0  0  0  0  0  0  0  0  0  0  0  0
  2  1  1  1
  2  3  1  0
  2  4  1  0
  2  5  1  0
  4  6  1  0
  5  7  1  1
  5  8  1  0
  6  9  1  0
  8 10  1  0
  9 11  1  6
  9 12  1  0
 10 13  1  0
 10 14  1  0
 12 15  1  6
 12 16  1  0
 13 17  1  0
 14 18  1  0
 15 19  1  0
 16 20  1  0
 17 21  1  0
 18 21  1  0
 19 22  1  6
 19 23  1  0
 20 23  1  0
M  CHG  1   1  -1
M  END
