ucsf380-ucsf493
     RDKit          3D

 30 33  0  0  0  0  0  0  0  0999 V2000
    0.8080   14.8090   -1.5840 O   0  0  0  0  0  0  0  0  0  0  0  0
   -0.0860   13.8820   -1.2800 C   0  0  2  0  0  0  0  0  0  0  0  0
    0.4480   12.5590   -1.4500 O   0  0  0  0  0  0  0  0  0  0  0  0
   -1.4200   14.1380   -2.1350 C   0  0  0  0  0  0  0  0  0  0  0  0
    0.0690   11.8800   -2.6370 C   0  0  1  0  0  0  0  0  0  0  0  0
   -2.7250   14.3400   -1.2960 C   0  0  0  0  0  0  0  0  0  0  0  0
   -1.7760   13.0850   -3.3180 C   0  0  0  0  0  0  0  0  0  0  0  0
    0.6320   12.6490   -3.8690 C   0  0  0  0  0  0  0  0  0  0  0  0
    0.5780   10.5480   -2.5520 O   0  0  0  0  0  0  0  0  0  0  0  0
   -2.6610   14.8110    0.1720 C   0  0  0  0  0  0  0  0  0  0  0  0
   -3.7020   15.2110   -2.1020 C   0  0  0  0  0  0  0  0  0  0  0  0
   -2.6290   11.8840   -2.8250 C   0  0  0  0  0  0  0  0  0  0  0  0
   -0.7180   12.5880   -4.3220 C   0  0  0  0  0  0  0  0  0  0  0  0
   -3.7800   15.7070    0.7080 C   0  0  0  0  0  0  0  0  0  0  0  0
   -5.0670   15.2120   -1.5010 C   0  0  0  0  0  0  0  0  0  0  0  0
   -2.7790   10.7530   -3.8450 C   0  0  0  0  0  0  0  0  0  0  0  0
   -1.3430   11.9290   -5.5530 C   0  0  0  0  0  0  0  0  0  0  0  0
    0.7220   14.2040   -3.7920 C   0  0  2  0  0  0  0  0  0  0  0  0
   -5.0610   15.8200   -0.1280 C   0  0  0  0  0  0  0  0  0  0  0  0
   -2.6780   11.2600   -5.2750 C   0  0  0  0  0  0  0  0  0  0  0  0
   -0.3920   15.2270   -4.1700 C   0  0  2  0  0  0  0  0  0  0  0  0
    1.7800   14.5680   -4.7950 C   0  0  0  0  0  0  0  0  0  0  0  0
   -1.5490   14.8980   -5.1120 C   0  0  0  0  0  0  0  0  0  0  0  0
    0.4050   16.4780   -4.5510 C   0  0  1  0  0  0  0  0  0  0  0  0
    1.5740   15.9630   -5.2140 N   0  0  0  0  0  0  0  0  0  0  0  0
   -2.4390   16.0860   -5.5410 C   0  0  1  0  0  0  0  0  0  0  0  0
   -0.3050   17.5040   -5.4270 C   0  0  0  0  0  0  0  0  0  0  0  0
   -3.6880   16.0050   -4.8920 O   0  0  0  0  0  0  0  0  0  0  0  0
   -1.8240   17.4650   -5.3200 C   0  0  0  0  0  0  0  0  0  0  0  0
   -4.5420   15.0730   -5.5560 C   0  0  0  0  0  0  0  0  0  0  0  0
  2  1  1  6
  2  3  1  0
  2  4  1  0
  3  5  1  0
  4  6  1  0
  4  7  1  0
  5  8  1  0
  5  9  1  1
  6 10  1  0
  6 11  1  0
  7 12  1  0
  7 13  1  0
 10 14  1  0
 11 15  1  0
 12 16  1  0
 13 17  1  0
 18  8  1  6
 14 19  1  0
 15 19  1  0
 16 20  1  0
 17 20  1  0
 18 21  1  0
 18 22  1  0
 21 23  1  6
 21 24  1  0
 22 25  1  0
 24 25  1  0
 23 26  1  0
 24 27  1  6
 26 28  1  1
 26 29  1  0
 27 29  1  0
 28 30  1  0
M  CHG  1   1  -1
M  END
