ucsf170-ucsf493
     RDKit          3D

 25 27  0  0  0  0  0  0  0  0999 V2000
   -5.4340   14.7630    1.1350 C   0  0  0  0  0  0  0  0  0  0  0  0
   -3.7400   15.3700    1.2690 S   0  0  0  0  0  0  0  0  0  0  0  0
   -3.1610   15.1060   -0.4410 C   0  0  1  0  0  0  0  0  0  0  0  0
   -1.7530   14.5180   -0.4280 C   0  0  0  0  0  0  0  0  0  0  0  0
   -4.0880   14.2670   -1.2970 C   0  0  0  0  0  0  0  0  0  0  0  0
   -1.3880   13.8530   -1.7660 C   0  0  2  0  0  0  0  0  0  0  0  0
   -3.6970   14.4430   -2.7600 C   0  0  0  0  0  0  0  0  0  0  0  0
    0.1650   13.8750   -1.9710 C   0  0  1  0  0  0  0  0  0  0  0  0
   -2.1810   14.4630   -2.9580 C   0  0  2  0  0  0  0  0  0  0  0  0
   -1.9120   13.7010   -4.1400 O   0  0  0  0  0  0  0  0  0  0  0  0
    0.7110   13.1220   -0.8810 O   0  0  0  0  0  0  0  0  0  0  0  0
    0.6190   13.3300   -3.2530 N   0  0  0  0  0  0  0  0  0  0  0  0
    0.0640   12.0240   -3.5910 C   0  0  0  0  0  0  0  0  0  0  0  0
    0.6070   14.2680   -4.3760 C   0  0  1  0  0  0  0  0  0  0  0  0
    0.6110   10.9730   -2.8250 O   0  0  0  0  0  0  0  0  0  0  0  0
   -0.4200   15.4260   -4.3650 C   0  0  2  0  0  0  0  0  0  0  0  0
    1.9120   15.0270   -4.3820 C   0  0  0  0  0  0  0  0  0  0  0  0
   -1.6680   15.1110   -5.2030 C   0  0  0  0  0  0  0  0  0  0  0  0
    0.3920   16.6810   -4.7240 C   0  0  1  0  0  0  0  0  0  0  0  0
    1.6000   16.1270   -5.2880 N   0  0  0  0  0  0  0  0  0  0  0  0
   -2.4690   16.3210   -5.6810 C   0  0  1  0  0  0  0  0  0  0  0  0
   -0.3040   17.6900   -5.6220 C   0  0  0  0  0  0  0  0  0  0  0  0
   -3.7020   16.1530   -5.0320 O   0  0  0  0  0  0  0  0  0  0  0  0
   -1.8090   17.6760   -5.3930 C   0  0  0  0  0  0  0  0  0  0  0  0
   -4.4880   15.1640   -5.6930 C   0  0  0  0  0  0  0  0  0  0  0  0
  1  2  1  0
  3  2  1  1
  3  4  1  0
  3  5  1  0
  6  4  1  1
  5  7  1  0
  6  8  1  0
  6  9  1  0
  7  9  1  0
  9 10  1  6
  8 11  1  1
  8 12  1  0
 12 13  1  0
 14 12  1  1
 13 15  1  0
 14 16  1  0
 14 17  1  0
 16 18  1  6
 16 19  1  0
 17 20  1  0
 19 20  1  0
 18 21  1  0
 19 22  1  6
 21 23  1  1
 21 24  1  0
 22 24  1  0
 23 25  1  0
M  END
