ucsf387-ucsf412
     RDKit          3D

 25 27  0  0  0  0  0  0  0  0999 V2000
    1.0250   18.3460   -5.0400 Cl  0  0  0  0  0  0  0  0  0  0  0  0
    0.5140   16.6700   -5.2510 C   0  0  2  0  0  0  0  0  0  0  0  0
   -1.0210   16.6820   -5.1700 C   0  0  0  0  0  0  0  0  0  0  0  0
    1.2490   15.7420   -4.2890 C   0  0  0  0  0  0  0  0  0  0  0  0
    0.4580   14.4800   -3.9610 C   0  0  2  0  0  0  0  0  0  0  0  0
   -1.6620   15.3230   -4.8510 C   0  0  1  0  0  0  0  0  0  0  0  0
   -2.9230   15.0390   -5.6680 C   0  0  0  0  0  0  0  0  0  0  0  0
    1.3210   13.2330   -3.6640 C   0  0  0  0  0  0  0  0  0  0  0  0
   -0.6380   14.2100   -4.9820 C   0  0  0  0  0  0  0  0  0  0  0  0
    0.5230   12.3730   -2.6840 C   0  0  1  0  0  0  0  0  0  0  0  0
   -4.1690   15.1180   -4.8140 C   0  0  0  0  0  0  0  0  0  0  0  0
    0.7740   11.0920   -2.7120 O   0  0  0  0  0  0  0  0  0  0  0  0
    0.8600   12.7140   -1.3580 O   0  0  0  0  0  0  0  0  0  0  0  0
   -4.5150   13.9300   -3.9400 C   0  0  0  0  0  0  0  0  0  0  0  0
   -4.5340   14.2420   -2.4190 C   0  0  1  0  0  0  0  0  0  0  0  0
   -3.3350   14.9950   -1.8570 C   0  0  0  0  0  0  0  0  0  0  0  0
   -5.8250   14.9560   -2.0520 C   0  0  0  0  0  0  0  0  0  0  0  0
   -5.9030   15.4990   -0.6160 C   0  0  1  0  0  0  0  0  0  0  0  0
   -3.3500   14.8410   -0.3490 C   0  0  0  0  0  0  0  0  0  0  0  0
   -7.2030   14.9870    0.0570 C   0  0  1  0  0  0  0  0  0  0  0  0
   -4.5930   15.4870    0.2700 C   0  0  2  0  0  0  0  0  0  0  0  0
   -7.6870   13.8250   -0.5650 O   0  0  0  0  0  0  0  0  0  0  0  0
   -4.7330   15.0040    1.7270 C   0  0  0  0  0  0  0  0  0  0  0  0
   -7.1820   14.7280    1.4720 N   0  0  0  0  0  0  0  0  0  0  0  0
   -5.9610   14.1500    1.9760 C   0  0  0  0  0  0  0  0  0  0  0  0
  2  1  1  1
  2  3  1  0
  2  4  1  0
  4  5  1  0
  3  6  1  0
  6  7  1  6
  5  8  1  6
  5  9  1  0
  6  9  1  0
  8 10  1  0
  7 11  1  0
 10 12  1  6
 10 13  1  0
 11 14  1  0
 15 14  1  6
 15 16  1  0
 15 17  1  0
 18 17  1  6
 16 19  1  0
 18 20  1  0
 18 21  1  0
 21 19  1  6
 20 22  1  6
 21 23  1  0
 20 24  1  0
 23 25  1  0
 24 25  1  0
M  CHG  1  12  -1
M  END
