ucsf173-ucsf004
     RDKit          3D

 21 24  0  0  0  0  0  0  0  0999 V2000
    0.2570   12.4600   -1.1070 O   0  0  0  0  0  0  0  0  0  0  0  0
    0.3190   12.4150   -2.4210 C   0  0  1  0  0  0  0  0  0  0  0  0
   -0.3000   11.1640   -2.6750 O   0  0  0  0  0  0  0  0  0  0  0  0
   -0.5030   13.5920   -3.1420 C   0  0  1  0  0  0  0  0  0  0  0  0
   -1.5100   13.0450   -3.9120 F   0  0  0  0  0  0  0  0  0  0  0  0
   -1.0410   14.8270   -2.1960 C   0  0  2  0  0  0  0  0  0  0  0  0
    0.5140   14.3010   -4.1200 C   0  0  0  0  0  0  0  0  0  0  0  0
   -1.0890   15.9130   -3.3720 C   0  0  1  0  0  0  0  0  0  0  0  0
    0.3190   15.8110   -3.9470 C   0  0  2  0  0  0  0  0  0  0  0  0
   -0.0300   15.2860   -1.1640 N   0  0  0  0  0  0  0  0  0  0  0  0
   -2.3460   14.6060   -1.2830 C   0  0  1  0  0  0  0  0  0  0  0  0
   -2.1710   16.0610   -4.4710 C   0  0  0  0  0  0  0  0  0  0  0  0
    0.5400   16.6770   -5.1790 C   0  0  0  0  0  0  0  0  0  0  0  0
    0.0140   14.6640    0.1950 C   0  0  0  0  0  0  0  0  0  0  0  0
   -2.1780   15.3610    0.0550 C   0  0  2  0  0  0  0  0  0  0  0  0
   -3.7180   15.1850   -1.6570 C   0  0  0  0  0  0  0  0  0  0  0  0
   -1.9220   17.3160   -5.3350 C   0  0  0  0  0  0  0  0  0  0  0  0
   -0.4810   17.8080   -5.2750 C   0  0  0  0  0  0  0  0  0  0  0  0
   -1.2420   14.7110    0.9090 N   0  0  0  0  0  0  0  0  0  0  0  0
   -3.4730   15.3190    0.7450 N   0  0  0  0  0  0  0  0  0  0  0  0
   -4.4580   15.4250   -0.3330 C   0  0  0  0  0  0  0  0  0  0  0  0
  2  1  1  1
  2  3  1  0
  2  4  1  0
  4  5  1  6
  4  6  1  0
  4  7  1  0
  6  8  1  0
  9  7  1  6
  8  9  1  0
  6 10  1  1
  6 11  1  0
  8 12  1  6
  9 13  1  0
 10 14  1  0
 11 15  1  0
 11 16  1  6
 12 17  1  0
 13 18  1  0
 17 18  1  0
 14 19  1  0
 15 19  1  1
 15 20  1  0
 16 21  1  0
 20 21  1  0
M  CHG  1   1  -1
M  END
