ucsf487-ucsf243
     RDKit          3D

 16 17  0  0  0  0  0  0  0  0999 V2000
   -7.5310   14.3200    2.7110 N   0  0  0  0  0  0  0  0  0  0  0  0
   -6.7830   14.0470    1.4740 C   0  0  1  0  0  0  0  0  0  0  0  0
   -7.5860   14.4190    0.2150 C   0  0  0  0  0  0  0  0  0  0  0  0
   -5.3950   14.7130    1.5470 C   0  0  0  0  0  0  0  0  0  0  0  0
   -4.7500   15.2060    0.2210 C   0  0  2  0  0  0  0  0  0  0  0  0
   -6.7790   14.2010   -0.9820 N   0  0  0  0  0  0  0  0  0  0  0  0
   -5.6610   15.1700   -1.0300 C   0  0  2  0  0  0  0  0  0  0  0  0
   -3.3370   14.5740    0.1340 C   0  0  2  0  0  0  0  0  0  0  0  0
   -2.4940   15.3930    1.0900 C   0  0  0  0  0  0  0  0  0  0  0  0
   -4.9230   15.1640   -2.3770 C   0  0  0  0  0  0  0  0  0  0  0  0
   -2.6960   14.1880   -1.2710 C   0  0  2  0  0  0  0  0  0  0  0  0
   -1.1100   14.2030   -1.5290 C   0  0  1  0  0  0  0  0  0  0  0  0
   -3.5970   14.4200   -2.5320 C   0  0  2  0  0  0  0  0  0  0  0  0
   -2.8740   14.9820   -3.6480 O   0  0  0  0  0  0  0  0  0  0  0  0
   -0.7650   14.5780   -2.8590 O   0  0  0  0  0  0  0  0  0  0  0  0
   -0.4210   15.0590   -0.8090 O   0  0  0  0  0  0  0  0  0  0  0  0
  2  1  1  1
  2  3  1  0
  2  4  1  0
  5  4  1  1
  3  6  1  0
  5  7  1  0
  6  7  1  0
  5  8  1  0
  8  9  1  6
  7 10  1  6
  8 11  1  0
 11 12  1  6
 10 13  1  0
 11 13  1  0
 13 14  1  6
 12 15  1  6
 12 16  1  0
M  CHG  1  16  -1
M  END
