ucsf013-ucsf348
     RDKit          3D

 13 14  0  0  0  0  0  0  0  0999 V2000
   -4.4490   15.1940    2.0900 N   0  0  0  0  0  0  0  0  0  0  0  0
   -5.2110   14.3040    1.2490 C   0  0  1  0  0  0  0  0  0  0  0  0
   -6.5700   14.8220    1.3370 N   0  0  0  0  0  0  0  0  0  0  0  0
   -4.6600   14.1580   -0.1590 C   0  0  1  0  0  0  0  0  0  0  0  0
   -7.0680   14.7840    2.7010 N   0  0  0  0  0  0  0  0  0  0  0  0
   -5.6890   14.1880   -1.2930 C   0  0  1  0  0  0  0  0  0  0  0  0
   -7.5490   14.1960    0.4450 C   0  0  0  0  0  0  0  0  0  0  0  0
   -3.4530   15.0320   -0.4870 C   0  0  0  0  0  0  0  0  0  0  0  0
   -7.1340   14.1530   -0.9680 N   0  0  0  0  0  0  0  0  0  0  0  0
   -5.3720   15.2700   -2.3200 C   0  0  0  0  0  0  0  0  0  0  0  0
   -2.9360   14.8040   -1.8980 C   0  0  0  0  0  0  0  0  0  0  0  0
   -7.7600   15.2910   -1.6360 O   0  0  0  0  0  0  0  0  0  0  0  0
   -3.9950   15.1130   -2.9480 C   0  0  0  0  0  0  0  0  0  0  0  0
  2  1  1  1
  2  3  1  0
  2  4  1  0
  3  5  1  0
  4  6  1  0
  3  7  1  0
  4  8  1  6
  6  9  1  0
  7  9  1  0
  6 10  1  1
  8 11  1  0
  9 12  1  0
 10 13  1  0
 11 13  1  0
M  END
