ucsf190-ucsf422
     RDKit          3D

 16 17  0  0  0  0  0  0  0  0999 V2000
    0.7540   10.2820   -2.3790 O   0  0  0  0  0  0  0  0  0  0  0  0
    0.4560   11.5330   -2.6650 C   0  0  1  0  0  0  0  0  0  0  0  0
    0.5260   12.1710   -1.4110 O   0  0  0  0  0  0  0  0  0  0  0  0
    1.4760   12.2100   -3.6320 C   0  0  0  0  0  0  0  0  0  0  0  0
    1.0850   13.6990   -3.7510 C   0  0  2  0  0  0  0  0  0  0  0  0
   -0.3620   13.9390   -4.2340 C   0  0  1  0  0  0  0  0  0  0  0  0
    1.9780   14.4930   -4.5810 N   0  0  0  0  0  0  0  0  0  0  0  0
   -0.8110   15.4260   -4.1930 C   0  0  1  0  0  0  0  0  0  0  0  0
    1.7510   15.9160   -4.3490 N   0  0  0  0  0  0  0  0  0  0  0  0
   -0.8370   13.2150   -5.4730 C   0  0  0  0  0  0  0  0  0  0  0  0
    0.3730   16.4380   -4.3130 C   0  0  1  0  0  0  0  0  0  0  0  0
   -2.0480   15.8140   -5.0690 C   0  0  0  0  0  0  0  0  0  0  0  0
   -2.3260   13.2870   -5.6350 C   0  0  0  0  0  0  0  0  0  0  0  0
    0.2050   17.3230   -5.3970 O   0  0  0  0  0  0  0  0  0  0  0  0
   -2.8430   14.7010   -5.7810 C   0  0  1  0  0  0  0  0  0  0  0  0
   -4.7230   14.6990   -5.2990 Br  0  0  0  0  0  0  0  0  0  0  0  0
  2  1  1  1
  2  3  1  0
  2  4  1  0
  5  4  1  6
  5  6  1  0
  5  7  1  0
  6  8  1  0
  7  9  1  0
  6 10  1  6
  8 11  1  0
  9 11  1  0
  8 12  1  6
 10 13  1  0
 11 14  1  6
 12 15  1  0
 13 15  1  0
 15 16  1  1
M  CHG  1   1  -1
M  END
