ucsf411-ucsf303
     RDKit          3D

 30 33  0  0  0  0  0  0  0  0999 V2000
    0.6760   10.7850   -2.4300 O   0  0  0  0  0  0  0  0  0  0  0  0
    0.4180   12.0870   -2.6210 C   0  0  1  0  0  0  0  0  0  0  0  0
    0.4890   12.5590   -1.2830 O   0  0  0  0  0  0  0  0  0  0  0  0
    1.5470   12.8220   -3.4600 C   0  0  0  0  0  0  0  0  0  0  0  0
    1.1250   13.7580   -4.5120 O   0  0  0  0  0  0  0  0  0  0  0  0
   -0.1370   14.4380   -4.3450 C   0  0  1  0  0  0  0  0  0  0  0  0
   -0.1200   15.8180   -5.0520 C   0  0  1  0  0  0  0  0  0  0  0  0
   -1.2530   13.6750   -5.0180 C   0  0  0  0  0  0  0  0  0  0  0  0
   -1.5250   16.4930   -5.2390 C   0  0  1  0  0  0  0  0  0  0  0  0
   -2.5850   14.2520   -4.5690 C   0  0  1  0  0  0  0  0  0  0  0  0
    0.8580   16.7990   -4.4320 C   0  0  0  0  0  0  0  0  0  0  0  0
   -2.7350   13.8510   -3.2220 O   0  0  0  0  0  0  0  0  0  0  0  0
   -2.6840   15.7920   -4.5400 C   0  0  0  0  0  0  0  0  0  0  0  0
   -1.4750   18.0240   -5.1420 C   0  0  0  0  0  0  0  0  0  0  0  0
    1.0240   18.0170   -5.3380 C   0  0  0  0  0  0  0  0  0  0  0  0
   -4.0370   14.2250   -2.3830 S   0  0  1  0  0  0  0  0  0  0  0  0
   -0.2880   18.5020   -5.9540 C   0  0  0  0  0  0  0  0  0  0  0  0
   -4.5640   15.6950   -2.7020 O   0  0  0  0  0  0  0  0  0  0  0  0
   -5.2500   13.1390   -2.4830 N   0  0  0  0  0  0  0  0  0  0  0  0
   -3.4920   14.3550   -0.7130 C   0  0  0  0  0  0  0  0  0  0  0  0
   -5.0470   11.9400   -1.7450 C   0  0  1  0  0  0  0  0  0  0  0  0
   -1.9640   14.4640   -0.5110 C   0  0  0  0  0  0  0  0  0  0  0  0
   -4.3670   15.4210   -0.0580 C   0  0  0  0  0  0  0  0  0  0  0  0
   -6.0150   10.9460   -2.1470 N   0  0  0  0  0  0  0  0  0  0  0  0
   -3.4170   11.3560   -2.2540 S   0  0  0  0  0  0  0  0  0  0  0  0
   -1.6310   14.7160    0.9520 C   0  0  0  0  0  0  0  0  0  0  0  0
   -3.9720   15.6480    1.3630 C   0  0  0  0  0  0  0  0  0  0  0  0
   -3.9960    9.6640   -2.3550 C   0  0  0  0  0  0  0  0  0  0  0  0
   -5.4100    9.6240   -1.9760 N   0  0  0  0  0  0  0  0  0  0  0  0
   -2.9230   14.6220    1.7490 C   0  0  0  0  0  0  0  0  0  0  0  0
  2  1  1  1
  2  3  1  0
  2  4  1  0
  4  5  1  0
  6  5  1  6
  6  7  1  0
  6  8  1  0
  7  9  1  0
  8 10  1  0
  7 11  1  1
 10 12  1  1
  9 13  1  1
 10 13  1  0
  9 14  1  0
 11 15  1  0
 16 12  1  0
 14 17  1  0
 15 17  1  0
 16 18  1  6
 16 19  1  0
 16 20  1  0
 21 19  1  6
 20 22  1  0
 20 23  1  0
 21 24  1  0
 21 25  1  0
 22 26  1  0
 23 27  1  0
 25 28  1  0
 24 29  1  0
 28 29  1  0
 26 30  1  0
 27 30  1  0
M  CHG  1   1  -1
M  END
