ucsf333-ucsf115
     RDKit          3D

 26 29  0  0  0  0  0  0  0  0999 V2000
   -6.2350   14.6270   -2.3310 Cl  0  0  0  0  0  0  0  0  0  0  0  0
   -4.6780   14.1920   -1.5500 C   0  0  1  0  0  0  0  0  0  0  0  0
   -3.7080   13.4810   -2.5170 C   0  0  0  0  0  0  0  0  0  0  0  0
   -4.0340   15.4060   -0.8910 C   0  0  0  0  0  0  0  0  0  0  0  0
   -2.5410   12.8680   -1.7100 C   0  0  1  0  0  0  0  0  0  0  0  0
   -2.5480   15.1440   -0.6290 C   0  0  2  0  0  0  0  0  0  0  0  0
   -1.2870   12.7140   -2.4810 N   0  0  0  0  0  0  0  0  0  0  0  0
   -2.3060   13.6530   -0.4130 C   0  0  2  0  0  0  0  0  0  0  0  0
   -2.0370   15.8670    0.5500 N   0  0  0  0  0  0  0  0  0  0  0  0
   -1.6210   15.6080   -1.7900 C   0  0  1  0  0  0  0  0  0  0  0  0
   -1.9250   16.2270   -3.0720 N   0  0  0  0  0  0  0  0  0  0  0  0
   -0.0680   13.0320   -1.6960 C   0  0  2  0  0  0  0  0  0  0  0  0
   -0.5590   13.3920   -0.0020 S   0  0  0  0  0  0  0  0  0  0  0  0
   -0.4370   16.1730   -1.1570 N   0  0  0  0  0  0  0  0  0  0  0  0
   -0.6210   16.0520    0.2940 C   0  0  0  0  0  0  0  0  0  0  0  0
    0.8760   14.1160   -2.2720 C   0  0  0  0  0  0  0  0  0  0  0  0
   -1.5240   15.6100   -4.3560 C   0  0  0  0  0  0  0  0  0  0  0  0
    2.2120   13.6940   -2.9330 C   0  0  0  0  0  0  0  0  0  0  0  0
   -1.2760   14.0730   -4.2920 C   0  0  1  0  0  0  0  0  0  0  0  0
    2.3290   12.2320   -3.4130 C   0  0  1  0  0  0  0  0  0  0  0  0
   -2.2750   13.3210   -5.0020 O   0  0  0  0  0  0  0  0  0  0  0  0
    0.0230   13.5570   -4.8790 C   0  0  0  0  0  0  0  0  0  0  0  0
    1.3970   11.4830   -2.8850 O   0  0  0  0  0  0  0  0  0  0  0  0
    2.0420   12.1400   -4.7890 O   0  0  0  0  0  0  0  0  0  0  0  0
   -0.2410   12.0720   -4.9500 C   0  0  0  0  0  0  0  0  0  0  0  0
   -1.7350   11.9990   -5.1820 C   0  0  0  0  0  0  0  0  0  0  0  0
  2  1  1  6
  2  3  1  0
  2  4  1  0
  5  3  1  6
  6  4  1  6
  5  7  1  0
  5  8  1  0
  6  8  1  0
  6  9  1  0
  6 10  1  0
 10 11  1  1
  7 12  1  0
  8 13  1  6
 12 13  1  0
 10 14  1  0
  9 15  1  0
 14 15  1  0
 12 16  1  6
 11 17  1  0
 16 18  1  0
 19 17  1  6
 18 20  1  0
 19 21  1  0
 19 22  1  0
 20 23  1  1
 20 24  1  0
 22 25  1  0
 21 26  1  0
 25 26  1  0
M  CHG  1  23  -1
M  END
