ucsf013-ucsf303
     RDKit          3D

 26 30  0  0  0  0  0  0  0  0999 V2000
   -4.6630   15.8950    1.9560 N   0  0  0  0  0  0  0  0  0  0  0  0
   -5.4280   14.8500    1.3390 C   0  0  1  0  0  0  0  0  0  0  0  0
   -6.8170   14.9220    1.7670 N   0  0  0  0  0  0  0  0  0  0  0  0
   -5.1010   14.4120   -0.1310 C   0  0  1  0  0  0  0  0  0  0  0  0
   -6.4450   14.4190   -0.9620 C   0  0  2  0  0  0  0  0  0  0  0  0
   -7.9130   14.5910    0.8770 C   0  0  0  0  0  0  0  0  0  0  0  0
   -3.9680   15.0640   -1.0390 C   0  0  2  0  0  0  0  0  0  0  0  0
   -4.3460   13.1430    0.2860 C   0  0  2  0  0  0  0  0  0  0  0  0
   -7.5020   13.7610   -0.2250 N   0  0  0  0  0  0  0  0  0  0  0  0
   -6.3400   13.9780   -2.4540 C   0  0  0  0  0  0  0  0  0  0  0  0
   -4.5310   15.6820   -2.2580 C   0  0  0  0  0  0  0  0  0  0  0  0
   -3.7110   13.5070    1.6220 C   0  0  0  0  0  0  0  0  0  0  0  0
   -2.7200   14.1750   -1.2280 C   0  0  1  0  0  0  0  0  0  0  0  0
   -3.2410   12.8840   -0.7160 C   0  0  0  0  0  0  0  0  0  0  0  0
   -5.1670   14.6250   -3.1660 C   0  0  0  0  0  0  0  0  0  0  0  0
   -2.5030   13.7510   -2.9700 S   0  0  2  0  0  0  0  0  0  0  0  0
   -1.3730   14.4250   -0.5150 C   0  0  0  0  0  0  0  0  0  0  0  0
   -2.7220   14.6780    1.6210 C   0  0  0  0  0  0  0  0  0  0  0  0
   -2.6820   15.1510   -3.7460 O   0  0  0  0  0  0  0  0  0  0  0  0
   -3.8140   12.7730   -3.4260 N   0  0  0  0  0  0  0  0  0  0  0  0
   -1.3480   14.5280    1.0090 C   0  0  0  0  0  0  0  0  0  0  0  0
   -4.2220   11.7130   -2.5160 C   0  0  1  0  0  0  0  0  0  0  0  0
   -5.4310   11.0140   -2.9500 N   0  0  0  0  0  0  0  0  0  0  0  0
   -2.9090   10.4890   -2.5110 S   0  0  0  0  0  0  0  0  0  0  0  0
   -4.0840    9.1390   -2.4170 C   0  0  0  0  0  0  0  0  0  0  0  0
   -5.4280    9.7040   -2.2500 N   0  0  0  0  0  0  0  0  0  0  0  0
  2  1  1  6
  2  3  1  0
  4  2  1  1
  4  5  1  0
  3  6  1  0
  4  7  1  0
  4  8  1  0
  5  9  1  0
  6  9  1  0
  5 10  1  6
  7 11  1  6
  8 12  1  1
  7 13  1  0
  8 14  1  0
 13 14  1  0
 10 15  1  0
 11 15  1  0
 13 16  1  0
 13 17  1  1
 12 18  1  0
 16 19  1  6
 16 20  1  0
 17 21  1  0
 18 21  1  0
 22 20  1  6
 22 23  1  0
 22 24  1  0
 24 25  1  0
 23 26  1  0
 25 26  1  0
M  END
