ucsf411-ucsf017
     RDKit          3D

 29 33  0  0  0  0  0  0  0  0999 V2000
    1.1060   11.2800   -2.9310 O   0  0  0  0  0  0  0  0  0  0  0  0
    1.3830   12.5640   -3.1520 C   0  0  1  0  0  0  0  0  0  0  0  0
    2.4630   12.7460   -2.2550 O   0  0  0  0  0  0  0  0  0  0  0  0
    1.8560   12.8920   -4.6060 C   0  0  0  0  0  0  0  0  0  0  0  0
    1.1220   13.9890   -5.2120 O   0  0  0  0  0  0  0  0  0  0  0  0
    0.1020   14.4970   -4.3570 C   0  0  1  0  0  0  0  0  0  0  0  0
   -0.1300   16.0370   -4.4190 C   0  0  2  0  0  0  0  0  0  0  0  0
   -1.2200   13.6520   -4.3770 C   0  0  1  0  0  0  0  0  0  0  0  0
   -1.3100   16.5230   -5.2350 C   0  0  1  0  0  0  0  0  0  0  0  0
   -2.2610   14.1510   -5.3990 C   0  0  0  0  0  0  0  0  0  0  0  0
    1.0940   16.7760   -4.8920 C   0  0  0  0  0  0  0  0  0  0  0  0
   -0.9450   12.1250   -4.5300 C   0  0  0  0  0  0  0  0  0  0  0  0
   -1.8340   13.8330   -2.9900 C   0  0  0  0  0  0  0  0  0  0  0  0
   -2.5710   15.6440   -5.2550 C   0  0  0  0  0  0  0  0  0  0  0  0
   -1.5450   18.0280   -5.2860 C   0  0  0  0  0  0  0  0  0  0  0  0
    0.9130   18.2750   -5.1120 C   0  0  0  0  0  0  0  0  0  0  0  0
   -0.6030   11.4820   -3.1870 C   0  0  0  0  0  0  0  0  0  0  0  0
   -0.8170   13.6190   -1.9910 N   0  0  0  0  0  0  0  0  0  0  0  0
   -0.3210   18.6450   -5.9230 C   0  0  0  0  0  0  0  0  0  0  0  0
    0.0690   12.5070   -2.2550 C   0  0  0  0  0  0  0  0  0  0  0  0
   -1.2400   13.7470   -0.6540 C   0  0  1  0  0  0  0  0  0  0  0  0
   -0.2250   14.5090    0.0500 N   0  0  0  0  0  0  0  0  0  0  0  0
   -2.6230   14.1970   -0.2310 C   0  0  1  0  0  0  0  0  0  0  0  0
   -0.2790   14.1840    1.4410 C   0  0  0  0  0  0  0  0  0  0  0  0
   -2.4290   15.0480    0.9710 C   0  0  2  0  0  0  0  0  0  0  0  0
   -3.6590   14.9680   -1.0040 C   0  0  0  0  0  0  0  0  0  0  0  0
   -1.6580   14.3220    1.8920 N   0  0  0  0  0  0  0  0  0  0  0  0
   -3.7830   15.3880    1.4000 N   0  0  0  0  0  0  0  0  0  0  0  0
   -4.5880   15.3730    0.1480 C   0  0  0  0  0  0  0  0  0  0  0  0
  2  1  1  6
  2  3  1  0
  2  4  1  0
  4  5  1  0
  6  5  1  6
  6  7  1  0
  6  8  1  0
  7  9  1  0
  8 10  1  6
  7 11  1  6
  8 12  1  0
  8 13  1  0
  9 14  1  1
 10 14  1  0
  9 15  1  0
 11 16  1  0
 12 17  1  0
 13 18  1  0
 15 19  1  0
 16 19  1  0
 17 20  1  0
 18 20  1  0
 21 18  1  6
 21 22  1  0
 21 23  1  0
 22 24  1  0
 23 25  1  0
 23 26  1  6
 24 27  1  0
 25 27  1  1
 25 28  1  0
 26 29  1  0
 28 29  1  0
M  CHG  1   1  -1
M  END
