ucsf337-ucsf110
     RDKit          3D

 19 21  0  0  0  0  0  0  0  0999 V2000
   -7.3690   14.3620    1.0510 C   0  0  0  0  0  0  0  0  0  0  0  0
   -6.0170   13.8520    0.5270 C   0  0  1  0  0  0  0  0  0  0  0  0
   -6.0960   13.7770   -0.9470 N   0  0  0  0  0  0  0  0  0  0  0  0
   -4.8490   14.7230    1.0880 C   0  0  1  0  0  0  0  0  0  0  0  0
   -3.7130   13.9150    1.3860 O   0  0  0  0  0  0  0  0  0  0  0  0
   -4.3820   15.8090    0.1510 C   0  0  0  0  0  0  0  0  0  0  0  0
   -6.2780   15.0670   -1.5370 C   0  0  2  0  0  0  0  0  0  0  0  0
   -6.2760   14.8990   -2.9760 N   0  0  0  0  0  0  0  0  0  0  0  0
   -5.2430   16.0740   -1.0740 C   0  0  0  0  0  0  0  0  0  0  0  0
   -2.4680   14.1480    0.6790 C   0  0  1  0  0  0  0  0  0  0  0  0
   -2.5370   15.1210   -0.5030 C   0  0  2  0  0  0  0  0  0  0  0  0
   -1.4980   14.7370    1.5600 N   0  0  0  0  0  0  0  0  0  0  0  0
   -3.0310   14.4610   -1.7840 C   0  0  0  0  0  0  0  0  0  0  0  0
   -1.1130   15.5720   -0.8610 C   0  0  2  0  0  0  0  0  0  0  0  0
   -0.1760   14.4970    1.0350 C   0  0  0  0  0  0  0  0  0  0  0  0
   -1.1180   15.7100   -2.3220 N   0  0  0  0  0  0  0  0  0  0  0  0
   -2.4120   15.3060   -2.8800 C   0  0  0  0  0  0  0  0  0  0  0  0
   -0.1620   14.5720   -0.4130 N   0  0  0  0  0  0  0  0  0  0  0  0
    0.0380   15.2530   -3.0710 C   0  0  0  0  0  0  0  0  0  0  0  0
  2  1  1  6
  2  3  1  0
  2  4  1  0
  4  5  1  6
  4  6  1  0
  3  7  1  0
  7  8  1  6
  6  9  1  0
  7  9  1  0
 10  5  1  1
 10 11  1  0
 10 12  1  0
 11 13  1  6
 11 14  1  0
 12 15  1  0
 14 16  1  0
 13 17  1  0
 16 17  1  0
 14 18  1  6
 15 18  1  0
 16 19  1  0
M  END
