ucsf012-ucsf333
     RDKit          3D

 26 29  0  0  0  0  0  0  0  0999 V2000
   -3.7870   14.0770   -4.2130 C   0  0  0  0  0  0  0  0  0  0  0  0
   -2.8890   14.8830   -3.2180 C   0  0  1  0  0  0  0  0  0  0  0  0
   -3.7190   15.0260   -1.8280 C   0  0  2  0  0  0  0  0  0  0  0  0
   -1.3620   14.3650   -3.1490 C   0  0  2  0  0  0  0  0  0  0  0  0
   -2.6300   16.2210   -3.9330 C   0  0  0  0  0  0  0  0  0  0  0  0
   -5.2140   15.3730   -1.8400 C   0  0  0  0  0  0  0  0  0  0  0  0
   -3.0850   15.4660   -0.4640 C   0  0  0  0  0  0  0  0  0  0  0  0
   -0.9250   12.8990   -3.3620 C   0  0  2  0  0  0  0  0  0  0  0  0
   -1.6000   15.9700   -4.9090 N   0  0  0  0  0  0  0  0  0  0  0  0
   -1.1380   14.2720   -1.3480 S   0  0  0  0  0  0  0  0  0  0  0  0
   -0.5710   15.3280   -4.0900 C   0  0  0  0  0  0  0  0  0  0  0  0
    0.0790   15.4390   -0.9280 C   0  0  0  0  0  0  0  0  0  0  0  0
   -2.9190   14.5150    0.7360 C   0  0  2  0  0  0  0  0  0  0  0  0
    0.4670   12.3470   -2.8990 C   0  0  1  0  0  0  0  0  0  0  0  0
   -1.3090   12.2760   -4.5870 O   0  0  0  0  0  0  0  0  0  0  0  0
   -3.3460   15.2700    1.8900 N   0  0  0  0  0  0  0  0  0  0  0  0
   -1.6300   13.9360    1.0380 N   0  0  0  0  0  0  0  0  0  0  0  0
    0.4850   14.8430    0.3020 N   0  0  0  0  0  0  0  0  0  0  0  0
   -0.8460   10.9590   -4.3700 C   0  0  0  0  0  0  0  0  0  0  0  0
    0.5310   11.1580   -3.7810 C   0  0  1  0  0  0  0  0  0  0  0  0
    1.8940   12.9130   -3.0780 C   0  0  2  0  0  0  0  0  0  0  0  0
   -0.5230   14.8180    1.3120 C   0  0  0  0  0  0  0  0  0  0  0  0
    2.5790   12.9650   -1.9770 O   0  0  0  0  0  0  0  0  0  0  0  0
    1.4350   11.5140   -4.8310 O   0  0  0  0  0  0  0  0  0  0  0  0
    1.8340   14.3390   -3.6440 C   0  0  0  0  0  0  0  0  0  0  0  0
    2.5520   12.0750   -4.1650 C   0  0  0  0  0  0  0  0  0  0  0  0
  2  1  1  6
  2  3  1  0
  2  4  1  0
  2  5  1  0
  3  6  1  6
  3  7  1  0
  4  8  1  0
  5  9  1  0
  4 10  1  0
  4 11  1  6
  9 11  1  0
 10 12  1  0
  7 13  1  0
  8 14  1  0
  8 15  1  6
 13 16  1  1
 13 17  1  0
 12 18  1  0
 15 19  1  0
 14 20  1  0
 20 19  1  6
 14 21  1  6
 17 22  1  0
 18 22  1  0
 21 23  1  0
 20 24  1  0
 21 25  1  6
 21 26  1  0
 24 26  1  0
M  CHG  1  23  -1
M  END
