ucsf336-ucsf357
     RDKit          3D

 24 25  0  0  0  0  0  0  0  0999 V2000
    2.3090   12.8650   -4.3850 O   0  0  0  0  0  0  0  0  0  0  0  0
    1.4280   12.6550   -3.4160 C   0  0  1  0  0  0  0  0  0  0  0  0
    0.9190   13.9500   -3.0930 O   0  0  0  0  0  0  0  0  0  0  0  0
    0.2280   11.8040   -4.0490 C   0  0  2  0  0  0  0  0  0  0  0  0
    0.1080   10.5520   -3.3620 O   0  0  0  0  0  0  0  0  0  0  0  0
    0.1460   11.5620   -5.5010 N   0  0  0  0  0  0  0  0  0  0  0  0
    1.2590   14.4640   -1.8090 C   0  0  0  0  0  0  0  0  0  0  0  0
    0.1770   15.3230   -1.4190 O   0  0  0  0  0  0  0  0  0  0  0  0
   -0.5440   10.3310   -5.9350 C   0  0  0  0  0  0  0  0  0  0  0  0
   -0.5490   10.2320   -7.4640 C   0  0  0  0  0  0  0  0  0  0  0  0
   -1.9910   10.2950   -5.4140 C   0  0  0  0  0  0  0  0  0  0  0  0
   -0.9960   14.5230   -1.3740 C   0  0  2  0  0  0  0  0  0  0  0  0
   -1.2490    8.9760   -8.0000 C   0  0  0  0  0  0  0  0  0  0  0  0
   -2.9910    9.4880   -6.2400 C   0  0  0  0  0  0  0  0  0  0  0  0
   -1.9280   14.6130   -2.6130 C   0  0  2  0  0  0  0  0  0  0  0  0
   -1.6210   14.6660    0.0330 C   0  0  0  0  0  0  0  0  0  0  0  0
   -1.3280   15.3160   -3.6110 F   0  0  0  0  0  0  0  0  0  0  0  0
   -2.3370    8.4160   -7.0850 C   0  0  0  0  0  0  0  0  0  0  0  0
   -3.3450   15.1330   -2.4540 C   0  0  0  0  0  0  0  0  0  0  0  0
   -3.1380   14.5730    0.1200 C   0  0  0  0  0  0  0  0  0  0  0  0
   -3.9480   15.2350   -1.0280 C   0  0  2  0  0  0  0  0  0  0  0  0
   -5.3950   14.6850   -1.1200 C   0  0  2  0  0  0  0  0  0  0  0  0
   -5.9790   15.1260   -2.2050 O   0  0  0  0  0  0  0  0  0  0  0  0
   -6.2020   15.2230   -0.1000 O   0  0  0  0  0  0  0  0  0  0  0  0
  2  1  1  6
  2  3  1  0
  2  4  1  0
  4  5  1  1
  4  6  1  0
  3  7  1  0
  7  8  1  0
  6  9  1  0
  9 10  1  0
  9 11  1  0
 12  8  1  6
 10 13  1  0
 11 14  1  0
 12 15  1  0
 12 16  1  0
 15 17  1  6
 13 18  1  0
 14 18  1  0
 15 19  1  0
 16 20  1  0
 21 19  1  6
 20 21  1  0
 21 22  1  0
 22 23  1  6
 22 24  1  0
M  CHG  2   1  -1  23  -1
M  END
