ucsf006-ucsf337
     RDKit          3D

 24 26  0  0  0  0  0  0  0  0999 V2000
   -2.2140   14.9020   -3.3030 C   0  0  0  0  0  0  0  0  0  0  0  0
   -1.0680   14.3790   -2.5860 N   0  0  0  0  0  0  0  0  0  0  0  0
    0.2070   14.9830   -3.0160 C   0  0  0  0  0  0  0  0  0  0  0  0
   -1.2010   13.9420   -1.1820 C   0  0  2  0  0  0  0  0  0  0  0  0
    0.6880   14.4280   -4.3770 C   0  0  0  0  0  0  0  0  0  0  0  0
   -2.5320   14.4800   -0.6590 C   0  0  2  0  0  0  0  0  0  0  0  0
   -0.0580   14.4100   -0.3970 N   0  0  0  0  0  0  0  0  0  0  0  0
    0.5150   12.8940   -4.4160 C   0  0  1  0  0  0  0  0  0  0  0  0
   -2.1200   15.6520    0.1920 C   0  0  2  0  0  0  0  0  0  0  0  0
   -0.2350   14.5470    1.0470 C   0  0  0  0  0  0  0  0  0  0  0  0
   -3.6130   13.5590    0.0660 C   0  0  0  0  0  0  0  0  0  0  0  0
    0.2710   12.4790   -5.7450 O   0  0  0  0  0  0  0  0  0  0  0  0
    1.6650   12.3220   -4.1200 O   0  0  0  0  0  0  0  0  0  0  0  0
   -1.4770   15.2010    1.3780 N   0  0  0  0  0  0  0  0  0  0  0  0
   -3.3160   16.3230    0.4890 N   0  0  0  0  0  0  0  0  0  0  0  0
   -4.7880   14.4650    0.4910 C   0  0  1  0  0  0  0  0  0  0  0  0
   -4.4590   15.4540    2.1660 Br  0  0  0  0  0  0  0  0  0  0  0  0
   -4.1920   15.4880   -0.3230 C   0  0  1  0  0  0  0  0  0  0  0  0
   -6.3090   14.3050    0.0980 C   0  0  2  0  0  0  0  0  0  0  0  0
   -7.1890   13.3740    0.9400 C   0  0  0  0  0  0  0  0  0  0  0  0
   -5.0000   15.9220   -1.5180 C   0  0  0  0  0  0  0  0  0  0  0  0
   -6.5710   14.0560   -1.3280 N   0  0  0  0  0  0  0  0  0  0  0  0
   -5.5840   14.6760   -2.1590 C   0  0  1  0  0  0  0  0  0  0  0  0
   -6.2550   14.8690   -3.4310 N   0  0  0  0  0  0  0  0  0  0  0  0
  1  2  1  0
  2  3  1  0
  4  2  1  6
  3  5  1  0
  4  6  1  0
  4  7  1  0
  5  8  1  0
  6  9  1  0
  7 10  1  0
  6 11  1  1
  8 12  1  6
  8 13  1  0
  9 14  1  1
 10 14  1  0
  9 15  1  0
 11 16  1  0
 16 17  1  1
 15 18  1  0
 16 18  1  0
 16 19  1  0
 19 20  1  1
 18 21  1  1
 19 22  1  0
 21 23  1  0
 22 23  1  0
 23 24  1  6
M  CHG  1  13  -1
M  END
