ucsf016-ucsf123
     RDKit          3D

 24 27  0  0  0  0  0  0  0  0999 V2000
   -1.6480   18.6380   -4.7440 N   0  0  0  0  0  0  0  0  0  0  0  0
   -1.4970   17.0690   -5.1860 S   0  0  0  0  0  0  0  0  0  0  0  0
   -0.0760   16.8760   -5.9060 O   0  0  0  0  0  0  0  0  0  0  0  0
   -2.5490   16.8640   -6.4030 O   0  0  0  0  0  0  0  0  0  0  0  0
   -1.7080   15.6530   -4.0790 C   0  0  1  0  0  0  0  0  0  0  0  0
   -2.1970   14.5060   -4.9250 C   0  0  0  0  0  0  0  0  0  0  0  0
   -0.8300   15.0800   -2.9340 N   0  0  0  0  0  0  0  0  0  0  0  0
   -3.3820   13.6320   -4.5450 C   0  0  0  0  0  0  0  0  0  0  0  0
   -3.4830   14.5450   -5.7340 C   0  0  0  0  0  0  0  0  0  0  0  0
   -0.9830   13.8820   -5.5660 C   0  0  0  0  0  0  0  0  0  0  0  0
    0.1300   13.9250   -3.2450 C   0  0  1  0  0  0  0  0  0  0  0  0
   -1.0270   15.5050   -1.5170 C   0  0  2  0  0  0  0  0  0  0  0  0
    0.5340   12.8510   -2.1090 C   0  0  2  0  0  0  0  0  0  0  0  0
   -0.2460   13.1100   -4.5130 C   0  0  0  0  0  0  0  0  0  0  0  0
   -0.1710   14.5930   -0.7050 N   0  0  0  0  0  0  0  0  0  0  0  0
   -2.3980   15.5460   -0.8000 C   0  0  2  0  0  0  0  0  0  0  0  0
    1.9310   12.6840   -2.0760 O   0  0  0  0  0  0  0  0  0  0  0  0
    0.1560   11.5880   -2.3240 O   0  0  0  0  0  0  0  0  0  0  0  0
   -0.0270   14.8140    0.7220 C   0  0  0  0  0  0  0  0  0  0  0  0
   -2.3870   14.7970    0.5040 C   0  0  1  0  0  0  0  0  0  0  0  0
   -3.7690   15.1950   -1.3160 C   0  0  0  0  0  0  0  0  0  0  0  0
   -1.2890   15.1300    1.3510 N   0  0  0  0  0  0  0  0  0  0  0  0
   -3.6350   15.2620    1.1050 N   0  0  0  0  0  0  0  0  0  0  0  0
   -4.5910   15.2900   -0.0210 C   0  0  0  0  0  0  0  0  0  0  0  0
  1  2  1  0
  2  3  1  0
  2  4  1  0
  5  2  1  6
  5  6  1  0
  5  7  1  0
  6  8  1  0
  6  9  1  0
  8  9  1  0
  6 10  1  0
  7 11  1  0
 12  7  1  6
 11 13  1  0
 10 14  1  0
 11 14  1  6
 12 15  1  0
 12 16  1  0
 13 17  1  6
 13 18  1  0
 15 19  1  0
 16 20  1  0
 16 21  1  6
 19 22  1  0
 20 22  1  1
 20 23  1  0
 21 24  1  0
 23 24  1  0
M  CHG  1  18  -1
M  END
