ucsf516-ucsf367
     RDKit          3D

 29 33  0  0  0  0  0  0  0  0999 V2000
    1.8090   11.8510   -3.6560 O   0  0  0  0  0  0  0  0  0  0  0  0
    1.5870   13.0990   -3.9970 C   0  0  1  0  0  0  0  0  0  0  0  0
    2.9030   13.4980   -4.2620 O   0  0  0  0  0  0  0  0  0  0  0  0
    0.6180   13.3120   -5.2560 C   0  0  1  0  0  0  0  0  0  0  0  0
    0.5140   12.2140   -6.2180 O   0  0  0  0  0  0  0  0  0  0  0  0
   -0.8000   13.7130   -4.7360 C   0  0  1  0  0  0  0  0  0  0  0  0
   -1.0810   13.4710   -3.2230 C   0  0  1  0  0  0  0  0  0  0  0  0
   -1.1930   15.1880   -4.8790 C   0  0  0  0  0  0  0  0  0  0  0  0
   -0.3200   11.0840   -5.8950 C   0  0  0  0  0  0  0  0  0  0  0  0
   -0.2850   12.3610   -2.5420 C   0  0  0  0  0  0  0  0  0  0  0  0
   -0.9390   14.7590   -2.5830 N   0  0  0  0  0  0  0  0  0  0  0  0
   -1.7090   15.6010   -3.5000 C   0  0  0  0  0  0  0  0  0  0  0  0
   -0.2380   10.0700   -7.0380 C   0  0  0  0  0  0  0  0  0  0  0  0
   -1.7890   11.4610   -5.7050 C   0  0  0  0  0  0  0  0  0  0  0  0
    0.8810   11.7150   -3.3370 C   0  0  0  0  0  0  0  0  0  0  0  0
   -0.9710   10.9710   -2.5310 C   0  0  0  0  0  0  0  0  0  0  0  0
   -1.3410   14.6660   -1.1840 C   0  0  1  0  0  0  0  0  0  0  0  0
   -1.0180    8.8030   -6.7010 C   0  0  0  0  0  0  0  0  0  0  0  0
   -2.6490   10.2320   -5.3850 C   0  0  0  0  0  0  0  0  0  0  0  0
    0.3020   10.3290   -3.0570 C   0  0  0  0  0  0  0  0  0  0  0  0
   -0.2360   15.0330   -0.3130 N   0  0  0  0  0  0  0  0  0  0  0  0
   -2.5670   15.4570   -0.7340 C   0  0  2  0  0  0  0  0  0  0  0  0
   -2.4860    9.1170   -6.4150 C   0  0  0  0  0  0  0  0  0  0  0  0
   -0.4580   14.5950    1.0460 C   0  0  0  0  0  0  0  0  0  0  0  0
   -2.7720   15.0510    0.6850 C   0  0  1  0  0  0  0  0  0  0  0  0
   -3.9550   15.1260   -1.2600 C   0  0  0  0  0  0  0  0  0  0  0  0
   -1.6410   15.2970    1.5160 N   0  0  0  0  0  0  0  0  0  0  0  0
   -3.9400   15.8150    1.0450 N   0  0  0  0  0  0  0  0  0  0  0  0
   -4.8420   15.5960   -0.1010 C   0  0  0  0  0  0  0  0  0  0  0  0
  2  1  1  6
  2  3  1  0
  2  4  1  0
  4  5  1  1
  4  6  1  0
  6  7  1  0
  6  8  1  1
  5  9  1  0
  7 10  1  1
  7 11  1  0
  8 12  1  0
 11 12  1  0
  9 13  1  0
  9 14  1  0
 10 15  1  0
 10 16  1  0
 17 11  1  6
 13 18  1  0
 14 19  1  0
 15 20  1  0
 16 20  1  0
 17 21  1  0
 17 22  1  0
 18 23  1  0
 19 23  1  0
 21 24  1  0
 22 25  1  0
 22 26  1  6
 24 27  1  0
 25 27  1  1
 25 28  1  0
 26 29  1  0
 28 29  1  0
M  CHG  1   1  -1
M  END
