ucsf339-ucsf260
     RDKit          3D

 28 31  0  0  0  0  0  0  0  0999 V2000
    0.9590   15.3320   -1.8540 O   0  0  0  0  0  0  0  0  0  0  0  0
    0.6150   14.4080   -2.7080 C   0  0  1  0  0  0  0  0  0  0  0  0
    0.9750   13.1280   -2.1610 O   0  0  0  0  0  0  0  0  0  0  0  0
   -0.9450   14.3920   -2.9030 C   0  0  1  0  0  0  0  0  0  0  0  0
    0.5250   12.1080   -3.0720 C   0  0  2  0  0  0  0  0  0  0  0  0
   -1.7520   14.5010   -1.5980 C   0  0  0  0  0  0  0  0  0  0  0  0
   -1.4510   15.3270   -4.0250 C   0  0  0  0  0  0  0  0  0  0  0  0
    0.9400   10.9210   -2.6810 O   0  0  0  0  0  0  0  0  0  0  0  0
    1.1950   12.5440   -4.4210 C   0  0  0  0  0  0  0  0  0  0  0  0
   -3.2020   14.9630   -1.8260 C   0  0  1  0  0  0  0  0  0  0  0  0
   -2.9250   15.4140   -4.2240 N   0  0  0  0  0  0  0  0  0  0  0  0
    0.2080   13.1520   -5.4390 C   0  0  0  0  0  0  0  0  0  0  0  0
   -3.6910   14.6530   -3.2340 C   0  0  0  0  0  0  0  0  0  0  0  0
   -4.1000   14.5600   -0.6510 C   0  0  0  0  0  0  0  0  0  0  0  0
   -4.2020   15.7250    0.3250 C   0  0  0  0  0  0  0  0  0  0  0  0
   -5.4850   13.9980   -0.9910 C   0  0  0  0  0  0  0  0  0  0  0  0
   -0.7770   12.2210   -5.9860 N   0  0  0  0  0  0  0  0  0  0  0  0
   -4.6560   15.2200    1.6350 C   0  0  0  0  0  0  0  0  0  0  0  0
   -6.5190   14.3880    0.0610 C   0  0  0  0  0  0  0  0  0  0  0  0
   -1.8520   11.8740   -5.0840 C   0  0  0  0  0  0  0  0  0  0  0  0
   -0.1730   10.9760   -6.4010 C   0  0  1  0  0  0  0  0  0  0  0  0
   -5.9510   14.4120    1.4780 C   0  0  0  0  0  0  0  0  0  0  0  0
   -2.4610   10.6910   -5.7090 N   0  0  0  0  0  0  0  0  0  0  0  0
   -1.2920    9.9480   -6.2010 C   0  0  1  0  0  0  0  0  0  0  0  0
    0.4780   10.9500   -7.7900 C   0  0  0  0  0  0  0  0  0  0  0  0
   -1.6280    9.1410   -7.4480 C   0  0  0  0  0  0  0  0  0  0  0  0
    0.7310    9.5370   -8.3200 C   0  0  0  0  0  0  0  0  0  0  0  0
   -0.3600    8.5130   -8.0050 C   0  0  0  0  0  0  0  0  0  0  0  0
  2  1  1  1
  2  3  1  0
  2  4  1  0
  3  5  1  0
  4  6  1  1
  4  7  1  0
  5  8  1  1
  5  9  1  0
  6 10  1  0
  7 11  1  0
  9 12  1  0
 10 13  1  0
 11 13  1  0
 10 14  1  1
 14 15  1  0
 14 16  1  0
 12 17  1  0
 15 18  1  0
 16 19  1  0
 17 20  1  0
 17 21  1  0
 18 22  1  0
 19 22  1  0
 20 23  1  0
 21 24  1  0
 23 24  1  0
 21 25  1  6
 24 26  1  6
 25 27  1  0
 26 28  1  0
 27 28  1  0
M  CHG  2   1  -1   8  -1
M  END
