ucsf422-ucsf262
     RDKit          3D

 16 18  0  0  0  0  0  0  0  0999 V2000
    0.3260   11.0910   -2.4230 O   0  0  0  0  0  0  0  0  0  0  0  0
    1.0680   12.0230   -3.0030 C   0  0  2  0  0  0  0  0  0  0  0  0
    1.2260   13.1680   -2.1650 O   0  0  0  0  0  0  0  0  0  0  0  0
    0.4110   12.4550   -4.3280 C   0  0  0  0  0  0  0  0  0  0  0  0
    2.3340   13.9200   -2.7080 C   0  0  2  0  0  0  0  0  0  0  0  0
    0.8330   13.8330   -4.8420 C   0  0  2  0  0  0  0  0  0  0  0  0
    2.7940   14.8180   -1.8620 O   0  0  0  0  0  0  0  0  0  0  0  0
    1.8850   14.6030   -4.0560 C   0  0  1  0  0  0  0  0  0  0  0  0
   -0.2910   14.8300   -5.0960 C   0  0  2  0  0  0  0  0  0  0  0  0
    1.3980   16.0300   -3.9820 N   0  0  0  0  0  0  0  0  0  0  0  0
    0.4770   16.1490   -5.1020 C   0  0  2  0  0  0  0  0  0  0  0  0
   -1.5250   14.8990   -4.2120 C   0  0  0  0  0  0  0  0  0  0  0  0
   -0.3630   17.4400   -5.0770 C   0  0  0  0  0  0  0  0  0  0  0  0
   -2.4840   15.9780   -4.7370 C   0  0  2  0  0  0  0  0  0  0  0  0
   -3.8240   15.1790   -5.9280 Br  0  0  0  0  0  0  0  0  0  0  0  0
   -1.8440   17.2120   -5.4050 C   0  0  0  0  0  0  0  0  0  0  0  0
  2  1  1  1
  2  3  1  0
  2  4  1  0
  3  5  1  0
  6  4  1  1
  5  7  1  1
  5  8  1  0
  6  8  1  0
  6  9  1  0
  8 10  1  1
  9 11  1  0
 10 11  1  0
  9 12  1  1
 11 13  1  1
 12 14  1  0
 14 15  1  6
 13 16  1  0
 14 16  1  0
M  CHG  2   1  -1   7  -1
M  END
