ucsf365-ucsf411
     RDKit          3D

 17 18  0  0  0  0  0  0  0  0999 V2000
    0.1350   11.4620   -3.1140 O   0  0  0  0  0  0  0  0  0  0  0  0
    1.0490   12.3720   -2.8600 C   0  0  2  0  0  0  0  0  0  0  0  0
    0.6680   12.7740   -1.5520 O   0  0  0  0  0  0  0  0  0  0  0  0
    1.0350   13.5880   -3.9060 C   0  0  1  0  0  0  0  0  0  0  0  0
    2.2620   13.5830   -4.6220 O   0  0  0  0  0  0  0  0  0  0  0  0
   -0.1700   13.8030   -4.9110 C   0  0  1  0  0  0  0  0  0  0  0  0
   -1.3250   12.8500   -4.5830 C   0  0  2  0  0  0  0  0  0  0  0  0
   -0.6180   15.3190   -5.1670 C   0  0  0  0  0  0  0  0  0  0  0  0
   -0.9840   11.4740   -4.7870 O   0  0  0  0  0  0  0  0  0  0  0  0
   -2.7280   13.0940   -5.1790 C   0  0  0  0  0  0  0  0  0  0  0  0
   -2.1230   15.4840   -5.6420 C   0  0  0  0  0  0  0  0  0  0  0  0
    0.7050   16.1560   -5.5050 C   0  0  0  0  0  0  0  0  0  0  0  0
   -0.9330   16.2620   -4.0980 C   0  0  0  0  0  0  0  0  0  0  0  0
   -2.8090   14.2290   -6.1620 C   0  0  0  0  0  0  0  0  0  0  0  0
   -1.5040   17.5860   -4.7560 C   0  0  0  0  0  0  0  0  0  0  0  0
    0.6690   17.6520   -5.8420 C   0  0  0  0  0  0  0  0  0  0  0  0
   -0.7390   18.1300   -5.9370 C   0  0  0  0  0  0  0  0  0  0  0  0
  2  1  1  6
  2  3  1  0
  2  4  1  0
  4  5  1  6
  4  6  1  0
  6  7  1  0
  6  8  1  1
  7  9  1  6
  7 10  1  0
  8 11  1  0
  8 12  1  0
  8 13  1  0
 10 14  1  0
 11 14  1  0
 13 15  1  0
 12 16  1  0
 15 17  1  0
 16 17  1  0
M  CHG  1   1  -1
M  END
