ucsf039-ucsf262
     RDKit          3D

 25 28  0  0  0  0  0  0  0  0999 V2000
   -4.4580   15.4690    1.3680 N   0  0  0  0  0  0  0  0  0  0  0  0
   -3.5770   15.2460    0.2560 C   0  0  1  0  0  0  0  0  0  0  0  0
   -2.3500   14.4720    0.5530 C   0  0  1  0  0  0  0  0  0  0  0  0
   -4.3550   14.4230   -0.7110 N   0  0  0  0  0  0  0  0  0  0  0  0
   -3.4850   13.5560   -1.3690 C   0  0  0  0  0  0  0  0  0  0  0  0
   -1.4180   14.4800   -0.6380 C   0  0  2  0  0  0  0  0  0  0  0  0
   -1.4220   15.0240    1.4790 N   0  0  0  0  0  0  0  0  0  0  0  0
   -2.2190   14.1870   -1.7760 N   0  0  0  0  0  0  0  0  0  0  0  0
   -0.4890   13.5840   -0.0870 N   0  0  0  0  0  0  0  0  0  0  0  0
   -0.1570   14.3870    1.1210 C   0  0  0  0  0  0  0  0  0  0  0  0
   -1.7080   13.4030   -2.8780 C   0  0  0  0  0  0  0  0  0  0  0  0
   -1.3710   14.7430   -3.8890 S   0  0  0  0  0  0  0  0  0  0  0  0
   -3.4690   15.8000   -3.4770 Cl  0  0  0  0  0  0  0  0  0  0  0  0
   -0.0970   15.6970   -3.3130 C   0  0  1  0  0  0  0  0  0  0  0  0
   -0.5200   15.4520   -5.0800 N   0  0  0  0  0  0  0  0  0  0  0  0
   -2.2730   14.4180   -5.8080 S   0  0  0  0  0  0  0  0  0  0  0  0
   -1.0710   16.6070   -5.4190 C   0  0  2  0  0  0  0  0  0  0  0  0
    0.8570   14.7380   -3.5840 C   0  0  1  0  0  0  0  0  0  0  0  0
    0.9130   15.2120   -5.0030 C   0  0  0  0  0  0  0  0  0  0  0  0
    0.2650   16.9390   -4.0100 C   0  0  0  0  0  0  0  0  0  0  0  0
   -2.5220   16.2390   -5.7800 C   0  0  0  0  0  0  0  0  0  0  0  0
   -0.4730   17.7410   -6.2070 C   0  0  0  0  0  0  0  0  0  0  0  0
    1.8930   14.4170   -2.5870 C   0  0  2  0  0  0  0  0  0  0  0  0
    3.2230   14.4820   -2.8170 O   0  0  0  0  0  0  0  0  0  0  0  0
    1.6910   13.0390   -2.2870 O   0  0  0  0  0  0  0  0  0  0  0  0
  2  1  1  1
  2  3  1  0
  2  4  1  0
  4  5  1  0
  3  6  1  0
  3  7  1  1
  5  8  1  0
  6  8  1  0
  6  9  1  1
  7 10  1  0
  9 10  1  0
  8 11  1  0
 11 12  1  0
 12 13  1  0
 12 14  1  0
 12 15  1  0
 12 16  1  0
 15 17  1  0
 14 18  1  0
 15 19  1  0
 18 19  1  6
 14 20  1  6
 16 21  1  0
 17 21  1  0
 17 22  1  6
 18 23  1  0
 23 24  1  6
 23 25  1  0
M  CHG  1  24  -1
M  END
