ucsf123-ucsf385
     RDKit          3D

 23 24  0  0  0  0  0  0  0  0999 V2000
   -1.6610   18.5490   -4.7150 N   0  0  0  0  0  0  0  0  0  0  0  0
   -1.2730   17.3450   -5.7280 S   0  0  0  0  0  0  0  0  0  0  0  0
   -0.3750   18.0190   -6.8480 O   0  0  0  0  0  0  0  0  0  0  0  0
   -2.5730   16.8640   -6.5340 O   0  0  0  0  0  0  0  0  0  0  0  0
   -0.3080   15.9030   -5.2230 C   0  0  1  0  0  0  0  0  0  0  0  0
    0.5530   16.0780   -3.9710 C   0  0  0  0  0  0  0  0  0  0  0  0
   -1.1090   14.5830   -5.1540 C   0  0  0  0  0  0  0  0  0  0  0  0
    1.4630   14.8550   -3.6770 C   0  0  0  0  0  0  0  0  0  0  0  0
   -0.7260   13.7570   -3.9190 C   0  0  2  0  0  0  0  0  0  0  0  0
   -0.9250   14.6340   -2.8590 O   0  0  0  0  0  0  0  0  0  0  0  0
    0.7490   13.4720   -3.8070 C   0  0  2  0  0  0  0  0  0  0  0  0
    1.1090   12.3650   -2.7440 C   0  0  1  0  0  0  0  0  0  0  0  0
   -2.0480   14.3020   -2.1900 C   0  0  2  0  0  0  0  0  0  0  0  0
    0.8280   12.8330   -1.4380 O   0  0  0  0  0  0  0  0  0  0  0  0
    0.3650   11.2790   -2.7920 O   0  0  0  0  0  0  0  0  0  0  0  0
   -2.8110   15.4390   -2.0990 O   0  0  0  0  0  0  0  0  0  0  0  0
   -1.7720   13.7870   -0.7910 C   0  0  2  0  0  0  0  0  0  0  0  0
   -3.0670   14.0300    0.0110 C   0  0  2  0  0  0  0  0  0  0  0  0
   -0.4160   14.2270   -0.1690 C   0  0  0  0  0  0  0  0  0  0  0  0
   -3.9630   14.9900   -0.6600 N   0  0  0  0  0  0  0  0  0  0  0  0
   -0.4450   14.3910    1.3340 C   0  0  0  0  0  0  0  0  0  0  0  0
   -2.8290   14.4990    1.4510 C   0  0  0  0  0  0  0  0  0  0  0  0
   -1.5820   15.1860    1.6900 N   0  0  0  0  0  0  0  0  0  0  0  0
  1  2  1  0
  2  3  1  0
  2  4  1  0
  5  2  1  1
  5  6  1  0
  5  7  1  0
  6  8  1  0
  7  9  1  0
  9 10  1  1
 11  8  1  1
  9 11  1  0
 11 12  1  0
 10 13  1  0
 12 14  1  1
 12 15  1  0
 13 16  1  1
 13 17  1  0
 17 18  1  0
 17 19  1  1
 18 20  1  6
 19 21  1  0
 18 22  1  0
 21 23  1  0
 22 23  1  0
M  CHG  1  15  -1
M  END
