ucsf138-ucsf493
     RDKit          3D

 25 27  0  0  0  0  0  0  0  0999 V2000
    0.0670   12.1720   -1.8680 O   0  0  0  0  0  0  0  0  0  0  0  0
    0.6060   11.6510   -2.9600 C   0  0  1  0  0  0  0  0  0  0  0  0
   -0.0930   10.4300   -3.0870 O   0  0  0  0  0  0  0  0  0  0  0  0
    0.6260   12.5210   -4.3200 C   0  0  1  0  0  0  0  0  0  0  0  0
   -0.2140   11.9850   -5.5070 N   0  0  0  0  0  0  0  0  0  0  0  0
    0.6470   14.0710   -4.0580 C   0  0  2  0  0  0  0  0  0  0  0  0
    0.4790   11.2030   -6.5490 C   0  0  2  0  0  0  0  0  0  0  0  0
   -0.5100   15.1090   -4.2600 C   0  0  2  0  0  0  0  0  0  0  0  0
    1.6570   14.6550   -4.9720 C   0  0  0  0  0  0  0  0  0  0  0  0
    1.7610   11.7290   -6.7810 O   0  0  0  0  0  0  0  0  0  0  0  0
   -0.2420   11.2190   -7.8050 N   0  0  0  0  0  0  0  0  0  0  0  0
   -1.6980   14.8140   -5.1640 C   0  0  0  0  0  0  0  0  0  0  0  0
    0.2330   16.4490   -4.4960 C   0  0  1  0  0  0  0  0  0  0  0  0
    1.5210   16.1070   -5.0230 N   0  0  0  0  0  0  0  0  0  0  0  0
    0.0740   10.1490   -8.8190 C   0  0  0  0  0  0  0  0  0  0  0  0
   -2.5370   16.0360   -5.5890 C   0  0  1  0  0  0  0  0  0  0  0  0
   -0.3880   17.4490   -5.4440 C   0  0  0  0  0  0  0  0  0  0  0  0
   -3.7570   15.9260   -4.8890 O   0  0  0  0  0  0  0  0  0  0  0  0
    0.5400   10.7060  -10.1690 C   0  0  0  0  0  0  0  0  0  0  0  0
    1.1350    9.1150   -8.3510 C   0  0  0  0  0  0  0  0  0  0  0  0
   -1.8980   17.4160   -5.3750 C   0  0  0  0  0  0  0  0  0  0  0  0
   -4.6470   15.0520   -5.5830 C   0  0  0  0  0  0  0  0  0  0  0  0
    0.6020    9.6350  -11.2730 C   0  0  0  0  0  0  0  0  0  0  0  0
    1.7840    8.2680   -9.4870 C   0  0  0  0  0  0  0  0  0  0  0  0
    0.9750    8.2370  -10.7740 C   0  0  0  0  0  0  0  0  0  0  0  0
  2  1  1  1
  2  3  1  0
  2  4  1  0
  4  5  1  6
  4  6  1  0
  5  7  1  0
  6  8  1  0
  6  9  1  6
  7 10  1  6
  7 11  1  0
  8 12  1  6
  8 13  1  0
  9 14  1  0
 13 14  1  0
 11 15  1  0
 12 16  1  0
 13 17  1  6
 16 18  1  1
 15 19  1  0
 15 20  1  0
 16 21  1  0
 17 21  1  0
 18 22  1  0
 19 23  1  0
 20 24  1  0
 23 25  1  0
 24 25  1  0
M  CHG  1   1  -1
M  END
