ucsf333-ucsf260
     RDKit          3D

 24 27  0  0  0  0  0  0  0  0999 V2000
   -6.2660   15.5160   -1.5220 Cl  0  0  0  0  0  0  0  0  0  0  0  0
   -4.8280   14.5480   -1.0960 C   0  0  1  0  0  0  0  0  0  0  0  0
   -3.9380   14.2810   -2.3280 C   0  0  0  0  0  0  0  0  0  0  0  0
   -4.0570   15.1810    0.0630 C   0  0  0  0  0  0  0  0  0  0  0  0
   -2.6670   15.1060   -2.2410 C   0  0  2  0  0  0  0  0  0  0  0  0
   -2.6780   14.5160    0.2270 C   0  0  0  0  0  0  0  0  0  0  0  0
   -1.7850   15.0250   -3.4090 N   0  0  0  0  0  0  0  0  0  0  0  0
   -1.8090   14.7480   -1.0070 C   0  0  1  0  0  0  0  0  0  0  0  0
   -1.2440   13.6550   -3.3280 C   0  0  2  0  0  0  0  0  0  0  0  0
   -0.7010   13.4710   -1.5600 S   0  0  0  0  0  0  0  0  0  0  0  0
   -0.1920   13.1600   -4.4210 C   0  0  1  0  0  0  0  0  0  0  0  0
    0.8820   12.2990   -3.7170 C   0  0  0  0  0  0  0  0  0  0  0  0
   -0.8140   12.3820   -5.5550 N   0  0  0  0  0  0  0  0  0  0  0  0
    0.3070   11.4930   -2.5220 C   0  0  2  0  0  0  0  0  0  0  0  0
   -2.2290   12.1160   -5.3390 C   0  0  0  0  0  0  0  0  0  0  0  0
   -0.2380   11.1400   -6.0980 C   0  0  1  0  0  0  0  0  0  0  0  0
    0.8900   11.8650   -1.4180 O   0  0  0  0  0  0  0  0  0  0  0  0
    0.5960   10.1290   -2.5310 O   0  0  0  0  0  0  0  0  0  0  0  0
   -2.3930   10.6630   -5.4700 N   0  0  0  0  0  0  0  0  0  0  0  0
   -1.4810   10.4030   -6.5470 C   0  0  2  0  0  0  0  0  0  0  0  0
    0.6520   11.2660   -7.3270 C   0  0  0  0  0  0  0  0  0  0  0  0
   -1.1980    8.9440   -6.8370 C   0  0  0  0  0  0  0  0  0  0  0  0
    0.8550    9.9170   -8.0730 C   0  0  0  0  0  0  0  0  0  0  0  0
   -0.2990    8.8800   -8.0630 C   0  0  0  0  0  0  0  0  0  0  0  0
  2  1  1  6
  2  3  1  0
  2  4  1  0
  5  3  1  6
  4  6  1  0
  5  7  1  0
  5  8  1  0
  8  6  1  1
  9  7  1  6
  8 10  1  0
  9 10  1  0
  9 11  1  0
 11 12  1  1
 11 13  1  0
 12 14  1  0
 13 15  1  0
 13 16  1  0
 14 17  1  1
 14 18  1  0
 15 19  1  0
 16 20  1  0
 19 20  1  0
 16 21  1  6
 20 22  1  1
 21 23  1  0
 22 24  1  0
 23 24  1  0
M  CHG  1  17  -1
M  END
