ucsf110-ucsf169
     RDKit          3D

 23 25  0  0  0  0  0  0  0  0999 V2000
    0.5170   15.5590   -2.6510 C   0  0  0  0  0  0  0  0  0  0  0  0
   -0.7930   15.7720   -2.0950 N   0  0  0  0  0  0  0  0  0  0  0  0
   -1.9150   15.5370   -3.0350 C   0  0  1  0  0  0  0  0  0  0  0  0
   -1.0360   14.9570   -0.9430 C   0  0  2  0  0  0  0  0  0  0  0  0
   -3.1290   15.5120   -2.0140 C   0  0  0  0  0  0  0  0  0  0  0  0
   -2.5280   14.8690   -0.7400 C   0  0  2  0  0  0  0  0  0  0  0  0
   -0.3200   15.3560    0.2470 N   0  0  0  0  0  0  0  0  0  0  0  0
   -1.8520   16.4390   -4.3530 C   0  0  1  0  0  0  0  0  0  0  0  0
   -1.5660   14.1530   -3.6000 C   0  0  0  0  0  0  0  0  0  0  0  0
   -2.2620   17.8230   -4.3460 O   0  0  0  0  0  0  0  0  0  0  0  0
   -2.8200   15.3330    0.6960 C   0  0  1  0  0  0  0  0  0  0  0  0
   -0.6300   14.4350    1.3030 C   0  0  0  0  0  0  0  0  0  0  0  0
   -0.3490   16.5380   -4.7260 C   0  0  2  0  0  0  0  0  0  0  0  0
   -0.0550   14.1030   -3.9060 C   0  0  1  0  0  0  0  0  0  0  0  0
   -4.1730   15.1310    1.1620 N   0  0  0  0  0  0  0  0  0  0  0  0
   -0.1940   17.5250   -5.7590 O   0  0  0  0  0  0  0  0  0  0  0  0
    0.4120   12.6290   -4.0730 C   0  0  0  0  0  0  0  0  0  0  0  0
   -2.0190   14.5980    1.6730 N   0  0  0  0  0  0  0  0  0  0  0  0
    0.3310   15.1530   -4.9810 C   0  0  0  0  0  0  0  0  0  0  0  0
    1.0740   18.1590   -5.7100 C   0  0  0  0  0  0  0  0  0  0  0  0
    0.8350   11.8720   -2.7520 C   0  0  1  0  0  0  0  0  0  0  0  0
    0.4250   12.5720   -1.5910 O   0  0  0  0  0  0  0  0  0  0  0  0
    0.1630   10.7360   -2.5530 O   0  0  0  0  0  0  0  0  0  0  0  0
  1  2  1  0
  3  2  1  0
  2  4  1  0
  3  5  1  1
  4  6  1  0
  6  5  1  6
  4  7  1  1
  3  8  1  0
  3  9  1  0
  8 10  1  1
  6 11  1  0
  7 12  1  0
  8 13  1  0
  9 14  1  0
 11 15  1  1
 13 16  1  6
 14 17  1  6
 11 18  1  0
 12 18  1  0
 13 19  1  0
 14 19  1  0
 16 20  1  0
 17 21  1  0
 21 22  1  1
 21 23  1  0
M  CHG  1  23  -1
M  END
