ucsf303-ucsf357
     RDKit          3D

 23 26  0  0  0  0  0  0  0  0999 V2000
   -2.3120   12.7160   -2.3220 O   0  0  0  0  0  0  0  0  0  0  0  0
   -3.6730   12.9610   -1.5060 S   0  0  2  0  0  0  0  0  0  0  0  0
   -4.4460   11.6110   -1.2070 O   0  0  0  0  0  0  0  0  0  0  0  0
   -2.1010   13.7640   -3.2630 C   0  0  1  0  0  0  0  0  0  0  0  0
   -4.6260   13.6440   -2.8090 C   0  0  2  0  0  0  0  0  0  0  0  0
   -3.3670   13.8100   -0.0140 C   0  0  0  0  0  0  0  0  0  0  0  0
   -3.4650   14.5120   -3.3900 C   0  0  1  0  0  0  0  0  0  0  0  0
   -0.8740   14.6360   -2.8600 C   0  0  2  0  0  0  0  0  0  0  0  0
   -5.6690   14.4590   -2.1920 O   0  0  0  0  0  0  0  0  0  0  0  0
    0.2970   13.8540   -2.5920 O   0  0  0  0  0  0  0  0  0  0  0  0
   -5.1460   12.3830   -3.5590 C   0  0  2  0  0  0  0  0  0  0  0  0
   -1.8690   14.1280    0.1460 C   0  0  0  0  0  0  0  0  0  0  0  0
   -4.3430   14.9920    0.1370 C   0  0  0  0  0  0  0  0  0  0  0  0
   -3.3570   15.8280   -2.6570 C   0  0  0  0  0  0  0  0  0  0  0  0
   -1.0990   15.5350   -1.6460 C   0  0  0  0  0  0  0  0  0  0  0  0
   -5.9700   11.5130   -2.6660 N   0  0  0  0  0  0  0  0  0  0  0  0
   -3.7570   11.3580   -4.1430 S   0  0  0  0  0  0  0  0  0  0  0  0
   -1.6460   14.9420    1.3800 C   0  0  0  0  0  0  0  0  0  0  0  0
   -4.0050   15.7500    1.3760 C   0  0  0  0  0  0  0  0  0  0  0  0
   -2.5750   15.7190   -1.3530 C   0  0  0  0  0  0  0  0  0  0  0  0
   -3.9380   10.1630   -2.8230 C   0  0  0  0  0  0  0  0  0  0  0  0
   -5.3290   10.2030   -2.3600 N   0  0  0  0  0  0  0  0  0  0  0  0
   -2.9870   14.8980    2.0670 C   0  0  0  0  0  0  0  0  0  0  0  0
  2  1  1  0
  2  3  1  1
  4  1  1  1
  2  5  1  0
  2  6  1  0
  4  7  1  0
  5  7  1  0
  4  8  1  0
  5  9  1  1
  8 10  1  1
  5 11  1  0
  6 12  1  0
  6 13  1  0
  7 14  1  1
  8 15  1  0
 11 16  1  1
 11 17  1  0
 12 18  1  0
 13 19  1  0
 14 20  1  0
 15 20  1  0
 17 21  1  0
 16 22  1  0
 21 22  1  0
 18 23  1  0
 19 23  1  0
M  END
