ucsf241-ucsf138
     RDKit          3D

 24 26  0  0  0  0  0  0  0  0999 V2000
    0.9190   13.1360   -2.4010 O   0  0  0  0  0  0  0  0  0  0  0  0
    0.3150   12.1720   -3.2490 C   0  0  2  0  0  0  0  0  0  0  0  0
    0.5890   10.8440   -2.8160 O   0  0  0  0  0  0  0  0  0  0  0  0
    0.1610   13.2420   -1.1990 C   0  0  0  0  0  0  0  0  0  0  0  0
    0.8160   12.3790   -4.6990 C   0  0  0  0  0  0  0  0  0  0  0  0
    0.0000   14.6660   -0.6880 C   0  0  1  0  0  0  0  0  0  0  0  0
    0.1140   11.4330   -5.5870 N   0  0  0  0  0  0  0  0  0  0  0  0
   -1.2090   15.3200   -1.3610 C   0  0  0  0  0  0  0  0  0  0  0  0
   -0.0820   14.5970    0.8570 C   0  0  0  0  0  0  0  0  0  0  0  0
    0.4450   11.5820   -6.9690 C   0  0  1  0  0  0  0  0  0  0  0  0
   -2.4660   14.7810   -0.7060 C   0  0  2  0  0  0  0  0  0  0  0  0
   -1.4040   14.5960    1.4940 N   0  0  0  0  0  0  0  0  0  0  0  0
    1.8070   11.7500   -7.0720 O   0  0  0  0  0  0  0  0  0  0  0  0
    0.0010   10.4190   -7.6880 N   0  0  0  0  0  0  0  0  0  0  0  0
   -3.7870   15.3830   -1.1490 C   0  0  0  0  0  0  0  0  0  0  0  0
   -2.4540   15.1670    0.7340 C   0  0  2  0  0  0  0  0  0  0  0  0
   -4.5920   15.4130    0.1550 C   0  0  0  0  0  0  0  0  0  0  0  0
   -3.7560   14.7340    1.1630 N   0  0  0  0  0  0  0  0  0  0  0  0
    0.7390   10.1510   -8.9350 C   0  0  0  0  0  0  0  0  0  0  0  0
   -0.1130   10.2000  -10.2180 C   0  0  0  0  0  0  0  0  0  0  0  0
    1.3600    8.7730   -8.7650 C   0  0  0  0  0  0  0  0  0  0  0  0
    0.5630    9.6050  -11.4650 C   0  0  0  0  0  0  0  0  0  0  0  0
    2.0640    8.2080  -10.0030 C   0  0  0  0  0  0  0  0  0  0  0  0
    1.1690    8.2270  -11.2330 C   0  0  0  0  0  0  0  0  0  0  0  0
  1  2  1  0
  2  3  1  1
  1  4  1  0
  2  5  1  0
  6  4  1  6
  5  7  1  0
  6  8  1  0
  6  9  1  0
  7 10  1  0
 11  8  1  6
  9 12  1  0
 10 13  1  1
 10 14  1  0
 11 15  1  0
 11 16  1  0
 16 12  1  1
 15 17  1  0
 16 18  1  0
 17 18  1  0
 14 19  1  0
 19 20  1  0
 19 21  1  0
 20 22  1  0
 21 23  1  0
 22 24  1  0
 23 24  1  0
M  END
