ucsf115-ucsf320
     RDKit          3D

 18 20  0  0  0  0  0  0  0  0999 V2000
   -1.9900   13.8110   -3.4680 C   0  0  0  0  0  0  0  0  0  0  0  0
   -1.5720   14.9040   -2.5950 N   0  0  0  0  0  0  0  0  0  0  0  0
   -0.1540   15.0420   -2.6970 O   0  0  0  0  0  0  0  0  0  0  0  0
   -1.3450   12.5070   -3.0330 C   0  0  1  0  0  0  0  0  0  0  0  0
   -1.1010   11.6440   -4.1550 O   0  0  0  0  0  0  0  0  0  0  0  0
    0.0060   12.6450   -2.3470 C   0  0  0  0  0  0  0  0  0  0  0  0
   -1.8070   14.7860   -1.1520 C   0  0  2  0  0  0  0  0  0  0  0  0
    0.6630   11.3440   -2.6600 C   0  0  0  0  0  0  0  0  0  0  0  0
   -0.3130   10.6310   -3.5700 C   0  0  0  0  0  0  0  0  0  0  0  0
   -1.2000   13.6510   -0.4770 N   0  0  0  0  0  0  0  0  0  0  0  0
   -3.1840   15.0920   -0.5590 C   0  0  2  0  0  0  0  0  0  0  0  0
   -0.8520   14.1280    0.8630 C   0  0  0  0  0  0  0  0  0  0  0  0
   -3.2610   14.3350    0.7100 C   0  0  1  0  0  0  0  0  0  0  0  0
   -4.4610   14.6610   -1.1120 N   0  0  0  0  0  0  0  0  0  0  0  0
   -2.0990   14.4710    1.5800 N   0  0  0  0  0  0  0  0  0  0  0  0
   -4.5010   14.9170    1.2090 N   0  0  0  0  0  0  0  0  0  0  0  0
   -5.2450   15.1860   -0.0300 C   0  0  2  0  0  0  0  0  0  0  0  0
   -6.5330   14.6140    0.0110 O   0  0  0  0  0  0  0  0  0  0  0  0
  1  2  1  0
  2  3  1  0
  4  1  1  6
  4  5  1  0
  4  6  1  0
  7  2  1  6
  6  8  1  0
  5  9  1  0
  8  9  1  0
  7 10  1  0
  7 11  1  0
 10 12  1  0
 11 13  1  0
 11 14  1  6
 12 15  1  0
 13 15  1  1
 13 16  1  0
 14 17  1  0
 16 17  1  0
 17 18  1  1
M  CHG  1   3  -1
M  END
