ucsf151-ucsf017
     RDKit          3D

 24 27  0  0  0  0  0  0  0  0999 V2000
   -0.3930   11.6180   -1.3710 O   0  0  0  0  0  0  0  0  0  0  0  0
   -1.4130   12.5700   -1.5580 C   0  0  1  0  0  0  0  0  0  0  0  0
   -0.8310   13.5540   -0.8890 O   0  0  0  0  0  0  0  0  0  0  0  0
   -1.3050   13.2000   -3.3740 S   0  0  0  0  0  0  0  0  0  0  0  0
   -2.5700   14.5330   -3.5980 C   0  0  0  0  0  0  0  0  0  0  0  0
   -2.5520   12.8950   -4.8310 C   0  0  0  0  0  0  0  0  0  0  0  0
   -0.1020   14.2680   -2.6080 N   0  0  0  0  0  0  0  0  0  0  0  0
    0.1410   12.7260   -4.1450 C   0  0  0  0  0  0  0  0  0  0  0  0
   -2.4100   15.2790   -4.8310 C   0  0  2  0  0  0  0  0  0  0  0  0
   -2.5920   13.6330   -5.8710 N   0  0  0  0  0  0  0  0  0  0  0  0
    1.2770   12.6170   -4.5630 C   0  0  0  0  0  0  0  0  0  0  0  0
    1.2430   14.0050   -2.6040 C   0  0  0  0  0  0  0  0  0  0  0  0
   -0.4340   14.4660   -1.1790 C   0  0  2  0  0  0  0  0  0  0  0  0
   -2.8920   16.5780   -4.6700 O   0  0  0  0  0  0  0  0  0  0  0  0
   -3.3160   14.7960   -5.9520 C   0  0  0  0  0  0  0  0  0  0  0  0
    1.8620   12.6000   -3.0830 C   0  0  0  0  0  0  0  0  0  0  0  0
    0.2130   13.9040   -0.0500 N   0  0  0  0  0  0  0  0  0  0  0  0
   -1.9630   14.7990   -0.8550 C   0  0  2  0  0  0  0  0  0  0  0  0
   -0.2130   14.3390    1.2940 C   0  0  0  0  0  0  0  0  0  0  0  0
   -2.1890   15.0900    0.6120 C   0  0  2  0  0  0  0  0  0  0  0  0
   -3.1110   13.8690   -0.9480 C   0  0  0  0  0  0  0  0  0  0  0  0
   -1.5810   14.1810    1.4710 N   0  0  0  0  0  0  0  0  0  0  0  0
   -3.6000   15.1260    0.9110 N   0  0  0  0  0  0  0  0  0  0  0  0
   -4.2440   14.5600   -0.2020 C   0  0  0  0  0  0  0  0  0  0  0  0
  2  1  1  6
  2  3  1  0
  2  4  1  0
  4  5  1  0
  4  6  1  0
  4  7  1  0
  4  8  1  0
  5  9  1  0
  6 10  1  0
  8 11  1  0
  7 12  1  0
 13  7  1  6
  9 14  1  1
  9 15  1  0
 10 15  1  0
 11 16  1  0
 12 16  1  0
 13 17  1  0
 13 18  1  0
 17 19  1  0
 18 20  1  0
 18 21  1  1
 19 22  1  0
 20 22  1  1
 20 23  1  0
 21 24  1  0
 23 24  1  0
M  CHG  1   1  -1
M  END
