ucsf424-ucsf422
     RDKit          3D

 23 26  0  0  0  0  0  0  0  0999 V2000
    1.4150   12.1330   -2.5220 O   0  0  0  0  0  0  0  0  0  0  0  0
    0.4860   11.6330   -3.3110 C   0  0  1  0  0  0  0  0  0  0  0  0
   -0.5280   11.4090   -2.3580 O   0  0  0  0  0  0  0  0  0  0  0  0
   -0.0040   12.6760   -4.3730 C   0  0  2  0  0  0  0  0  0  0  0  0
   -0.0630   12.1390   -5.8650 C   0  0  1  0  0  0  0  0  0  0  0  0
    0.5710   14.0890   -4.0370 C   0  0  1  0  0  0  0  0  0  0  0  0
    1.2020   11.7680   -6.5770 N   0  0  0  0  0  0  0  0  0  0  0  0
   -1.0760   11.0610   -6.2550 C   0  0  1  0  0  0  0  0  0  0  0  0
    1.6870   14.6190   -4.8760 C   0  0  0  0  0  0  0  0  0  0  0  0
   -0.4870   15.1940   -4.0560 C   0  0  1  0  0  0  0  0  0  0  0  0
    0.8490   10.6590   -7.4900 O   0  0  0  0  0  0  0  0  0  0  0  0
   -0.2660    9.9850   -6.9220 C   0  0  2  0  0  0  0  0  0  0  0  0
   -2.0530   10.4070   -5.2930 C   0  0  0  0  0  0  0  0  0  0  0  0
    1.4920   16.0740   -5.1090 N   0  0  0  0  0  0  0  0  0  0  0  0
    0.2250   16.4770   -4.5180 C   0  0  1  0  0  0  0  0  0  0  0  0
   -1.6710   14.8240   -4.9210 C   0  0  0  0  0  0  0  0  0  0  0  0
   -1.1230    9.2350   -7.9240 C   0  0  0  0  0  0  0  0  0  0  0  0
   -2.5140    9.0140   -5.7770 C   0  0  0  0  0  0  0  0  0  0  0  0
   -0.4940   17.4280   -5.4920 C   0  0  0  0  0  0  0  0  0  0  0  0
   -2.6190   15.9850   -5.0320 C   0  0  2  0  0  0  0  0  0  0  0  0
   -4.1050   15.3110   -6.1260 Br  0  0  0  0  0  0  0  0  0  0  0  0
   -2.4640    8.8220   -7.2990 C   0  0  0  0  0  0  0  0  0  0  0  0
   -2.0190   17.2820   -5.6010 C   0  0  0  0  0  0  0  0  0  0  0  0
  2  1  1  1
  2  3  1  0
  4  2  1  1
  4  5  1  0
  4  6  1  0
  5  7  1  1
  5  8  1  0
  6  9  1  6
  6 10  1  0
  7 11  1  0
  8 12  1  0
 11 12  1  0
  8 13  1  1
  9 14  1  0
 10 15  1  0
 14 15  1  0
 10 16  1  6
 12 17  1  6
 13 18  1  0
 15 19  1  6
 16 20  1  0
 20 21  1  6
 17 22  1  0
 18 22  1  0
 19 23  1  0
 20 23  1  0
M  CHG  1   1  -1
M  END
