ucsf424-ucsf012
     RDKit          3D

 31 35  0  0  0  0  0  0  0  0999 V2000
    1.6500   12.9680   -2.9120 O   0  0  0  0  0  0  0  0  0  0  0  0
    1.5570   12.2620   -4.0190 C   0  0  1  0  0  0  0  0  0  0  0  0
    0.8990   11.0240   -3.6860 O   0  0  0  0  0  0  0  0  0  0  0  0
    0.6370   12.9230   -5.0950 C   0  0  0  0  0  0  0  0  0  0  0  0
    0.1300   12.0050   -6.2610 C   0  0  1  0  0  0  0  0  0  0  0  0
    0.0080   11.1050   -2.6280 C   0  0  1  0  0  0  0  0  0  0  0  0
    1.2920   11.5710   -7.0550 N   0  0  0  0  0  0  0  0  0  0  0  0
   -0.5820   10.6780   -5.9430 C   0  0  2  0  0  0  0  0  0  0  0  0
   -0.0670   12.4670   -2.0530 C   0  0  0  0  0  0  0  0  0  0  0  0
   -1.3810   11.0530   -3.2100 C   0  0  0  0  0  0  0  0  0  0  0  0
    0.7900   10.4820   -7.8840 O   0  0  0  0  0  0  0  0  0  0  0  0
   -0.1500    9.7590   -7.0850 C   0  0  2  0  0  0  0  0  0  0  0  0
   -2.1240   10.7520   -5.8830 C   0  0  0  0  0  0  0  0  0  0  0  0
   -0.4520   13.1370   -3.3520 C   0  0  1  0  0  0  0  0  0  0  0  0
   -1.5760   12.3540   -3.8230 O   0  0  0  0  0  0  0  0  0  0  0  0
   -0.6260   14.6680   -3.3030 C   0  0  0  0  0  0  0  0  0  0  0  0
   -1.2950    9.2560   -7.9490 C   0  0  0  0  0  0  0  0  0  0  0  0
   -2.8020    9.3890   -5.9070 C   0  0  0  0  0  0  0  0  0  0  0  0
   -2.3820    8.5740   -7.1230 C   0  0  0  0  0  0  0  0  0  0  0  0
   -1.6400   15.1290   -2.4080 N   0  0  0  0  0  0  0  0  0  0  0  0
   -3.0300   14.7600   -2.6590 C   0  0  2  0  0  0  0  0  0  0  0  0
   -1.4250   15.1710   -0.9710 C   0  0  1  0  0  0  0  0  0  0  0  0
   -3.5720   15.2540   -3.9990 C   0  0  0  0  0  0  0  0  0  0  0  0
   -3.6600   15.3270   -1.3730 C   0  0  2  0  0  0  0  0  0  0  0  0
   -2.7240   14.5950   -0.4460 C   0  0  2  0  0  0  0  0  0  0  0  0
   -0.3450   14.4040   -0.4060 N   0  0  0  0  0  0  0  0  0  0  0  0
   -5.1450   15.1390   -1.1280 C   0  0  0  0  0  0  0  0  0  0  0  0
   -2.7380   14.6350    1.0640 C   0  0  2  0  0  0  0  0  0  0  0  0
   -0.3060   14.5670    1.0300 C   0  0  0  0  0  0  0  0  0  0  0  0
   -3.7720   15.4360    1.6680 N   0  0  0  0  0  0  0  0  0  0  0  0
   -1.5050   15.2140    1.5380 N   0  0  0  0  0  0  0  0  0  0  0  0
  2  1  1  1
  2  3  1  0
  2  4  1  0
  5  4  1  1
  6  3  1  6
  5  7  1  0
  5  8  1  0
  6  9  1  0
  6 10  1  0
  7 11  1  0
  8 12  1  0
 11 12  1  0
  8 13  1  6
  9 14  1  0
 10 15  1  0
 14 15  1  0
 14 16  1  1
 12 17  1  6
 13 18  1  0
 17 19  1  0
 18 19  1  0
 16 20  1  0
 20 21  1  0
 20 22  1  0
 21 23  1  6
 21 24  1  0
 22 25  1  0
 24 25  1  0
 22 26  1  6
 24 27  1  1
 25 28  1  1
 26 29  1  0
 28 30  1  6
 28 31  1  0
 29 31  1  0
M  CHG  1   1  -1
M  END
