ucsf114-ucsf274
     RDKit          3D

 31 35  0  0  0  0  0  0  0  0999 V2000
    0.8480   18.1610   -4.3940 C   0  0  0  0  0  0  0  0  0  0  0  0
   -0.1080   17.5200   -5.3910 C   0  0  0  0  0  0  0  0  0  0  0  0
   -1.4980   18.1760   -5.3260 C   0  0  0  0  0  0  0  0  0  0  0  0
   -0.2780   16.1420   -5.0660 O   0  0  0  0  0  0  0  0  0  0  0  0
    0.9270   15.4080   -4.6880 C   0  0  0  0  0  0  0  0  0  0  0  0
    0.5140   14.1250   -3.8770 C   0  0  2  0  0  0  0  0  0  0  0  0
    1.7930   13.1940   -3.5080 C   0  0  1  0  0  0  0  0  0  0  0  0
   -0.4580   13.4600   -4.9730 C   0  0  0  0  0  0  0  0  0  0  0  0
   -0.1270   14.4980   -2.5210 N   0  0  0  0  0  0  0  0  0  0  0  0
    2.4640   14.0110   -2.0390 S   0  0  0  0  0  0  0  0  0  0  0  0
    1.4550   11.9530   -3.1640 O   0  0  0  0  0  0  0  0  0  0  0  0
   -1.5330   14.3630   -2.1140 C   0  0  1  0  0  0  0  0  0  0  0  0
    0.7790   14.0110   -1.4370 C   0  0  1  0  0  0  0  0  0  0  0  0
   -0.6940   11.9310   -5.1260 C   0  0  1  0  0  0  0  0  0  0  0  0
   -1.6320   15.0830   -0.7410 C   0  0  2  0  0  0  0  0  0  0  0  0
    0.6140   14.7090   -0.1680 N   0  0  0  0  0  0  0  0  0  0  0  0
   -2.6610   15.1810   -2.7510 C   0  0  0  0  0  0  0  0  0  0  0  0
   -2.2170   11.7210   -4.8780 C   0  0  2  0  0  0  0  0  0  0  0  0
   -0.2760   11.3750   -6.4440 N   0  0  0  0  0  0  0  0  0  0  0  0
   -2.4600   11.7080   -3.4700 O   0  0  0  0  0  0  0  0  0  0  0  0
   -0.7160   14.4610    0.3310 C   0  0  1  0  0  0  0  0  0  0  0  0
   -3.0720   15.1420   -0.3910 N   0  0  0  0  0  0  0  0  0  0  0  0
   -3.7660   15.1650   -1.6990 C   0  0  0  0  0  0  0  0  0  0  0  0
   -2.8570   10.5280   -5.3970 N   0  0  0  0  0  0  0  0  0  0  0  0
   -0.6010    9.9380   -6.5720 C   0  0  1  0  0  0  0  0  0  0  0  0
   -0.9320   15.0970    1.5870 O   0  0  0  0  0  0  0  0  0  0  0  0
   -1.9640    9.5150   -5.9610 C   0  0  2  0  0  0  0  0  0  0  0  0
   -0.4620    9.4850   -8.0330 C   0  0  0  0  0  0  0  0  0  0  0  0
   -0.7130    7.9950   -8.2310 C   0  0  0  0  0  0  0  0  0  0  0  0
   -2.8040    8.6910   -6.9580 C   0  0  0  0  0  0  0  0  0  0  0  0
   -2.0030    7.5360   -7.5530 C   0  0  0  0  0  0  0  0  0  0  0  0
  1  2  1  0
  2  3  1  0
  2  4  1  0
  4  5  1  0
  6  5  1  6
  6  7  1  0
  6  8  1  0
  6  9  1  0
  7 10  1  0
  7 11  1  1
  9 12  1  0
  9 13  1  0
 10 13  1  0
 14  8  1  6
 12 15  1  0
 13 16  1  1
 12 17  1  6
 14 18  1  0
 14 19  1  0
 18 20  1  1
 15 21  1  0
 16 21  1  0
 15 22  1  1
 17 23  1  0
 22 23  1  0
 18 24  1  0
 19 25  1  0
 21 26  1  1
 24 27  1  0
 25 27  1  0
 25 28  1  6
 28 29  1  0
 27 30  1  6
 29 31  1  0
 30 31  1  0
M  CHG  1  11  -1
M  END
