ucsf115-ucsf404
     RDKit          3D

 21 24  0  0  0  0  0  0  0  0999 V2000
   -1.6850   13.6110   -3.3120 C   0  0  0  0  0  0  0  0  0  0  0  0
   -1.5130   14.9900   -2.8860 N   0  0  0  0  0  0  0  0  0  0  0  0
   -1.5710   15.2350   -1.4540 C   0  0  2  0  0  0  0  0  0  0  0  0
   -0.4310   12.9170   -3.8580 C   0  0  2  0  0  0  0  0  0  0  0  0
   -0.7990   11.6440   -4.4190 O   0  0  0  0  0  0  0  0  0  0  0  0
    0.6360   12.5910   -2.8220 C   0  0  0  0  0  0  0  0  0  0  0  0
    0.0680   11.3270   -2.2430 C   0  0  0  0  0  0  0  0  0  0  0  0
   -0.5100   10.6360   -3.4510 C   0  0  0  0  0  0  0  0  0  0  0  0
   -0.7820   14.1940   -0.7880 N   0  0  0  0  0  0  0  0  0  0  0  0
   -2.9910   15.3670   -0.8670 C   0  0  2  0  0  0  0  0  0  0  0  0
   -0.5230   14.5190    0.6140 C   0  0  0  0  0  0  0  0  0  0  0  0
   -2.9170   14.8450    0.5380 C   0  0  1  0  0  0  0  0  0  0  0  0
   -4.2520   14.6790   -1.1920 N   0  0  0  0  0  0  0  0  0  0  0  0
   -5.0250   14.9980   -2.7350 Cl  0  0  0  0  0  0  0  0  0  0  0  0
   -1.6740   15.1620    1.2210 N   0  0  0  0  0  0  0  0  0  0  0  0
   -4.0740   15.5840    0.9620 N   0  0  0  0  0  0  0  0  0  0  0  0
   -5.0280   15.2900   -0.1200 C   0  0  2  0  0  0  0  0  0  0  0  0
   -6.0510   14.3780    0.3740 N   0  0  0  0  0  0  0  0  0  0  0  0
   -4.7380   15.4000    2.4340 S   0  0  0  0  0  0  0  0  0  0  0  0
   -6.2640   14.6870    1.7600 C   0  0  2  0  0  0  0  0  0  0  0  0
   -6.6110   13.4570    2.3520 N   0  0  0  0  0  0  0  0  0  0  0  0
  1  2  1  0
  3  2  1  6
  4  1  1  1
  4  5  1  0
  4  6  1  0
  6  7  1  0
  5  8  1  0
  7  8  1  0
  3  9  1  0
  3 10  1  0
  9 11  1  0
 10 12  1  0
 10 13  1  6
 13 14  1  0
 11 15  1  0
 12 15  1  1
 12 16  1  0
 13 17  1  0
 16 17  1  0
 17 18  1  1
 16 19  1  0
 18 20  1  0
 19 20  1  0
 20 21  1  1
M  END
