ucsf224-ucsf378
     RDKit          3D

 15 15  0  0  0  0  0  0  0  0999 V2000
   -0.5600   18.1060   -5.6380 Cl  0  0  0  0  0  0  0  0  0  0  0  0
   -0.2260   16.6360   -4.6460 C   0  0  1  0  0  0  0  0  0  0  0  0
   -1.2800   15.5780   -4.9120 C   0  0  2  0  0  0  0  0  0  0  0  0
    1.1820   16.0580   -4.8060 C   0  0  0  0  0  0  0  0  0  0  0  0
   -2.9430   16.1870   -5.1220 Cl  0  0  0  0  0  0  0  0  0  0  0  0
   -1.1280   14.4700   -3.9370 C   0  0  1  0  0  0  0  0  0  0  0  0
    1.2370   14.5030   -4.9270 C   0  0  1  0  0  0  0  0  0  0  0  0
   -2.6550   13.5330   -3.8080 Cl  0  0  0  0  0  0  0  0  0  0  0  0
    2.6130   13.7050   -4.1200 Cl  0  0  0  0  0  0  0  0  0  0  0  0
   -0.0050   13.6580   -4.5900 C   0  0  1  0  0  0  0  0  0  0  0  0
    0.3120   12.3030   -3.9300 C   0  0  0  0  0  0  0  0  0  0  0  0
    0.8620   12.3050   -2.5140 C   0  0  2  0  0  0  0  0  0  0  0  0
    0.0460   11.4550   -1.7310 O   0  0  0  0  0  0  0  0  0  0  0  0
    0.8810   13.5830   -1.9330 O   0  0  0  0  0  0  0  0  0  0  0  0
    0.1810   10.1410   -2.3200 O   0  0  0  0  0  0  0  0  0  0  0  0
  2  1  1  6
  2  3  1  0
  2  4  1  0
  3  5  1  1
  3  6  1  0
  4  7  1  0
  6  8  1  6
  7  9  1  1
  6 10  1  0
  7 10  1  0
 10 11  1  1
 11 12  1  0
 12 13  1  0
 12 14  1  1
 13 15  1  0
M  END
