ucsf006-ucsf258
     RDKit          3D

 17 18  0  0  0  0  0  0  0  0999 V2000
   -2.1940   14.4610   -3.3380 C   0  0  0  0  0  0  0  0  0  0  0  0
   -0.8480   14.3650   -2.5530 C   0  0  2  0  0  0  0  0  0  0  0  0
    0.2100   15.2250   -3.3040 C   0  0  0  0  0  0  0  0  0  0  0  0
   -0.3970   13.1180   -2.6330 O   0  0  0  0  0  0  0  0  0  0  0  0
   -1.1290   14.4780   -1.0420 C   0  0  2  0  0  0  0  0  0  0  0  0
    0.8250   14.6380   -4.5970 C   0  0  0  0  0  0  0  0  0  0  0  0
   -2.5250   14.5730   -0.4260 C   0  0  1  0  0  0  0  0  0  0  0  0
   -0.1900   15.2550   -0.2690 N   0  0  0  0  0  0  0  0  0  0  0  0
    0.6580   13.0950   -4.7870 C   0  0  1  0  0  0  0  0  0  0  0  0
   -2.3950   15.2140    0.9500 C   0  0  2  0  0  0  0  0  0  0  0  0
   -0.0810   14.6400    1.0080 C   0  0  0  0  0  0  0  0  0  0  0  0
   -3.7800   15.2590   -0.9400 C   0  0  0  0  0  0  0  0  0  0  0  0
    0.3280   12.7620   -6.1330 O   0  0  0  0  0  0  0  0  0  0  0  0
    1.7930   12.4950   -4.4640 O   0  0  0  0  0  0  0  0  0  0  0  0
   -1.3750   14.5720    1.7180 N   0  0  0  0  0  0  0  0  0  0  0  0
   -3.7250   14.9500    1.4450 N   0  0  0  0  0  0  0  0  0  0  0  0
   -4.5200   15.5660    0.3730 C   0  0  0  0  0  0  0  0  0  0  0  0
  2  1  1  6
  2  3  1  0
  2  4  1  0
  2  5  1  0
  3  6  1  0
  5  7  1  0
  5  8  1  6
  6  9  1  0
  7 10  1  0
  8 11  1  0
  7 12  1  6
  9 13  1  6
  9 14  1  0
 10 15  1  1
 11 15  1  0
 10 16  1  0
 12 17  1  0
 16 17  1  0
M  CHG  2   4  -1  14  -1
M  END
