ucsf274-ucsf340
     RDKit          3D

 27 30  0  0  0  0  0  0  0  0999 V2000
    0.5150   10.8930   -2.2990 O   0  0  0  0  0  0  0  0  0  0  0  0
    1.0080   12.1400   -2.3190 C   0  0  2  0  0  0  0  0  0  0  0  0
    0.5130   12.6270   -1.0930 O   0  0  0  0  0  0  0  0  0  0  0  0
    0.4420   13.0670   -3.4520 C   0  0  2  0  0  0  0  0  0  0  0  0
    0.6510   12.5890   -4.9120 C   0  0  0  0  0  0  0  0  0  0  0  0
    0.7310   14.5830   -3.3370 C   0  0  0  0  0  0  0  0  0  0  0  0
   -0.2120   11.4140   -5.3610 C   0  0  1  0  0  0  0  0  0  0  0  0
    0.3120   15.3650   -4.5890 C   0  0  2  0  0  0  0  0  0  0  0  0
   -1.7540   11.6840   -5.1630 C   0  0  2  0  0  0  0  0  0  0  0  0
    0.1290   11.0430   -6.7430 N   0  0  0  0  0  0  0  0  0  0  0  0
    1.0290   16.6370   -4.9910 C   0  0  0  0  0  0  0  0  0  0  0  0
   -1.1400   15.8220   -4.5290 C   0  0  1  0  0  0  0  0  0  0  0  0
   -2.0860   12.0010   -3.8170 O   0  0  0  0  0  0  0  0  0  0  0  0
   -2.5930   10.5330   -5.5000 N   0  0  0  0  0  0  0  0  0  0  0  0
   -0.7950    9.9950   -7.1620 C   0  0  2  0  0  0  0  0  0  0  0  0
    0.0840   17.3390   -5.8490 N   0  0  0  0  0  0  0  0  0  0  0  0
   -1.1870   17.2370   -5.1500 C   0  0  1  0  0  0  0  0  0  0  0  0
   -2.2070   14.8420   -4.9310 C   0  0  0  0  0  0  0  0  0  0  0  0
    0.5220   18.6790   -6.1840 C   0  0  0  0  0  0  0  0  0  0  0  0
   -1.7300    9.4690   -6.0390 C   0  0  2  0  0  0  0  0  0  0  0  0
    0.0130    8.8450   -7.7720 C   0  0  0  0  0  0  0  0  0  0  0  0
   -3.5060   15.5290   -5.1410 C   0  0  0  0  0  0  0  0  0  0  0  0
   -2.2880   17.5530   -6.1510 C   0  0  0  0  0  0  0  0  0  0  0  0
   -0.8800    7.7700   -8.3840 C   0  0  0  0  0  0  0  0  0  0  0  0
   -2.5690    8.2800   -6.5270 C   0  0  0  0  0  0  0  0  0  0  0  0
   -3.3760   16.4710   -6.3070 C   0  0  0  0  0  0  0  0  0  0  0  0
   -2.3460    7.9300   -8.0060 C   0  0  0  0  0  0  0  0  0  0  0  0
  2  1  1  6
  2  3  1  0
  2  4  1  0
  4  5  1  6
  4  6  1  0
  7  5  1  6
  8  6  1  1
  7  9  1  0
  7 10  1  0
  8 11  1  0
  8 12  1  0
  9 13  1  1
  9 14  1  0
 10 15  1  0
 11 16  1  0
 12 17  1  0
 16 17  1  0
 12 18  1  6
 16 19  1  0
 14 20  1  0
 15 20  1  0
 15 21  1  1
 18 22  1  0
 17 23  1  6
 21 24  1  0
 20 25  1  6
 22 26  1  0
 23 26  1  0
 24 27  1  0
 25 27  1  0
M  CHG  1   1  -1
M  END
