ucsf013-ucsf264
     RDKit          3D

 31 34  0  0  0  0  0  0  0  0999 V2000
   -3.9060   14.2350    1.7220 N   0  0  0  0  0  0  0  0  0  0  0  0
   -4.8280   15.2420    1.2830 C   0  0  2  0  0  0  0  0  0  0  0  0
   -6.1530   14.8530    1.7370 N   0  0  0  0  0  0  0  0  0  0  0  0
   -4.7150   15.5390   -0.2020 C   0  0  2  0  0  0  0  0  0  0  0  0
   -5.5620   14.5960   -1.0200 C   0  0  1  0  0  0  0  0  0  0  0  0
   -7.0120   14.1390    0.8040 C   0  0  0  0  0  0  0  0  0  0  0  0
   -3.2390   15.4840   -0.6010 C   0  0  0  0  0  0  0  0  0  0  0  0
   -6.9390   14.6980   -0.5340 N   0  0  0  0  0  0  0  0  0  0  0  0
   -5.4710   14.9320   -2.5080 C   0  0  0  0  0  0  0  0  0  0  0  0
   -2.9120   14.9570   -2.0140 C   0  0  2  0  0  0  0  0  0  0  0  0
   -1.6010   15.6520   -2.4690 C   0  0  0  0  0  0  0  0  0  0  0  0
   -4.0410   15.0940   -3.0460 C   0  0  0  0  0  0  0  0  0  0  0  0
   -0.4660   14.7280   -2.9530 C   0  0  0  0  0  0  0  0  0  0  0  0
    0.1650   13.8710   -1.8470 C   0  0  0  0  0  0  0  0  0  0  0  0
    0.9890   12.8650   -2.4380 O   0  0  0  0  0  0  0  0  0  0  0  0
    0.3030   12.1100   -3.4360 C   0  0  2  0  0  0  0  0  0  0  0  0
    0.4770   10.7270   -3.1560 O   0  0  0  0  0  0  0  0  0  0  0  0
    0.8560   12.5550   -4.8260 C   0  0  0  0  0  0  0  0  0  0  0  0
    0.1580   12.0080   -6.0180 N   0  0  0  0  0  0  0  0  0  0  0  0
    1.1060   11.7230   -7.0860 N   0  0  0  0  0  0  0  0  0  0  0  0
   -0.5600   10.7290   -5.7850 C   0  0  2  0  0  0  0  0  0  0  0  0
    0.2690   10.9690   -8.0390 C   0  0  2  0  0  0  0  0  0  0  0  0
   -0.3520    9.9490   -7.1000 C   0  0  2  0  0  0  0  0  0  0  0  0
   -2.0430   10.9540   -5.4510 C   0  0  0  0  0  0  0  0  0  0  0  0
    0.9200   10.3130   -9.2650 C   0  0  0  0  0  0  0  0  0  0  0  0
   -1.5990    9.2740   -7.6420 C   0  0  0  0  0  0  0  0  0  0  0  0
   -2.8700    9.6660   -5.4640 C   0  0  0  0  0  0  0  0  0  0  0  0
    1.6060    9.1870   -8.9720 F   0  0  0  0  0  0  0  0  0  0  0  0
   -0.0270    9.9690  -10.1620 F   0  0  0  0  0  0  0  0  0  0  0  0
    1.7210   11.1510   -9.9420 F   0  0  0  0  0  0  0  0  0  0  0  0
   -2.4470    8.6610   -6.5350 C   0  0  0  0  0  0  0  0  0  0  0  0
  2  1  1  6
  2  3  1  0
  2  4  1  0
  4  5  1  0
  3  6  1  0
  4  7  1  6
  5  8  1  0
  6  8  1  0
  5  9  1  6
  7 10  1  0
 10 11  1  6
  9 12  1  0
 10 12  1  0
 11 13  1  0
 13 14  1  0
 14 15  1  0
 15 16  1  0
 16 17  1  1
 16 18  1  0
 18 19  1  0
 19 20  1  0
 19 21  1  0
 20 22  1  0
 21 23  1  0
 22 23  1  0
 21 24  1  6
 22 25  1  6
 23 26  1  6
 24 27  1  0
 25 28  1  0
 25 29  1  0
 25 30  1  0
 26 31  1  0
 27 31  1  0
M  END
