ucsf378-ucsf124
     RDKit          3D

 24 26  0  0  0  0  0  0  0  0999 V2000
   -2.4220   13.6900   -4.2580 Cl  0  0  0  0  0  0  0  0  0  0  0  0
   -0.9850   14.5990   -3.6800 C   0  0  1  0  0  0  0  0  0  0  0  0
    0.2830   13.6770   -3.5060 C   0  0  1  0  0  0  0  0  0  0  0  0
   -0.8970   15.8570   -4.5550 C   0  0  0  0  0  0  0  0  0  0  0  0
    0.1880   12.1370   -3.8380 C   0  0  1  0  0  0  0  0  0  0  0  0
    1.5980   14.3080   -3.9460 C   0  0  1  0  0  0  0  0  0  0  0  0
    0.4660   16.4710   -4.4930 C   0  0  0  0  0  0  0  0  0  0  0  0
    2.8090   13.1050   -4.4960 Cl  0  0  0  0  0  0  0  0  0  0  0  0
   -0.2580   11.3770   -2.5300 C   0  0  2  0  0  0  0  0  0  0  0  0
    1.4300   15.4150   -4.9300 C   0  0  0  0  0  0  0  0  0  0  0  0
   -0.4630   11.8210   -5.1180 N   0  0  0  0  0  0  0  0  0  0  0  0
    0.2260   12.1000   -1.4080 O   0  0  0  0  0  0  0  0  0  0  0  0
    0.2620   10.0660   -2.5030 O   0  0  0  0  0  0  0  0  0  0  0  0
   -1.4310   10.7400   -5.0270 C   0  0  1  0  0  0  0  0  0  0  0  0
    0.4390   11.5660   -6.2790 C   0  0  2  0  0  0  0  0  0  0  0  0
    1.2190   13.0260   -1.8310 C   0  0  0  0  0  0  0  0  0  0  0  0
   -2.7360   11.2140   -5.1720 O   0  0  0  0  0  0  0  0  0  0  0  0
    0.7560   12.7670   -6.9220 O   0  0  0  0  0  0  0  0  0  0  0  0
   -1.0960    9.7660   -6.1420 C   0  0  2  0  0  0  0  0  0  0  0  0
   -0.3630   10.5950   -7.1600 C   0  0  2  0  0  0  0  0  0  0  0  0
   -2.2860    9.0530   -6.7530 C   0  0  0  0  0  0  0  0  0  0  0  0
    0.3170    9.6750   -8.1680 C   0  0  0  0  0  0  0  0  0  0  0  0
   -1.8160    8.1650   -7.9040 C   0  0  0  0  0  0  0  0  0  0  0  0
   -0.7440    8.7790   -8.8380 C   0  0  0  0  0  0  0  0  0  0  0  0
  2  1  1  6
  3  2  1  6
  2  4  1  0
  3  5  1  0
  3  6  1  0
  4  7  1  0
  6  8  1  6
  5  9  1  0
  6 10  1  0
  7 10  1  0
  5 11  1  6
  9 12  1  0
  9 13  1  6
 11 14  1  0
 11 15  1  0
 12 16  1  0
 14 17  1  6
 15 18  1  6
 14 19  1  0
 15 20  1  0
 19 20  1  0
 19 21  1  6
 20 22  1  1
 21 23  1  0
 22 24  1  0
 23 24  1  0
M  END
