ucsf336-ucsf017
     RDKit          3D

 30 34  0  0  0  0  0  0  0  0999 V2000
    2.1930   12.0960   -3.3190 O   0  0  0  0  0  0  0  0  0  0  0  0
    0.9880   12.3360   -2.8370 C   0  0  2  0  0  0  0  0  0  0  0  0
    1.0940   11.9010   -1.5280 O   0  0  0  0  0  0  0  0  0  0  0  0
   -0.0940   11.4030   -3.5270 C   0  0  2  0  0  0  0  0  0  0  0  0
    0.8410   13.8670   -2.8130 C   0  0  1  0  0  0  0  0  0  0  0  0
    0.0950   10.1230   -2.9080 O   0  0  0  0  0  0  0  0  0  0  0  0
    0.0830   11.2540   -4.9760 N   0  0  0  0  0  0  0  0  0  0  0  0
    1.3110   14.2700   -4.1990 C   0  0  0  0  0  0  0  0  0  0  0  0
   -0.5130   14.3980   -2.4500 N   0  0  0  0  0  0  0  0  0  0  0  0
   -0.6630   10.2160   -5.6660 C   0  0  0  0  0  0  0  0  0  0  0  0
   -1.3060   14.5460   -3.6750 C   0  0  2  0  0  0  0  0  0  0  0  0
    0.4450   13.6430   -5.2600 C   0  0  0  0  0  0  0  0  0  0  0  0
   -0.9520   13.9970   -1.0850 C   0  0  1  0  0  0  0  0  0  0  0  0
   -0.4550   10.1570   -7.1870 C   0  0  0  0  0  0  0  0  0  0  0  0
   -2.1480   10.1860   -5.2960 C   0  0  0  0  0  0  0  0  0  0  0  0
   -2.8140   14.4260   -3.7740 C   0  0  0  0  0  0  0  0  0  0  0  0
   -0.9200   13.4320   -4.6560 C   0  0  2  0  0  0  0  0  0  0  0  0
    0.0230   14.5920   -0.1610 N   0  0  0  0  0  0  0  0  0  0  0  0
   -2.3710   14.3300   -0.5410 C   0  0  1  0  0  0  0  0  0  0  0  0
   -1.1420    8.9260   -7.7770 C   0  0  0  0  0  0  0  0  0  0  0  0
   -2.8240    8.9490   -5.8740 C   0  0  0  0  0  0  0  0  0  0  0  0
   -2.0540   13.3680   -5.6500 C   0  0  0  0  0  0  0  0  0  0  0  0
   -3.0490   14.2860   -5.1890 O   0  0  0  0  0  0  0  0  0  0  0  0
   -0.2430   14.3080    1.2410 C   0  0  0  0  0  0  0  0  0  0  0  0
   -2.2590   15.3030    0.5970 C   0  0  2  0  0  0  0  0  0  0  0  0
   -3.4360   15.0360   -1.3550 C   0  0  0  0  0  0  0  0  0  0  0  0
   -2.6150    8.8410   -7.3820 C   0  0  0  0  0  0  0  0  0  0  0  0
   -1.5550   14.7040    1.6670 N   0  0  0  0  0  0  0  0  0  0  0  0
   -3.6430   15.5470    0.9970 N   0  0  0  0  0  0  0  0  0  0  0  0
   -4.4160   15.4670   -0.2640 C   0  0  0  0  0  0  0  0  0  0  0  0
  2  1  1  6
  2  3  1  0
  2  4  1  0
  2  5  1  0
  4  6  1  1
  4  7  1  0
  5  8  1  6
  5  9  1  0
  7 10  1  0
  9 11  1  0
  8 12  1  0
 13  9  1  6
 10 14  1  0
 10 15  1  0
 11 16  1  1
 11 17  1  0
 17 12  1  6
 13 18  1  0
 13 19  1  0
 14 20  1  0
 15 21  1  0
 17 22  1  0
 16 23  1  0
 22 23  1  0
 18 24  1  0
 19 25  1  0
 19 26  1  6
 20 27  1  0
 21 27  1  0
 24 28  1  0
 25 28  1  1
 25 29  1  0
 26 30  1  0
 29 30  1  0
M  CHG  1   1  -1
M  END
