ucsf378-ucsf493
     RDKit          3D

 20 21  0  0  0  0  0  0  0  0999 V2000
   -2.2510   13.4250   -2.7210 Cl  0  0  0  0  0  0  0  0  0  0  0  0
   -0.9680   14.2020   -3.7120 C   0  0  2  0  0  0  0  0  0  0  0  0
    0.2190   13.3000   -4.1020 C   0  0  2  0  0  0  0  0  0  0  0  0
   -0.4760   15.5080   -3.0920 C   0  0  0  0  0  0  0  0  0  0  0  0
    0.7120   12.3310   -3.0320 C   0  0  1  0  0  0  0  0  0  0  0  0
    1.4540   14.0020   -4.7490 C   0  0  2  0  0  0  0  0  0  0  0  0
    0.3540   16.1630   -4.1700 C   0  0  1  0  0  0  0  0  0  0  0  0
    2.9690   13.0550   -4.5080 Cl  0  0  0  0  0  0  0  0  0  0  0  0
   -0.3370   11.5070   -2.2650 C   0  0  2  0  0  0  0  0  0  0  0  0
    1.7240   11.4270   -3.6830 C   0  0  0  0  0  0  0  0  0  0  0  0
    1.6880   15.4730   -4.3260 C   0  0  0  0  0  0  0  0  0  0  0  0
   -0.2900   15.5730   -5.3820 C   0  0  0  0  0  0  0  0  0  0  0  0
    0.0420   17.6500   -4.4680 C   0  0  0  0  0  0  0  0  0  0  0  0
   -0.3790   12.0020   -1.0600 O   0  0  0  0  0  0  0  0  0  0  0  0
    0.1350   10.1700   -2.1990 O   0  0  0  0  0  0  0  0  0  0  0  0
   -1.7600   15.3380   -5.1820 C   0  0  0  0  0  0  0  0  0  0  0  0
   -1.3510   17.8300   -5.1710 C   0  0  0  0  0  0  0  0  0  0  0  0
   -2.3980   16.6750   -5.0170 C   0  0  1  0  0  0  0  0  0  0  0  0
   -3.4130   16.7600   -6.0150 O   0  0  0  0  0  0  0  0  0  0  0  0
   -4.1940   15.5670   -6.1080 C   0  0  0  0  0  0  0  0  0  0  0  0
  2  1  1  1
  3  2  1  1
  2  4  1  0
  3  5  1  0
  3  6  1  0
  7  4  1  1
  6  8  1  1
  5  9  1  0
  5 10  1  6
  6 11  1  0
  7 11  1  0
  7 12  1  0
  7 13  1  0
  9 14  1  1
  9 15  1  0
 12 16  1  0
 13 17  1  0
 16 18  1  0
 17 18  1  0
 18 19  1  6
 19 20  1  0
M  CHG  1  14  -1
M  END
