ucsf169-ucsf412
     RDKit          3D

 25 27  0  0  0  0  0  0  0  0999 V2000
    1.0840   18.1180   -5.7190 C   0  0  0  0  0  0  0  0  0  0  0  0
    0.5730   18.1670   -4.3990 O   0  0  0  0  0  0  0  0  0  0  0  0
   -0.0820   16.9510   -3.9900 C   0  0  1  0  0  0  0  0  0  0  0  0
   -1.3950   16.7860   -4.7520 C   0  0  2  0  0  0  0  0  0  0  0  0
    0.8410   15.7200   -4.1640 C   0  0  0  0  0  0  0  0  0  0  0  0
   -2.2070   17.9770   -4.7300 O   0  0  0  0  0  0  0  0  0  0  0  0
   -2.0660   15.5290   -4.2030 C   0  0  2  0  0  0  0  0  0  0  0  0
    0.2220   14.4440   -4.8150 C   0  0  1  0  0  0  0  0  0  0  0  0
    0.8750   13.0560   -4.4640 C   0  0  0  0  0  0  0  0  0  0  0  0
   -1.9880   15.4770   -2.6560 C   0  0  0  0  0  0  0  0  0  0  0  0
   -1.3320   14.3050   -4.7480 C   0  0  0  0  0  0  0  0  0  0  0  0
    1.0490   12.6010   -2.9760 C   0  0  1  0  0  0  0  0  0  0  0  0
   -3.3400   15.4610   -1.9430 C   0  0  2  0  0  0  0  0  0  0  0  0
    0.4740   13.5240   -2.0860 O   0  0  0  0  0  0  0  0  0  0  0  0
    0.3020   11.5350   -2.7340 O   0  0  0  0  0  0  0  0  0  0  0  0
   -3.4070   15.2110   -0.4440 C   0  0  0  0  0  0  0  0  0  0  0  0
   -4.3640   14.6180   -2.6790 C   0  0  0  0  0  0  0  0  0  0  0  0
   -4.8260   15.4420    0.0810 C   0  0  1  0  0  0  0  0  0  0  0  0
   -5.7910   14.7850   -2.1410 C   0  0  0  0  0  0  0  0  0  0  0  0
   -5.8950   14.6130   -0.6310 C   0  0  2  0  0  0  0  0  0  0  0  0
   -4.9020   15.1920    1.5700 C   0  0  0  0  0  0  0  0  0  0  0  0
   -7.3060   14.9830   -0.1580 C   0  0  1  0  0  0  0  0  0  0  0  0
   -6.2620   14.5970    2.0230 C   0  0  0  0  0  0  0  0  0  0  0  0
   -8.2450   14.0960   -0.7050 O   0  0  0  0  0  0  0  0  0  0  0  0
   -7.4710   14.8930    1.2710 N   0  0  0  0  0  0  0  0  0  0  0  0
  1  2  1  0
  3  2  1  6
  3  4  1  0
  3  5  1  0
  4  6  1  1
  4  7  1  0
  5  8  1  0
  8  9  1  1
  7 10  1  1
  7 11  1  0
  8 11  1  0
  9 12  1  0
 13 10  1  6
 12 14  1  1
 12 15  1  0
 13 16  1  0
 13 17  1  0
 18 16  1  6
 17 19  1  0
 18 20  1  0
 20 19  1  6
 18 21  1  0
 20 22  1  0
 21 23  1  0
 22 24  1  6
 22 25  1  0
 23 25  1  0
M  CHG  1  15  -1
M  END
