ucsf340-ucsf278
     RDKit          3D

 27 30  0  0  0  0  0  0  0  0999 V2000
    0.2670   18.1840   -6.3140 C   0  0  0  0  0  0  0  0  0  0  0  0
   -0.0010   17.2670   -5.2150 N   0  0  0  0  0  0  0  0  0  0  0  0
    0.9900   16.1710   -5.1200 C   0  0  0  0  0  0  0  0  0  0  0  0
   -1.3170   16.6510   -5.1260 C   0  0  2  0  0  0  0  0  0  0  0  0
    0.2630   14.8010   -5.0320 C   0  0  2  0  0  0  0  0  0  0  0  0
   -1.2260   15.1330   -5.1020 C   0  0  1  0  0  0  0  0  0  0  0  0
   -2.4430   17.1200   -5.9870 C   0  0  0  0  0  0  0  0  0  0  0  0
    0.7340   14.0030   -3.7950 C   0  0  2  0  0  0  0  0  0  0  0  0
   -2.2190   14.6780   -4.0680 C   0  0  0  0  0  0  0  0  0  0  0  0
   -3.4900   15.9950   -5.9000 C   0  0  0  0  0  0  0  0  0  0  0  0
    0.2020   12.5020   -3.7300 C   0  0  0  0  0  0  0  0  0  0  0  0
   -3.5380   15.3290   -4.4930 C   0  0  0  0  0  0  0  0  0  0  0  0
    0.6520   14.8230   -2.4430 C   0  0  1  0  0  0  0  0  0  0  0  0
    0.7320   11.6380   -2.4940 C   0  0  1  0  0  0  0  0  0  0  0  0
   -0.4250   14.5470   -1.3720 C   0  0  2  0  0  0  0  0  0  0  0  0
    1.9320   14.3300   -1.8590 C   0  0  0  0  0  0  0  0  0  0  0  0
    0.1220   12.1280   -1.2890 O   0  0  0  0  0  0  0  0  0  0  0  0
    0.4030   10.3350   -2.5320 O   0  0  0  0  0  0  0  0  0  0  0  0
   -0.1010   15.2200    0.2560 Cl  0  0  0  0  0  0  0  0  0  0  0  0
   -0.6440   13.0710   -1.2300 C   0  0  1  0  0  0  0  0  0  0  0  0
    1.8720   12.8910   -2.3020 C   0  0  0  0  0  0  0  0  0  0  0  0
   -1.9860   12.5890   -1.8210 C   0  0  0  0  0  0  0  0  0  0  0  0
    0.4730   12.2240   -1.9540 C   0  0  2  0  0  0  0  0  0  0  0  0
   -1.6060   11.3240   -2.5800 C   0  0  2  0  0  0  0  0  0  0  0  0
   -0.2830   11.7060   -3.1160 N   0  0  0  0  0  0  0  0  0  0  0  0
   -2.6200   10.9300   -3.6590 C   0  0  0  0  0  0  0  0  0  0  0  0
   -3.9010   10.6620   -3.0930 O   0  0  0  0  0  0  0  0  0  0  0  0
  1  2  1  0
  2  3  1  0
  2  4  1  0
  5  3  1  1
  4  6  1  0
  5  6  1  0
  4  7  1  6
  5  8  1  0
  6  9  1  1
  7 10  1  0
  8 11  1  1
  9 12  1  0
 10 12  1  0
  8 13  1  0
 11 14  1  0
 13 15  1  0
 13 16  1  1
 14 17  1  1
 14 18  1  0
 15 19  1  1
 15 20  1  0
 16 21  1  0
 20 22  1  6
 20 23  1  0
 23 21  1  6
 22 24  1  0
 23 25  1  0
 24 25  1  0
 24 26  1  6
 26 27  1  0
M  CHG  1  18  -1
M  END
