ucsf110-ucsf260
     RDKit          3D

 26 29  0  0  0  0  0  0  0  0999 V2000
   -0.1970   16.0170   -2.7520 C   0  0  0  0  0  0  0  0  0  0  0  0
   -1.1120   14.8370   -2.4410 C   0  0  1  0  0  0  0  0  0  0  0  0
   -2.5530   15.0840   -2.9260 C   0  0  0  0  0  0  0  0  0  0  0  0
   -0.5000   13.6180   -3.1590 C   0  0  0  0  0  0  0  0  0  0  0  0
   -1.2190   14.4260   -0.9480 C   0  0  2  0  0  0  0  0  0  0  0  0
    0.7730   13.3210   -2.5810 O   0  0  0  0  0  0  0  0  0  0  0  0
   -3.3730   15.3620   -1.6740 C   0  0  0  0  0  0  0  0  0  0  0  0
   -2.6740   14.6180   -0.5310 C   0  0  2  0  0  0  0  0  0  0  0  0
   -0.3460   15.1070    0.0050 N   0  0  0  0  0  0  0  0  0  0  0  0
    1.4800   12.2850   -3.2540 C   0  0  1  0  0  0  0  0  0  0  0  0
   -2.7100   15.3200    0.8070 C   0  0  1  0  0  0  0  0  0  0  0  0
   -0.4660   14.4960    1.2880 C   0  0  0  0  0  0  0  0  0  0  0  0
   -4.0150   15.2650    1.4390 N   0  0  0  0  0  0  0  0  0  0  0  0
    0.7830   11.1680   -3.0970 O   0  0  0  0  0  0  0  0  0  0  0  0
    1.5400   12.6900   -4.7670 C   0  0  0  0  0  0  0  0  0  0  0  0
   -1.8140   14.7480    1.7730 N   0  0  0  0  0  0  0  0  0  0  0  0
    0.2520   13.2140   -5.4420 C   0  0  0  0  0  0  0  0  0  0  0  0
   -0.7570   12.2390   -5.9230 N   0  0  0  0  0  0  0  0  0  0  0  0
   -1.8210   11.9100   -4.9820 C   0  0  0  0  0  0  0  0  0  0  0  0
   -0.2520   10.9360   -6.3090 C   0  0  1  0  0  0  0  0  0  0  0  0
   -2.3260   10.5660   -5.3740 N   0  0  0  0  0  0  0  0  0  0  0  0
   -1.5680   10.2720   -6.6050 C   0  0  2  0  0  0  0  0  0  0  0  0
    0.6460   10.9960   -7.5390 C   0  0  0  0  0  0  0  0  0  0  0  0
   -1.4090    8.8230   -7.0150 C   0  0  0  0  0  0  0  0  0  0  0  0
    0.5160    9.7590   -8.4260 C   0  0  0  0  0  0  0  0  0  0  0  0
   -0.0720    8.5360   -7.7000 C   0  0  0  0  0  0  0  0  0  0  0  0
  2  1  1  1
  2  3  1  0
  2  4  1  0
  2  5  1  0
  4  6  1  0
  3  7  1  0
  5  8  1  0
  8  7  1  6
  5  9  1  1
  6 10  1  0
  8 11  1  0
  9 12  1  0
 11 13  1  1
 10 14  1  6
 10 15  1  0
 11 16  1  0
 12 16  1  0
 15 17  1  0
 17 18  1  0
 18 19  1  0
 18 20  1  0
 19 21  1  0
 20 22  1  0
 21 22  1  0
 20 23  1  6
 22 24  1  1
 23 25  1  0
 24 26  1  0
 25 26  1  0
M  CHG  1  14  -1
M  END
