ucsf339-ucsf028
     RDKit          3D

 27 30  0  0  0  0  0  0  0  0999 V2000
    1.2760   14.4910   -2.6440 O   0  0  0  0  0  0  0  0  0  0  0  0
    0.4610   13.4740   -2.3950 C   0  0  1  0  0  0  0  0  0  0  0  0
    0.9170   13.0170   -1.1510 O   0  0  0  0  0  0  0  0  0  0  0  0
   -1.0420   13.9110   -2.3240 C   0  0  1  0  0  0  0  0  0  0  0  0
    0.7550   12.4890   -3.3860 N   0  0  0  0  0  0  0  0  0  0  0  0
   -1.5630   14.5680   -0.9920 C   0  0  1  0  0  0  0  0  0  0  0  0
   -1.4460   14.8440   -3.4970 C   0  0  0  0  0  0  0  0  0  0  0  0
    0.4610   12.9080   -4.7330 C   0  0  0  0  0  0  0  0  0  0  0  0
    0.0980   11.2110   -3.1630 N   0  0  0  0  0  0  0  0  0  0  0  0
   -3.0870   15.0720   -1.1980 C   0  0  1  0  0  0  0  0  0  0  0  0
   -2.8920   14.8370   -3.7540 N   0  0  0  0  0  0  0  0  0  0  0  0
   -1.4230   13.6870    0.2470 C   0  0  0  0  0  0  0  0  0  0  0  0
   -0.6850   15.7320   -0.5690 N   0  0  0  0  0  0  0  0  0  0  0  0
   -0.9700   12.4470   -4.8630 C   0  0  0  0  0  0  0  0  0  0  0  0
   -0.9090   11.0730   -4.2110 C   0  0  1  0  0  0  0  0  0  0  0  0
   -2.9640   16.2620   -0.3340 N   0  0  0  0  0  0  0  0  0  0  0  0
   -0.5430   10.1060   -5.2030 O   0  0  0  0  0  0  0  0  0  0  0  0
   -3.4830   15.5520   -2.6440 C   0  0  0  0  0  0  0  0  0  0  0  0
   -4.2360   14.5070   -0.3030 C   0  0  0  0  0  0  0  0  0  0  0  0
   -0.9380   14.5450    1.3280 N   0  0  0  0  0  0  0  0  0  0  0  0
    0.0560   15.2150    0.5460 C   0  0  0  0  0  0  0  0  0  0  0  0
   -0.4020   10.6450   -6.5110 C   0  0  0  0  0  0  0  0  0  0  0  0
   -3.8920   14.4620    1.1890 C   0  0  0  0  0  0  0  0  0  0  0  0
   -5.1170   13.3030   -0.6260 C   0  0  0  0  0  0  0  0  0  0  0  0
   -5.1010   15.0840    1.7770 C   0  0  0  0  0  0  0  0  0  0  0  0
   -6.1370   13.0820    0.5030 C   0  0  0  0  0  0  0  0  0  0  0  0
   -6.3540   14.2760    1.4530 C   0  0  0  0  0  0  0  0  0  0  0  0
  2  1  1  6
  2  3  1  0
  2  4  1  0
  2  5  1  0
  4  6  1  0
  4  7  1  6
  5  8  1  0
  5  9  1  0
  6 10  1  0
  7 11  1  0
  6 12  1  1
  6 13  1  0
  8 14  1  0
  9 15  1  0
 14 15  1  0
 10 16  1  1
 15 17  1  6
 10 18  1  0
 11 18  1  0
 10 19  1  0
 12 20  1  0
 13 21  1  0
 20 21  1  0
 17 22  1  0
 19 23  1  0
 19 24  1  0
 23 25  1  0
 24 26  1  0
 25 27  1  0
 26 27  1  0
M  CHG  1   1  -1
M  END
