ucsf213-ucsf241
     RDKit          3D

 23 26  0  0  0  0  0  0  0  0999 V2000
    0.5150   10.6230   -2.5570 O   0  0  0  0  0  0  0  0  0  0  0  0
    1.1340   11.8200   -2.5860 C   0  0  2  0  0  0  0  0  0  0  0  0
    0.6600   12.4620   -1.4070 O   0  0  0  0  0  0  0  0  0  0  0  0
    0.7660   12.5650   -3.9110 C   0  0  0  0  0  0  0  0  0  0  0  0
    0.9190   13.8410   -1.2510 C   0  0  0  0  0  0  0  0  0  0  0  0
    0.1820   13.9870   -3.8400 C   0  0  1  0  0  0  0  0  0  0  0  0
    1.0560   15.2030   -4.2530 C   0  0  0  0  0  0  0  0  0  0  0  0
   -1.4010   14.1940   -4.7380 S   0  0  0  0  0  0  0  0  0  0  0  0
   -0.3190   14.2490   -0.4860 C   0  0  2  0  0  0  0  0  0  0  0  0
    0.1990   16.1780   -5.0770 C   0  0  1  0  0  0  0  0  0  0  0  0
   -1.2310   15.9840   -4.6120 C   0  0  1  0  0  0  0  0  0  0  0  0
   -1.2220   15.2200   -1.2310 C   0  0  0  0  0  0  0  0  0  0  0  0
   -0.2090   14.6270    0.9920 C   0  0  0  0  0  0  0  0  0  0  0  0
    0.5600   17.6580   -5.1280 C   0  0  0  0  0  0  0  0  0  0  0  0
   -2.3050   16.7400   -5.3890 C   0  0  0  0  0  0  0  0  0  0  0  0
   -2.5390   14.8630   -0.6160 C   0  0  2  0  0  0  0  0  0  0  0  0
   -1.5240   14.7340    1.6500 N   0  0  0  0  0  0  0  0  0  0  0  0
   -0.4350   18.3810   -6.0400 C   0  0  0  0  0  0  0  0  0  0  0  0
   -1.9080   18.1930   -5.6690 C   0  0  0  0  0  0  0  0  0  0  0  0
   -3.8410   15.4000   -1.1550 C   0  0  0  0  0  0  0  0  0  0  0  0
   -2.5410   15.3290    0.8200 C   0  0  2  0  0  0  0  0  0  0  0  0
   -4.6680   15.5290    0.1260 C   0  0  0  0  0  0  0  0  0  0  0  0
   -3.8640   14.9000    1.1740 N   0  0  0  0  0  0  0  0  0  0  0  0
  2  1  1  6
  2  3  1  0
  2  4  1  0
  3  5  1  0
  6  4  1  6
  6  7  1  0
  6  8  1  0
  9  5  1  6
 10  7  1  1
  8 11  1  0
 10 11  1  0
  9 12  1  0
  9 13  1  0
 10 14  1  0
 11 15  1  6
 16 12  1  6
 13 17  1  0
 14 18  1  0
 15 19  1  0
 18 19  1  0
 16 20  1  0
 16 21  1  0
 21 17  1  1
 20 22  1  0
 21 23  1  0
 22 23  1  0
M  CHG  1   1  -1
M  END
