ucsf493-ucsf584
     RDKit          3D

 28 31  0  0  0  0  0  0  0  0999 V2000
   -4.3670   15.6600   -6.7130 C   0  0  0  0  0  0  0  0  0  0  0  0
   -3.7960   15.9790   -5.4060 N   0  0  0  0  0  0  0  0  0  0  0  0
   -4.2030   14.9660   -4.4480 C   0  0  0  0  0  0  0  0  0  0  0  0
   -2.3390   16.1430   -5.4860 C   0  0  2  0  0  0  0  0  0  0  0  0
   -1.5400   14.8610   -5.1220 C   0  0  0  0  0  0  0  0  0  0  0  0
   -1.7900   17.3440   -4.6990 C   0  0  0  0  0  0  0  0  0  0  0  0
   -3.7910   15.3160   -3.0330 C   0  0  0  0  0  0  0  0  0  0  0  0
   -0.4650   15.0510   -4.0440 C   0  0  2  0  0  0  0  0  0  0  0  0
   -0.2820   17.4860   -4.8300 C   0  0  0  0  0  0  0  0  0  0  0  0
   -3.8860   14.1550   -2.0870 C   0  0  1  0  0  0  0  0  0  0  0  0
    0.4360   16.2620   -4.2870 C   0  0  2  0  0  0  0  0  0  0  0  0
    0.6130   13.9610   -3.8590 C   0  0  1  0  0  0  0  0  0  0  0  0
   -2.7510   14.3290   -1.1700 N   0  0  0  0  0  0  0  0  0  0  0  0
   -5.2680   14.0460   -1.4330 C   0  0  0  0  0  0  0  0  0  0  0  0
    0.2760   12.4500   -3.9410 C   0  0  0  0  0  0  0  0  0  0  0  0
    1.4550   15.7750   -5.1990 N   0  0  0  0  0  0  0  0  0  0  0  0
    1.6670   14.3500   -4.8630 C   0  0  0  0  0  0  0  0  0  0  0  0
   -2.9350   15.3930   -0.2140 C   0  0  0  0  0  0  0  0  0  0  0  0
   -5.4720   15.0870   -0.3440 C   0  0  1  0  0  0  0  0  0  0  0  0
   -0.1050   11.7440   -2.5980 C   0  0  1  0  0  0  0  0  0  0  0  0
   -6.7890   14.8310    0.4380 C   0  0  0  0  0  0  0  0  0  0  0  0
   -4.2280   15.1770    0.5720 C   0  0  0  0  0  0  0  0  0  0  0  0
    0.4680   10.4460   -2.5760 O   0  0  0  0  0  0  0  0  0  0  0  0
    0.4850   12.2690   -1.5410 O   0  0  0  0  0  0  0  0  0  0  0  0
   -6.7150   14.8980    1.9010 N   0  0  0  0  0  0  0  0  0  0  0  0
   -7.4760   13.5910    0.2050 N   0  0  0  0  0  0  0  0  0  0  0  0
   -8.6050   13.7230    1.1370 C   0  0  0  0  0  0  0  0  0  0  0  0
   -7.9830   14.3440    2.3800 C   0  0  0  0  0  0  0  0  0  0  0  0
  1  2  1  0
  2  3  1  0
  4  2  1  1
  4  5  1  0
  4  6  1  0
  3  7  1  0
  8  5  1  6
  6  9  1  0
 10  7  1  6
  8 11  1  0
 11  9  1  6
  8 12  1  0
 10 13  1  0
 10 14  1  0
 12 15  1  6
 11 16  1  0
 12 17  1  0
 16 17  1  0
 13 18  1  0
 14 19  1  0
 15 20  1  0
 19 21  1  1
 18 22  1  0
 19 22  1  0
 20 23  1  6
 20 24  1  0
 21 25  1  0
 21 26  1  0
 26 27  1  0
 25 28  1  0
 27 28  1  0
M  CHG  1  24  -1
M  END
