ucsf151-ucsf004
     RDKit          3D

 18 20  0  0  0  0  0  0  0  0999 V2000
    0.1170   11.8860   -2.2920 O   0  0  0  0  0  0  0  0  0  0  0  0
   -0.1870   12.9060   -1.4750 C   0  0  1  0  0  0  0  0  0  0  0  0
    1.1140   13.4540   -1.3340 O   0  0  0  0  0  0  0  0  0  0  0  0
   -1.1240   14.3800   -2.2620 S   0  0  0  0  0  0  0  0  0  0  0  0
   -2.3690   13.7330   -3.4130 C   0  0  0  0  0  0  0  0  0  0  0  0
   -1.1040   15.0120   -4.0710 C   0  0  0  0  0  0  0  0  0  0  0  0
   -0.4230   15.5780   -1.1170 N   0  0  0  0  0  0  0  0  0  0  0  0
   -2.1700   15.1790   -0.9660 C   0  0  2  0  0  0  0  0  0  0  0  0
   -2.7250   14.6200   -4.5530 C   0  0  2  0  0  0  0  0  0  0  0  0
   -1.0760   14.1590   -5.1510 N   0  0  0  0  0  0  0  0  0  0  0  0
   -0.0100   15.2190    0.1330 C   0  0  0  0  0  0  0  0  0  0  0  0
   -2.2500   14.8770    0.3820 C   0  0  1  0  0  0  0  0  0  0  0  0
   -3.6120   15.2090   -1.3150 C   0  0  0  0  0  0  0  0  0  0  0  0
   -3.9050   15.3250   -4.6340 O   0  0  0  0  0  0  0  0  0  0  0  0
   -2.3850   13.8740   -5.7580 C   0  0  0  0  0  0  0  0  0  0  0  0
   -1.1230   15.5320    1.0930 N   0  0  0  0  0  0  0  0  0  0  0  0
   -3.3320   15.8100    0.8270 N   0  0  0  0  0  0  0  0  0  0  0  0
   -4.3880   15.1600    0.0230 C   0  0  0  0  0  0  0  0  0  0  0  0
  2  1  1  6
  2  3  1  0
  2  4  1  0
  4  5  1  0
  4  6  1  0
  4  7  1  0
  4  8  1  0
  5  9  1  0
  6 10  1  0
  7 11  1  0
  8 12  1  0
  8 13  1  6
  9 14  1  6
  9 15  1  0
 10 15  1  0
 11 16  1  0
 12 16  1  1
 12 17  1  0
 13 18  1  0
 17 18  1  0
M  CHG  1   1  -1
M  END
