ucsf404-ucsf422
     RDKit          3D

 27 30  0  0  0  0  0  0  0  0999 V2000
   -6.7650   15.3480   -2.2650 Cl  0  0  0  0  0  0  0  0  0  0  0  0
   -5.2520   14.5710   -1.6930 C   0  0  2  0  0  0  0  0  0  0  0  0
   -4.9670   15.0790   -0.3010 C   0  0  1  0  0  0  0  0  0  0  0  0
   -4.0440   14.7410   -2.6240 C   0  0  1  0  0  0  0  0  0  0  0  0
   -6.1450   14.9040    0.5760 N   0  0  0  0  0  0  0  0  0  0  0  0
   -3.8310   14.2810    0.2940 C   0  0  2  0  0  0  0  0  0  0  0  0
   -2.6510   14.5070   -1.9340 C   0  0  0  0  0  0  0  0  0  0  0  0
   -4.2060   13.7700   -3.8200 C   0  0  0  0  0  0  0  0  0  0  0  0
   -5.6420   14.4470    1.8350 C   0  0  1  0  0  0  0  0  0  0  0  0
   -3.9250   14.9540    1.9290 S   0  0  0  0  0  0  0  0  0  0  0  0
   -2.5130   14.4580   -0.3990 C   0  0  0  0  0  0  0  0  0  0  0  0
   -4.4500   14.4800   -5.1400 C   0  0  0  0  0  0  0  0  0  0  0  0
   -6.4380   15.0490    2.8530 N   0  0  0  0  0  0  0  0  0  0  0  0
   -3.8690   15.7590   -5.0360 O   0  0  0  0  0  0  0  0  0  0  0  0
   -2.5970   15.8540   -5.6540 C   0  0  1  0  0  0  0  0  0  0  0  0
   -2.0600   17.2620   -5.3690 C   0  0  0  0  0  0  0  0  0  0  0  0
   -1.6490   14.7170   -5.1750 C   0  0  0  0  0  0  0  0  0  0  0  0
   -0.5570   15.2080   -4.2320 C   0  0  1  0  0  0  0  0  0  0  0  0
   -0.5480   17.4480   -5.5260 C   0  0  0  0  0  0  0  0  0  0  0  0
    0.5610   14.2500   -3.7500 C   0  0  1  0  0  0  0  0  0  0  0  0
    0.2300   16.4390   -4.6890 C   0  0  2  0  0  0  0  0  0  0  0  0
    0.3850   12.7100   -3.8680 C   0  0  0  0  0  0  0  0  0  0  0  0
    1.8260   14.8370   -4.3710 C   0  0  0  0  0  0  0  0  0  0  0  0
    1.3440   15.8180   -5.3690 N   0  0  0  0  0  0  0  0  0  0  0  0
    0.8590   11.8860   -2.6290 C   0  0  2  0  0  0  0  0  0  0  0  0
    0.2070   10.7260   -2.5120 O   0  0  0  0  0  0  0  0  0  0  0  0
    0.4420   12.5280   -1.4430 O   0  0  0  0  0  0  0  0  0  0  0  0
  2  1  1  6
  2  3  1  0
  2  4  1  0
  3  5  1  1
  3  6  1  0
  4  7  1  0
  4  8  1  6
  5  9  1  0
  6 10  1  0
  9 10  1  0
  6 11  1  6
  7 11  1  0
  8 12  1  0
  9 13  1  1
 12 14  1  0
 15 14  1  1
 15 16  1  0
 15 17  1  0
 18 17  1  6
 16 19  1  0
 18 20  1  0
 18 21  1  0
 21 19  1  6
 20 22  1  6
 20 23  1  0
 21 24  1  0
 23 24  1  0
 22 25  1  0
 25 26  1  6
 25 27  1  0
M  CHG  1  26  -1
M  END
