ucsf170-ucsf135
     RDKit          3D

 25 27  0  0  0  0  0  0  0  0999 V2000
   -5.0760   14.9430    1.0690 C   0  0  0  0  0  0  0  0  0  0  0  0
   -3.3190   15.2870    1.3180 S   0  0  0  0  0  0  0  0  0  0  0  0
   -2.7150   15.4390   -0.4080 C   0  0  1  0  0  0  0  0  0  0  0  0
   -1.5450   14.5450   -0.7160 C   0  0  0  0  0  0  0  0  0  0  0  0
   -3.8240   15.1630   -1.4170 C   0  0  0  0  0  0  0  0  0  0  0  0
   -0.8610   15.0290   -2.0110 C   0  0  1  0  0  0  0  0  0  0  0  0
   -3.3800   15.3050   -2.8760 C   0  0  0  0  0  0  0  0  0  0  0  0
    0.3610   14.1000   -2.3100 C   0  0  2  0  0  0  0  0  0  0  0  0
   -1.8750   15.2060   -3.2090 C   0  0  2  0  0  0  0  0  0  0  0  0
   -1.8260   14.1230   -4.0950 O   0  0  0  0  0  0  0  0  0  0  0  0
    1.5350   14.6180   -1.7140 O   0  0  0  0  0  0  0  0  0  0  0  0
    0.7050   14.1770   -3.5740 O   0  0  0  0  0  0  0  0  0  0  0  0
   -2.0670   12.9720   -3.3020 C   0  0  0  0  0  0  0  0  0  0  0  0
   -2.1240   11.8490   -4.1300 O   0  0  0  0  0  0  0  0  0  0  0  0
   -0.7910   11.0750   -4.4980 S   0  0  2  0  0  0  0  0  0  0  0  0
   -0.3440   10.0250   -3.3910 O   0  0  0  0  0  0  0  0  0  0  0  0
    0.4680   11.8950   -5.1680 N   0  0  0  0  0  0  0  0  0  0  0  0
   -1.4540   10.2070   -5.8960 C   0  0  1  0  0  0  0  0  0  0  0  0
    0.4150   11.8570   -6.6140 C   0  0  2  0  0  0  0  0  0  0  0  0
   -0.5960   10.7420   -7.0670 C   0  0  1  0  0  0  0  0  0  0  0  0
   -1.4800    8.7050   -5.7750 C   0  0  0  0  0  0  0  0  0  0  0  0
    1.7040   11.6510   -7.1050 O   0  0  0  0  0  0  0  0  0  0  0  0
   -1.9730    8.0920   -7.0790 C   0  0  0  0  0  0  0  0  0  0  0  0
   -0.0780    9.5960   -7.9310 C   0  0  0  0  0  0  0  0  0  0  0  0
   -1.1450    8.5600   -8.2820 C   0  0  0  0  0  0  0  0  0  0  0  0
  1  2  1  0
  3  2  1  1
  3  4  1  0
  3  5  1  0
  6  4  1  1
  5  7  1  0
  6  8  1  0
  6  9  1  0
  7  9  1  0
  9 10  1  6
  8 11  1  1
  8 12  1  0
 10 13  1  0
 13 14  1  0
 15 14  1  0
 15 16  1  1
 15 17  1  0
 15 18  1  0
 17 19  1  0
 18 20  1  0
 19 20  1  0
 18 21  1  1
 19 22  1  6
 21 23  1  0
 20 24  1  1
 23 25  1  0
 24 25  1  0
M  CHG  1  12  -1
M  END
