ucsf338-ucsf333
     RDKit          3D

 20 21  0  0  0  0  0  0  0  0999 V2000
   -8.8530   14.2330   -0.2350 O   0  0  0  0  0  0  0  0  0  0  0  0
   -7.5710   14.5770    0.3670 N   0  0  0  0  0  0  0  0  0  0  0  0
   -6.6470   15.0290   -0.6780 C   0  0  2  0  0  0  0  0  0  0  0  0
   -7.0820   14.5180   -1.9150 O   0  0  0  0  0  0  0  0  0  0  0  0
   -5.1580   14.6670   -0.3950 C   0  0  1  0  0  0  0  0  0  0  0  0
   -4.0780   15.4570   -1.1970 C   0  0  2  0  0  0  0  0  0  0  0  0
   -4.8890   14.7550    1.1090 C   0  0  0  0  0  0  0  0  0  0  0  0
   -4.4400   15.3280   -2.5910 O   0  0  0  0  0  0  0  0  0  0  0  0
   -2.6240   14.9450   -0.9320 C   0  0  1  0  0  0  0  0  0  0  0  0
   -3.5380   15.3850    1.4270 C   0  0  0  0  0  0  0  0  0  0  0  0
   -2.3820   14.8300    0.5890 C   0  0  0  0  0  0  0  0  0  0  0  0
   -2.5250   13.6170   -1.7270 C   0  0  0  0  0  0  0  0  0  0  0  0
   -1.1330   15.8500   -1.6280 S   0  0  0  0  0  0  0  0  0  0  0  0
   -0.5390   14.3310   -2.4310 C   0  0  1  0  0  0  0  0  0  0  0  0
   -1.7990   13.8800   -2.9670 N   0  0  0  0  0  0  0  0  0  0  0  0
    0.5890   14.3620   -3.4680 C   0  0  0  0  0  0  0  0  0  0  0  0
    1.0940   12.9110   -3.6650 C   0  0  0  0  0  0  0  0  0  0  0  0
    0.3630   11.9480   -2.6820 C   0  0  2  0  0  0  0  0  0  0  0  0
    0.9560   11.9690   -1.5170 O   0  0  0  0  0  0  0  0  0  0  0  0
    0.4950   10.6040   -3.0560 O   0  0  0  0  0  0  0  0  0  0  0  0
  1  2  1  0
  2  3  1  0
  3  4  1  6
  3  5  1  0
  5  6  1  0
  5  7  1  1
  6  8  1  6
  6  9  1  0
  7 10  1  0
  9 11  1  1
 10 11  1  0
  9 12  1  0
  9 13  1  0
 13 14  1  0
 12 15  1  0
 14 15  1  0
 14 16  1  6
 16 17  1  0
 17 18  1  0
 18 19  1  1
 18 20  1  0
M  CHG  1  19  -1
M  END
