ucsf336-ucsf371
     RDKit          3D

 22 23  0  0  0  0  0  0  0  0999 V2000
    2.3480   13.6190   -4.2340 O   0  0  0  0  0  0  0  0  0  0  0  0
    1.1530   13.3180   -3.7470 C   0  0  2  0  0  0  0  0  0  0  0  0
    1.2070   13.1310   -2.3180 O   0  0  0  0  0  0  0  0  0  0  0  0
    0.6360   11.9860   -4.4440 C   0  0  1  0  0  0  0  0  0  0  0  0
    0.2990   11.0420   -3.4180 O   0  0  0  0  0  0  0  0  0  0  0  0
   -0.4680   11.9310   -5.3920 N   0  0  0  0  0  0  0  0  0  0  0  0
    0.6820   14.2420   -1.5810 C   0  0  0  0  0  0  0  0  0  0  0  0
    0.1470   15.2530   -2.4560 O   0  0  0  0  0  0  0  0  0  0  0  0
   -0.7940   10.5600   -5.7710 C   0  0  0  0  0  0  0  0  0  0  0  0
   -1.0760   14.8510   -3.0600 C   0  0  2  0  0  0  0  0  0  0  0  0
   -0.6890   10.3630   -7.2970 C   0  0  0  0  0  0  0  0  0  0  0  0
   -2.1990   10.2200   -5.2580 C   0  0  0  0  0  0  0  0  0  0  0  0
   -1.0560   15.2180   -4.4410 O   0  0  0  0  0  0  0  0  0  0  0  0
   -1.1300    8.9850   -7.8100 C   0  0  0  0  0  0  0  0  0  0  0  0
   -3.0750    9.4770   -6.2650 C   0  0  0  0  0  0  0  0  0  0  0  0
   -2.3010   15.5310   -2.4370 C   0  0  1  0  0  0  0  0  0  0  0  0
   -2.3210    8.4150   -7.0610 C   0  0  0  0  0  0  0  0  0  0  0  0
   -3.6460   14.9750   -2.9180 C   0  0  0  0  0  0  0  0  0  0  0  0
   -2.3640   15.4020   -0.6140 S   0  0  0  0  0  0  0  0  0  0  0  0
   -4.0490   14.7580   -0.6110 C   0  0  2  0  0  0  0  0  0  0  0  0
   -4.6610   15.1090   -1.8740 N   0  0  0  0  0  0  0  0  0  0  0  0
   -4.8390   15.3280    0.5500 C   0  0  0  0  0  0  0  0  0  0  0  0
  2  1  1  6
  2  3  1  0
  2  4  1  0
  4  5  1  1
  4  6  1  0
  3  7  1  0
  7  8  1  0
  6  9  1  0
  8 10  1  0
  9 11  1  0
  9 12  1  0
 10 13  1  6
 11 14  1  0
 12 15  1  0
 10 16  1  0
 14 17  1  0
 15 17  1  0
 16 18  1  6
 16 19  1  0
 19 20  1  0
 18 21  1  0
 20 21  1  0
 20 22  1  1
M  CHG  1   1  -1
M  END
