ucsf147-ucsf337
     RDKit          3D

 18 19  0  0  0  0  0  0  0  0999 V2000
    1.4400   12.8040   -5.3010 C   0  0  0  0  0  0  0  0  0  0  0  0
    0.2430   13.6920   -5.0250 C   0  0  1  0  0  0  0  0  0  0  0  0
   -0.9610   13.0610   -5.5420 O   0  0  0  0  0  0  0  0  0  0  0  0
   -0.0980   14.1590   -3.6120 C   0  0  2  0  0  0  0  0  0  0  0  0
    0.6540   13.6580   -2.3410 C   0  0  2  0  0  0  0  0  0  0  0  0
   -1.9970   13.0550   -4.4910 N   0  0  0  0  0  0  0  0  0  0  0  0
   -1.6310   14.2280   -3.7070 C   0  0  1  0  0  0  0  0  0  0  0  0
   -0.1260   12.9070   -1.4260 O   0  0  0  0  0  0  0  0  0  0  0  0
    1.0090   14.7170   -1.6420 O   0  0  0  0  0  0  0  0  0  0  0  0
   -2.6050   14.7010   -2.5820 C   0  0  2  0  0  0  0  0  0  0  0  0
   -2.7490   14.1530   -1.1520 C   0  0  0  0  0  0  0  0  0  0  0  0
   -3.9640   15.0850   -3.1610 C   0  0  0  0  0  0  0  0  0  0  0  0
   -3.7380   14.9440   -0.2560 C   0  0  2  0  0  0  0  0  0  0  0  0
   -5.1580   14.6620   -2.3110 C   0  0  2  0  0  0  0  0  0  0  0  0
   -6.3850   15.0470   -3.0180 N   0  0  0  0  0  0  0  0  0  0  0  0
   -3.9970   14.1730    1.5080 Br  0  0  0  0  0  0  0  0  0  0  0  0
   -5.0950   15.2640   -0.9000 C   0  0  1  0  0  0  0  0  0  0  0  0
   -6.3220   14.8410   -0.0380 C   0  0  0  0  0  0  0  0  0  0  0  0
  2  1  1  1
  2  3  1  0
  2  4  1  0
  4  5  1  1
  3  6  1  0
  4  7  1  0
  7  6  1  1
  5  8  1  1
  5  9  1  0
  7 10  1  0
 10 11  1  1
 10 12  1  0
 11 13  1  0
 12 14  1  0
 14 15  1  6
 13 16  1  1
 13 17  1  0
 14 17  1  0
 17 18  1  1
M  CHG  1   9  -1
M  END
