ucsf114-ucsf339
     RDKit          3D

 23 26  0  0  0  0  0  0  0  0999 V2000
    0.6760   18.0510   -4.5540 C   0  0  0  0  0  0  0  0  0  0  0  0
   -0.4950   17.5510   -5.3950 C   0  0  0  0  0  0  0  0  0  0  0  0
   -1.5260   18.6540   -5.6160 C   0  0  0  0  0  0  0  0  0  0  0  0
   -1.0900   16.4510   -4.6950 O   0  0  0  0  0  0  0  0  0  0  0  0
   -0.3260   15.2460   -4.6510 C   0  0  0  0  0  0  0  0  0  0  0  0
    0.5360   15.2070   -3.3750 C   0  0  1  0  0  0  0  0  0  0  0  0
   -0.1800   14.9390   -2.0290 C   0  0  2  0  0  0  0  0  0  0  0  0
    1.5400   14.0480   -3.4530 C   0  0  0  0  0  0  0  0  0  0  0  0
    1.8450   13.8150   -2.0300 N   0  0  0  0  0  0  0  0  0  0  0  0
    0.5100   13.7280   -1.4720 C   0  0  1  0  0  0  0  0  0  0  0  0
   -1.6840   15.1050   -1.5460 C   0  0  2  0  0  0  0  0  0  0  0  0
   -1.0520   15.9080   -0.3510 C   0  0  0  0  0  0  0  0  0  0  0  0
    0.4880   13.8140   -0.0380 N   0  0  0  0  0  0  0  0  0  0  0  0
   -3.0200   14.5240   -0.6620 C   0  0  0  0  0  0  0  0  0  0  0  0
   -2.7440   15.8480   -2.3600 C   0  0  0  0  0  0  0  0  0  0  0  0
   -0.1450   15.0050    0.5450 C   0  0  2  0  0  0  0  0  0  0  0  0
   -2.9460   14.5090    0.8760 C   0  0  0  0  0  0  0  0  0  0  0  0
   -4.2950   13.7500   -1.1280 C   0  0  0  0  0  0  0  0  0  0  0  0
   -3.3900   15.9890   -0.9700 C   0  0  0  0  0  0  0  0  0  0  0  0
   -0.8620   14.5690    1.6960 O   0  0  0  0  0  0  0  0  0  0  0  0
   -4.2930   14.4360    1.5670 C   0  0  0  0  0  0  0  0  0  0  0  0
   -5.6000   14.3420   -0.5810 C   0  0  0  0  0  0  0  0  0  0  0  0
   -5.4060   15.0340    0.7540 C   0  0  0  0  0  0  0  0  0  0  0  0
  1  2  1  0
  2  3  1  0
  2  4  1  0
  4  5  1  0
  6  5  1  6
  7  6  1  6
  6  8  1  0
  8  9  1  0
  7 10  1  0
 10  9  1  6
  7 11  1  0
 11 12  1  1
 10 13  1  0
 11 14  1  0
 11 15  1  0
 12 16  1  0
 13 16  1  0
 14 17  1  0
 14 18  1  0
 14 19  1  0
 15 19  1  0
 16 20  1  1
 17 21  1  0
 18 22  1  0
 21 23  1  0
 22 23  1  0
M  END
