ucsf493-ucsf013
     RDKit          3D

 27 30  0  0  0  0  0  0  0  0999 V2000
   -4.4410   15.8650   -6.5410 C   0  0  0  0  0  0  0  0  0  0  0  0
   -3.7890   15.7490   -5.2490 N   0  0  0  0  0  0  0  0  0  0  0  0
   -4.2620   14.5700   -4.5370 C   0  0  0  0  0  0  0  0  0  0  0  0
   -2.3590   16.0130   -5.3430 C   0  0  2  0  0  0  0  0  0  0  0  0
   -1.4690   14.7700   -5.0830 C   0  0  0  0  0  0  0  0  0  0  0  0
   -1.8130   17.2790   -4.6590 C   0  0  0  0  0  0  0  0  0  0  0  0
   -4.3710   14.5060   -3.0020 C   0  0  2  0  0  0  0  0  0  0  0  0
   -0.4140   15.0660   -4.0380 C   0  0  2  0  0  0  0  0  0  0  0  0
   -0.3260   17.4650   -4.9430 C   0  0  0  0  0  0  0  0  0  0  0  0
   -5.7480   14.9060   -2.4710 C   0  0  0  0  0  0  0  0  0  0  0  0
   -3.2470   15.3240   -2.3400 C   0  0  0  0  0  0  0  0  0  0  0  0
    0.4450   16.2980   -4.3540 C   0  0  2  0  0  0  0  0  0  0  0  0
    0.6520   13.9830   -3.8000 C   0  0  1  0  0  0  0  0  0  0  0  0
   -5.7910   14.6340   -0.9850 C   0  0  1  0  0  0  0  0  0  0  0  0
   -3.3380   15.3810   -0.8150 C   0  0  0  0  0  0  0  0  0  0  0  0
    0.2410   12.4930   -3.8680 C   0  0  0  0  0  0  0  0  0  0  0  0
    1.4940   15.7930   -5.1940 N   0  0  0  0  0  0  0  0  0  0  0  0
    1.7300   14.3800   -4.7880 C   0  0  0  0  0  0  0  0  0  0  0  0
   -4.7700   15.5080   -0.2790 C   0  0  2  0  0  0  0  0  0  0  0  0
   -7.1330   14.7960   -0.4110 N   0  0  0  0  0  0  0  0  0  0  0  0
   -0.1230   11.7430   -2.5470 C   0  0  1  0  0  0  0  0  0  0  0  0
   -4.8380   15.1310    1.1790 C   0  0  2  0  0  0  0  0  0  0  0  0
   -7.2080   14.4700    1.0050 C   0  0  0  0  0  0  0  0  0  0  0  0
    0.4950   10.4710   -2.5270 O   0  0  0  0  0  0  0  0  0  0  0  0
    0.4490   12.2880   -1.4900 O   0  0  0  0  0  0  0  0  0  0  0  0
   -3.6150   14.5350    1.6300 N   0  0  0  0  0  0  0  0  0  0  0  0
   -5.8620   14.1380    1.4460 N   0  0  0  0  0  0  0  0  0  0  0  0
  1  2  1  0
  2  3  1  0
  4  2  1  1
  4  5  1  0
  4  6  1  0
  7  3  1  6
  8  5  1  6
  6  9  1  0
  7 10  1  0
  7 11  1  0
  8 12  1  0
 12  9  1  6
  8 13  1  0
 14 10  1  6
 11 15  1  0
 13 16  1  6
 12 17  1  0
 13 18  1  0
 17 18  1  0
 14 19  1  0
 19 15  1  6
 14 20  1  0
 16 21  1  0
 19 22  1  0
 20 23  1  0
 21 24  1  6
 21 25  1  0
 22 26  1  6
 22 27  1  0
 23 27  1  0
M  CHG  1  25  -1
M  END
