ucsf264-ucsf115
     RDKit          3D

 33 37  0  0  0  0  0  0  0  0999 V2000
    2.5430   12.0750   -3.2760 O   0  0  0  0  0  0  0  0  0  0  0  0
    1.3590   11.7720   -3.7200 C   0  0  2  0  0  0  0  0  0  0  0  0
    1.4860   10.4730   -4.2400 O   0  0  0  0  0  0  0  0  0  0  0  0
    0.9010   12.6620   -4.9460 C   0  0  0  0  0  0  0  0  0  0  0  0
    0.3790   11.6200   -2.5840 C   0  0  2  0  0  0  0  0  0  0  0  0
    0.2440   12.0900   -6.1530 N   0  0  0  0  0  0  0  0  0  0  0  0
   -0.8110   10.7380   -2.9180 C   0  0  0  0  0  0  0  0  0  0  0  0
   -0.3310   12.8600   -2.2400 C   0  0  0  0  0  0  0  0  0  0  0  0
    1.2770   11.7510   -7.1100 N   0  0  0  0  0  0  0  0  0  0  0  0
   -0.5620   10.8920   -5.8760 C   0  0  2  0  0  0  0  0  0  0  0  0
   -1.7060   11.6120   -3.6520 O   0  0  0  0  0  0  0  0  0  0  0  0
   -1.1050   12.9100   -3.5370 C   0  0  1  0  0  0  0  0  0  0  0  0
   -2.0390   14.0940   -3.7520 C   0  0  0  0  0  0  0  0  0  0  0  0
    1.0390   10.4100   -7.6650 C   0  0  1  0  0  0  0  0  0  0  0  0
   -0.1630    9.8540   -6.9250 C   0  0  2  0  0  0  0  0  0  0  0  0
   -2.0830   11.0790   -5.8990 C   0  0  0  0  0  0  0  0  0  0  0  0
    1.0140   10.2250   -9.1940 C   0  0  0  0  0  0  0  0  0  0  0  0
   -2.0470   15.0730   -2.6880 N   0  0  0  0  0  0  0  0  0  0  0  0
   -1.3620    9.3790   -7.7470 C   0  0  0  0  0  0  0  0  0  0  0  0
   -2.8310    9.7450   -5.7380 C   0  0  0  0  0  0  0  0  0  0  0  0
    1.6140    9.0480   -9.5040 F   0  0  0  0  0  0  0  0  0  0  0  0
   -0.2230   10.1770   -9.7220 F   0  0  0  0  0  0  0  0  0  0  0  0
    1.6560   11.1770   -9.8890 F   0  0  0  0  0  0  0  0  0  0  0  0
   -2.4230    8.7600   -6.8260 C   0  0  0  0  0  0  0  0  0  0  0  0
   -2.0490   14.4810   -1.3680 C   0  0  1  0  0  0  0  0  0  0  0  0
   -0.7740   14.8020   -0.6880 N   0  0  0  0  0  0  0  0  0  0  0  0
   -3.2700   14.9870   -0.5910 C   0  0  2  0  0  0  0  0  0  0  0  0
   -0.7040   14.5460    0.7450 C   0  0  0  0  0  0  0  0  0  0  0  0
   -3.0630   14.5680    0.8320 C   0  0  1  0  0  0  0  0  0  0  0  0
   -4.5990   14.4270   -0.8190 N   0  0  0  0  0  0  0  0  0  0  0  0
   -1.8600   15.0870    1.4240 N   0  0  0  0  0  0  0  0  0  0  0  0
   -4.2380   15.1430    1.4190 N   0  0  0  0  0  0  0  0  0  0  0  0
   -5.2650   14.7520    0.4400 C   0  0  0  0  0  0  0  0  0  0  0  0
  2  1  1  1
  2  3  1  0
  2  4  1  0
  2  5  1  0
  4  6  1  0
  5  7  1  6
  5  8  1  0
  6  9  1  0
  6 10  1  0
  7 11  1  0
  8 12  1  0
 11 12  1  0
 12 13  1  1
  9 14  1  0
 10 15  1  0
 14 15  1  0
 10 16  1  6
 14 17  1  6
 13 18  1  0
 15 19  1  6
 16 20  1  0
 17 21  1  0
 17 22  1  0
 17 23  1  0
 19 24  1  0
 20 24  1  0
 25 18  1  6
 25 26  1  0
 25 27  1  0
 26 28  1  0
 27 29  1  0
 27 30  1  6
 28 31  1  0
 29 31  1  1
 29 32  1  0
 30 33  1  0
 32 33  1  0
M  CHG  1   1  -1
M  END
