ucsf213-ucsf519
     RDKit          3D

 24 26  0  0  0  0  0  0  0  0999 V2000
    0.4750   10.6930   -2.3050 O   0  0  0  0  0  0  0  0  0  0  0  0
    0.7940   11.9800   -2.1110 C   0  0  1  0  0  0  0  0  0  0  0  0
    2.1510   12.1010   -2.4320 O   0  0  0  0  0  0  0  0  0  0  0  0
    0.1600   13.0490   -3.0350 C   0  0  2  0  0  0  0  0  0  0  0  0
   -0.9850   12.4910   -4.4120 S   0  0  0  0  0  0  0  0  0  0  0  0
    1.0560   14.3080   -3.2810 C   0  0  1  0  0  0  0  0  0  0  0  0
   -1.8650   14.0910   -4.6340 C   0  0  1  0  0  0  0  0  0  0  0  0
    1.5490   14.7400   -4.6630 C   0  0  0  0  0  0  0  0  0  0  0  0
    0.0690   15.7670   -2.9550 S   0  0  0  0  0  0  0  0  0  0  0  0
   -2.6630   14.0220   -5.9270 C   0  0  0  0  0  0  0  0  0  0  0  0
   -2.6360   14.7630   -3.4240 C   0  0  1  0  0  0  0  0  0  0  0  0
    0.5670   15.7340   -5.3310 C   0  0  1  0  0  0  0  0  0  0  0  0
   -0.7090   15.6950   -4.5650 C   0  0  2  0  0  0  0  0  0  0  0  0
   -3.7450   15.4390   -4.0270 O   0  0  0  0  0  0  0  0  0  0  0  0
    1.0340   17.1840   -5.5110 C   0  0  0  0  0  0  0  0  0  0  0  0
   -1.8050   16.7500   -4.9060 C   0  0  0  0  0  0  0  0  0  0  0  0
   -3.0940   14.1300   -2.1900 N   0  0  0  0  0  0  0  0  0  0  0  0
   -0.0530   18.1150   -6.0410 C   0  0  0  0  0  0  0  0  0  0  0  0
   -1.2730   18.1510   -5.1430 C   0  0  0  0  0  0  0  0  0  0  0  0
   -4.3560   14.6010   -1.6290 C   0  0  0  0  0  0  0  0  0  0  0  0
   -2.1230   14.0390   -1.0960 C   0  0  1  0  0  0  0  0  0  0  0  0
   -1.0660   14.9590   -1.1530 O   0  0  0  0  0  0  0  0  0  0  0  0
   -3.9640   15.1430   -0.2650 C   0  0  0  0  0  0  0  0  0  0  0  0
   -2.7860   14.3870    0.1400 N   0  0  0  0  0  0  0  0  0  0  0  0
  2  1  1  6
  2  3  1  0
  2  4  1  0
  4  5  1  6
  4  6  1  0
  5  7  1  0
  6  8  1  6
  6  9  1  0
  7 10  1  6
  7 11  1  0
 12  8  1  1
  9 13  1  0
 12 13  1  0
 11 14  1  6
 12 15  1  0
 13 16  1  6
 11 17  1  0
 15 18  1  0
 16 19  1  0
 18 19  1  0
 17 20  1  0
 17 21  1  0
 21 22  1  6
 20 23  1  0
 21 24  1  0
 23 24  1  0
M  CHG  1   1  -1
M  END
