ucsf243-ucsf115
     RDKit          3D

 25 28  0  0  0  0  0  0  0  0999 V2000
   -4.7020   15.9340   -0.6140 C   0  0  0  0  0  0  0  0  0  0  0  0
   -3.7050   15.2000   -1.5190 C   0  0  1  0  0  0  0  0  0  0  0  0
   -4.3180   14.6860   -2.8200 C   0  0  0  0  0  0  0  0  0  0  0  0
   -2.4290   15.9720   -1.8310 C   0  0  0  0  0  0  0  0  0  0  0  0
   -1.2870   15.1290   -2.4330 C   0  0  1  0  0  0  0  0  0  0  0  0
   -3.2660   14.5000   -3.9220 C   0  0  0  0  0  0  0  0  0  0  0  0
   -0.3690   14.5860   -1.2790 C   0  0  1  0  0  0  0  0  0  0  0  0
   -1.9080   14.0270   -3.3520 C   0  0  1  0  0  0  0  0  0  0  0  0
   -1.0010   13.7800   -4.4510 O   0  0  0  0  0  0  0  0  0  0  0  0
    0.7140   13.8880   -1.8410 O   0  0  0  0  0  0  0  0  0  0  0  0
    0.2360   15.5820   -0.7010 O   0  0  0  0  0  0  0  0  0  0  0  0
   -1.0990   13.7900   -0.3010 N   0  0  0  0  0  0  0  0  0  0  0  0
   -0.3460   12.5060   -4.4130 C   0  0  2  0  0  0  0  0  0  0  0  0
   -1.1130   14.3940    1.0190 C   0  0  0  0  0  0  0  0  0  0  0  0
   -2.4360   13.3260   -0.8100 C   0  0  0  0  0  0  0  0  0  0  0  0
   -1.2410   11.4750   -4.8310 O   0  0  0  0  0  0  0  0  0  0  0  0
    0.0300   12.1610   -2.9700 C   0  0  0  0  0  0  0  0  0  0  0  0
   -2.3730   15.1450    1.1880 N   0  0  0  0  0  0  0  0  0  0  0  0
   -3.6350   13.2680    0.1790 C   0  0  1  0  0  0  0  0  0  0  0  0
   -0.2620   10.6860   -2.8140 C   0  0  0  0  0  0  0  0  0  0  0  0
   -0.8850   10.2850   -4.1310 C   0  0  0  0  0  0  0  0  0  0  0  0
   -3.4100   14.1760    1.3950 C   0  0  2  0  0  0  0  0  0  0  0  0
   -4.9950   13.5910   -0.2990 N   0  0  0  0  0  0  0  0  0  0  0  0
   -4.6870   14.8230    1.6690 N   0  0  0  0  0  0  0  0  0  0  0  0
   -5.6400   14.0140    0.9300 C   0  0  0  0  0  0  0  0  0  0  0  0
  2  1  1  6
  2  3  1  0
  2  4  1  0
  5  4  1  1
  3  6  1  0
  5  7  1  0
  5  8  1  0
  6  8  1  0
  8  9  1  6
  7 10  1  6
  7 11  1  0
  7 12  1  0
 13  9  1  1
 12 14  1  0
 12 15  1  0
 13 16  1  0
 13 17  1  0
 14 18  1  0
 19 15  1  6
 17 20  1  0
 16 21  1  0
 20 21  1  0
 22 18  1  6
 19 22  1  0
 19 23  1  0
 22 24  1  0
 23 25  1  0
 24 25  1  0
M  CHG  1  11  -1
M  END
