ucsf487-ucsf511
     RDKit          3D

 20 23  0  0  0  0  0  0  0  0999 V2000
   -7.3090   14.3370    2.7880 N   0  0  0  0  0  0  0  0  0  0  0  0
   -6.8210   13.8810    1.4920 C   0  0  1  0  0  0  0  0  0  0  0  0
   -7.7680   14.3780    0.4310 C   0  0  0  0  0  0  0  0  0  0  0  0
   -5.3890   14.3690    1.3430 C   0  0  0  0  0  0  0  0  0  0  0  0
   -4.9310   14.8150   -0.0850 C   0  0  2  0  0  0  0  0  0  0  0  0
   -7.1640   14.2520   -0.8490 N   0  0  0  0  0  0  0  0  0  0  0  0
   -6.1010   15.1710   -0.9710 C   0  0  2  0  0  0  0  0  0  0  0  0
   -3.9510   13.9370   -0.6330 C   0  0  0  0  0  0  0  0  0  0  0  0
   -5.2560   15.0020   -2.1230 C   0  0  0  0  0  0  0  0  0  0  0  0
   -2.4570   14.6640   -1.6490 S   0  0  0  0  0  0  0  0  0  0  0  0
   -3.9540   15.6260   -1.8930 C   0  0  0  0  0  0  0  0  0  0  0  0
   -0.9070   13.9750   -1.1200 C   0  0  1  0  0  0  0  0  0  0  0  0
   -1.8890   13.4480   -2.9330 N   0  0  0  0  0  0  0  0  0  0  0  0
   -1.3770   15.8580   -0.5770 C   0  0  0  0  0  0  0  0  0  0  0  0
    0.3220   14.3580   -1.8180 C   0  0  1  0  0  0  0  0  0  0  0  0
   -0.7810   13.6750   -3.6310 C   0  0  0  0  0  0  0  0  0  0  0  0
   -1.6060   15.3250    0.6760 O   0  0  0  0  0  0  0  0  0  0  0  0
   -0.7880   14.2220    0.4120 C   0  0  0  0  0  0  0  0  0  0  0  0
    1.5730   14.2020   -1.3040 O   0  0  0  0  0  0  0  0  0  0  0  0
    0.5340   13.4760   -3.0370 N   0  0  0  0  0  0  0  0  0  0  0  0
  2  1  1  1
  2  3  1  0
  2  4  1  0
  5  4  1  1
  3  6  1  0
  5  7  1  0
  6  7  1  0
  5  8  1  0
  7  9  1  6
  8 10  1  0
  9 11  1  0
 10 11  1  0
 10 12  1  0
 10 13  1  0
 10 14  1  0
 12 15  1  0
 13 16  1  0
 14 17  1  0
 12 18  1  1
 17 18  1  0
 15 19  1  1
 15 20  1  0
 16 20  1  0
M  END
