ucsf190-ucsf385
     RDKit          3D

 25 27  0  0  0  0  0  0  0  0999 V2000
    0.7540   10.2910   -2.4550 O   0  0  0  0  0  0  0  0  0  0  0  0
    0.5050   11.5630   -2.7000 C   0  0  1  0  0  0  0  0  0  0  0  0
    0.6390   12.1670   -1.4350 O   0  0  0  0  0  0  0  0  0  0  0  0
    1.4770   12.3130   -3.6770 C   0  0  0  0  0  0  0  0  0  0  0  0
    1.1550   13.8160   -3.7640 C   0  0  2  0  0  0  0  0  0  0  0  0
   -0.2650   14.0920   -4.2440 C   0  0  1  0  0  0  0  0  0  0  0  0
    2.1380   14.7240   -4.3760 N   0  0  0  0  0  0  0  0  0  0  0  0
   -0.6020   15.5600   -4.1160 C   0  0  1  0  0  0  0  0  0  0  0  0
    1.6330   15.8630   -5.1630 N   0  0  0  0  0  0  0  0  0  0  0  0
   -0.8530   13.3720   -5.4430 C   0  0  0  0  0  0  0  0  0  0  0  0
    0.4780   16.5470   -4.5940 C   0  0  1  0  0  0  0  0  0  0  0  0
   -2.0720   15.8260   -4.2980 C   0  0  2  0  0  0  0  0  0  0  0  0
   -2.3630   13.5500   -5.5430 C   0  0  0  0  0  0  0  0  0  0  0  0
   -0.0070   17.4550   -5.5720 O   0  0  0  0  0  0  0  0  0  0  0  0
   -2.4750   15.3030   -3.0280 O   0  0  0  0  0  0  0  0  0  0  0  0
   -2.8210   15.0000   -5.3620 C   0  0  0  0  0  0  0  0  0  0  0  0
   -1.4470   15.4730   -2.0270 C   0  0  2  0  0  0  0  0  0  0  0  0
   -0.1420   15.5490   -2.5650 O   0  0  0  0  0  0  0  0  0  0  0  0
   -1.4400   14.3230   -1.0450 C   0  0  2  0  0  0  0  0  0  0  0  0
   -2.8030   14.1890   -0.3660 C   0  0  2  0  0  0  0  0  0  0  0  0
   -0.2480   14.4950   -0.0650 C   0  0  0  0  0  0  0  0  0  0  0  0
   -3.9130   14.6520   -1.2120 N   0  0  0  0  0  0  0  0  0  0  0  0
   -0.5090   14.1500    1.3920 C   0  0  0  0  0  0  0  0  0  0  0  0
   -2.7590   15.0330    0.9040 C   0  0  0  0  0  0  0  0  0  0  0  0
   -1.8260   14.5460    1.8910 N   0  0  0  0  0  0  0  0  0  0  0  0
  2  1  1  1
  2  3  1  0
  2  4  1  0
  5  4  1  6
  5  6  1  0
  5  7  1  0
  6  8  1  0
  7  9  1  0
  6 10  1  6
  8 11  1  6
  9 11  1  0
  8 12  1  0
 10 13  1  0
 11 14  1  6
 12 15  1  1
 12 16  1  0
 13 16  1  0
 15 17  1  0
 17 18  1  6
 17 19  1  0
 19 20  1  0
 19 21  1  1
 20 22  1  6
 21 23  1  0
 20 24  1  0
 23 25  1  0
 24 25  1  0
M  CHG  1   1  -1
M  END
