ucsf396-ucsf123
     RDKit          3D

 24 25  0  0  0  0  0  0  0  0999 V2000
   -2.9050   14.5490    1.0030 N   0  0  0  0  0  0  0  0  0  0  0  0
   -3.5620   14.4440   -0.2640 C   0  0  1  0  0  0  0  0  0  0  0  0
   -3.2460   15.6760   -0.8160 O   0  0  0  0  0  0  0  0  0  0  0  0
   -2.8430   13.2940   -1.0560 C   0  0  0  0  0  0  0  0  0  0  0  0
   -5.1170   14.3300   -0.1610 C   0  0  2  0  0  0  0  0  0  0  0  0
   -2.7230   13.3830   -2.6010 C   0  0  0  0  0  0  0  0  0  0  0  0
   -5.9120   15.3700   -0.9750 C   0  0  0  0  0  0  0  0  0  0  0  0
   -5.5830   14.3360    1.3040 C   0  0  0  0  0  0  0  0  0  0  0  0
   -7.3580   15.1170   -0.9620 N   0  0  0  0  0  0  0  0  0  0  0  0
   -7.0930   14.3950    1.4790 C   0  0  0  0  0  0  0  0  0  0  0  0
   -1.5930   14.3130   -3.1370 C   0  0  1  0  0  0  0  0  0  0  0  0
   -7.8070   14.2410    0.1370 C   0  0  0  0  0  0  0  0  0  0  0  0
   -0.1870   13.6320   -3.3300 C   0  0  2  0  0  0  0  0  0  0  0  0
   -1.9750   15.0300   -4.4440 C   0  0  0  0  0  0  0  0  0  0  0  0
    0.2270   12.7370   -2.0950 C   0  0  2  0  0  0  0  0  0  0  0  0
   -0.9930   16.1880   -4.6300 C   0  0  2  0  0  0  0  0  0  0  0  0
    0.8690   14.7360   -3.6810 C   0  0  0  0  0  0  0  0  0  0  0  0
   -1.5420   17.4810   -5.7350 S   0  0  0  0  0  0  0  0  0  0  0  0
    1.6180   12.8170   -1.9200 O   0  0  0  0  0  0  0  0  0  0  0  0
    0.0640   11.4460   -2.3200 O   0  0  0  0  0  0  0  0  0  0  0  0
    0.4440   15.7080   -4.7930 C   0  0  0  0  0  0  0  0  0  0  0  0
   -2.0570   18.9050   -5.1060 N   0  0  0  0  0  0  0  0  0  0  0  0
   -0.2940   17.7710   -6.6780 O   0  0  0  0  0  0  0  0  0  0  0  0
   -2.6940   16.8830   -6.6650 O   0  0  0  0  0  0  0  0  0  0  0  0
  2  1  1  1
  2  3  1  0
  2  4  1  0
  2  5  1  0
  4  6  1  0
  5  7  1  6
  5  8  1  0
  7  9  1  0
  8 10  1  0
 11  6  1  6
  9 12  1  0
 10 12  1  0
 11 13  1  0
 11 14  1  0
 13 15  1  0
 14 16  1  0
 13 17  1  1
 16 18  1  6
 15 19  1  6
 15 20  1  0
 16 21  1  0
 17 21  1  0
 18 22  1  0
 18 23  1  0
 18 24  1  0
M  CHG  1  20  -1
M  END
