ucsf173-ucsf442
     RDKit          3D

 24 27  0  0  0  0  0  0  0  0999 V2000
    1.5030   12.8020   -2.1410 O   0  0  0  0  0  0  0  0  0  0  0  0
    0.2620   12.8280   -2.5460 C   0  0  2  0  0  0  0  0  0  0  0  0
    0.0730   11.4950   -2.9810 O   0  0  0  0  0  0  0  0  0  0  0  0
    0.0130   13.8100   -3.7350 C   0  0  1  0  0  0  0  0  0  0  0  0
   -1.2700   14.6680   -3.6080 C   0  0  2  0  0  0  0  0  0  0  0  0
    1.0760   14.9150   -4.0890 C   0  0  0  0  0  0  0  0  0  0  0  0
   -2.6000   13.9500   -3.5190 C   0  0  0  0  0  0  0  0  0  0  0  0
   -1.0820   15.5800   -4.7990 C   0  0  2  0  0  0  0  0  0  0  0  0
    0.2160   16.1950   -4.2990 C   0  0  2  0  0  0  0  0  0  0  0  0
   -3.4180   14.7510   -2.6640 O   0  0  0  0  0  0  0  0  0  0  0  0
   -2.1640   16.5940   -5.1550 C   0  0  0  0  0  0  0  0  0  0  0  0
    0.7970   17.2570   -5.2450 C   0  0  0  0  0  0  0  0  0  0  0  0
   -1.6380   18.0130   -5.2980 C   0  0  0  0  0  0  0  0  0  0  0  0
   -0.2760   18.0620   -5.9810 C   0  0  0  0  0  0  0  0  0  0  0  0
   -3.0680   14.5540   -1.2910 C   0  0  2  0  0  0  0  0  0  0  0  0
   -4.0970   15.1970   -0.3960 C   0  0  2  0  0  0  0  0  0  0  0  0
   -1.7310   15.0710   -1.0430 N   0  0  0  0  0  0  0  0  0  0  0  0
   -1.2920   15.2810    0.3210 C   0  0  2  0  0  0  0  0  0  0  0  0
   -3.5920   14.8410    0.9630 C   0  0  1  0  0  0  0  0  0  0  0  0
   -5.5120   14.7710   -0.3410 N   0  0  0  0  0  0  0  0  0  0  0  0
   -0.3640   14.3140    0.7190 O   0  0  0  0  0  0  0  0  0  0  0  0
   -2.3370   15.4370    1.3090 N   0  0  0  0  0  0  0  0  0  0  0  0
   -4.6970   15.3350    1.7380 N   0  0  0  0  0  0  0  0  0  0  0  0
   -5.7910   14.6410    1.0890 C   0  0  0  0  0  0  0  0  0  0  0  0
  2  1  1  6
  2  3  1  0
  2  4  1  0
  4  5  1  0
  4  6  1  1
  5  7  1  6
  5  8  1  0
  9  6  1  6
  8  9  1  0
  7 10  1  0
  8 11  1  1
  9 12  1  0
 11 13  1  0
 12 14  1  0
 13 14  1  0
 15 10  1  6
 15 16  1  0
 15 17  1  0
 17 18  1  0
 16 19  1  0
 16 20  1  6
 18 21  1  1
 18 22  1  0
 19 22  1  1
 19 23  1  0
 20 24  1  0
 23 24  1  0
M  CHG  1   1  -1
M  END
