ucsf264-ucsf247
     RDKit          3D

 30 32  0  0  0  0  0  0  0  0999 V2000
    0.5970   12.9830   -2.3580 O   0  0  0  0  0  0  0  0  0  0  0  0
    1.0380   12.1400   -3.4050 C   0  0  1  0  0  0  0  0  0  0  0  0
    0.5050   10.8420   -3.1480 O   0  0  0  0  0  0  0  0  0  0  0  0
    0.7420   14.3600   -2.6430 C   0  0  1  0  0  0  0  0  0  0  0  0
    0.5260   12.6260   -4.7910 C   0  0  0  0  0  0  0  0  0  0  0  0
    1.7970   14.5520   -3.5710 O   0  0  0  0  0  0  0  0  0  0  0  0
   -0.5840   14.9150   -3.2230 C   0  0  0  0  0  0  0  0  0  0  0  0
   -1.7520   14.4520   -2.4500 N   0  0  0  0  0  0  0  0  0  0  0  0
    0.4350   11.5070   -5.7510 N   0  0  0  0  0  0  0  0  0  0  0  0
   -2.8960   15.3370   -2.4910 C   0  0  1  0  0  0  0  0  0  0  0  0
    1.1540   11.6970   -7.0180 N   0  0  0  0  0  0  0  0  0  0  0  0
   -0.9180   11.0760   -6.0870 C   0  0  1  0  0  0  0  0  0  0  0  0
   -3.6000   15.1260   -3.6910 O   0  0  0  0  0  0  0  0  0  0  0  0
    0.3000   11.0420   -8.0680 C   0  0  2  0  0  0  0  0  0  0  0  0
   -0.5640   10.1320   -7.2120 C   0  0  2  0  0  0  0  0  0  0  0  0
   -1.6860   10.3880   -4.9610 C   0  0  0  0  0  0  0  0  0  0  0  0
   -3.8020   15.4040   -1.2460 C   0  0  1  0  0  0  0  0  0  0  0  0
    0.9620   10.3510   -9.2770 C   0  0  0  0  0  0  0  0  0  0  0  0
   -1.7380    9.3820   -7.8160 C   0  0  0  0  0  0  0  0  0  0  0  0
   -2.8620    9.5900   -5.5300 C   0  0  0  0  0  0  0  0  0  0  0  0
   -5.1100   14.6050   -1.3750 C   0  0  0  0  0  0  0  0  0  0  0  0
   -3.1730   15.1140    0.1260 C   0  0  0  0  0  0  0  0  0  0  0  0
    1.6250    9.2120   -8.9810 F   0  0  0  0  0  0  0  0  0  0  0  0
    0.0070   10.0060  -10.1680 F   0  0  0  0  0  0  0  0  0  0  0  0
    1.7540   11.1720   -9.9870 F   0  0  0  0  0  0  0  0  0  0  0  0
   -2.4900    8.6650   -6.6990 C   0  0  0  0  0  0  0  0  0  0  0  0
   -6.0780   15.0030   -0.2820 C   0  0  1  0  0  0  0  0  0  0  0  0
   -4.0930   15.4190    1.2980 C   0  0  0  0  0  0  0  0  0  0  0  0
   -7.3540   14.3830   -0.4010 O   0  0  0  0  0  0  0  0  0  0  0  0
   -5.4750   14.7840    1.1130 C   0  0  0  0  0  0  0  0  0  0  0  0
  1  2  1  0
  2  3  1  1
  1  4  1  0
  2  5  1  0
  4  6  1  6
  4  7  1  0
  7  8  1  0
  5  9  1  0
  8 10  1  0
  9 11  1  0
  9 12  1  0
 10 13  1  6
 11 14  1  0
 12 15  1  0
 14 15  1  0
 12 16  1  1
 10 17  1  0
 14 18  1  6
 15 19  1  6
 16 20  1  0
 17 21  1  6
 17 22  1  0
 18 23  1  0
 18 24  1  0
 18 25  1  0
 19 26  1  0
 20 26  1  0
 21 27  1  0
 22 28  1  0
 27 29  1  1
 27 30  1  0
 28 30  1  0
M  END
