ucsf520-ucsf172
     RDKit          3D

 22 24  0  0  0  0  0  0  0  0999 V2000
   -4.8970   14.9680    1.1380 N   0  0  0  0  0  0  0  0  0  0  0  0
   -6.4690   14.4520    1.1960 S   0  0  0  0  0  0  0  0  0  0  0  0
   -7.4810   14.8620    2.5760 C   0  0  0  0  0  0  0  0  0  0  0  0
   -3.9650   14.6710    0.0500 C   0  0  1  0  0  0  0  0  0  0  0  0
   -6.5010   12.8570    1.2640 O   0  0  0  0  0  0  0  0  0  0  0  0
   -7.3630   14.8420   -0.0760 O   0  0  0  0  0  0  0  0  0  0  0  0
   -4.0350   15.6980   -0.9600 N   0  0  0  0  0  0  0  0  0  0  0  0
   -2.4840   14.3170    0.4020 C   0  0  1  0  0  0  0  0  0  0  0  0
   -3.4940   15.0870   -2.1650 C   0  0  0  0  0  0  0  0  0  0  0  0
   -1.6370   14.1900   -0.8880 C   0  0  1  0  0  0  0  0  0  0  0  0
   -1.6590   15.2120    1.2840 N   0  0  0  0  0  0  0  0  0  0  0  0
   -2.0560   14.9900   -2.0330 N   0  0  0  0  0  0  0  0  0  0  0  0
   -0.3210   14.7170   -0.4550 N   0  0  0  0  0  0  0  0  0  0  0  0
   -0.3320   14.6870    0.9780 C   0  0  0  0  0  0  0  0  0  0  0  0
   -1.5600   14.5160   -3.3620 C   0  0  2  0  0  0  0  0  0  0  0  0
   -1.0220   13.0590   -3.4670 C   0  0  0  0  0  0  0  0  0  0  0  0
   -0.9340   15.5390   -4.3860 C   0  0  1  0  0  0  0  0  0  0  0  0
   -1.3240   12.6520   -4.6790 O   0  0  0  0  0  0  0  0  0  0  0  0
   -1.5560   16.8300   -4.4860 O   0  0  0  0  0  0  0  0  0  0  0  0
    0.5670   15.7960   -4.2930 C   0  0  0  0  0  0  0  0  0  0  0  0
    0.7420   17.0860   -5.0620 C   0  0  0  0  0  0  0  0  0  0  0  0
   -0.6460   17.6740   -5.1790 C   0  0  0  0  0  0  0  0  0  0  0  0
  1  2  1  0
  2  3  1  0
  4  1  1  1
  2  5  1  0
  2  6  1  0
  4  7  1  0
  4  8  1  0
  7  9  1  0
  8 10  1  0
  8 11  1  1
  9 12  1  0
 10 12  1  0
 10 13  1  1
 11 14  1  0
 13 14  1  0
 12 15  1  0
 15 16  1  1
 15 17  1  0
 16 18  1  0
 17 19  1  0
 17 20  1  1
 20 21  1  0
 19 22  1  0
 21 22  1  0
M  CHG  1  18  -1
M  END
