ucsf190-ucsf412
     RDKit          3D

 27 30  0  0  0  0  0  0  0  0999 V2000
    0.7120   10.3630   -2.3510 O   0  0  0  0  0  0  0  0  0  0  0  0
    0.4220   11.6230   -2.6210 C   0  0  1  0  0  0  0  0  0  0  0  0
    0.5230   12.2420   -1.3560 O   0  0  0  0  0  0  0  0  0  0  0  0
    1.4570   12.3240   -3.5570 C   0  0  0  0  0  0  0  0  0  0  0  0
    1.1250   13.8270   -3.6300 C   0  0  2  0  0  0  0  0  0  0  0  0
   -0.3160   14.0360   -4.0990 C   0  0  1  0  0  0  0  0  0  0  0  0
    2.1170   14.6100   -4.3930 N   0  0  0  0  0  0  0  0  0  0  0  0
   -0.6960   15.5140   -3.9960 C   0  0  1  0  0  0  0  0  0  0  0  0
    1.5650   15.8170   -5.0250 N   0  0  0  0  0  0  0  0  0  0  0  0
   -0.7760   13.3940   -5.4130 C   0  0  0  0  0  0  0  0  0  0  0  0
    0.4700   16.4700   -4.3350 C   0  0  1  0  0  0  0  0  0  0  0  0
   -2.0150   15.8170   -4.7290 C   0  0  0  0  0  0  0  0  0  0  0  0
   -2.3080   13.5070   -5.5520 C   0  0  0  0  0  0  0  0  0  0  0  0
    0.0050   17.5240   -5.1480 O   0  0  0  0  0  0  0  0  0  0  0  0
   -2.9080   14.5830   -4.6320 C   0  0  1  0  0  0  0  0  0  0  0  0
   -2.9880   14.1030   -3.1450 C   0  0  0  0  0  0  0  0  0  0  0  0
   -3.6110   15.1430   -2.1930 C   0  0  2  0  0  0  0  0  0  0  0  0
   -3.4310   14.8320   -0.6930 C   0  0  0  0  0  0  0  0  0  0  0  0
   -5.0920   15.2530   -2.4920 C   0  0  0  0  0  0  0  0  0  0  0  0
   -4.7240   15.2070    0.0320 C   0  0  1  0  0  0  0  0  0  0  0  0
   -5.8790   14.1240   -1.8870 C   0  0  0  0  0  0  0  0  0  0  0  0
   -5.7930   14.1750   -0.3690 C   0  0  2  0  0  0  0  0  0  0  0  0
   -4.5790   15.2350    1.5450 C   0  0  0  0  0  0  0  0  0  0  0  0
   -7.1770   14.4050    0.2400 C   0  0  2  0  0  0  0  0  0  0  0  0
   -5.8470   14.7150    2.2280 C   0  0  0  0  0  0  0  0  0  0  0  0
   -7.9780   15.2690   -0.5250 O   0  0  0  0  0  0  0  0  0  0  0  0
   -7.1390   14.9120    1.5860 N   0  0  0  0  0  0  0  0  0  0  0  0
  2  1  1  1
  2  3  1  0
  2  4  1  0
  5  4  1  6
  5  6  1  0
  5  7  1  0
  6  8  1  0
  7  9  1  0
  6 10  1  6
  8 11  1  0
  9 11  1  0
  8 12  1  6
 10 13  1  0
 11 14  1  6
 12 15  1  0
 13 15  1  0
 15 16  1  1
 17 16  1  6
 17 18  1  0
 17 19  1  0
 20 18  1  6
 19 21  1  0
 20 22  1  0
 22 21  1  6
 20 23  1  0
 22 24  1  0
 23 25  1  0
 24 26  1  6
 24 27  1  0
 25 27  1  0
M  CHG  1   1  -1
M  END
