ucsf387-ucsf213
     RDKit          3D

 15 16  0  0  0  0  0  0  0  0999 V2000
    0.5840   17.5400   -3.7540 Cl  0  0  0  0  0  0  0  0  0  0  0  0
    0.0850   16.4080   -5.0460 C   0  0  1  0  0  0  0  0  0  0  0  0
    1.0340   15.2060   -4.9950 C   0  0  0  0  0  0  0  0  0  0  0  0
   -1.3320   15.8050   -4.7320 C   0  0  1  0  0  0  0  0  0  0  0  0
    0.1820   17.4980   -6.1180 C   0  0  0  0  0  0  0  0  0  0  0  0
   -2.4490   14.7710   -5.7150 Cl  0  0  0  0  0  0  0  0  0  0  0  0
    0.5130   14.4360   -3.7520 C   0  0  0  0  0  0  0  0  0  0  0  0
   -0.9520   14.9270   -3.5250 C   0  0  0  0  0  0  0  0  0  0  0  0
   -0.6170   18.6380   -5.6000 C   0  0  0  0  0  0  0  0  0  0  0  0
   -2.2070   16.9930   -4.4250 C   0  0  0  0  0  0  0  0  0  0  0  0
    0.7870   12.9030   -3.6500 C   0  0  0  0  0  0  0  0  0  0  0  0
   -2.0460   18.1810   -5.4090 C   0  0  0  0  0  0  0  0  0  0  0  0
    0.1020   12.0690   -2.5150 C   0  0  1  0  0  0  0  0  0  0  0  0
    0.5220   10.8150   -2.4220 O   0  0  0  0  0  0  0  0  0  0  0  0
    0.4380   12.5860   -1.2530 O   0  0  0  0  0  0  0  0  0  0  0  0
  2  1  1  1
  2  3  1  0
  2  4  1  0
  2  5  1  0
  4  6  1  6
  3  7  1  0
  4  8  1  0
  7  8  1  0
  5  9  1  0
  4 10  1  0
  7 11  1  0
  9 12  1  0
 10 12  1  0
 11 13  1  0
 13 14  1  1
 13 15  1  0
M  CHG  1  14  -1
M  END
