ucsf520-ucsf123
     RDKit          3D

 23 25  0  0  0  0  0  0  0  0999 V2000
   -4.6000   15.5470    1.4880 N   0  0  0  0  0  0  0  0  0  0  0  0
   -3.8610   14.8080    0.4800 C   0  0  2  0  0  0  0  0  0  0  0  0
   -2.4090   14.4860    0.8910 C   0  0  1  0  0  0  0  0  0  0  0  0
   -3.9670   15.5510   -0.7550 N   0  0  0  0  0  0  0  0  0  0  0  0
   -3.4000   14.7690   -1.8450 C   0  0  0  0  0  0  0  0  0  0  0  0
   -1.7670   13.7940   -0.2870 C   0  0  1  0  0  0  0  0  0  0  0  0
   -1.4360   15.5540    1.1240 N   0  0  0  0  0  0  0  0  0  0  0  0
   -2.0180   14.3900   -1.5550 N   0  0  0  0  0  0  0  0  0  0  0  0
   -0.3710   13.6910    0.1180 N   0  0  0  0  0  0  0  0  0  0  0  0
   -0.1830   14.7810    1.0680 C   0  0  0  0  0  0  0  0  0  0  0  0
   -1.0470   15.3740   -1.9140 C   0  0  0  0  0  0  0  0  0  0  0  0
   -0.8590   15.4330   -3.3820 C   0  0  1  0  0  0  0  0  0  0  0  0
   -1.0630   16.7420   -3.8560 O   0  0  0  0  0  0  0  0  0  0  0  0
    0.5070   14.9870   -3.8350 C   0  0  1  0  0  0  0  0  0  0  0  0
    0.6010   13.4450   -3.4850 C   0  0  2  0  0  0  0  0  0  0  0  0
    0.4990   15.6840   -5.2350 C   0  0  0  0  0  0  0  0  0  0  0  0
   -0.8830   16.3820   -5.2000 C   0  0  2  0  0  0  0  0  0  0  0  0
   -1.3170   17.8320   -6.1260 S   0  0  0  0  0  0  0  0  0  0  0  0
    1.2770   13.2760   -2.2460 O   0  0  0  0  0  0  0  0  0  0  0  0
    1.3290   12.6850   -4.2500 O   0  0  0  0  0  0  0  0  0  0  0  0
   -1.8470   19.1770   -5.3370 N   0  0  0  0  0  0  0  0  0  0  0  0
   -0.1400   18.1710   -7.1670 O   0  0  0  0  0  0  0  0  0  0  0  0
   -2.5520   17.2590   -6.9550 O   0  0  0  0  0  0  0  0  0  0  0  0
  2  1  1  1
  2  3  1  0
  2  4  1  0
  4  5  1  0
  3  6  1  0
  3  7  1  6
  5  8  1  0
  6  8  1  0
  6  9  1  1
  7 10  1  0
  9 10  1  0
  8 11  1  0
 12 11  1  1
 12 13  1  0
 12 14  1  0
 14 15  1  0
 14 16  1  6
 13 17  1  0
 16 17  1  0
 17 18  1  6
 15 19  1  1
 15 20  1  0
 18 21  1  0
 18 22  1  0
 18 23  1  0
M  CHG  1  20  -1
M  END
