ucsf224-ucsf190
     RDKit          3D

 15 16  0  0  0  0  0  0  0  0999 V2000
   -1.4280   18.3250   -5.0310 Cl  0  0  0  0  0  0  0  0  0  0  0  0
   -0.6200   16.7160   -5.1110 C   0  0  2  0  0  0  0  0  0  0  0  0
   -1.5670   15.4830   -4.9680 C   0  0  1  0  0  0  0  0  0  0  0  0
    0.6400   16.6760   -4.2240 C   0  0  0  0  0  0  0  0  0  0  0  0
   -3.0500   15.5700   -6.0330 Cl  0  0  0  0  0  0  0  0  0  0  0  0
   -0.7350   14.1820   -5.0760 C   0  0  1  0  0  0  0  0  0  0  0  0
    1.3380   15.3110   -4.1810 C   0  0  0  0  0  0  0  0  0  0  0  0
   -2.2980   15.1630   -3.6750 C   0  0  0  0  0  0  0  0  0  0  0  0
    0.3570   14.1610   -3.9590 C   0  0  2  0  0  0  0  0  0  0  0  0
   -2.7920   13.7270   -3.9370 C   0  0  0  0  0  0  0  0  0  0  0  0
   -1.7940   13.1050   -4.9020 C   0  0  0  0  0  0  0  0  0  0  0  0
    0.9350   12.7210   -3.6920 C   0  0  0  0  0  0  0  0  0  0  0  0
    0.1730   11.9820   -2.5380 C   0  0  1  0  0  0  0  0  0  0  0  0
    0.5640   10.7220   -2.3890 O   0  0  0  0  0  0  0  0  0  0  0  0
    0.5660   12.5230   -1.2960 O   0  0  0  0  0  0  0  0  0  0  0  0
  2  1  1  1
  2  3  1  0
  2  4  1  0
  3  5  1  6
  3  6  1  0
  4  7  1  0
  3  8  1  0
  6  9  1  0
  7  9  1  0
  8 10  1  0
  6 11  1  1
 10 11  1  0
  9 12  1  6
 12 13  1  0
 13 14  1  1
 13 15  1  0
M  CHG  1  14  -1
M  END
