ucsf016-ucsf520
     RDKit          3D

 18 22  0  0  0  0  0  0  0  0999 V2000
   -2.6650   13.0790   -2.5000 C   0  0  0  0  0  0  0  0  0  0  0  0
   -1.5030   13.6780   -3.3510 C   0  0  2  0  0  0  0  0  0  0  0  0
   -0.8850   12.8570   -4.4630 C   0  0  0  0  0  0  0  0  0  0  0  0
   -2.9560   13.7200   -1.1040 C   0  0  1  0  0  0  0  0  0  0  0  0
   -0.5670   14.6130   -2.8160 N   0  0  0  0  0  0  0  0  0  0  0  0
   -2.0420   14.8130   -0.8700 C   0  0  1  0  0  0  0  0  0  0  0  0
   -4.1770   14.5520   -0.6310 C   0  0  0  0  0  0  0  0  0  0  0  0
   -0.9550   13.9440   -5.5030 C   0  0  0  0  0  0  0  0  0  0  0  0
   -1.0680   15.7510   -3.6000 C   0  0  0  0  0  0  0  0  0  0  0  0
   -2.2170   14.8540    0.5800 C   0  0  2  0  0  0  0  0  0  0  0  0
   -0.6890   14.5800   -1.3800 C   0  0  2  0  0  0  0  0  0  0  0  0
   -3.6300   15.2310    0.6060 N   0  0  0  0  0  0  0  0  0  0  0  0
   -1.7700   15.0620   -4.8190 C   0  0  0  0  0  0  0  0  0  0  0  0
    0.2530   15.3940   -0.6920 N   0  0  0  0  0  0  0  0  0  0  0  0
   -1.2430   15.7190    1.1270 N   0  0  0  0  0  0  0  0  0  0  0  0
   -3.2510   14.7350   -4.6180 C   0  0  0  0  0  0  0  0  0  0  0  0
   -2.8630   15.7740   -5.6110 C   0  0  0  0  0  0  0  0  0  0  0  0
    0.0760   15.2290    0.7370 C   0  0  0  0  0  0  0  0  0  0  0  0
  2  1  1  1
  2  3  1  0
  4  1  1  6
  2  5  1  0
  6  4  1  1
  4  7  1  0
  3  8  1  0
  5  9  1  0
  6 10  1  0
  5 11  1  0
  6 11  1  0
  7 12  1  0
 10 12  1  6
 13  8  1  0
  9 13  1  0
 11 14  1  1
 10 15  1  0
 13 16  1  0
 13 17  1  0
 16 17  1  0
 14 18  1  0
 15 18  1  0
M  END
