ucsf336-ucsf333
     RDKit          3D

 22 24  0  0  0  0  0  0  0  0999 V2000
    0.7890   14.2820   -3.5550 O   0  0  0  0  0  0  0  0  0  0  0  0
    1.3340   13.0050   -3.8320 C   0  0  1  0  0  0  0  0  0  0  0  0
    1.9430   12.5120   -2.6400 O   0  0  0  0  0  0  0  0  0  0  0  0
   -0.3500   14.1070   -2.7210 C   0  0  2  0  0  0  0  0  0  0  0  0
    0.1580   12.0350   -4.2650 C   0  0  2  0  0  0  0  0  0  0  0  0
   -1.5540   14.7190   -3.2520 N   0  0  0  0  0  0  0  0  0  0  0  0
   -0.2570   14.7780   -1.0500 S   0  0  0  0  0  0  0  0  0  0  0  0
    0.2200   10.8470   -3.4730 O   0  0  0  0  0  0  0  0  0  0  0  0
    0.1520   11.6030   -5.6460 N   0  0  0  0  0  0  0  0  0  0  0  0
   -2.6190   14.3870   -2.2790 C   0  0  1  0  0  0  0  0  0  0  0  0
   -1.9780   14.2200   -0.8680 C   0  0  2  0  0  0  0  0  0  0  0  0
   -0.5520   10.3470   -5.9300 C   0  0  0  0  0  0  0  0  0  0  0  0
   -3.8490   15.2850   -2.4310 C   0  0  0  0  0  0  0  0  0  0  0  0
   -2.7380   14.7900    0.3430 C   0  0  0  0  0  0  0  0  0  0  0  0
   -0.4380    9.9690   -7.4100 C   0  0  0  0  0  0  0  0  0  0  0  0
   -2.0250   10.5010   -5.5260 C   0  0  0  0  0  0  0  0  0  0  0  0
   -4.6830   15.5090   -1.1570 C   0  0  2  0  0  0  0  0  0  0  0  0
   -4.2400   14.7570    0.1000 C   0  0  0  0  0  0  0  0  0  0  0  0
   -6.4070   15.1670   -1.4840 Cl  0  0  0  0  0  0  0  0  0  0  0  0
   -1.2410    8.7160   -7.7370 C   0  0  0  0  0  0  0  0  0  0  0  0
   -2.8080    9.2240   -5.8190 C   0  0  0  0  0  0  0  0  0  0  0  0
   -2.6940    8.8210   -7.2830 C   0  0  0  0  0  0  0  0  0  0  0  0
  1  2  1  0
  2  3  1  1
  4  1  1  6
  2  5  1  0
  4  6  1  0
  4  7  1  0
  5  8  1  1
  5  9  1  0
  6 10  1  0
  7 11  1  0
 10 11  1  0
  9 12  1  0
 10 13  1  1
 11 14  1  1
 12 15  1  0
 12 16  1  0
 13 17  1  0
 14 18  1  0
 17 18  1  0
 17 19  1  6
 15 20  1  0
 16 21  1  0
 20 22  1  0
 21 22  1  0
M  END
