ucsf172-ucsf403
     RDKit          3D

 26 27  0  0  0  0  0  0  0  0999 V2000
   -7.9500   14.9810    2.4790 C   0  0  0  0  0  0  0  0  0  0  0  0
   -6.9380   14.3590    1.1860 S   0  0  0  0  0  0  0  0  0  0  0  0
   -6.6260   12.8910    1.7140 O   0  0  0  0  0  0  0  0  0  0  0  0
   -7.9300   14.2640   -0.0720 O   0  0  0  0  0  0  0  0  0  0  0  0
   -5.5460   15.1290    0.7870 N   0  0  0  0  0  0  0  0  0  0  0  0
   -4.6320   14.6380   -0.2300 C   0  0  2  0  0  0  0  0  0  0  0  0
   -3.1980   14.6670    0.3240 C   0  0  0  0  0  0  0  0  0  0  0  0
   -4.6820   15.4320   -1.5380 C   0  0  0  0  0  0  0  0  0  0  0  0
   -2.1510   14.1910   -0.6900 C   0  0  0  0  0  0  0  0  0  0  0  0
   -3.6530   14.9700   -2.5910 C   0  0  0  0  0  0  0  0  0  0  0  0
   -2.7060   13.8470   -2.0930 C   0  0  1  0  0  0  0  0  0  0  0  0
   -1.5390   13.4170   -3.0500 C   0  0  2  0  0  0  0  0  0  0  0  0
   -0.6480   14.5150   -3.1670 O   0  0  0  0  0  0  0  0  0  0  0  0
   -1.9040   12.9730   -4.3910 O   0  0  0  0  0  0  0  0  0  0  0  0
   -1.8250   11.5000   -4.6650 C   0  0  2  0  0  0  0  0  0  0  0  0
   -0.5020   10.9310   -5.3480 C   0  0  2  0  0  0  0  0  0  0  0  0
   -3.0830   11.0710   -5.4360 C   0  0  0  0  0  0  0  0  0  0  0  0
    0.3160   11.9620   -5.8930 O   0  0  0  0  0  0  0  0  0  0  0  0
   -3.1020    9.5820   -5.7270 C   0  0  0  0  0  0  0  0  0  0  0  0
   -0.5870    9.6310   -6.2390 C   0  0  2  0  0  0  0  0  0  0  0  0
    0.4510    9.6680   -7.7150 Cl  0  0  0  0  0  0  0  0  0  0  0  0
    1.2280   12.5830   -4.9560 C   0  0  0  0  0  0  0  0  0  0  0  0
   -1.9940    9.2050   -6.6870 C   0  0  0  0  0  0  0  0  0  0  0  0
    0.8620   12.2780   -3.4680 C   0  0  2  0  0  0  0  0  0  0  0  0
    1.9180   12.3970   -2.7010 O   0  0  0  0  0  0  0  0  0  0  0  0
    0.5660   10.9100   -3.2350 O   0  0  0  0  0  0  0  0  0  0  0  0
  1  2  1  0
  2  3  1  0
  2  4  1  0
  2  5  1  0
  6  5  1  1
  6  7  1  0
  6  8  1  0
  7  9  1  0
  8 10  1  0
 11  9  1  1
 10 11  1  0
 11 12  1  0
 12 13  1  6
 12 14  1  0
 15 14  1  6
 15 16  1  0
 15 17  1  0
 16 18  1  6
 17 19  1  0
 16 20  1  0
 20 21  1  6
 18 22  1  0
 19 23  1  0
 20 23  1  0
 22 24  1  0
 24 25  1  1
 24 26  1  0
M  CHG  1  25  -1
M  END
