ucsf303-ucsf172
     RDKit          3D

 22 24  0  0  0  0  0  0  0  0999 V2000
   -2.7200   14.2420   -3.0420 O   0  0  0  0  0  0  0  0  0  0  0  0
   -4.1070   14.3270   -2.2360 S   0  0  1  0  0  0  0  0  0  0  0  0
   -4.5040   15.8650   -2.1430 O   0  0  0  0  0  0  0  0  0  0  0  0
   -1.5890   14.3700   -2.1950 C   0  0  2  0  0  0  0  0  0  0  0  0
   -5.2590   13.3650   -2.8640 N   0  0  0  0  0  0  0  0  0  0  0  0
   -0.5340   13.6010   -2.7350 O   0  0  0  0  0  0  0  0  0  0  0  0
   -1.9860   13.8770   -0.7760 C   0  0  2  0  0  0  0  0  0  0  0  0
   -3.5440   13.8360   -0.6510 C   0  0  1  0  0  0  0  0  0  0  0  0
   -5.0820   11.9400   -2.8930 C   0  0  2  0  0  0  0  0  0  0  0  0
   -1.1830   14.5150    0.3480 C   0  0  0  0  0  0  0  0  0  0  0  0
   -4.2430   14.4390    0.5950 C   0  0  2  0  0  0  0  0  0  0  0  0
   -5.5570   15.0800    0.4100 N   0  0  0  0  0  0  0  0  0  0  0  0
   -5.7610   11.2590   -1.7940 N   0  0  0  0  0  0  0  0  0  0  0  0
   -3.3770   11.4340   -2.7110 S   0  0  0  0  0  0  0  0  0  0  0  0
   -1.9970   14.7900    1.5730 C   0  0  0  0  0  0  0  0  0  0  0  0
   -3.3570   15.4070    1.3280 C   0  0  0  0  0  0  0  0  0  0  0  0
   -6.9230   14.3890    1.0480 S   0  0  0  0  0  0  0  0  0  0  0  0
   -3.9700    9.7640   -2.4460 C   0  0  0  0  0  0  0  0  0  0  0  0
   -5.3510    9.8430   -1.9250 N   0  0  0  0  0  0  0  0  0  0  0  0
   -7.7280   14.9650    2.5000 C   0  0  0  0  0  0  0  0  0  0  0  0
   -6.5920   12.8950    1.4850 O   0  0  0  0  0  0  0  0  0  0  0  0
   -8.0850   14.3240   -0.0490 O   0  0  0  0  0  0  0  0  0  0  0  0
  2  1  1  0
  2  3  1  1
  1  4  1  0
  2  5  1  0
  4  6  1  6
  4  7  1  0
  2  8  1  0
  7  8  1  0
  9  5  1  1
  7 10  1  1
  8 11  1  1
 11 12  1  6
  9 13  1  0
  9 14  1  0
 10 15  1  0
 11 16  1  0
 15 16  1  0
 12 17  1  0
 14 18  1  0
 13 19  1  0
 18 19  1  0
 17 20  1  0
 17 21  1  0
 17 22  1  0
M  END
