ucsf224-ucsf337
     RDKit          3D

 23 24  0  0  0  0  0  0  0  0999 V2000
   -0.9280   17.9840   -6.0470 Cl  0  0  0  0  0  0  0  0  0  0  0  0
   -0.4640   16.7510   -4.8240 C   0  0  1  0  0  0  0  0  0  0  0  0
   -1.2760   15.4400   -4.7790 C   0  0  1  0  0  0  0  0  0  0  0  0
    1.0310   16.4730   -4.7870 C   0  0  0  0  0  0  0  0  0  0  0  0
   -2.7390   15.4880   -5.2670 C   0  0  0  0  0  0  0  0  0  0  0  0
   -0.4120   14.3010   -5.3440 C   0  0  0  0  0  0  0  0  0  0  0  0
    1.3700   15.2620   -3.8840 C   0  0  0  0  0  0  0  0  0  0  0  0
   -3.6850   15.0800   -4.1360 C   0  0  0  0  0  0  0  0  0  0  0  0
    0.7070   13.9460   -4.3730 C   0  0  1  0  0  0  0  0  0  0  0  0
    0.0380   13.0500   -3.2960 C   0  0  0  0  0  0  0  0  0  0  0  0
   -5.0850   14.5530   -4.4830 C   0  0  0  0  0  0  0  0  0  0  0  0
    0.8710   12.1220   -2.3870 C   0  0  2  0  0  0  0  0  0  0  0  0
   -6.1550   14.8760   -3.5240 N   0  0  0  0  0  0  0  0  0  0  0  0
    0.3310   10.8980   -2.2970 O   0  0  0  0  0  0  0  0  0  0  0  0
    0.6030   12.6110   -1.0920 O   0  0  0  0  0  0  0  0  0  0  0  0
   -5.7780   15.2530   -2.1770 C   0  0  2  0  0  0  0  0  0  0  0  0
   -4.2880   15.0860   -1.9400 C   0  0  0  0  0  0  0  0  0  0  0  0
   -6.5920   14.3920   -1.3450 N   0  0  0  0  0  0  0  0  0  0  0  0
   -6.1640   14.1000    0.0460 C   0  0  2  0  0  0  0  0  0  0  0  0
   -3.9300   15.3550   -0.5100 C   0  0  0  0  0  0  0  0  0  0  0  0
   -7.3090   14.5600    0.9610 C   0  0  0  0  0  0  0  0  0  0  0  0
   -4.7190   14.5130    0.4490 C   0  0  1  0  0  0  0  0  0  0  0  0
   -4.5620   15.4870    2.0950 Br  0  0  0  0  0  0  0  0  0  0  0  0
  2  1  1  6
  2  3  1  0
  2  4  1  0
  3  5  1  6
  3  6  1  0
  4  7  1  0
  5  8  1  0
  6  9  1  0
  7  9  1  0
  9 10  1  1
  8 11  1  0
 10 12  1  0
 11 13  1  0
 12 14  1  1
 12 15  1  0
 16 13  1  6
 16 17  1  0
 16 18  1  0
 18 19  1  0
 17 20  1  0
 19 21  1  1
 19 22  1  0
 20 22  1  0
 22 23  1  1
M  CHG  1  14  -1
M  END
