ucsf442-ucsf039
     RDKit          3D

 21 24  0  0  0  0  0  0  0  0999 V2000
   -0.3910   16.3820    0.4260 O   0  0  0  0  0  0  0  0  0  0  0  0
   -1.4010   15.4660    0.2460 C   0  0  2  0  0  0  0  0  0  0  0  0
   -1.5190   14.9400   -1.2720 C   0  0  2  0  0  0  0  0  0  0  0  0
   -2.5350   15.8010    1.0650 N   0  0  0  0  0  0  0  0  0  0  0  0
   -0.9340   14.3620    0.9760 N   0  0  0  0  0  0  0  0  0  0  0  0
   -1.0420   15.9850   -2.3730 C   0  0  0  0  0  0  0  0  0  0  0  0
   -3.5870   14.8980    0.7670 C   0  0  2  0  0  0  0  0  0  0  0  0
   -3.0060   14.5170   -1.5940 C   0  0  2  0  0  0  0  0  0  0  0  0
   -0.5390   13.8050   -1.1640 N   0  0  0  0  0  0  0  0  0  0  0  0
    0.1240   14.0120    0.1090 C   0  0  0  0  0  0  0  0  0  0  0  0
   -3.3820   14.8790   -2.9270 O   0  0  0  0  0  0  0  0  0  0  0  0
   -4.0210   15.1660   -0.6510 C   0  0  1  0  0  0  0  0  0  0  0  0
   -4.7820   15.2370    1.5030 N   0  0  0  0  0  0  0  0  0  0  0  0
   -0.5650   15.6160   -3.8150 C   0  0  2  0  0  0  0  0  0  0  0  0
   -5.4280   14.7050   -0.6860 N   0  0  0  0  0  0  0  0  0  0  0  0
   -5.8110   14.5790    0.7250 C   0  0  0  0  0  0  0  0  0  0  0  0
    0.9080   15.9990   -4.0680 C   0  0  0  0  0  0  0  0  0  0  0  0
   -1.3290   16.3230   -4.8720 N   0  0  0  0  0  0  0  0  0  0  0  0
   -0.8830   17.7230   -4.9350 C   0  0  1  0  0  0  0  0  0  0  0  0
    0.8670   17.7560   -4.5090 S   0  0  0  0  0  0  0  0  0  0  0  0
   -1.1260   18.3460   -6.3060 C   0  0  0  0  0  0  0  0  0  0  0  0
  2  1  1  6
  2  3  1  0
  2  4  1  0
  2  5  1  0
  3  6  1  6
  7  4  1  1
  3  8  1  0
  3  9  1  0
  5 10  1  0
  9 10  1  0
  8 11  1  6
  7 12  1  0
  8 12  1  0
  7 13  1  0
 14  6  1  1
 12 15  1  1
 13 16  1  0
 15 16  1  0
 14 17  1  0
 14 18  1  0
 18 19  1  0
 17 20  1  0
 19 20  1  0
 19 21  1  6
M  END
