ucsf519-ucsf412
     RDKit          3D

 21 22  0  0  0  0  0  0  0  0999 V2000
   -0.4100   15.9980   -4.7290 C   0  0  0  0  0  0  0  0  0  0  0  0
   -0.7000   14.7280   -3.9020 C   0  0  2  0  0  0  0  0  0  0  0  0
   -0.2720   13.3250   -5.0510 S   0  0  0  0  0  0  0  0  0  0  0  0
   -2.1850   14.5690   -3.4270 C   0  0  2  0  0  0  0  0  0  0  0  0
    1.3720   12.8200   -4.3970 C   0  0  0  0  0  0  0  0  0  0  0  0
   -3.0620   15.2560   -4.3280 O   0  0  0  0  0  0  0  0  0  0  0  0
   -2.6560   14.9280   -2.0920 N   0  0  0  0  0  0  0  0  0  0  0  0
    1.4330   12.1050   -3.0130 C   0  0  1  0  0  0  0  0  0  0  0  0
   -3.6730   14.0500   -1.5140 C   0  0  0  0  0  0  0  0  0  0  0  0
   -1.8070   15.0440   -0.9630 C   0  0  1  0  0  0  0  0  0  0  0  0
    0.9550   12.9700   -2.0060 O   0  0  0  0  0  0  0  0  0  0  0  0
    0.5800   11.1010   -2.8790 O   0  0  0  0  0  0  0  0  0  0  0  0
   -0.6800   15.8580   -1.0790 O   0  0  0  0  0  0  0  0  0  0  0  0
   -4.0260   14.8940   -0.2710 C   0  0  1  0  0  0  0  0  0  0  0  0
   -2.7580   15.7020   -0.0690 N   0  0  0  0  0  0  0  0  0  0  0  0
   -5.3120   15.6580   -0.6700 C   0  0  0  0  0  0  0  0  0  0  0  0
   -4.3060   14.1290    1.0580 C   0  0  0  0  0  0  0  0  0  0  0  0
   -6.5840   14.8860   -0.2520 C   0  0  2  0  0  0  0  0  0  0  0  0
   -5.3850   14.9130    1.7880 C   0  0  0  0  0  0  0  0  0  0  0  0
   -7.7690   15.5320   -0.6780 O   0  0  0  0  0  0  0  0  0  0  0  0
   -6.6820   14.6970    1.1700 N   0  0  0  0  0  0  0  0  0  0  0  0
  2  1  1  6
  2  3  1  0
  2  4  1  0
  3  5  1  0
  4  6  1  6
  4  7  1  0
  5  8  1  0
  7  9  1  0
  7 10  1  0
  8 11  1  1
  8 12  1  0
 10 13  1  6
 14  9  1  6
 10 15  1  0
 14 15  1  0
 14 16  1  0
 14 17  1  0
 16 18  1  0
 17 19  1  0
 18 20  1  1
 18 21  1  0
 19 21  1  0
M  CHG  1  12  -1
M  END
