ucsf365-ucsf264
     RDKit          3D

 24 26  0  0  0  0  0  0  0  0999 V2000
    0.7500   11.4370   -2.2530 O   0  0  0  0  0  0  0  0  0  0  0  0
    0.9870   12.4720   -3.0510 C   0  0  1  0  0  0  0  0  0  0  0  0
    2.3660   12.3170   -3.2630 O   0  0  0  0  0  0  0  0  0  0  0  0
    0.0550   12.3170   -4.3230 C   0  0  1  0  0  0  0  0  0  0  0  0
   -1.0360   13.4050   -4.6350 C   0  0  2  0  0  0  0  0  0  0  0  0
    0.3530   11.3790   -5.4680 N   0  0  0  0  0  0  0  0  0  0  0  0
   -1.9740   12.9380   -5.7460 C   0  0  1  0  0  0  0  0  0  0  0  0
   -0.5530   14.8290   -4.9440 C   0  0  0  0  0  0  0  0  0  0  0  0
    1.0770   11.7540   -6.6790 N   0  0  0  0  0  0  0  0  0  0  0  0
   -0.8930   10.7630   -5.8270 C   0  0  1  0  0  0  0  0  0  0  0  0
   -2.6300   11.7090   -5.4500 O   0  0  0  0  0  0  0  0  0  0  0  0
   -3.1160   13.9080   -6.0080 C   0  0  0  0  0  0  0  0  0  0  0  0
   -1.7090   15.8320   -5.0740 C   0  0  0  0  0  0  0  0  0  0  0  0
    0.3130   11.1980   -7.8580 C   0  0  2  0  0  0  0  0  0  0  0  0
   -0.9240   10.4900   -7.3190 C   0  0  1  0  0  0  0  0  0  0  0  0
   -1.2580    9.5330   -5.0390 C   0  0  0  0  0  0  0  0  0  0  0  0
    0.9520   10.4200   -9.0290 C   0  0  0  0  0  0  0  0  0  0  0  0
   -3.0890   15.1860   -5.1870 C   0  0  0  0  0  0  0  0  0  0  0  0
   -1.1480    8.9990   -7.6350 C   0  0  0  0  0  0  0  0  0  0  0  0
   -2.5570    8.9270   -5.5460 C   0  0  0  0  0  0  0  0  0  0  0  0
    1.6050    9.2930   -8.6760 F   0  0  0  0  0  0  0  0  0  0  0  0
   -0.0100   10.0080   -9.8820 F   0  0  0  0  0  0  0  0  0  0  0  0
    1.7210   11.1780   -9.8330 F   0  0  0  0  0  0  0  0  0  0  0  0
   -2.4040    8.4270   -6.9780 C   0  0  0  0  0  0  0  0  0  0  0  0
  2  1  1  1
  2  3  1  0
  2  4  1  0
  4  5  1  0
  4  6  1  6
  5  7  1  0
  5  8  1  6
  6  9  1  0
  6 10  1  0
  7 11  1  1
  7 12  1  0
  8 13  1  0
  9 14  1  0
 10 15  1  0
 14 15  1  0
 10 16  1  1
 14 17  1  1
 12 18  1  0
 13 18  1  0
 15 19  1  1
 16 20  1  0
 17 21  1  0
 17 22  1  0
 17 23  1  0
 19 24  1  0
 20 24  1  0
M  CHG  1   1  -1
M  END
