ucsf004-ucsf303
     RDKit          3D

 25 28  0  0  0  0  0  0  0  0999 V2000
   -1.7770   12.1160   -4.7140 F   0  0  0  0  0  0  0  0  0  0  0  0
   -1.4730   13.4390   -4.8290 C   0  0  2  0  0  0  0  0  0  0  0  0
   -0.0170   13.5780   -5.2050 C   0  0  0  0  0  0  0  0  0  0  0  0
   -1.7780   14.1610   -3.4960 C   0  0  0  0  0  0  0  0  0  0  0  0
   -0.6840   14.3540   -2.5090 N   0  0  0  0  0  0  0  0  0  0  0  0
    0.5280   14.9070   -4.6990 C   0  0  0  0  0  0  0  0  0  0  0  0
    0.4550   15.0400   -3.1710 C   0  0  0  0  0  0  0  0  0  0  0  0
   -1.1660   15.0880   -1.3010 C   0  0  2  0  0  0  0  0  0  0  0  0
   -0.0580   15.2590   -0.3490 N   0  0  0  0  0  0  0  0  0  0  0  0
   -2.2970   14.5120   -0.4560 C   0  0  1  0  0  0  0  0  0  0  0  0
   -0.0980   14.5260    0.9310 C   0  0  0  0  0  0  0  0  0  0  0  0
   -2.2320   15.3000    0.8090 C   0  0  2  0  0  0  0  0  0  0  0  0
   -3.7920   14.3760   -0.7360 C   0  0  2  0  0  0  0  0  0  0  0  0
   -4.4950   14.4650   -2.3300 S   0  0  0  0  0  0  0  0  0  0  0  0
   -1.3390   14.6600    1.6590 N   0  0  0  0  0  0  0  0  0  0  0  0
   -3.5610   15.3670    1.3880 N   0  0  0  0  0  0  0  0  0  0  0  0
   -4.4450   15.3700    0.2270 C   0  0  0  0  0  0  0  0  0  0  0  0
   -3.3600   14.6140   -3.4320 O   0  0  0  0  0  0  0  0  0  0  0  0
   -5.2270   15.8640   -2.3110 O   0  0  0  0  0  0  0  0  0  0  0  0
   -5.5550   13.2710   -2.6720 N   0  0  0  0  0  0  0  0  0  0  0  0
   -5.1880   11.8850   -2.7640 C   0  0  2  0  0  0  0  0  0  0  0  0
   -5.8870   11.0730   -1.7920 N   0  0  0  0  0  0  0  0  0  0  0  0
   -3.4600   11.5150   -2.5130 S   0  0  0  0  0  0  0  0  0  0  0  0
   -3.9250    9.7870   -2.3910 C   0  0  0  0  0  0  0  0  0  0  0  0
   -5.3400    9.7050   -1.9650 N   0  0  0  0  0  0  0  0  0  0  0  0
  2  1  1  1
  2  3  1  0
  2  4  1  0
  4  5  1  0
  3  6  1  0
  5  7  1  0
  6  7  1  0
  8  5  1  6
  8  9  1  0
 10  8  1  6
  9 11  1  0
 10 12  1  0
 10 13  1  0
 13 14  1  6
 11 15  1  0
 12 15  1  1
 12 16  1  0
 13 17  1  0
 16 17  1  0
 14 18  1  0
 14 19  1  0
 14 20  1  0
 21 20  1  1
 21 22  1  0
 21 23  1  0
 23 24  1  0
 22 25  1  0
 24 25  1  0
M  END
