ucsf364-ucsf115
     RDKit          3D

 21 24  0  0  0  0  0  0  0  0999 V2000
    2.6200   13.0770   -4.5270 C   0  0  0  0  0  0  0  0  0  0  0  0
    1.2440   12.4180   -4.6520 C   0  0  2  0  0  0  0  0  0  0  0  0
    0.7940   12.2050   -6.1030 C   0  0  1  0  0  0  0  0  0  0  0  0
    0.1650   13.2250   -3.9440 C   0  0  2  0  0  0  0  0  0  0  0  0
    1.8330   11.7410   -6.9470 O   0  0  0  0  0  0  0  0  0  0  0  0
    0.1280   13.1200   -2.3730 C   0  0  1  0  0  0  0  0  0  0  0  0
   -1.2300   12.8350   -4.4510 C   0  0  2  0  0  0  0  0  0  0  0  0
   -0.3800   11.2290   -6.1770 C   0  0  0  0  0  0  0  0  0  0  0  0
   -1.2780   13.4280   -2.1240 N   0  0  0  0  0  0  0  0  0  0  0  0
    0.4720   11.9200   -1.9110 O   0  0  0  0  0  0  0  0  0  0  0  0
   -2.1400   13.1580   -3.2790 C   0  0  0  0  0  0  0  0  0  0  0  0
   -1.3040   11.3910   -4.9740 C   0  0  0  0  0  0  0  0  0  0  0  0
   -1.6210   14.5670   -1.3220 C   0  0  2  0  0  0  0  0  0  0  0  0
   -0.5010   14.9240   -0.4430 N   0  0  0  0  0  0  0  0  0  0  0  0
   -3.0260   14.8420   -0.6670 C   0  0  2  0  0  0  0  0  0  0  0  0
   -0.5960   14.4760    0.9180 C   0  0  0  0  0  0  0  0  0  0  0  0
   -2.9640   14.5150    0.7960 C   0  0  1  0  0  0  0  0  0  0  0  0
   -4.3450   14.2950   -1.0030 N   0  0  0  0  0  0  0  0  0  0  0  0
   -1.8100   14.9880    1.4800 N   0  0  0  0  0  0  0  0  0  0  0  0
   -4.1780   15.1320    1.2480 N   0  0  0  0  0  0  0  0  0  0  0  0
   -5.1120   14.7450    0.1810 C   0  0  0  0  0  0  0  0  0  0  0  0
  2  1  1  6
  2  3  1  0
  2  4  1  0
  3  5  1  6
  4  6  1  1
  4  7  1  0
  3  8  1  0
  6  9  1  0
  6 10  1  6
  7 11  1  1
  9 11  1  0
  7 12  1  0
  8 12  1  0
 13  9  1  1
 13 14  1  0
 13 15  1  0
 14 16  1  0
 15 17  1  0
 15 18  1  6
 16 19  1  0
 17 19  1  1
 17 20  1  0
 18 21  1  0
 20 21  1  0
M  CHG  1  10  -1
M  END
