ucsf403-ucsf404
     RDKit          3D

 26 28  0  0  0  0  0  0  0  0999 V2000
    0.7200    9.1050   -7.8260 Cl  0  0  0  0  0  0  0  0  0  0  0  0
   -0.7300    9.7310   -6.9390 C   0  0  2  0  0  0  0  0  0  0  0  0
   -0.3740   10.5490   -5.6610 C   0  0  1  0  0  0  0  0  0  0  0  0
   -1.6400    8.5400   -6.6260 C   0  0  0  0  0  0  0  0  0  0  0  0
    0.5840   11.5870   -5.9630 O   0  0  0  0  0  0  0  0  0  0  0  0
   -1.6950   11.0980   -5.0690 C   0  0  1  0  0  0  0  0  0  0  0  0
   -2.9100    9.0050   -5.9400 C   0  0  0  0  0  0  0  0  0  0  0  0
   -1.7980   12.6110   -4.8270 C   0  0  0  0  0  0  0  0  0  0  0  0
    0.8980   12.6350   -4.9960 C   0  0  0  0  0  0  0  0  0  0  0  0
   -2.9330   10.5330   -5.7970 C   0  0  0  0  0  0  0  0  0  0  0  0
    1.3380   12.1750   -3.5650 C   0  0  1  0  0  0  0  0  0  0  0  0
   -1.3180   13.0740   -3.4540 C   0  0  0  0  0  0  0  0  0  0  0  0
    0.9750   13.0110   -2.6240 O   0  0  0  0  0  0  0  0  0  0  0  0
    0.6470   10.9930   -3.1950 O   0  0  0  0  0  0  0  0  0  0  0  0
   -2.4830   13.1770   -2.4850 C   0  0  0  0  0  0  0  0  0  0  0  0
   -2.6690   14.5490   -1.8430 C   0  0  1  0  0  0  0  0  0  0  0  0
   -3.8980   15.2760   -2.4420 C   0  0  0  0  0  0  0  0  0  0  0  0
   -2.6610   14.4440   -0.3090 C   0  0  0  0  0  0  0  0  0  0  0  0
   -4.0280   13.9910    0.1150 C   0  0  2  0  0  0  0  0  0  0  0  0
   -5.1250   15.5270   -1.5150 C   0  0  1  0  0  0  0  0  0  0  0  0
   -6.6080   14.8890   -2.2770 Cl  0  0  0  0  0  0  0  0  0  0  0  0
   -4.9690   15.1540   -0.0490 C   0  0  1  0  0  0  0  0  0  0  0  0
   -4.2390   13.5560    1.8440 S   0  0  0  0  0  0  0  0  0  0  0  0
   -5.6280   14.6840    2.0240 C   0  0  1  0  0  0  0  0  0  0  0  0
   -6.1590   14.8300    0.7160 N   0  0  0  0  0  0  0  0  0  0  0  0
   -6.7010   14.1890    2.8170 N   0  0  0  0  0  0  0  0  0  0  0  0
  2  1  1  1
  2  3  1  0
  2  4  1  0
  3  5  1  6
  3  6  1  0
  4  7  1  0
  6  8  1  6
  5  9  1  0
  6 10  1  0
  7 10  1  0
  9 11  1  0
  8 12  1  0
 11 13  1  1
 11 14  1  0
 12 15  1  0
 16 15  1  6
 16 17  1  0
 16 18  1  0
 19 18  1  1
 17 20  1  0
 20 21  1  6
 19 22  1  0
 20 22  1  0
 19 23  1  0
 23 24  1  0
 22 25  1  6
 24 25  1  0
 24 26  1  1
M  CHG  1  13  -1
M  END
