ucsf004-ucsf365
     RDKit          3D

 20 22  0  0  0  0  0  0  0  0999 V2000
   -2.1120   13.0180   -5.4220 F   0  0  0  0  0  0  0  0  0  0  0  0
   -1.7970   13.3840   -4.1550 C   0  0  1  0  0  0  0  0  0  0  0  0
   -0.3070   13.4460   -3.8730 C   0  0  1  0  0  0  0  0  0  0  0  0
   -2.2870   14.7790   -3.7880 C   0  0  0  0  0  0  0  0  0  0  0  0
    0.4660   12.1480   -3.9160 C   0  0  0  0  0  0  0  0  0  0  0  0
   -1.3610   15.4990   -2.8350 N   0  0  0  0  0  0  0  0  0  0  0  0
    0.3200   14.6980   -4.4710 C   0  0  0  0  0  0  0  0  0  0  0  0
    0.7740   11.6480   -2.4860 C   0  0  1  0  0  0  0  0  0  0  0  0
   -0.0340   15.7770   -3.4630 C   0  0  0  0  0  0  0  0  0  0  0  0
   -1.4020   14.8780   -1.4740 C   0  0  1  0  0  0  0  0  0  0  0  0
   -0.1710   11.8760   -1.6170 O   0  0  0  0  0  0  0  0  0  0  0  0
    0.7350   10.2660   -2.4130 O   0  0  0  0  0  0  0  0  0  0  0  0
   -0.1630   15.1570   -0.7240 N   0  0  0  0  0  0  0  0  0  0  0  0
   -2.5230   15.3590   -0.5800 C   0  0  2  0  0  0  0  0  0  0  0  0
   -0.1160   14.7450    0.6900 C   0  0  0  0  0  0  0  0  0  0  0  0
   -2.4980   14.6790    0.7360 C   0  0  1  0  0  0  0  0  0  0  0  0
   -3.9550   15.1060   -0.9780 C   0  0  0  0  0  0  0  0  0  0  0  0
   -1.3200   15.0330    1.4530 N   0  0  0  0  0  0  0  0  0  0  0  0
   -3.6090   15.3340    1.4100 N   0  0  0  0  0  0  0  0  0  0  0  0
   -4.6240   15.4830    0.3360 C   0  0  0  0  0  0  0  0  0  0  0  0
  2  1  1  6
  2  3  1  0
  2  4  1  0
  3  5  1  6
  4  6  1  0
  3  7  1  0
  5  8  1  0
  6  9  1  0
  7  9  1  0
 10  6  1  6
  8 11  1  1
  8 12  1  0
 10 13  1  0
 10 14  1  0
 13 15  1  0
 14 16  1  0
 14 17  1  6
 15 18  1  0
 16 18  1  1
 16 19  1  0
 17 20  1  0
 19 20  1  0
M  CHG  1  11  -1
M  END
