ucsf516-ucsf378
     RDKit          3D

 29 33  0  0  0  0  0  0  0  0999 V2000
   -0.1910   11.0770   -6.2220 Cl  0  0  0  0  0  0  0  0  0  0  0  0
    0.4160   12.0900   -4.8800 C   0  0  2  0  0  0  0  0  0  0  0  0
   -0.6780   12.5370   -3.8730 C   0  0  2  0  0  0  0  0  0  0  0  0
    1.2380   13.2230   -5.4530 C   0  0  0  0  0  0  0  0  0  0  0  0
   -1.3020   11.3070   -3.2560 C   0  0  0  0  0  0  0  0  0  0  0  0
    0.4020   14.4790   -5.4250 C   0  0  0  0  0  0  0  0  0  0  0  0
   -1.7570   13.4470   -4.5350 C   0  0  1  0  0  0  0  0  0  0  0  0
   -0.3320   10.6750   -2.2870 C   0  0  1  0  0  0  0  0  0  0  0  0
   -2.3500   14.6060   -3.6290 C   0  0  1  0  0  0  0  0  0  0  0  0
   -1.0690   14.1310   -5.6840 C   0  0  0  0  0  0  0  0  0  0  0  0
    0.0480   11.5520   -1.3830 O   0  0  0  0  0  0  0  0  0  0  0  0
   -1.1320    9.8570   -1.5430 O   0  0  0  0  0  0  0  0  0  0  0  0
   -1.5410   14.9010   -2.4140 N   0  0  0  0  0  0  0  0  0  0  0  0
   -2.0480   15.9040   -4.4230 C   0  0  0  0  0  0  0  0  0  0  0  0
   -0.5250   16.0570   -4.2010 C   0  0  0  0  0  0  0  0  0  0  0  0
   -0.3000   14.9280   -3.1890 C   0  0  1  0  0  0  0  0  0  0  0  0
   -1.6340   14.0430   -1.2190 C   0  0  1  0  0  0  0  0  0  0  0  0
    1.0640   14.6910   -2.5820 C   0  0  0  0  0  0  0  0  0  0  0  0
   -0.4140   14.1580   -0.4080 N   0  0  0  0  0  0  0  0  0  0  0  0
   -2.9610   14.0840   -0.4150 C   0  0  1  0  0  0  0  0  0  0  0  0
    2.3310   14.6530   -3.4540 C   0  0  0  0  0  0  0  0  0  0  0  0
    1.5260   13.3340   -2.0070 C   0  0  0  0  0  0  0  0  0  0  0  0
   -0.4750   14.3710    1.0160 C   0  0  0  0  0  0  0  0  0  0  0  0
   -2.8000   14.5010    1.0300 C   0  0  1  0  0  0  0  0  0  0  0  0
   -4.0590   14.9750   -0.9700 C   0  0  0  0  0  0  0  0  0  0  0  0
    2.9560   13.7360   -2.3810 C   0  0  0  0  0  0  0  0  0  0  0  0
   -1.6030   15.2100    1.3070 N   0  0  0  0  0  0  0  0  0  0  0  0
   -3.9160   15.3320    1.4120 N   0  0  0  0  0  0  0  0  0  0  0  0
   -4.7970   15.4910    0.2480 C   0  0  0  0  0  0  0  0  0  0  0  0
  2  1  1  6
  2  3  1  0
  2  4  1  0
  3  5  1  6
  4  6  1  0
  3  7  1  0
  5  8  1  0
  7  9  1  0
  6 10  1  0
  7 10  1  6
  8 11  1  1
  8 12  1  0
  9 13  1  0
  9 14  1  6
 14 15  1  0
 13 16  1  0
 15 16  1  0
 17 13  1  6
 16 18  1  1
 17 19  1  0
 17 20  1  0
 18 21  1  0
 18 22  1  0
 19 23  1  0
 20 24  1  0
 20 25  1  6
 21 26  1  0
 22 26  1  0
 23 27  1  0
 24 27  1  6
 24 28  1  0
 25 29  1  0
 28 29  1  0
M  CHG  1  11  -1
M  END
