ucsf138-ucsf378
     RDKit          3D

 23 24  0  0  0  0  0  0  0  0999 V2000
    0.6280   11.9780   -1.6380 O   0  0  0  0  0  0  0  0  0  0  0  0
    0.3430   11.1930   -2.6740 C   0  0  1  0  0  0  0  0  0  0  0  0
   -1.0050   10.8240   -2.5530 O   0  0  0  0  0  0  0  0  0  0  0  0
    0.6060   11.9720   -4.0400 C   0  0  1  0  0  0  0  0  0  0  0  0
   -0.1190   11.4590   -5.2910 N   0  0  0  0  0  0  0  0  0  0  0  0
   -1.2300    9.9570   -3.6850 O   0  0  0  0  0  0  0  0  0  0  0  0
    0.4740   13.5270   -3.8940 C   0  0  0  0  0  0  0  0  0  0  0  0
    0.6690   11.4340   -6.5370 C   0  0  2  0  0  0  0  0  0  0  0  0
    1.4870   14.1510   -4.8080 C   0  0  2  0  0  0  0  0  0  0  0  0
   -0.9120   14.2410   -3.9410 C   0  0  2  0  0  0  0  0  0  0  0  0
    0.5770   12.6970   -7.0670 O   0  0  0  0  0  0  0  0  0  0  0  0
   -0.0140   10.5620   -7.4920 N   0  0  0  0  0  0  0  0  0  0  0  0
   -2.2460   13.4220   -4.8290 Cl  0  0  0  0  0  0  0  0  0  0  0  0
    2.9690   13.1260   -4.5530 Cl  0  0  0  0  0  0  0  0  0  0  0  0
    1.7350   15.6160   -4.5040 C   0  0  0  0  0  0  0  0  0  0  0  0
   -0.7460   15.6790   -4.4530 C   0  0  0  0  0  0  0  0  0  0  0  0
    0.7610   10.1950   -8.7070 C   0  0  0  0  0  0  0  0  0  0  0  0
    0.5360   16.3170   -3.9360 C   0  0  0  0  0  0  0  0  0  0  0  0
   -0.1250   10.2980   -9.9610 C   0  0  0  0  0  0  0  0  0  0  0  0
    1.3150    8.7740   -8.5890 C   0  0  0  0  0  0  0  0  0  0  0  0
    0.5100    9.7320  -11.2450 C   0  0  0  0  0  0  0  0  0  0  0  0
    1.9660    8.2250   -9.8670 C   0  0  0  0  0  0  0  0  0  0  0  0
    1.0630    8.3190  -11.0860 C   0  0  0  0  0  0  0  0  0  0  0  0
  2  1  1  1
  2  3  1  0
  2  4  1  0
  4  5  1  6
  3  6  1  0
  4  7  1  0
  5  8  1  0
  7  9  1  0
  7 10  1  0
  8 11  1  6
  8 12  1  0
 10 13  1  6
  9 14  1  1
  9 15  1  0
 10 16  1  0
 12 17  1  0
 15 18  1  0
 16 18  1  0
 17 19  1  0
 17 20  1  0
 19 21  1  0
 20 22  1  0
 21 23  1  0
 22 23  1  0
M  CHG  1   1  -1
M  END
