ucsf170-ucsf190
     RDKit          3D

 26 28  0  0  0  0  0  0  0  0999 V2000
   -5.3420   14.9150    1.4210 C   0  0  0  0  0  0  0  0  0  0  0  0
   -3.6130   15.4350    1.3040 S   0  0  0  0  0  0  0  0  0  0  0  0
   -3.2670   14.6100   -0.2840 C   0  0  2  0  0  0  0  0  0  0  0  0
   -1.7700   14.4490   -0.5610 C   0  0  0  0  0  0  0  0  0  0  0  0
   -4.0930   15.3230   -1.3710 C   0  0  0  0  0  0  0  0  0  0  0  0
   -1.5600   13.6260   -1.8050 C   0  0  2  0  0  0  0  0  0  0  0  0
   -3.5270   15.1410   -2.7600 C   0  0  0  0  0  0  0  0  0  0  0  0
   -0.0890   13.7350   -2.2800 C   0  0  2  0  0  0  0  0  0  0  0  0
   -2.6630   13.8790   -2.8830 C   0  0  1  0  0  0  0  0  0  0  0  0
   -2.0600   13.9470   -4.1560 O   0  0  0  0  0  0  0  0  0  0  0  0
    0.5460   12.5530   -1.7590 O   0  0  0  0  0  0  0  0  0  0  0  0
    0.4750   14.8500   -1.8560 O   0  0  0  0  0  0  0  0  0  0  0  0
    0.3990   11.5850   -2.8190 C   0  0  2  0  0  0  0  0  0  0  0  0
    0.7800   10.3770   -2.4060 O   0  0  0  0  0  0  0  0  0  0  0  0
    1.2320   12.2450   -3.9840 C   0  0  0  0  0  0  0  0  0  0  0  0
    1.0190   13.7870   -4.1110 C   0  0  2  0  0  0  0  0  0  0  0  0
   -0.0540   14.2370   -5.1480 C   0  0  2  0  0  0  0  0  0  0  0  0
    2.2040   14.6740   -4.2010 N   0  0  0  0  0  0  0  0  0  0  0  0
   -0.6700   15.4720   -4.4790 C   0  0  1  0  0  0  0  0  0  0  0  0
    1.7850   15.9840   -4.7170 N   0  0  0  0  0  0  0  0  0  0  0  0
   -1.0510   13.1380   -5.5200 C   0  0  0  0  0  0  0  0  0  0  0  0
    0.4910   16.4590   -4.2190 C   0  0  1  0  0  0  0  0  0  0  0  0
   -1.8690   16.0830   -5.2010 C   0  0  0  0  0  0  0  0  0  0  0  0
   -2.4520   13.6070   -5.9710 C   0  0  0  0  0  0  0  0  0  0  0  0
    0.2130   17.6870   -4.8720 O   0  0  0  0  0  0  0  0  0  0  0  0
   -2.9120   15.0590   -5.6760 C   0  0  0  0  0  0  0  0  0  0  0  0
  1  2  1  0
  3  2  1  1
  3  4  1  0
  3  5  1  0
  6  4  1  1
  5  7  1  0
  6  8  1  0
  6  9  1  0
  7  9  1  0
  9 10  1  6
  8 11  1  0
  8 12  1  1
 11 13  1  0
 13 14  1  1
 13 15  1  0
 16 15  1  6
 16 17  1  0
 16 18  1  0
 17 19  1  0
 18 20  1  0
 17 21  1  1
 19 22  1  0
 20 22  1  0
 19 23  1  6
 21 24  1  0
 22 25  1  6
 23 26  1  0
 24 26  1  0
M  CHG  2  12  -1  14  -1
M  END
