ucsf248-ucsf013
     RDKit          3D

 14 15  0  0  0  0  0  0  0  0999 V2000
   -8.2880   12.3370    2.3390 N   0  0  0  0  0  0  0  0  0  0  0  0
   -8.2530   13.9560    2.0280 S   0  0  0  0  0  0  0  0  0  0  0  0
   -7.8280   14.7460    3.3570 O   0  0  0  0  0  0  0  0  0  0  0  0
   -9.6950   14.5060    1.5750 O   0  0  0  0  0  0  0  0  0  0  0  0
   -7.1200   14.6080    0.7880 C   0  0  1  0  0  0  0  0  0  0  0  0
   -5.7110   14.6560    1.2370 N   0  0  0  0  0  0  0  0  0  0  0  0
   -6.9240   13.9910   -0.4990 N   0  0  0  0  0  0  0  0  0  0  0  0
   -5.4350   15.2570    2.5160 N   0  0  0  0  0  0  0  0  0  0  0  0
   -5.0040   15.3000    0.1320 C   0  0  2  0  0  0  0  0  0  0  0  0
   -5.9930   15.0180   -1.0330 C   0  0  1  0  0  0  0  0  0  0  0  0
   -3.5790   14.7220    0.0710 C   0  0  0  0  0  0  0  0  0  0  0  0
   -5.3270   14.6410   -2.3350 C   0  0  0  0  0  0  0  0  0  0  0  0
   -2.9910   14.6240   -1.3270 C   0  0  0  0  0  0  0  0  0  0  0  0
   -3.9010   15.1710   -2.4130 C   0  0  0  0  0  0  0  0  0  0  0  0
  1  2  1  0
  2  3  1  0
  2  4  1  0
  5  2  1  1
  5  6  1  0
  5  7  1  0
  6  8  1  0
  6  9  1  0
  7 10  1  0
  9 10  1  0
  9 11  1  6
 10 12  1  6
 11 13  1  0
 12 14  1  0
 13 14  1  0
M  END
