ucsf364-ucsf303
     RDKit          3D

 27 29  0  0  0  0  0  0  0  0999 V2000
    2.4070   13.3480   -4.5260 C   0  0  0  0  0  0  0  0  0  0  0  0
    1.1800   12.4460   -4.7360 C   0  0  2  0  0  0  0  0  0  0  0  0
    0.7820   12.3320   -6.2020 C   0  0  1  0  0  0  0  0  0  0  0  0
    0.0260   12.8070   -3.8130 C   0  0  2  0  0  0  0  0  0  0  0  0
    1.8330   11.8160   -6.9800 O   0  0  0  0  0  0  0  0  0  0  0  0
    0.4870   13.0920   -2.3310 C   0  0  1  0  0  0  0  0  0  0  0  0
   -1.1420   11.8020   -4.0170 C   0  0  0  0  0  0  0  0  0  0  0  0
   -0.4680   11.4960   -6.4540 C   0  0  0  0  0  0  0  0  0  0  0  0
   -0.5820   13.7730   -1.7200 O   0  0  0  0  0  0  0  0  0  0  0  0
    0.6470   11.9710   -1.6330 O   0  0  0  0  0  0  0  0  0  0  0  0
   -1.0040   10.8360   -5.1910 C   0  0  0  0  0  0  0  0  0  0  0  0
   -1.7870   13.0720   -1.9490 C   0  0  0  0  0  0  0  0  0  0  0  0
   -2.6230   13.7220   -2.8890 O   0  0  0  0  0  0  0  0  0  0  0  0
   -3.9840   14.3470   -2.3550 S   0  0  1  0  0  0  0  0  0  0  0  0
   -4.4800   15.5050   -3.3150 O   0  0  0  0  0  0  0  0  0  0  0  0
   -5.1890   13.2300   -2.1740 N   0  0  0  0  0  0  0  0  0  0  0  0
   -3.4810   15.1780   -0.8920 C   0  0  0  0  0  0  0  0  0  0  0  0
   -4.8200   11.9650   -1.6100 C   0  0  1  0  0  0  0  0  0  0  0  0
   -2.1220   14.6480   -0.3520 C   0  0  0  0  0  0  0  0  0  0  0  0
   -4.6270   15.2040    0.1030 C   0  0  0  0  0  0  0  0  0  0  0  0
   -5.9640   11.0730   -1.6900 N   0  0  0  0  0  0  0  0  0  0  0  0
   -3.5080   11.2580   -2.5960 S   0  0  0  0  0  0  0  0  0  0  0  0
   -1.7920   14.9140    1.1090 C   0  0  0  0  0  0  0  0  0  0  0  0
   -4.1420   15.6330    1.4590 C   0  0  0  0  0  0  0  0  0  0  0  0
   -4.1380    9.6040   -2.3990 C   0  0  0  0  0  0  0  0  0  0  0  0
   -5.5420    9.6790   -1.9750 N   0  0  0  0  0  0  0  0  0  0  0  0
   -3.0380   14.7350    1.9180 C   0  0  0  0  0  0  0  0  0  0  0  0
  2  1  1  6
  2  3  1  0
  2  4  1  0
  3  5  1  6
  4  6  1  0
  4  7  1  1
  3  8  1  0
  6  9  1  0
  6 10  1  1
  7 11  1  0
  8 11  1  0
  9 12  1  0
 12 13  1  0
 14 13  1  0
 14 15  1  6
 14 16  1  0
 14 17  1  0
 18 16  1  6
 17 19  1  0
 17 20  1  0
 18 21  1  0
 18 22  1  0
 19 23  1  0
 20 24  1  0
 22 25  1  0
 21 26  1  0
 25 26  1  0
 23 27  1  0
 24 27  1  0
M  CHG  1  10  -1
M  END
