ucsf151-ucsf264
     RDKit          3D

 26 28  0  0  0  0  0  0  0  0999 V2000
    0.6510   12.9530   -2.4050 O   0  0  0  0  0  0  0  0  0  0  0  0
   -0.0790   14.1840   -2.3460 C   0  0  1  0  0  0  0  0  0  0  0  0
    0.7170   15.2100   -2.9060 O   0  0  0  0  0  0  0  0  0  0  0  0
    0.2920   12.0440   -3.4390 C   0  0  2  0  0  0  0  0  0  0  0  0
    0.7060   10.7290   -3.0990 O   0  0  0  0  0  0  0  0  0  0  0  0
    0.8450   12.5030   -4.8220 C   0  0  0  0  0  0  0  0  0  0  0  0
   -1.4640   14.1420   -3.0580 C   0  0  1  0  0  0  0  0  0  0  0  0
   -1.7810   15.4150   -3.8410 C   0  0  0  0  0  0  0  0  0  0  0  0
   -1.7430   12.9530   -3.9890 C   0  0  0  0  0  0  0  0  0  0  0  0
    0.1320   11.9460   -6.0190 N   0  0  0  0  0  0  0  0  0  0  0  0
   -2.1650   15.1260   -5.2820 C   0  0  2  0  0  0  0  0  0  0  0  0
   -3.0920   12.9540   -4.5740 N   0  0  0  0  0  0  0  0  0  0  0  0
    1.0890   11.7560   -7.1130 N   0  0  0  0  0  0  0  0  0  0  0  0
   -0.5550   10.6600   -5.7920 C   0  0  2  0  0  0  0  0  0  0  0  0
   -2.5530   16.3650   -5.8990 O   0  0  0  0  0  0  0  0  0  0  0  0
   -3.3000   14.1080   -5.4460 C   0  0  0  0  0  0  0  0  0  0  0  0
    0.9600   10.4040   -7.7110 C   0  0  1  0  0  0  0  0  0  0  0  0
   -0.2500    9.7910   -7.0250 C   0  0  2  0  0  0  0  0  0  0  0  0
   -2.0690   10.7260   -5.5580 C   0  0  0  0  0  0  0  0  0  0  0  0
    0.9820   10.2480   -9.2400 C   0  0  0  0  0  0  0  0  0  0  0  0
   -1.4970    9.5040   -7.8480 C   0  0  0  0  0  0  0  0  0  0  0  0
   -2.7720    9.3620   -5.6850 C   0  0  0  0  0  0  0  0  0  0  0  0
    1.6130    9.0850   -9.5400 F   0  0  0  0  0  0  0  0  0  0  0  0
   -0.2250   10.2180   -9.8220 F   0  0  0  0  0  0  0  0  0  0  0  0
    1.6610   11.2180   -9.8680 F   0  0  0  0  0  0  0  0  0  0  0  0
   -2.4840    8.6840   -7.0180 C   0  0  0  0  0  0  0  0  0  0  0  0
  1  2  1  0
  2  3  1  6
  1  4  1  0
  4  5  1  1
  4  6  1  0
  2  7  1  0
  7  8  1  6
  7  9  1  0
  6 10  1  0
  8 11  1  0
  9 12  1  0
 10 13  1  0
 10 14  1  0
 11 15  1  1
 11 16  1  0
 12 16  1  0
 13 17  1  0
 14 18  1  0
 17 18  1  0
 14 19  1  6
 17 20  1  6
 18 21  1  6
 19 22  1  0
 20 23  1  0
 20 24  1  0
 20 25  1  0
 21 26  1  0
 22 26  1  0
M  END
