ucsf247-ucsf348
     RDKit          3D

 20 21  0  0  0  0  0  0  0  0999 V2000
    0.6580   13.0570   -1.8360 O   0  0  0  0  0  0  0  0  0  0  0  0
    0.5120   14.1120   -2.6150 C   0  0  1  0  0  0  0  0  0  0  0  0
    1.5550   13.9140   -3.5560 O   0  0  0  0  0  0  0  0  0  0  0  0
   -0.8670   14.1100   -3.3800 C   0  0  0  0  0  0  0  0  0  0  0  0
   -2.0030   13.5830   -2.5710 N   0  0  0  0  0  0  0  0  0  0  0  0
   -3.2430   14.3550   -2.6350 C   0  0  1  0  0  0  0  0  0  0  0  0
   -4.2430   13.8630   -3.4670 O   0  0  0  0  0  0  0  0  0  0  0  0
   -3.7620   14.9090   -1.2550 C   0  0  1  0  0  0  0  0  0  0  0  0
   -5.2850   15.3430   -1.2310 C   0  0  1  0  0  0  0  0  0  0  0  0
   -3.4440   14.2530    0.1270 C   0  0  2  0  0  0  0  0  0  0  0  0
   -2.8150   16.0780   -1.2300 C   0  0  0  0  0  0  0  0  0  0  0  0
   -5.9080   15.1800   -2.5280 O   0  0  0  0  0  0  0  0  0  0  0  0
   -6.1950   14.5180   -0.2710 C   0  0  2  0  0  0  0  0  0  0  0  0
   -4.2270   14.9920    1.2070 C   0  0  0  0  0  0  0  0  0  0  0  0
   -1.9740   14.0830    0.5650 C   0  0  0  0  0  0  0  0  0  0  0  0
   -1.3590   15.6900   -1.2050 C   0  0  0  0  0  0  0  0  0  0  0  0
   -7.4950   15.1430   -0.1910 O   0  0  0  0  0  0  0  0  0  0  0  0
   -5.6200   14.3950    1.1560 C   0  0  1  0  0  0  0  0  0  0  0  0
   -1.0240   15.1970    0.1640 C   0  0  0  0  0  0  0  0  0  0  0  0
   -6.5250   14.8570    2.2300 N   0  0  0  0  0  0  0  0  0  0  0  0
  2  1  1  1
  2  3  1  0
  2  4  1  0
  4  5  1  0
  5  6  1  0
  6  7  1  1
  6  8  1  0
  8  9  1  0
  8 10  1  0
  8 11  1  1
  9 12  1  6
  9 13  1  0
 10 14  1  1
 10 15  1  0
 11 16  1  0
 13 17  1  1
 13 18  1  0
 14 18  1  0
 15 19  1  0
 16 19  1  0
 18 20  1  1
M  CHG  1   1  -1
M  END
