ucsf404-ucsf213
     RDKit          3D

 25 28  0  0  0  0  0  0  0  0999 V2000
   -6.7810   15.2300   -2.3740 Cl  0  0  0  0  0  0  0  0  0  0  0  0
   -5.2110   14.6260   -1.7540 C   0  0  2  0  0  0  0  0  0  0  0  0
   -5.0150   15.1450   -0.3510 C   0  0  1  0  0  0  0  0  0  0  0  0
   -4.0340   14.9810   -2.6770 C   0  0  0  0  0  0  0  0  0  0  0  0
   -6.1110   14.7110    0.5370 N   0  0  0  0  0  0  0  0  0  0  0  0
   -3.7050   14.5830    0.1650 C   0  0  2  0  0  0  0  0  0  0  0  0
   -2.5800   14.9010   -2.1160 C   0  0  1  0  0  0  0  0  0  0  0  0
   -1.7050   15.9540   -2.8380 C   0  0  0  0  0  0  0  0  0  0  0  0
   -5.5570   14.3960    1.8170 C   0  0  1  0  0  0  0  0  0  0  0  0
   -3.8810   15.0220    1.8940 S   0  0  0  0  0  0  0  0  0  0  0  0
   -2.4880   15.1120   -0.5810 C   0  0  0  0  0  0  0  0  0  0  0  0
   -6.4170   15.0070    2.7830 N   0  0  0  0  0  0  0  0  0  0  0  0
   -1.2440   15.8200   -4.3300 C   0  0  1  0  0  0  0  0  0  0  0  0
    0.2610   16.2100   -4.5590 C   0  0  1  0  0  0  0  0  0  0  0  0
   -1.2590   13.9870   -4.5950 S   0  0  0  0  0  0  0  0  0  0  0  0
   -2.2590   16.4910   -5.2940 C   0  0  0  0  0  0  0  0  0  0  0  0
    0.5600   13.7530   -4.4610 C   0  0  1  0  0  0  0  0  0  0  0  0
    1.0920   15.0470   -5.0660 C   0  0  0  0  0  0  0  0  0  0  0  0
    0.5560   17.5440   -5.2410 C   0  0  0  0  0  0  0  0  0  0  0  0
   -1.8560   17.8380   -5.9150 C   0  0  0  0  0  0  0  0  0  0  0  0
    1.1250   13.6510   -3.0470 C   0  0  0  0  0  0  0  0  0  0  0  0
   -0.6490   18.4700   -5.2740 C   0  0  0  0  0  0  0  0  0  0  0  0
    1.0620   12.3150   -2.2940 C   0  0  2  0  0  0  0  0  0  0  0  0
    0.2980   11.3980   -2.8410 O   0  0  0  0  0  0  0  0  0  0  0  0
    0.3600   12.5630   -1.0940 O   0  0  0  0  0  0  0  0  0  0  0  0
  2  1  1  6
  2  3  1  0
  2  4  1  0
  3  5  1  1
  3  6  1  0
  4  7  1  0
  7  8  1  6
  5  9  1  0
  6 10  1  0
  9 10  1  0
  6 11  1  6
  7 11  1  0
  9 12  1  1
 13  8  1  1
 13 14  1  0
 13 15  1  0
 13 16  1  0
 15 17  1  0
 14 18  1  6
 17 18  1  0
 14 19  1  0
 16 20  1  0
 17 21  1  1
 19 22  1  0
 20 22  1  0
 21 23  1  0
 23 24  1  6
 23 25  1  0
M  CHG  1  24  -1
M  END
