ucsf006-ucsf173
     RDKit          3D

 27 30  0  0  0  0  0  0  0  0999 V2000
   -3.2630   14.3660   -3.1260 C   0  0  0  0  0  0  0  0  0  0  0  0
   -1.9740   13.7990   -2.7270 N   0  0  0  0  0  0  0  0  0  0  0  0
   -0.9420   14.2890   -3.6860 C   0  0  0  0  0  0  0  0  0  0  0  0
   -1.6740   13.8430   -1.2570 C   0  0  2  0  0  0  0  0  0  0  0  0
   -0.6360   13.6290   -5.0580 C   0  0  0  0  0  0  0  0  0  0  0  0
   -2.9020   14.2090   -0.3950 C   0  0  1  0  0  0  0  0  0  0  0  0
   -0.5730   14.7640   -0.9290 N   0  0  0  0  0  0  0  0  0  0  0  0
    0.5820   12.7170   -4.9580 C   0  0  2  0  0  0  0  0  0  0  0  0
   -2.5470   14.6450    1.0340 C   0  0  1  0  0  0  0  0  0  0  0  0
   -0.2550   14.7440    0.4780 C   0  0  0  0  0  0  0  0  0  0  0  0
   -3.7770   15.3340   -0.9030 C   0  0  0  0  0  0  0  0  0  0  0  0
    0.1620   11.3700   -5.2000 O   0  0  0  0  0  0  0  0  0  0  0  0
    1.1110   13.0090   -3.5080 C   0  0  2  0  0  0  0  0  0  0  0  0
   -1.3310   15.3960    1.1570 N   0  0  0  0  0  0  0  0  0  0  0  0
   -3.6060   15.5780    1.4460 N   0  0  0  0  0  0  0  0  0  0  0  0
   -4.5580   15.6590    0.3310 C   0  0  0  0  0  0  0  0  0  0  0  0
    2.3280   12.5440   -3.3380 O   0  0  0  0  0  0  0  0  0  0  0  0
    0.3780   12.2450   -2.5660 O   0  0  0  0  0  0  0  0  0  0  0  0
    1.0090   14.5730   -3.2470 C   0  0  2  0  0  0  0  0  0  0  0  0
   -0.3920   15.2490   -2.9970 C   0  0  0  0  0  0  0  0  0  0  0  0
    1.4830   15.4020   -4.4690 C   0  0  0  0  0  0  0  0  0  0  0  0
   -0.5860   16.4870   -3.8840 C   0  0  1  0  0  0  0  0  0  0  0  0
    0.8020   16.7830   -4.4020 C   0  0  2  0  0  0  0  0  0  0  0  0
   -1.7020   16.3990   -4.9240 C   0  0  0  0  0  0  0  0  0  0  0  0
    0.8650   17.5990   -5.6890 C   0  0  0  0  0  0  0  0  0  0  0  0
   -1.7840   17.6820   -5.7280 C   0  0  0  0  0  0  0  0  0  0  0  0
   -0.4350   18.2750   -6.1610 C   0  0  0  0  0  0  0  0  0  0  0  0
  1  2  1  0
  2  3  1  0
  4  2  1  6
  3  5  1  0
  4  6  1  0
  4  7  1  0
  5  8  1  0
  6  9  1  0
  7 10  1  0
  6 11  1  6
  8 12  1  1
  8 13  1  0
  9 14  1  6
 10 14  1  0
  9 15  1  0
 11 16  1  0
 15 16  1  0
 13 17  1  6
 13 18  1  0
 13 19  1  0
 19 20  1  6
 19 21  1  0
 22 20  1  6
 23 21  1  6
 22 23  1  0
 22 24  1  0
 23 25  1  0
 24 26  1  0
 25 27  1  0
 26 27  1  0
M  CHG  1  17  -1
M  END
