ucsf442-ucsf367
     RDKit          3D

 24 26  0  0  0  0  0  0  0  0999 V2000
   -0.0590   15.0140    0.9010 O   0  0  0  0  0  0  0  0  0  0  0  0
   -1.4140   14.9790    0.5220 C   0  0  1  0  0  0  0  0  0  0  0  0
   -1.5420   14.9390   -0.9190 N   0  0  0  0  0  0  0  0  0  0  0  0
   -2.0770   13.9540    1.2120 N   0  0  0  0  0  0  0  0  0  0  0  0
   -0.2970   14.6700   -1.6820 C   0  0  0  0  0  0  0  0  0  0  0  0
   -3.4830   13.8800    0.9020 C   0  0  2  0  0  0  0  0  0  0  0  0
   -2.8050   14.5150   -1.5050 C   0  0  2  0  0  0  0  0  0  0  0  0
   -3.3950   15.6200   -2.1940 O   0  0  0  0  0  0  0  0  0  0  0  0
    0.5300   13.4510   -1.2530 C   0  0  0  0  0  0  0  0  0  0  0  0
   -3.8690   13.8970   -0.5790 C   0  0  2  0  0  0  0  0  0  0  0  0
   -4.0810   15.0690    1.4610 N   0  0  0  0  0  0  0  0  0  0  0  0
    1.2550   12.9470   -2.3860 O   0  0  0  0  0  0  0  0  0  0  0  0
   -5.1920   14.5190   -0.5410 N   0  0  0  0  0  0  0  0  0  0  0  0
   -5.1970   15.3880    0.5940 C   0  0  0  0  0  0  0  0  0  0  0  0
    0.4340   12.1290   -3.2280 C   0  0  2  0  0  0  0  0  0  0  0  0
    0.6600   10.8490   -2.9660 O   0  0  0  0  0  0  0  0  0  0  0  0
    0.7390   12.5050   -4.7310 C   0  0  0  0  0  0  0  0  0  0  0  0
    0.7530   11.4140   -5.6690 O   0  0  0  0  0  0  0  0  0  0  0  0
   -0.5170   10.9420   -6.1290 C   0  0  0  0  0  0  0  0  0  0  0  0
   -0.4130    9.4500   -6.4900 C   0  0  0  0  0  0  0  0  0  0  0  0
   -1.5530   11.1490   -5.0290 C   0  0  0  0  0  0  0  0  0  0  0  0
   -1.7040    8.8220   -7.0010 C   0  0  0  0  0  0  0  0  0  0  0  0
   -2.7470   10.1910   -5.1390 C   0  0  0  0  0  0  0  0  0  0  0  0
   -2.9350    9.5730   -6.5220 C   0  0  0  0  0  0  0  0  0  0  0  0
  2  1  1  6
  2  3  1  0
  2  4  1  0
  3  5  1  0
  6  4  1  6
  3  7  1  0
  7  8  1  1
  5  9  1  0
  6 10  1  0
  7 10  1  0
  6 11  1  0
  9 12  1  0
 10 13  1  1
 11 14  1  0
 13 14  1  0
 12 15  1  0
 15 16  1  6
 15 17  1  0
 17 18  1  0
 18 19  1  0
 19 20  1  0
 19 21  1  0
 20 22  1  0
 21 23  1  0
 22 24  1  0
 23 24  1  0
M  CHG  1  16  -1
M  END
