ucsf013-ucsf380
     RDKit          3D

 21 23  0  0  0  0  0  0  0  0999 V2000
   -4.4400   15.5890    2.1250 N   0  0  0  0  0  0  0  0  0  0  0  0
   -5.0720   14.4930    1.4380 C   0  0  1  0  0  0  0  0  0  0  0  0
   -6.4760   14.6930    1.7290 N   0  0  0  0  0  0  0  0  0  0  0  0
   -4.7440   14.4330   -0.0480 C   0  0  1  0  0  0  0  0  0  0  0  0
   -5.7670   15.2060   -0.8940 C   0  0  2  0  0  0  0  0  0  0  0  0
   -7.3600   14.1910    0.7050 C   0  0  0  0  0  0  0  0  0  0  0  0
   -3.3570   14.9210   -0.4190 C   0  0  0  0  0  0  0  0  0  0  0  0
   -7.1670   14.8840   -0.5520 N   0  0  0  0  0  0  0  0  0  0  0  0
   -5.5270   14.9930   -2.3960 C   0  0  0  0  0  0  0  0  0  0  0  0
   -3.0920   14.4560   -1.8580 C   0  0  2  0  0  0  0  0  0  0  0  0
   -1.5810   14.2860   -2.3540 C   0  0  1  0  0  0  0  0  0  0  0  0
   -4.0660   15.1790   -2.8100 C   0  0  0  0  0  0  0  0  0  0  0  0
   -0.4170   14.0880   -1.2880 C   0  0  2  0  0  0  0  0  0  0  0  0
   -1.6690   13.1620   -3.4460 C   0  0  0  0  0  0  0  0  0  0  0  0
    0.6190   14.8550   -1.5890 O   0  0  0  0  0  0  0  0  0  0  0  0
    0.1570   12.7850   -1.3450 O   0  0  0  0  0  0  0  0  0  0  0  0
   -2.3760   11.8650   -3.0500 C   0  0  0  0  0  0  0  0  0  0  0  0
   -0.4660   12.8980   -4.3550 C   0  0  0  0  0  0  0  0  0  0  0  0
   -2.7900   11.0390   -4.2570 C   0  0  0  0  0  0  0  0  0  0  0  0
   -0.7910   12.0110   -5.5530 C   0  0  0  0  0  0  0  0  0  0  0  0
   -1.6110   10.7670   -5.1910 C   0  0  0  0  0  0  0  0  0  0  0  0
  2  1  1  6
  2  3  1  0
  2  4  1  0
  4  5  1  0
  3  6  1  0
  4  7  1  1
  5  8  1  0
  6  8  1  0
  5  9  1  6
 10  7  1  1
 10 11  1  0
  9 12  1  0
 10 12  1  0
 11 13  1  0
 11 14  1  6
 13 15  1  6
 13 16  1  0
 14 17  1  0
 14 18  1  0
 17 19  1  0
 18 20  1  0
 19 21  1  0
 20 21  1  0
M  CHG  1  15  -1
M  END
