ucsf320-ucsf264
     RDKit          3D

 28 30  0  0  0  0  0  0  0  0999 V2000
   -0.9500   14.7130   -1.8890 O   0  0  0  0  0  0  0  0  0  0  0  0
   -1.8700   14.8930   -2.8220 C   0  0  1  0  0  0  0  0  0  0  0  0
   -1.8450   13.7310   -3.6720 O   0  0  0  0  0  0  0  0  0  0  0  0
   -3.2810   15.0510   -2.1280 C   0  0  2  0  0  0  0  0  0  0  0  0
   -0.9290   13.7640   -4.8130 C   0  0  0  0  0  0  0  0  0  0  0  0
   -3.3610   14.5810   -0.6620 C   0  0  0  0  0  0  0  0  0  0  0  0
   -4.4990   14.6250   -2.9670 C   0  0  0  0  0  0  0  0  0  0  0  0
    0.3100   12.7910   -4.7300 C   0  0  1  0  0  0  0  0  0  0  0  0
   -4.7220   14.7590    0.0020 C   0  0  0  0  0  0  0  0  0  0  0  0
   -5.8600   14.8550   -2.3100 C   0  0  0  0  0  0  0  0  0  0  0  0
    0.4750   12.1990   -3.2430 C   0  0  2  0  0  0  0  0  0  0  0  0
   -5.7960   15.3950   -0.8830 C   0  0  1  0  0  0  0  0  0  0  0  0
    0.2500   11.7480   -5.8100 N   0  0  0  0  0  0  0  0  0  0  0  0
   -7.0760   15.1500   -0.2800 O   0  0  0  0  0  0  0  0  0  0  0  0
    1.6560   12.4660   -2.7200 O   0  0  0  0  0  0  0  0  0  0  0  0
    0.4970   10.7820   -3.1980 O   0  0  0  0  0  0  0  0  0  0  0  0
    0.4590   12.0430   -7.2130 N   0  0  0  0  0  0  0  0  0  0  0  0
   -0.6280   10.6050   -5.7130 C   0  0  2  0  0  0  0  0  0  0  0  0
    0.7760   10.6920   -7.7260 C   0  0  1  0  0  0  0  0  0  0  0  0
   -0.2860    9.8230   -7.0060 C   0  0  2  0  0  0  0  0  0  0  0  0
   -2.1280   10.8380   -5.5010 C   0  0  0  0  0  0  0  0  0  0  0  0
    0.9470   10.3740   -9.2190 C   0  0  0  0  0  0  0  0  0  0  0  0
   -1.5390    9.4620   -7.7920 C   0  0  0  0  0  0  0  0  0  0  0  0
   -2.8990    9.5270   -5.6290 C   0  0  0  0  0  0  0  0  0  0  0  0
    1.5750    9.1910   -9.4160 F   0  0  0  0  0  0  0  0  0  0  0  0
   -0.2250   10.3010   -9.8830 F   0  0  0  0  0  0  0  0  0  0  0  0
    1.6650   11.2870   -9.9000 F   0  0  0  0  0  0  0  0  0  0  0  0
   -2.5360    8.7410   -6.8890 C   0  0  0  0  0  0  0  0  0  0  0  0
  2  1  1  1
  2  3  1  0
  2  4  1  0
  3  5  1  0
  4  6  1  1
  4  7  1  0
  8  5  1  1
  6  9  1  0
  7 10  1  0
  8 11  1  0
  9 12  1  0
 10 12  1  0
  8 13  1  0
 12 14  1  1
 11 15  1  6
 11 16  1  0
 13 17  1  0
 13 18  1  0
 17 19  1  0
 18 20  1  0
 19 20  1  0
 18 21  1  6
 19 22  1  6
 20 23  1  6
 21 24  1  0
 22 25  1  0
 22 26  1  0
 22 27  1  0
 23 28  1  0
 24 28  1  0
M  CHG  2   1  -1  15  -1
M  END
