ucsf516-ucsf012
     RDKit          3D

 26 30  0  0  0  0  0  0  0  0999 V2000
   -2.7190   14.1800    2.0310 N   0  0  0  0  0  0  0  0  0  0  0  0
   -2.6900   15.0780    0.9360 C   0  0  1  0  0  0  0  0  0  0  0  0
   -1.3250   15.3820    1.1140 N   0  0  0  0  0  0  0  0  0  0  0  0
   -3.3650   14.4110   -0.2560 C   0  0  1  0  0  0  0  0  0  0  0  0
   -3.6670   15.9910    1.4070 N   0  0  0  0  0  0  0  0  0  0  0  0
   -0.2310   14.6620    0.4950 C   0  0  0  0  0  0  0  0  0  0  0  0
   -4.5880   13.9930    0.5250 C   0  0  0  0  0  0  0  0  0  0  0  0
   -4.9410   15.3340    1.1130 C   0  0  0  0  0  0  0  0  0  0  0  0
   -3.8680   15.2420   -1.4700 C   0  0  2  0  0  0  0  0  0  0  0  0
   -5.3850   15.5510   -1.4340 C   0  0  0  0  0  0  0  0  0  0  0  0
   -0.4560   13.9760   -0.7660 N   0  0  0  0  0  0  0  0  0  0  0  0
   -3.5530   14.3540   -2.6810 C   0  0  1  0  0  0  0  0  0  0  0  0
   -3.8340   15.0000   -4.0600 C   0  0  0  0  0  0  0  0  0  0  0  0
   -1.2180   14.5150   -1.8820 C   0  0  2  0  0  0  0  0  0  0  0  0
   -2.2550   13.6780   -2.4920 N   0  0  0  0  0  0  0  0  0  0  0  0
   -1.8580   13.2050   -3.8000 C   0  0  0  0  0  0  0  0  0  0  0  0
   -0.4850   15.1550   -2.9380 N   0  0  0  0  0  0  0  0  0  0  0  0
   -0.7130   12.2650   -3.6900 C   0  0  2  0  0  0  0  0  0  0  0  0
    0.5960   14.4920   -3.7080 C   0  0  1  0  0  0  0  0  0  0  0  0
   -1.4520   15.6580   -3.9130 C   0  0  0  0  0  0  0  0  0  0  0  0
   -0.8580   11.3380   -2.4950 C   0  0  0  0  0  0  0  0  0  0  0  0
    0.6560   12.9580   -3.6040 C   0  0  1  0  0  0  0  0  0  0  0  0
    0.1890   14.7920   -5.1650 C   0  0  0  0  0  0  0  0  0  0  0  0
   -1.3130   14.7280   -5.0620 C   0  0  0  0  0  0  0  0  0  0  0  0
    1.2430   12.3620   -2.3370 C   0  0  0  0  0  0  0  0  0  0  0  0
    0.5700   10.9950   -2.3230 C   0  0  0  0  0  0  0  0  0  0  0  0
  2  1  1  1
  2  3  1  0
  2  4  1  0
  2  5  1  0
  3  6  1  0
  4  7  1  1
  5  8  1  0
  7  8  1  0
  4  9  1  0
  9 10  1  1
  6 11  1  0
  9 12  1  0
 12 13  1  6
 14 11  1  6
 12 15  1  0
 14 15  1  0
 15 16  1  0
 14 17  1  0
 18 16  1  1
 17 19  1  0
 17 20  1  0
 18 21  1  0
 18 22  1  0
 19 22  1  0
 19 23  1  6
 20 24  1  0
 23 24  1  0
 22 25  1  1
 21 26  1  0
 25 26  1  0
M  END
