ucsf442-ucsf123
     RDKit          3D

 25 27  0  0  0  0  0  0  0  0999 V2000
   -0.0830   15.3630    0.8880 O   0  0  0  0  0  0  0  0  0  0  0  0
   -1.2390   14.7960    0.3540 C   0  0  2  0  0  0  0  0  0  0  0  0
   -1.5300   15.5160   -0.8690 N   0  0  0  0  0  0  0  0  0  0  0  0
   -2.2680   15.0180    1.3310 N   0  0  0  0  0  0  0  0  0  0  0  0
   -3.4890   14.5630    0.7410 C   0  0  2  0  0  0  0  0  0  0  0  0
   -2.8960   15.5290   -1.3990 C   0  0  1  0  0  0  0  0  0  0  0  0
   -3.1140   14.4880   -2.3570 O   0  0  0  0  0  0  0  0  0  0  0  0
   -3.9920   15.4840   -0.3150 C   0  0  1  0  0  0  0  0  0  0  0  0
   -4.6010   14.5790    1.6440 N   0  0  0  0  0  0  0  0  0  0  0  0
   -3.2640   14.9350   -3.7180 C   0  0  0  0  0  0  0  0  0  0  0  0
   -5.3360   14.9370   -0.5590 N   0  0  0  0  0  0  0  0  0  0  0  0
   -5.7700   14.5070    0.7760 C   0  0  0  0  0  0  0  0  0  0  0  0
   -1.9390   14.7950   -4.5130 C   0  0  1  0  0  0  0  0  0  0  0  0
   -1.0910   16.1040   -4.4990 C   0  0  2  0  0  0  0  0  0  0  0  0
   -1.1190   13.5950   -3.9310 C   0  0  0  0  0  0  0  0  0  0  0  0
   -1.5640   17.4080   -5.6430 S   0  0  0  0  0  0  0  0  0  0  0  0
    0.4090   15.8060   -4.6450 C   0  0  0  0  0  0  0  0  0  0  0  0
   -0.1010   14.0330   -2.8530 C   0  0  1  0  0  0  0  0  0  0  0  0
   -2.0160   18.8850   -5.1190 N   0  0  0  0  0  0  0  0  0  0  0  0
   -0.2870   17.6240   -6.5610 O   0  0  0  0  0  0  0  0  0  0  0  0
   -2.7120   16.8320   -6.6050 O   0  0  0  0  0  0  0  0  0  0  0  0
    0.5510   12.9330   -1.9220 C   0  0  2  0  0  0  0  0  0  0  0  0
    0.9560   14.9210   -3.5250 C   0  0  0  0  0  0  0  0  0  0  0  0
    1.7260   12.4560   -2.5250 O   0  0  0  0  0  0  0  0  0  0  0  0
   -0.1310   11.8080   -1.7900 O   0  0  0  0  0  0  0  0  0  0  0  0
  2  1  1  1
  2  3  1  0
  2  4  1  0
  5  4  1  1
  3  6  1  0
  6  7  1  6
  5  8  1  0
  6  8  1  0
  5  9  1  0
  7 10  1  0
  8 11  1  6
  9 12  1  0
 11 12  1  0
 13 10  1  1
 13 14  1  0
 13 15  1  0
 14 16  1  6
 14 17  1  0
 18 15  1  6
 16 19  1  0
 16 20  1  0
 16 21  1  0
 18 22  1  0
 17 23  1  0
 18 23  1  0
 22 24  1  6
 22 25  1  0
M  CHG  1  25  -1
M  END
