ucsf378-ucsf006
     RDKit          3D

 25 28  0  0  0  0  0  0  0  0999 V2000
   -1.8100   15.1420   -3.4350 C   0  0  0  0  0  0  0  0  0  0  0  0
   -1.2000   15.2290   -2.1410 N   0  0  0  0  0  0  0  0  0  0  0  0
    0.2190   14.8490   -2.2300 C   0  0  0  0  0  0  0  0  0  0  0  0
   -0.5320   14.9160   -4.1660 C   0  0  1  0  0  0  0  0  0  0  0  0
    0.2750   13.6800   -3.9250 C   0  0  2  0  0  0  0  0  0  0  0  0
   -0.1650   15.6320   -5.3970 C   0  0  0  0  0  0  0  0  0  0  0  0
   -1.7480   14.4320   -1.1110 C   0  0  2  0  0  0  0  0  0  0  0  0
   -0.2910   12.4400   -3.3260 C   0  0  1  0  0  0  0  0  0  0  0  0
    0.5570   13.3290   -2.3550 C   0  0  0  0  0  0  0  0  0  0  0  0
    1.7280   13.7940   -4.2160 C   0  0  1  0  0  0  0  0  0  0  0  0
    1.1610   16.2560   -5.1100 C   0  0  0  0  0  0  0  0  0  0  0  0
   -2.7780   15.2120   -0.3930 C   0  0  2  0  0  0  0  0  0  0  0  0
   -0.6690   13.9520   -0.2340 N   0  0  0  0  0  0  0  0  0  0  0  0
    2.2710   12.7960   -5.5770 Cl  0  0  0  0  0  0  0  0  0  0  0  0
    0.2560   11.3180   -2.3880 C   0  0  1  0  0  0  0  0  0  0  0  0
    0.3160   11.7970   -4.5020 O   0  0  0  0  0  0  0  0  0  0  0  0
    2.0350   15.2980   -4.2730 C   0  0  0  0  0  0  0  0  0  0  0  0
   -2.6960   14.7990    1.0200 C   0  0  1  0  0  0  0  0  0  0  0  0
   -0.3460   14.6590    0.9840 C   0  0  0  0  0  0  0  0  0  0  0  0
   -4.2020   14.8660   -0.6880 C   0  0  0  0  0  0  0  0  0  0  0  0
   -0.3040   11.5130   -1.2260 O   0  0  0  0  0  0  0  0  0  0  0  0
   -0.2170   10.0350   -2.6360 O   0  0  0  0  0  0  0  0  0  0  0  0
   -1.4910   15.2630    1.6140 N   0  0  0  0  0  0  0  0  0  0  0  0
   -3.8490   15.4250    1.5960 N   0  0  0  0  0  0  0  0  0  0  0  0
   -4.8330   15.5320    0.5040 C   0  0  0  0  0  0  0  0  0  0  0  0
  1  2  1  0
  2  3  1  0
  4  1  1  6
  4  5  1  0
  4  6  1  0
  7  2  1  6
  5  8  1  0
  3  9  1  0
  8  9  1  0
  5 10  1  1
  6 11  1  0
  7 12  1  0
  7 13  1  0
 10 14  1  6
  8 15  1  0
  8 16  1  1
 10 17  1  0
 11 17  1  0
 12 18  1  0
 13 19  1  0
 12 20  1  6
 15 21  1  1
 15 22  1  0
 18 23  1  1
 19 23  1  0
 18 24  1  0
 20 25  1  0
 24 25  1  0
M  CHG  1  21  -1
M  END
