ucsf333-ucsf367
     RDKit          3D

 22 24  0  0  0  0  0  0  0  0999 V2000
   -6.4630   14.9100   -1.2250 Cl  0  0  0  0  0  0  0  0  0  0  0  0
   -4.8280   15.6110   -1.1470 C   0  0  2  0  0  0  0  0  0  0  0  0
   -4.0560   15.3150   -2.4480 C   0  0  0  0  0  0  0  0  0  0  0  0
   -4.0920   15.2320    0.1310 C   0  0  0  0  0  0  0  0  0  0  0  0
   -2.7070   14.5970   -2.3300 C   0  0  1  0  0  0  0  0  0  0  0  0
   -2.6180   15.6170    0.0190 C   0  0  0  0  0  0  0  0  0  0  0  0
   -1.8450   14.9450   -3.4610 N   0  0  0  0  0  0  0  0  0  0  0  0
   -1.9110   14.7380   -0.9890 C   0  0  2  0  0  0  0  0  0  0  0  0
   -0.6320   14.3320   -2.9880 C   0  0  2  0  0  0  0  0  0  0  0  0
   -0.2380   15.2380   -1.4770 S   0  0  0  0  0  0  0  0  0  0  0  0
    0.3800   13.8290   -4.0120 C   0  0  0  0  0  0  0  0  0  0  0  0
    0.1140   12.3010   -4.0430 C   0  0  2  0  0  0  0  0  0  0  0  0
    0.4940   11.7780   -2.6030 C   0  0  2  0  0  0  0  0  0  0  0  0
    0.6650   11.6240   -5.2280 O   0  0  0  0  0  0  0  0  0  0  0  0
    1.7250   12.1150   -2.3020 O   0  0  0  0  0  0  0  0  0  0  0  0
    0.5150   10.3620   -2.5240 O   0  0  0  0  0  0  0  0  0  0  0  0
   -0.3290   11.2030   -6.2130 C   0  0  0  0  0  0  0  0  0  0  0  0
   -0.2880    9.6740   -6.4560 C   0  0  0  0  0  0  0  0  0  0  0  0
   -1.7350   11.6040   -5.7310 C   0  0  0  0  0  0  0  0  0  0  0  0
   -1.5720    9.1170   -7.0480 C   0  0  0  0  0  0  0  0  0  0  0  0
   -2.5010   10.4420   -5.0980 C   0  0  0  0  0  0  0  0  0  0  0  0
   -2.7430    9.3120   -6.1000 C   0  0  0  0  0  0  0  0  0  0  0  0
  2  1  1  6
  2  3  1  0
  2  4  1  0
  5  3  1  1
  4  6  1  0
  5  7  1  0
  5  8  1  0
  8  6  1  1
  7  9  1  0
  8 10  1  0
  9 10  1  0
  9 11  1  6
 12 11  1  1
 12 13  1  0
 12 14  1  0
 13 15  1  6
 13 16  1  0
 14 17  1  0
 17 18  1  0
 17 19  1  0
 18 20  1  0
 19 21  1  0
 20 22  1  0
 21 22  1  0
M  CHG  1  15  -1
M  END
