ucsf422-ucsf109
     RDKit          3D

 28 32  0  0  0  0  0  0  0  0999 V2000
    0.3390   10.9450   -2.6550 O   0  0  0  0  0  0  0  0  0  0  0  0
    0.3230   12.2420   -2.9010 C   0  0  1  0  0  0  0  0  0  0  0  0
    1.3340   12.6910   -2.0290 O   0  0  0  0  0  0  0  0  0  0  0  0
    0.7720   12.5380   -4.3520 C   0  0  0  0  0  0  0  0  0  0  0  0
    0.7830   14.0180   -4.7690 C   0  0  2  0  0  0  0  0  0  0  0  0
    1.8230   14.8930   -4.0600 C   0  0  0  0  0  0  0  0  0  0  0  0
   -0.4320   14.9020   -4.5320 C   0  0  1  0  0  0  0  0  0  0  0  0
    1.4060   16.2940   -4.3180 N   0  0  0  0  0  0  0  0  0  0  0  0
    0.2010   16.1520   -5.1310 C   0  0  2  0  0  0  0  0  0  0  0  0
   -1.7770   14.4610   -5.1340 C   0  0  0  0  0  0  0  0  0  0  0  0
   -0.7090   17.3560   -5.2130 C   0  0  0  0  0  0  0  0  0  0  0  0
   -2.7150   15.6350   -5.5210 C   0  0  1  0  0  0  0  0  0  0  0  0
   -4.1080   15.5210   -5.1010 O   0  0  0  0  0  0  0  0  0  0  0  0
   -2.1960   17.0030   -5.0250 C   0  0  0  0  0  0  0  0  0  0  0  0
   -4.5630   14.5830   -4.0840 C   0  0  0  0  0  0  0  0  0  0  0  0
   -4.2000   15.1400   -2.7100 C   0  0  1  0  0  0  0  0  0  0  0  0
   -5.1120   15.0340   -1.4280 C   0  0  1  0  0  0  0  0  0  0  0  0
   -2.8480   14.5570   -2.2890 C   0  0  0  0  0  0  0  0  0  0  0  0
   -6.5060   14.5120   -1.3860 N   0  0  0  0  0  0  0  0  0  0  0  0
   -4.2650   14.1890   -0.4690 C   0  0  1  0  0  0  0  0  0  0  0  0
   -2.8420   14.5790   -0.7760 C   0  0  0  0  0  0  0  0  0  0  0  0
   -4.7060   14.3600    0.9590 C   0  0  1  0  0  0  0  0  0  0  0  0
   -6.8200   14.1040   -0.0200 C   0  0  1  0  0  0  0  0  0  0  0  0
   -3.9440   15.2780    1.7790 N   0  0  0  0  0  0  0  0  0  0  0  0
   -6.0560   14.8180    0.9540 N   0  0  0  0  0  0  0  0  0  0  0  0
   -8.1670   14.4280    0.3890 N   0  0  0  0  0  0  0  0  0  0  0  0
   -6.7720   14.7670    2.2270 N   0  0  0  0  0  0  0  0  0  0  0  0
   -8.0680   14.2080    1.8410 C   0  0  0  0  0  0  0  0  0  0  0  0
  2  1  1  6
  2  3  1  0
  2  4  1  0
  5  4  1  1
  5  6  1  0
  5  7  1  0
  6  8  1  0
  7  9  1  0
  8  9  1  0
  7 10  1  6
  9 11  1  1
 10 12  1  0
 12 13  1  1
 11 14  1  0
 12 14  1  0
 13 15  1  0
 16 15  1  6
 16 17  1  0
 16 18  1  0
 17 19  1  6
 17 20  1  0
 18 21  1  0
 20 21  1  1
 20 22  1  0
 23 19  1  6
 22 24  1  6
 22 25  1  0
 23 25  1  0
 23 26  1  0
 25 27  1  0
 26 28  1  0
 27 28  1  0
M  CHG  1   1  -1
M  END
