ucsf123-ucsf012
     RDKit          3D

 30 33  0  0  0  0  0  0  0  0999 V2000
   -1.8980   19.0060   -4.9760 N   0  0  0  0  0  0  0  0  0  0  0  0
   -1.4710   17.7620   -5.9410 S   0  0  0  0  0  0  0  0  0  0  0  0
   -0.9020   18.3130   -7.3010 O   0  0  0  0  0  0  0  0  0  0  0  0
   -2.7460   17.0020   -6.5050 O   0  0  0  0  0  0  0  0  0  0  0  0
   -0.3440   16.5030   -5.3960 C   0  0  2  0  0  0  0  0  0  0  0  0
   -0.9770   15.2150   -5.0690 C   0  0  0  0  0  0  0  0  0  0  0  0
    0.6400   16.7560   -4.3130 C   0  0  0  0  0  0  0  0  0  0  0  0
   -0.6930   14.7920   -3.6390 C   0  0  1  0  0  0  0  0  0  0  0  0
    1.5220   15.5220   -4.1370 C   0  0  0  0  0  0  0  0  0  0  0  0
   -1.5800   13.6330   -3.3000 C   0  0  2  0  0  0  0  0  0  0  0  0
    0.7740   14.3540   -3.5630 C   0  0  1  0  0  0  0  0  0  0  0  0
    1.3580   13.9290   -2.2020 C   0  0  0  0  0  0  0  0  0  0  0  0
   -2.3960   13.8090   -2.1580 N   0  0  0  0  0  0  0  0  0  0  0  0
   -0.7390   12.3880   -3.4110 C   0  0  1  0  0  0  0  0  0  0  0  0
    1.7340   12.5730   -2.1560 O   0  0  0  0  0  0  0  0  0  0  0  0
   -3.7480   14.3050   -2.3890 C   0  0  2  0  0  0  0  0  0  0  0  0
   -1.8050   14.4740   -1.0140 C   0  0  1  0  0  0  0  0  0  0  0  0
   -0.5240   11.5340   -2.2160 C   0  0  0  0  0  0  0  0  0  0  0  0
   -1.1850   11.5320   -4.4730 O   0  0  0  0  0  0  0  0  0  0  0  0
   -3.9190   14.9350   -3.7770 C   0  0  0  0  0  0  0  0  0  0  0  0
   -3.9280   15.3540   -1.2760 C   0  0  2  0  0  0  0  0  0  0  0  0
   -3.0640   14.6990   -0.2130 C   0  0  2  0  0  0  0  0  0  0  0  0
   -0.8920   13.6680   -0.2300 N   0  0  0  0  0  0  0  0  0  0  0  0
   -0.5830   10.2870   -4.1560 C   0  0  0  0  0  0  0  0  0  0  0  0
    0.3050   10.5860   -2.9620 C   0  0  0  0  0  0  0  0  0  0  0  0
   -5.3710   15.6360   -0.9070 C   0  0  0  0  0  0  0  0  0  0  0  0
   -2.7270   15.2910    1.1160 C   0  0  1  0  0  0  0  0  0  0  0  0
   -0.5600   14.3150    1.0230 C   0  0  0  0  0  0  0  0  0  0  0  0
   -3.8790   15.4680    1.9560 N   0  0  0  0  0  0  0  0  0  0  0  0
   -1.7800   14.4710    1.7990 N   0  0  0  0  0  0  0  0  0  0  0  0
  1  2  1  0
  2  3  1  0
  2  4  1  0
  5  2  1  1
  5  6  1  0
  5  7  1  0
  8  6  1  6
  7  9  1  0
  8 10  1  0
  8 11  1  0
  9 11  1  0
 11 12  1  1
 10 13  1  1
 10 14  1  0
 12 15  1  0
 13 16  1  0
 13 17  1  0
 14 18  1  1
 14 19  1  0
 16 20  1  6
 16 21  1  0
 17 22  1  0
 21 22  1  0
 17 23  1  1
 19 24  1  0
 18 25  1  0
 24 25  1  0
 21 26  1  1
 22 27  1  1
 23 28  1  0
 27 29  1  1
 27 30  1  0
 28 30  1  0
M  END
