ucsf523-ucsf006
     RDKit          3D

 19 20  0  0  0  0  0  0  0  0999 V2000
    0.2610   14.3790    1.5620 N   0  0  0  0  0  0  0  0  0  0  0  0
   -0.7610   14.1490    0.6180 C   0  0  1  0  0  0  0  0  0  0  0  0
   -1.8770   14.4580    1.4390 N   0  0  0  0  0  0  0  0  0  0  0  0
   -0.5420   15.1080   -0.4090 N   0  0  0  0  0  0  0  0  0  0  0  0
   -1.6520   15.2690   -1.3390 C   0  0  1  0  0  0  0  0  0  0  0  0
   -3.0030   14.9380    0.7050 C   0  0  1  0  0  0  0  0  0  0  0  0
   -1.2240   14.8710   -2.6770 N   0  0  0  0  0  0  0  0  0  0  0  0
   -3.0200   14.7440   -0.8350 C   0  0  1  0  0  0  0  0  0  0  0  0
   -4.1610   14.2650    1.2140 N   0  0  0  0  0  0  0  0  0  0  0  0
   -2.2660   15.1840   -3.6550 C   0  0  0  0  0  0  0  0  0  0  0  0
    0.0980   15.2860   -3.1920 C   0  0  0  0  0  0  0  0  0  0  0  0
   -5.2050   15.1560    0.8860 C   0  0  2  0  0  0  0  0  0  0  0  0
   -4.2130   15.4050   -1.4710 N   0  0  0  0  0  0  0  0  0  0  0  0
   -6.3320   14.7440    1.6190 O   0  0  0  0  0  0  0  0  0  0  0  0
    0.6880   14.5330   -4.4070 C   0  0  0  0  0  0  0  0  0  0  0  0
   -5.4410   15.2150   -0.6550 C   0  0  0  0  0  0  0  0  0  0  0  0
    0.4830   13.0040   -4.3310 C   0  0  1  0  0  0  0  0  0  0  0  0
    0.1920   12.4640   -5.6040 O   0  0  0  0  0  0  0  0  0  0  0  0
    1.6350   12.4260   -4.0600 O   0  0  0  0  0  0  0  0  0  0  0  0
  2  1  1  1
  2  3  1  0
  2  4  1  0
  4  5  1  0
  6  3  1  1
  5  7  1  6
  5  8  1  0
  6  8  1  0
  6  9  1  0
  7 10  1  0
  7 11  1  0
  9 12  1  0
  8 13  1  6
 12 14  1  1
 11 15  1  0
 12 16  1  0
 13 16  1  0
 15 17  1  0
 17 18  1  6
 17 19  1  0
M  CHG  1  19  -1
M  END
