ucsf387-ucsf135
     RDKit          3D

 23 25  0  0  0  0  0  0  0  0999 V2000
    0.5630   18.3350   -5.6760 Cl  0  0  0  0  0  0  0  0  0  0  0  0
    0.3670   17.3220   -4.2260 C   0  0  1  0  0  0  0  0  0  0  0  0
   -1.0900   16.9220   -4.0220 C   0  0  0  0  0  0  0  0  0  0  0  0
    1.2560   16.0990   -4.3930 C   0  0  0  0  0  0  0  0  0  0  0  0
    0.6080   14.7650   -4.0490 C   0  0  0  0  0  0  0  0  0  0  0  0
   -1.4900   15.8410   -5.0050 C   0  0  2  0  0  0  0  0  0  0  0  0
   -3.2380   15.4660   -4.9500 Cl  0  0  0  0  0  0  0  0  0  0  0  0
    1.6520   13.6520   -4.2020 C   0  0  0  0  0  0  0  0  0  0  0  0
   -0.6790   14.5460   -4.8550 C   0  0  0  0  0  0  0  0  0  0  0  0
    1.4870   12.4950   -3.2290 C   0  0  2  0  0  0  0  0  0  0  0  0
    0.9120   11.4600   -4.0080 O   0  0  0  0  0  0  0  0  0  0  0  0
    0.6730   12.8150   -2.1010 O   0  0  0  0  0  0  0  0  0  0  0  0
    0.1390   12.0670   -5.0890 N   0  0  0  0  0  0  0  0  0  0  0  0
    0.5300   11.6330   -6.4640 C   0  0  1  0  0  0  0  0  0  0  0  0
   -1.4060   11.4690   -4.8290 S   0  0  1  0  0  0  0  0  0  0  0  0
    1.8980   11.7240   -6.7680 O   0  0  0  0  0  0  0  0  0  0  0  0
   -2.4640   12.6340   -5.1430 O   0  0  0  0  0  0  0  0  0  0  0  0
   -1.5760   10.3790   -6.2000 C   0  0  1  0  0  0  0  0  0  0  0  0
   -0.1630   10.2670   -6.7570 C   0  0  1  0  0  0  0  0  0  0  0  0
   -2.1880    9.0280   -5.9370 C   0  0  0  0  0  0  0  0  0  0  0  0
   -0.3100    9.7680   -8.1860 C   0  0  0  0  0  0  0  0  0  0  0  0
   -2.3510    8.3280   -7.2790 C   0  0  0  0  0  0  0  0  0  0  0  0
   -1.1170    8.4480   -8.2100 C   0  0  0  0  0  0  0  0  0  0  0  0
  2  1  1  6
  2  3  1  0
  2  4  1  0
  4  5  1  0
  3  6  1  0
  6  7  1  1
  5  8  1  0
  5  9  1  0
  6  9  1  0
  8 10  1  0
 10 11  1  0
 10 12  1  1
 11 13  1  0
 13 14  1  0
 13 15  1  0
 14 16  1  1
 15 17  1  6
 15 18  1  0
 14 19  1  0
 18 19  1  0
 18 20  1  1
 19 21  1  6
 20 22  1  0
 21 23  1  0
 22 23  1  0
M  END
