ucsf004-ucsf114
     RDKit          3D

 23 25  0  0  0  0  0  0  0  0999 V2000
   -2.1540   11.7300   -4.4910 F   0  0  0  0  0  0  0  0  0  0  0  0
   -2.0920   12.9460   -5.0950 C   0  0  2  0  0  0  0  0  0  0  0  0
   -0.6950   13.0900   -5.6920 C   0  0  0  0  0  0  0  0  0  0  0  0
   -2.5190   14.0160   -4.0700 C   0  0  0  0  0  0  0  0  0  0  0  0
   -1.4480   14.6200   -3.2670 N   0  0  0  0  0  0  0  0  0  0  0  0
   -0.0360   14.3600   -5.2440 C   0  0  0  0  0  0  0  0  0  0  0  0
   -0.0940   14.3850   -3.7420 C   0  0  0  0  0  0  0  0  0  0  0  0
   -1.5680   14.4410   -1.8330 C   0  0  1  0  0  0  0  0  0  0  0  0
   -0.4590   15.2920   -1.4930 N   0  0  0  0  0  0  0  0  0  0  0  0
   -2.7250   14.8580   -0.9310 C   0  0  2  0  0  0  0  0  0  0  0  0
    0.6150   15.1590   -2.5760 C   0  0  0  0  0  0  0  0  0  0  0  0
    0.0300   14.8930   -0.2230 C   0  0  2  0  0  0  0  0  0  0  0  0
   -2.3510   14.4210    0.4770 C   0  0  1  0  0  0  0  0  0  0  0  0
   -4.1190   14.3310   -0.8930 C   0  0  0  0  0  0  0  0  0  0  0  0
    0.6480   16.2170   -3.7640 C   0  0  0  0  0  0  0  0  0  0  0  0
    0.9260   13.5090   -0.8920 S   0  0  0  0  0  0  0  0  0  0  0  0
   -0.9760   14.7090    0.8690 N   0  0  0  0  0  0  0  0  0  0  0  0
   -3.3880   15.1030    1.2600 N   0  0  0  0  0  0  0  0  0  0  0  0
   -4.5550   15.1350    0.3410 C   0  0  0  0  0  0  0  0  0  0  0  0
   -0.6000   16.5880   -4.3570 O   0  0  0  0  0  0  0  0  0  0  0  0
   -0.5270   17.9420   -4.8330 C   0  0  0  0  0  0  0  0  0  0  0  0
    0.7720   18.1840   -5.5900 C   0  0  0  0  0  0  0  0  0  0  0  0
   -1.7520   18.2130   -5.6970 C   0  0  0  0  0  0  0  0  0  0  0  0
  2  1  1  1
  2  3  1  0
  2  4  1  0
  4  5  1  0
  3  6  1  0
  5  7  1  0
  6  7  1  0
  8  5  1  6
  8  9  1  0
  8 10  1  0
  9 11  1  0
  9 12  1  0
 10 13  1  0
 10 14  1  6
 11 15  1  0
 12 16  1  6
 12 17  1  0
 13 17  1  1
 13 18  1  0
 14 19  1  0
 18 19  1  0
 15 20  1  0
 20 21  1  0
 21 22  1  0
 21 23  1  0
M  END
