ucsf017-ucsf274
     RDKit          3D

 34 39  0  0  0  0  0  0  0  0999 V2000
    1.4040   10.9000   -3.2380 O   0  0  0  0  0  0  0  0  0  0  0  0
    2.0380   11.8620   -3.8820 C   0  0  2  0  0  0  0  0  0  0  0  0
    3.0160   12.2370   -2.9350 O   0  0  0  0  0  0  0  0  0  0  0  0
    1.0870   13.0720   -4.0060 C   0  0  1  0  0  0  0  0  0  0  0  0
    0.3510   13.0960   -5.4080 C   0  0  0  0  0  0  0  0  0  0  0  0
    0.2620   13.0670   -2.6540 C   0  0  2  0  0  0  0  0  0  0  0  0
   -0.7840   11.9350   -2.6590 C   0  0  0  0  0  0  0  0  0  0  0  0
   -0.3550   14.3750   -2.3380 N   0  0  0  0  0  0  0  0  0  0  0  0
   -0.1250   11.8230   -6.2020 C   0  0  2  0  0  0  0  0  0  0  0  0
   -1.0840   14.8470   -3.5060 C   0  0  2  0  0  0  0  0  0  0  0  0
   -2.0120   12.4460   -3.3710 C   0  0  0  0  0  0  0  0  0  0  0  0
   -1.0230   14.3340   -1.0190 C   0  0  1  0  0  0  0  0  0  0  0  0
   -1.6600   11.4770   -6.0430 C   0  0  2  0  0  0  0  0  0  0  0  0
    0.7030   10.6200   -6.0250 N   0  0  0  0  0  0  0  0  0  0  0  0
   -2.5050   12.4980   -5.6140 O   0  0  0  0  0  0  0  0  0  0  0  0
   -2.2630   15.7980   -3.4500 C   0  0  0  0  0  0  0  0  0  0  0  0
   -1.6490   13.6510   -4.2680 C   0  0  1  0  0  0  0  0  0  0  0  0
    0.0570   14.6700   -0.0560 N   0  0  0  0  0  0  0  0  0  0  0  0
   -2.3150   15.0850   -0.6350 C   0  0  2  0  0  0  0  0  0  0  0  0
   -1.9520   10.3250   -5.1970 N   0  0  0  0  0  0  0  0  0  0  0  0
    0.0150    9.4070   -6.5170 C   0  0  1  0  0  0  0  0  0  0  0  0
   -2.8070   14.2540   -5.0610 C   0  0  0  0  0  0  0  0  0  0  0  0
   -2.9570   15.6210   -4.6890 O   0  0  0  0  0  0  0  0  0  0  0  0
   -0.2870   14.3950    1.3190 C   0  0  0  0  0  0  0  0  0  0  0  0
   -2.5600   14.6520    0.7920 C   0  0  1  0  0  0  0  0  0  0  0  0
   -3.7050   14.8160   -1.1820 C   0  0  0  0  0  0  0  0  0  0  0  0
   -1.3450    9.1330   -5.8100 C   0  0  2  0  0  0  0  0  0  0  0  0
   -0.1350    9.3920   -8.0510 C   0  0  0  0  0  0  0  0  0  0  0  0
   -1.5120   15.0680    1.6390 N   0  0  0  0  0  0  0  0  0  0  0  0
   -3.7630   15.3420    1.1940 N   0  0  0  0  0  0  0  0  0  0  0  0
   -4.6130   15.2570   -0.0170 C   0  0  0  0  0  0  0  0  0  0  0  0
   -0.6420    8.0410   -8.5580 C   0  0  0  0  0  0  0  0  0  0  0  0
   -2.3610    8.5110   -6.7740 C   0  0  0  0  0  0  0  0  0  0  0  0
   -1.7420    7.4570   -7.6830 C   0  0  0  0  0  0  0  0  0  0  0  0
  2  1  1  1
  2  3  1  0
  2  4  1  0
  4  5  1  6
  4  6  1  0
  6  7  1  6
  6  8  1  0
  9  5  1  1
  8 10  1  0
  7 11  1  0
 12  8  1  6
  9 13  1  0
  9 14  1  0
 13 15  1  1
 10 16  1  1
 10 17  1  0
 17 11  1  1
 12 18  1  0
 12 19  1  0
 13 20  1  0
 14 21  1  0
 17 22  1  0
 16 23  1  0
 22 23  1  0
 18 24  1  0
 19 25  1  0
 19 26  1  6
 20 27  1  0
 21 27  1  0
 21 28  1  6
 24 29  1  0
 25 29  1  1
 25 30  1  0
 26 31  1  0
 30 31  1  0
 28 32  1  0
 27 33  1  6
 32 34  1  0
 33 34  1  0
M  CHG  1   1  -1
M  END
