ucsf378-ucsf348
     RDKit          3D

 26 28  0  0  0  0  0  0  0  0999 V2000
   -2.3710   13.7990   -4.3170 Cl  0  0  0  0  0  0  0  0  0  0  0  0
   -0.7040   14.3360   -4.6980 C   0  0  2  0  0  0  0  0  0  0  0  0
    0.4170   13.2620   -4.5050 C   0  0  0  0  0  0  0  0  0  0  0  0
   -0.4310   15.7090   -4.0870 C   0  0  0  0  0  0  0  0  0  0  0  0
   -0.0750   11.8420   -4.0710 C   0  0  0  0  0  0  0  0  0  0  0  0
    1.6060   13.7830   -3.6800 C   0  0  1  0  0  0  0  0  0  0  0  0
    0.9480   16.1980   -4.4150 C   0  0  0  0  0  0  0  0  0  0  0  0
    3.0700   12.8150   -4.0530 Cl  0  0  0  0  0  0  0  0  0  0  0  0
   -0.2200   11.4400   -2.5770 C   0  0  2  0  0  0  0  0  0  0  0  0
    1.9960   15.2350   -3.8960 C   0  0  0  0  0  0  0  0  0  0  0  0
    0.6530   12.1430   -1.6980 O   0  0  0  0  0  0  0  0  0  0  0  0
    0.1600   10.0910   -2.4710 O   0  0  0  0  0  0  0  0  0  0  0  0
    0.1100   13.2810   -1.0430 C   0  0  0  0  0  0  0  0  0  0  0  0
   -1.3870   13.3860   -1.2820 C   0  0  0  0  0  0  0  0  0  0  0  0
   -1.9700   14.6980   -0.7970 C   0  0  2  0  0  0  0  0  0  0  0  0
   -2.7260   14.5860    0.5350 C   0  0  0  0  0  0  0  0  0  0  0  0
   -2.8950   15.2630   -1.8890 C   0  0  0  0  0  0  0  0  0  0  0  0
   -4.1980   14.9830    0.3910 C   0  0  1  0  0  0  0  0  0  0  0  0
   -4.1010   14.4240   -2.1110 C   0  0  0  0  0  0  0  0  0  0  0  0
   -4.8910   14.3670   -0.8120 C   0  0  2  0  0  0  0  0  0  0  0  0
   -4.9450   14.4760    1.5330 N   0  0  0  0  0  0  0  0  0  0  0  0
   -6.3750   14.6420    1.5290 C   0  0  2  0  0  0  0  0  0  0  0  0
   -6.2100   15.1010   -0.8900 C   0  0  1  0  0  0  0  0  0  0  0  0
   -6.9380   13.5160    2.1560 N   0  0  0  0  0  0  0  0  0  0  0  0
   -6.9000   14.7520   -2.0730 O   0  0  0  0  0  0  0  0  0  0  0  0
   -7.0290   14.8210    0.2610 N   0  0  0  0  0  0  0  0  0  0  0  0
  2  1  1  1
  2  3  1  0
  2  4  1  0
  3  5  1  0
  3  6  1  0
  4  7  1  0
  6  8  1  6
  5  9  1  0
  6 10  1  0
  7 10  1  0
  9 11  1  0
  9 12  1  6
 11 13  1  0
 13 14  1  0
 15 14  1  6
 15 16  1  0
 15 17  1  0
 18 16  1  1
 17 19  1  0
 18 20  1  0
 20 19  1  6
 18 21  1  0
 21 22  1  0
 20 23  1  0
 22 24  1  6
 23 25  1  6
 22 26  1  0
 23 26  1  0
M  END
