ucsf135-ucsf364
     RDKit          3D

 16 17  0  0  0  0  0  0  0  0999 V2000
    2.0030   12.2800   -6.8330 O   0  0  0  0  0  0  0  0  0  0  0  0
    0.7040   12.4210   -6.3160 C   0  0  2  0  0  0  0  0  0  0  0  0
    0.9190   12.4840   -4.7410 C   0  0  1  0  0  0  0  0  0  0  0  0
   -0.0930   11.1530   -6.8110 C   0  0  1  0  0  0  0  0  0  0  0  0
    2.2710   11.9070   -4.2750 C   0  0  0  0  0  0  0  0  0  0  0  0
    0.5260   13.6960   -3.8070 C   0  0  2  0  0  0  0  0  0  0  0  0
   -0.5150   11.5470   -4.3280 S   0  0  0  0  0  0  0  0  0  0  0  0
   -1.0880   10.6850   -5.7160 C   0  0  1  0  0  0  0  0  0  0  0  0
   -0.8000   11.0540   -8.1580 C   0  0  0  0  0  0  0  0  0  0  0  0
   -1.5100   12.7940   -4.1650 O   0  0  0  0  0  0  0  0  0  0  0  0
   -0.2540   10.5760   -3.0770 O   0  0  0  0  0  0  0  0  0  0  0  0
    1.5590   14.6060   -3.5110 O   0  0  0  0  0  0  0  0  0  0  0  0
    0.3410   13.2320   -2.5740 O   0  0  0  0  0  0  0  0  0  0  0  0
   -2.5070   10.6730   -6.1730 C   0  0  0  0  0  0  0  0  0  0  0  0
   -1.5080    9.6750   -8.2520 C   0  0  0  0  0  0  0  0  0  0  0  0
   -2.5790    9.5040   -7.1610 C   0  0  0  0  0  0  0  0  0  0  0  0
  2  1  1  6
  2  3  1  0
  2  4  1  0
  3  5  1  6
  3  6  1  0
  3  7  1  0
  4  8  1  0
  7  8  1  0
  4  9  1  6
  7 10  1  0
  7 11  1  0
  6 12  1  1
  6 13  1  0
  8 14  1  6
  9 15  1  0
 14 16  1  0
 15 16  1  0
M  CHG  1  13  -1
M  END
