ucsf124-ucsf422
     RDKit          3D

 25 28  0  0  0  0  0  0  0  0999 V2000
    0.6310   10.5100   -2.2380 O   0  0  0  0  0  0  0  0  0  0  0  0
    0.1560   11.7180   -2.4900 C   0  0  1  0  0  0  0  0  0  0  0  0
    0.6680   12.4690   -1.3980 O   0  0  0  0  0  0  0  0  0  0  0  0
    0.6040   12.3380   -3.8900 C   0  0  1  0  0  0  0  0  0  0  0  0
   -0.0820   11.8700   -5.1440 N   0  0  0  0  0  0  0  0  0  0  0  0
    0.7320   13.9180   -3.8350 C   0  0  1  0  0  0  0  0  0  0  0  0
   -1.0340   10.8120   -4.9640 C   0  0  1  0  0  0  0  0  0  0  0  0
    0.6360   11.6190   -6.3980 C   0  0  2  0  0  0  0  0  0  0  0  0
    1.8830   14.5270   -4.5850 C   0  0  0  0  0  0  0  0  0  0  0  0
   -0.4040   14.9260   -4.2060 C   0  0  1  0  0  0  0  0  0  0  0  0
   -2.1130   11.2230   -4.1690 O   0  0  0  0  0  0  0  0  0  0  0  0
    0.8920   12.8200   -7.0290 O   0  0  0  0  0  0  0  0  0  0  0  0
   -1.5150   10.4680   -6.3840 C   0  0  1  0  0  0  0  0  0  0  0  0
   -0.3260   10.8180   -7.3090 C   0  0  2  0  0  0  0  0  0  0  0  0
    1.6240   15.9990   -4.4960 N   0  0  0  0  0  0  0  0  0  0  0  0
    0.2920   15.9900   -5.0500 C   0  0  2  0  0  0  0  0  0  0  0  0
   -1.6780   14.5680   -4.9310 C   0  0  0  0  0  0  0  0  0  0  0  0
   -1.9740    9.0050   -6.5140 C   0  0  0  0  0  0  0  0  0  0  0  0
    0.2930    9.5920   -8.0200 C   0  0  0  0  0  0  0  0  0  0  0  0
   -0.4610   17.3140   -5.1580 C   0  0  0  0  0  0  0  0  0  0  0  0
   -2.6080   15.7880   -5.0160 C   0  0  2  0  0  0  0  0  0  0  0  0
   -4.1600   15.2660   -6.1410 Br  0  0  0  0  0  0  0  0  0  0  0  0
   -2.0270    8.4820   -7.9580 C   0  0  0  0  0  0  0  0  0  0  0  0
   -0.7200    8.6760   -8.7270 C   0  0  0  0  0  0  0  0  0  0  0  0
   -1.9620   17.1150   -5.5070 C   0  0  0  0  0  0  0  0  0  0  0  0
  2  1  1  1
  2  3  1  0
  2  4  1  0
  4  5  1  6
  4  6  1  0
  5  7  1  0
  5  8  1  0
  6  9  1  6
  6 10  1  0
  7 11  1  1
  8 12  1  6
  7 13  1  0
  8 14  1  0
 13 14  1  0
  9 15  1  0
 10 16  1  0
 15 16  1  0
 10 17  1  6
 13 18  1  1
 14 19  1  1
 16 20  1  1
 17 21  1  0
 21 22  1  6
 18 23  1  0
 19 24  1  0
 23 24  1  0
 20 25  1  0
 21 25  1  0
M  CHG  1   1  -1
M  END
