ucsf422-ucsf392
     RDKit          3D

 25 27  0  0  0  0  0  0  0  0999 V2000
    0.4900   10.6270   -2.6100 O   0  0  0  0  0  0  0  0  0  0  0  0
    0.9140   11.8940   -2.5660 C   0  0  2  0  0  0  0  0  0  0  0  0
    0.0660   12.5410   -1.6190 O   0  0  0  0  0  0  0  0  0  0  0  0
    0.7780   12.6320   -3.9370 C   0  0  0  0  0  0  0  0  0  0  0  0
    0.6080   13.6490   -0.8900 C   0  0  0  0  0  0  0  0  0  0  0  0
    0.7120   14.1700   -3.8410 C   0  0  1  0  0  0  0  0  0  0  0  0
    0.0380   13.4420    0.5040 C   0  0  0  0  0  0  0  0  0  0  0  0
    1.9850   14.9270   -4.2150 C   0  0  0  0  0  0  0  0  0  0  0  0
   -0.2950   14.8140   -4.7700 C   0  0  2  0  0  0  0  0  0  0  0  0
   -0.3240   14.5750    1.3350 C   0  0  0  0  0  0  0  0  0  0  0  0
    1.5480   16.1080   -5.0400 N   0  0  0  0  0  0  0  0  0  0  0  0
    0.1470   16.2550   -4.6790 C   0  0  1  0  0  0  0  0  0  0  0  0
   -1.7480   14.6230   -4.3970 C   0  0  0  0  0  0  0  0  0  0  0  0
   -0.6960   17.2300   -5.5100 C   0  0  0  0  0  0  0  0  0  0  0  0
   -2.5290   15.3380   -5.4550 C   0  0  1  0  0  0  0  0  0  0  0  0
   -1.2030   15.4160    0.5470 C   0  0  2  0  0  0  0  0  0  0  0  0
   -4.4160   14.8900   -5.3420 Br  0  0  0  0  0  0  0  0  0  0  0  0
   -2.2030   16.8540   -5.5360 C   0  0  0  0  0  0  0  0  0  0  0  0
   -2.4380   15.6860    1.2470 N   0  0  0  0  0  0  0  0  0  0  0  0
   -1.4280   14.7440   -0.7390 N   0  0  0  0  0  0  0  0  0  0  0  0
   -3.5000   14.7650    1.0420 C   0  0  1  0  0  0  0  0  0  0  0  0
   -2.7510   14.8230   -1.3630 C   0  0  0  0  0  0  0  0  0  0  0  0
   -4.5740   15.3670    1.8010 N   0  0  0  0  0  0  0  0  0  0  0  0
   -3.9270   14.6360   -0.4170 C   0  0  2  0  0  0  0  0  0  0  0  0
   -5.0330   15.6160   -0.7890 C   0  0  0  0  0  0  0  0  0  0  0  0
  2  1  1  6
  2  3  1  0
  2  4  1  0
  3  5  1  0
  6  4  1  6
  5  7  1  0
  6  8  1  0
  6  9  1  0
  7 10  1  0
  8 11  1  0
  9 12  1  0
 11 12  1  0
  9 13  1  1
 12 14  1  6
 13 15  1  0
 16 10  1  1
 15 17  1  1
 14 18  1  0
 15 18  1  0
 16 19  1  0
 16 20  1  0
 19 21  1  0
 20 22  1  0
 21 23  1  1
 21 24  1  0
 22 24  1  0
 24 25  1  6
M  CHG  1   1  -1
M  END
