ucsf371-ucsf493
     RDKit          3D

 24 26  0  0  0  0  0  0  0  0999 V2000
   -5.6080   14.8160    0.8090 C   0  0  0  0  0  0  0  0  0  0  0  0
   -4.5560   14.6180   -0.2670 C   0  0  1  0  0  0  0  0  0  0  0  0
   -5.0290   14.9480   -1.6110 N   0  0  0  0  0  0  0  0  0  0  0  0
   -3.1290   15.6340    0.0520 S   0  0  0  0  0  0  0  0  0  0  0  0
   -3.8140   15.1710   -2.4320 C   0  0  0  0  0  0  0  0  0  0  0  0
   -2.5380   15.0520   -1.5690 C   0  0  1  0  0  0  0  0  0  0  0  0
   -1.3120   15.8550   -2.0450 C   0  0  1  0  0  0  0  0  0  0  0  0
   -0.6120   16.3080   -1.0250 O   0  0  0  0  0  0  0  0  0  0  0  0
   -0.4040   14.8100   -2.6270 C   0  0  0  0  0  0  0  0  0  0  0  0
   -0.2870   14.8670   -4.1390 C   0  0  1  0  0  0  0  0  0  0  0  0
   -1.6150   14.7150   -4.9410 C   0  0  0  0  0  0  0  0  0  0  0  0
    0.5630   16.0920   -4.5460 C   0  0  2  0  0  0  0  0  0  0  0  0
    0.7140   13.7020   -4.3380 C   0  0  1  0  0  0  0  0  0  0  0  0
    0.2480   12.2270   -4.1710 C   0  0  0  0  0  0  0  0  0  0  0  0
   -2.3390   16.0240   -5.3340 C   0  0  1  0  0  0  0  0  0  0  0  0
   -0.1620   17.3390   -5.1020 C   0  0  0  0  0  0  0  0  0  0  0  0
    1.4180   15.5690   -5.5770 N   0  0  0  0  0  0  0  0  0  0  0  0
    1.2290   14.0790   -5.6630 C   0  0  0  0  0  0  0  0  0  0  0  0
   -3.6940   15.9760   -4.8810 O   0  0  0  0  0  0  0  0  0  0  0  0
   -0.0640   11.6710   -2.7020 C   0  0  1  0  0  0  0  0  0  0  0  0
   -1.6600   17.2950   -4.8230 C   0  0  0  0  0  0  0  0  0  0  0  0
   -4.4690   15.1530   -5.7550 C   0  0  0  0  0  0  0  0  0  0  0  0
    0.4510   10.3480   -2.5890 O   0  0  0  0  0  0  0  0  0  0  0  0
    0.5550   12.2870   -1.7010 O   0  0  0  0  0  0  0  0  0  0  0  0
  2  1  1  1
  2  3  1  0
  2  4  1  0
  3  5  1  0
  4  6  1  0
  6  5  1  6
  6  7  1  0
  7  8  1  1
  7  9  1  0
 10  9  1  1
 10 11  1  0
 10 12  1  0
 10 13  1  0
 13 14  1  6
 11 15  1  0
 12 16  1  6
 12 17  1  0
 13 18  1  0
 17 18  1  0
 15 19  1  1
 14 20  1  0
 15 21  1  0
 16 21  1  0
 19 22  1  0
 20 23  1  6
 20 24  1  0
M  CHG  2   8  -1  24  -1
M  END
