ucsf114-ucsf278
     RDKit          3D

 29 32  0  0  0  0  0  0  0  0999 V2000
    0.9640   18.4570   -5.7570 C   0  0  0  0  0  0  0  0  0  0  0  0
   -0.4310   17.8670   -5.8780 C   0  0  0  0  0  0  0  0  0  0  0  0
   -1.5290   18.8120   -5.4230 C   0  0  0  0  0  0  0  0  0  0  0  0
   -0.5070   16.7270   -5.0440 O   0  0  0  0  0  0  0  0  0  0  0  0
    0.5350   16.6730   -4.0670 C   0  0  0  0  0  0  0  0  0  0  0  0
    0.1810   15.5450   -3.0810 C   0  0  2  0  0  0  0  0  0  0  0  0
   -0.1630   15.7960   -1.6990 N   0  0  0  0  0  0  0  0  0  0  0  0
    1.0620   14.3520   -2.9210 C   0  0  1  0  0  0  0  0  0  0  0  0
   -1.6290   15.7010   -1.4550 C   0  0  2  0  0  0  0  0  0  0  0  0
    0.7000   14.9550   -0.7990 C   0  0  2  0  0  0  0  0  0  0  0  0
   -0.0100   13.2980   -2.7920 C   0  0  2  0  0  0  0  0  0  0  0  0
    2.1260   14.1580   -3.9670 C   0  0  0  0  0  0  0  0  0  0  0  0
    2.2640   14.2560   -1.4290 S   0  0  0  0  0  0  0  0  0  0  0  0
    0.4010   11.7260   -2.1250 Cl  0  0  0  0  0  0  0  0  0  0  0  0
   -2.0590   15.3790   -0.0210 C   0  0  2  0  0  0  0  0  0  0  0  0
   -0.0650   13.9860   -0.1150 N   0  0  0  0  0  0  0  0  0  0  0  0
   -2.3680   14.6250   -2.2390 C   0  0  0  0  0  0  0  0  0  0  0  0
   -0.6860   13.1800   -4.1440 C   0  0  2  0  0  0  0  0  0  0  0  0
    1.5450   13.9400   -5.3250 C   0  0  0  0  0  0  0  0  0  0  0  0
   -0.8720   14.7890    0.7420 C   0  0  2  0  0  0  0  0  0  0  0  0
   -3.3130   14.5880   -0.1030 N   0  0  0  0  0  0  0  0  0  0  0  0
   -3.6910   14.6060   -1.5200 C   0  0  0  0  0  0  0  0  0  0  0  0
   -1.4060   11.8640   -4.3570 C   0  0  0  0  0  0  0  0  0  0  0  0
    0.1770   13.3370   -5.4010 C   0  0  1  0  0  0  0  0  0  0  0  0
   -1.2570   14.0830    1.9040 O   0  0  0  0  0  0  0  0  0  0  0  0
   -1.0890   11.5530   -5.8080 C   0  0  1  0  0  0  0  0  0  0  0  0
    0.2880   11.9990   -5.9230 N   0  0  0  0  0  0  0  0  0  0  0  0
   -1.2850   10.0820   -6.1540 C   0  0  0  0  0  0  0  0  0  0  0  0
   -2.4570    9.6340   -5.4800 O   0  0  0  0  0  0  0  0  0  0  0  0
  1  2  1  0
  2  3  1  0
  2  4  1  0
  4  5  1  0
  6  5  1  1
  6  7  1  0
  6  8  1  0
  7  9  1  0
  7 10  1  0
  8 11  1  0
  8 12  1  6
 10 13  1  6
 11 14  1  6
  9 15  1  0
 10 16  1  0
  9 17  1  6
 11 18  1  0
 12 19  1  0
 15 20  1  0
 16 20  1  0
 15 21  1  6
 17 22  1  0
 21 22  1  0
 18 23  1  6
 18 24  1  0
 24 19  1  1
 20 25  1  1
 23 26  1  0
 24 27  1  0
 26 27  1  0
 26 28  1  1
 28 29  1  0
M  END
