ucsf170-ucsf422
     RDKit          3D

 24 26  0  0  0  0  0  0  0  0999 V2000
   -5.0800   14.9660    1.3030 C   0  0  0  0  0  0  0  0  0  0  0  0
   -3.2940   15.1570    1.4820 S   0  0  0  0  0  0  0  0  0  0  0  0
   -2.8680   15.5440   -0.2520 C   0  0  1  0  0  0  0  0  0  0  0  0
   -1.4900   14.9760   -0.5400 C   0  0  0  0  0  0  0  0  0  0  0  0
   -3.9680   15.0880   -1.2240 C   0  0  0  0  0  0  0  0  0  0  0  0
   -1.4150   14.0990   -1.7930 C   0  0  2  0  0  0  0  0  0  0  0  0
   -3.5980   15.0990   -2.6980 C   0  0  0  0  0  0  0  0  0  0  0  0
    0.0760   13.8800   -2.1280 C   0  0  1  0  0  0  0  0  0  0  0  0
   -2.1450   14.7460   -2.9800 C   0  0  2  0  0  0  0  0  0  0  0  0
   -2.1610   13.8660   -4.1080 O   0  0  0  0  0  0  0  0  0  0  0  0
    0.7370   13.1410   -1.1060 O   0  0  0  0  0  0  0  0  0  0  0  0
    0.2910   13.2490   -3.4110 N   0  0  0  0  0  0  0  0  0  0  0  0
    0.8360   11.8820   -3.2800 C   0  0  0  0  0  0  0  0  0  0  0  0
    0.9310   14.1250   -4.3820 C   0  0  2  0  0  0  0  0  0  0  0  0
    0.2220   11.1960   -2.3150 O   0  0  0  0  0  0  0  0  0  0  0  0
    2.0110   15.1150   -3.9510 C   0  0  0  0  0  0  0  0  0  0  0  0
   -0.0250   15.0040   -5.1720 C   0  0  2  0  0  0  0  0  0  0  0  0
    1.5620   16.5060   -4.3020 N   0  0  0  0  0  0  0  0  0  0  0  0
    0.1430   16.3850   -4.5740 C   0  0  1  0  0  0  0  0  0  0  0  0
   -1.4990   14.6390   -5.2630 C   0  0  0  0  0  0  0  0  0  0  0  0
   -0.4560   17.4510   -5.4770 C   0  0  0  0  0  0  0  0  0  0  0  0
   -2.4750   15.8420   -5.2040 C   0  0  2  0  0  0  0  0  0  0  0  0
   -4.1040   15.3070   -6.1600 Br  0  0  0  0  0  0  0  0  0  0  0  0
   -1.9600   17.2140   -5.6790 C   0  0  0  0  0  0  0  0  0  0  0  0
  1  2  1  0
  3  2  1  1
  3  4  1  0
  3  5  1  0
  6  4  1  1
  5  7  1  0
  6  8  1  0
  6  9  1  0
  7  9  1  0
  9 10  1  6
  8 11  1  1
  8 12  1  0
 12 13  1  0
 14 12  1  1
 13 15  1  0
 14 16  1  0
 14 17  1  0
 16 18  1  0
 17 19  1  0
 18 19  1  0
 17 20  1  1
 19 21  1  6
 20 22  1  0
 22 23  1  6
 21 24  1  0
 22 24  1  0
M  CHG  1  15  -1
M  END
