ucsf337-ucsf039
     RDKit          3D

 25 28  0  0  0  0  0  0  0  0999 V2000
   -7.8540   14.5460    0.9410 C   0  0  0  0  0  0  0  0  0  0  0  0
   -6.5860   14.3320    0.1160 C   0  0  1  0  0  0  0  0  0  0  0  0
   -6.8960   14.7130   -1.2810 N   0  0  0  0  0  0  0  0  0  0  0  0
   -5.3700   15.0890    0.7220 C   0  0  1  0  0  0  0  0  0  0  0  0
   -4.2330   14.2950    0.9160 O   0  0  0  0  0  0  0  0  0  0  0  0
   -4.8570   16.0750   -0.3240 C   0  0  0  0  0  0  0  0  0  0  0  0
   -5.7480   14.5510   -2.1320 C   0  0  1  0  0  0  0  0  0  0  0  0
   -6.2110   14.8460   -3.4780 N   0  0  0  0  0  0  0  0  0  0  0  0
   -4.5890   15.4320   -1.6950 C   0  0  0  0  0  0  0  0  0  0  0  0
   -3.3420   14.7080   -0.1280 C   0  0  2  0  0  0  0  0  0  0  0  0
   -3.1290   13.5810   -0.9980 N   0  0  0  0  0  0  0  0  0  0  0  0
   -2.0270   15.3270    0.3400 C   0  0  2  0  0  0  0  0  0  0  0  0
   -2.5210   13.9250   -2.2710 C   0  0  0  0  0  0  0  0  0  0  0  0
   -1.0240   15.2880   -0.8340 C   0  0  2  0  0  0  0  0  0  0  0  0
   -1.3920   14.6240    1.4520 N   0  0  0  0  0  0  0  0  0  0  0  0
   -1.5860   15.0290   -2.1700 N   0  0  0  0  0  0  0  0  0  0  0  0
   -0.1350   14.2100   -0.4570 N   0  0  0  0  0  0  0  0  0  0  0  0
   -0.0600   14.3570    0.9820 C   0  0  0  0  0  0  0  0  0  0  0  0
   -0.5470   14.9170   -3.2110 C   0  0  0  0  0  0  0  0  0  0  0  0
   -0.2520   16.2980   -3.8230 C   0  0  1  0  0  0  0  0  0  0  0  0
    1.0730   16.3510   -4.5590 C   0  0  0  0  0  0  0  0  0  0  0  0
   -1.2430   16.7040   -4.8330 N   0  0  0  0  0  0  0  0  0  0  0  0
   -0.8360   18.0430   -5.2230 C   0  0  1  0  0  0  0  0  0  0  0  0
    0.9680   17.9530   -5.4200 S   0  0  0  0  0  0  0  0  0  0  0  0
   -1.5110   18.4960   -6.5060 C   0  0  0  0  0  0  0  0  0  0  0  0
  2  1  1  1
  2  3  1  0
  2  4  1  0
  4  5  1  6
  4  6  1  0
  3  7  1  0
  7  8  1  6
  6  9  1  0
  7  9  1  0
 10  5  1  1
 10 11  1  0
 10 12  1  0
 11 13  1  0
 12 14  1  0
 12 15  1  1
 13 16  1  0
 14 16  1  0
 14 17  1  1
 15 18  1  0
 17 18  1  0
 16 19  1  0
 20 19  1  6
 20 21  1  0
 20 22  1  0
 22 23  1  0
 21 24  1  0
 23 24  1  0
 23 25  1  6
M  END
