ucsf378-ucsf115
     RDKit          3D

 27 30  0  0  0  0  0  0  0  0999 V2000
   -1.9300   13.9690   -3.8110 N   0  0  0  0  0  0  0  0  0  0  0  0
   -1.9520   14.9410   -2.6970 N   0  0  0  0  0  0  0  0  0  0  0  0
   -2.0740   14.4900   -1.3030 C   0  0  1  0  0  0  0  0  0  0  0  0
   -0.8120   14.3970   -4.5940 C   0  0  2  0  0  0  0  0  0  0  0  0
   -1.5190   12.6470   -3.4130 C   0  0  2  0  0  0  0  0  0  0  0  0
    0.4550   13.6720   -3.9890 C   0  0  1  0  0  0  0  0  0  0  0  0
   -0.5880   15.9080   -4.6970 C   0  0  0  0  0  0  0  0  0  0  0  0
   -1.8860   11.6020   -4.3130 O   0  0  0  0  0  0  0  0  0  0  0  0
   -1.6690   12.0910   -2.0330 C   0  0  0  0  0  0  0  0  0  0  0  0
    0.4010   12.1070   -3.8610 C   0  0  0  0  0  0  0  0  0  0  0  0
    1.6490   14.0850   -4.7630 C   0  0  2  0  0  0  0  0  0  0  0  0
    0.6470   16.2530   -3.8820 C   0  0  0  0  0  0  0  0  0  0  0  0
   -0.8260   14.7740   -0.5790 N   0  0  0  0  0  0  0  0  0  0  0  0
   -3.3090   15.1240   -0.6490 C   0  0  2  0  0  0  0  0  0  0  0  0
   -1.1840   10.6740   -2.2560 C   0  0  0  0  0  0  0  0  0  0  0  0
   -1.3500   10.4100   -3.7450 C   0  0  0  0  0  0  0  0  0  0  0  0
    3.0400   13.0260   -4.2970 Cl  0  0  0  0  0  0  0  0  0  0  0  0
    0.0900   11.4170   -2.4900 C   0  0  2  0  0  0  0  0  0  0  0  0
    1.8640   15.5440   -4.4420 C   0  0  0  0  0  0  0  0  0  0  0  0
   -0.7990   14.3820    0.8240 C   0  0  0  0  0  0  0  0  0  0  0  0
   -3.0850   15.2840    0.8410 C   0  0  2  0  0  0  0  0  0  0  0  0
   -4.5220   14.2730   -0.7190 N   0  0  0  0  0  0  0  0  0  0  0  0
    0.6830   11.9690   -1.4490 O   0  0  0  0  0  0  0  0  0  0  0  0
    0.5780   10.0980   -2.4340 O   0  0  0  0  0  0  0  0  0  0  0  0
   -2.1090   14.4200    1.4590 N   0  0  0  0  0  0  0  0  0  0  0  0
   -4.4040   15.1650    1.4330 N   0  0  0  0  0  0  0  0  0  0  0  0
   -5.3160   14.7360    0.3980 C   0  0  0  0  0  0  0  0  0  0  0  0
  1  2  1  0
  3  2  1  6
  4  1  1  1
  5  1  1  1
  4  6  1  0
  4  7  1  0
  5  8  1  0
  5  9  1  0
  6 10  1  6
  6 11  1  0
  7 12  1  0
  3 13  1  0
  3 14  1  0
  9 15  1  0
  8 16  1  0
 15 16  1  0
 11 17  1  1
 10 18  1  0
 11 19  1  0
 12 19  1  0
 13 20  1  0
 14 21  1  0
 14 22  1  1
 18 23  1  1
 18 24  1  0
 20 25  1  0
 21 25  1  1
 21 26  1  0
 22 27  1  0
 26 27  1  0
M  CHG  1  23  -1
M  END
