ucsf260-ucsf006
     RDKit          3D

 28 31  0  0  0  0  0  0  0  0999 V2000
    1.0190   11.2610   -2.8830 O   0  0  0  0  0  0  0  0  0  0  0  0
    1.8410   12.2070   -3.3210 C   0  0  2  0  0  0  0  0  0  0  0  0
    1.5140   13.2190   -2.4150 O   0  0  0  0  0  0  0  0  0  0  0  0
    1.5010   12.5870   -4.7970 C   0  0  0  0  0  0  0  0  0  0  0  0
    0.0450   13.1010   -5.0040 C   0  0  2  0  0  0  0  0  0  0  0  0
    0.0020   14.6590   -4.9970 C   0  0  0  0  0  0  0  0  0  0  0  0
   -0.4550   12.8410   -3.6950 O   0  0  0  0  0  0  0  0  0  0  0  0
   -0.8780   12.2110   -5.7400 N   0  0  0  0  0  0  0  0  0  0  0  0
   -0.0810   15.3500   -3.6070 C   0  0  0  0  0  0  0  0  0  0  0  0
   -1.7640   11.4530   -4.8890 C   0  0  0  0  0  0  0  0  0  0  0  0
   -0.7090   11.4880   -7.0070 C   0  0  2  0  0  0  0  0  0  0  0  0
   -1.1890   14.8990   -2.7160 N   0  0  0  0  0  0  0  0  0  0  0  0
   -2.6330   10.7070   -5.8060 N   0  0  0  0  0  0  0  0  0  0  0  0
   -1.6820   10.3000   -6.8370 C   0  0  2  0  0  0  0  0  0  0  0  0
    0.6690   10.9890   -7.4590 C   0  0  0  0  0  0  0  0  0  0  0  0
   -2.4880   15.2150   -3.3200 C   0  0  0  0  0  0  0  0  0  0  0  0
   -0.9810    8.9840   -6.5440 C   0  0  0  0  0  0  0  0  0  0  0  0
    0.6690    9.6980   -8.3100 C   0  0  0  0  0  0  0  0  0  0  0  0
   -1.1440   15.3210   -1.3010 C   0  0  1  0  0  0  0  0  0  0  0  0
   -0.1510    8.5480   -7.7420 C   0  0  0  0  0  0  0  0  0  0  0  0
   -2.4490   15.5840   -0.5430 C   0  0  2  0  0  0  0  0  0  0  0  0
   -0.2830   14.4210   -0.5390 N   0  0  0  0  0  0  0  0  0  0  0  0
   -2.4240   14.7660    0.7110 C   0  0  1  0  0  0  0  0  0  0  0  0
   -0.0860   14.7560    0.8640 C   0  0  0  0  0  0  0  0  0  0  0  0
   -3.8240   15.2000   -1.0410 C   0  0  0  0  0  0  0  0  0  0  0  0
   -1.3140   15.1410    1.4990 N   0  0  0  0  0  0  0  0  0  0  0  0
   -3.6470   15.1840    1.3680 N   0  0  0  0  0  0  0  0  0  0  0  0
   -4.6140   15.3130    0.2570 C   0  0  0  0  0  0  0  0  0  0  0  0
  2  1  1  1
  2  3  1  0
  2  4  1  0
  4  5  1  0
  5  6  1  0
  5  7  1  1
  5  8  1  0
  6  9  1  0
  8 10  1  0
  8 11  1  0
  9 12  1  0
 10 13  1  0
 11 14  1  0
 13 14  1  0
 11 15  1  1
 12 16  1  0
 14 17  1  1
 15 18  1  0
 19 12  1  6
 17 20  1  0
 18 20  1  0
 19 21  1  0
 19 22  1  0
 21 23  1  0
 22 24  1  0
 21 25  1  6
 23 26  1  1
 24 26  1  0
 23 27  1  0
 25 28  1  0
 27 28  1  0
M  CHG  1   1  -1
M  END
