ucsf224-ucsf262
     RDKit          3D

 17 18  0  0  0  0  0  0  0  0999 V2000
   -0.9350   18.2110   -4.2670 Cl  0  0  0  0  0  0  0  0  0  0  0  0
   -0.9940   16.7170   -5.2570 C   0  0  2  0  0  0  0  0  0  0  0  0
   -1.5590   15.3760   -4.7370 C   0  0  2  0  0  0  0  0  0  0  0  0
    0.4870   16.6410   -5.5210 C   0  0  2  0  0  0  0  0  0  0  0  0
   -1.9420   17.4270   -6.2050 C   0  0  0  0  0  0  0  0  0  0  0  0
   -3.3200   15.4380   -4.3920 Cl  0  0  0  0  0  0  0  0  0  0  0  0
   -0.7840   14.6900   -3.6280 C   0  0  0  0  0  0  0  0  0  0  0  0
    1.2380   15.9980   -4.3610 C   0  0  0  0  0  0  0  0  0  0  0  0
   -1.3830   18.7090   -6.8020 C   0  0  0  0  0  0  0  0  0  0  0  0
    0.9760   18.0540   -5.8890 C   0  0  0  0  0  0  0  0  0  0  0  0
    0.7210   14.6160   -3.9630 C   0  0  1  0  0  0  0  0  0  0  0  0
    0.1320   18.8050   -6.9320 C   0  0  0  0  0  0  0  0  0  0  0  0
    1.5360   14.0350   -2.7590 C   0  0  1  0  0  0  0  0  0  0  0  0
    1.2440   12.5420   -2.3040 C   0  0  2  0  0  0  0  0  0  0  0  0
    2.8630   14.2960   -2.8550 O   0  0  0  0  0  0  0  0  0  0  0  0
    0.3440   11.7890   -2.9170 O   0  0  0  0  0  0  0  0  0  0  0  0
    0.5710   12.7110   -1.0620 O   0  0  0  0  0  0  0  0  0  0  0  0
  2  1  1  1
  2  3  1  0
  2  4  1  0
  2  5  1  0
  3  6  1  1
  3  7  1  0
  4  8  1  1
  5  9  1  0
  4 10  1  0
 11  7  1  1
  8 11  1  0
  9 12  1  0
 10 12  1  0
 11 13  1  0
 13 14  1  0
 13 15  1  6
 14 16  1  6
 14 17  1  0
M  CHG  2  15  -1  16  -1
M  END
