ucsf190-ucsf523
     RDKit          3D

 28 31  0  0  0  0  0  0  0  0999 V2000
    0.7140   10.9720   -2.6140 O   0  0  0  0  0  0  0  0  0  0  0  0
    1.4060   12.0920   -2.7630 C   0  0  2  0  0  0  0  0  0  0  0  0
    0.5220   13.0040   -2.1930 O   0  0  0  0  0  0  0  0  0  0  0  0
    1.6440   12.3820   -4.2670 C   0  0  0  0  0  0  0  0  0  0  0  0
    1.3890   13.7710   -4.8510 C   0  0  1  0  0  0  0  0  0  0  0  0
   -0.0590   14.1440   -5.1570 C   0  0  2  0  0  0  0  0  0  0  0  0
    2.0860   14.8350   -4.0380 N   0  0  0  0  0  0  0  0  0  0  0  0
   -0.3610   15.2190   -4.1580 C   0  0  1  0  0  0  0  0  0  0  0  0
    1.7460   16.2440   -4.3990 N   0  0  0  0  0  0  0  0  0  0  0  0
   -1.1820   13.1170   -5.3350 C   0  0  0  0  0  0  0  0  0  0  0  0
    0.3320   16.4460   -4.7390 C   0  0  2  0  0  0  0  0  0  0  0  0
   -1.8010   15.1190   -3.7440 C   0  0  1  0  0  0  0  0  0  0  0  0
   -2.5440   13.8110   -5.6520 C   0  0  0  0  0  0  0  0  0  0  0  0
   -0.1020   17.6970   -4.2310 O   0  0  0  0  0  0  0  0  0  0  0  0
   -2.0690   15.8820   -2.5780 O   0  0  0  0  0  0  0  0  0  0  0  0
   -2.7530   15.1570   -4.9180 C   0  0  0  0  0  0  0  0  0  0  0  0
   -1.8810   14.9760   -1.4780 C   0  0  1  0  0  0  0  0  0  0  0  0
   -0.9360   15.4380   -0.4640 N   0  0  0  0  0  0  0  0  0  0  0  0
   -3.2260   14.6230   -0.8420 C   0  0  1  0  0  0  0  0  0  0  0  0
   -0.8570   14.4100    0.5240 C   0  0  1  0  0  0  0  0  0  0  0  0
   -3.1780   14.8930    0.6850 C   0  0  2  0  0  0  0  0  0  0  0  0
   -4.3980   15.2310   -1.5050 N   0  0  0  0  0  0  0  0  0  0  0  0
    0.2050   14.7760    1.3620 N   0  0  0  0  0  0  0  0  0  0  0  0
   -2.0020   14.4200    1.3680 N   0  0  0  0  0  0  0  0  0  0  0  0
   -4.2470   14.0840    1.2030 N   0  0  0  0  0  0  0  0  0  0  0  0
   -5.4380   15.5090   -0.5200 C   0  0  0  0  0  0  0  0  0  0  0  0
   -5.5210   14.5080    0.6860 C   0  0  2  0  0  0  0  0  0  0  0  0
   -6.2300   15.0260    1.7870 O   0  0  0  0  0  0  0  0  0  0  0  0
  2  1  1  6
  2  3  1  0
  2  4  1  0
  5  4  1  1
  5  6  1  0
  5  7  1  0
  6  8  1  0
  7  9  1  0
  6 10  1  1
  8 11  1  6
  9 11  1  0
  8 12  1  0
 10 13  1  0
 11 14  1  1
 12 15  1  1
 12 16  1  0
 13 16  1  0
 17 15  1  6
 17 18  1  0
 17 19  1  0
 18 20  1  0
 19 21  1  0
 19 22  1  6
 20 23  1  1
 20 24  1  0
 21 24  1  1
 21 25  1  0
 22 26  1  0
 25 27  1  0
 26 27  1  0
 27 28  1  1
M  CHG  1   1  -1
M  END
