ucsf012-ucsf404
     RDKit          3D

 24 27  0  0  0  0  0  0  0  0999 V2000
   -3.4590   15.4040   -3.9690 C   0  0  0  0  0  0  0  0  0  0  0  0
   -3.1390   14.3770   -2.9820 C   0  0  2  0  0  0  0  0  0  0  0  0
   -4.0880   14.5730   -1.7590 C   0  0  2  0  0  0  0  0  0  0  0  0
   -1.9010   14.4060   -2.3940 N   0  0  0  0  0  0  0  0  0  0  0  0
   -4.9480   13.3990   -1.5800 C   0  0  0  0  0  0  0  0  0  0  0  0
   -0.7970   14.5010   -3.1890 C   0  0  0  0  0  0  0  0  0  0  0  0
   -5.2780   15.5770   -2.3610 Cl  0  0  0  0  0  0  0  0  0  0  0  0
   -3.3290   15.1870   -0.2100 S   0  0  0  0  0  0  0  0  0  0  0  0
   -1.8740   14.8470   -1.0840 C   0  0  1  0  0  0  0  0  0  0  0  0
   -2.1230   14.7620    1.0590 C   0  0  2  0  0  0  0  0  0  0  0  0
   -0.6990   14.1640   -0.6280 N   0  0  0  0  0  0  0  0  0  0  0  0
   -0.1660   13.2160   -3.7370 C   0  0  1  0  0  0  0  0  0  0  0  0
   -4.6010   16.0860    0.6240 C   0  0  0  0  0  0  0  0  0  0  0  0
   -4.4120   13.9950    0.6560 S   0  0  0  0  0  0  0  0  0  0  0  0
   -2.8480   14.7490    2.2610 N   0  0  0  0  0  0  0  0  0  0  0  0
   -0.9320   15.4740    1.0450 N   0  0  0  0  0  0  0  0  0  0  0  0
   -0.0020   14.5710    0.5100 C   0  0  0  0  0  0  0  0  0  0  0  0
    0.6500   12.4830   -2.6990 C   0  0  0  0  0  0  0  0  0  0  0  0
   -1.0660   12.3340   -4.2180 O   0  0  0  0  0  0  0  0  0  0  0  0
   -5.9920   14.4930    1.0110 C   0  0  2  0  0  0  0  0  0  0  0  0
   -5.1910   15.3700    1.6760 N   0  0  0  0  0  0  0  0  0  0  0  0
   -6.7040   13.7740    1.9850 N   0  0  0  0  0  0  0  0  0  0  0  0
   -0.4230   11.1290   -4.3110 C   0  0  0  0  0  0  0  0  0  0  0  0
    0.4560   11.0440   -3.0970 C   0  0  0  0  0  0  0  0  0  0  0  0
  2  1  1  6
  2  3  1  0
  2  4  1  0
  3  5  1  1
  4  6  1  0
  3  7  1  0
  3  8  1  0
  4  9  1  0
  8  9  1  0
  8 10  1  0
  9 11  1  1
 12  6  1  1
  8 13  1  0
  8 14  1  0
 10 15  1  1
 10 16  1  0
 11 17  1  0
 16 17  1  0
 12 18  1  0
 12 19  1  0
 14 20  1  0
 13 21  1  0
 20 21  1  0
 20 22  1  1
 19 23  1  0
 18 24  1  0
 23 24  1  0
M  END
