ucsf371-ucsf340
     RDKit          3D

 23 25  0  0  0  0  0  0  0  0999 V2000
   -4.8570   15.4000    0.6010 C   0  0  0  0  0  0  0  0  0  0  0  0
   -4.2830   14.5570   -0.5200 C   0  0  1  0  0  0  0  0  0  0  0  0
   -4.8170   14.9330   -1.8260 N   0  0  0  0  0  0  0  0  0  0  0  0
   -2.4970   14.7540   -0.5800 S   0  0  0  0  0  0  0  0  0  0  0  0
   -3.8700   14.3650   -2.8170 C   0  0  0  0  0  0  0  0  0  0  0  0
   -2.4570   14.7840   -2.4230 C   0  0  2  0  0  0  0  0  0  0  0  0
   -1.3330   13.8870   -2.9790 C   0  0  1  0  0  0  0  0  0  0  0  0
   -1.7380   13.5050   -4.2970 O   0  0  0  0  0  0  0  0  0  0  0  0
    0.0430   14.3640   -3.1280 N   0  0  0  0  0  0  0  0  0  0  0  0
    0.7610   13.0630   -3.2130 C   0  0  0  0  0  0  0  0  0  0  0  0
    0.0250   15.2060   -4.3310 C   0  0  2  0  0  0  0  0  0  0  0  0
    0.1840   11.8970   -2.3230 C   0  0  2  0  0  0  0  0  0  0  0  0
    0.9340   16.4250   -4.6150 C   0  0  0  0  0  0  0  0  0  0  0  0
   -1.3750   15.7130   -4.6600 C   0  0  1  0  0  0  0  0  0  0  0  0
    0.4100   12.2980   -1.0080 O   0  0  0  0  0  0  0  0  0  0  0  0
    0.6960   10.6850   -2.3650 O   0  0  0  0  0  0  0  0  0  0  0  0
    0.2150   17.1360   -5.7030 N   0  0  0  0  0  0  0  0  0  0  0  0
   -1.1450   17.1440   -5.1910 C   0  0  1  0  0  0  0  0  0  0  0  0
   -2.1330   14.6310   -5.4650 C   0  0  0  0  0  0  0  0  0  0  0  0
    0.7540   18.4650   -5.9420 C   0  0  0  0  0  0  0  0  0  0  0  0
   -3.2580   15.1820   -6.2890 C   0  0  0  0  0  0  0  0  0  0  0  0
   -2.1860   17.5610   -6.1800 C   0  0  0  0  0  0  0  0  0  0  0  0
   -3.3710   16.6220   -5.9850 C   0  0  0  0  0  0  0  0  0  0  0  0
  2  1  1  1
  2  3  1  0
  2  4  1  0
  3  5  1  0
  4  6  1  0
  6  5  1  6
  6  7  1  0
  7  8  1  6
  7  9  1  0
  9 10  1  0
 11  9  1  1
 10 12  1  0
 11 13  1  0
 11 14  1  0
 12 15  1  1
 12 16  1  0
 13 17  1  0
 14 18  1  0
 17 18  1  0
 14 19  1  6
 17 20  1  0
 19 21  1  0
 18 22  1  6
 21 23  1  0
 22 23  1  0
M  CHG  1  16  -1
M  END
