ucsf124-ucsf109
     RDKit          3D

 30 34  0  0  0  0  0  0  0  0999 V2000
    0.7100   11.1820   -2.4910 O   0  0  0  0  0  0  0  0  0  0  0  0
    1.3200   12.2280   -3.0490 C   0  0  2  0  0  0  0  0  0  0  0  0
    1.0780   13.2220   -2.0640 O   0  0  0  0  0  0  0  0  0  0  0  0
    0.6790   12.6680   -4.3950 C   0  0  0  0  0  0  0  0  0  0  0  0
    0.2710   11.5310   -5.2270 N   0  0  0  0  0  0  0  0  0  0  0  0
   -0.9690   10.8190   -4.9190 C   0  0  1  0  0  0  0  0  0  0  0  0
    0.4260   11.7450   -6.6490 C   0  0  1  0  0  0  0  0  0  0  0  0
   -1.9980   11.6730   -4.3840 O   0  0  0  0  0  0  0  0  0  0  0  0
    1.7660   11.6330   -7.0510 O   0  0  0  0  0  0  0  0  0  0  0  0
   -1.5290   10.3660   -6.2940 C   0  0  1  0  0  0  0  0  0  0  0  0
   -0.4410   10.6760   -7.3220 C   0  0  2  0  0  0  0  0  0  0  0  0
   -1.9560   11.9290   -2.9780 C   0  0  0  0  0  0  0  0  0  0  0  0
   -1.9820    8.9050   -6.3330 C   0  0  0  0  0  0  0  0  0  0  0  0
    0.2350    9.4360   -7.9230 C   0  0  0  0  0  0  0  0  0  0  0  0
   -3.3210   12.4620   -2.5020 C   0  0  0  0  0  0  0  0  0  0  0  0
   -2.0990    8.3970   -7.7770 C   0  0  0  0  0  0  0  0  0  0  0  0
   -0.8150    8.5600   -8.6080 C   0  0  0  0  0  0  0  0  0  0  0  0
   -3.4180   13.9990   -2.4720 C   0  0  2  0  0  0  0  0  0  0  0  0
   -3.0960   14.5850   -1.0890 C   0  0  0  0  0  0  0  0  0  0  0  0
   -4.8170   14.5100   -2.8540 C   0  0  0  0  0  0  0  0  0  0  0  0
   -5.4940   15.0110   -1.5780 C   0  0  2  0  0  0  0  0  0  0  0  0
   -4.4050   15.1350   -0.5100 C   0  0  1  0  0  0  0  0  0  0  0  0
   -4.8180   14.4370    0.7850 C   0  0  1  0  0  0  0  0  0  0  0  0
   -6.5700   14.1420   -1.1240 N   0  0  0  0  0  0  0  0  0  0  0  0
   -3.9330   14.8620    1.8660 N   0  0  0  0  0  0  0  0  0  0  0  0
   -6.1770   14.8460    1.1560 N   0  0  0  0  0  0  0  0  0  0  0  0
   -7.1320   14.7550    0.0340 C   0  0  2  0  0  0  0  0  0  0  0  0
   -8.2600   13.9880    0.5190 N   0  0  0  0  0  0  0  0  0  0  0  0
   -6.7230   13.9160    2.1470 N   0  0  0  0  0  0  0  0  0  0  0  0
   -8.1420   14.0840    1.9600 C   0  0  0  0  0  0  0  0  0  0  0  0
  2  1  1  1
  2  3  1  0
  2  4  1  0
  4  5  1  0
  5  6  1  0
  5  7  1  0
  6  8  1  6
  7  9  1  6
  6 10  1  0
  7 11  1  0
 10 11  1  0
  8 12  1  0
 10 13  1  1
 11 14  1  1
 12 15  1  0
 13 16  1  0
 14 17  1  0
 16 17  1  0
 18 15  1  1
 18 19  1  0
 18 20  1  0
 21 20  1  6
 22 19  1  6
 21 22  1  0
 22 23  1  0
 21 24  1  0
 23 25  1  1
 23 26  1  0
 27 24  1  6
 26 27  1  0
 27 28  1  0
 26 29  1  0
 28 30  1  0
 29 30  1  0
M  CHG  1   1  -1
M  END
