ucsf110-ucsf340
     RDKit          3D

 25 28  0  0  0  0  0  0  0  0999 V2000
   -0.2830   14.4710   -3.2710 C   0  0  1  0  0  0  0  0  0  0  0  0
    1.0390   13.6780   -3.0340 C   0  0  0  0  0  0  0  0  0  0  0  0
    1.0550   12.3370   -2.2800 C   0  0  1  0  0  0  0  0  0  0  0  0
   -1.1820   15.0900   -2.2620 N   0  0  0  0  0  0  0  0  0  0  0  0
   -0.0470   15.5840   -4.2980 C   0  0  2  0  0  0  0  0  0  0  0  0
   -2.5710   15.3540   -2.7050 C   0  0  0  0  0  0  0  0  0  0  0  0
   -1.2870   14.4930   -0.9570 C   0  0  2  0  0  0  0  0  0  0  0  0
    0.5530   16.9600   -3.9480 C   0  0  0  0  0  0  0  0  0  0  0  0
   -1.3840   16.0450   -4.7020 C   0  0  1  0  0  0  0  0  0  0  0  0
    0.3300   12.4320   -1.0930 O   0  0  0  0  0  0  0  0  0  0  0  0
    0.4450   11.3400   -2.8860 O   0  0  0  0  0  0  0  0  0  0  0  0
   -3.4900   15.0200   -1.5350 C   0  0  0  0  0  0  0  0  0  0  0  0
   -2.5010   15.2010   -0.4230 C   0  0  1  0  0  0  0  0  0  0  0  0
   -0.1480   14.9110   -0.1760 N   0  0  0  0  0  0  0  0  0  0  0  0
   -0.0840   17.9380   -4.8850 N   0  0  0  0  0  0  0  0  0  0  0  0
   -1.0000   17.1210   -5.6570 C   0  0  2  0  0  0  0  0  0  0  0  0
   -2.2990   14.9560   -5.2350 C   0  0  0  0  0  0  0  0  0  0  0  0
    0.9120   18.5080   -5.7800 C   0  0  0  0  0  0  0  0  0  0  0  0
   -2.7290   14.6960    0.9540 C   0  0  2  0  0  0  0  0  0  0  0  0
   -0.3470   14.5110    1.1910 C   0  0  0  0  0  0  0  0  0  0  0  0
   -3.6120   15.5830   -5.5910 C   0  0  0  0  0  0  0  0  0  0  0  0
   -2.2510   17.7410   -6.2520 C   0  0  0  0  0  0  0  0  0  0  0  0
   -3.8630   15.3070    1.6070 N   0  0  0  0  0  0  0  0  0  0  0  0
   -1.5850   15.0520    1.7240 N   0  0  0  0  0  0  0  0  0  0  0  0
   -3.4080   16.7230   -6.5770 C   0  0  0  0  0  0  0  0  0  0  0  0
  1  2  1  1
  2  3  1  0
  1  4  1  0
  1  5  1  0
  4  6  1  0
  4  7  1  0
  5  8  1  1
  5  9  1  0
  3 10  1  1
  3 11  1  0
  6 12  1  0
  7 13  1  0
 13 12  1  6
  7 14  1  1
  8 15  1  0
  9 16  1  0
 15 16  1  0
  9 17  1  6
 15 18  1  0
 13 19  1  0
 14 20  1  0
 17 21  1  0
 16 22  1  1
 19 23  1  1
 19 24  1  0
 20 24  1  0
 21 25  1  0
 22 25  1  0
M  CHG  1  11  -1
M  END
