ucsf320-ucsf411
     RDKit          3D

 25 27  0  0  0  0  0  0  0  0999 V2000
   -1.2940   15.0060   -1.2560 O   0  0  0  0  0  0  0  0  0  0  0  0
   -2.0520   14.4270   -2.1630 C   0  0  2  0  0  0  0  0  0  0  0  0
   -2.1380   15.1840   -3.3450 O   0  0  0  0  0  0  0  0  0  0  0  0
   -3.5280   14.4020   -1.6900 C   0  0  1  0  0  0  0  0  0  0  0  0
   -3.6900   15.0380   -0.3030 C   0  0  0  0  0  0  0  0  0  0  0  0
   -4.4860   15.0720   -2.6740 C   0  0  0  0  0  0  0  0  0  0  0  0
   -2.4570   14.4290   -4.5080 C   0  0  1  0  0  0  0  0  0  0  0  0
   -5.1020   14.8830    0.2150 C   0  0  0  0  0  0  0  0  0  0  0  0
   -5.9250   14.9680   -2.1930 C   0  0  0  0  0  0  0  0  0  0  0  0
   -2.6430   15.5580   -5.4610 C   0  0  0  0  0  0  0  0  0  0  0  0
   -1.2450   13.5880   -4.8400 C   0  0  0  0  0  0  0  0  0  0  0  0
   -6.1180   15.4580   -0.7670 C   0  0  1  0  0  0  0  0  0  0  0  0
   -0.0100   14.3850   -4.4430 C   0  0  1  0  0  0  0  0  0  0  0  0
   -1.4630   16.4880   -5.1430 C   0  0  1  0  0  0  0  0  0  0  0  0
   -7.4420   15.1370   -0.3370 O   0  0  0  0  0  0  0  0  0  0  0  0
    1.2220   13.6920   -4.6940 O   0  0  0  0  0  0  0  0  0  0  0  0
   -0.0650   15.7520   -5.1590 C   0  0  1  0  0  0  0  0  0  0  0  0
   -1.5000   17.7820   -5.9460 C   0  0  0  0  0  0  0  0  0  0  0  0
    1.7460   12.9610   -3.5380 C   0  0  0  0  0  0  0  0  0  0  0  0
   -0.1360   18.4510   -6.0400 C   0  0  0  0  0  0  0  0  0  0  0  0
    1.0910   16.6590   -4.7920 C   0  0  0  0  0  0  0  0  0  0  0  0
    0.5960   12.2690   -2.7200 C   0  0  1  0  0  0  0  0  0  0  0  0
    0.7750   18.1370   -4.8600 C   0  0  0  0  0  0  0  0  0  0  0  0
    0.7370   10.9610   -2.6830 O   0  0  0  0  0  0  0  0  0  0  0  0
    0.7000   12.6930   -1.3500 O   0  0  0  0  0  0  0  0  0  0  0  0
  2  1  1  1
  2  3  1  0
  2  4  1  0
  4  5  1  1
  4  6  1  0
  7  3  1  1
  5  8  1  0
  6  9  1  0
  7 10  1  0
  7 11  1  0
  8 12  1  0
  9 12  1  0
 11 13  1  0
 14 10  1  6
 12 15  1  1
 13 16  1  6
 13 17  1  0
 14 17  1  0
 14 18  1  0
 16 19  1  0
 18 20  1  0
 17 21  1  1
 19 22  1  0
 20 23  1  0
 21 23  1  0
 22 24  1  1
 22 25  1  0
M  CHG  2   1  -1  24  -1
M  END
