ucsf224-ucsf243
     RDKit          3D

 19 21  0  0  0  0  0  0  0  0999 V2000
   -1.1260   17.8820   -5.2350 Cl  0  0  0  0  0  0  0  0  0  0  0  0
   -0.3110   16.5000   -4.4410 C   0  0  1  0  0  0  0  0  0  0  0  0
   -0.7940   15.1060   -4.8130 C   0  0  2  0  0  0  0  0  0  0  0  0
    1.1470   16.4790   -4.7520 C   0  0  0  0  0  0  0  0  0  0  0  0
   -2.2020   14.5960   -4.4560 C   0  0  0  0  0  0  0  0  0  0  0  0
    0.4880   14.1860   -4.6300 C   0  0  1  0  0  0  0  0  0  0  0  0
    1.5650   15.1620   -4.1130 C   0  0  0  0  0  0  0  0  0  0  0  0
    0.4380   12.7300   -4.0340 C   0  0  0  0  0  0  0  0  0  0  0  0
   -2.6240   14.1540   -3.0370 C   0  0  1  0  0  0  0  0  0  0  0  0
    0.8710   12.2820   -2.5810 C   0  0  2  0  0  0  0  0  0  0  0  0
   -1.7520   14.5220   -1.8100 C   0  0  2  0  0  0  0  0  0  0  0  0
   -4.0980   14.5230   -2.7910 C   0  0  0  0  0  0  0  0  0  0  0  0
    0.5750   11.0030   -2.4370 O   0  0  0  0  0  0  0  0  0  0  0  0
    0.0850   12.9140   -1.5790 O   0  0  0  0  0  0  0  0  0  0  0  0
   -0.2250   14.2720   -1.8600 C   0  0  0  0  0  0  0  0  0  0  0  0
   -2.3980   14.0870   -0.4930 C   0  0  0  0  0  0  0  0  0  0  0  0
   -4.3090   15.3940   -1.5560 C   0  0  0  0  0  0  0  0  0  0  0  0
   -3.7910   14.7150   -0.2860 C   0  0  2  0  0  0  0  0  0  0  0  0
   -3.7870   15.6900    0.8850 C   0  0  0  0  0  0  0  0  0  0  0  0
  2  1  1  6
  2  3  1  0
  2  4  1  0
  3  5  1  1
  3  6  1  0
  4  7  1  0
  6  7  1  1
  6  8  1  0
  9  5  1  6
  8 10  1  0
  9 11  1  0
  9 12  1  0
 10 13  1  6
 10 14  1  0
 11 15  1  6
 14 15  1  0
 11 16  1  0
 12 17  1  0
 16 18  1  0
 17 18  1  0
 18 19  1  1
M  CHG  1  13  -1
M  END
