ucsf278-ucsf378
     RDKit          3D

 18 19  0  0  0  0  0  0  0  0999 V2000
   -1.0540   15.9110   -2.2840 Cl  0  0  0  0  0  0  0  0  0  0  0  0
   -0.9220   14.3880   -3.2250 C   0  0  0  0  0  0  0  0  0  0  0  0
   -0.6960   14.4820   -4.7320 C   0  0  2  0  0  0  0  0  0  0  0  0
   -2.5370   13.6080   -2.9790 Cl  0  0  0  0  0  0  0  0  0  0  0  0
    0.2620   13.5990   -2.8120 C   0  0  2  0  0  0  0  0  0  0  0  0
    0.0200   12.5620   -1.7650 C   0  0  0  0  0  0  0  0  0  0  0  0
   -1.4900   13.3650   -5.4410 C   0  0  0  0  0  0  0  0  0  0  0  0
    0.7630   14.1930   -5.2350 C   0  0  2  0  0  0  0  0  0  0  0  0
    1.5460   14.4120   -2.8160 C   0  0  0  0  0  0  0  0  0  0  0  0
    0.2220   11.1440   -2.2650 C   0  0  1  0  0  0  0  0  0  0  0  0
   -0.5400   12.1900   -5.4320 C   0  0  2  0  0  0  0  0  0  0  0  0
    0.6980   12.8390   -5.8670 N   0  0  0  0  0  0  0  0  0  0  0  0
    1.9550   14.3700   -4.2530 C   0  0  1  0  0  0  0  0  0  0  0  0
   -1.0100   11.0300   -6.3180 C   0  0  0  0  0  0  0  0  0  0  0  0
    3.0450   12.9620   -4.4430 Cl  0  0  0  0  0  0  0  0  0  0  0  0
    0.6100   10.5070   -1.2470 O   0  0  0  0  0  0  0  0  0  0  0  0
   -0.9680   10.4730   -2.5640 O   0  0  0  0  0  0  0  0  0  0  0  0
   -2.1510   10.3800   -5.7600 O   0  0  0  0  0  0  0  0  0  0  0  0
  2  1  1  0
  2  3  1  0
  2  4  1  0
  2  5  1  0
  5  6  1  1
  3  7  1  6
  3  8  1  0
  5  9  1  0
  6 10  1  0
  7 11  1  0
  8 12  1  1
 11 12  1  0
  8 13  1  0
  9 13  1  0
 11 14  1  6
 13 15  1  1
 10 16  1  1
 10 17  1  0
 14 18  1  0
M  CHG  1  16  -1
M  END
