ucsf264-ucsf412
     RDKit          3D

 31 34  0  0  0  0  0  0  0  0999 V2000
    1.1240   12.8710   -2.3950 O   0  0  0  0  0  0  0  0  0  0  0  0
    1.0990   12.2280   -3.5450 C   0  0  1  0  0  0  0  0  0  0  0  0
    0.6550   10.9590   -3.0800 O   0  0  0  0  0  0  0  0  0  0  0  0
    0.0180   12.7430   -4.5870 C   0  0  1  0  0  0  0  0  0  0  0  0
   -0.1150   14.3020   -4.6830 C   0  0  0  0  0  0  0  0  0  0  0  0
   -0.1700   12.0290   -5.9040 N   0  0  0  0  0  0  0  0  0  0  0  0
   -1.4010   14.8900   -4.0350 C   0  0  0  0  0  0  0  0  0  0  0  0
    0.9350   11.7950   -6.8300 N   0  0  0  0  0  0  0  0  0  0  0  0
   -0.7660   10.7040   -5.7380 C   0  0  2  0  0  0  0  0  0  0  0  0
   -1.7150   14.5350   -2.5520 C   0  0  0  0  0  0  0  0  0  0  0  0
    0.2200   11.0810   -7.9120 C   0  0  2  0  0  0  0  0  0  0  0  0
   -0.4400    9.9990   -7.0650 C   0  0  2  0  0  0  0  0  0  0  0  0
   -2.2640   10.8020   -5.4450 C   0  0  0  0  0  0  0  0  0  0  0  0
    0.8920   10.4380   -9.1390 C   0  0  0  0  0  0  0  0  0  0  0  0
   -1.6310    9.3340   -7.7330 C   0  0  0  0  0  0  0  0  0  0  0  0
   -2.9510    9.4410   -5.5520 C   0  0  0  0  0  0  0  0  0  0  0  0
   -3.0840   15.0380   -1.9820 C   0  0  2  0  0  0  0  0  0  0  0  0
    1.5710    9.3100   -8.8020 F   0  0  0  0  0  0  0  0  0  0  0  0
   -0.0090   10.0330  -10.0510 F   0  0  0  0  0  0  0  0  0  0  0  0
    1.7050   11.2450   -9.8340 F   0  0  0  0  0  0  0  0  0  0  0  0
   -2.4350    8.5640   -6.6940 C   0  0  0  0  0  0  0  0  0  0  0  0
   -3.2000   14.8080   -0.4450 C   0  0  0  0  0  0  0  0  0  0  0  0
   -4.3120   14.5160   -2.7180 C   0  0  0  0  0  0  0  0  0  0  0  0
   -4.5450   15.2670    0.1600 C   0  0  1  0  0  0  0  0  0  0  0  0
   -5.6340   14.8970   -2.0520 C   0  0  0  0  0  0  0  0  0  0  0  0
   -5.6720   14.5490   -0.5620 C   0  0  2  0  0  0  0  0  0  0  0  0
   -4.6070   15.0900    1.6860 C   0  0  0  0  0  0  0  0  0  0  0  0
   -7.0490   14.8560    0.0320 C   0  0  1  0  0  0  0  0  0  0  0  0
   -5.9320   14.5300    2.2440 C   0  0  0  0  0  0  0  0  0  0  0  0
   -8.0020   13.9480   -0.4550 O   0  0  0  0  0  0  0  0  0  0  0  0
   -7.1520   14.8120    1.4810 N   0  0  0  0  0  0  0  0  0  0  0  0
  2  1  1  1
  2  3  1  0
  2  4  1  0
  4  5  1  6
  4  6  1  0
  5  7  1  0
  6  8  1  0
  6  9  1  0
  7 10  1  0
  8 11  1  0
  9 12  1  0
 11 12  1  0
  9 13  1  6
 11 14  1  6
 12 15  1  6
 13 16  1  0
 17 10  1  6
 14 18  1  0
 14 19  1  0
 14 20  1  0
 15 21  1  0
 16 21  1  0
 17 22  1  0
 17 23  1  0
 24 22  1  6
 23 25  1  0
 24 26  1  0
 26 25  1  6
 24 27  1  0
 26 28  1  0
 27 29  1  0
 28 30  1  6
 28 31  1  0
 29 31  1  0
M  CHG  1   1  -1
M  END
