ucsf017
     RDKit          3D

 18 21  0  0  0  0  0  0  0  0999 V2000
   -1.0670   13.4690   -5.6320 C   0  0  0  0  0  0  0  0  0  0  0  0
   -2.4010   14.0860   -5.1630 O   0  0  0  0  0  0  0  0  0  0  0  0
   -2.1430   14.3770   -3.6060 C   0  0  0  0  0  0  0  0  0  0  0  0
   -0.8910   14.3860   -3.5080 C   0  0  2  0  0  0  0  0  0  0  0  0
   -0.3380   13.2350   -4.5730 C   0  0  1  0  0  0  0  0  0  0  0  0
   -0.3960   11.7290   -4.1600 C   0  0  0  0  0  0  0  0  0  0  0  0
    0.4640   11.4960   -3.0360 C   0  0  0  0  0  0  0  0  0  0  0  0
    0.8320   12.9660   -2.3050 C   0  0  0  0  0  0  0  0  0  0  0  0
   -0.4770   13.8310   -2.1430 N   0  0  0  0  0  0  0  0  0  0  0  0
   -0.8810   14.2980   -0.8420 C   0  0  2  0  0  0  0  0  0  0  0  0
    0.1320   14.3080    0.0110 N   0  0  0  0  0  0  0  0  0  0  0  0
   -0.0370   14.6680    1.2600 C   0  0  0  0  0  0  0  0  0  0  0  0
   -1.2300   15.0060    1.6830 N   0  0  0  0  0  0  0  0  0  0  0  0
   -2.3270   15.0100    0.8970 C   0  0  0  0  0  0  0  0  0  0  0  0
   -3.6260   15.3350    1.1800 N   0  0  0  0  0  0  0  0  0  0  0  0
   -4.3800   15.2010    0.0890 C   0  0  0  0  0  0  0  0  0  0  0  0
   -3.5480   14.7620   -0.9350 C   0  0  0  0  0  0  0  0  0  0  0  0
   -2.2180   14.6530   -0.4200 C   0  0  0  0  0  0  0  0  0  0  0  0
  1  2  1  0
  2  3  1  0
  4  3  1  1
  5  1  1  6
  4  5  1  0
  5  6  1  0
  6  7  1  0
  7  8  1  0
  4  9  1  0
  8  9  1  0
 10  9  1  1
 10 11  1  0
 11 12  1  0
 12 13  1  0
 13 14  1  0
 14 15  1  0
 15 16  1  0
 16 17  1  0
 10 18  1  0
 14 18  1  0
 17 18  1  0
M  END
