ucsf367-ucsf511
     RDKit          3D

 24 27  0  0  0  0  0  0  0  0999 V2000
    0.7050   10.9320   -3.2680 O   0  0  0  0  0  0  0  0  0  0  0  0
    0.4380   12.1580   -3.6910 C   0  0  1  0  0  0  0  0  0  0  0  0
    1.3160   13.0320   -2.9840 O   0  0  0  0  0  0  0  0  0  0  0  0
    0.7810   12.3970   -5.2010 C   0  0  0  0  0  0  0  0  0  0  0  0
    0.7400   11.2060   -5.9970 O   0  0  0  0  0  0  0  0  0  0  0  0
    0.6430   14.3300   -2.9020 N   0  0  0  0  0  0  0  0  0  0  0  0
   -0.5620   10.7070   -6.2850 C   0  0  0  0  0  0  0  0  0  0  0  0
   -0.0810   14.1770   -1.6460 C   0  0  0  0  0  0  0  0  0  0  0  0
   -0.2130   14.5170   -4.1000 C   0  0  0  0  0  0  0  0  0  0  0  0
   -0.4960    9.1990   -6.5300 C   0  0  0  0  0  0  0  0  0  0  0  0
   -1.4980   10.9910   -5.1130 C   0  0  0  0  0  0  0  0  0  0  0  0
   -1.2620   15.1080   -1.4840 C   0  0  1  0  0  0  0  0  0  0  0  0
   -1.6650   14.4760   -3.9000 N   0  0  0  0  0  0  0  0  0  0  0  0
   -1.8410    8.5730   -6.8770 C   0  0  0  0  0  0  0  0  0  0  0  0
   -2.8180   10.2400   -5.2380 C   0  0  0  0  0  0  0  0  0  0  0  0
   -2.0410   15.3100   -2.7750 C   0  0  1  0  0  0  0  0  0  0  0  0
   -2.2210   14.6140   -0.5320 O   0  0  0  0  0  0  0  0  0  0  0  0
   -3.0050    9.4950   -6.5570 C   0  0  0  0  0  0  0  0  0  0  0  0
   -3.3490   15.4470   -0.7980 C   0  0  1  0  0  0  0  0  0  0  0  0
   -3.5010   15.4370   -2.3080 C   0  0  2  0  0  0  0  0  0  0  0  0
   -4.5830   14.4710   -2.7670 C   0  0  0  0  0  0  0  0  0  0  0  0
   -4.5930   15.0680   -0.0360 C   0  0  0  0  0  0  0  0  0  0  0  0
   -5.9480   14.9000   -2.2090 C   0  0  0  0  0  0  0  0  0  0  0  0
   -5.8580   15.4750   -0.7950 C   0  0  0  0  0  0  0  0  0  0  0  0
  2  1  1  1
  2  3  1  0
  2  4  1  0
  4  5  1  0
  3  6  1  0
  5  7  1  0
  6  8  1  0
  6  9  1  0
  7 10  1  0
  7 11  1  0
 12  8  1  6
  9 13  1  0
 10 14  1  0
 11 15  1  0
 12 16  1  0
 16 13  1  6
 12 17  1  0
 14 18  1  0
 15 18  1  0
 17 19  1  0
 16 20  1  0
 19 20  1  0
 20 21  1  1
 19 22  1  1
 21 23  1  0
 22 24  1  0
 23 24  1  0
M  CHG  1   1  -1
M  END
