ucsf115-ucsf135
     RDKit          3D

 27 31  0  0  0  0  0  0  0  0999 V2000
   -1.7950   14.2310   -3.6820 C   0  0  0  0  0  0  0  0  0  0  0  0
   -1.8010   15.1180   -2.5540 N   0  0  0  0  0  0  0  0  0  0  0  0
   -1.8700   14.4340   -1.2830 C   0  0  1  0  0  0  0  0  0  0  0  0
   -0.9080   13.0130   -3.4640 C   0  0  2  0  0  0  0  0  0  0  0  0
   -1.5760   11.8980   -2.8800 O   0  0  0  0  0  0  0  0  0  0  0  0
    0.2790   13.1250   -2.5320 C   0  0  0  0  0  0  0  0  0  0  0  0
    0.6690   11.6620   -2.4900 C   0  0  0  0  0  0  0  0  0  0  0  0
   -0.5430   10.9960   -3.1250 C   0  0  2  0  0  0  0  0  0  0  0  0
   -0.7320   14.8870   -0.5000 N   0  0  0  0  0  0  0  0  0  0  0  0
   -3.1360   14.9000   -0.5660 C   0  0  2  0  0  0  0  0  0  0  0  0
   -0.7370   14.5170    0.9060 C   0  0  0  0  0  0  0  0  0  0  0  0
   -3.1190   14.3750    0.8230 C   0  0  1  0  0  0  0  0  0  0  0  0
   -4.4510   14.4620   -1.0120 N   0  0  0  0  0  0  0  0  0  0  0  0
   -0.5140   11.0450   -4.8400 S   0  0  1  0  0  0  0  0  0  0  0  0
   -1.8510   11.8810   -5.1640 O   0  0  0  0  0  0  0  0  0  0  0  0
   -1.9920   14.7800    1.5960 N   0  0  0  0  0  0  0  0  0  0  0  0
   -4.3120   15.0660    1.2590 N   0  0  0  0  0  0  0  0  0  0  0  0
   -5.2070   15.0530    0.0920 C   0  0  0  0  0  0  0  0  0  0  0  0
    0.7880   11.7350   -5.6270 N   0  0  0  0  0  0  0  0  0  0  0  0
   -0.7380    9.5520   -5.7420 C   0  0  2  0  0  0  0  0  0  0  0  0
    0.8250   11.1550   -6.9650 C   0  0  1  0  0  0  0  0  0  0  0  0
   -0.3820   10.1820   -7.0940 C   0  0  1  0  0  0  0  0  0  0  0  0
   -2.1480    9.0000   -5.7880 C   0  0  0  0  0  0  0  0  0  0  0  0
    0.6360   12.2030   -7.8120 O   0  0  0  0  0  0  0  0  0  0  0  0
   -2.2900    7.9810   -6.9200 C   0  0  0  0  0  0  0  0  0  0  0  0
   -0.3900    9.1560   -8.1900 C   0  0  0  0  0  0  0  0  0  0  0  0
   -1.7490    8.4670   -8.2820 C   0  0  0  0  0  0  0  0  0  0  0  0
  1  2  1  0
  3  2  1  6
  4  1  1  1
  4  5  1  0
  4  6  1  0
  6  7  1  0
  5  8  1  0
  8  7  1  1
  3  9  1  0
  3 10  1  0
  9 11  1  0
 10 12  1  0
 10 13  1  6
  8 14  1  0
 14 15  1  6
 11 16  1  0
 12 16  1  1
 12 17  1  0
 13 18  1  0
 17 18  1  0
 14 19  1  0
 14 20  1  0
 19 21  1  0
 20 22  1  0
 21 22  1  0
 20 23  1  6
 21 24  1  6
 23 25  1  0
 22 26  1  6
 25 27  1  0
 26 27  1  0
M  END
