ucsf345-ucsf004
     RDKit          3D

 21 23  0  0  0  0  0  0  0  0999 V2000
   -6.1290   14.6510    1.6780 N   0  0  0  0  0  0  0  0  0  0  0  0
   -6.1260   14.8930    0.2510 C   0  0  2  0  0  0  0  0  0  0  0  0
   -7.4930   14.8290   -0.1190 O   0  0  0  0  0  0  0  0  0  0  0  0
   -5.3220   13.8880   -0.6150 C   0  0  1  0  0  0  0  0  0  0  0  0
   -5.5080   14.2990   -2.0230 N   0  0  0  0  0  0  0  0  0  0  0  0
   -3.8250   13.6900   -0.2190 C   0  0  0  0  0  0  0  0  0  0  0  0
   -4.3470   14.8410   -2.6810 C   0  0  0  0  0  0  0  0  0  0  0  0
   -2.7770   14.7630   -0.7140 C   0  0  1  0  0  0  0  0  0  0  0  0
   -3.4660   15.6570   -1.7570 C   0  0  0  0  0  0  0  0  0  0  0  0
   -2.3420   15.5640    0.5410 C   0  0  0  0  0  0  0  0  0  0  0  0
   -1.3840   14.1430   -1.1730 C   0  0  1  0  0  0  0  0  0  0  0  0
   -0.9910   14.1950   -2.6020 N   0  0  0  0  0  0  0  0  0  0  0  0
   -0.2270   14.5660   -0.3890 N   0  0  0  0  0  0  0  0  0  0  0  0
   -1.6060   14.7620    1.5170 N   0  0  0  0  0  0  0  0  0  0  0  0
   -2.0730   14.1190   -3.5770 C   0  0  0  0  0  0  0  0  0  0  0  0
    0.1240   15.0630   -3.0400 C   0  0  0  0  0  0  0  0  0  0  0  0
   -0.3000   14.4120    1.0440 C   0  0  0  0  0  0  0  0  0  0  0  0
   -1.6060   13.5260   -4.9100 C   0  0  2  0  0  0  0  0  0  0  0  0
    0.4060   14.9890   -4.5560 C   0  0  0  0  0  0  0  0  0  0  0  0
   -1.9140   12.1950   -4.8880 F   0  0  0  0  0  0  0  0  0  0  0  0
   -0.1010   13.6750   -5.1350 C   0  0  0  0  0  0  0  0  0  0  0  0
  2  1  1  1
  2  3  1  0
  2  4  1  0
  4  5  1  0
  4  6  1  1
  5  7  1  0
  8  6  1  1
  7  9  1  0
  8  9  1  0
  8 10  1  0
  8 11  1  0
 11 12  1  6
 11 13  1  0
 10 14  1  0
 12 15  1  0
 12 16  1  0
 13 17  1  0
 14 17  1  0
 15 18  1  0
 16 19  1  0
 18 20  1  1
 18 21  1  0
 19 21  1  0
M  END
