ucsf487-ucsf013
     RDKit          3D

 12 13  0  0  0  0  0  0  0  0999 V2000
   -7.2390   13.5280    2.8440 N   0  0  0  0  0  0  0  0  0  0  0  0
   -7.0030   14.5160    1.7760 C   0  0  2  0  0  0  0  0  0  0  0  0
   -7.7220   14.0470    0.4960 C   0  0  0  0  0  0  0  0  0  0  0  0
   -5.4620   14.8240    1.5820 C   0  0  1  0  0  0  0  0  0  0  0  0
   -4.6090   13.7280    2.0210 N   0  0  0  0  0  0  0  0  0  0  0  0
   -5.0570   15.2570    0.1600 C   0  0  2  0  0  0  0  0  0  0  0  0
   -7.2980   14.7370   -0.7160 N   0  0  0  0  0  0  0  0  0  0  0  0
   -5.8700   14.5570   -0.9240 C   0  0  1  0  0  0  0  0  0  0  0  0
   -3.5620   15.0180   -0.0620 C   0  0  0  0  0  0  0  0  0  0  0  0
   -5.5110   15.1380   -2.2800 C   0  0  0  0  0  0  0  0  0  0  0  0
   -3.0860   15.4520   -1.4440 C   0  0  0  0  0  0  0  0  0  0  0  0
   -4.0170   15.0560   -2.5930 C   0  0  0  0  0  0  0  0  0  0  0  0
  2  1  1  1
  2  3  1  0
  2  4  1  0
  4  5  1  6
  4  6  1  0
  3  7  1  0
  6  8  1  0
  7  8  1  0
  6  9  1  6
  8 10  1  6
  9 11  1  0
 10 12  1  0
 11 12  1  0
M  END
