ucsf520-ucsf248
     RDKit          3D

 24 27  0  0  0  0  0  0  0  0999 V2000
   -3.9420   13.3410    1.9370 N   0  0  0  0  0  0  0  0  0  0  0  0
   -4.1890   13.9560    0.0610 S   0  0  0  0  0  0  0  0  0  0  0  0
   -2.4280   14.4070    0.1670 C   0  0  1  0  0  0  0  0  0  0  0  0
   -3.3260   13.2540   -1.4570 N   0  0  0  0  0  0  0  0  0  0  0  0
   -5.8410   13.6190    0.3000 N   0  0  0  0  0  0  0  0  0  0  0  0
   -5.5470   15.0000   -0.2290 C   0  0  0  0  0  0  0  0  0  0  0  0
   -3.2170   14.3180   -2.3670 C   0  0  0  0  0  0  0  0  0  0  0  0
   -1.5120   14.3290   -0.9780 C   0  0  1  0  0  0  0  0  0  0  0  0
   -1.9750   15.4050    1.0200 N   0  0  0  0  0  0  0  0  0  0  0  0
   -6.3780   14.8470    0.8870 C   0  0  1  0  0  0  0  0  0  0  0  0
   -6.4490   15.4490   -0.3930 N   0  0  0  0  0  0  0  0  0  0  0  0
   -7.7070   14.5690    1.8440 S   0  0  0  0  0  0  0  0  0  0  0  0
   -1.8090   14.6570   -2.2250 N   0  0  0  0  0  0  0  0  0  0  0  0
   -0.2080   14.8490   -0.4700 N   0  0  0  0  0  0  0  0  0  0  0  0
   -0.5300   15.2710    0.8920 C   0  0  0  0  0  0  0  0  0  0  0  0
   -1.1430   14.3790   -3.3780 C   0  0  0  0  0  0  0  0  0  0  0  0
   -7.5330   12.8170    2.1900 N   0  0  0  0  0  0  0  0  0  0  0  0
   -7.4410   15.2140    3.1470 O   0  0  0  0  0  0  0  0  0  0  0  0
   -9.0360   14.6980    1.0000 O   0  0  0  0  0  0  0  0  0  0  0  0
   -0.8690   15.3600   -4.4500 C   0  0  1  0  0  0  0  0  0  0  0  0
   -1.4920   16.5600   -4.4690 O   0  0  0  0  0  0  0  0  0  0  0  0
    0.6030   15.5290   -4.7290 C   0  0  0  0  0  0  0  0  0  0  0  0
    0.7180   16.9720   -5.1310 C   0  0  0  0  0  0  0  0  0  0  0  0
   -0.6820   17.4880   -5.0930 C   0  0  0  0  0  0  0  0  0  0  0  0
  1  2  1  0
  2  3  1  0
  2  4  1  0
  2  5  1  0
  2  6  1  0
  4  7  1  0
  3  8  1  0
  3  9  1  6
  5 10  1  0
  6 11  1  0
 10 11  1  0
 10 12  1  6
  7 13  1  0
  8 13  1  0
  8 14  1  1
  9 15  1  0
 14 15  1  0
 13 16  1  0
 12 17  1  0
 12 18  1  0
 12 19  1  0
 20 16  1  1
 20 21  1  0
 20 22  1  0
 22 23  1  0
 21 24  1  0
 23 24  1  0
M  END
