ucsf320
     RDKit          3D

 10 10  0  0  0  0  0  0  0  0999 V2000
   -0.9730   14.6450   -1.6610 O   0  0  0  0  0  0  0  0  0  0  0  0
   -1.9250   14.7530   -2.4570 C   0  0  1  0  0  0  0  0  0  0  0  0
   -1.7050   14.6640   -3.6860 O   0  0  0  0  0  0  0  0  0  0  0  0
   -3.3360   14.9100   -1.8880 C   0  0  1  0  0  0  0  0  0  0  0  0
   -4.4120   15.1080   -2.7230 C   0  0  0  0  0  0  0  0  0  0  0  0
   -5.6850   15.2100   -2.1930 C   0  0  0  0  0  0  0  0  0  0  0  0
   -5.9080   15.1010   -0.8360 C   0  0  0  0  0  0  0  0  0  0  0  0
   -7.2110   15.1760   -0.3600 O   0  0  0  0  0  0  0  0  0  0  0  0
   -4.8340   14.8760   -0.0020 C   0  0  0  0  0  0  0  0  0  0  0  0
   -3.5520   14.7840   -0.5270 C   0  0  0  0  0  0  0  0  0  0  0  0
  2  1  1  1
  2  3  1  0
  2  4  1  0
  4  5  1  6
  5  6  1  0
  6  7  1  0
  7  8  1  0
  7  9  1  0
  4 10  1  0
  9 10  1  0
M  CHG  1   1  -1
M  END
