ucsf274-ucsf278
     RDKit          3D

 27 31  0  0  0  0  0  0  0  0999 V2000
    0.4800   10.2270   -2.2120 O   0  0  0  0  0  0  0  0  0  0  0  0
   -0.2950   11.2440   -2.0140 C   0  0  1  0  0  0  0  0  0  0  0  0
    0.4090   12.1210   -1.1640 O   0  0  0  0  0  0  0  0  0  0  0  0
   -0.7310   11.9640   -3.2690 C   0  0  0  0  0  0  0  0  0  0  0  0
   -0.0450   13.2790   -3.5390 C   0  0  1  0  0  0  0  0  0  0  0  0
    1.2810   12.6670   -3.9300 C   0  0  0  0  0  0  0  0  0  0  0  0
   -0.2190   14.0560   -4.8580 C   0  0  2  0  0  0  0  0  0  0  0  0
    0.0750   14.1330   -2.2790 C   0  0  2  0  0  0  0  0  0  0  0  0
   -1.4880   14.5060   -1.4760 Cl  0  0  0  0  0  0  0  0  0  0  0  0
    0.8750   12.0420   -5.2340 C   0  0  2  0  0  0  0  0  0  0  0  0
    0.0820   13.0650   -5.9450 N   0  0  0  0  0  0  0  0  0  0  0  0
    0.9720   15.2920   -2.4140 C   0  0  0  0  0  0  0  0  0  0  0  0
    0.8170   15.1780   -4.9440 C   0  0  0  0  0  0  0  0  0  0  0  0
   -0.1920   10.9500   -5.1860 C   0  0  2  0  0  0  0  0  0  0  0  0
   -1.0240   12.1490   -6.3820 C   0  0  2  0  0  0  0  0  0  0  0  0
    1.7280   15.2920   -3.7250 C   0  0  0  0  0  0  0  0  0  0  0  0
   -0.0700    9.6750   -4.6260 O   0  0  0  0  0  0  0  0  0  0  0  0
   -2.2500   11.7630   -5.4400 C   0  0  1  0  0  0  0  0  0  0  0  0
   -0.2820   10.9350   -6.5570 N   0  0  0  0  0  0  0  0  0  0  0  0
   -3.0450   12.8870   -5.1070 O   0  0  0  0  0  0  0  0  0  0  0  0
   -3.1040   10.7110   -5.9940 N   0  0  0  0  0  0  0  0  0  0  0  0
   -0.9430    9.7460   -6.9830 C   0  0  1  0  0  0  0  0  0  0  0  0
   -2.3020    9.4990   -6.2530 C   0  0  2  0  0  0  0  0  0  0  0  0
   -1.0190    9.4410   -8.4820 C   0  0  0  0  0  0  0  0  0  0  0  0
   -1.2830    7.9610   -8.7240 C   0  0  0  0  0  0  0  0  0  0  0  0
   -3.1050    8.4510   -7.0240 C   0  0  0  0  0  0  0  0  0  0  0  0
   -2.2220    7.3810   -7.6750 C   0  0  0  0  0  0  0  0  0  0  0  0
  2  1  1  6
  2  3  1  0
  2  4  1  0
  5  4  1  1
  5  6  1  0
  5  7  1  0
  5  8  1  0
  8  9  1  6
 10  6  1  1
  7 11  1  0
 10 11  1  0
  8 12  1  0
  7 13  1  1
 10 14  1  0
 15 11  1  1
 12 16  1  0
 13 16  1  0
 14 17  1  6
 15 18  1  0
 14 19  1  0
 15 19  1  0
 18 20  1  6
 18 21  1  0
 19 22  1  0
 21 23  1  0
 22 23  1  0
 22 24  1  6
 24 25  1  0
 23 26  1  6
 25 27  1  0
 26 27  1  0
M  CHG  1   1  -1
M  END
