ucsf190-ucsf442
     RDKit          3D

 27 30  0  0  0  0  0  0  0  0999 V2000
    0.5800   10.5050   -2.4490 O   0  0  0  0  0  0  0  0  0  0  0  0
    0.4370   11.8030   -2.7300 C   0  0  1  0  0  0  0  0  0  0  0  0
    0.8340   12.3790   -1.5060 O   0  0  0  0  0  0  0  0  0  0  0  0
    1.4280   12.2560   -3.8600 C   0  0  0  0  0  0  0  0  0  0  0  0
    1.3550   13.6890   -4.4510 C   0  0  1  0  0  0  0  0  0  0  0  0
    0.0640   14.1430   -5.2150 C   0  0  2  0  0  0  0  0  0  0  0  0
    1.8580   14.7070   -3.4820 N   0  0  0  0  0  0  0  0  0  0  0  0
   -0.4020   15.6500   -5.0910 C   0  0  2  0  0  0  0  0  0  0  0  0
    1.7660   16.0430   -4.0610 N   0  0  0  0  0  0  0  0  0  0  0  0
   -1.0480   13.0810   -5.2600 C   0  0  0  0  0  0  0  0  0  0  0  0
    0.3760   16.4420   -4.0460 C   0  0  1  0  0  0  0  0  0  0  0  0
   -1.9150   15.9610   -5.0290 C   0  0  0  0  0  0  0  0  0  0  0  0
   -2.4250   13.5650   -5.6420 C   0  0  0  0  0  0  0  0  0  0  0  0
    0.3290   17.8220   -4.3650 O   0  0  0  0  0  0  0  0  0  0  0  0
   -2.8020   14.7420   -4.7770 C   0  0  1  0  0  0  0  0  0  0  0  0
   -2.6490   14.3090   -3.3220 C   0  0  0  0  0  0  0  0  0  0  0  0
   -3.5980   15.0140   -2.5510 O   0  0  0  0  0  0  0  0  0  0  0  0
   -3.0880   15.5130   -1.3300 C   0  0  1  0  0  0  0  0  0  0  0  0
   -4.2240   15.5240   -0.3010 C   0  0  2  0  0  0  0  0  0  0  0  0
   -1.9540   14.6890   -0.8750 N   0  0  0  0  0  0  0  0  0  0  0  0
   -1.3880   15.2200    0.3400 C   0  0  2  0  0  0  0  0  0  0  0  0
   -3.6740   14.8230    0.9030 C   0  0  1  0  0  0  0  0  0  0  0  0
   -5.5070   14.8490   -0.4250 N   0  0  0  0  0  0  0  0  0  0  0  0
   -0.4080   14.3350    0.7880 O   0  0  0  0  0  0  0  0  0  0  0  0
   -2.4060   15.3180    1.3480 N   0  0  0  0  0  0  0  0  0  0  0  0
   -4.7720   15.1850    1.7580 N   0  0  0  0  0  0  0  0  0  0  0  0
   -5.8640   14.6110    0.9710 C   0  0  0  0  0  0  0  0  0  0  0  0
  2  1  1  1
  2  3  1  0
  2  4  1  0
  5  4  1  1
  5  6  1  0
  5  7  1  0
  6  8  1  0
  7  9  1  0
  6 10  1  1
  8 11  1  0
  9 11  1  0
  8 12  1  1
 10 13  1  0
 11 14  1  6
 12 15  1  0
 13 15  1  0
 15 16  1  1
 16 17  1  0
 18 17  1  6
 18 19  1  0
 18 20  1  0
 20 21  1  0
 19 22  1  0
 19 23  1  6
 21 24  1  1
 21 25  1  0
 22 25  1  1
 22 26  1  0
 23 27  1  0
 26 27  1  0
M  CHG  1   1  -1
M  END
