ucsf303-ucsf138
     RDKit          3D

 31 33  0  0  0  0  0  0  0  0999 V2000
   -2.8200   13.7010   -3.1490 O   0  0  0  0  0  0  0  0  0  0  0  0
   -4.0510   14.3080   -2.3280 S   0  0  0  0  0  0  0  0  0  0  0  0
   -4.5680   15.4860   -3.2410 O   0  0  0  0  0  0  0  0  0  0  0  0
   -5.2940   13.2850   -2.0450 N   0  0  0  0  0  0  0  0  0  0  0  0
   -3.3830   15.0970   -0.9270 C   0  0  0  0  0  0  0  0  0  0  0  0
   -5.4300   12.0350   -2.6970 C   0  0  2  0  0  0  0  0  0  0  0  0
   -2.0750   14.4530   -0.4130 C   0  0  0  0  0  0  0  0  0  0  0  0
   -4.5000   15.3460    0.0870 C   0  0  0  0  0  0  0  0  0  0  0  0
   -5.3400   11.0300   -1.6580 N   0  0  0  0  0  0  0  0  0  0  0  0
   -4.0890   11.7570   -3.8520 S   0  0  0  0  0  0  0  0  0  0  0  0
   -1.7550   14.6950    1.0580 C   0  0  0  0  0  0  0  0  0  0  0  0
   -4.0270   15.6310    1.4770 C   0  0  0  0  0  0  0  0  0  0  0  0
   -3.5950   10.2200   -3.0570 C   0  0  2  0  0  0  0  0  0  0  0  0
   -4.7590    9.8160   -2.2290 N   0  0  0  0  0  0  0  0  0  0  0  0
   -3.0260   14.5890    1.8680 C   0  0  0  0  0  0  0  0  0  0  0  0
   -2.2680   10.4700   -2.3400 C   0  0  0  0  0  0  0  0  0  0  0  0
   -1.0650   10.5890   -3.2900 C   0  0  0  0  0  0  0  0  0  0  0  0
    0.2100   10.6870   -2.6260 O   0  0  0  0  0  0  0  0  0  0  0  0
    0.9670   11.8980   -2.9740 C   0  0  2  0  0  0  0  0  0  0  0  0
    0.5910   12.8490   -2.1470 O   0  0  0  0  0  0  0  0  0  0  0  0
    0.6560   12.3150   -4.4780 C   0  0  0  0  0  0  0  0  0  0  0  0
    0.2870   11.2100   -5.4170 N   0  0  0  0  0  0  0  0  0  0  0  0
    0.8780   11.3730   -6.7210 C   0  0  2  0  0  0  0  0  0  0  0  0
    0.7230   12.6860   -7.0630 O   0  0  0  0  0  0  0  0  0  0  0  0
    0.0970   10.5160   -7.6050 N   0  0  0  0  0  0  0  0  0  0  0  0
    0.8190   10.1180   -8.8240 C   0  0  0  0  0  0  0  0  0  0  0  0
   -0.0120   10.2640  -10.1110 C   0  0  0  0  0  0  0  0  0  0  0  0
    1.3180    8.6630   -8.6530 C   0  0  0  0  0  0  0  0  0  0  0  0
    0.2750    9.2000  -11.1800 C   0  0  0  0  0  0  0  0  0  0  0  0
    2.0860    8.0490   -9.8330 C   0  0  0  0  0  0  0  0  0  0  0  0
    1.6990    8.6450  -11.1730 C   0  0  0  0  0  0  0  0  0  0  0  0
  2  1  1  0
  2  3  1  0
  2  4  1  0
  2  5  1  0
  6  4  1  1
  5  7  1  0
  5  8  1  0
  6  9  1  0
  6 10  1  0
  7 11  1  0
  8 12  1  0
 10 13  1  0
  9 14  1  0
 13 14  1  0
 11 15  1  0
 12 15  1  0
 13 16  1  1
 16 17  1  0
 17 18  1  0
 18 19  1  0
 19 20  1  1
 19 21  1  0
 21 22  1  0
 22 23  1  0
 23 24  1  6
 23 25  1  0
 25 26  1  0
 26 27  1  0
 26 28  1  0
 27 29  1  0
 28 30  1  0
 29 31  1  0
 30 31  1  0
M  CHG  1  20  -1
M  END
