ucsf412-ucsf016
     RDKit          3D

 24 28  0  0  0  0  0  0  0  0999 V2000
   -7.9610   15.0160   -0.4450 O   0  0  0  0  0  0  0  0  0  0  0  0
   -6.7860   14.4320    0.0680 C   0  0  2  0  0  0  0  0  0  0  0  0
   -6.8640   14.6130    1.4920 N   0  0  0  0  0  0  0  0  0  0  0  0
   -5.5660   15.0770   -0.6280 C   0  0  1  0  0  0  0  0  0  0  0  0
   -4.2560   14.8400    0.2010 C   0  0  1  0  0  0  0  0  0  0  0  0
   -5.6730   14.1610    2.1920 C   0  0  0  0  0  0  0  0  0  0  0  0
   -5.4960   14.6290   -2.0890 C   0  0  0  0  0  0  0  0  0  0  0  0
   -4.4800   13.7800    1.2870 C   0  0  0  0  0  0  0  0  0  0  0  0
   -2.8540   15.0740   -0.5560 C   0  0  1  0  0  0  0  0  0  0  0  0
   -4.1630   14.9750   -2.6980 C   0  0  0  0  0  0  0  0  0  0  0  0
   -3.3850   15.8540   -1.7480 C   0  0  0  0  0  0  0  0  0  0  0  0
   -2.0750   15.8910    0.4360 C   0  0  0  0  0  0  0  0  0  0  0  0
   -1.6980   14.0590   -1.0850 C   0  0  1  0  0  0  0  0  0  0  0  0
   -1.3620   14.0910   -2.5590 N   0  0  0  0  0  0  0  0  0  0  0  0
   -0.3520   14.2390   -0.4850 N   0  0  0  0  0  0  0  0  0  0  0  0
   -1.4320   15.0500    1.4240 N   0  0  0  0  0  0  0  0  0  0  0  0
    0.0340   13.7610   -2.9030 C   0  0  0  0  0  0  0  0  0  0  0  0
   -1.8400   15.1550   -3.4530 C   0  0  0  0  0  0  0  0  0  0  0  0
   -0.2460   14.4390    0.9320 C   0  0  0  0  0  0  0  0  0  0  0  0
   -2.1380   14.4730   -4.7770 C   0  0  0  0  0  0  0  0  0  0  0  0
    0.2730   13.8560   -4.4240 C   0  0  0  0  0  0  0  0  0  0  0  0
   -3.5100   13.8540   -4.9690 C   0  0  0  0  0  0  0  0  0  0  0  0
   -3.1370   15.0760   -5.7540 C   0  0  0  0  0  0  0  0  0  0  0  0
   -0.9870   13.6040   -5.2470 C   0  0  0  0  0  0  0  0  0  0  0  0
  2  1  1  6
  2  3  1  0
  2  4  1  0
  4  5  1  0
  3  6  1  0
  4  7  1  6
  5  8  1  6
  6  8  1  0
  5  9  1  0
  7 10  1  0
  9 11  1  6
 10 11  1  0
  9 12  1  0
  9 13  1  0
 13 14  1  6
 13 15  1  0
 12 16  1  0
 14 17  1  0
 14 18  1  0
 15 19  1  0
 16 19  1  0
 20 18  1  0
 17 21  1  0
 20 22  1  0
 20 23  1  0
 22 23  1  0
 20 24  1  0
 21 24  1  0
M  END
