ucsf412-ucsf262
     RDKit          3D

 26 29  0  0  0  0  0  0  0  0999 V2000
   -8.0660   13.8990   -0.3210 O   0  0  0  0  0  0  0  0  0  0  0  0
   -7.0280   14.7520    0.0900 C   0  0  1  0  0  0  0  0  0  0  0  0
   -6.9460   14.6820    1.5380 N   0  0  0  0  0  0  0  0  0  0  0  0
   -5.7080   14.3820   -0.6460 C   0  0  2  0  0  0  0  0  0  0  0  0
   -4.4220   14.0520    0.1830 C   0  0  2  0  0  0  0  0  0  0  0  0
   -5.6310   15.0180    2.0480 C   0  0  0  0  0  0  0  0  0  0  0  0
   -5.4400   15.4620   -1.6930 C   0  0  0  0  0  0  0  0  0  0  0  0
   -4.5900   14.0060    1.6850 C   0  0  0  0  0  0  0  0  0  0  0  0
   -3.2420   14.9350   -0.1890 C   0  0  0  0  0  0  0  0  0  0  0  0
   -4.1770   15.2310   -2.5180 C   0  0  2  0  0  0  0  0  0  0  0  0
   -4.4390   14.2590   -3.6810 C   0  0  0  0  0  0  0  0  0  0  0  0
   -2.9680   14.8550   -1.6770 C   0  0  0  0  0  0  0  0  0  0  0  0
   -3.4640   14.5540   -4.8130 C   0  0  0  0  0  0  0  0  0  0  0  0
   -3.1790   16.0490   -4.9790 C   0  0  0  0  0  0  0  0  0  0  0  0
   -1.8150   16.6490   -5.3240 C   0  0  2  0  0  0  0  0  0  0  0  0
   -0.5060   15.8850   -4.9900 C   0  0  2  0  0  0  0  0  0  0  0  0
   -1.7160   18.1780   -5.4070 C   0  0  0  0  0  0  0  0  0  0  0  0
   -0.3360   15.0460   -3.7240 C   0  0  0  0  0  0  0  0  0  0  0  0
    0.8140   16.6560   -5.1260 C   0  0  2  0  0  0  0  0  0  0  0  0
   -0.4430   18.5930   -6.1120 C   0  0  0  0  0  0  0  0  0  0  0  0
    1.1830   14.8890   -3.6490 C   0  0  1  0  0  0  0  0  0  0  0  0
    1.5790   16.2740   -3.9600 N   0  0  0  0  0  0  0  0  0  0  0  0
    0.7390   18.1670   -5.2570 C   0  0  0  0  0  0  0  0  0  0  0  0
    1.7860   14.3790   -2.3070 C   0  0  2  0  0  0  0  0  0  0  0  0
    3.1070   14.3860   -2.3720 O   0  0  0  0  0  0  0  0  0  0  0  0
    1.5050   13.0030   -2.1070 O   0  0  0  0  0  0  0  0  0  0  0  0
  2  1  1  6
  2  3  1  0
  2  4  1  0
  4  5  1  0
  3  6  1  0
  4  7  1  6
  5  8  1  1
  6  8  1  0
  5  9  1  0
  7 10  1  0
 10 11  1  6
  9 12  1  0
 10 12  1  0
 11 13  1  0
 13 14  1  0
 15 14  1  1
 15 16  1  0
 15 17  1  0
 16 18  1  1
 16 19  1  0
 17 20  1  0
 21 18  1  1
 19 22  1  0
 21 22  1  0
 19 23  1  1
 20 23  1  0
 21 24  1  0
 24 25  1  6
 24 26  1  0
M  CHG  1  25  -1
M  END
