ucsf169-ucsf520
     RDKit          3D

 24 26  0  0  0  0  0  0  0  0999 V2000
    1.3610   18.5460   -5.8360 C   0  0  0  0  0  0  0  0  0  0  0  0
    0.0490   18.1030   -5.7100 O   0  0  0  0  0  0  0  0  0  0  0  0
   -0.0650   17.1610   -4.6530 C   0  0  1  0  0  0  0  0  0  0  0  0
   -1.5630   17.0030   -4.3750 C   0  0  1  0  0  0  0  0  0  0  0  0
    0.6840   15.8460   -5.0430 C   0  0  0  0  0  0  0  0  0  0  0  0
   -2.3240   18.0540   -4.9520 O   0  0  0  0  0  0  0  0  0  0  0  0
   -2.0390   15.6240   -4.7150 C   0  0  0  0  0  0  0  0  0  0  0  0
    0.3020   14.7010   -4.1050 C   0  0  2  0  0  0  0  0  0  0  0  0
    0.8660   13.2780   -4.2890 C   0  0  0  0  0  0  0  0  0  0  0  0
   -1.1830   14.7940   -3.7780 C   0  0  2  0  0  0  0  0  0  0  0  0
    0.6620   12.5240   -2.9400 C   0  0  2  0  0  0  0  0  0  0  0  0
   -1.9470   13.7730   -2.9770 C   0  0  0  0  0  0  0  0  0  0  0  0
    1.8590   12.6040   -2.2130 O   0  0  0  0  0  0  0  0  0  0  0  0
    0.5150   11.2290   -3.1010 O   0  0  0  0  0  0  0  0  0  0  0  0
   -2.4820   14.4830   -1.8320 N   0  0  0  0  0  0  0  0  0  0  0  0
   -3.9200   14.2740   -1.7060 C   0  0  0  0  0  0  0  0  0  0  0  0
   -1.7870   14.2020   -0.5860 C   0  0  2  0  0  0  0  0  0  0  0  0
   -4.4550   15.1490   -0.6750 N   0  0  0  0  0  0  0  0  0  0  0  0
   -2.3020   15.1620    0.4600 C   0  0  1  0  0  0  0  0  0  0  0  0
   -0.3830   14.5790   -0.5040 N   0  0  0  0  0  0  0  0  0  0  0  0
   -3.7970   14.9100    0.5860 C   0  0  1  0  0  0  0  0  0  0  0  0
   -1.4220   14.8620    1.5900 N   0  0  0  0  0  0  0  0  0  0  0  0
   -0.1410   14.6010    0.9300 C   0  0  0  0  0  0  0  0  0  0  0  0
   -4.4780   15.6640    1.6100 N   0  0  0  0  0  0  0  0  0  0  0  0
  1  2  1  0
  3  2  1  6
  3  4  1  0
  3  5  1  0
  4  6  1  6
  4  7  1  0
  5  8  1  0
  8  9  1  6
  7 10  1  0
  8 10  1  0
  9 11  1  0
 10 12  1  6
 11 13  1  1
 11 14  1  0
 12 15  1  0
 15 16  1  0
 15 17  1  0
 16 18  1  0
 17 19  1  0
 17 20  1  6
 18 21  1  0
 19 21  1  0
 19 22  1  1
 20 23  1  0
 22 23  1  0
 21 24  1  1
M  CHG  1  14  -1
M  END
