ucsf511-ucsf357
     RDKit          3D

 18 20  0  0  0  0  0  0  0  0999 V2000
    0.0910   14.4080   -1.1500 O   0  0  0  0  0  0  0  0  0  0  0  0
   -0.3970   13.6550   -2.2460 C   0  0  2  0  0  0  0  0  0  0  0  0
    0.4010   14.0700   -3.4090 N   0  0  0  0  0  0  0  0  0  0  0  0
   -1.9440   13.6210   -2.4610 C   0  0  2  0  0  0  0  0  0  0  0  0
   -2.4300   14.5840   -3.5340 C   0  0  2  0  0  0  0  0  0  0  0  0
   -0.3320   14.3440   -4.6150 C   0  0  0  0  0  0  0  0  0  0  0  0
   -2.9100   13.9750   -1.3120 C   0  0  1  0  0  0  0  0  0  0  0  0
   -4.4910   13.7390   -1.2960 C   0  0  1  0  0  0  0  0  0  0  0  0
   -2.2380   13.6370   -0.1980 F   0  0  0  0  0  0  0  0  0  0  0  0
   -1.3910   15.2660   -4.2890 N   0  0  0  0  0  0  0  0  0  0  0  0
   -2.9840   15.4510   -1.3400 C   0  0  1  0  0  0  0  0  0  0  0  0
   -3.4340   15.4970   -2.8170 C   0  0  2  0  0  0  0  0  0  0  0  0
   -4.9440   12.6320   -1.7970 O   0  0  0  0  0  0  0  0  0  0  0  0
   -5.1240   13.7550   -0.0200 O   0  0  0  0  0  0  0  0  0  0  0  0
   -4.8510   14.9640   -3.0500 C   0  0  0  0  0  0  0  0  0  0  0  0
   -3.9920   15.7880   -0.2440 C   0  0  0  0  0  0  0  0  0  0  0  0
   -5.9210   15.4110   -2.0460 C   0  0  0  0  0  0  0  0  0  0  0  0
   -5.4510   15.9470   -0.6830 C   0  0  0  0  0  0  0  0  0  0  0  0
  2  1  1  1
  2  3  1  0
  4  2  1  1
  4  5  1  0
  3  6  1  0
  4  7  1  0
  7  8  1  0
  7  9  1  1
  5 10  1  1
  6 10  1  0
  7 11  1  0
  5 12  1  0
 11 12  1  0
  8 13  1  1
  8 14  1  0
 12 15  1  1
 11 16  1  1
 15 17  1  0
 16 18  1  0
 17 18  1  0
M  CHG  1  13  -1
M  END
