ucsf338-ucsf135
     RDKit          3D

 26 28  0  0  0  0  0  0  0  0999 V2000
   -8.9060   14.3340   -0.2680 O   0  0  0  0  0  0  0  0  0  0  0  0
   -7.5920   14.1390    0.3070 N   0  0  0  0  0  0  0  0  0  0  0  0
   -6.5690   14.3810   -0.7050 C   0  0  1  0  0  0  0  0  0  0  0  0
   -7.1970   14.9580   -1.8290 O   0  0  0  0  0  0  0  0  0  0  0  0
   -5.3380   15.2060   -0.2630 C   0  0  2  0  0  0  0  0  0  0  0  0
   -4.1050   15.2800   -1.2050 C   0  0  2  0  0  0  0  0  0  0  0  0
   -4.9730   14.9440    1.2060 C   0  0  0  0  0  0  0  0  0  0  0  0
   -4.3240   14.6980   -2.4920 O   0  0  0  0  0  0  0  0  0  0  0  0
   -2.8470   14.6160   -0.6040 C   0  0  0  0  0  0  0  0  0  0  0  0
   -3.6860   15.6040    1.5950 C   0  0  0  0  0  0  0  0  0  0  0  0
   -3.2940   15.0150   -3.4420 C   0  0  0  0  0  0  0  0  0  0  0  0
   -2.5240   14.9690    0.8580 C   0  0  0  0  0  0  0  0  0  0  0  0
   -3.2560   14.0150   -4.5890 C   0  0  0  0  0  0  0  0  0  0  0  0
   -1.8810   13.3780   -4.7970 C   0  0  0  0  0  0  0  0  0  0  0  0
   -1.8760   12.0320   -4.3340 O   0  0  0  0  0  0  0  0  0  0  0  0
   -0.5120   11.1900   -4.4020 S   0  0  2  0  0  0  0  0  0  0  0  0
   -0.0890   10.5730   -2.9900 O   0  0  0  0  0  0  0  0  0  0  0  0
    0.7470   11.9520   -5.1730 N   0  0  0  0  0  0  0  0  0  0  0  0
   -0.8110    9.8200   -5.4800 C   0  0  2  0  0  0  0  0  0  0  0  0
    0.8770   11.4500   -6.5480 C   0  0  1  0  0  0  0  0  0  0  0  0
   -0.0200   10.1880   -6.7690 C   0  0  2  0  0  0  0  0  0  0  0  0
   -2.2550    9.4510   -5.7780 C   0  0  0  0  0  0  0  0  0  0  0  0
    0.4480   12.4620   -7.3710 O   0  0  0  0  0  0  0  0  0  0  0  0
   -2.3470    8.3940   -6.8900 C   0  0  0  0  0  0  0  0  0  0  0  0
   -0.9270   10.1940   -7.9880 C   0  0  0  0  0  0  0  0  0  0  0  0
   -1.6270    8.8350   -8.1650 C   0  0  0  0  0  0  0  0  0  0  0  0
  1  2  1  0
  2  3  1  0
  3  4  1  6
  3  5  1  0
  5  6  1  0
  5  7  1  1
  6  8  1  6
  6  9  1  0
  7 10  1  0
  8 11  1  0
  9 12  1  0
 10 12  1  0
 11 13  1  0
 13 14  1  0
 14 15  1  0
 16 15  1  0
 16 17  1  1
 16 18  1  0
 16 19  1  0
 18 20  1  0
 19 21  1  0
 20 21  1  0
 19 22  1  6
 20 23  1  6
 22 24  1  0
 21 25  1  6
 24 26  1  0
 25 26  1  0
M  END
