ucsf224-ucsf345
     RDKit          3D

 23 24  0  0  0  0  0  0  0  0999 V2000
   -1.0020   18.0460   -6.0720 Cl  0  0  0  0  0  0  0  0  0  0  0  0
   -0.4750   16.9010   -4.7970 C   0  0  1  0  0  0  0  0  0  0  0  0
   -1.4050   15.6570   -4.5660 C   0  0  1  0  0  0  0  0  0  0  0  0
    1.0170   16.6310   -4.8640 C   0  0  0  0  0  0  0  0  0  0  0  0
   -2.8270   15.9150   -5.1110 C   0  0  0  0  0  0  0  0  0  0  0  0
   -0.8060   14.2740   -4.9410 C   0  0  0  0  0  0  0  0  0  0  0  0
    1.3790   15.3570   -4.1220 C   0  0  0  0  0  0  0  0  0  0  0  0
   -3.7730   14.7200   -5.3140 C   0  0  0  0  0  0  0  0  0  0  0  0
    0.7440   14.1630   -4.8410 C   0  0  1  0  0  0  0  0  0  0  0  0
    1.2080   12.7620   -4.3110 C   0  0  0  0  0  0  0  0  0  0  0  0
   -4.2420   13.9960   -4.0340 C   0  0  0  0  0  0  0  0  0  0  0  0
    1.2460   12.4170   -2.7960 C   0  0  2  0  0  0  0  0  0  0  0  0
   -4.2670   14.8640   -2.7540 C   0  0  1  0  0  0  0  0  0  0  0  0
    0.4880   11.3660   -2.5270 O   0  0  0  0  0  0  0  0  0  0  0  0
    0.5830   13.4240   -2.0650 O   0  0  0  0  0  0  0  0  0  0  0  0
   -5.5680   14.6220   -2.0860 N   0  0  0  0  0  0  0  0  0  0  0  0
   -3.0120   14.5800   -1.8640 C   0  0  0  0  0  0  0  0  0  0  0  0
   -5.6180   15.2100   -0.7290 C   0  0  1  0  0  0  0  0  0  0  0  0
   -3.0860   15.0270   -0.4690 N   0  0  0  0  0  0  0  0  0  0  0  0
   -6.9700   14.8850   -0.0200 C   0  0  2  0  0  0  0  0  0  0  0  0
   -4.4050   14.7470    0.1160 C   0  0  0  0  0  0  0  0  0  0  0  0
   -6.8060   14.6610    1.4080 N   0  0  0  0  0  0  0  0  0  0  0  0
   -7.6090   13.7530   -0.5480 O   0  0  0  0  0  0  0  0  0  0  0  0
  2  1  1  6
  2  3  1  0
  2  4  1  0
  3  5  1  6
  3  6  1  0
  4  7  1  0
  5  8  1  0
  6  9  1  0
  7  9  1  0
  9 10  1  1
  8 11  1  0
 10 12  1  0
 13 11  1  6
 12 14  1  6
 12 15  1  0
 13 16  1  0
 13 17  1  0
 16 18  1  0
 17 19  1  0
 18 20  1  0
 18 21  1  1
 19 21  1  0
 20 22  1  1
 20 23  1  0
M  CHG  1  14  -1
M  END
