ucsf519-ucsf258
     RDKit          3D

 15 15  0  0  0  0  0  0  0  0999 V2000
    0.0520   16.0000   -4.6090 C   0  0  0  0  0  0  0  0  0  0  0  0
   -0.7460   14.8270   -4.0170 C   0  0  2  0  0  0  0  0  0  0  0  0
   -0.4780   13.3550   -5.1310 S   0  0  0  0  0  0  0  0  0  0  0  0
   -2.2400   15.1570   -3.6510 C   0  0  1  0  0  0  0  0  0  0  0  0
    0.6250   12.1660   -4.2070 C   0  0  0  0  0  0  0  0  0  0  0  0
   -3.1400   14.3130   -4.3640 O   0  0  0  0  0  0  0  0  0  0  0  0
   -2.5700   15.2080   -2.2110 N   0  0  0  0  0  0  0  0  0  0  0  0
    0.4170   11.7420   -2.7150 C   0  0  2  0  0  0  0  0  0  0  0  0
   -3.9600   15.0360   -1.8150 C   0  0  0  0  0  0  0  0  0  0  0  0
   -1.7860   14.5160   -1.2240 C   0  0  1  0  0  0  0  0  0  0  0  0
    1.4290   12.3240   -1.9360 O   0  0  0  0  0  0  0  0  0  0  0  0
    0.5200   10.4340   -2.4720 O   0  0  0  0  0  0  0  0  0  0  0  0
   -0.4670   14.9500   -1.0730 O   0  0  0  0  0  0  0  0  0  0  0  0
   -3.8780   15.1000   -0.2920 C   0  0  0  0  0  0  0  0  0  0  0  0
   -2.4980   14.7100    0.0390 N   0  0  0  0  0  0  0  0  0  0  0  0
  2  1  1  6
  2  3  1  0
  2  4  1  0
  3  5  1  0
  4  6  1  6
  4  7  1  0
  5  8  1  0
  7  9  1  0
  7 10  1  0
  8 11  1  1
  8 12  1  0
 10 13  1  1
  9 14  1  0
 10 15  1  0
 14 15  1  0
M  CHG  1  12  -1
M  END
