ucsf364-ucsf147
     RDKit          3D

 22 25  0  0  0  0  0  0  0  0999 V2000
    1.3330   13.7460   -5.0540 C   0  0  0  0  0  0  0  0  0  0  0  0
    1.1130   12.2720   -4.8790 C   0  0  2  0  0  0  0  0  0  0  0  0
    0.6710   11.5360   -6.1500 C   0  0  2  0  0  0  0  0  0  0  0  0
    0.1030   14.5290   -4.6710 C   0  0  1  0  0  0  0  0  0  0  0  0
    0.1680   11.9050   -3.7030 C   0  0  1  0  0  0  0  0  0  0  0  0
   -0.9350   14.0710   -5.5650 O   0  0  0  0  0  0  0  0  0  0  0  0
   -0.4360   14.3250   -3.2690 C   0  0  2  0  0  0  0  0  0  0  0  0
    1.6460   11.5550   -7.1850 O   0  0  0  0  0  0  0  0  0  0  0  0
    0.1060   13.0210   -2.6430 C   0  0  1  0  0  0  0  0  0  0  0  0
   -1.2690   11.4510   -4.1180 C   0  0  0  0  0  0  0  0  0  0  0  0
   -0.6940   11.9240   -6.6220 C   0  0  0  0  0  0  0  0  0  0  0  0
   -2.2230   14.0780   -4.8680 N   0  0  0  0  0  0  0  0  0  0  0  0
   -1.9250   14.6150   -3.5300 C   0  0  1  0  0  0  0  0  0  0  0  0
   -0.5860   12.6120   -1.4910 O   0  0  0  0  0  0  0  0  0  0  0  0
    1.3080   13.1740   -2.1240 O   0  0  0  0  0  0  0  0  0  0  0  0
   -1.7010   11.4140   -5.6090 C   0  0  0  0  0  0  0  0  0  0  0  0
   -3.0200   14.2720   -2.5190 C   0  0  0  0  0  0  0  0  0  0  0  0
   -2.5060   14.3230   -1.0560 C   0  0  0  0  0  0  0  0  0  0  0  0
   -4.2050   15.2250   -2.7640 C   0  0  0  0  0  0  0  0  0  0  0  0
   -3.0560   15.4890   -0.2600 C   0  0  0  0  0  0  0  0  0  0  0  0
   -5.2130   15.2720   -1.6360 C   0  0  0  0  0  0  0  0  0  0  0  0
   -4.5790   15.5400   -0.2720 C   0  0  0  0  0  0  0  0  0  0  0  0
  2  1  1  6
  2  3  1  0
  4  1  1  1
  2  5  1  0
  4  6  1  0
  4  7  1  0
  3  8  1  6
  5  9  1  0
  7  9  1  0
  5 10  1  6
  3 11  1  0
  6 12  1  0
  7 13  1  6
 12 13  1  0
  9 14  1  1
  9 15  1  0
 10 16  1  0
 11 16  1  0
 13 17  1  1
 17 18  1  0
 17 19  1  0
 18 20  1  0
 19 21  1  0
 20 22  1  0
 21 22  1  0
M  CHG  1  15  -1
M  END
