ucsf487-ucsf380
     RDKit          3D

 21 23  0  0  0  0  0  0  0  0999 V2000
   -7.5370   13.5100    2.7560 N   0  0  0  0  0  0  0  0  0  0  0  0
   -7.0370   14.4440    1.7430 C   0  0  2  0  0  0  0  0  0  0  0  0
   -7.7330   14.1780    0.4010 C   0  0  0  0  0  0  0  0  0  0  0  0
   -5.5030   14.3670    1.5500 C   0  0  0  0  0  0  0  0  0  0  0  0
   -5.1010   14.2800    0.0660 C   0  0  1  0  0  0  0  0  0  0  0  0
   -7.3570   15.1850   -0.5960 N   0  0  0  0  0  0  0  0  0  0  0  0
   -5.8950   15.2580   -0.7950 C   0  0  2  0  0  0  0  0  0  0  0  0
   -3.5710   14.4510   -0.1370 C   0  0  0  0  0  0  0  0  0  0  0  0
   -5.6440   14.9540   -2.2590 C   0  0  0  0  0  0  0  0  0  0  0  0
   -3.1100   14.8990   -1.5590 C   0  0  1  0  0  0  0  0  0  0  0  0
   -1.7080   14.3620   -2.1430 C   0  0  1  0  0  0  0  0  0  0  0  0
   -4.1770   14.8770   -2.6750 C   0  0  0  0  0  0  0  0  0  0  0  0
   -0.5130   14.1340   -1.1210 C   0  0  2  0  0  0  0  0  0  0  0  0
   -1.8920   13.2490   -3.2490 C   0  0  0  0  0  0  0  0  0  0  0  0
    0.5130   14.8880   -1.4890 O   0  0  0  0  0  0  0  0  0  0  0  0
    0.0720   12.8440   -1.2620 O   0  0  0  0  0  0  0  0  0  0  0  0
   -2.5490   11.9350   -2.8140 C   0  0  0  0  0  0  0  0  0  0  0  0
   -0.6660   12.9820   -4.1560 C   0  0  0  0  0  0  0  0  0  0  0  0
   -2.9860   11.1390   -4.0410 C   0  0  0  0  0  0  0  0  0  0  0  0
   -1.0320   12.1690   -5.3920 C   0  0  0  0  0  0  0  0  0  0  0  0
   -1.8570   10.9240   -5.0580 C   0  0  0  0  0  0  0  0  0  0  0  0
  2  1  1  1
  2  3  1  0
  2  4  1  0
  5  4  1  1
  3  6  1  0
  5  7  1  0
  6  7  1  0
  5  8  1  0
  7  9  1  6
 10  8  1  1
 10 11  1  0
  9 12  1  0
 10 12  1  0
 11 13  1  0
 11 14  1  1
 13 15  1  6
 13 16  1  0
 14 17  1  0
 14 18  1  0
 17 19  1  0
 18 20  1  0
 19 21  1  0
 20 21  1  0
M  CHG  1  15  -1
M  END
