ucsf012-ucsf016
     RDKit          3D

 25 29  0  0  0  0  0  0  0  0999 V2000
   -4.2310   14.2320   -4.0110 C   0  0  0  0  0  0  0  0  0  0  0  0
   -3.7690   13.7740   -2.6230 C   0  0  2  0  0  0  0  0  0  0  0  0
   -3.7600   14.9560   -1.6400 C   0  0  1  0  0  0  0  0  0  0  0  0
   -2.3670   13.1980   -2.5850 N   0  0  0  0  0  0  0  0  0  0  0  0
   -5.1370   15.4540   -1.2260 C   0  0  0  0  0  0  0  0  0  0  0  0
   -1.6750   13.2690   -3.8830 C   0  0  0  0  0  0  0  0  0  0  0  0
   -2.8580   14.3670   -0.5730 C   0  0  1  0  0  0  0  0  0  0  0  0
   -1.6850   13.8980   -1.4660 C   0  0  2  0  0  0  0  0  0  0  0  0
   -2.4470   15.2980    0.5580 C   0  0  1  0  0  0  0  0  0  0  0  0
   -0.5460   14.9690   -1.6820 C   0  0  1  0  0  0  0  0  0  0  0  0
   -0.3220   12.5210   -3.9920 C   0  0  1  0  0  0  0  0  0  0  0  0
   -3.1520   14.9860    1.7750 N   0  0  0  0  0  0  0  0  0  0  0  0
   -1.0560   15.2040    0.8470 N   0  0  0  0  0  0  0  0  0  0  0  0
   -0.2460   15.6290   -0.2820 C   0  0  0  0  0  0  0  0  0  0  0  0
    0.3210   11.9510   -2.7340 C   0  0  0  0  0  0  0  0  0  0  0  0
   -0.5000   11.4070   -4.8740 O   0  0  0  0  0  0  0  0  0  0  0  0
    0.7590   14.4080   -2.3460 C   0  0  0  0  0  0  0  0  0  0  0  0
   -1.1060   16.0510   -2.6930 C   0  0  0  0  0  0  0  0  0  0  0  0
   -0.6870   10.2440   -4.0770 C   0  0  0  0  0  0  0  0  0  0  0  0
   -0.2020   10.5470   -2.6760 C   0  0  0  0  0  0  0  0  0  0  0  0
   -1.2270   15.6420   -4.1710 C   0  0  0  0  0  0  0  0  0  0  0  0
    1.1540   14.8640   -3.7760 C   0  0  0  0  0  0  0  0  0  0  0  0
   -2.5760   15.2630   -4.7670 C   0  0  0  0  0  0  0  0  0  0  0  0
   -2.0060   16.6060   -5.0510 C   0  0  0  0  0  0  0  0  0  0  0  0
    0.0270   15.0610   -4.7950 C   0  0  0  0  0  0  0  0  0  0  0  0
  2  1  1  6
  2  3  1  0
  2  4  1  0
  3  5  1  1
  4  6  1  0
  3  7  1  0
  8  4  1  6
  7  8  1  0
  7  9  1  1
  8 10  1  0
 11  6  1  1
  9 12  1  1
  9 13  1  0
 10 14  1  1
 13 14  1  0
 11 15  1  0
 11 16  1  0
 10 17  1  0
 10 18  1  0
 16 19  1  0
 15 20  1  0
 19 20  1  0
 21 18  1  0
 17 22  1  0
 21 23  1  0
 21 24  1  0
 23 24  1  0
 21 25  1  0
 22 25  1  0
M  END
