ucsf110-ucsf336
     RDKit          3D

 25 27  0  0  0  0  0  0  0  0999 V2000
   -0.2750   15.7800   -3.3560 C   0  0  0  0  0  0  0  0  0  0  0  0
   -1.3740   14.8200   -2.8210 C   0  0  1  0  0  0  0  0  0  0  0  0
   -2.8500   15.2880   -2.9560 C   0  0  0  0  0  0  0  0  0  0  0  0
   -1.1730   13.6910   -3.8120 C   0  0  0  0  0  0  0  0  0  0  0  0
   -1.1600   14.4390   -1.3110 C   0  0  2  0  0  0  0  0  0  0  0  0
    0.1570   13.9310   -4.4960 C   0  0  0  0  0  0  0  0  0  0  0  0
   -3.4790   15.3220   -1.5540 C   0  0  0  0  0  0  0  0  0  0  0  0
   -2.5840   14.4560   -0.6580 C   0  0  2  0  0  0  0  0  0  0  0  0
   -0.2340   15.2690   -0.5470 N   0  0  0  0  0  0  0  0  0  0  0  0
    1.1020   13.7470   -3.4450 O   0  0  0  0  0  0  0  0  0  0  0  0
   -2.5830   14.6480    0.8730 C   0  0  2  0  0  0  0  0  0  0  0  0
   -0.2150   14.8490    0.8270 C   0  0  0  0  0  0  0  0  0  0  0  0
   -3.7470   15.3240    1.4020 N   0  0  0  0  0  0  0  0  0  0  0  0
    1.5660   12.4260   -3.5760 C   0  0  2  0  0  0  0  0  0  0  0  0
   -1.4450   15.3420    1.3960 N   0  0  0  0  0  0  0  0  0  0  0  0
    2.3820   12.5150   -4.6120 O   0  0  0  0  0  0  0  0  0  0  0  0
    0.2500   11.5930   -3.9730 C   0  0  2  0  0  0  0  0  0  0  0  0
    0.2390   10.3450   -3.2850 O   0  0  0  0  0  0  0  0  0  0  0  0
    0.1920   11.4270   -5.4340 N   0  0  0  0  0  0  0  0  0  0  0  0
   -0.5290   10.2460   -5.9210 C   0  0  0  0  0  0  0  0  0  0  0  0
   -0.5230   10.1710   -7.4520 C   0  0  0  0  0  0  0  0  0  0  0  0
   -1.9640   10.2610   -5.3840 C   0  0  0  0  0  0  0  0  0  0  0  0
   -1.3090    8.9840   -8.0190 C   0  0  0  0  0  0  0  0  0  0  0  0
   -2.9960    9.4980   -6.2090 C   0  0  0  0  0  0  0  0  0  0  0  0
   -2.3720    8.4230   -7.0750 C   0  0  0  0  0  0  0  0  0  0  0  0
  2  1  1  6
  2  3  1  0
  2  4  1  0
  2  5  1  0
  4  6  1  0
  3  7  1  0
  5  8  1  0
  8  7  1  6
  5  9  1  1
  6 10  1  0
  8 11  1  0
  9 12  1  0
 11 13  1  6
 10 14  1  0
 11 15  1  0
 12 15  1  0
 14 16  1  6
 14 17  1  0
 17 18  1  1
 17 19  1  0
 19 20  1  0
 20 21  1  0
 20 22  1  0
 21 23  1  0
 22 24  1  0
 23 25  1  0
 24 25  1  0
M  CHG  1  16  -1
M  END
