ucsf520-ucsf378
     RDKit          3D

 21 23  0  0  0  0  0  0  0  0999 V2000
   -4.5780   15.5470    1.3040 N   0  0  0  0  0  0  0  0  0  0  0  0
   -3.7290   14.7560    0.4280 C   0  0  2  0  0  0  0  0  0  0  0  0
   -2.2570   15.1270    0.4580 C   0  0  2  0  0  0  0  0  0  0  0  0
   -4.2800   14.9100   -0.8950 N   0  0  0  0  0  0  0  0  0  0  0  0
   -3.2930   15.3000   -1.9280 C   0  0  0  0  0  0  0  0  0  0  0  0
   -1.6070   14.2330   -0.5560 C   0  0  1  0  0  0  0  0  0  0  0  0
   -1.4690   14.8200    1.6590 N   0  0  0  0  0  0  0  0  0  0  0  0
   -2.0610   14.4970   -1.8950 N   0  0  0  0  0  0  0  0  0  0  0  0
   -0.2240   14.5570   -0.2840 N   0  0  0  0  0  0  0  0  0  0  0  0
   -0.1270   14.5300    1.1440 C   0  0  0  0  0  0  0  0  0  0  0  0
   -0.9680   15.1410   -2.6170 C   0  0  0  0  0  0  0  0  0  0  0  0
   -0.3300   14.3610   -3.7910 C   0  0  1  0  0  0  0  0  0  0  0  0
   -0.3820   12.7500   -3.7040 C   0  0  0  0  0  0  0  0  0  0  0  0
   -1.0570   14.9980   -4.9080 O   0  0  0  0  0  0  0  0  0  0  0  0
    1.1220   14.8840   -3.9920 C   0  0  1  0  0  0  0  0  0  0  0  0
    2.2610   13.5730   -4.5520 Cl  0  0  0  0  0  0  0  0  0  0  0  0
    0.3190   11.8550   -2.5780 C   0  0  1  0  0  0  0  0  0  0  0  0
    0.9930   16.0460   -4.9900 C   0  0  0  0  0  0  0  0  0  0  0  0
   -0.4880   16.3000   -5.0370 C   0  0  0  0  0  0  0  0  0  0  0  0
   -0.0440   12.1350   -1.3430 O   0  0  0  0  0  0  0  0  0  0  0  0
   -0.0180   10.4690   -2.6340 O   0  0  0  0  0  0  0  0  0  0  0  0
  2  1  1  1
  2  3  1  0
  2  4  1  0
  4  5  1  0
  3  6  1  0
  3  7  1  1
  5  8  1  0
  6  8  1  0
  6  9  1  6
  7 10  1  0
  9 10  1  0
  8 11  1  0
 12 11  1  1
 12 13  1  0
 12 14  1  0
 12 15  1  0
 15 16  1  6
 13 17  1  0
 15 18  1  0
 14 19  1  0
 18 19  1  0
 17 20  1  1
 17 21  1  0
M  CHG  1  20  -1
M  END
