ucsf013-ucsf487
     RDKit          3D

 12 13  0  0  0  0  0  0  0  0999 V2000
   -4.3040   13.9890    1.7070 N   0  0  0  0  0  0  0  0  0  0  0  0
   -5.3180   14.8810    1.1870 C   0  0  2  0  0  0  0  0  0  0  0  0
   -6.6690   14.3100    1.4570 N   0  0  0  0  0  0  0  0  0  0  0  0
   -4.9800   15.3450   -0.2450 C   0  0  2  0  0  0  0  0  0  0  0  0
   -7.1830   14.5320    2.8290 N   0  0  0  0  0  0  0  0  0  0  0  0
   -6.0900   15.1870   -1.3040 C   0  0  2  0  0  0  0  0  0  0  0  0
   -7.7030   14.5880    0.4630 C   0  0  0  0  0  0  0  0  0  0  0  0
   -3.6310   14.8180   -0.7070 C   0  0  0  0  0  0  0  0  0  0  0  0
   -7.2240   14.3690   -0.8770 N   0  0  0  0  0  0  0  0  0  0  0  0
   -5.6960   14.6730   -2.7090 C   0  0  0  0  0  0  0  0  0  0  0  0
   -3.3040   15.2940   -2.0910 C   0  0  0  0  0  0  0  0  0  0  0  0
   -4.2250   14.7300   -3.1300 C   0  0  0  0  0  0  0  0  0  0  0  0
  2  1  1  6
  2  3  1  0
  2  4  1  0
  3  5  1  0
  4  6  1  0
  3  7  1  0
  4  8  1  6
  6  9  1  0
  7  9  1  0
  6 10  1  6
  8 11  1  0
 10 12  1  0
 11 12  1  0
M  END
