ucsf371-ucsf190
     RDKit          3D

 24 26  0  0  0  0  0  0  0  0999 V2000
   -5.1860   14.7890    0.9570 C   0  0  0  0  0  0  0  0  0  0  0  0
   -4.4680   15.3020   -0.2760 C   0  0  2  0  0  0  0  0  0  0  0  0
   -5.0180   14.7480   -1.5270 N   0  0  0  0  0  0  0  0  0  0  0  0
   -2.7170   14.9210   -0.2200 S   0  0  0  0  0  0  0  0  0  0  0  0
   -3.9530   14.8460   -2.5630 C   0  0  0  0  0  0  0  0  0  0  0  0
   -2.6960   15.4700   -1.9540 C   0  0  2  0  0  0  0  0  0  0  0  0
   -1.4760   15.3520   -2.8590 C   0  0  1  0  0  0  0  0  0  0  0  0
   -1.8100   16.3730   -3.8110 O   0  0  0  0  0  0  0  0  0  0  0  0
   -0.3500   15.5960   -2.2030 O   0  0  0  0  0  0  0  0  0  0  0  0
   -1.6080   16.0030   -5.1350 C   0  0  1  0  0  0  0  0  0  0  0  0
   -0.1710   15.4870   -5.1940 C   0  0  2  0  0  0  0  0  0  0  0  0
   -2.7420   15.0130   -5.5120 C   0  0  0  0  0  0  0  0  0  0  0  0
    0.0610   13.9600   -5.0620 C   0  0  1  0  0  0  0  0  0  0  0  0
    0.7300   16.3020   -4.2610 C   0  0  2  0  0  0  0  0  0  0  0  0
   -2.3570   13.5560   -5.7610 C   0  0  0  0  0  0  0  0  0  0  0  0
    0.8710   17.5990   -4.8430 O   0  0  0  0  0  0  0  0  0  0  0  0
    1.0220   13.7040   -3.9010 C   0  0  1  0  0  0  0  0  0  0  0  0
    2.0970   15.8100   -4.0670 N   0  0  0  0  0  0  0  0  0  0  0  0
   -1.1940   13.0810   -4.9220 C   0  0  0  0  0  0  0  0  0  0  0  0
    1.2350   12.1910   -3.6750 C   0  0  0  0  0  0  0  0  0  0  0  0
    2.2820   14.3650   -4.2380 N   0  0  0  0  0  0  0  0  0  0  0  0
    0.3400   11.5450   -2.5710 C   0  0  1  0  0  0  0  0  0  0  0  0
    0.6550   10.2950   -2.2980 O   0  0  0  0  0  0  0  0  0  0  0  0
    0.5490   12.1930   -1.3380 O   0  0  0  0  0  0  0  0  0  0  0  0
  2  1  1  1
  2  3  1  0
  2  4  1  0
  3  5  1  0
  4  6  1  0
  6  5  1  6
  6  7  1  0
  7  8  1  0
  7  9  1  1
 10  8  1  1
 11 10  1  1
 10 12  1  0
 11 13  1  0
 11 14  1  0
 12 15  1  0
 14 16  1  6
 13 17  1  0
 14 18  1  0
 13 19  1  1
 15 19  1  0
 17 20  1  6
 17 21  1  0
 18 21  1  0
 20 22  1  0
 22 23  1  1
 22 24  1  0
M  CHG  2   9  -1  23  -1
M  END
