ucsf005-ucsf422
     RDKit          3D

 27 30  0  0  0  0  0  0  0  0999 V2000
   -1.1590   14.7150   -3.0310 C   0  0  0  0  0  0  0  0  0  0  0  0
   -2.2900   15.0560   -2.2230 N   0  0  0  0  0  0  0  0  0  0  0  0
   -3.5380   14.4210   -2.6240 C   0  0  2  0  0  0  0  0  0  0  0  0
   -2.1840   14.4920   -0.9270 C   0  0  2  0  0  0  0  0  0  0  0  0
   -4.1420   14.8280   -3.9920 C   0  0  0  0  0  0  0  0  0  0  0  0
   -4.4400   14.6960   -1.4600 N   0  0  0  0  0  0  0  0  0  0  0  0
   -3.4700   15.0460   -0.3910 C   0  0  1  0  0  0  0  0  0  0  0  0
   -1.0130   14.8700   -0.1790 N   0  0  0  0  0  0  0  0  0  0  0  0
   -3.5800   16.0470   -4.5220 O   0  0  0  0  0  0  0  0  0  0  0  0
   -3.5780   14.5420    1.0410 C   0  0  2  0  0  0  0  0  0  0  0  0
   -1.1600   14.1360    1.0120 C   0  0  1  0  0  0  0  0  0  0  0  0
   -4.4990   15.3720    1.7900 N   0  0  0  0  0  0  0  0  0  0  0  0
   -0.0240   14.3060    1.8560 N   0  0  0  0  0  0  0  0  0  0  0  0
   -2.3050   14.6190    1.7650 N   0  0  0  0  0  0  0  0  0  0  0  0
   -2.5650   15.9440   -5.5180 C   0  0  1  0  0  0  0  0  0  0  0  0
   -1.9030   17.3490   -5.5430 C   0  0  0  0  0  0  0  0  0  0  0  0
   -1.6710   14.7000   -5.2690 C   0  0  0  0  0  0  0  0  0  0  0  0
   -0.1530   14.9400   -5.2150 C   0  0  2  0  0  0  0  0  0  0  0  0
   -0.3840   17.4330   -5.6240 C   0  0  0  0  0  0  0  0  0  0  0  0
    0.6440   14.1710   -4.1940 C   0  0  1  0  0  0  0  0  0  0  0  0
    0.2410   16.3440   -4.7860 C   0  0  2  0  0  0  0  0  0  0  0  0
    0.8750   12.6700   -4.3980 C   0  0  0  0  0  0  0  0  0  0  0  0
    1.9530   14.9620   -4.1550 C   0  0  0  0  0  0  0  0  0  0  0  0
    1.6730   16.2090   -4.8950 N   0  0  0  0  0  0  0  0  0  0  0  0
    1.2350   11.9900   -3.0720 C   0  0  2  0  0  0  0  0  0  0  0  0
    0.4150   10.9880   -2.7990 O   0  0  0  0  0  0  0  0  0  0  0  0
    0.9290   12.8680   -2.0200 O   0  0  0  0  0  0  0  0  0  0  0  0
  1  2  1  0
  2  3  1  0
  2  4  1  0
  3  5  1  6
  3  6  1  0
  4  7  1  0
  7  6  1  6
  4  8  1  1
  5  9  1  0
  7 10  1  0
  8 11  1  0
 10 12  1  1
 11 13  1  1
 10 14  1  0
 11 14  1  0
 15  9  1  1
 15 16  1  0
 15 17  1  0
 18 17  1  1
 16 19  1  0
 18 20  1  0
 18 21  1  0
 21 19  1  6
 20 22  1  6
 20 23  1  0
 21 24  1  0
 23 24  1  0
 22 25  1  0
 25 26  1  1
 25 27  1  0
M  CHG  1  26  -1
M  END
