ucsf520-ucsf247
     RDKit          3D

 29 32  0  0  0  0  0  0  0  0999 V2000
   -4.1820   15.7180    1.7650 N   0  0  0  0  0  0  0  0  0  0  0  0
   -3.4820   15.1230    0.6360 C   0  0  2  0  0  0  0  0  0  0  0  0
   -1.9740   15.0750    0.7090 C   0  0  2  0  0  0  0  0  0  0  0  0
   -3.7580   15.9910   -0.4470 N   0  0  0  0  0  0  0  0  0  0  0  0
   -3.0970   15.5440   -1.6960 C   0  0  0  0  0  0  0  0  0  0  0  0
   -1.5490   14.2640   -0.5030 C   0  0  1  0  0  0  0  0  0  0  0  0
   -1.4000   14.3780    1.8110 N   0  0  0  0  0  0  0  0  0  0  0  0
   -1.6720   15.1930   -1.6190 N   0  0  0  0  0  0  0  0  0  0  0  0
   -0.2550   13.7640   -0.1120 N   0  0  0  0  0  0  0  0  0  0  0  0
   -0.0970   14.1040    1.2810 C   0  0  0  0  0  0  0  0  0  0  0  0
   -1.1180   14.7330   -2.9470 C   0  0  1  0  0  0  0  0  0  0  0  0
    0.1800   13.6530   -2.8630 C   0  0  2  0  0  0  0  0  0  0  0  0
   -2.2900   14.1050   -3.6750 N   0  0  0  0  0  0  0  0  0  0  0  0
   -0.5820   16.0560   -3.7450 C   0  0  2  0  0  0  0  0  0  0  0  0
    0.3560   13.0150   -1.7010 O   0  0  0  0  0  0  0  0  0  0  0  0
    1.4600   14.2670   -2.9900 O   0  0  0  0  0  0  0  0  0  0  0  0
   -3.6460   14.6450   -3.5430 C   0  0  1  0  0  0  0  0  0  0  0  0
   -1.5720   16.8870   -4.4030 O   0  0  0  0  0  0  0  0  0  0  0  0
    0.4580   15.9310   -4.8630 C   0  0  0  0  0  0  0  0  0  0  0  0
   -4.4630   13.9000   -4.4250 O   0  0  0  0  0  0  0  0  0  0  0  0
    0.5230   17.3490   -5.3980 C   0  0  0  0  0  0  0  0  0  0  0  0
   -0.8440   17.9240   -5.0640 C   0  0  0  0  0  0  0  0  0  0  0  0
   -4.3610   14.4940   -2.1320 C   0  0  1  0  0  0  0  0  0  0  0  0
   -5.7720   15.1150   -2.0330 C   0  0  0  0  0  0  0  0  0  0  0  0
   -4.4220   13.0290   -1.6050 C   0  0  0  0  0  0  0  0  0  0  0  0
   -6.7090   14.3630   -1.0840 C   0  0  2  0  0  0  0  0  0  0  0  0
   -4.8910   12.9120   -0.1410 C   0  0  0  0  0  0  0  0  0  0  0  0
   -7.7900   15.2230   -0.7360 O   0  0  0  0  0  0  0  0  0  0  0  0
   -5.9860   13.9230    0.1850 C   0  0  0  0  0  0  0  0  0  0  0  0
  2  1  1  1
  2  3  1  0
  2  4  1  0
  4  5  1  0
  3  6  1  0
  3  7  1  1
  5  8  1  0
  6  8  1  0
  6  9  1  1
  7 10  1  0
  9 10  1  0
  8 11  1  0
 11 12  1  0
 11 13  1  6
 11 14  1  0
 12 15  1  1
 12 16  1  0
 13 17  1  0
 14 18  1  0
 14 19  1  6
 17 20  1  6
 19 21  1  0
 18 22  1  0
 21 22  1  0
 17 23  1  0
 23 24  1  6
 23 25  1  0
 24 26  1  0
 25 27  1  0
 26 28  1  1
 26 29  1  0
 27 29  1  0
M  CHG  1  15  -1
M  END
