ucsf012-ucsf511
     RDKit          3D

 27 31  0  0  0  0  0  0  0  0999 V2000
   -3.3630   15.3110   -4.7790 C   0  0  0  0  0  0  0  0  0  0  0  0
   -3.0790   14.5740   -3.0220 S   0  0  0  0  0  0  0  0  0  0  0  0
   -3.6480   14.3450   -1.2750 C   0  0  1  0  0  0  0  0  0  0  0  0
   -1.4640   14.3810   -2.1780 C   0  0  2  0  0  0  0  0  0  0  0  0
   -1.6750   13.8290   -3.7740 N   0  0  0  0  0  0  0  0  0  0  0  0
   -4.2630   15.6450   -2.3550 C   0  0  0  0  0  0  0  0  0  0  0  0
   -4.4390   13.1290   -0.8860 C   0  0  0  0  0  0  0  0  0  0  0  0
   -1.9330   12.9960   -2.0540 C   0  0  0  0  0  0  0  0  0  0  0  0
   -2.5820   14.4720   -0.2820 C   0  0  1  0  0  0  0  0  0  0  0  0
   -1.2630   14.4120   -0.7490 C   0  0  2  0  0  0  0  0  0  0  0  0
   -0.1470   14.5170   -2.7010 C   0  0  2  0  0  0  0  0  0  0  0  0
   -0.8500   14.3460   -4.7210 C   0  0  0  0  0  0  0  0  0  0  0  0
   -5.6770   15.1300   -2.3310 C   0  0  0  0  0  0  0  0  0  0  0  0
   -4.5370   15.3890   -0.5520 C   0  0  0  0  0  0  0  0  0  0  0  0
    0.7170   15.2270   -1.8590 O   0  0  0  0  0  0  0  0  0  0  0  0
   -2.6450   15.2770    0.9380 C   0  0  1  0  0  0  0  0  0  0  0  0
   -0.3060   15.1030   -0.0620 N   0  0  0  0  0  0  0  0  0  0  0  0
   -1.3110   11.9130   -2.6630 C   0  0  2  0  0  0  0  0  0  0  0  0
    0.1960   14.8650   -3.9930 N   0  0  0  0  0  0  0  0  0  0  0  0
   -5.9870   15.4080   -0.9610 C   0  0  0  0  0  0  0  0  0  0  0  0
   -3.9470   15.2940    1.6400 N   0  0  0  0  0  0  0  0  0  0  0  0
   -1.7030   14.5440    1.8110 N   0  0  0  0  0  0  0  0  0  0  0  0
   -0.3640   14.4500    1.2460 C   0  0  0  0  0  0  0  0  0  0  0  0
    0.1450   12.2420   -2.3290 C   0  0  0  0  0  0  0  0  0  0  0  0
   -1.1130   11.9600   -4.0680 O   0  0  0  0  0  0  0  0  0  0  0  0
   -0.1680   10.9810   -4.2760 C   0  0  0  0  0  0  0  0  0  0  0  0
    0.7690   11.2280   -3.1040 C   0  0  0  0  0  0  0  0  0  0  0  0
  1  2  1  0
  2  3  1  0
  2  4  1  0
  2  5  1  0
  2  6  1  0
  3  7  1  6
  4  8  1  1
  3  9  1  0
  4 10  1  0
  9 10  1  0
  4 11  1  0
  5 12  1  0
  6 13  1  0
  3 14  1  0
 11 15  1  1
  9 16  1  6
 10 17  1  6
 18  8  1  1
 11 19  1  0
 12 19  1  0
 13 20  1  0
 14 20  1  0
 16 21  1  1
 16 22  1  0
 17 23  1  0
 22 23  1  0
 18 24  1  0
 18 25  1  0
 25 26  1  0
 24 27  1  0
 26 27  1  0
M  END
