ucsf403-ucsf248
     RDKit          3D

 28 30  0  0  0  0  0  0  0  0999 V2000
    0.6560    9.3570   -7.7500 Cl  0  0  0  0  0  0  0  0  0  0  0  0
   -0.4310    9.2230   -6.3150 C   0  0  1  0  0  0  0  0  0  0  0  0
   -0.4250   10.4980   -5.3950 C   0  0  1  0  0  0  0  0  0  0  0  0
   -1.7980    8.7630   -6.8250 C   0  0  0  0  0  0  0  0  0  0  0  0
    0.4860   11.4760   -5.9000 O   0  0  0  0  0  0  0  0  0  0  0  0
   -1.8000   11.1120   -4.9270 C   0  0  1  0  0  0  0  0  0  0  0  0
   -2.9730    9.1360   -5.9430 C   0  0  0  0  0  0  0  0  0  0  0  0
   -1.8460   12.6520   -4.6920 C   0  0  0  0  0  0  0  0  0  0  0  0
    0.9640   12.5060   -4.9970 C   0  0  0  0  0  0  0  0  0  0  0  0
   -3.0170   10.6300   -5.7220 C   0  0  0  0  0  0  0  0  0  0  0  0
    1.3320   12.1080   -3.5140 C   0  0  2  0  0  0  0  0  0  0  0  0
   -2.7580   13.0730   -3.5180 C   0  0  0  0  0  0  0  0  0  0  0  0
    0.6330   11.1370   -2.9860 O   0  0  0  0  0  0  0  0  0  0  0  0
    0.8440   13.0930   -2.6710 O   0  0  0  0  0  0  0  0  0  0  0  0
   -3.3050   14.5130   -3.6150 C   0  0  0  0  0  0  0  0  0  0  0  0
   -3.7990   15.1440   -2.2860 C   0  0  2  0  0  0  0  0  0  0  0  0
   -2.9750   14.7710   -1.0270 C   0  0  0  0  0  0  0  0  0  0  0  0
   -5.3260   14.9120   -2.0830 C   0  0  0  0  0  0  0  0  0  0  0  0
   -5.8260   15.2810   -0.6940 C   0  0  2  0  0  0  0  0  0  0  0  0
   -3.5640   15.1830    0.3270 C   0  0  0  0  0  0  0  0  0  0  0  0
   -4.9760   14.6670    0.3790 C   0  0  1  0  0  0  0  0  0  0  0  0
   -7.1700   14.7790   -0.3010 N   0  0  0  0  0  0  0  0  0  0  0  0
   -6.9590   14.2600    1.0710 C   0  0  1  0  0  0  0  0  0  0  0  0
   -5.7720   14.9430    1.5600 N   0  0  0  0  0  0  0  0  0  0  0  0
   -8.4040   14.3960    2.1610 S   0  0  0  0  0  0  0  0  0  0  0  0
   -8.8630   13.0010    2.9140 N   0  0  0  0  0  0  0  0  0  0  0  0
   -8.0700   15.5290    3.2330 O   0  0  0  0  0  0  0  0  0  0  0  0
   -9.5770   14.9340    1.2090 O   0  0  0  0  0  0  0  0  0  0  0  0
  2  1  1  6
  2  3  1  0
  2  4  1  0
  3  5  1  6
  3  6  1  0
  4  7  1  0
  6  8  1  6
  5  9  1  0
  6 10  1  0
  7 10  1  0
  9 11  1  0
  8 12  1  0
 11 13  1  1
 11 14  1  0
 12 15  1  0
 16 15  1  6
 16 17  1  0
 16 18  1  0
 19 18  1  6
 17 20  1  0
 19 21  1  0
 21 20  1  1
 19 22  1  0
 22 23  1  0
 21 24  1  0
 23 24  1  0
 23 25  1  1
 25 26  1  0
 25 27  1  0
 25 28  1  0
M  CHG  1  13  -1
M  END
