ucsf258-ucsf584
     RDKit          3D

 14 15  0  0  0  0  0  0  0  0999 V2000
    0.2690   13.8530   -1.0660 O   0  0  0  0  0  0  0  0  0  0  0  0
   -0.6760   13.6310   -1.9540 C   0  0  2  0  0  0  0  0  0  0  0  0
   -0.3720   14.5900   -2.9630 O   0  0  0  0  0  0  0  0  0  0  0  0
   -2.1400   13.8710   -1.3520 C   0  0  2  0  0  0  0  0  0  0  0  0
   -3.1370   14.1320   -2.5100 C   0  0  2  0  0  0  0  0  0  0  0  0
   -2.1580   14.8780   -0.2490 N   0  0  0  0  0  0  0  0  0  0  0  0
   -2.5780   15.0470   -3.4720 O   0  0  0  0  0  0  0  0  0  0  0  0
   -4.5240   14.6040   -2.0280 C   0  0  0  0  0  0  0  0  0  0  0  0
   -3.5040   15.2910    0.2730 C   0  0  0  0  0  0  0  0  0  0  0  0
   -4.7910   14.7100   -0.4750 C   0  0  0  0  0  0  0  0  0  0  0  0
   -5.2710   13.4940    0.2640 N   0  0  0  0  0  0  0  0  0  0  0  0
   -6.0630   15.5170   -0.4060 N   0  0  0  0  0  0  0  0  0  0  0  0
   -7.1800   14.7280    0.1490 C   0  0  0  0  0  0  0  0  0  0  0  0
   -6.4250   13.8800    1.1100 C   0  0  0  0  0  0  0  0  0  0  0  0
  2  1  1  1
  2  3  1  0
  2  4  1  0
  4  5  1  0
  4  6  1  1
  5  7  1  6
  5  8  1  0
  6  9  1  0
  8 10  1  0
  9 10  1  0
 10 11  1  0
 10 12  1  0
 12 13  1  0
 11 14  1  0
 13 14  1  0
M  CHG  1   1  -1
M  END
