ucsf442-ucsf262
     RDKit          3D

 25 28  0  0  0  0  0  0  0  0999 V2000
   -0.3400   15.6780    0.5950 O   0  0  0  0  0  0  0  0  0  0  0  0
   -1.3570   14.7230    0.4830 C   0  0  2  0  0  0  0  0  0  0  0  0
   -1.7420   14.7080   -0.9330 N   0  0  0  0  0  0  0  0  0  0  0  0
   -2.3880   15.1370    1.3890 N   0  0  0  0  0  0  0  0  0  0  0  0
   -3.6570   14.6880    0.8850 C   0  0  2  0  0  0  0  0  0  0  0  0
   -3.0120   15.3660   -1.3590 C   0  0  1  0  0  0  0  0  0  0  0  0
   -3.6050   14.6290   -2.4310 O   0  0  0  0  0  0  0  0  0  0  0  0
   -4.0770   15.4920   -0.2770 C   0  0  1  0  0  0  0  0  0  0  0  0
   -4.7240   15.1610    1.7390 N   0  0  0  0  0  0  0  0  0  0  0  0
   -2.8280   14.5690   -3.6140 C   0  0  0  0  0  0  0  0  0  0  0  0
   -5.4790   15.0050   -0.4450 N   0  0  0  0  0  0  0  0  0  0  0  0
   -5.8370   14.6660    0.9330 C   0  0  0  0  0  0  0  0  0  0  0  0
   -2.8540   15.9330   -4.2720 C   0  0  0  0  0  0  0  0  0  0  0  0
   -1.7650   16.2070   -5.2890 C   0  0  2  0  0  0  0  0  0  0  0  0
   -0.3570   15.6420   -5.0370 C   0  0  2  0  0  0  0  0  0  0  0  0
   -1.7220   17.6360   -5.8710 C   0  0  0  0  0  0  0  0  0  0  0  0
   -0.0710   14.7350   -3.8380 C   0  0  0  0  0  0  0  0  0  0  0  0
    0.8730   16.5610   -5.1160 C   0  0  2  0  0  0  0  0  0  0  0  0
   -0.7110   18.5620   -5.2360 C   0  0  0  0  0  0  0  0  0  0  0  0
    1.4520   14.6750   -3.9630 C   0  0  1  0  0  0  0  0  0  0  0  0
    1.7490   16.1130   -4.0500 N   0  0  0  0  0  0  0  0  0  0  0  0
    0.7320   18.0750   -5.2650 C   0  0  0  0  0  0  0  0  0  0  0  0
    2.2600   13.8610   -2.8740 C   0  0  2  0  0  0  0  0  0  0  0  0
    1.5960   12.8480   -2.4000 O   0  0  0  0  0  0  0  0  0  0  0  0
    2.5110   14.6780   -1.7590 O   0  0  0  0  0  0  0  0  0  0  0  0
  2  1  1  6
  2  3  1  0
  2  4  1  0
  5  4  1  1
  3  6  1  0
  6  7  1  6
  5  8  1  0
  6  8  1  0
  5  9  1  0
  7 10  1  0
  8 11  1  6
  9 12  1  0
 11 12  1  0
 10 13  1  0
 14 13  1  1
 14 15  1  0
 14 16  1  0
 15 17  1  1
 15 18  1  0
 16 19  1  0
 20 17  1  1
 18 21  1  0
 20 21  1  0
 18 22  1  1
 19 22  1  0
 20 23  1  0
 23 24  1  1
 23 25  1  0
M  CHG  1  24  -1
M  END
