ucsf264-ucsf422
     RDKit          3D

 27 30  0  0  0  0  0  0  0  0999 V2000
    0.9010   12.7060   -2.1280 O   0  0  0  0  0  0  0  0  0  0  0  0
    1.2080   12.0720   -3.2390 C   0  0  1  0  0  0  0  0  0  0  0  0
    0.6690   10.8160   -2.8670 O   0  0  0  0  0  0  0  0  0  0  0  0
    0.4130   12.6130   -4.4940 C   0  0  2  0  0  0  0  0  0  0  0  0
    0.2220   11.7260   -5.7380 N   0  0  0  0  0  0  0  0  0  0  0  0
    0.7510   14.0780   -4.8880 C   0  0  2  0  0  0  0  0  0  0  0  0
    1.1670   11.7080   -6.9100 N   0  0  0  0  0  0  0  0  0  0  0  0
   -1.1210   11.3850   -6.1950 C   0  0  1  0  0  0  0  0  0  0  0  0
    1.8710   14.8040   -4.1470 C   0  0  0  0  0  0  0  0  0  0  0  0
   -0.3070   15.0790   -4.5590 C   0  0  1  0  0  0  0  0  0  0  0  0
    0.6260   10.5610   -7.7100 C   0  0  1  0  0  0  0  0  0  0  0  0
   -0.8810   10.6370   -7.5400 C   0  0  1  0  0  0  0  0  0  0  0  0
   -1.9710   10.6090   -5.1810 C   0  0  0  0  0  0  0  0  0  0  0  0
    1.6050   16.2690   -4.3750 N   0  0  0  0  0  0  0  0  0  0  0  0
    0.3660   16.2890   -5.1530 C   0  0  2  0  0  0  0  0  0  0  0  0
   -1.6830   14.7450   -5.0510 C   0  0  0  0  0  0  0  0  0  0  0  0
    0.9750   10.3040   -9.2000 C   0  0  0  0  0  0  0  0  0  0  0  0
   -1.4270    9.1850   -7.7140 C   0  0  0  0  0  0  0  0  0  0  0  0
   -2.9490    9.6400   -5.8060 C   0  0  0  0  0  0  0  0  0  0  0  0
   -0.4880   17.5480   -5.1100 C   0  0  0  0  0  0  0  0  0  0  0  0
   -2.5690   15.9700   -5.0480 C   0  0  2  0  0  0  0  0  0  0  0  0
    1.6910    9.1570   -9.3010 F   0  0  0  0  0  0  0  0  0  0  0  0
   -0.1000   10.1330   -9.9800 F   0  0  0  0  0  0  0  0  0  0  0  0
    1.6770   11.2680   -9.8070 F   0  0  0  0  0  0  0  0  0  0  0  0
   -4.1030   15.4020   -6.1180 Br  0  0  0  0  0  0  0  0  0  0  0  0
   -2.1570    8.5830   -6.5290 C   0  0  0  0  0  0  0  0  0  0  0  0
   -1.9270   17.2700   -5.5920 C   0  0  0  0  0  0  0  0  0  0  0  0
  2  1  1  1
  2  3  1  0
  2  4  1  0
  4  5  1  6
  4  6  1  0
  5  7  1  0
  5  8  1  0
  6  9  1  1
  6 10  1  0
  7 11  1  0
  8 12  1  0
 11 12  1  0
  8 13  1  1
  9 14  1  0
 10 15  1  0
 14 15  1  0
 10 16  1  6
 11 17  1  6
 12 18  1  1
 13 19  1  0
 15 20  1  1
 16 21  1  0
 17 22  1  0
 17 23  1  0
 17 24  1  0
 21 25  1  6
 18 26  1  0
 19 26  1  0
 20 27  1  0
 21 27  1  0
M  CHG  1   1  -1
M  END
