ucsf247-ucsf039
     RDKit          3D

 30 33  0  0  0  0  0  0  0  0999 V2000
   -0.0110   12.6510   -1.6400 O   0  0  0  0  0  0  0  0  0  0  0  0
    0.3900   13.6910   -2.4110 C   0  0  1  0  0  0  0  0  0  0  0  0
    1.0970   13.1400   -3.5200 O   0  0  0  0  0  0  0  0  0  0  0  0
   -0.8930   14.7050   -2.8890 C   0  0  1  0  0  0  0  0  0  0  0  0
   -2.0080   13.7530   -3.1890 N   0  0  0  0  0  0  0  0  0  0  0  0
   -1.4470   15.5650   -1.7690 N   0  0  0  0  0  0  0  0  0  0  0  0
   -0.4600   15.7710   -4.0630 C   0  0  2  0  0  0  0  0  0  0  0  0
   -3.3860   14.2400   -3.2310 C   0  0  1  0  0  0  0  0  0  0  0  0
   -2.8990   15.6150   -1.8490 C   0  0  0  0  0  0  0  0  0  0  0  0
   -0.8880   15.4030   -0.4340 C   0  0  1  0  0  0  0  0  0  0  0  0
    0.7670   16.6760   -3.9180 C   0  0  0  0  0  0  0  0  0  0  0  0
   -1.5190   16.8010   -4.4050 N   0  0  0  0  0  0  0  0  0  0  0  0
   -4.1970   13.4500   -4.0580 O   0  0  0  0  0  0  0  0  0  0  0  0
   -4.0760   14.3380   -1.8130 C   0  0  1  0  0  0  0  0  0  0  0  0
   -3.6020   15.9760   -0.6350 N   0  0  0  0  0  0  0  0  0  0  0  0
   -1.7960   15.4180    0.8070 C   0  0  1  0  0  0  0  0  0  0  0  0
   -0.2070   14.1260   -0.2210 N   0  0  0  0  0  0  0  0  0  0  0  0
   -1.0490   17.5570   -5.5650 C   0  0  2  0  0  0  0  0  0  0  0  0
    0.7610   17.6570   -5.4690 S   0  0  0  0  0  0  0  0  0  0  0  0
   -1.6650   18.9340   -5.6960 C   0  0  0  0  0  0  0  0  0  0  0  0
   -5.5950   14.5690   -1.8550 C   0  0  0  0  0  0  0  0  0  0  0  0
   -3.7750   13.1870   -0.8230 C   0  0  0  0  0  0  0  0  0  0  0  0
   -3.2630   15.2650    0.5010 C   0  0  1  0  0  0  0  0  0  0  0  0
   -1.3810   14.3260    1.6930 N   0  0  0  0  0  0  0  0  0  0  0  0
   -0.0590   14.1320    1.2100 C   0  0  0  0  0  0  0  0  0  0  0  0
   -4.1000   15.7850    1.5810 N   0  0  0  0  0  0  0  0  0  0  0  0
   -6.0980   14.9820   -0.4710 C   0  0  1  0  0  0  0  0  0  0  0  0
   -4.3810   13.3350    0.5940 C   0  0  0  0  0  0  0  0  0  0  0  0
   -7.5260   15.0760   -0.4790 O   0  0  0  0  0  0  0  0  0  0  0  0
   -5.7480   14.0290    0.6810 C   0  0  0  0  0  0  0  0  0  0  0  0
  2  1  1  6
  2  3  1  0
  2  4  1  0
  4  5  1  6
  4  6  1  0
  4  7  1  0
  5  8  1  0
  6  9  1  0
  6 10  1  0
  7 11  1  1
  7 12  1  0
  8 13  1  6
  8 14  1  0
  9 15  1  0
 10 16  1  0
 10 17  1  6
 12 18  1  0
 11 19  1  0
 18 19  1  0
 18 20  1  1
 14 21  1  6
 14 22  1  0
 15 23  1  0
 16 23  1  0
 16 24  1  1
 17 25  1  0
 24 25  1  0
 23 26  1  1
 21 27  1  0
 22 28  1  0
 27 29  1  6
 27 30  1  0
 28 30  1  0
M  CHG  1   1  -1
M  END
