ucsf340-ucsf367
     RDKit          3D

 22 24  0  0  0  0  0  0  0  0999 V2000
    0.5710   18.4350   -6.0420 C   0  0  0  0  0  0  0  0  0  0  0  0
    0.0750   17.5950   -4.9700 N   0  0  0  0  0  0  0  0  0  0  0  0
    1.0110   16.5580   -4.5160 C   0  0  0  0  0  0  0  0  0  0  0  0
   -1.2410   16.9790   -5.0730 C   0  0  2  0  0  0  0  0  0  0  0  0
    0.1710   15.3980   -3.9440 C   0  0  1  0  0  0  0  0  0  0  0  0
   -0.9790   15.4640   -4.9450 C   0  0  1  0  0  0  0  0  0  0  0  0
   -2.2100   17.3900   -6.1610 C   0  0  0  0  0  0  0  0  0  0  0  0
    0.9870   14.0590   -3.9840 C   0  0  0  0  0  0  0  0  0  0  0  0
   -2.2290   14.7000   -4.5560 C   0  0  0  0  0  0  0  0  0  0  0  0
   -3.3140   16.3240   -6.2150 C   0  0  0  0  0  0  0  0  0  0  0  0
    0.2140   12.6920   -3.8250 C   0  0  2  0  0  0  0  0  0  0  0  0
   -3.4550   15.5070   -4.9320 C   0  0  0  0  0  0  0  0  0  0  0  0
    0.7570   11.8820   -2.5590 C   0  0  1  0  0  0  0  0  0  0  0  0
    0.4720   11.9100   -5.0650 O   0  0  0  0  0  0  0  0  0  0  0  0
    0.3700   12.4800   -1.3320 O   0  0  0  0  0  0  0  0  0  0  0  0
    0.1800   10.6860   -2.4020 O   0  0  0  0  0  0  0  0  0  0  0  0
   -0.6750   11.3590   -5.7530 C   0  0  0  0  0  0  0  0  0  0  0  0
   -0.3390    9.9800   -6.3430 C   0  0  0  0  0  0  0  0  0  0  0  0
   -1.8150   11.1650   -4.7570 C   0  0  0  0  0  0  0  0  0  0  0  0
   -1.5270    9.3310   -7.0350 C   0  0  0  0  0  0  0  0  0  0  0  0
   -3.0320   10.5110   -5.4010 C   0  0  0  0  0  0  0  0  0  0  0  0
   -2.6920    9.1810   -6.0660 C   0  0  0  0  0  0  0  0  0  0  0  0
  1  2  1  0
  2  3  1  0
  2  4  1  0
  3  5  1  0
  4  6  1  0
  5  6  1  0
  4  7  1  6
  5  8  1  6
  6  9  1  1
  7 10  1  0
 11  8  1  6
  9 12  1  0
 10 12  1  0
 11 13  1  0
 11 14  1  0
 13 15  1  1
 13 16  1  0
 14 17  1  0
 17 18  1  0
 17 19  1  0
 18 20  1  0
 19 21  1  0
 20 22  1  0
 21 22  1  0
M  CHG  1  16  -1
M  END
