ucsf371-ucsf357
     RDKit          3D

 11 11  0  0  0  0  0  0  0  0999 V2000
   -4.5030   14.7390    0.8330 C   0  0  0  0  0  0  0  0  0  0  0  0
   -4.0550   15.4360   -0.4420 C   0  0  2  0  0  0  0  0  0  0  0  0
   -4.5700   14.7730   -1.6350 N   0  0  0  0  0  0  0  0  0  0  0  0
   -2.2300   15.4830   -0.5290 S   0  0  0  0  0  0  0  0  0  0  0  0
   -5.9110   15.2900   -1.9270 C   0  0  0  0  0  0  0  0  0  0  0  0
   -3.5720   15.0290   -2.7110 C   0  0  0  0  0  0  0  0  0  0  0  0
   -2.2230   14.5740   -2.1310 C   0  0  1  0  0  0  0  0  0  0  0  0
   -0.9990   14.7580   -3.0980 C   0  0  1  0  0  0  0  0  0  0  0  0
   -6.7850   14.3840   -1.5780 O   0  0  0  0  0  0  0  0  0  0  0  0
   -1.3450   15.4410   -4.2900 O   0  0  0  0  0  0  0  0  0  0  0  0
   -0.0760   15.5380   -2.5710 O   0  0  0  0  0  0  0  0  0  0  0  0
  2  1  1  1
  2  3  1  0
  2  4  1  0
  3  5  1  0
  3  6  1  0
  4  7  1  0
  7  6  1  6
  7  8  1  0
  5  9  1  0
  8 10  1  6
  8 11  1  0
M  CHG  2   9  -1  11  -1
M  END
