ucsf516-ucsf404
     RDKit          3D

 24 28  0  0  0  0  0  0  0  0999 V2000
   -5.1110   15.2570   -2.1170 Cl  0  0  0  0  0  0  0  0  0  0  0  0
   -3.8630   14.7010   -0.9370 C   0  0  1  0  0  0  0  0  0  0  0  0
   -2.5960   15.5880   -0.8550 C   0  0  1  0  0  0  0  0  0  0  0  0
   -4.3980   14.7910    0.5300 C   0  0  1  0  0  0  0  0  0  0  0  0
   -2.3670   15.7260    0.6250 C   0  0  1  0  0  0  0  0  0  0  0  0
   -1.2040   15.2540   -1.3960 C   0  0  2  0  0  0  0  0  0  0  0  0
   -3.7090   15.9370    1.0740 N   0  0  0  0  0  0  0  0  0  0  0  0
   -5.8150   14.9370    0.9110 N   0  0  0  0  0  0  0  0  0  0  0  0
   -3.8960   13.6620    1.3870 C   0  0  0  0  0  0  0  0  0  0  0  0
   -1.1060   15.1660   -2.8440 N   0  0  0  0  0  0  0  0  0  0  0  0
   -0.5250   14.1760   -0.6690 N   0  0  0  0  0  0  0  0  0  0  0  0
   -1.7320   14.6070    1.2720 N   0  0  0  0  0  0  0  0  0  0  0  0
   -5.9260   14.3480    2.2270 C   0  0  1  0  0  0  0  0  0  0  0  0
   -4.2930   14.5330    2.8860 S   0  0  0  0  0  0  0  0  0  0  0  0
   -6.8830   15.0610    3.0030 N   0  0  0  0  0  0  0  0  0  0  0  0
   -0.7230   13.9090   -3.4340 C   0  0  2  0  0  0  0  0  0  0  0  0
   -2.2890   15.5060   -3.6420 C   0  0  0  0  0  0  0  0  0  0  0  0
   -0.3900   14.4930    0.7460 C   0  0  0  0  0  0  0  0  0  0  0  0
    0.5150   13.1960   -2.9110 C   0  0  0  0  0  0  0  0  0  0  0  0
   -0.6090   14.3180   -4.8940 C   0  0  0  0  0  0  0  0  0  0  0  0
   -1.9210   15.0670   -5.0630 C   0  0  0  0  0  0  0  0  0  0  0  0
    1.3490   12.3080   -3.8610 C   0  0  0  0  0  0  0  0  0  0  0  0
    0.2400   11.8660   -2.1750 C   0  0  0  0  0  0  0  0  0  0  0  0
    0.2370   11.2670   -3.5760 C   0  0  0  0  0  0  0  0  0  0  0  0
  2  1  1  6
  2  3  1  0
  2  4  1  0
  3  5  1  0
  3  6  1  6
  4  7  1  0
  5  7  1  1
  4  8  1  0
  4  9  1  1
  6 10  1  6
  6 11  1  0
  5 12  1  0
  8 13  1  0
  9 14  1  0
 13 14  1  0
 13 15  1  1
 10 16  1  0
 10 17  1  0
 11 18  1  0
 12 18  1  0
 16 19  1  1
 16 20  1  0
 17 21  1  0
 20 21  1  0
 19 22  1  0
 19 23  1  0
 22 24  1  0
 23 24  1  0
M  END
