ucsf378-ucsf147
     RDKit          3D

 25 28  0  0  0  0  0  0  0  0999 V2000
    0.3400   15.1990   -1.9770 Cl  0  0  0  0  0  0  0  0  0  0  0  0
    0.5680   13.4530   -2.2830 C   0  0  1  0  0  0  0  0  0  0  0  0
    0.1120   12.9290   -3.7020 C   0  0  2  0  0  0  0  0  0  0  0  0
    2.0350   13.2690   -2.0310 C   0  0  0  0  0  0  0  0  0  0  0  0
    0.1780   11.4140   -3.7360 C   0  0  0  0  0  0  0  0  0  0  0  0
    0.9800   13.5770   -4.7760 C   0  0  1  0  0  0  0  0  0  0  0  0
    2.8700   13.8190   -3.1310 C   0  0  0  0  0  0  0  0  0  0  0  0
    0.5150   15.0220   -4.6210 C   0  0  0  0  0  0  0  0  0  0  0  0
   -0.7110   10.8500   -2.6690 C   0  0  2  0  0  0  0  0  0  0  0  0
    2.4400   13.2480   -4.4500 C   0  0  0  0  0  0  0  0  0  0  0  0
   -1.6170   11.8750   -2.3410 O   0  0  0  0  0  0  0  0  0  0  0  0
    0.1410   10.4610   -1.6130 O   0  0  0  0  0  0  0  0  0  0  0  0
   -0.9720   15.0720   -4.1060 C   0  0  1  0  0  0  0  0  0  0  0  0
   -0.9230   13.1040   -2.1160 C   0  0  1  0  0  0  0  0  0  0  0  0
   -1.7590   14.6660   -5.2300 O   0  0  0  0  0  0  0  0  0  0  0  0
   -1.6490   14.3370   -2.8440 C   0  0  2  0  0  0  0  0  0  0  0  0
   -0.8580   13.1760   -0.7790 O   0  0  0  0  0  0  0  0  0  0  0  0
   -3.1300   14.5390   -4.7860 N   0  0  0  0  0  0  0  0  0  0  0  0
   -3.0860   14.1180   -3.3530 C   0  0  2  0  0  0  0  0  0  0  0  0
   -4.1920   14.9010   -2.6010 C   0  0  0  0  0  0  0  0  0  0  0  0
   -3.9040   15.0420   -1.0970 C   0  0  0  0  0  0  0  0  0  0  0  0
   -5.5640   14.2140   -2.8240 C   0  0  0  0  0  0  0  0  0  0  0  0
   -5.1250   14.7760   -0.2320 C   0  0  0  0  0  0  0  0  0  0  0  0
   -6.7240   14.9320   -2.1520 C   0  0  0  0  0  0  0  0  0  0  0  0
   -6.3450   15.4740   -0.7960 C   0  0  0  0  0  0  0  0  0  0  0  0
  2  1  1  6
  2  3  1  0
  2  4  1  0
  3  5  1  1
  3  6  1  0
  4  7  1  0
  6  8  1  1
  5  9  1  0
  6 10  1  0
  7 10  1  0
  9 11  1  0
  9 12  1  1
 13  8  1  6
 11 14  1  0
 13 15  1  0
 13 16  1  0
 16 14  1  6
 14 17  1  1
 15 18  1  0
 16 19  1  0
 18 19  1  0
 19 20  1  1
 20 21  1  0
 20 22  1  0
 21 23  1  0
 22 24  1  0
 23 25  1  0
 24 25  1  0
M  CHG  1  17  -1
M  END
