ucsf114-ucsf392
     RDKit          3D

 19 20  0  0  0  0  0  0  0  0999 V2000
    0.7530   18.1940   -4.6660 C   0  0  0  0  0  0  0  0  0  0  0  0
   -0.3440   17.5730   -5.5180 C   0  0  0  0  0  0  0  0  0  0  0  0
   -1.6540   18.3470   -5.4160 C   0  0  0  0  0  0  0  0  0  0  0  0
   -0.6010   16.2550   -5.0380 O   0  0  0  0  0  0  0  0  0  0  0  0
    0.4900   15.6980   -4.2880 C   0  0  0  0  0  0  0  0  0  0  0  0
    0.1410   14.3060   -3.7220 C   0  0  0  0  0  0  0  0  0  0  0  0
   -0.3410   14.2670   -2.3070 N   0  0  0  0  0  0  0  0  0  0  0  0
   -1.3720   15.2690   -1.9470 C   0  0  2  0  0  0  0  0  0  0  0  0
    0.6730   13.9570   -1.2890 C   0  0  1  0  0  0  0  0  0  0  0  0
    2.3950   13.9850   -1.9170 S   0  0  0  0  0  0  0  0  0  0  0  0
   -1.6960   15.5210   -0.4660 C   0  0  2  0  0  0  0  0  0  0  0  0
    0.7260   14.9330   -0.2240 N   0  0  0  0  0  0  0  0  0  0  0  0
   -2.7930   15.1110   -2.5270 C   0  0  0  0  0  0  0  0  0  0  0  0
   -0.4950   15.3040    0.4760 C   0  0  2  0  0  0  0  0  0  0  0  0
   -2.8230   14.6200   -0.1460 N   0  0  0  0  0  0  0  0  0  0  0  0
   -3.6760   14.6270   -1.3510 C   0  0  1  0  0  0  0  0  0  0  0  0
   -0.7530   14.3910    1.5450 O   0  0  0  0  0  0  0  0  0  0  0  0
   -4.9140   15.4920   -1.1200 C   0  0  0  0  0  0  0  0  0  0  0  0
   -3.5320   15.0750    1.0490 N   0  0  0  0  0  0  0  0  0  0  0  0
  1  2  1  0
  2  3  1  0
  2  4  1  0
  4  5  1  0
  5  6  1  0
  6  7  1  0
  7  8  1  0
  7  9  1  0
  9 10  1  6
  8 11  1  0
  9 12  1  0
  8 13  1  6
 11 14  1  0
 12 14  1  0
 11 15  1  1
 13 16  1  0
 15 16  1  0
 14 17  1  1
 16 18  1  1
 15 19  1  0
M  END
