ucsf520-ucsf264
     RDKit          3D

 34 38  0  0  0  0  0  0  0  0999 V2000
   -4.3200   15.5520    0.9830 N   0  0  0  0  0  0  0  0  0  0  0  0
   -3.4960   14.8560    0.0180 C   0  0  2  0  0  0  0  0  0  0  0  0
   -1.9840   14.9700    0.2830 C   0  0  2  0  0  0  0  0  0  0  0  0
   -3.8630   15.3250   -1.2840 N   0  0  0  0  0  0  0  0  0  0  0  0
   -3.1850   14.7300   -2.4170 C   0  0  0  0  0  0  0  0  0  0  0  0
   -1.0900   14.8180   -1.0080 C   0  0  2  0  0  0  0  0  0  0  0  0
   -1.4480   14.0170    1.2620 N   0  0  0  0  0  0  0  0  0  0  0  0
   -1.7450   14.6230   -2.3250 N   0  0  0  0  0  0  0  0  0  0  0  0
   -0.2570   13.6760   -0.6210 N   0  0  0  0  0  0  0  0  0  0  0  0
   -0.0950   13.9740    0.7930 C   0  0  0  0  0  0  0  0  0  0  0  0
   -1.0530   14.5350   -3.7030 C   0  0  2  0  0  0  0  0  0  0  0  0
    0.2410   13.7280   -3.8890 C   0  0  0  0  0  0  0  0  0  0  0  0
   -0.8870   15.7570   -4.6210 C   0  0  1  0  0  0  0  0  0  0  0  0
   -0.0290   12.2570   -4.2230 C   0  0  2  0  0  0  0  0  0  0  0  0
   -1.6420   16.9570   -4.4020 O   0  0  0  0  0  0  0  0  0  0  0  0
    0.5790   16.1560   -4.7740 C   0  0  0  0  0  0  0  0  0  0  0  0
    0.4630   11.5850   -2.8760 C   0  0  2  0  0  0  0  0  0  0  0  0
    0.4560   17.4820   -5.4660 C   0  0  0  0  0  0  0  0  0  0  0  0
   -0.8350   18.0360   -4.8990 C   0  0  0  0  0  0  0  0  0  0  0  0
   -0.0980   11.7410   -5.6750 N   0  0  0  0  0  0  0  0  0  0  0  0
    1.6720   11.9670   -2.5610 O   0  0  0  0  0  0  0  0  0  0  0  0
    0.4780   10.1760   -2.8130 O   0  0  0  0  0  0  0  0  0  0  0  0
    0.9650   11.7920   -6.7230 N   0  0  0  0  0  0  0  0  0  0  0  0
   -0.7040   10.4360   -5.6910 C   0  0  2  0  0  0  0  0  0  0  0  0
    0.8620   10.5560   -7.5880 C   0  0  1  0  0  0  0  0  0  0  0  0
   -0.2960    9.7600   -6.9770 C   0  0  2  0  0  0  0  0  0  0  0  0
   -2.2160   10.6430   -5.5430 C   0  0  0  0  0  0  0  0  0  0  0  0
    0.9280   10.5010   -9.1340 C   0  0  0  0  0  0  0  0  0  0  0  0
   -1.4820    9.3290   -7.8110 C   0  0  0  0  0  0  0  0  0  0  0  0
   -3.0120    9.3670   -5.7740 C   0  0  0  0  0  0  0  0  0  0  0  0
    1.4480    9.2890   -9.4610 F   0  0  0  0  0  0  0  0  0  0  0  0
   -0.2890   10.5220   -9.7190 F   0  0  0  0  0  0  0  0  0  0  0  0
    1.6710   11.3630   -9.8240 F   0  0  0  0  0  0  0  0  0  0  0  0
   -2.5360    8.5800   -7.0000 C   0  0  0  0  0  0  0  0  0  0  0  0
  2  1  1  1
  2  3  1  0
  2  4  1  0
  4  5  1  0
  3  6  1  0
  3  7  1  1
  5  8  1  0
  6  8  1  0
  6  9  1  1
  7 10  1  0
  9 10  1  0
  8 11  1  0
 11 12  1  1
 11 13  1  0
 14 12  1  6
 13 15  1  0
 13 16  1  1
 14 17  1  0
 16 18  1  0
 15 19  1  0
 18 19  1  0
 14 20  1  0
 17 21  1  6
 17 22  1  0
 20 23  1  0
 20 24  1  0
 23 25  1  0
 24 26  1  0
 25 26  1  0
 24 27  1  6
 25 28  1  6
 26 29  1  6
 27 30  1  0
 28 31  1  0
 28 32  1  0
 28 33  1  0
 29 34  1  0
 30 34  1  0
M  CHG  1  21  -1
M  END
