ucsf584-ucsf396
     RDKit          3D

 14 15  0  0  0  0  0  0  0  0999 V2000
   -4.2320   16.0610    0.5870 N   0  0  0  0  0  0  0  0  0  0  0  0
   -4.4080   15.2770    1.7700 C   0  0  2  0  0  0  0  0  0  0  0  0
   -3.1670   14.6440    1.9940 O   0  0  0  0  0  0  0  0  0  0  0  0
   -5.5520   14.3780    1.5620 N   0  0  0  0  0  0  0  0  0  0  0  0
   -6.8220   14.6110    2.2870 C   0  0  0  0  0  0  0  0  0  0  0  0
   -5.9720   14.0510    0.2000 C   0  0  1  0  0  0  0  0  0  0  0  0
   -7.9180   14.7230    1.2290 C   0  0  0  0  0  0  0  0  0  0  0  0
   -7.2070   14.8020   -0.0550 N   0  0  0  0  0  0  0  0  0  0  0  0
   -4.9220   14.1180   -0.9290 C   0  0  0  0  0  0  0  0  0  0  0  0
   -3.4790   14.1450   -0.3730 C   0  0  0  0  0  0  0  0  0  0  0  0
   -5.0620   15.2930   -1.8920 C   0  0  0  0  0  0  0  0  0  0  0  0
   -2.4250   14.0210   -1.4650 C   0  0  0  0  0  0  0  0  0  0  0  0
   -3.9980   15.1260   -2.9880 C   0  0  0  0  0  0  0  0  0  0  0  0
   -2.6110   14.9960   -2.5330 N   0  0  0  0  0  0  0  0  0  0  0  0
  2  1  1  6
  2  3  1  0
  2  4  1  0
  4  5  1  0
  4  6  1  0
  5  7  1  0
  6  8  1  0
  7  8  1  0
  6  9  1  6
  9 10  1  0
  9 11  1  0
 10 12  1  0
 11 13  1  0
 12 14  1  0
 13 14  1  0
M  END
