ucsf405-ucsf353
     RDKit          3D

 12 12  0  0  0  0  0  0  0  0999 V2000
   14.9440    5.8340   12.3250 N   0  0  0  0  0  0  0  0  0  0  0  0
   14.6530    5.1120   11.0710 C   0  0  2  0  0  0  0  0  0  0  0  0
   15.1410    3.6530   11.1510 C   0  0  0  0  0  0  0  0  0  0  0  0
   15.2390    5.8450    9.8560 C   0  0  1  0  0  0  0  0  0  0  0  0
   14.8610    5.1290    8.5720 C   0  0  1  0  0  0  0  0  0  0  0  0
   15.3250    2.9470    9.7950 C   0  0  0  0  0  0  0  0  0  0  0  0
   14.7530    7.2080    9.7480 O   0  0  0  0  0  0  0  0  0  0  0  0
   15.8990    5.4460    7.6440 O   0  0  0  0  0  0  0  0  0  0  0  0
   14.5310    3.6220    8.6700 C   0  0  2  0  0  0  0  0  0  0  0  0
   14.6250    2.8770    7.2990 C   0  0  2  0  0  0  0  0  0  0  0  0
   15.2710    1.6290    7.4620 O   0  0  0  0  0  0  0  0  0  0  0  0
   15.4570    3.4880    6.4880 O   0  0  0  0  0  0  0  0  0  0  0  0
  2  1  1  1
  2  3  1  0
  2  4  1  0
  4  5  1  0
  3  6  1  0
  4  7  1  6
  5  8  1  6
  5  9  1  0
  9  6  1  1
  9 10  1  0
 10 11  1  1
 10 12  1  0
M  CHG  1  12  -1
M  END
