ucsf422-ucsf511
     RDKit          3D

 27 31  0  0  0  0  0  0  0  0999 V2000
    0.5290   10.5740   -2.3180 O   0  0  0  0  0  0  0  0  0  0  0  0
    0.8520   11.8770   -2.4050 C   0  0  2  0  0  0  0  0  0  0  0  0
    0.0240   12.5800   -1.4650 O   0  0  0  0  0  0  0  0  0  0  0  0
    0.6450   12.3430   -3.9260 C   0  0  0  0  0  0  0  0  0  0  0  0
    0.8160   13.8360   -4.4940 C   0  0  2  0  0  0  0  0  0  0  0  0
   -0.2080   13.8940   -1.9050 C   0  0  2  0  0  0  0  0  0  0  0  0
    2.0440   14.5940   -4.0430 C   0  0  0  0  0  0  0  0  0  0  0  0
   -0.2790   14.9020   -4.1850 C   0  0  1  0  0  0  0  0  0  0  0  0
   -1.6410   14.4220   -1.7160 C   0  0  1  0  0  0  0  0  0  0  0  0
   -0.0490   13.8490   -3.3640 N   0  0  0  0  0  0  0  0  0  0  0  0
    1.8090   15.9260   -4.6230 N   0  0  0  0  0  0  0  0  0  0  0  0
    0.4150   16.2670   -4.3400 C   0  0  1  0  0  0  0  0  0  0  0  0
   -1.5280   14.7060   -5.0370 C   0  0  0  0  0  0  0  0  0  0  0  0
   -2.6110   13.4440   -2.3400 C   0  0  2  0  0  0  0  0  0  0  0  0
   -0.9920   12.9090   -3.9910 C   0  0  0  0  0  0  0  0  0  0  0  0
   -2.2450   14.6570   -0.4190 O   0  0  0  0  0  0  0  0  0  0  0  0
   -0.1810   17.2550   -5.3630 C   0  0  0  0  0  0  0  0  0  0  0  0
   -2.4080   15.9290   -5.0430 C   0  0  2  0  0  0  0  0  0  0  0  0
   -2.3960   13.1970   -3.7410 N   0  0  0  0  0  0  0  0  0  0  0  0
   -3.5260   15.0730   -0.8930 C   0  0  1  0  0  0  0  0  0  0  0  0
   -3.9390   14.0560   -1.9260 C   0  0  1  0  0  0  0  0  0  0  0  0
   -3.9400   15.4520   -6.1600 Br  0  0  0  0  0  0  0  0  0  0  0  0
   -1.7180   17.2180   -5.5220 C   0  0  0  0  0  0  0  0  0  0  0  0
   -4.8240   14.7750   -2.8980 C   0  0  0  0  0  0  0  0  0  0  0  0
   -4.6620   15.1940    0.0820 C   0  0  0  0  0  0  0  0  0  0  0  0
   -6.1130   15.1010   -2.1290 C   0  0  0  0  0  0  0  0  0  0  0  0
   -5.9030   15.6610   -0.7060 C   0  0  0  0  0  0  0  0  0  0  0  0
  2  1  1  6
  2  3  1  0
  2  4  1  0
  5  4  1  1
  6  3  1  6
  5  7  1  0
  5  8  1  0
  6  9  1  0
  6 10  1  0
  7 11  1  0
  8 12  1  0
 11 12  1  0
  8 13  1  6
  9 14  1  0
 10 15  1  0
  9 16  1  1
 12 17  1  6
 13 18  1  0
 14 19  1  6
 15 19  1  0
 16 20  1  0
 14 21  1  0
 20 21  1  0
 18 22  1  6
 17 23  1  0
 18 23  1  0
 21 24  1  6
 20 25  1  1
 24 26  1  0
 25 27  1  0
 26 27  1  0
M  CHG  1   1  -1
M  END
