ucsf519-ucsf013
     RDKit          3D

 21 22  0  0  0  0  0  0  0  0999 V2000
    0.0050   16.3310   -4.4270 C   0  0  0  0  0  0  0  0  0  0  0  0
   -0.6570   15.1460   -3.7220 C   0  0  2  0  0  0  0  0  0  0  0  0
   -0.4020   13.6560   -4.8250 S   0  0  0  0  0  0  0  0  0  0  0  0
   -2.1860   15.4530   -3.4210 C   0  0  1  0  0  0  0  0  0  0  0  0
   -0.5050   12.2360   -3.6490 C   0  0  0  0  0  0  0  0  0  0  0  0
   -3.0000   15.0680   -4.5300 O   0  0  0  0  0  0  0  0  0  0  0  0
   -2.7470   14.9000   -2.1790 N   0  0  0  0  0  0  0  0  0  0  0  0
    0.7770   11.7150   -2.9500 C   0  0  1  0  0  0  0  0  0  0  0  0
   -3.6260   15.6920   -1.2880 C   0  0  0  0  0  0  0  0  0  0  0  0
   -1.8920   14.2500   -1.2490 C   0  0  1  0  0  0  0  0  0  0  0  0
    1.1590   12.6300   -1.9400 O   0  0  0  0  0  0  0  0  0  0  0  0
    0.5130   10.6250   -2.2230 O   0  0  0  0  0  0  0  0  0  0  0  0
   -1.0130   15.1280   -0.5840 O   0  0  0  0  0  0  0  0  0  0  0  0
   -4.1260   14.5190   -0.4210 C   0  0  1  0  0  0  0  0  0  0  0  0
   -2.8550   13.7300   -0.2830 N   0  0  0  0  0  0  0  0  0  0  0  0
   -4.7350   14.7070    1.0220 C   0  0  1  0  0  0  0  0  0  0  0  0
   -5.2270   13.7850   -1.2250 C   0  0  0  0  0  0  0  0  0  0  0  0
   -4.0910   15.6140    1.9310 N   0  0  0  0  0  0  0  0  0  0  0  0
   -6.5660   14.4070   -1.0480 N   0  0  0  0  0  0  0  0  0  0  0  0
   -6.1660   14.9250    1.1930 N   0  0  0  0  0  0  0  0  0  0  0  0
   -7.0360   14.2120    0.3000 C   0  0  0  0  0  0  0  0  0  0  0  0
  2  1  1  6
  2  3  1  0
  2  4  1  0
  3  5  1  0
  4  6  1  6
  4  7  1  0
  5  8  1  0
  7  9  1  0
  7 10  1  0
  8 11  1  1
  8 12  1  0
 10 13  1  1
 14  9  1  6
 10 15  1  0
 14 15  1  0
 14 16  1  0
 14 17  1  0
 16 18  1  6
 17 19  1  0
 16 20  1  0
 19 21  1  0
 20 21  1  0
M  CHG  1  12  -1
M  END
