ucsf364-ucsf422
     RDKit          3D

 22 24  0  0  0  0  0  0  0  0999 V2000
    1.8570   13.5180   -4.4030 C   0  0  0  0  0  0  0  0  0  0  0  0
    1.1010   12.2380   -4.6780 C   0  0  2  0  0  0  0  0  0  0  0  0
    0.8390   11.8170   -6.1340 C   0  0  2  0  0  0  0  0  0  0  0  0
    1.2860   14.8710   -4.7220 C   0  0  2  0  0  0  0  0  0  0  0  0
   -0.0460   11.8000   -3.7290 C   0  0  1  0  0  0  0  0  0  0  0  0
    1.3810   15.8200   -3.6100 C   0  0  0  0  0  0  0  0  0  0  0  0
   -0.1160   15.1390   -5.1620 C   0  0  2  0  0  0  0  0  0  0  0  0
    0.6940   12.9210   -6.9500 O   0  0  0  0  0  0  0  0  0  0  0  0
    0.1110   12.2240   -2.2720 C   0  0  0  0  0  0  0  0  0  0  0  0
   -1.4640   12.0250   -4.2900 C   0  0  0  0  0  0  0  0  0  0  0  0
   -0.3710   10.9140   -6.2960 C   0  0  0  0  0  0  0  0  0  0  0  0
    0.8720   17.0690   -4.1900 N   0  0  0  0  0  0  0  0  0  0  0  0
    0.1390   16.6420   -5.3850 C   0  0  2  0  0  0  0  0  0  0  0  0
   -1.3760   14.8430   -4.3840 C   0  0  0  0  0  0  0  0  0  0  0  0
   -0.6650   13.3180   -1.8770 O   0  0  0  0  0  0  0  0  0  0  0  0
    1.4060   12.6440   -1.9790 O   0  0  0  0  0  0  0  0  0  0  0  0
   -0.1560   11.1390   -1.4330 O   0  0  0  0  0  0  0  0  0  0  0  0
   -1.6160   11.5760   -5.7420 C   0  0  0  0  0  0  0  0  0  0  0  0
   -1.0670   17.5240   -5.6800 C   0  0  0  0  0  0  0  0  0  0  0  0
   -2.4730   15.3560   -5.2910 C   0  0  1  0  0  0  0  0  0  0  0  0
   -4.2240   14.7180   -4.7420 Br  0  0  0  0  0  0  0  0  0  0  0  0
   -2.4260   16.8780   -5.4050 C   0  0  0  0  0  0  0  0  0  0  0  0
  2  1  1  6
  2  3  1  0
  4  1  1  1
  2  5  1  0
  4  6  1  0
  4  7  1  0
  3  8  1  6
  5  9  1  1
  5 10  1  0
  3 11  1  0
  6 12  1  0
  7 13  1  0
 12 13  1  0
  7 14  1  1
  9 15  1  0
  9 16  1  0
  9 17  1  0
 10 18  1  0
 11 18  1  0
 13 19  1  1
 14 20  1  0
 20 21  1  1
 19 22  1  0
 20 22  1  0
M  CHG  2  16  -1  17  -1
M  END
