ucsf013-ucsf320
     RDKit          3D

 15 16  0  0  0  0  0  0  0  0999 V2000
   -4.5980   13.6780    1.8060 N   0  0  0  0  0  0  0  0  0  0  0  0
   -5.2800   14.8520    1.3600 C   0  0  2  0  0  0  0  0  0  0  0  0
   -6.6590   14.5860    1.7440 N   0  0  0  0  0  0  0  0  0  0  0  0
   -5.0580   15.1420   -0.1130 C   0  0  2  0  0  0  0  0  0  0  0  0
   -5.8400   14.1910   -1.0030 C   0  0  1  0  0  0  0  0  0  0  0  0
   -7.6330   14.5710    0.6620 C   0  0  0  0  0  0  0  0  0  0  0  0
   -3.6140   15.1510   -0.5770 C   0  0  0  0  0  0  0  0  0  0  0  0
   -7.1700   13.8100   -0.4760 N   0  0  0  0  0  0  0  0  0  0  0  0
   -5.9170   14.8310   -2.3830 C   0  0  1  0  0  0  0  0  0  0  0  0
   -3.4640   14.4280   -1.9410 C   0  0  2  0  0  0  0  0  0  0  0  0
   -1.9860   14.3770   -2.4530 C   0  0  2  0  0  0  0  0  0  0  0  0
   -6.6630   16.0340   -2.1480 O   0  0  0  0  0  0  0  0  0  0  0  0
   -4.4960   15.0270   -2.9340 C   0  0  0  0  0  0  0  0  0  0  0  0
   -1.1500   14.8990   -1.5930 O   0  0  0  0  0  0  0  0  0  0  0  0
   -1.8420   15.1980   -3.5930 O   0  0  0  0  0  0  0  0  0  0  0  0
  2  1  1  6
  2  3  1  0
  2  4  1  0
  4  5  1  0
  3  6  1  0
  4  7  1  6
  5  8  1  1
  6  8  1  0
  5  9  1  0
 10  7  1  1
 10 11  1  0
  9 12  1  1
  9 13  1  0
 10 13  1  0
 11 14  1  1
 11 15  1  0
M  CHG  1  14  -1
M  END
