ucsf173-ucsf520
     RDKit          3D

 22 25  0  0  0  0  0  0  0  0999 V2000
    0.5840   12.8640   -1.5190 O   0  0  0  0  0  0  0  0  0  0  0  0
   -0.5290   13.1230   -2.1880 C   0  0  2  0  0  0  0  0  0  0  0  0
   -0.8830   11.8680   -2.7110 O   0  0  0  0  0  0  0  0  0  0  0  0
   -0.3210   14.1540   -3.3500 C   0  0  0  0  0  0  0  0  0  0  0  0
   -1.5350   13.7040   -1.2910 N   0  0  0  0  0  0  0  0  0  0  0  0
   -1.3890   14.2390   -4.4300 C   0  0  0  0  0  0  0  0  0  0  0  0
    0.9360   14.8150   -3.9800 C   0  0  0  0  0  0  0  0  0  0  0  0
   -2.8240   13.9870   -1.9370 C   0  0  0  0  0  0  0  0  0  0  0  0
   -1.1310   14.9920   -0.7220 C   0  0  1  0  0  0  0  0  0  0  0  0
   -1.2540   15.7420   -4.4990 C   0  0  1  0  0  0  0  0  0  0  0  0
    0.1970   15.8070   -4.9510 C   0  0  1  0  0  0  0  0  0  0  0  0
   -3.9040   14.3760   -1.0200 N   0  0  0  0  0  0  0  0  0  0  0  0
   -2.0840   15.2830    0.4260 C   0  0  1  0  0  0  0  0  0  0  0  0
    0.1010   15.0060    0.0200 N   0  0  0  0  0  0  0  0  0  0  0  0
   -2.2730   16.4990   -5.3380 C   0  0  0  0  0  0  0  0  0  0  0  0
    0.6470   17.2420   -5.1410 C   0  0  0  0  0  0  0  0  0  0  0  0
   -3.5320   15.3890   -0.0820 C   0  0  2  0  0  0  0  0  0  0  0  0
   -1.6610   14.3410    1.4680 N   0  0  0  0  0  0  0  0  0  0  0  0
   -0.2060   14.2780    1.2260 C   0  0  0  0  0  0  0  0  0  0  0  0
   -4.5260   15.2810    0.9760 N   0  0  0  0  0  0  0  0  0  0  0  0
   -1.8210   17.9290   -5.6240 C   0  0  0  0  0  0  0  0  0  0  0  0
   -0.3330   18.0830   -5.9730 C   0  0  0  0  0  0  0  0  0  0  0  0
  2  1  1  1
  2  3  1  0
  2  4  1  0
  2  5  1  0
  4  6  1  0
  4  7  1  0
  5  8  1  0
  5  9  1  0
 10  6  1  6
 11  7  1  1
 10 11  1  0
  8 12  1  0
  9 13  1  0
  9 14  1  1
 10 15  1  0
 11 16  1  0
 12 17  1  0
 13 17  1  0
 13 18  1  1
 14 19  1  0
 18 19  1  0
 17 20  1  1
 15 21  1  0
 16 22  1  0
 21 22  1  0
M  CHG  1   1  -1
M  END
