ucsf365-ucsf403
     RDKit          3D

 18 20  0  0  0  0  0  0  0  0999 V2000
    0.7190   11.1010   -2.1600 O   0  0  0  0  0  0  0  0  0  0  0  0
    1.1510   12.0360   -2.9950 C   0  0  2  0  0  0  0  0  0  0  0  0
    1.2070   13.1640   -2.1540 O   0  0  0  0  0  0  0  0  0  0  0  0
    0.1010   12.1290   -4.1290 C   0  0  2  0  0  0  0  0  0  0  0  0
    0.4400   11.5350   -5.4140 O   0  0  0  0  0  0  0  0  0  0  0  0
   -0.9020   13.2770   -4.2890 C   0  0  2  0  0  0  0  0  0  0  0  0
   -2.1030   12.5500   -4.9070 C   0  0  1  0  0  0  0  0  0  0  0  0
   -0.5470   14.5780   -5.0120 C   0  0  0  0  0  0  0  0  0  0  0  0
   -0.5540   10.5080   -5.5980 C   0  0  1  0  0  0  0  0  0  0  0  0
   -2.7070   13.2920   -6.0920 C   0  0  0  0  0  0  0  0  0  0  0  0
   -1.7890   15.4680   -5.1580 C   0  0  0  0  0  0  0  0  0  0  0  0
   -1.9310   10.9900   -5.0610 C   0  0  2  0  0  0  0  0  0  0  0  0
   -0.6840    9.9560   -7.0420 C   0  0  1  0  0  0  0  0  0  0  0  0
    0.8450    9.4680   -7.8650 Cl  0  0  0  0  0  0  0  0  0  0  0  0
   -2.9750   14.7720   -5.8260 C   0  0  0  0  0  0  0  0  0  0  0  0
   -3.0680   10.3120   -5.8290 C   0  0  0  0  0  0  0  0  0  0  0  0
   -1.5790    8.7150   -7.0880 C   0  0  0  0  0  0  0  0  0  0  0  0
   -2.7860    8.8580   -6.1820 C   0  0  0  0  0  0  0  0  0  0  0  0
  2  1  1  1
  2  3  1  0
  2  4  1  0
  4  5  1  6
  4  6  1  0
  6  7  1  0
  6  8  1  6
  9  5  1  6
  7 10  1  6
  8 11  1  0
  7 12  1  0
  9 12  1  0
  9 13  1  0
 13 14  1  1
 10 15  1  0
 11 15  1  0
 12 16  1  6
 13 17  1  0
 16 18  1  0
 17 18  1  0
M  CHG  1   1  -1
M  END
