ucsf264-ucsf124
     RDKit          3D

 18 19  0  0  0  0  0  0  0  0999 V2000
    1.3630   12.5350   -2.4810 O   0  0  0  0  0  0  0  0  0  0  0  0
    0.4190   12.2270   -3.3480 C   0  0  2  0  0  0  0  0  0  0  0  0
    0.4510   10.8130   -3.2840 O   0  0  0  0  0  0  0  0  0  0  0  0
    0.7560   12.7190   -4.8090 C   0  0  0  0  0  0  0  0  0  0  0  0
    0.2020   12.0220   -5.9800 N   0  0  0  0  0  0  0  0  0  0  0  0
    1.1670   11.7870   -7.0470 N   0  0  0  0  0  0  0  0  0  0  0  0
   -0.7890   10.9770   -5.8800 C   0  0  2  0  0  0  0  0  0  0  0  0
   -0.6820   10.4630   -4.5670 O   0  0  0  0  0  0  0  0  0  0  0  0
    0.8710   10.4720   -7.6910 C   0  0  1  0  0  0  0  0  0  0  0  0
   -0.3460    9.9400   -6.9370 C   0  0  2  0  0  0  0  0  0  0  0  0
   -2.3030   11.1990   -6.0190 C   0  0  0  0  0  0  0  0  0  0  0  0
    0.9060   10.3040   -9.2260 C   0  0  0  0  0  0  0  0  0  0  0  0
   -1.4980    9.3150   -7.7060 C   0  0  0  0  0  0  0  0  0  0  0  0
   -3.0830    9.8780   -5.8320 C   0  0  0  0  0  0  0  0  0  0  0  0
    1.5710    9.1420   -9.4840 F   0  0  0  0  0  0  0  0  0  0  0  0
   -0.2560   10.2390   -9.8780 F   0  0  0  0  0  0  0  0  0  0  0  0
    1.6400   11.2420   -9.8590 F   0  0  0  0  0  0  0  0  0  0  0  0
   -2.5340    8.7640   -6.7150 C   0  0  0  0  0  0  0  0  0  0  0  0
  2  1  1  1
  2  3  1  0
  2  4  1  0
  4  5  1  0
  5  6  1  0
  5  7  1  0
  7  8  1  1
  6  9  1  0
  7 10  1  0
  9 10  1  0
  7 11  1  0
  9 12  1  6
 10 13  1  6
 11 14  1  0
 12 15  1  0
 12 16  1  0
 12 17  1  0
 13 18  1  0
 14 18  1  0
M  CHG  1   1  -1
M  END
