ucsf422-ucsf520
     RDKit          3D

 25 28  0  0  0  0  0  0  0  0999 V2000
    0.4810   11.0600   -2.6020 O   0  0  0  0  0  0  0  0  0  0  0  0
    1.1970   12.0700   -3.0590 C   0  0  2  0  0  0  0  0  0  0  0  0
    0.9210   13.0330   -2.0870 O   0  0  0  0  0  0  0  0  0  0  0  0
    0.7040   12.4920   -4.4680 C   0  0  0  0  0  0  0  0  0  0  0  0
    0.9720   13.9400   -4.9520 C   0  0  2  0  0  0  0  0  0  0  0  0
    1.9300   14.7280   -4.0670 C   0  0  0  0  0  0  0  0  0  0  0  0
   -0.1990   14.9310   -4.9690 C   0  0  2  0  0  0  0  0  0  0  0  0
    1.7030   16.1330   -4.4400 N   0  0  0  0  0  0  0  0  0  0  0  0
    0.2620   16.2270   -4.3400 C   0  0  1  0  0  0  0  0  0  0  0  0
   -1.6420   14.5930   -4.5980 C   0  0  1  0  0  0  0  0  0  0  0  0
   -1.7580   14.0570   -3.1430 C   0  0  0  0  0  0  0  0  0  0  0  0
   -0.3680   17.4090   -5.0660 C   0  0  0  0  0  0  0  0  0  0  0  0
   -2.5090   15.8530   -4.9360 C   0  0  2  0  0  0  0  0  0  0  0  0
   -3.9930   15.3570   -6.0880 Br  0  0  0  0  0  0  0  0  0  0  0  0
   -1.8370   17.1520   -5.4680 C   0  0  0  0  0  0  0  0  0  0  0  0
   -2.0690   15.0170   -2.0680 N   0  0  0  0  0  0  0  0  0  0  0  0
   -3.5040   15.2890   -1.9530 C   0  0  0  0  0  0  0  0  0  0  0  0
   -1.5350   14.6180   -0.7910 C   0  0  2  0  0  0  0  0  0  0  0  0
   -4.2260   14.5040   -0.9360 N   0  0  0  0  0  0  0  0  0  0  0  0
   -2.2550   15.2360    0.3720 C   0  0  1  0  0  0  0  0  0  0  0  0
   -0.1670   15.0360   -0.5160 N   0  0  0  0  0  0  0  0  0  0  0  0
   -3.6480   14.6080    0.4020 C   0  0  1  0  0  0  0  0  0  0  0  0
   -1.3860   14.8560    1.4940 N   0  0  0  0  0  0  0  0  0  0  0  0
   -0.0690   14.6860    0.8950 C   0  0  0  0  0  0  0  0  0  0  0  0
   -4.6210   15.3310    1.2040 N   0  0  0  0  0  0  0  0  0  0  0  0
  2  1  1  1
  2  3  1  0
  2  4  1  0
  5  4  1  1
  5  6  1  0
  7  5  1  1
  6  8  1  0
  7  9  1  0
  8  9  1  0
  7 10  1  0
 10 11  1  1
  9 12  1  6
 10 13  1  0
 13 14  1  6
 12 15  1  0
 13 15  1  0
 11 16  1  0
 16 17  1  0
 16 18  1  0
 17 19  1  0
 18 20  1  0
 18 21  1  6
 19 22  1  0
 20 22  1  0
 20 23  1  1
 21 24  1  0
 23 24  1  0
 22 25  1  1
M  CHG  1   1  -1
M  END
