ucsf523-ucsf385
     RDKit          3D

 15 16  0  0  0  0  0  0  0  0999 V2000
    0.1360   14.2840    1.8820 N   0  0  0  0  0  0  0  0  0  0  0  0
   -0.8310   13.9400    0.8950 C   0  0  1  0  0  0  0  0  0  0  0  0
   -2.0760   14.1760    1.5730 N   0  0  0  0  0  0  0  0  0  0  0  0
   -0.5900   14.8210   -0.1920 N   0  0  0  0  0  0  0  0  0  0  0  0
   -1.5800   14.5090   -1.2310 C   0  0  2  0  0  0  0  0  0  0  0  0
   -2.9020   15.0920    0.8150 C   0  0  1  0  0  0  0  0  0  0  0  0
   -1.2050   15.0450   -2.5550 N   0  0  0  0  0  0  0  0  0  0  0  0
   -3.0230   14.6310   -0.6600 C   0  0  1  0  0  0  0  0  0  0  0  0
   -4.1670   15.1580    1.5390 N   0  0  0  0  0  0  0  0  0  0  0  0
    0.1680   14.6610   -2.8060 O   0  0  0  0  0  0  0  0  0  0  0  0
   -1.9190   14.4550   -3.6280 O   0  0  0  0  0  0  0  0  0  0  0  0
   -5.2430   14.6630    0.7460 C   0  0  1  0  0  0  0  0  0  0  0  0
   -4.0660   15.3850   -1.3930 N   0  0  0  0  0  0  0  0  0  0  0  0
   -6.3790   14.8430    1.5550 O   0  0  0  0  0  0  0  0  0  0  0  0
   -5.3350   15.3440   -0.6660 C   0  0  0  0  0  0  0  0  0  0  0  0
  2  1  1  1
  2  3  1  0
  2  4  1  0
  4  5  1  0
  6  3  1  1
  5  7  1  6
  5  8  1  0
  6  8  1  0
  6  9  1  0
  7 10  1  0
  7 11  1  0
  9 12  1  0
  8 13  1  6
 12 14  1  1
 12 15  1  0
 13 15  1  0
M  CHG  1  11  -1
M  END
