ucsf248-ucsf511
     RDKit          3D

 22 25  0  0  0  0  0  0  0  0999 V2000
   -8.6190   12.9350    2.3860 N   0  0  0  0  0  0  0  0  0  0  0  0
   -8.2410   14.4580    1.8680 S   0  0  0  0  0  0  0  0  0  0  0  0
   -8.1810   15.4380    3.1330 O   0  0  0  0  0  0  0  0  0  0  0  0
   -9.3760   15.0430    0.9070 O   0  0  0  0  0  0  0  0  0  0  0  0
   -6.5920   14.7010    1.0850 C   0  0  1  0  0  0  0  0  0  0  0  0
   -5.8660   13.4720    1.1590 N   0  0  0  0  0  0  0  0  0  0  0  0
   -6.5600   15.1390   -0.3230 N   0  0  0  0  0  0  0  0  0  0  0  0
   -4.8860   13.5560    0.0760 C   0  0  1  0  0  0  0  0  0  0  0  0
   -5.4130   14.4750   -1.0020 C   0  0  2  0  0  0  0  0  0  0  0  0
   -3.5680   14.0490    0.6110 C   0  0  0  0  0  0  0  0  0  0  0  0
   -4.2460   15.3300   -1.6340 C   0  0  0  0  0  0  0  0  0  0  0  0
   -2.5020   13.7410   -0.4320 C   0  0  1  0  0  0  0  0  0  0  0  0
   -2.7670   14.6340   -1.7100 C   0  0  2  0  0  0  0  0  0  0  0  0
   -1.5090   15.5060   -1.7140 C   0  0  2  0  0  0  0  0  0  0  0  0
   -2.6330   13.9160   -3.0460 N   0  0  0  0  0  0  0  0  0  0  0  0
   -1.1060   13.8770    0.2440 C   0  0  0  0  0  0  0  0  0  0  0  0
   -0.3580   14.5240   -2.0470 C   0  0  2  0  0  0  0  0  0  0  0  0
   -1.6100   14.3750   -4.0090 C   0  0  0  0  0  0  0  0  0  0  0  0
   -0.8200   15.2030    0.6170 O   0  0  0  0  0  0  0  0  0  0  0  0
   -1.2580   16.1210   -0.3500 C   0  0  0  0  0  0  0  0  0  0  0  0
    0.8970   14.9820   -1.5930 O   0  0  0  0  0  0  0  0  0  0  0  0
   -0.2700   14.2960   -3.4580 N   0  0  0  0  0  0  0  0  0  0  0  0
  1  2  1  0
  2  3  1  0
  2  4  1  0
  5  2  1  6
  5  6  1  0
  5  7  1  0
  6  8  1  0
  7  9  1  0
  8  9  1  0
  8 10  1  1
  9 11  1  1
 12 10  1  1
 13 11  1  1
 12 13  1  0
 13 14  1  0
 13 15  1  0
 12 16  1  0
 14 17  1  0
 15 18  1  0
 16 19  1  0
 14 20  1  1
 19 20  1  0
 17 21  1  6
 17 22  1  0
 18 22  1  0
M  END
