ucsf147-ucsf004
     RDKit          3D

 20 22  0  0  0  0  0  0  0  0999 V2000
    1.4140   14.1790   -4.8890 C   0  0  0  0  0  0  0  0  0  0  0  0
    0.1220   13.6910   -4.2580 C   0  0  2  0  0  0  0  0  0  0  0  0
   -1.0000   14.0710   -5.0490 O   0  0  0  0  0  0  0  0  0  0  0  0
   -0.2490   13.9460   -2.7410 C   0  0  2  0  0  0  0  0  0  0  0  0
    0.6190   12.8420   -2.0240 C   0  0  2  0  0  0  0  0  0  0  0  0
   -2.1430   13.6070   -4.2840 N   0  0  0  0  0  0  0  0  0  0  0  0
   -1.7900   13.7710   -2.8280 C   0  0  2  0  0  0  0  0  0  0  0  0
    0.0610   15.1290   -1.8500 N   0  0  0  0  0  0  0  0  0  0  0  0
    0.2510   12.7140   -0.6800 O   0  0  0  0  0  0  0  0  0  0  0  0
    1.8320   13.3420   -1.9140 O   0  0  0  0  0  0  0  0  0  0  0  0
   -2.4010   12.2840   -4.5810 F   0  0  0  0  0  0  0  0  0  0  0  0
   -2.7330   14.8730   -2.2370 C   0  0  2  0  0  0  0  0  0  0  0  0
    0.4340   14.8780   -0.4530 C   0  0  0  0  0  0  0  0  0  0  0  0
   -2.8210   15.1870   -0.6860 C   0  0  1  0  0  0  0  0  0  0  0  0
   -4.0530   15.0720   -3.0270 C   0  0  0  0  0  0  0  0  0  0  0  0
   -0.5800   15.3170    0.4840 N   0  0  0  0  0  0  0  0  0  0  0  0
   -4.1910   14.8040   -0.1270 C   0  0  0  0  0  0  0  0  0  0  0  0
   -5.3910   15.1030   -2.2590 C   0  0  0  0  0  0  0  0  0  0  0  0
   -1.8130   14.5800    0.3110 C   0  0  0  0  0  0  0  0  0  0  0  0
   -5.3130   15.5250   -0.8190 C   0  0  0  0  0  0  0  0  0  0  0  0
  2  1  1  6
  2  3  1  0
  2  4  1  0
  4  5  1  0
  3  6  1  0
  4  7  1  0
  7  6  1  6
  4  8  1  1
  5  9  1  1
  5 10  1  0
  6 11  1  0
  7 12  1  0
  8 13  1  0
 12 14  1  0
 12 15  1  1
 13 16  1  0
 14 17  1  1
 15 18  1  0
 14 19  1  0
 16 19  1  0
 17 20  1  0
 18 20  1  0
M  CHG  1  10  -1
M  END
