ucsf493-ucsf170
     RDKit          3D

 25 27  0  0  0  0  0  0  0  0999 V2000
   -4.1220   15.3720   -5.8560 C   0  0  0  0  0  0  0  0  0  0  0  0
   -3.4160   16.3360   -5.0800 O   0  0  0  0  0  0  0  0  0  0  0  0
   -2.0170   16.3640   -5.3520 C   0  0  2  0  0  0  0  0  0  0  0  0
   -1.4200   14.9660   -5.1100 C   0  0  0  0  0  0  0  0  0  0  0  0
   -1.3200   17.4000   -4.4990 C   0  0  0  0  0  0  0  0  0  0  0  0
    0.0830   14.8780   -5.3640 C   0  0  1  0  0  0  0  0  0  0  0  0
    0.1710   17.5070   -4.8250 C   0  0  0  0  0  0  0  0  0  0  0  0
    0.8910   16.1560   -5.0790 C   0  0  1  0  0  0  0  0  0  0  0  0
    0.9220   13.7080   -4.8290 C   0  0  2  0  0  0  0  0  0  0  0  0
    0.2040   12.4060   -4.3690 C   0  0  0  0  0  0  0  0  0  0  0  0
    1.7890   15.8080   -3.9870 N   0  0  0  0  0  0  0  0  0  0  0  0
    2.0160   14.3390   -3.9920 C   0  0  0  0  0  0  0  0  0  0  0  0
    0.0430   12.0380   -2.8700 C   0  0  1  0  0  0  0  0  0  0  0  0
    0.5810   10.7390   -2.6110 O   0  0  0  0  0  0  0  0  0  0  0  0
    0.6500   12.9990   -2.0200 O   0  0  0  0  0  0  0  0  0  0  0  0
    0.3130   14.3440   -2.3820 C   0  0  0  0  0  0  0  0  0  0  0  0
   -1.0990   14.8010   -1.9880 C   0  0  2  0  0  0  0  0  0  0  0  0
   -1.5930   14.1450   -0.6960 C   0  0  0  0  0  0  0  0  0  0  0  0
   -2.1270   14.7280   -3.1390 C   0  0  1  0  0  0  0  0  0  0  0  0
   -2.0110   13.5040   -3.8610 O   0  0  0  0  0  0  0  0  0  0  0  0
   -3.0430   14.4810   -0.3560 C   0  0  1  0  0  0  0  0  0  0  0  0
   -3.5740   14.9530   -2.7380 C   0  0  0  0  0  0  0  0  0  0  0  0
   -3.1600   15.1810    1.3210 S   0  0  0  0  0  0  0  0  0  0  0  0
   -3.6380   15.4860   -1.3280 C   0  0  0  0  0  0  0  0  0  0  0  0
   -4.9590   15.1300    1.4270 C   0  0  0  0  0  0  0  0  0  0  0  0
  1  2  1  0
  3  2  1  1
  3  4  1  0
  3  5  1  0
  6  4  1  1
  5  7  1  0
  6  8  1  0
  8  7  1  1
  6  9  1  0
  9 10  1  1
  8 11  1  0
  9 12  1  0
 11 12  1  0
 10 13  1  0
 13 14  1  6
 13 15  1  0
 15 16  1  0
 17 16  1  6
 17 18  1  0
 17 19  1  0
 19 20  1  1
 18 21  1  0
 19 22  1  0
 21 23  1  1
 21 24  1  0
 22 24  1  0
 23 25  1  0
M  END
