ucsf248-ucsf520
     RDKit          3D

 24 27  0  0  0  0  0  0  0  0999 V2000
   -8.1400   12.6400    2.3110 N   0  0  0  0  0  0  0  0  0  0  0  0
   -8.1330   14.1720    1.7130 S   0  0  0  0  0  0  0  0  0  0  0  0
   -7.8920   15.1940    2.9310 O   0  0  0  0  0  0  0  0  0  0  0  0
   -9.5650   14.5890    1.1310 O   0  0  0  0  0  0  0  0  0  0  0  0
   -6.8810   14.7100    0.5030 C   0  0  1  0  0  0  0  0  0  0  0  0
   -5.5350   14.8280    1.1010 N   0  0  0  0  0  0  0  0  0  0  0  0
   -6.7240   13.9300   -0.7290 N   0  0  0  0  0  0  0  0  0  0  0  0
   -4.6190   13.9510    0.3360 C   0  0  1  0  0  0  0  0  0  0  0  0
   -5.2790   13.9580   -1.0770 C   0  0  2  0  0  0  0  0  0  0  0  0
   -3.1250   14.3930    0.3120 C   0  0  1  0  0  0  0  0  0  0  0  0
   -4.7710   15.0750   -2.0990 C   0  0  0  0  0  0  0  0  0  0  0  0
   -3.1020   15.6550   -0.4380 C   0  0  2  0  0  0  0  0  0  0  0  0
   -3.2370   15.1330   -1.8620 C   0  0  2  0  0  0  0  0  0  0  0  0
   -2.3410   14.4900    1.5830 N   0  0  0  0  0  0  0  0  0  0  0  0
   -2.1880   13.5620   -0.5710 C   0  0  0  0  0  0  0  0  0  0  0  0
   -1.8150   16.2140   -0.1130 N   0  0  0  0  0  0  0  0  0  0  0  0
   -1.9780   15.6160   -2.6880 C   0  0  0  0  0  0  0  0  0  0  0  0
   -0.8110   13.8180   -0.1000 N   0  0  0  0  0  0  0  0  0  0  0  0
   -0.9090   14.3620    1.2550 C   0  0  0  0  0  0  0  0  0  0  0  0
   -1.8590   15.8460   -4.1920 C   0  0  1  0  0  0  0  0  0  0  0  0
   -1.9010   17.2790   -4.4070 O   0  0  0  0  0  0  0  0  0  0  0  0
   -0.5130   15.3490   -4.7590 C   0  0  0  0  0  0  0  0  0  0  0  0
    0.3080   16.6070   -4.9770 C   0  0  0  0  0  0  0  0  0  0  0  0
   -0.7430   17.6730   -5.1590 C   0  0  0  0  0  0  0  0  0  0  0  0
  1  2  1  0
  2  3  1  0
  2  4  1  0
  5  2  1  1
  5  6  1  0
  5  7  1  0
  8  6  1  1
  7  9  1  0
  8  9  1  0
  8 10  1  0
  9 11  1  1
 10 12  1  0
 11 13  1  0
 12 13  1  0
 10 14  1  0
 10 15  1  6
 12 16  1  6
 13 17  1  6
 15 18  1  0
 14 19  1  0
 18 19  1  0
 20 17  1  1
 20 21  1  0
 20 22  1  0
 22 23  1  0
 21 24  1  0
 23 24  1  0
M  END
