ucsf114-ucsf004
     RDKit          3D

 22 24  0  0  0  0  0  0  0  0999 V2000
    0.8540   18.3820   -5.7190 C   0  0  0  0  0  0  0  0  0  0  0  0
   -0.5770   17.8940   -5.9340 C   0  0  0  0  0  0  0  0  0  0  0  0
   -1.6180   18.9370   -5.5740 C   0  0  0  0  0  0  0  0  0  0  0  0
   -0.8370   16.7800   -5.0980 O   0  0  0  0  0  0  0  0  0  0  0  0
   -0.0060   16.8070   -3.9480 C   0  0  0  0  0  0  0  0  0  0  0  0
    0.6760   15.4740   -3.8100 C   0  0  0  0  0  0  0  0  0  0  0  0
    0.1550   14.3500   -2.8130 C   0  0  2  0  0  0  0  0  0  0  0  0
   -1.4140   14.3750   -2.3730 C   0  0  1  0  0  0  0  0  0  0  0  0
    1.1960   14.3920   -1.6470 C   0  0  2  0  0  0  0  0  0  0  0  0
    0.3860   13.1630   -3.7900 C   0  0  0  0  0  0  0  0  0  0  0  0
    2.8910   13.8260   -1.9790 S   0  0  0  0  0  0  0  0  0  0  0  0
   -1.6650   14.2590   -0.8240 C   0  0  1  0  0  0  0  0  0  0  0  0
    0.6920   13.9850   -0.3640 N   0  0  0  0  0  0  0  0  0  0  0  0
   -2.2900   15.6110   -2.6740 C   0  0  0  0  0  0  0  0  0  0  0  0
   -2.1840   13.2720   -3.1680 C   0  0  0  0  0  0  0  0  0  0  0  0
   -0.4650   13.2850   -5.0520 C   0  0  0  0  0  0  0  0  0  0  0  0
   -0.4560   14.7230    0.0400 C   0  0  2  0  0  0  0  0  0  0  0  0
   -2.8530   15.0830   -0.4630 N   0  0  0  0  0  0  0  0  0  0  0  0
   -3.4770   15.4130   -1.7420 C   0  0  0  0  0  0  0  0  0  0  0  0
   -1.9270   13.2760   -4.6830 C   0  0  1  0  0  0  0  0  0  0  0  0
   -0.7030   14.5090    1.4250 O   0  0  0  0  0  0  0  0  0  0  0  0
   -2.4610   12.1260   -5.1770 F   0  0  0  0  0  0  0  0  0  0  0  0
  1  2  1  0
  2  3  1  0
  2  4  1  0
  4  5  1  0
  5  6  1  0
  7  6  1  6
  7  8  1  0
  7  9  1  0
  7 10  1  0
  9 11  1  6
  8 12  1  0
  9 13  1  0
  8 14  1  6
  8 15  1  0
 10 16  1  0
 12 17  1  0
 13 17  1  0
 12 18  1  1
 14 19  1  0
 18 19  1  0
 15 20  1  0
 16 20  1  0
 17 21  1  1
 20 22  1  6
M  END
