ucsf004-ucsf151
     RDKit          3D

 20 22  0  0  0  0  0  0  0  0999 V2000
   -2.1460   12.5700   -4.2320 F   0  0  0  0  0  0  0  0  0  0  0  0
   -1.6670   13.6560   -4.9090 C   0  0  2  0  0  0  0  0  0  0  0  0
   -0.2250   13.4210   -5.3210 C   0  0  0  0  0  0  0  0  0  0  0  0
   -1.8100   14.9930   -4.1320 C   0  0  1  0  0  0  0  0  0  0  0  0
   -3.1050   15.5600   -4.1080 O   0  0  0  0  0  0  0  0  0  0  0  0
   -0.9600   15.0090   -2.9100 N   0  0  0  0  0  0  0  0  0  0  0  0
    0.6160   14.6130   -4.8950 C   0  0  0  0  0  0  0  0  0  0  0  0
    0.4810   14.8780   -3.3580 C   0  0  2  0  0  0  0  0  0  0  0  0
   -1.3950   14.4690   -1.5800 C   0  0  1  0  0  0  0  0  0  0  0  0
    1.4700   13.9230   -2.5970 C   0  0  2  0  0  0  0  0  0  0  0  0
   -0.1970   14.2730   -0.7320 N   0  0  0  0  0  0  0  0  0  0  0  0
   -2.4430   15.2920   -0.8280 C   0  0  2  0  0  0  0  0  0  0  0  0
    0.8530   13.0970   -1.7650 O   0  0  0  0  0  0  0  0  0  0  0  0
    2.2630   14.7370   -1.7490 O   0  0  0  0  0  0  0  0  0  0  0  0
   -0.1230   14.5680    0.6960 C   0  0  0  0  0  0  0  0  0  0  0  0
   -2.5140   14.7750    0.5790 C   0  0  1  0  0  0  0  0  0  0  0  0
   -3.9060   15.2650   -1.2430 C   0  0  0  0  0  0  0  0  0  0  0  0
   -1.3390   15.0180    1.3290 N   0  0  0  0  0  0  0  0  0  0  0  0
   -3.6350   15.5220    1.1160 N   0  0  0  0  0  0  0  0  0  0  0  0
   -4.6350   15.5890    0.0520 C   0  0  0  0  0  0  0  0  0  0  0  0
  2  1  1  1
  2  3  1  0
  2  4  1  0
  4  5  1  1
  4  6  1  0
  3  7  1  0
  6  8  1  0
  8  7  1  6
  9  6  1  6
  8 10  1  0
  9 11  1  0
  9 12  1  0
 10 13  1  1
 10 14  1  0
 11 15  1  0
 12 16  1  0
 12 17  1  6
 15 18  1  0
 16 18  1  1
 16 19  1  0
 17 20  1  0
 19 20  1  0
M  CHG  1  13  -1
M  END
