ucsf336-ucsf151
     RDKit          3D

 20 21  0  0  0  0  0  0  0  0999 V2000
    1.8150   14.1960   -2.8340 O   0  0  0  0  0  0  0  0  0  0  0  0
    0.1160   12.8560   -3.3750 S   0  0  0  0  0  0  0  0  0  0  0  0
    0.6300   12.9130   -1.4630 O   0  0  0  0  0  0  0  0  0  0  0  0
   -0.2020   11.2900   -3.8020 C   0  0  2  0  0  0  0  0  0  0  0  0
    0.9340   14.2100   -4.6670 O   0  0  0  0  0  0  0  0  0  0  0  0
   -1.3470   13.7610   -3.6080 C   0  0  2  0  0  0  0  0  0  0  0  0
    0.5670   10.4250   -3.0210 O   0  0  0  0  0  0  0  0  0  0  0  0
    0.1840   11.1970   -5.2360 N   0  0  0  0  0  0  0  0  0  0  0  0
   -1.3870   15.2790   -3.6640 C   0  0  0  0  0  0  0  0  0  0  0  0
   -2.6330   13.2000   -3.4580 C   0  0  0  0  0  0  0  0  0  0  0  0
   -0.7820   10.8960   -6.1760 C   0  0  0  0  0  0  0  0  0  0  0  0
   -1.7850   15.4600   -5.1050 C   0  0  2  0  0  0  0  0  0  0  0  0
   -3.3730   13.5700   -4.6690 N   0  0  0  0  0  0  0  0  0  0  0  0
   -2.6120   16.5830   -5.1810 O   0  0  0  0  0  0  0  0  0  0  0  0
   -0.2800    9.6520   -6.9670 C   0  0  0  0  0  0  0  0  0  0  0  0
   -2.1760   10.5880   -5.6760 C   0  0  0  0  0  0  0  0  0  0  0  0
   -2.5140   14.2090   -5.6590 C   0  0  0  0  0  0  0  0  0  0  0  0
   -1.3370    9.3070   -7.9910 C   0  0  0  0  0  0  0  0  0  0  0  0
   -2.4770    9.1140   -5.8370 C   0  0  0  0  0  0  0  0  0  0  0  0
   -2.4700    8.6740   -7.2510 C   0  0  0  0  0  0  0  0  0  0  0  0
  1  2  1  0
  2  3  1  0
  2  4  1  0
  2  5  1  0
  6  2  1  1
  4  7  1  1
  4  8  1  0
  6  9  1  0
  6 10  1  0
  8 11  1  0
  9 12  1  0
 10 13  1  0
 12 14  1  1
 11 15  1  0
 11 16  1  0
 12 17  1  0
 13 17  1  0
 15 18  1  0
 16 19  1  0
 18 20  1  0
 19 20  1  0
M  CHG  1   1  -1
M  END
