ucsf115-ucsf012
     RDKit          3D

 22 25  0  0  0  0  0  0  0  0999 V2000
   -0.9400   14.7370   -3.7070 C   0  0  0  0  0  0  0  0  0  0  0  0
   -1.4020   15.3550   -2.4180 N   0  0  0  0  0  0  0  0  0  0  0  0
   -1.8640   14.3830   -1.4670 C   0  0  1  0  0  0  0  0  0  0  0  0
   -0.1770   13.3800   -3.6080 C   0  0  2  0  0  0  0  0  0  0  0  0
   -0.9360   12.2700   -4.1610 O   0  0  0  0  0  0  0  0  0  0  0  0
    0.2590   12.8830   -2.2420 C   0  0  0  0  0  0  0  0  0  0  0  0
    0.6660   11.4920   -2.6010 C   0  0  0  0  0  0  0  0  0  0  0  0
   -0.4090   11.0650   -3.5740 C   0  0  0  0  0  0  0  0  0  0  0  0
   -0.7970   13.9820   -0.6000 N   0  0  0  0  0  0  0  0  0  0  0  0
   -3.1960   14.5610   -0.7330 C   0  0  2  0  0  0  0  0  0  0  0  0
   -2.2180   13.4520   -2.4890 N   0  0  0  0  0  0  0  0  0  0  0  0
   -0.8110   14.5590    0.7610 C   0  0  0  0  0  0  0  0  0  0  0  0
   -2.9500   15.7070    0.1770 C   0  0  2  0  0  0  0  0  0  0  0  0
   -3.7380   13.7040    0.3120 N   0  0  0  0  0  0  0  0  0  0  0  0
   -3.4920   14.0220   -3.0300 C   0  0  1  0  0  0  0  0  0  0  0  0
   -4.2940   14.3910   -1.7830 C   0  0  2  0  0  0  0  0  0  0  0  0
   -3.3330   15.1170   -4.0880 C   0  0  0  0  0  0  0  0  0  0  0  0
   -5.2640   15.5510   -1.8500 C   0  0  0  0  0  0  0  0  0  0  0  0
   -2.0230   15.3370    1.2130 N   0  0  0  0  0  0  0  0  0  0  0  0
   -4.3070   15.9230    0.6650 N   0  0  0  0  0  0  0  0  0  0  0  0
   -4.8410   14.5770    0.7300 C   0  0  0  0  0  0  0  0  0  0  0  0
   -2.8250   14.6210    2.1950 N   0  0  0  0  0  0  0  0  0  0  0  0
  1  2  1  0
  3  2  1  6
  4  1  1  1
  4  5  1  0
  4  6  1  0
  6  7  1  0
  5  8  1  0
  7  8  1  0
  3  9  1  0
  3 10  1  0
  3 11  1  0
  9 12  1  0
 10 13  1  0
 10 14  1  1
 11 15  1  0
 10 16  1  0
 15 16  1  0
 15 17  1  6
 16 18  1  6
 12 19  1  0
 13 19  1  0
 13 20  1  1
 14 21  1  0
 20 21  1  0
 19 22  1  0
M  END
