ucsf519-ucsf367
     RDKit          3D

 22 23  0  0  0  0  0  0  0  0999 V2000
   -0.5390   16.4150   -4.6630 C   0  0  0  0  0  0  0  0  0  0  0  0
   -0.4630   15.1000   -3.8640 C   0  0  2  0  0  0  0  0  0  0  0  0
    0.6030   13.9980   -4.8990 S   0  0  0  0  0  0  0  0  0  0  0  0
   -1.9350   14.6410   -3.4610 C   0  0  2  0  0  0  0  0  0  0  0  0
    0.3110   12.2750   -4.2680 C   0  0  2  0  0  0  0  0  0  0  0  0
   -2.8780   15.4160   -4.2260 O   0  0  0  0  0  0  0  0  0  0  0  0
   -2.4390   14.6290   -2.0830 N   0  0  0  0  0  0  0  0  0  0  0  0
    1.0310   11.8400   -2.9060 C   0  0  1  0  0  0  0  0  0  0  0  0
    0.4680   11.4210   -5.4060 O   0  0  0  0  0  0  0  0  0  0  0  0
   -3.8160   15.0670   -1.8640 C   0  0  0  0  0  0  0  0  0  0  0  0
   -1.7150   15.3200   -1.0560 C   0  0  2  0  0  0  0  0  0  0  0  0
    0.9150   12.8260   -1.9010 O   0  0  0  0  0  0  0  0  0  0  0  0
    0.5060   10.7660   -2.2800 O   0  0  0  0  0  0  0  0  0  0  0  0
   -0.4080   14.9010   -0.8390 O   0  0  0  0  0  0  0  0  0  0  0  0
   -3.9130   15.2590   -0.3460 C   0  0  0  0  0  0  0  0  0  0  0  0
   -2.5280   15.2370    0.1170 N   0  0  0  0  0  0  0  0  0  0  0  0
   -0.5320   10.4330   -5.4970 C   0  0  0  0  0  0  0  0  0  0  0  0
   -0.4770    9.7770   -6.8710 C   0  0  0  0  0  0  0  0  0  0  0  0
   -1.9180   11.0330   -5.2790 C   0  0  0  0  0  0  0  0  0  0  0  0
   -1.5250    8.6720   -6.9430 C   0  0  0  0  0  0  0  0  0  0  0  0
   -3.0250    9.9920   -5.3560 C   0  0  0  0  0  0  0  0  0  0  0  0
   -2.9440    9.1470   -6.6240 C   0  0  0  0  0  0  0  0  0  0  0  0
  2  1  1  6
  2  3  1  0
  2  4  1  0
  3  5  1  0
  4  6  1  6
  4  7  1  0
  5  8  1  0
  5  9  1  6
  7 10  1  0
  7 11  1  0
  8 12  1  1
  8 13  1  0
 11 14  1  1
 10 15  1  0
 11 16  1  0
 15 16  1  0
  9 17  1  0
 17 18  1  0
 17 19  1  0
 18 20  1  0
 19 21  1  0
 20 22  1  0
 21 22  1  0
M  CHG  1  13  -1
M  END
