ucsf124-ucsf523
     RDKit          3D

 30 33  0  0  0  0  0  0  0  0999 V2000
    0.6510   10.9590   -2.5470 O   0  0  0  0  0  0  0  0  0  0  0  0
    0.4950   12.2370   -2.8600 C   0  0  1  0  0  0  0  0  0  0  0  0
    1.4650   12.9320   -2.0710 O   0  0  0  0  0  0  0  0  0  0  0  0
    0.9030   12.4570   -4.3640 C   0  0  0  0  0  0  0  0  0  0  0  0
    1.3860   14.3680   -2.0820 C   0  0  0  0  0  0  0  0  0  0  0  0
    0.0030   11.8390   -5.3670 N   0  0  0  0  0  0  0  0  0  0  0  0
    0.1260   14.8890   -2.8130 C   0  0  0  0  0  0  0  0  0  0  0  0
   -0.8490   10.7280   -4.9980 C   0  0  1  0  0  0  0  0  0  0  0  0
    0.6560   11.4900   -6.5980 C   0  0  2  0  0  0  0  0  0  0  0  0
   -1.9130   11.1230   -4.1510 O   0  0  0  0  0  0  0  0  0  0  0  0
    0.9680   12.6850   -7.1680 O   0  0  0  0  0  0  0  0  0  0  0  0
   -1.0760   14.5440   -2.1150 O   0  0  0  0  0  0  0  0  0  0  0  0
   -1.4530   10.3110   -6.3460 C   0  0  1  0  0  0  0  0  0  0  0  0
   -0.3670   10.6620   -7.3940 C   0  0  2  0  0  0  0  0  0  0  0  0
   -1.8620    8.8320   -6.3700 C   0  0  0  0  0  0  0  0  0  0  0  0
    0.2100    9.4200   -8.0900 C   0  0  0  0  0  0  0  0  0  0  0  0
   -1.4740   15.4240   -1.0780 C   0  0  2  0  0  0  0  0  0  0  0  0
   -2.1130    8.3690   -7.7950 C   0  0  0  0  0  0  0  0  0  0  0  0
   -0.8710    8.5160   -8.6810 C   0  0  0  0  0  0  0  0  0  0  0  0
   -0.4760   15.1990    0.0020 N   0  0  0  0  0  0  0  0  0  0  0  0
   -2.9650   15.3240   -0.5680 C   0  0  2  0  0  0  0  0  0  0  0  0
   -0.7540   14.1260    0.8970 C   0  0  1  0  0  0  0  0  0  0  0  0
   -2.9840   14.1430    0.4360 C   0  0  1  0  0  0  0  0  0  0  0  0
   -4.1280   15.3960   -1.5080 N   0  0  0  0  0  0  0  0  0  0  0  0
    0.1420   14.2430    1.9820 N   0  0  0  0  0  0  0  0  0  0  0  0
   -2.0170   14.3180    1.4890 N   0  0  0  0  0  0  0  0  0  0  0  0
   -4.2980   13.9250    0.9990 N   0  0  0  0  0  0  0  0  0  0  0  0
   -5.3460   15.5100   -0.6700 C   0  0  0  0  0  0  0  0  0  0  0  0
   -5.0920   15.1280    0.8330 C   0  0  1  0  0  0  0  0  0  0  0  0
   -6.2240   14.9370    1.6470 O   0  0  0  0  0  0  0  0  0  0  0  0
  2  1  1  1
  2  3  1  0
  2  4  1  0
  3  5  1  0
  4  6  1  0
  5  7  1  0
  6  8  1  0
  6  9  1  0
  8 10  1  1
  9 11  1  6
  7 12  1  0
  8 13  1  0
  9 14  1  0
 13 14  1  0
 13 15  1  1
 14 16  1  1
 17 12  1  6
 15 18  1  0
 16 19  1  0
 18 19  1  0
 17 20  1  0
 17 21  1  0
 20 22  1  0
 21 23  1  0
 21 24  1  6
 22 25  1  1
 22 26  1  0
 23 26  1  1
 23 27  1  0
 24 28  1  0
 27 29  1  0
 28 29  1  0
 29 30  1  1
M  CHG  1   1  -1
M  END
