ucsf380-ucsf115
     RDKit          3D

 26 29  0  0  0  0  0  0  0  0999 V2000
    1.0560   14.6250   -2.6460 O   0  0  0  0  0  0  0  0  0  0  0  0
    0.2590   14.3070   -1.6560 C   0  0  2  0  0  0  0  0  0  0  0  0
    0.9220   13.1820   -1.1010 O   0  0  0  0  0  0  0  0  0  0  0  0
   -1.3230   14.0460   -2.0140 C   0  0  1  0  0  0  0  0  0  0  0  0
   -1.6880   12.6760   -1.4900 C   0  0  0  0  0  0  0  0  0  0  0  0
   -2.3390   15.0270   -1.2090 C   0  0  2  0  0  0  0  0  0  0  0  0
   -1.6840   13.8100   -3.6120 C   0  0  0  0  0  0  0  0  0  0  0  0
   -3.1740   14.4510   -0.0250 C   0  0  2  0  0  0  0  0  0  0  0  0
   -3.3440   15.6130   -2.2240 C   0  0  0  0  0  0  0  0  0  0  0  0
   -3.0780   13.1400   -3.8530 C   0  0  0  0  0  0  0  0  0  0  0  0
   -0.6520   13.3270   -4.6490 C   0  0  0  0  0  0  0  0  0  0  0  0
   -0.9310   11.5910   -2.1460 C   0  0  1  0  0  0  0  0  0  0  0  0
   -1.4060   15.9920   -0.6400 N   0  0  0  0  0  0  0  0  0  0  0  0
   -4.1990   15.4540    0.5290 C   0  0  0  0  0  0  0  0  0  0  0  0
   -4.8210   15.3790   -1.8870 C   0  0  0  0  0  0  0  0  0  0  0  0
   -3.1640   11.7310   -4.4470 C   0  0  0  0  0  0  0  0  0  0  0  0
   -1.2290   12.6070   -5.8720 C   0  0  0  0  0  0  0  0  0  0  0  0
   -1.3180   11.5300   -3.5180 O   0  0  0  0  0  0  0  0  0  0  0  0
    0.5110   11.8850   -2.2840 C   0  0  0  0  0  0  0  0  0  0  0  0
   -0.6160   15.5650    0.4980 C   0  0  0  0  0  0  0  0  0  0  0  0
   -2.2820   14.0690    1.1240 C   0  0  0  0  0  0  0  0  0  0  0  0
   -5.2260   15.8310   -0.5020 C   0  0  0  0  0  0  0  0  0  0  0  0
   -2.1880   11.4480   -5.5790 C   0  0  0  0  0  0  0  0  0  0  0  0
    0.8650   10.7650   -3.1440 C   0  0  0  0  0  0  0  0  0  0  0  0
   -0.3390   10.6880   -4.0540 C   0  0  0  0  0  0  0  0  0  0  0  0
   -1.4870   15.1700    1.5590 N   0  0  0  0  0  0  0  0  0  0  0  0
  2  1  1  6
  2  3  1  0
  2  4  1  0
  4  5  1  1
  4  6  1  0
  4  7  1  0
  6  8  1  0
  6  9  1  6
  7 10  1  0
  7 11  1  0
 12  5  1  1
  6 13  1  0
  8 14  1  1
  9 15  1  0
 10 16  1  0
 11 17  1  0
 12 18  1  0
 12 19  1  0
 13 20  1  0
  8 21  1  0
 14 22  1  0
 15 22  1  0
 16 23  1  0
 17 23  1  0
 19 24  1  0
 18 25  1  0
 24 25  1  0
 20 26  1  0
 21 26  1  0
M  CHG  1   1  -1
M  END
