ucsf364-ucsf380
     RDKit          3D

 24 26  0  0  0  0  0  0  0  0999 V2000
    1.9710   14.0280   -4.5560 C   0  0  0  0  0  0  0  0  0  0  0  0
    1.2840   12.6730   -4.5380 C   0  0  2  0  0  0  0  0  0  0  0  0
    1.0060   12.3730   -6.0120 C   0  0  1  0  0  0  0  0  0  0  0  0
   -0.0520   12.6200   -3.9230 C   0  0  2  0  0  0  0  0  0  0  0  0
    2.2370   12.1490   -6.6270 O   0  0  0  0  0  0  0  0  0  0  0  0
   -0.6280   13.5650   -2.3370 S   0  0  0  0  0  0  0  0  0  0  0  0
   -0.3320   11.2060   -3.8240 C   0  0  0  0  0  0  0  0  0  0  0  0
    0.1270   11.2270   -6.3580 C   0  0  0  0  0  0  0  0  0  0  0  0
   -0.3650   14.7770   -2.7910 O   0  0  0  0  0  0  0  0  0  0  0  0
   -0.5350   11.6060   -1.3440 O   0  0  0  0  0  0  0  0  0  0  0  0
   -0.5000   10.5080   -5.1780 C   0  0  0  0  0  0  0  0  0  0  0  0
   -2.1760   14.2430   -1.2200 C   0  0  0  0  0  0  0  0  0  0  0  0
   -2.1030   13.3440   -3.5540 C   0  0  0  0  0  0  0  0  0  0  0  0
    0.0080   15.7490   -3.0300 O   0  0  0  0  0  0  0  0  0  0  0  0
   -1.7770   14.5500    0.1380 C   0  0  0  0  0  0  0  0  0  0  0  0
   -3.1830   14.9750   -1.9430 C   0  0  0  0  0  0  0  0  0  0  0  0
   -1.7940   12.7790   -4.8730 C   0  0  0  0  0  0  0  0  0  0  0  0
   -3.2410   12.7870   -2.9950 C   0  0  0  0  0  0  0  0  0  0  0  0
   -3.0370   14.7010    0.9080 C   0  0  0  0  0  0  0  0  0  0  0  0
   -4.4560   15.2080   -1.0450 C   0  0  0  0  0  0  0  0  0  0  0  0
   -3.2260   11.2880   -2.9520 C   0  0  0  0  0  0  0  0  0  0  0  0
   -2.7040   11.6300   -5.3700 C   0  0  0  0  0  0  0  0  0  0  0  0
   -4.0370   15.6880    0.3400 C   0  0  0  0  0  0  0  0  0  0  0  0
   -3.1100   10.7020   -4.2800 C   0  0  0  0  0  0  0  0  0  0  0  0
  2  1  1  6
  2  3  1  0
  2  4  1  0
  3  5  1  6
  4  6  1  1
  4  7  1  0
  3  8  1  0
  6  9  1  0
  6 10  1  0
  7 11  1  0
  8 11  1  0
  6 12  1  0
  6 13  1  0
  9 14  1  0
 12 15  1  0
 12 16  1  0
 13 17  1  0
 13 18  1  0
 15 19  1  0
 16 20  1  0
 18 21  1  0
 17 22  1  0
 19 23  1  0
 20 23  1  0
 21 24  1  0
 22 24  1  0
M  CHG  2  10  -1  14  -1
M  END
