ucsf260-ucsf422
     RDKit          3D

 24 27  0  0  0  0  0  0  0  0999 V2000
    0.5600   10.9490   -2.7500 O   0  0  0  0  0  0  0  0  0  0  0  0
    1.1330   12.1290   -2.6310 C   0  0  2  0  0  0  0  0  0  0  0  0
    0.4080   12.6780   -1.5450 O   0  0  0  0  0  0  0  0  0  0  0  0
    1.1110   13.0360   -3.9230 C   0  0  1  0  0  0  0  0  0  0  0  0
    0.2150   12.6310   -5.1350 C   0  0  0  0  0  0  0  0  0  0  0  0
    0.9020   14.5640   -3.7380 C   0  0  1  0  0  0  0  0  0  0  0  0
   -0.4260   11.3500   -5.1340 N   0  0  0  0  0  0  0  0  0  0  0  0
    1.7870   15.1950   -4.7330 C   0  0  0  0  0  0  0  0  0  0  0  0
   -0.4380   15.2730   -4.0450 C   0  0  1  0  0  0  0  0  0  0  0  0
   -1.8020   11.3210   -4.7040 C   0  0  0  0  0  0  0  0  0  0  0  0
   -0.2330   10.4560   -6.2580 C   0  0  1  0  0  0  0  0  0  0  0  0
    1.3570   16.5690   -5.0200 N   0  0  0  0  0  0  0  0  0  0  0  0
    0.0390   16.6890   -4.4480 C   0  0  1  0  0  0  0  0  0  0  0  0
   -1.3180   14.6300   -5.1200 C   0  0  0  0  0  0  0  0  0  0  0  0
   -2.4510   10.2860   -5.4980 N   0  0  0  0  0  0  0  0  0  0  0  0
   -1.6510   10.2810   -6.7260 C   0  0  2  0  0  0  0  0  0  0  0  0
    0.6520   10.8130   -7.4480 C   0  0  0  0  0  0  0  0  0  0  0  0
   -0.8390   17.4700   -5.4210 C   0  0  0  0  0  0  0  0  0  0  0  0
   -2.4900   15.5200   -5.5420 C   0  0  1  0  0  0  0  0  0  0  0  0
   -4.0740   14.8630   -4.6030 Br  0  0  0  0  0  0  0  0  0  0  0  0
   -1.7260    8.9840   -7.5050 C   0  0  0  0  0  0  0  0  0  0  0  0
    0.5770    9.7300   -8.5160 C   0  0  0  0  0  0  0  0  0  0  0  0
   -2.2880   17.0200   -5.3470 C   0  0  0  0  0  0  0  0  0  0  0  0
   -0.3720    8.5840   -8.1190 C   0  0  0  0  0  0  0  0  0  0  0  0
  2  1  1  6
  2  3  1  0
  2  4  1  0
  4  5  1  6
  4  6  1  0
  5  7  1  0
  6  8  1  6
  6  9  1  0
  7 10  1  0
  7 11  1  0
  8 12  1  0
  9 13  1  0
 12 13  1  0
  9 14  1  6
 10 15  1  0
 11 16  1  0
 15 16  1  0
 11 17  1  6
 13 18  1  6
 14 19  1  0
 19 20  1  1
 16 21  1  1
 17 22  1  0
 18 23  1  0
 19 23  1  0
 21 24  1  0
 22 24  1  0
M  CHG  1   1  -1
M  END
