ucsf511-ucsf109
     RDKit          3D

 23 27  0  0  0  0  0  0  0  0999 V2000
    0.3330   13.3440   -0.8200 O   0  0  0  0  0  0  0  0  0  0  0  0
   -0.3180   13.4740   -2.0820 C   0  0  2  0  0  0  0  0  0  0  0  0
    0.3960   14.3680   -2.9750 N   0  0  0  0  0  0  0  0  0  0  0  0
   -1.8430   13.7830   -1.9630 C   0  0  2  0  0  0  0  0  0  0  0  0
   -2.4910   14.2740   -3.2850 C   0  0  2  0  0  0  0  0  0  0  0  0
   -0.2450   14.4550   -4.2660 C   0  0  0  0  0  0  0  0  0  0  0  0
   -2.2130   14.6960   -0.8980 O   0  0  0  0  0  0  0  0  0  0  0  0
   -1.5820   14.9940   -4.1650 N   0  0  0  0  0  0  0  0  0  0  0  0
   -3.4900   15.2490   -1.2860 C   0  0  1  0  0  0  0  0  0  0  0  0
   -3.6580   15.1300   -2.8000 C   0  0  2  0  0  0  0  0  0  0  0  0
   -5.0690   14.7310   -3.2570 C   0  0  0  0  0  0  0  0  0  0  0  0
   -4.7750   14.8630   -0.5250 C   0  0  2  0  0  0  0  0  0  0  0  0
   -6.2510   15.2880   -2.4290 C   0  0  0  0  0  0  0  0  0  0  0  0
   -5.8530   15.7820   -1.0670 C   0  0  0  0  0  0  0  0  0  0  0  0
   -4.8040   14.9250    0.9940 C   0  0  2  0  0  0  0  0  0  0  0  0
   -5.2430   13.4470   -0.8780 C   0  0  0  0  0  0  0  0  0  0  0  0
   -3.6130   14.3930    1.6370 N   0  0  0  0  0  0  0  0  0  0  0  0
   -6.0470   14.2680    1.4440 N   0  0  0  0  0  0  0  0  0  0  0  0
   -6.6920   13.3790   -0.6960 N   0  0  0  0  0  0  0  0  0  0  0  0
   -7.0310   14.2700    0.3770 C   0  0  1  0  0  0  0  0  0  0  0  0
   -6.7540   14.7580    2.6170 N   0  0  0  0  0  0  0  0  0  0  0  0
   -8.2270   13.8150    1.0360 N   0  0  0  0  0  0  0  0  0  0  0  0
   -8.1620   14.4710    2.3390 C   0  0  0  0  0  0  0  0  0  0  0  0
  2  1  1  1
  2  3  1  0
  2  4  1  0
  4  5  1  0
  3  6  1  0
  4  7  1  1
  5  8  1  1
  6  8  1  0
  9  7  1  1
  5 10  1  0
  9 10  1  0
 10 11  1  1
  9 12  1  0
 11 13  1  0
 12 14  1  6
 13 14  1  0
 12 15  1  0
 12 16  1  0
 15 17  1  1
 15 18  1  0
 16 19  1  0
 18 20  1  0
 20 19  1  6
 18 21  1  0
 20 22  1  0
 21 23  1  0
 22 23  1  0
M  END
