ucsf340-ucsf170
     RDKit          3D

 24 26  0  0  0  0  0  0  0  0999 V2000
    1.0970   18.4910   -5.6620 C   0  0  0  0  0  0  0  0  0  0  0  0
    0.0370   17.8940   -4.8810 N   0  0  0  0  0  0  0  0  0  0  0  0
    0.5750   16.9330   -3.8600 C   0  0  0  0  0  0  0  0  0  0  0  0
   -0.8720   17.1560   -5.7250 C   0  0  1  0  0  0  0  0  0  0  0  0
    0.1710   15.5140   -4.2810 C   0  0  2  0  0  0  0  0  0  0  0  0
   -1.0790   15.8190   -5.0430 C   0  0  1  0  0  0  0  0  0  0  0  0
   -2.2160   17.7260   -6.1840 C   0  0  0  0  0  0  0  0  0  0  0  0
   -0.1280   14.2850   -3.3640 C   0  0  1  0  0  0  0  0  0  0  0  0
   -2.3490   15.9070   -4.2770 C   0  0  0  0  0  0  0  0  0  0  0  0
   -3.2970   16.6180   -6.3980 C   0  0  0  0  0  0  0  0  0  0  0  0
    0.8840   13.0830   -3.4240 C   0  0  0  0  0  0  0  0  0  0  0  0
   -3.3930   15.5820   -5.3050 C   0  0  0  0  0  0  0  0  0  0  0  0
   -1.2740   14.1760   -2.2740 C   0  0  1  0  0  0  0  0  0  0  0  0
    1.0240   12.1020   -2.2350 C   0  0  1  0  0  0  0  0  0  0  0  0
   -1.3650   15.1510   -1.0550 C   0  0  0  0  0  0  0  0  0  0  0  0
   -2.6430   13.8750   -2.9000 C   0  0  2  0  0  0  0  0  0  0  0  0
    0.3780   12.5690   -1.0890 O   0  0  0  0  0  0  0  0  0  0  0  0
    0.4030   10.9330   -2.4180 O   0  0  0  0  0  0  0  0  0  0  0  0
   -2.4490   13.7150   -4.3230 O   0  0  0  0  0  0  0  0  0  0  0  0
   -2.7370   15.4430   -0.4040 C   0  0  2  0  0  0  0  0  0  0  0  0
   -3.6900   14.9550   -2.6890 C   0  0  0  0  0  0  0  0  0  0  0  0
   -2.9380   14.7740    1.3110 S   0  0  0  0  0  0  0  0  0  0  0  0
   -3.9890   15.1070   -1.2170 C   0  0  0  0  0  0  0  0  0  0  0  0
   -4.6860   15.0930    1.6390 C   0  0  0  0  0  0  0  0  0  0  0  0
  1  2  1  0
  2  3  1  0
  2  4  1  0
  5  3  1  1
  4  6  1  0
  5  6  1  0
  4  7  1  1
  5  8  1  0
  6  9  1  1
  7 10  1  0
  8 11  1  1
  9 12  1  0
 10 12  1  0
  8 13  1  0
 11 14  1  0
 13 15  1  6
 13 16  1  0
 14 17  1  1
 14 18  1  0
 16 19  1  6
 15 20  1  0
 16 21  1  0
 20 22  1  1
 20 23  1  0
 21 23  1  0
 22 24  1  0
M  CHG  1  18  -1
M  END
