ucsf396
     RDKit          3D

  9  9  0  0  0  0  0  0  0  0999 V2000
   -3.0100   15.0220   -0.9740 N   0  0  0  0  0  0  0  0  0  0  0  0
   -3.6600   15.0030    0.2890 C   0  0  2  0  0  0  0  0  0  0  0  0
   -3.0430   15.0090    1.2760 O   0  0  0  0  0  0  0  0  0  0  0  0
   -5.1840   14.8860    0.3160 C   0  0  2  0  0  0  0  0  0  0  0  0
   -5.8200   14.6600    1.5090 C   0  0  0  0  0  0  0  0  0  0  0  0
   -7.1710   14.5080    1.4820 C   0  0  0  0  0  0  0  0  0  0  0  0
   -7.8040   14.5790    0.2710 C   0  0  0  0  0  0  0  0  0  0  0  0
   -7.1920   14.7710   -0.8230 N   0  0  0  0  0  0  0  0  0  0  0  0
   -5.8910   14.9240   -0.8510 C   0  0  0  0  0  0  0  0  0  0  0  0
  2  1  1  6
  2  3  1  0
  2  4  1  0
  4  5  1  6
  5  6  1  0
  6  7  1  0
  7  8  1  0
  4  9  1  0
  8  9  1  0
M  END
