ucsf487-ucsf213
     RDKit          3D

 26 29  0  0  0  0  0  0  0  0999 V2000
   -7.7000   13.5820    2.7830 N   0  0  0  0  0  0  0  0  0  0  0  0
   -7.2690   14.5970    1.8270 C   0  0  2  0  0  0  0  0  0  0  0  0
   -7.9600   14.3990    0.4570 C   0  0  0  0  0  0  0  0  0  0  0  0
   -5.7260   14.6290    1.7250 C   0  0  0  0  0  0  0  0  0  0  0  0
   -5.0830   15.2140    0.4510 C   0  0  2  0  0  0  0  0  0  0  0  0
   -7.0160   14.0610   -0.6120 N   0  0  0  0  0  0  0  0  0  0  0  0
   -6.0400   15.1390   -0.7660 C   0  0  2  0  0  0  0  0  0  0  0  0
   -3.6400   14.7100    0.3220 C   0  0  0  0  0  0  0  0  0  0  0  0
   -5.3310   15.0600   -2.1260 C   0  0  0  0  0  0  0  0  0  0  0  0
   -3.0850   14.6110   -1.0700 C   0  0  0  0  0  0  0  0  0  0  0  0
   -4.0730   14.2010   -2.1470 C   0  0  2  0  0  0  0  0  0  0  0  0
   -3.3300   14.1820   -3.4910 C   0  0  0  0  0  0  0  0  0  0  0  0
   -2.2160   15.2110   -3.4180 C   0  0  0  0  0  0  0  0  0  0  0  0
   -1.3710   15.6140   -4.6450 C   0  0  1  0  0  0  0  0  0  0  0  0
    0.0600   16.2080   -4.3810 C   0  0  1  0  0  0  0  0  0  0  0  0
   -1.0020   13.9270   -5.2890 S   0  0  0  0  0  0  0  0  0  0  0  0
   -2.2990   16.4950   -5.5290 C   0  0  0  0  0  0  0  0  0  0  0  0
    0.7540   13.7920   -4.6770 C   0  0  1  0  0  0  0  0  0  0  0  0
    1.0810   15.1310   -3.9920 C   0  0  0  0  0  0  0  0  0  0  0  0
    0.5490   17.2910   -5.3160 C   0  0  0  0  0  0  0  0  0  0  0  0
   -1.8170   17.8920   -5.9760 C   0  0  0  0  0  0  0  0  0  0  0  0
    1.1240   12.5360   -3.7980 C   0  0  0  0  0  0  0  0  0  0  0  0
   -0.5100   18.3720   -5.3880 C   0  0  0  0  0  0  0  0  0  0  0  0
    0.2260   12.0500   -2.5940 C   0  0  1  0  0  0  0  0  0  0  0  0
    0.4020   10.7450   -2.3340 O   0  0  0  0  0  0  0  0  0  0  0  0
    0.6290   12.6230   -1.3660 O   0  0  0  0  0  0  0  0  0  0  0  0
  2  1  1  1
  2  3  1  0
  2  4  1  0
  5  4  1  1
  3  6  1  0
  5  7  1  0
  6  7  1  0
  5  8  1  0
  7  9  1  6
  8 10  1  0
  9 11  1  0
 10 11  1  0
 11 12  1  6
 12 13  1  0
 14 13  1  1
 14 15  1  0
 14 16  1  0
 14 17  1  0
 16 18  1  0
 15 19  1  6
 18 19  1  0
 15 20  1  0
 17 21  1  0
 18 22  1  1
 20 23  1  0
 21 23  1  0
 22 24  1  0
 24 25  1  1
 24 26  1  0
M  CHG  1  25  -1
M  END
