ucsf224-ucsf248
     RDKit          3D

 27 29  0  0  0  0  0  0  0  0999 V2000
   -1.3280   18.3670   -5.0780 Cl  0  0  0  0  0  0  0  0  0  0  0  0
   -0.5880   16.7280   -5.0730 C   0  0  2  0  0  0  0  0  0  0  0  0
   -1.5730   15.6340   -4.6010 C   0  0  1  0  0  0  0  0  0  0  0  0
    0.6590   16.7230   -4.1970 C   0  0  0  0  0  0  0  0  0  0  0  0
   -2.9670   15.5900   -5.2650 C   0  0  0  0  0  0  0  0  0  0  0  0
   -0.8740   14.2690   -4.6980 C   0  0  0  0  0  0  0  0  0  0  0  0
    1.3270   15.3350   -4.1740 C   0  0  0  0  0  0  0  0  0  0  0  0
   -3.9530   14.5920   -4.6240 C   0  0  0  0  0  0  0  0  0  0  0  0
    0.3640   14.1710   -3.8140 C   0  0  2  0  0  0  0  0  0  0  0  0
    1.0380   12.7700   -3.7680 C   0  0  0  0  0  0  0  0  0  0  0  0
   -3.6690   14.2440   -3.1450 C   0  0  0  0  0  0  0  0  0  0  0  0
    1.0560   12.0730   -2.3700 C   0  0  2  0  0  0  0  0  0  0  0  0
   -3.8670   15.3820   -2.1120 C   0  0  2  0  0  0  0  0  0  0  0  0
    0.4600   10.8760   -2.4050 O   0  0  0  0  0  0  0  0  0  0  0  0
    0.2560   12.6970   -1.3960 O   0  0  0  0  0  0  0  0  0  0  0  0
   -3.0350   15.2570   -0.8160 C   0  0  0  0  0  0  0  0  0  0  0  0
   -5.3670   15.5940   -1.7710 C   0  0  0  0  0  0  0  0  0  0  0  0
   -5.9440   14.5090   -0.8850 C   0  0  1  0  0  0  0  0  0  0  0  0
   -3.9110   15.1240    0.4440 C   0  0  0  0  0  0  0  0  0  0  0  0
   -4.9370   14.0370    0.1600 C   0  0  1  0  0  0  0  0  0  0  0  0
   -7.1380   14.9060   -0.1280 N   0  0  0  0  0  0  0  0  0  0  0  0
   -6.8090   14.5850    1.2700 C   0  0  2  0  0  0  0  0  0  0  0  0
   -5.8170   13.5440    1.2300 N   0  0  0  0  0  0  0  0  0  0  0  0
   -8.3080   14.2680    2.2340 S   0  0  0  0  0  0  0  0  0  0  0  0
   -8.4860   12.7540    2.8570 N   0  0  0  0  0  0  0  0  0  0  0  0
   -8.2190   15.3480    3.4140 O   0  0  0  0  0  0  0  0  0  0  0  0
   -9.5680   14.6760    1.3390 O   0  0  0  0  0  0  0  0  0  0  0  0
  2  1  1  1
  2  3  1  0
  2  4  1  0
  3  5  1  6
  3  6  1  0
  4  7  1  0
  5  8  1  0
  6  9  1  0
  7  9  1  0
  9 10  1  6
  8 11  1  0
 10 12  1  0
 13 11  1  6
 12 14  1  6
 12 15  1  0
 13 16  1  0
 13 17  1  0
 18 17  1  1
 16 19  1  0
 18 20  1  0
 20 19  1  1
 18 21  1  0
 21 22  1  0
 20 23  1  0
 22 23  1  0
 22 24  1  1
 24 25  1  0
 24 26  1  0
 24 27  1  0
M  CHG  1  14  -1
M  END
