ucsf004-ucsf264
     RDKit          3D

 33 37  0  0  0  0  0  0  0  0999 V2000
   -2.1010   12.6740   -4.7200 F   0  0  0  0  0  0  0  0  0  0  0  0
   -1.6980   13.9970   -4.8130 C   0  0  2  0  0  0  0  0  0  0  0  0
   -0.1920   13.9700   -5.1260 C   0  0  2  0  0  0  0  0  0  0  0  0
   -2.0680   14.5770   -3.4400 C   0  0  0  0  0  0  0  0  0  0  0  0
    0.6230   12.6420   -4.8720 C   0  0  1  0  0  0  0  0  0  0  0  0
   -1.0140   14.8400   -2.4660 N   0  0  0  0  0  0  0  0  0  0  0  0
    0.4370   15.2250   -4.4980 C   0  0  0  0  0  0  0  0  0  0  0  0
    0.3950   12.0280   -3.3910 C   0  0  2  0  0  0  0  0  0  0  0  0
    0.3050   15.2190   -2.9740 C   0  0  0  0  0  0  0  0  0  0  0  0
   -1.1430   14.2120   -1.1630 C   0  0  1  0  0  0  0  0  0  0  0  0
    0.1710   11.7690   -6.0390 N   0  0  0  0  0  0  0  0  0  0  0  0
    1.4580   12.2220   -2.6260 O   0  0  0  0  0  0  0  0  0  0  0  0
    0.3720   10.6180   -3.3090 O   0  0  0  0  0  0  0  0  0  0  0  0
   -0.0700   14.6690   -0.2970 N   0  0  0  0  0  0  0  0  0  0  0  0
   -2.5760   14.3020   -0.5600 C   0  0  1  0  0  0  0  0  0  0  0  0
    1.1230   11.5650   -7.1220 N   0  0  0  0  0  0  0  0  0  0  0  0
   -0.5290   10.4920   -5.8130 C   0  0  2  0  0  0  0  0  0  0  0  0
   -0.2920   14.4160    1.0860 C   0  0  0  0  0  0  0  0  0  0  0  0
   -2.6490   14.6220    0.9360 C   0  0  1  0  0  0  0  0  0  0  0  0
   -3.6840   15.1270   -1.2070 C   0  0  0  0  0  0  0  0  0  0  0  0
    0.2940   10.8250   -8.0720 C   0  0  2  0  0  0  0  0  0  0  0  0
   -0.3360    9.7740   -7.1690 C   0  0  2  0  0  0  0  0  0  0  0  0
   -2.0240   10.7030   -5.5110 C   0  0  0  0  0  0  0  0  0  0  0  0
    0.9480   10.2370   -9.3220 C   0  0  0  0  0  0  0  0  0  0  0  0
   -1.4590   15.1490    1.4830 N   0  0  0  0  0  0  0  0  0  0  0  0
   -3.6510   15.6680    1.0910 N   0  0  0  0  0  0  0  0  0  0  0  0
   -4.5660   15.5050   -0.0300 C   0  0  0  0  0  0  0  0  0  0  0  0
   -1.6080    9.1660   -7.7520 C   0  0  0  0  0  0  0  0  0  0  0  0
   -2.8330    9.4040   -5.5750 C   0  0  0  0  0  0  0  0  0  0  0  0
    1.6590    9.1140   -9.0950 F   0  0  0  0  0  0  0  0  0  0  0  0
    0.0030    9.9240  -10.2340 F   0  0  0  0  0  0  0  0  0  0  0  0
    1.7300   11.1270   -9.9600 F   0  0  0  0  0  0  0  0  0  0  0  0
   -2.3740    8.4360   -6.6660 C   0  0  0  0  0  0  0  0  0  0  0  0
  2  1  1  1
  2  3  1  0
  2  4  1  0
  3  5  1  0
  4  6  1  0
  3  7  1  1
  5  8  1  0
  6  9  1  0
  7  9  1  0
 10  6  1  6
  5 11  1  6
  8 12  1  1
  8 13  1  0
 10 14  1  0
 10 15  1  0
 11 16  1  0
 11 17  1  0
 14 18  1  0
 15 19  1  0
 15 20  1  6
 16 21  1  0
 17 22  1  0
 21 22  1  0
 17 23  1  6
 21 24  1  6
 18 25  1  0
 19 25  1  6
 19 26  1  0
 20 27  1  0
 26 27  1  0
 22 28  1  6
 23 29  1  0
 24 30  1  0
 24 31  1  0
 24 32  1  0
 28 33  1  0
 29 33  1  0
M  CHG  1  12  -1
M  END
