ucsf320-ucsf124
     RDKit          3D

 27 29  0  0  0  0  0  0  0  0999 V2000
   -0.9910   14.8370   -1.3810 O   0  0  0  0  0  0  0  0  0  0  0  0
   -1.8830   14.4410   -2.2660 C   0  0  2  0  0  0  0  0  0  0  0  0
   -1.5020   15.0280   -3.5230 O   0  0  0  0  0  0  0  0  0  0  0  0
   -3.2890   14.9580   -1.8240 C   0  0  2  0  0  0  0  0  0  0  0  0
   -0.0760   15.0860   -3.7240 C   0  0  0  0  0  0  0  0  0  0  0  0
   -3.6760   14.4380   -0.4390 C   0  0  0  0  0  0  0  0  0  0  0  0
   -4.4120   14.7860   -2.8620 C   0  0  0  0  0  0  0  0  0  0  0  0
    0.3710   14.2440   -4.9290 C   0  0  0  0  0  0  0  0  0  0  0  0
   -4.8840   15.1780    0.1120 C   0  0  0  0  0  0  0  0  0  0  0  0
   -5.8270   14.8230   -2.2870 C   0  0  0  0  0  0  0  0  0  0  0  0
    0.8180   12.7610   -4.6170 C   0  0  1  0  0  0  0  0  0  0  0  0
   -5.9720   15.4950   -0.9250 C   0  0  1  0  0  0  0  0  0  0  0  0
   -7.2400   15.1120   -0.3760 O   0  0  0  0  0  0  0  0  0  0  0  0
    0.6590   12.4170   -3.0470 C   0  0  1  0  0  0  0  0  0  0  0  0
    0.1000   11.8090   -5.5560 N   0  0  0  0  0  0  0  0  0  0  0  0
    0.8700   11.1340   -2.7890 O   0  0  0  0  0  0  0  0  0  0  0  0
    1.6800   13.0920   -2.3210 O   0  0  0  0  0  0  0  0  0  0  0  0
   -0.8390   10.8760   -4.9260 C   0  0  1  0  0  0  0  0  0  0  0  0
    1.0050   10.9840   -6.3410 C   0  0  2  0  0  0  0  0  0  0  0  0
   -2.1030   11.4350   -4.6540 O   0  0  0  0  0  0  0  0  0  0  0  0
    1.4680   11.6110   -7.5180 O   0  0  0  0  0  0  0  0  0  0  0  0
   -0.9940    9.6830   -5.9020 C   0  0  2  0  0  0  0  0  0  0  0  0
    0.2270    9.7470   -6.8190 C   0  0  1  0  0  0  0  0  0  0  0  0
   -2.2980    9.5270   -6.6920 C   0  0  0  0  0  0  0  0  0  0  0  0
   -0.1090    9.7330   -8.3190 C   0  0  0  0  0  0  0  0  0  0  0  0
   -2.2360    8.4570   -7.7840 C   0  0  0  0  0  0  0  0  0  0  0  0
   -1.0360    8.5900   -8.7190 C   0  0  0  0  0  0  0  0  0  0  0  0
  2  1  1  1
  2  3  1  0
  2  4  1  0
  3  5  1  0
  4  6  1  1
  4  7  1  0
  5  8  1  0
  6  9  1  0
  7 10  1  0
 11  8  1  1
  9 12  1  0
 10 12  1  0
 12 13  1  1
 11 14  1  0
 11 15  1  0
 14 16  1  6
 14 17  1  0
 15 18  1  0
 15 19  1  0
 18 20  1  6
 19 21  1  6
 18 22  1  0
 19 23  1  0
 22 23  1  0
 22 24  1  6
 23 25  1  6
 24 26  1  0
 25 27  1  0
 26 27  1  0
M  CHG  2   1  -1  16  -1
M  END
