ucsf110-ucsf004
     RDKit          3D

 21 24  0  0  0  0  0  0  0  0999 V2000
   -1.0390   15.3980   -4.0510 C   0  0  0  0  0  0  0  0  0  0  0  0
   -2.0530   15.2080   -3.0730 N   0  0  0  0  0  0  0  0  0  0  0  0
   -3.0370   14.2090   -3.5220 C   0  0  0  0  0  0  0  0  0  0  0  0
   -1.6200   14.6760   -1.7450 C   0  0  1  0  0  0  0  0  0  0  0  0
   -3.7940   14.1460   -2.2140 C   0  0  0  0  0  0  0  0  0  0  0  0
   -2.6650   13.8840   -1.2360 C   0  0  2  0  0  0  0  0  0  0  0  0
   -0.3690   13.8250   -1.8930 C   0  0  1  0  0  0  0  0  0  0  0  0
   -3.1970   14.0010    0.3940 S   0  0  0  0  0  0  0  0  0  0  0  0
   -0.3250   13.8050   -0.3120 C   0  0  0  0  0  0  0  0  0  0  0  0
   -0.6810   12.5330   -2.5560 C   0  0  0  0  0  0  0  0  0  0  0  0
    0.8020   14.6000   -2.4310 C   0  0  0  0  0  0  0  0  0  0  0  0
   -4.1870   12.4460    1.0290 N   0  0  0  0  0  0  0  0  0  0  0  0
   -1.3980   14.3930    0.2170 N   0  0  0  0  0  0  0  0  0  0  0  0
   -0.8950   12.7860   -4.0380 C   0  0  2  0  0  0  0  0  0  0  0  0
    1.2030   14.2680   -3.8890 C   0  0  0  0  0  0  0  0  0  0  0  0
   -3.2810   15.2670    1.7890 N   0  0  0  0  0  0  0  0  0  0  0  0
   -4.6930   14.8610    0.2400 C   0  0  0  0  0  0  0  0  0  0  0  0
   -1.2260   11.5520   -4.6120 F   0  0  0  0  0  0  0  0  0  0  0  0
    0.3770   13.2500   -4.6450 C   0  0  0  0  0  0  0  0  0  0  0  0
   -4.3070   16.1180   -0.1310 C   0  0  0  0  0  0  0  0  0  0  0  0
   -3.8620   16.3830    1.2380 C   0  0  0  0  0  0  0  0  0  0  0  0
  1  2  1  0
  2  3  1  0
  4  2  1  6
  3  5  1  0
  4  6  1  0
  6  5  1  6
  4  7  1  0
  6  8  1  0
  7  9  1  1
  7 10  1  0
  7 11  1  0
  8 12  1  0
  8 13  1  0
  9 13  1  0
 10 14  1  0
 11 15  1  0
  8 16  1  0
  8 17  1  0
 14 18  1  6
 14 19  1  0
 15 19  1  0
 17 20  1  0
 16 21  1  0
 20 21  1  0
M  END
