ucsf147-ucsf422
     RDKit          3D

 27 31  0  0  0  0  0  0  0  0999 V2000
    0.6910   13.1320   -4.0450 C   0  0  0  0  0  0  0  0  0  0  0  0
    1.5030   12.2760   -3.0870 C   0  0  2  0  0  0  0  0  0  0  0  0
    0.9120   11.0930   -2.9670 O   0  0  0  0  0  0  0  0  0  0  0  0
   -0.5900   12.4350   -4.1660 C   0  0  2  0  0  0  0  0  0  0  0  0
    0.8700   14.4370   -4.8170 C   0  0  2  0  0  0  0  0  0  0  0  0
    1.2410   12.9210   -1.8420 O   0  0  0  0  0  0  0  0  0  0  0  0
   -1.4900   12.8450   -5.2150 O   0  0  0  0  0  0  0  0  0  0  0  0
   -1.1600   12.8000   -2.8220 C   0  0  1  0  0  0  0  0  0  0  0  0
    1.9180   15.3850   -4.3740 C   0  0  0  0  0  0  0  0  0  0  0  0
   -0.2820   15.4110   -4.5370 C   0  0  1  0  0  0  0  0  0  0  0  0
   -0.1150   13.4620   -1.7860 C   0  0  2  0  0  0  0  0  0  0  0  0
   -2.7300   13.2770   -4.5380 N   0  0  0  0  0  0  0  0  0  0  0  0
   -2.1850   13.8160   -3.2590 C   0  0  1  0  0  0  0  0  0  0  0  0
    1.6060   16.5640   -5.2380 N   0  0  0  0  0  0  0  0  0  0  0  0
    0.2360   16.8050   -4.8660 C   0  0  1  0  0  0  0  0  0  0  0  0
   -1.6130   15.0230   -5.0970 C   0  0  0  0  0  0  0  0  0  0  0  0
   -0.0150   14.7680   -2.0390 O   0  0  0  0  0  0  0  0  0  0  0  0
   -3.2330   14.1320   -2.1940 C   0  0  0  0  0  0  0  0  0  0  0  0
   -0.5780   17.6510   -5.8440 C   0  0  0  0  0  0  0  0  0  0  0  0
   -2.6100   16.1470   -5.1800 C   0  0  2  0  0  0  0  0  0  0  0  0
   -4.1430   15.3830   -6.1530 Br  0  0  0  0  0  0  0  0  0  0  0  0
   -2.5960   14.3800   -0.8150 C   0  0  0  0  0  0  0  0  0  0  0  0
   -4.1400   15.2940   -2.5880 C   0  0  0  0  0  0  0  0  0  0  0  0
   -2.1030   17.4500   -5.7950 C   0  0  0  0  0  0  0  0  0  0  0  0
   -3.5420   14.9880    0.2140 C   0  0  0  0  0  0  0  0  0  0  0  0
   -5.2410   15.5270   -1.5510 C   0  0  0  0  0  0  0  0  0  0  0  0
   -4.9890   14.8710   -0.2070 C   0  0  0  0  0  0  0  0  0  0  0  0
  1  2  1  0
  2  3  1  1
  1  4  1  0
  5  1  1  1
  2  6  1  0
  4  7  1  6
  4  8  1  0
  5  9  1  0
  5 10  1  0
  6 11  1  0
  8 11  1  1
  7 12  1  0
  8 13  1  0
 12 13  1  0
  9 14  1  0
 10 15  1  0
 14 15  1  0
 10 16  1  6
 11 17  1  6
 13 18  1  1
 15 19  1  6
 16 20  1  0
 20 21  1  6
 18 22  1  0
 18 23  1  0
 19 24  1  0
 20 24  1  0
 22 25  1  0
 23 26  1  0
 25 27  1  0
 26 27  1  0
M  CHG  2   3  -1  17  -1
M  END
