ucsf248-ucsf411
     RDKit          3D

 29 32  0  0  0  0  0  0  0  0999 V2000
   -8.5880   12.7000    2.7780 N   0  0  0  0  0  0  0  0  0  0  0  0
   -8.3460   14.2220    2.1970 S   0  0  0  0  0  0  0  0  0  0  0  0
   -8.3480   15.3070    3.3710 O   0  0  0  0  0  0  0  0  0  0  0  0
   -9.5530   14.6630    1.2300 O   0  0  0  0  0  0  0  0  0  0  0  0
   -6.8640   14.5990    1.2430 C   0  0  1  0  0  0  0  0  0  0  0  0
   -5.8430   13.5680    1.2680 N   0  0  0  0  0  0  0  0  0  0  0  0
   -7.0730   14.8170   -0.1880 N   0  0  0  0  0  0  0  0  0  0  0  0
   -4.9810   13.9210    0.1300 C   0  0  1  0  0  0  0  0  0  0  0  0
   -5.6930   15.0360   -0.5930 C   0  0  1  0  0  0  0  0  0  0  0  0
   -3.5920   14.4280    0.4330 C   0  0  0  0  0  0  0  0  0  0  0  0
   -5.3470   14.9140   -2.0580 C   0  0  0  0  0  0  0  0  0  0  0  0
   -3.0130   15.0040   -0.8790 C   0  0  0  0  0  0  0  0  0  0  0  0
   -3.8060   14.7290   -2.2180 C   0  0  2  0  0  0  0  0  0  0  0  0
   -3.2330   15.7230   -3.2340 C   0  0  0  0  0  0  0  0  0  0  0  0
   -2.7200   15.4710   -4.6820 C   0  0  1  0  0  0  0  0  0  0  0  0
   -1.4970   16.4090   -4.7070 C   0  0  1  0  0  0  0  0  0  0  0  0
   -2.4420   14.0310   -5.1190 C   0  0  0  0  0  0  0  0  0  0  0  0
   -0.1150   15.7660   -4.4990 C   0  0  1  0  0  0  0  0  0  0  0  0
   -1.1730   13.4520   -4.5310 C   0  0  0  0  0  0  0  0  0  0  0  0
   -1.4920   17.5400   -5.7320 C   0  0  0  0  0  0  0  0  0  0  0  0
    0.0670   14.2690   -4.8720 C   0  0  2  0  0  0  0  0  0  0  0  0
   -0.5350   18.5970   -5.2390 C   0  0  0  0  0  0  0  0  0  0  0  0
    1.0210   16.5780   -5.1140 C   0  0  0  0  0  0  0  0  0  0  0  0
    1.1740   13.8160   -4.0750 O   0  0  0  0  0  0  0  0  0  0  0  0
    0.8920   18.0950   -4.9950 C   0  0  0  0  0  0  0  0  0  0  0  0
    1.2620   12.4070   -3.7390 C   0  0  0  0  0  0  0  0  0  0  0  0
    0.3350   11.8130   -2.6020 C   0  0  1  0  0  0  0  0  0  0  0  0
    0.5830   10.5360   -2.3150 O   0  0  0  0  0  0  0  0  0  0  0  0
    0.5670   12.4580   -1.3660 O   0  0  0  0  0  0  0  0  0  0  0  0
  1  2  1  0
  2  3  1  0
  2  4  1  0
  5  2  1  6
  5  6  1  0
  5  7  1  0
  6  8  1  0
  7  9  1  0
  8  9  1  0
  8 10  1  1
  9 11  1  6
 10 12  1  0
 11 13  1  0
 12 13  1  0
 13 14  1  6
 15 14  1  1
 15 16  1  0
 15 17  1  0
 16 18  1  0
 17 19  1  0
 16 20  1  6
 18 21  1  0
 19 21  1  0
 20 22  1  0
 18 23  1  6
 21 24  1  1
 22 25  1  0
 23 25  1  0
 24 26  1  0
 26 27  1  0
 27 28  1  1
 27 29  1  0
M  CHG  1  28  -1
M  END
