ucsf345-ucsf584
     RDKit          3D

 13 14  0  0  0  0  0  0  0  0999 V2000
   -5.0510   15.4140    1.9910 N   0  0  0  0  0  0  0  0  0  0  0  0
   -6.0860   14.6820    1.5310 C   0  0  2  0  0  0  0  0  0  0  0  0
   -6.3110   13.4190    1.8640 O   0  0  0  0  0  0  0  0  0  0  0  0
   -6.2890   14.8100   -0.3340 S   0  0  0  0  0  0  0  0  0  0  0  0
   -5.1620   13.8060   -1.0950 N   0  0  0  0  0  0  0  0  0  0  0  0
   -4.9360   15.7290   -1.3210 C   0  0  0  0  0  0  0  0  0  0  0  0
   -7.4960   13.5400   -0.4670 N   0  0  0  0  0  0  0  0  0  0  0  0
   -8.0410   15.3630   -0.8710 N   0  0  0  0  0  0  0  0  0  0  0  0
   -4.6500   13.8240   -2.3510 C   0  0  0  0  0  0  0  0  0  0  0  0
   -3.6870   15.2170   -1.1400 N   0  0  0  0  0  0  0  0  0  0  0  0
   -8.8180   15.0130    0.2760 C   0  0  0  0  0  0  0  0  0  0  0  0
   -8.3270   13.6990    0.5960 C   0  0  0  0  0  0  0  0  0  0  0  0
   -3.2320   14.3180   -2.0250 C   0  0  0  0  0  0  0  0  0  0  0  0
  2  1  1  6
  2  3  1  0
  2  4  1  0
  4  5  1  0
  4  6  1  0
  4  7  1  0
  4  8  1  0
  5  9  1  0
  6 10  1  0
  8 11  1  0
  7 12  1  0
 11 12  1  0
  9 13  1  0
 10 13  1  0
M  END
