ucsf109-ucsf364
     RDKit          3D

 25 28  0  0  0  0  0  0  0  0999 V2000
   -4.0050   15.3760    1.9060 N   0  0  0  0  0  0  0  0  0  0  0  0
   -4.7790   14.3740    1.1910 C   0  0  2  0  0  0  0  0  0  0  0  0
   -4.2900   14.1880   -0.2520 C   0  0  1  0  0  0  0  0  0  0  0  0
   -6.1490   14.8210    1.2450 N   0  0  0  0  0  0  0  0  0  0  0  0
   -6.9640   14.0910    0.3300 C   0  0  2  0  0  0  0  0  0  0  0  0
   -5.3680   13.9830   -1.3590 C   0  0  1  0  0  0  0  0  0  0  0  0
   -3.3740   15.2480   -0.7990 C   0  0  0  0  0  0  0  0  0  0  0  0
   -6.8370   14.8050    2.5480 N   0  0  0  0  0  0  0  0  0  0  0  0
   -6.6740   14.5430   -1.0060 N   0  0  0  0  0  0  0  0  0  0  0  0
   -4.7220   14.5330   -2.6450 C   0  0  0  0  0  0  0  0  0  0  0  0
   -3.2610   14.8560   -2.2640 C   0  0  2  0  0  0  0  0  0  0  0  0
   -8.2960   14.4550    0.7470 N   0  0  0  0  0  0  0  0  0  0  0  0
   -8.1720   14.3160    2.2030 C   0  0  0  0  0  0  0  0  0  0  0  0
   -2.2580   13.7090   -2.4700 C   0  0  0  0  0  0  0  0  0  0  0  0
   -0.9590   14.0490   -1.9420 O   0  0  0  0  0  0  0  0  0  0  0  0
    0.1420   13.2200   -2.3800 C   0  0  1  0  0  0  0  0  0  0  0  0
    0.2240   12.0940   -1.6560 O   0  0  0  0  0  0  0  0  0  0  0  0
   -0.1630   12.8980   -3.8930 C   0  0  1  0  0  0  0  0  0  0  0  0
    0.9620   13.0290   -4.9840 C   0  0  1  0  0  0  0  0  0  0  0  0
   -0.9930   11.5820   -4.0560 C   0  0  0  0  0  0  0  0  0  0  0  0
    2.4260   13.1040   -4.5240 C   0  0  0  0  0  0  0  0  0  0  0  0
   -1.6090   11.3910   -5.4400 C   0  0  0  0  0  0  0  0  0  0  0  0
    0.7530   11.8770   -5.9590 C   0  0  2  0  0  0  0  0  0  0  0  0
    1.7510   11.7710   -6.9750 O   0  0  0  0  0  0  0  0  0  0  0  0
   -0.6440   11.8260   -6.5370 C   0  0  0  0  0  0  0  0  0  0  0  0
  2  1  1  6
  2  3  1  0
  2  4  1  0
  4  5  1  0
  3  6  1  0
  3  7  1  6
  4  8  1  0
  5  9  1  6
  6  9  1  0
  6 10  1  6
  7 11  1  0
 10 11  1  0
  5 12  1  0
  8 13  1  0
 12 13  1  0
 11 14  1  1
 14 15  1  0
 15 16  1  0
 16 17  1  1
 16 18  1  0
 18 19  1  0
 18 20  1  1
 19 21  1  1
 20 22  1  0
 19 23  1  0
 23 24  1  6
 22 25  1  0
 23 25  1  0
M  CHG  1  17  -1
M  END
