ucsf371-ucsf367
     RDKit          3D

 21 22  0  0  0  0  0  0  0  0999 V2000
   -4.8550   15.3790    0.4090 C   0  0  0  0  0  0  0  0  0  0  0  0
   -4.0320   14.6550   -0.6430 C   0  0  1  0  0  0  0  0  0  0  0  0
   -4.5930   14.8790   -1.9830 N   0  0  0  0  0  0  0  0  0  0  0  0
   -2.3130   15.2490   -0.6220 S   0  0  0  0  0  0  0  0  0  0  0  0
   -3.4850   14.8540   -2.9420 C   0  0  0  0  0  0  0  0  0  0  0  0
   -2.3230   15.6630   -2.3920 C   0  0  2  0  0  0  0  0  0  0  0  0
   -0.9660   15.6090   -3.1120 C   0  0  2  0  0  0  0  0  0  0  0  0
   -1.0590   14.6480   -4.1740 O   0  0  0  0  0  0  0  0  0  0  0  0
    0.1490   15.2260   -2.3340 O   0  0  0  0  0  0  0  0  0  0  0  0
    1.1430   14.4540   -3.0080 C   0  0  0  0  0  0  0  0  0  0  0  0
    1.0970   13.1460   -2.4530 O   0  0  0  0  0  0  0  0  0  0  0  0
    1.3410   12.1000   -3.4010 C   0  0  1  0  0  0  0  0  0  0  0  0
    0.6960   11.0270   -2.9560 O   0  0  0  0  0  0  0  0  0  0  0  0
    0.7710   12.5670   -4.7950 C   0  0  0  0  0  0  0  0  0  0  0  0
    0.6840   11.5490   -5.8120 O   0  0  0  0  0  0  0  0  0  0  0  0
   -0.3480   10.5850   -5.6310 C   0  0  0  0  0  0  0  0  0  0  0  0
   -0.4660    9.7270   -6.8900 C   0  0  0  0  0  0  0  0  0  0  0  0
   -1.6720   11.2950   -5.3720 C   0  0  0  0  0  0  0  0  0  0  0  0
   -1.5480    8.6700   -6.7160 C   0  0  0  0  0  0  0  0  0  0  0  0
   -2.8080   10.2910   -5.2100 C   0  0  0  0  0  0  0  0  0  0  0  0
   -2.8940    9.3020   -6.3740 C   0  0  0  0  0  0  0  0  0  0  0  0
  2  1  1  1
  2  3  1  0
  2  4  1  0
  3  5  1  0
  4  6  1  0
  6  5  1  6
  6  7  1  0
  7  8  1  6
  7  9  1  0
  9 10  1  0
 10 11  1  0
 11 12  1  0
 12 13  1  1
 12 14  1  0
 14 15  1  0
 15 16  1  0
 16 17  1  0
 16 18  1  0
 17 19  1  0
 18 20  1  0
 19 21  1  0
 20 21  1  0
M  CHG  1  13  -1
M  END
