ucsf357-ucsf348
     RDKit          3D

 16 17  0  0  0  0  0  0  0  0999 V2000
   -6.0780   15.4590   -2.7280 O   0  0  0  0  0  0  0  0  0  0  0  0
   -5.6490   15.6610   -1.5180 C   0  0  1  0  0  0  0  0  0  0  0  0
   -6.7970   15.3870   -0.7380 O   0  0  0  0  0  0  0  0  0  0  0  0
   -4.5770   14.6350   -1.1050 C   0  0  1  0  0  0  0  0  0  0  0  0
   -3.7590   14.2060   -2.3700 C   0  0  0  0  0  0  0  0  0  0  0  0
   -3.7130   15.1550    0.0730 C   0  0  2  0  0  0  0  0  0  0  0  0
   -5.3830   13.4460   -0.5990 C   0  0  0  0  0  0  0  0  0  0  0  0
   -2.3310   14.6910   -2.4020 C   0  0  2  0  0  0  0  0  0  0  0  0
   -2.2880   14.5540    0.2030 C   0  0  0  0  0  0  0  0  0  0  0  0
   -6.3330   13.8820    0.3910 N   0  0  0  0  0  0  0  0  0  0  0  0
   -4.5030   15.1870    1.3580 N   0  0  0  0  0  0  0  0  0  0  0  0
   -1.6620   14.2620   -3.5110 F   0  0  0  0  0  0  0  0  0  0  0  0
   -1.5310   14.3620   -1.1430 C   0  0  2  0  0  0  0  0  0  0  0  0
   -5.6370   14.2860    1.5420 C   0  0  1  0  0  0  0  0  0  0  0  0
   -0.2700   15.0620   -1.1600 O   0  0  0  0  0  0  0  0  0  0  0  0
   -6.5840   14.8260    2.4800 N   0  0  0  0  0  0  0  0  0  0  0  0
  2  1  1  6
  2  3  1  0
  2  4  1  0
  4  5  1  6
  4  6  1  0
  4  7  1  0
  5  8  1  0
  6  9  1  1
  7 10  1  0
  6 11  1  0
  8 12  1  6
  8 13  1  0
  9 13  1  0
 10 14  1  0
 11 14  1  0
 13 15  1  1
 14 16  1  1
M  CHG  1   1  -1
M  END
