ucsf404-ucsf247
     RDKit          3D

 19 20  0  0  0  0  0  0  0  0999 V2000
   -6.4610   15.0620   -2.5160 Cl  0  0  0  0  0  0  0  0  0  0  0  0
   -5.0530   14.2170   -1.7590 C   0  0  2  0  0  0  0  0  0  0  0  0
   -4.2370   14.9750   -0.6600 C   0  0  1  0  0  0  0  0  0  0  0  0
   -4.1360   13.7240   -2.8600 C   0  0  0  0  0  0  0  0  0  0  0  0
   -3.0980   15.7700   -1.5310 C   0  0  1  0  0  0  0  0  0  0  0  0
   -5.2260   15.6300    0.3450 N   0  0  0  0  0  0  0  0  0  0  0  0
   -3.3080   14.0870    0.1180 C   0  0  1  0  0  0  0  0  0  0  0  0
   -2.7480   13.4000   -2.3090 C   0  0  0  0  0  0  0  0  0  0  0  0
   -1.7690   15.1080   -1.5470 N   0  0  0  0  0  0  0  0  0  0  0  0
   -3.5440   16.0130   -2.8720 O   0  0  0  0  0  0  0  0  0  0  0  0
   -6.5990   15.2170   -0.0640 O   0  0  0  0  0  0  0  0  0  0  0  0
   -5.0810   15.0060    1.6940 C   0  0  2  0  0  0  0  0  0  0  0  0
   -4.2270   13.4500    1.5330 S   0  0  0  0  0  0  0  0  0  0  0  0
   -2.7460   13.0410   -0.8110 C   0  0  0  0  0  0  0  0  0  0  0  0
   -6.3730   14.7950    2.3320 N   0  0  0  0  0  0  0  0  0  0  0  0
   -0.8960   15.1640   -2.7700 C   0  0  0  0  0  0  0  0  0  0  0  0
    0.1180   13.9670   -2.9310 C   0  0  2  0  0  0  0  0  0  0  0  0
    0.4380   13.4170   -1.7710 O   0  0  0  0  0  0  0  0  0  0  0  0
    1.3830   14.4410   -3.3800 O   0  0  0  0  0  0  0  0  0  0  0  0
  2  1  1  6
  2  3  1  0
  2  4  1  0
  3  5  1  0
  3  6  1  1
  3  7  1  0
  4  8  1  0
  5  9  1  0
  5 10  1  6
  6 11  1  0
  6 12  1  0
  7 13  1  0
 12 13  1  0
  7 14  1  6
  8 14  1  0
 12 15  1  6
  9 16  1  0
 16 17  1  0
 17 18  1  1
 17 19  1  0
M  CHG  1  18  -1
M  END
