ucsf365-ucsf364
     RDKit          3D

 18 19  0  0  0  0  0  0  0  0999 V2000
    0.3660   11.1520   -1.5770 O   0  0  0  0  0  0  0  0  0  0  0  0
    0.5060   12.1780   -2.3990 C   0  0  0  0  0  0  0  0  0  0  0  0
    1.8660   12.4370   -2.4600 O   0  0  0  0  0  0  0  0  0  0  0  0
   -0.1120   13.2440   -1.7260 O   0  0  0  0  0  0  0  0  0  0  0  0
   -0.1930   11.9380   -3.7490 C   0  0  1  0  0  0  0  0  0  0  0  0
    0.3300   12.7800   -4.9580 C   0  0  2  0  0  0  0  0  0  0  0  0
   -0.4910   10.4740   -4.0810 C   0  0  0  0  0  0  0  0  0  0  0  0
   -0.8640   13.6820   -5.3410 C   0  0  1  0  0  0  0  0  0  0  0  0
   -0.8600   10.1330   -5.5240 C   0  0  0  0  0  0  0  0  0  0  0  0
    0.6650   12.0860   -6.3040 C   0  0  1  0  0  0  0  0  0  0  0  0
    2.0590   11.9810   -6.5740 O   0  0  0  0  0  0  0  0  0  0  0  0
   -2.1900   13.0410   -4.9450 C   0  0  2  0  0  0  0  0  0  0  0  0
   -0.8190   15.1480   -4.8980 C   0  0  0  0  0  0  0  0  0  0  0  0
   -0.0470   10.7800   -6.6360 C   0  0  0  0  0  0  0  0  0  0  0  0
   -2.1430   11.6300   -5.1230 O   0  0  0  0  0  0  0  0  0  0  0  0
   -3.2790   13.5920   -5.8260 C   0  0  0  0  0  0  0  0  0  0  0  0
   -2.1940   15.8230   -4.9810 C   0  0  0  0  0  0  0  0  0  0  0  0
   -3.2560   15.1180   -5.8550 C   0  0  0  0  0  0  0  0  0  0  0  0
  2  1  1  0
  2  3  1  0
  2  4  1  0
  5  2  1  1
  6  5  1  1
  5  7  1  0
  6  8  1  0
  7  9  1  0
  6 10  1  0
 10 11  1  1
  8 12  1  0
  8 13  1  1
  9 14  1  0
 10 14  1  0
 12 15  1  6
 12 16  1  0
 13 17  1  0
 16 18  1  0
 17 18  1  0
M  CHG  1   1  -1
M  END
