ucsf124-ucsf584
     RDKit          3D

 29 32  0  0  0  0  0  0  0  0999 V2000
    0.6660   11.2360   -2.7220 O   0  0  0  0  0  0  0  0  0  0  0  0
    1.3940   12.2200   -3.2200 C   0  0  2  0  0  0  0  0  0  0  0  0
    1.1370   13.2160   -2.2470 O   0  0  0  0  0  0  0  0  0  0  0  0
    0.8960   12.6980   -4.6440 C   0  0  0  0  0  0  0  0  0  0  0  0
    0.0440   11.8070   -5.5150 N   0  0  0  0  0  0  0  0  0  0  0  0
   -0.6860   10.6830   -4.9110 C   0  0  1  0  0  0  0  0  0  0  0  0
    0.7680   11.3110   -6.6890 C   0  0  2  0  0  0  0  0  0  0  0  0
   -2.0070   11.1300   -4.5450 O   0  0  0  0  0  0  0  0  0  0  0  0
    0.5370   12.2100   -7.7090 O   0  0  0  0  0  0  0  0  0  0  0  0
   -0.8350    9.6080   -6.0090 C   0  0  2  0  0  0  0  0  0  0  0  0
    0.1800    9.9540   -7.1060 C   0  0  1  0  0  0  0  0  0  0  0  0
   -2.0470   12.5010   -4.1460 C   0  0  0  0  0  0  0  0  0  0  0  0
   -2.2460    9.3620   -6.5470 C   0  0  0  0  0  0  0  0  0  0  0  0
   -0.3830    9.8600   -8.5160 C   0  0  0  0  0  0  0  0  0  0  0  0
   -1.7430   12.5550   -2.6540 C   0  0  0  0  0  0  0  0  0  0  0  0
   -2.2190    8.2990   -7.6440 C   0  0  0  0  0  0  0  0  0  0  0  0
   -1.1350    8.5440   -8.7030 C   0  0  0  0  0  0  0  0  0  0  0  0
   -2.9690   13.0510   -1.8900 C   0  0  0  0  0  0  0  0  0  0  0  0
   -3.0480   14.5170   -1.7890 N   0  0  0  0  0  0  0  0  0  0  0  0
   -3.0950   14.8980   -0.3790 C   0  0  0  0  0  0  0  0  0  0  0  0
   -4.1970   15.1010   -2.4880 C   0  0  0  0  0  0  0  0  0  0  0  0
   -4.3210   14.3750    0.3260 C   0  0  0  0  0  0  0  0  0  0  0  0
   -5.5610   14.8570   -1.8250 C   0  0  0  0  0  0  0  0  0  0  0  0
   -5.5130   15.0890   -0.3040 C   0  0  0  0  0  0  0  0  0  0  0  0
   -6.8620   14.8180    0.3880 C   0  0  0  0  0  0  0  0  0  0  0  0
   -6.7850   14.8410    1.8490 N   0  0  0  0  0  0  0  0  0  0  0  0
   -7.5640   13.6090    0.0950 N   0  0  0  0  0  0  0  0  0  0  0  0
   -8.6670   13.6960    1.0560 C   0  0  0  0  0  0  0  0  0  0  0  0
   -8.0800   14.3560    2.2990 C   0  0  0  0  0  0  0  0  0  0  0  0
  2  1  1  1
  2  3  1  0
  2  4  1  0
  4  5  1  0
  5  6  1  0
  5  7  1  0
  6  8  1  6
  7  9  1  6
  6 10  1  0
  7 11  1  0
 10 11  1  0
  8 12  1  0
 10 13  1  6
 11 14  1  6
 12 15  1  0
 13 16  1  0
 14 17  1  0
 16 17  1  0
 15 18  1  0
 18 19  1  0
 19 20  1  0
 19 21  1  0
 20 22  1  0
 21 23  1  0
 22 24  1  0
 23 24  1  0
 24 25  1  0
 25 26  1  0
 25 27  1  0
 27 28  1  0
 26 29  1  0
 28 29  1  0
M  CHG  1   1  -1
M  END
