ucsf337-ucsf005
     RDKit          3D

 20 22  0  0  0  0  0  0  0  0999 V2000
   -7.5120   13.5090    1.3040 C   0  0  0  0  0  0  0  0  0  0  0  0
   -7.0470   14.5110    0.2440 C   0  0  2  0  0  0  0  0  0  0  0  0
   -7.3820   13.9570   -1.0820 N   0  0  0  0  0  0  0  0  0  0  0  0
   -5.5430   14.8740    0.4520 C   0  0  1  0  0  0  0  0  0  0  0  0
   -4.7810   13.6740    0.4410 O   0  0  0  0  0  0  0  0  0  0  0  0
   -5.0230   15.8020   -0.6340 C   0  0  0  0  0  0  0  0  0  0  0  0
   -6.4550   14.2770   -2.1370 C   0  0  1  0  0  0  0  0  0  0  0  0
   -7.3110   14.3380   -3.3030 N   0  0  0  0  0  0  0  0  0  0  0  0
   -5.6920   15.5820   -1.9780 C   0  0  0  0  0  0  0  0  0  0  0  0
   -3.3380   13.7280    0.3500 C   0  0  1  0  0  0  0  0  0  0  0  0
   -2.8930   13.5760   -1.1230 C   0  0  1  0  0  0  0  0  0  0  0  0
   -2.6580   14.8160    1.0570 N   0  0  0  0  0  0  0  0  0  0  0  0
   -3.8630   13.6130   -2.2270 N   0  0  0  0  0  0  0  0  0  0  0  0
   -2.0820   14.8030   -1.3840 C   0  0  2  0  0  0  0  0  0  0  0  0
   -1.2470   14.9730    0.7990 C   0  0  1  0  0  0  0  0  0  0  0  0
   -0.5170   14.0160    1.5660 N   0  0  0  0  0  0  0  0  0  0  0  0
   -1.8300   14.7010   -2.8080 N   0  0  0  0  0  0  0  0  0  0  0  0
   -3.1040   14.2110   -3.3390 C   0  0  0  0  0  0  0  0  0  0  0  0
   -0.8900   14.7510   -0.5650 N   0  0  0  0  0  0  0  0  0  0  0  0
   -0.7030   13.8660   -3.1680 C   0  0  0  0  0  0  0  0  0  0  0  0
  2  1  1  1
  2  3  1  0
  2  4  1  0
  4  5  1  6
  4  6  1  0
  3  7  1  0
  7  8  1  6
  6  9  1  0
  7  9  1  0
 10  5  1  6
 10 11  1  0
 10 12  1  0
 11 13  1  6
 11 14  1  0
 12 15  1  0
 15 16  1  1
 14 17  1  0
 13 18  1  0
 17 18  1  0
 14 19  1  1
 15 19  1  0
 17 20  1  0
M  END
