ucsf364-ucsf385
     RDKit          3D

 19 20  0  0  0  0  0  0  0  0999 V2000
    2.3540   12.3440   -4.2970 C   0  0  0  0  0  0  0  0  0  0  0  0
    0.9410   12.7140   -4.7680 C   0  0  1  0  0  0  0  0  0  0  0  0
    0.7360   12.3430   -6.2360 C   0  0  1  0  0  0  0  0  0  0  0  0
   -0.3190   12.4660   -3.8820 C   0  0  2  0  0  0  0  0  0  0  0  0
    1.9110   11.8800   -6.8560 O   0  0  0  0  0  0  0  0  0  0  0  0
   -0.3260   12.9170   -2.3820 C   0  0  2  0  0  0  0  0  0  0  0  0
   -1.0440   11.1340   -4.1170 C   0  0  0  0  0  0  0  0  0  0  0  0
   -0.4480   11.4320   -6.6210 C   0  0  0  0  0  0  0  0  0  0  0  0
   -0.6000   14.3680   -2.2220 N   0  0  0  0  0  0  0  0  0  0  0  0
    0.6790   12.3710   -1.6790 O   0  0  0  0  0  0  0  0  0  0  0  0
   -1.4210   10.9030   -5.5580 C   0  0  0  0  0  0  0  0  0  0  0  0
   -1.5080   14.9570   -3.1630 O   0  0  0  0  0  0  0  0  0  0  0  0
   -1.0100   14.6580   -0.8560 C   0  0  1  0  0  0  0  0  0  0  0  0
   -2.5670   14.7150   -0.5150 C   0  0  1  0  0  0  0  0  0  0  0  0
   -0.3000   13.7040    0.0880 C   0  0  0  0  0  0  0  0  0  0  0  0
   -3.4130   13.8620   -1.3810 N   0  0  0  0  0  0  0  0  0  0  0  0
   -0.4610   14.1630    1.5150 C   0  0  0  0  0  0  0  0  0  0  0  0
   -2.8200   14.4030    0.9610 C   0  0  0  0  0  0  0  0  0  0  0  0
   -1.6990   14.9050    1.7550 N   0  0  0  0  0  0  0  0  0  0  0  0
  2  1  1  1
  2  3  1  0
  2  4  1  0
  3  5  1  1
  4  6  1  0
  4  7  1  1
  3  8  1  0
  6  9  1  0
  6 10  1  6
  7 11  1  0
  8 11  1  0
  9 12  1  0
 13  9  1  6
 13 14  1  0
 13 15  1  0
 14 16  1  6
 15 17  1  0
 14 18  1  0
 17 19  1  0
 18 19  1  0
M  CHG  2  10  -1  12  -1
M  END
