ucsf404-ucsf387
     RDKit          3D

 25 27  0  0  0  0  0  0  0  0999 V2000
   -7.0270   15.1800   -1.8510 Cl  0  0  0  0  0  0  0  0  0  0  0  0
   -5.3050   15.2350   -1.3630 C   0  0  1  0  0  0  0  0  0  0  0  0
   -5.1130   14.6640    0.0290 C   0  0  2  0  0  0  0  0  0  0  0  0
   -4.3790   14.3450   -2.1970 C   0  0  2  0  0  0  0  0  0  0  0  0
   -6.1460   14.8960    1.0480 N   0  0  0  0  0  0  0  0  0  0  0  0
   -3.8100   15.2390    0.5510 C   0  0  1  0  0  0  0  0  0  0  0  0
   -2.9180   14.6830   -1.7990 C   0  0  0  0  0  0  0  0  0  0  0  0
   -4.6190   14.3330   -3.7300 C   0  0  0  0  0  0  0  0  0  0  0  0
   -5.5880   14.3150    2.2360 C   0  0  1  0  0  0  0  0  0  0  0  0
   -3.8510   14.7880    2.2990 S   0  0  0  0  0  0  0  0  0  0  0  0
   -2.6440   14.6800   -0.2650 C   0  0  0  0  0  0  0  0  0  0  0  0
   -3.8800   15.2630   -4.6770 C   0  0  0  0  0  0  0  0  0  0  0  0
   -6.3310   14.8960    3.3060 N   0  0  0  0  0  0  0  0  0  0  0  0
   -2.7940   14.6540   -5.5220 C   0  0  0  0  0  0  0  0  0  0  0  0
   -1.3730   15.0940   -5.1680 C   0  0  2  0  0  0  0  0  0  0  0  0
   -0.7690   14.3400   -4.0310 C   0  0  0  0  0  0  0  0  0  0  0  0
   -1.0870   16.5740   -5.0080 C   0  0  0  0  0  0  0  0  0  0  0  0
    0.7070   14.2260   -4.3720 C   0  0  2  0  0  0  0  0  0  0  0  0
    0.3150   16.8300   -4.4370 C   0  0  2  0  0  0  0  0  0  0  0  0
    0.9570   18.2060   -5.3770 Cl  0  0  0  0  0  0  0  0  0  0  0  0
    1.4460   13.2270   -3.4580 C   0  0  0  0  0  0  0  0  0  0  0  0
    1.3130   15.6440   -4.3980 C   0  0  0  0  0  0  0  0  0  0  0  0
    0.4490   12.4410   -2.5770 C   0  0  1  0  0  0  0  0  0  0  0  0
    0.7040   11.1550   -2.5910 O   0  0  0  0  0  0  0  0  0  0  0  0
    0.6680   12.7530   -1.2220 O   0  0  0  0  0  0  0  0  0  0  0  0
  2  1  1  6
  2  3  1  0
  2  4  1  0
  3  5  1  1
  3  6  1  0
  4  7  1  0
  4  8  1  6
  5  9  1  0
  6 10  1  0
  9 10  1  0
  6 11  1  6
  7 11  1  0
  8 12  1  0
  9 13  1  1
 12 14  1  0
 15 14  1  1
 15 16  1  0
 15 17  1  0
 16 18  1  0
 17 19  1  0
 19 20  1  6
 18 21  1  1
 18 22  1  0
 19 22  1  0
 21 23  1  0
 23 24  1  1
 23 25  1  0
M  CHG  1  24  -1
M  END
