ucsf247-ucsf028
     RDKit          3D

 31 34  0  0  0  0  0  0  0  0999 V2000
    0.3390   13.3970   -1.8690 O   0  0  0  0  0  0  0  0  0  0  0  0
   -0.1930   14.5220   -2.3640 C   0  0  1  0  0  0  0  0  0  0  0  0
    0.8420   14.9030   -3.2530 O   0  0  0  0  0  0  0  0  0  0  0  0
   -1.6770   14.3020   -3.1120 C   0  0  1  0  0  0  0  0  0  0  0  0
   -2.8670   13.4330   -2.8140 N   0  0  0  0  0  0  0  0  0  0  0  0
   -2.1400   14.8050   -1.7430 N   0  0  0  0  0  0  0  0  0  0  0  0
   -0.9740   12.9240   -3.5230 C   0  0  1  0  0  0  0  0  0  0  0  0
   -4.1760   13.9010   -3.2580 C   0  0  1  0  0  0  0  0  0  0  0  0
   -3.5470   15.2870   -1.7390 C   0  0  0  0  0  0  0  0  0  0  0  0
   -1.7530   14.1680   -0.4890 C   0  0  2  0  0  0  0  0  0  0  0  0
   -1.4360   12.3530   -4.8480 C   0  0  0  0  0  0  0  0  0  0  0  0
    0.4590   12.9370   -3.6870 O   0  0  0  0  0  0  0  0  0  0  0  0
   -4.6960   12.9470   -4.1710 O   0  0  0  0  0  0  0  0  0  0  0  0
   -5.1410   14.0150   -2.0360 C   0  0  1  0  0  0  0  0  0  0  0  0
   -4.0530   15.8550   -0.4650 N   0  0  0  0  0  0  0  0  0  0  0  0
   -2.2310   14.8890    0.7570 C   0  0  1  0  0  0  0  0  0  0  0  0
   -0.3520   13.8990   -0.1590 N   0  0  0  0  0  0  0  0  0  0  0  0
    0.8290   11.8900   -4.6580 N   0  0  0  0  0  0  0  0  0  0  0  0
   -0.4230   11.2530   -5.0270 C   0  0  2  0  0  0  0  0  0  0  0  0
   -0.3380   10.7610   -6.3560 O   0  0  0  0  0  0  0  0  0  0  0  0
   -6.5560   14.4700   -2.4320 C   0  0  0  0  0  0  0  0  0  0  0  0
   -5.1840   12.7420   -1.1500 C   0  0  0  0  0  0  0  0  0  0  0  0
   -3.7500   15.0040    0.6470 C   0  0  1  0  0  0  0  0  0  0  0  0
   -1.6530   14.0380    1.7660 N   0  0  0  0  0  0  0  0  0  0  0  0
   -0.2830   14.0210    1.2920 C   0  0  0  0  0  0  0  0  0  0  0  0
   -4.3920   15.6710    1.7680 N   0  0  0  0  0  0  0  0  0  0  0  0
    0.5270   11.5460   -7.1600 C   0  0  0  0  0  0  0  0  0  0  0  0
   -7.3940   14.7970   -1.1990 C   0  0  1  0  0  0  0  0  0  0  0  0
   -6.1030   12.9380    0.0540 C   0  0  0  0  0  0  0  0  0  0  0  0
   -8.6600   14.1410   -1.2890 O   0  0  0  0  0  0  0  0  0  0  0  0
   -6.7030   14.3520    0.0980 C   0  0  0  0  0  0  0  0  0  0  0  0
  2  1  1  6
  2  3  1  0
  2  4  1  0
  4  5  1  1
  4  6  1  0
  4  7  1  0
  5  8  1  0
  6  9  1  0
  6 10  1  0
  7 11  1  6
  7 12  1  0
  8 13  1  6
  8 14  1  0
  9 15  1  0
 10 16  1  0
 10 17  1  1
 12 18  1  0
 11 19  1  0
 18 19  1  0
 19 20  1  6
 14 21  1  6
 14 22  1  0
 15 23  1  0
 16 23  1  0
 16 24  1  1
 17 25  1  0
 24 25  1  0
 23 26  1  1
 20 27  1  0
 21 28  1  0
 22 29  1  0
 28 30  1  6
 28 31  1  0
 29 31  1  0
M  CHG  1   1  -1
M  END
