ucsf364-ucsf403
     RDKit          3D

 20 21  0  0  0  0  0  0  0  0999 V2000
    2.2950   13.1720   -4.9280 C   0  0  0  0  0  0  0  0  0  0  0  0
    1.1280   12.3620   -4.3870 C   0  0  2  0  0  0  0  0  0  0  0  0
    0.1990   11.8540   -5.4860 C   0  0  2  0  0  0  0  0  0  0  0  0
    0.2110   13.0550   -3.3500 C   0  0  2  0  0  0  0  0  0  0  0  0
    0.6650   10.9840   -6.4550 O   0  0  0  0  0  0  0  0  0  0  0  0
    0.0100   12.2350   -2.0850 C   0  0  0  0  0  0  0  0  0  0  0  0
   -1.2350   13.1630   -3.9040 C   0  0  0  0  0  0  0  0  0  0  0  0
   -0.3510   13.0120   -6.2150 C   0  0  0  0  0  0  0  0  0  0  0  0
   -1.2560   12.4960   -1.5840 O   0  0  0  0  0  0  0  0  0  0  0  0
    0.7020   12.5480   -1.0610 O   0  0  0  0  0  0  0  0  0  0  0  0
    0.2520   10.8510   -2.2840 O   0  0  0  0  0  0  0  0  0  0  0  0
   -1.3460   13.6900   -5.3210 C   0  0  0  0  0  0  0  0  0  0  0  0
   -0.5070   10.4000   -7.0590 C   0  0  0  0  0  0  0  0  0  0  0  0
   -1.9000   10.8090   -6.4410 C   0  0  2  0  0  0  0  0  0  0  0  0
   -0.3610    8.8950   -6.8390 C   0  0  2  0  0  0  0  0  0  0  0  0
    0.8470    8.2340   -7.9830 Cl  0  0  0  0  0  0  0  0  0  0  0  0
   -2.1930   12.5070   -5.9770 Cl  0  0  0  0  0  0  0  0  0  0  0  0
   -2.3250    9.9100   -5.2910 C   0  0  0  0  0  0  0  0  0  0  0  0
   -1.7040    8.1650   -6.9650 C   0  0  0  0  0  0  0  0  0  0  0  0
   -2.6840    8.5520   -5.8600 C   0  0  0  0  0  0  0  0  0  0  0  0
  2  1  1  6
  2  3  1  0
  2  4  1  0
  3  5  1  6
  4  6  1  1
  4  7  1  0
  3  8  1  0
  6  9  1  0
  6 10  1  0
  6 11  1  0
  7 12  1  0
  8 12  1  0
  5 13  1  0
 13 14  1  0
 13 15  1  0
 15 16  1  6
 14 17  1  1
 14 18  1  0
 15 19  1  0
 18 20  1  0
 19 20  1  0
M  CHG  1  10  -1
M  END
