ucsf264-ucsf371
     RDKit          3D

 27 29  0  0  0  0  0  0  0  0999 V2000
    0.8730   13.0750   -2.3470 O   0  0  0  0  0  0  0  0  0  0  0  0
    1.2470   12.2590   -3.2990 C   0  0  1  0  0  0  0  0  0  0  0  0
    0.5680   11.0190   -3.0340 O   0  0  0  0  0  0  0  0  0  0  0  0
    0.9860   12.7140   -4.8430 C   0  0  2  0  0  0  0  0  0  0  0  0
    0.3080   14.1230   -5.0540 C   0  0  0  0  0  0  0  0  0  0  0  0
    0.5810   11.6340   -5.8300 N   0  0  0  0  0  0  0  0  0  0  0  0
   -0.9730   14.3660   -4.4220 O   0  0  0  0  0  0  0  0  0  0  0  0
    1.3250   11.6410   -7.1300 N   0  0  0  0  0  0  0  0  0  0  0  0
   -0.7980   11.2270   -6.1070 C   0  0  1  0  0  0  0  0  0  0  0  0
   -0.9160   14.3410   -2.9850 C   0  0  1  0  0  0  0  0  0  0  0  0
    0.3720   11.0470   -8.0920 C   0  0  2  0  0  0  0  0  0  0  0  0
   -0.4640   10.1910   -7.1710 C   0  0  2  0  0  0  0  0  0  0  0  0
   -1.5990   10.5690   -4.9790 C   0  0  0  0  0  0  0  0  0  0  0  0
    0.9270   10.3050   -9.3050 C   0  0  0  0  0  0  0  0  0  0  0  0
   -0.3490   15.4480   -2.5430 O   0  0  0  0  0  0  0  0  0  0  0  0
   -1.6920    9.5010   -7.7460 C   0  0  0  0  0  0  0  0  0  0  0  0
   -2.8170    9.7690   -5.4930 C   0  0  0  0  0  0  0  0  0  0  0  0
   -2.3640   14.2240   -2.3780 C   0  0  2  0  0  0  0  0  0  0  0  0
    1.5860    9.1660   -8.9440 F   0  0  0  0  0  0  0  0  0  0  0  0
   -0.0330    9.9140  -10.1630 F   0  0  0  0  0  0  0  0  0  0  0  0
    1.7700   11.0430  -10.0460 F   0  0  0  0  0  0  0  0  0  0  0  0
   -2.4810    8.8060   -6.6330 C   0  0  0  0  0  0  0  0  0  0  0  0
   -3.4790   15.1210   -2.9370 C   0  0  0  0  0  0  0  0  0  0  0  0
   -2.4290   14.6830   -0.6110 S   0  0  0  0  0  0  0  0  0  0  0  0
   -4.2280   14.6870   -0.6950 C   0  0  2  0  0  0  0  0  0  0  0  0
   -4.6720   15.0510   -2.0480 N   0  0  0  0  0  0  0  0  0  0  0  0
   -4.7790   15.6750    0.3080 C   0  0  0  0  0  0  0  0  0  0  0  0
  2  1  1  1
  2  3  1  0
  2  4  1  0
  4  5  1  1
  4  6  1  0
  5  7  1  0
  6  8  1  0
  6  9  1  0
  7 10  1  0
  8 11  1  0
  9 12  1  0
 11 12  1  0
  9 13  1  1
 11 14  1  6
 10 15  1  1
 12 16  1  6
 13 17  1  0
 10 18  1  0
 14 19  1  0
 14 20  1  0
 14 21  1  0
 16 22  1  0
 17 22  1  0
 18 23  1  6
 18 24  1  0
 24 25  1  0
 23 26  1  0
 25 26  1  0
 25 27  1  1
M  CHG  2   1  -1  15  -1
M  END
