ucsf170-ucsf392
     RDKit          3D

 20 21  0  0  0  0  0  0  0  0999 V2000
   -4.2890   13.7210    1.4460 C   0  0  0  0  0  0  0  0  0  0  0  0
   -4.4940   12.9740   -0.2020 S   0  0  0  0  0  0  0  0  0  0  0  0
   -3.2340   13.8690   -1.2240 C   0  0  1  0  0  0  0  0  0  0  0  0
   -3.3890   14.9620    1.5030 C   0  0  2  0  0  0  0  0  0  0  0  0
   -3.6570   15.9680    0.3880 C   0  0  2  0  0  0  0  0  0  0  0  0
   -1.9670   14.6630    1.7230 N   0  0  0  0  0  0  0  0  0  0  0  0
   -4.9990   15.7750   -0.3310 C   0  0  0  0  0  0  0  0  0  0  0  0
   -2.0980   12.9610   -1.7440 C   0  0  0  0  0  0  0  0  0  0  0  0
   -3.9520   14.6470   -2.3530 C   0  0  0  0  0  0  0  0  0  0  0  0
   -1.0930   14.4040    0.6060 C   0  0  2  0  0  0  0  0  0  0  0  0
   -2.4510   15.9400   -0.5750 C   0  0  0  0  0  0  0  0  0  0  0  0
    0.1100   15.3120    0.6980 C   0  0  0  0  0  0  0  0  0  0  0  0
   -1.2870   13.4310   -2.9930 C   0  0  2  0  0  0  0  0  0  0  0  0
   -3.0210   15.2920   -3.3730 C   0  0  0  0  0  0  0  0  0  0  0  0
   -1.7680   14.6670   -0.6360 N   0  0  0  0  0  0  0  0  0  0  0  0
    0.1290   13.9780   -2.6190 C   0  0  1  0  0  0  0  0  0  0  0  0
   -2.1040   14.2730   -4.0230 C   0  0  1  0  0  0  0  0  0  0  0  0
   -1.2330   14.9890   -4.9190 O   0  0  0  0  0  0  0  0  0  0  0  0
    0.6920   13.2150   -1.5710 O   0  0  0  0  0  0  0  0  0  0  0  0
    0.9830   13.7440   -3.5860 O   0  0  0  0  0  0  0  0  0  0  0  0
  1  2  1  0
  3  2  1  6
  4  1  1  6
  4  5  1  0
  4  6  1  0
  5  7  1  6
  3  8  1  0
  3  9  1  0
  6 10  1  0
  5 11  1  0
 10 12  1  1
 13  8  1  1
  9 14  1  0
 10 15  1  0
 11 15  1  0
 13 16  1  0
 13 17  1  0
 14 17  1  0
 17 18  1  6
 16 19  1  1
 16 20  1  0
M  CHG  1  20  -1
M  END
