ucsf115-ucsf028
     RDKit          3D

 18 20  0  0  0  0  0  0  0  0999 V2000
   -1.7910   14.0550   -3.8620 C   0  0  0  0  0  0  0  0  0  0  0  0
   -1.7480   14.9170   -2.6660 N   0  0  0  0  0  0  0  0  0  0  0  0
   -1.6560   14.2150   -1.3840 C   0  0  1  0  0  0  0  0  0  0  0  0
   -0.6960   12.9630   -3.9060 C   0  0  2  0  0  0  0  0  0  0  0  0
   -1.1870   11.5580   -3.9520 N   0  0  0  0  0  0  0  0  0  0  0  0
    0.1540   12.9770   -2.6380 C   0  0  0  0  0  0  0  0  0  0  0  0
   -1.2760   11.0450   -5.3220 O   0  0  0  0  0  0  0  0  0  0  0  0
    0.7730   11.6160   -2.6190 C   0  0  0  0  0  0  0  0  0  0  0  0
   -0.2640   10.6870   -3.2190 C   0  0  0  0  0  0  0  0  0  0  0  0
   -0.5290   14.7970   -0.6770 N   0  0  0  0  0  0  0  0  0  0  0  0
   -3.0100   14.1650   -0.6110 C   0  0  1  0  0  0  0  0  0  0  0  0
   -0.0920   11.3370   -6.0630 C   0  0  0  0  0  0  0  0  0  0  0  0
   -0.4880   14.5310    0.7380 C   0  0  0  0  0  0  0  0  0  0  0  0
   -2.8630   14.4090    0.8880 C   0  0  1  0  0  0  0  0  0  0  0  0
   -4.0510   15.1250   -1.0430 N   0  0  0  0  0  0  0  0  0  0  0  0
   -1.6760   15.0590    1.3430 N   0  0  0  0  0  0  0  0  0  0  0  0
   -3.9780   15.2390    1.2820 N   0  0  0  0  0  0  0  0  0  0  0  0
   -4.8790   15.2360    0.1430 C   0  0  0  0  0  0  0  0  0  0  0  0
  1  2  1  0
  3  2  1  6
  4  1  1  1
  4  5  1  0
  4  6  1  0
  5  7  1  0
  6  8  1  0
  5  9  1  0
  8  9  1  0
  3 10  1  0
  3 11  1  0
  7 12  1  0
 10 13  1  0
 11 14  1  0
 11 15  1  6
 13 16  1  0
 14 16  1  6
 14 17  1  0
 15 18  1  0
 17 18  1  0
M  END
