ucsf016-ucsf411
     RDKit          3D

 27 31  0  0  0  0  0  0  0  0999 V2000
    0.7400   10.4650   -2.3010 O   0  0  0  0  0  0  0  0  0  0  0  0
    0.5250   11.7610   -2.5030 C   0  0  1  0  0  0  0  0  0  0  0  0
    0.5100   12.2810   -1.1910 O   0  0  0  0  0  0  0  0  0  0  0  0
    1.6540   12.5130   -3.3060 C   0  0  0  0  0  0  0  0  0  0  0  0
    1.0960   12.9380   -4.5680 O   0  0  0  0  0  0  0  0  0  0  0  0
   -0.3110   12.9150   -4.3730 C   0  0  2  0  0  0  0  0  0  0  0  0
   -1.1290   13.4580   -5.5570 C   0  0  0  0  0  0  0  0  0  0  0  0
   -0.4670   13.6260   -2.9970 C   0  0  0  0  0  0  0  0  0  0  0  0
   -2.0260   14.5870   -5.0950 C   0  0  2  0  0  0  0  0  0  0  0  0
   -1.1620   14.8970   -2.9550 N   0  0  0  0  0  0  0  0  0  0  0  0
   -3.4580   14.2420   -4.7080 C   0  0  0  0  0  0  0  0  0  0  0  0
   -3.2000   14.9740   -5.9920 C   0  0  0  0  0  0  0  0  0  0  0  0
   -1.1510   15.5970   -4.2860 C   0  0  2  0  0  0  0  0  0  0  0  0
   -1.3310   15.4090   -1.5830 C   0  0  2  0  0  0  0  0  0  0  0  0
   -0.0550   15.3670   -0.8530 N   0  0  0  0  0  0  0  0  0  0  0  0
   -2.4860   14.6530   -0.8750 C   0  0  1  0  0  0  0  0  0  0  0  0
   -1.8220   17.0040   -4.4060 C   0  0  0  0  0  0  0  0  0  0  0  0
    0.2620   15.5760   -4.9210 C   0  0  0  0  0  0  0  0  0  0  0  0
   -0.0710   14.9780    0.5430 C   0  0  0  0  0  0  0  0  0  0  0  0
   -2.3780   14.6890    0.6530 C   0  0  1  0  0  0  0  0  0  0  0  0
   -3.8400   15.2600   -1.1990 C   0  0  0  0  0  0  0  0  0  0  0  0
   -1.1190   18.0030   -5.3200 C   0  0  0  0  0  0  0  0  0  0  0  0
    1.0850   16.8350   -4.9030 C   0  0  0  0  0  0  0  0  0  0  0  0
   -1.2830   15.4470    1.1470 N   0  0  0  0  0  0  0  0  0  0  0  0
   -3.5750   15.3140    1.1960 N   0  0  0  0  0  0  0  0  0  0  0  0
   -4.5630   15.4110    0.1240 C   0  0  0  0  0  0  0  0  0  0  0  0
    0.3360   18.1430   -4.9410 C   0  0  0  0  0  0  0  0  0  0  0  0
  2  1  1  1
  2  3  1  0
  2  4  1  0
  4  5  1  0
  6  5  1  6
  6  7  1  0
  6  8  1  0
  9  7  1  6
  8 10  1  0
  9 11  1  0
  9 12  1  0
 11 12  1  0
  9 13  1  0
 13 10  1  0
 14 10  1  6
 14 15  1  0
 14 16  1  0
 13 17  1  1
 13 18  1  0
 15 19  1  0
 16 20  1  0
 16 21  1  1
 17 22  1  0
 18 23  1  0
 19 24  1  0
 20 24  1  6
 20 25  1  0
 21 26  1  0
 25 26  1  0
 22 27  1  0
 23 27  1  0
M  CHG  1   1  -1
M  END
