ucsf380-ucsf320
     RDKit          3D

 19 20  0  0  0  0  0  0  0  0999 V2000
    1.1620   15.0400   -1.6130 O   0  0  0  0  0  0  0  0  0  0  0  0
    0.1950   14.3280   -1.0900 C   0  0  2  0  0  0  0  0  0  0  0  0
    0.7950   13.0670   -0.9360 O   0  0  0  0  0  0  0  0  0  0  0  0
   -1.0350   14.2420   -2.0420 C   0  0  2  0  0  0  0  0  0  0  0  0
   -2.3420   14.9100   -1.4080 C   0  0  2  0  0  0  0  0  0  0  0  0
   -1.2640   12.8360   -2.7800 C   0  0  0  0  0  0  0  0  0  0  0  0
   -2.7430   14.4510    0.0080 C   0  0  0  0  0  0  0  0  0  0  0  0
   -3.5500   14.7920   -2.3340 C   0  0  2  0  0  0  0  0  0  0  0  0
   -2.7280   12.3640   -2.9920 C   0  0  0  0  0  0  0  0  0  0  0  0
   -0.4370   12.6710   -4.0720 C   0  0  0  0  0  0  0  0  0  0  0  0
   -3.1380   15.4270   -3.6600 C   0  0  0  0  0  0  0  0  0  0  0  0
   -3.7810   15.3910    0.6130 C   0  0  0  0  0  0  0  0  0  0  0  0
   -4.8910   15.2860   -1.7710 C   0  0  0  0  0  0  0  0  0  0  0  0
   -2.8370   11.0300   -3.7370 C   0  0  0  0  0  0  0  0  0  0  0  0
   -1.2870   12.3060   -5.2930 C   0  0  0  0  0  0  0  0  0  0  0  0
   -2.0070   14.7640   -4.2160 O   0  0  0  0  0  0  0  0  0  0  0  0
   -4.9860   15.6830   -0.3000 C   0  0  1  0  0  0  0  0  0  0  0  0
   -2.1540   11.0660   -5.1010 C   0  0  0  0  0  0  0  0  0  0  0  0
   -6.1590   15.0350    0.2190 O   0  0  0  0  0  0  0  0  0  0  0  0
  2  1  1  6
  2  3  1  0
  2  4  1  0
  4  5  1  0
  4  6  1  1
  5  7  1  1
  5  8  1  0
  6  9  1  0
  6 10  1  0
  8 11  1  6
  7 12  1  0
  8 13  1  0
  9 14  1  0
 10 15  1  0
 11 16  1  0
 12 17  1  0
 13 17  1  0
 14 18  1  0
 15 18  1  0
 17 19  1  1
M  CHG  1   1  -1
M  END
