ucsf584-ucsf519
     RDKit          3D

 21 22  0  0  0  0  0  0  0  0999 V2000
   -0.3190   16.0270   -4.4760 C   0  0  0  0  0  0  0  0  0  0  0  0
   -0.7460   14.7750   -3.7010 C   0  0  2  0  0  0  0  0  0  0  0  0
   -0.3330   13.2910   -4.7350 S   0  0  0  0  0  0  0  0  0  0  0  0
   -2.2890   14.6130   -3.4850 C   0  0  2  0  0  0  0  0  0  0  0  0
    1.1430   12.5680   -3.8830 C   0  0  0  0  0  0  0  0  0  0  0  0
   -2.9740   15.1010   -4.6390 O   0  0  0  0  0  0  0  0  0  0  0  0
   -3.0580   15.0630   -2.3220 N   0  0  0  0  0  0  0  0  0  0  0  0
    1.0420   11.8630   -2.4830 C   0  0  1  0  0  0  0  0  0  0  0  0
   -2.7780   14.4760   -1.0090 C   0  0  1  0  0  0  0  0  0  0  0  0
   -4.4410   14.9460   -2.7470 C   0  0  0  0  0  0  0  0  0  0  0  0
    0.1810   12.4840   -1.5620 O   0  0  0  0  0  0  0  0  0  0  0  0
    0.5070   10.6360   -2.5370 O   0  0  0  0  0  0  0  0  0  0  0  0
   -1.4910   14.9290   -0.6070 O   0  0  0  0  0  0  0  0  0  0  0  0
   -3.8450   14.7590    0.0920 C   0  0  0  0  0  0  0  0  0  0  0  0
   -5.3960   15.4050   -1.6790 C   0  0  0  0  0  0  0  0  0  0  0  0
   -5.2670   14.5020   -0.4650 C   0  0  2  0  0  0  0  0  0  0  0  0
   -6.5380   14.7240    0.3910 C   0  0  0  0  0  0  0  0  0  0  0  0
   -6.4360   14.8720    1.8520 N   0  0  0  0  0  0  0  0  0  0  0  0
   -7.5680   13.7050    0.2510 N   0  0  0  0  0  0  0  0  0  0  0  0
   -8.5830   14.1680    1.2010 C   0  0  0  0  0  0  0  0  0  0  0  0
   -7.7640   14.6140    2.4030 C   0  0  0  0  0  0  0  0  0  0  0  0
  2  1  1  6
  2  3  1  0
  2  4  1  0
  3  5  1  0
  4  6  1  6
  4  7  1  0
  5  8  1  0
  7  9  1  0
  7 10  1  0
  8 11  1  1
  8 12  1  0
  9 13  1  1
  9 14  1  0
 10 15  1  0
 14 16  1  0
 15 16  1  0
 16 17  1  1
 17 18  1  0
 17 19  1  0
 19 20  1  0
 18 21  1  0
 20 21  1  0
M  CHG  1  12  -1
M  END
