ucsf109-ucsf348
     RDKit          3D

 15 17  0  0  0  0  0  0  0  0999 V2000
   -3.7180   14.3460    1.7820 N   0  0  0  0  0  0  0  0  0  0  0  0
   -4.8140   15.0270    1.0630 C   0  0  1  0  0  0  0  0  0  0  0  0
   -4.5280   15.0870   -0.4310 C   0  0  2  0  0  0  0  0  0  0  0  0
   -6.2790   14.5490    1.4140 C   0  0  1  0  0  0  0  0  0  0  0  0
   -6.6850   15.1030    2.7100 N   0  0  0  0  0  0  0  0  0  0  0  0
   -7.2900   14.6850    0.2090 C   0  0  1  0  0  0  0  0  0  0  0  0
   -5.3700   14.1190   -1.2510 C   0  0  1  0  0  0  0  0  0  0  0  0
   -3.1500   14.7170   -0.9500 C   0  0  0  0  0  0  0  0  0  0  0  0
   -6.4940   13.1970    1.8040 N   0  0  0  0  0  0  0  0  0  0  0  0
   -6.8100   14.3080   -1.1280 N   0  0  0  0  0  0  0  0  0  0  0  0
   -4.8780   14.5550   -2.6460 C   0  0  0  0  0  0  0  0  0  0  0  0
   -3.3710   14.8010   -2.4630 C   0  0  0  0  0  0  0  0  0  0  0  0
   -8.3260   13.6840    0.5110 N   0  0  0  0  0  0  0  0  0  0  0  0
   -7.9400   13.1730    1.8190 C   0  0  0  0  0  0  0  0  0  0  0  0
   -7.0800   15.4420   -1.9940 O   0  0  0  0  0  0  0  0  0  0  0  0
  2  1  1  1
  2  3  1  0
  2  4  1  0
  4  5  1  1
  4  6  1  0
  3  7  1  0
  3  8  1  1
  4  9  1  0
  6 10  1  0
  7 10  1  0
  7 11  1  6
  8 12  1  0
 11 12  1  0
  6 13  1  1
  9 14  1  0
 13 14  1  0
 10 15  1  0
M  END
