ucsf520-ucsf345
     RDKit          3D

 19 21  0  0  0  0  0  0  0  0999 V2000
   -4.2940   15.4870    1.5080 N   0  0  0  0  0  0  0  0  0  0  0  0
   -3.5630   14.6970    0.5090 C   0  0  2  0  0  0  0  0  0  0  0  0
   -2.2310   15.4490    0.2800 C   0  0  2  0  0  0  0  0  0  0  0  0
   -4.4220   14.5540   -0.6680 N   0  0  0  0  0  0  0  0  0  0  0  0
   -5.7870   15.0920   -0.4400 C   0  0  2  0  0  0  0  0  0  0  0  0
   -3.7030   15.0110   -1.9000 C   0  0  0  0  0  0  0  0  0  0  0  0
   -1.4850   15.0550   -0.9870 C   0  0  2  0  0  0  0  0  0  0  0  0
   -1.2810   15.2250    1.3800 N   0  0  0  0  0  0  0  0  0  0  0  0
   -6.2530   14.7020    0.8770 N   0  0  0  0  0  0  0  0  0  0  0  0
   -6.7940   14.5090   -1.2230 O   0  0  0  0  0  0  0  0  0  0  0  0
   -2.3280   14.4370   -1.9880 N   0  0  0  0  0  0  0  0  0  0  0  0
   -0.4850   14.1150   -0.5200 N   0  0  0  0  0  0  0  0  0  0  0  0
   -0.1210   14.5630    0.8050 C   0  0  0  0  0  0  0  0  0  0  0  0
   -1.7250   14.4650   -3.3570 C   0  0  0  0  0  0  0  0  0  0  0  0
   -0.7840   15.6780   -3.6160 C   0  0  2  0  0  0  0  0  0  0  0  0
   -1.5440   16.7910   -4.1420 O   0  0  0  0  0  0  0  0  0  0  0  0
    0.2910   15.4210   -4.6670 C   0  0  0  0  0  0  0  0  0  0  0  0
    0.6480   16.8300   -5.0760 C   0  0  0  0  0  0  0  0  0  0  0  0
   -0.6970   17.5290   -5.0370 C   0  0  0  0  0  0  0  0  0  0  0  0
  2  1  1  1
  2  3  1  0
  2  4  1  0
  4  5  1  0
  4  6  1  0
  3  7  1  0
  3  8  1  1
  5  9  1  1
  5 10  1  0
  6 11  1  0
  7 11  1  0
  7 12  1  1
  8 13  1  0
 12 13  1  0
 11 14  1  0
 15 14  1  6
 15 16  1  0
 15 17  1  0
 17 18  1  0
 16 19  1  0
 18 19  1  0
M  END
