ucsf151-ucsf403
     RDKit          3D

 22 23  0  0  0  0  0  0  0  0999 V2000
    0.0630   13.0090   -2.4780 O   0  0  0  0  0  0  0  0  0  0  0  0
   -0.1980   14.3930   -2.7070 C   0  0  1  0  0  0  0  0  0  0  0  0
    0.7660   14.8990   -3.6130 O   0  0  0  0  0  0  0  0  0  0  0  0
    0.8770   12.2540   -3.3910 C   0  0  1  0  0  0  0  0  0  0  0  0
    0.6180   10.8880   -3.1220 O   0  0  0  0  0  0  0  0  0  0  0  0
    0.5840   12.5540   -4.8940 C   0  0  0  0  0  0  0  0  0  0  0  0
   -1.6590   14.5850   -3.2010 C   0  0  1  0  0  0  0  0  0  0  0  0
    0.5920   11.4260   -5.8050 O   0  0  0  0  0  0  0  0  0  0  0  0
   -1.9190   15.7640   -4.1660 C   0  0  0  0  0  0  0  0  0  0  0  0
   -2.1860   13.2970   -3.8180 C   0  0  0  0  0  0  0  0  0  0  0  0
   -2.4410   15.3150   -5.5150 C   0  0  2  0  0  0  0  0  0  0  0  0
   -3.5070   13.3590   -4.4670 N   0  0  0  0  0  0  0  0  0  0  0  0
   -0.4360   10.4040   -5.6920 C   0  0  1  0  0  0  0  0  0  0  0  0
   -2.7160   16.4990   -6.3200 O   0  0  0  0  0  0  0  0  0  0  0  0
   -3.7170   14.4910   -5.3810 C   0  0  0  0  0  0  0  0  0  0  0  0
   -1.7730   10.9940   -5.2080 C   0  0  2  0  0  0  0  0  0  0  0  0
   -0.6760    9.7390   -7.0650 C   0  0  1  0  0  0  0  0  0  0  0  0
    0.8130    9.2070   -7.9250 Cl  0  0  0  0  0  0  0  0  0  0  0  0
   -1.8430   10.8890   -3.4120 Cl  0  0  0  0  0  0  0  0  0  0  0  0
   -3.0120   10.2930   -5.7760 C   0  0  0  0  0  0  0  0  0  0  0  0
   -1.5960    8.5300   -6.9090 C   0  0  0  0  0  0  0  0  0  0  0  0
   -2.7780    8.8030   -5.9830 C   0  0  0  0  0  0  0  0  0  0  0  0
  1  2  1  0
  2  3  1  6
  1  4  1  0
  4  5  1  6
  4  6  1  0
  2  7  1  0
  6  8  1  0
  7  9  1  6
  7 10  1  0
  9 11  1  0
 10 12  1  0
 13  8  1  6
 11 14  1  6
 11 15  1  0
 12 15  1  0
 13 16  1  0
 13 17  1  0
 17 18  1  1
 16 19  1  1
 16 20  1  0
 17 21  1  0
 20 22  1  0
 21 22  1  0
M  END
