ucsf411-ucsf243
     RDKit          3D

 24 27  0  0  0  0  0  0  0  0999 V2000
    0.6040   10.6960   -2.4140 O   0  0  0  0  0  0  0  0  0  0  0  0
    1.1120   11.9360   -2.3170 C   0  0  2  0  0  0  0  0  0  0  0  0
    0.2620   12.6400   -1.4110 O   0  0  0  0  0  0  0  0  0  0  0  0
    1.0740   12.7460   -3.6490 C   0  0  0  0  0  0  0  0  0  0  0  0
    0.2420   13.9260   -3.3560 N   0  0  0  0  0  0  0  0  0  0  0  0
   -0.6050   13.2420   -2.3480 C   0  0  2  0  0  0  0  0  0  0  0  0
   -0.6230   14.4230   -4.4060 C   0  0  1  0  0  0  0  0  0  0  0  0
   -1.8690   13.9390   -1.7140 C   0  0  1  0  0  0  0  0  0  0  0  0
   -0.1560   15.6490   -5.1700 C   0  0  1  0  0  0  0  0  0  0  0  0
   -1.3100   13.5050   -5.4090 C   0  0  0  0  0  0  0  0  0  0  0  0
   -1.7240   15.2380   -0.8940 C   0  0  0  0  0  0  0  0  0  0  0  0
   -3.0010   14.0690   -2.7520 C   0  0  2  0  0  0  0  0  0  0  0  0
   -2.4640   14.0380   -4.0630 O   0  0  0  0  0  0  0  0  0  0  0  0
   -1.4100   16.4740   -5.5380 C   0  0  1  0  0  0  0  0  0  0  0  0
   -2.5860   14.1390   -5.9660 C   0  0  0  0  0  0  0  0  0  0  0  0
    0.9140   16.4770   -4.4670 C   0  0  0  0  0  0  0  0  0  0  0  0
   -3.0590   15.6710   -0.2390 C   0  0  2  0  0  0  0  0  0  0  0  0
   -3.8060   15.3420   -2.6190 C   0  0  0  0  0  0  0  0  0  0  0  0
   -3.3410   14.9590    1.0810 C   0  0  0  0  0  0  0  0  0  0  0  0
   -2.7290   15.6500   -5.6500 C   0  0  0  0  0  0  0  0  0  0  0  0
   -1.5810   17.6170   -4.6100 C   0  0  0  0  0  0  0  0  0  0  0  0
    0.8890   17.8710   -5.0540 C   0  0  0  0  0  0  0  0  0  0  0  0
   -4.2600   15.5240   -1.1840 C   0  0  0  0  0  0  0  0  0  0  0  0
   -0.3990   18.5250   -4.6560 C   0  0  0  0  0  0  0  0  0  0  0  0
  2  1  1  6
  2  3  1  0
  2  4  1  0
  4  5  1  0
  6  3  1  1
  5  6  1  0
  7  5  1  6
  6  8  1  0
  7  9  1  0
  7 10  1  0
  8 11  1  6
  8 12  1  0
 12 13  1  6
  9 14  1  0
 10 15  1  0
  9 16  1  1
 11 17  1  0
 12 18  1  0
 17 19  1  1
 14 20  1  1
 15 20  1  0
 14 21  1  0
 16 22  1  0
 17 23  1  0
 18 23  1  0
 21 24  1  0
 22 24  1  0
M  CHG  1   1  -1
M  END
