ucsf262-ucsf247
     RDKit          3D

 25 27  0  0  0  0  0  0  0  0999 V2000
   -3.0290   15.8780   -5.5580 Cl  0  0  0  0  0  0  0  0  0  0  0  0
   -1.5350   16.8660   -5.4360 C   0  0  2  0  0  0  0  0  0  0  0  0
   -0.6960   16.6370   -4.2250 C   0  0  1  0  0  0  0  0  0  0  0  0
   -1.7360   18.3260   -5.7100 C   0  0  0  0  0  0  0  0  0  0  0  0
   -0.1860   15.1980   -4.0790 C   0  0  0  0  0  0  0  0  0  0  0  0
    0.6230   17.4290   -4.3530 C   0  0  1  0  0  0  0  0  0  0  0  0
   -0.4220   18.7960   -6.3220 C   0  0  0  0  0  0  0  0  0  0  0  0
    0.9500   15.5370   -3.1340 C   0  0  2  0  0  0  0  0  0  0  0  0
    1.6430   16.4280   -4.0650 N   0  0  0  0  0  0  0  0  0  0  0  0
    0.8420   18.1450   -5.7060 C   0  0  0  0  0  0  0  0  0  0  0  0
    1.8160   14.4240   -2.3770 C   0  0  2  0  0  0  0  0  0  0  0  0
    3.0810   14.4770   -2.7300 O   0  0  0  0  0  0  0  0  0  0  0  0
    1.2360   13.1670   -2.7130 O   0  0  0  0  0  0  0  0  0  0  0  0
   -0.1520   13.3600   -2.8880 C   0  0  0  0  0  0  0  0  0  0  0  0
   -0.6350   14.3680   -1.8110 C   0  0  0  0  0  0  0  0  0  0  0  0
   -1.7060   15.3080   -2.1790 N   0  0  0  0  0  0  0  0  0  0  0  0
   -2.9830   14.7130   -2.4640 C   0  0  2  0  0  0  0  0  0  0  0  0
   -3.6430   15.6360   -3.2900 O   0  0  0  0  0  0  0  0  0  0  0  0
   -3.7890   14.5150   -1.1700 C   0  0  2  0  0  0  0  0  0  0  0  0
   -5.2920   14.6380   -1.4750 C   0  0  0  0  0  0  0  0  0  0  0  0
   -3.2460   15.4060   -0.0260 C   0  0  0  0  0  0  0  0  0  0  0  0
   -6.0250   15.2550   -0.3230 C   0  0  1  0  0  0  0  0  0  0  0  0
   -4.0460   15.3350    1.2610 C   0  0  0  0  0  0  0  0  0  0  0  0
   -7.4150   14.9440   -0.3920 O   0  0  0  0  0  0  0  0  0  0  0  0
   -5.4490   14.7960    1.0180 C   0  0  0  0  0  0  0  0  0  0  0  0
  2  1  1  1
  2  3  1  0
  2  4  1  0
  3  5  1  6
  3  6  1  0
  4  7  1  0
  8  5  1  6
  6  9  1  0
  8  9  1  0
  6 10  1  6
  7 10  1  0
  8 11  1  0
 11 12  1  6
 11 13  1  0
 13 14  1  0
 14 15  1  0
 15 16  1  0
 16 17  1  0
 17 18  1  6
 17 19  1  0
 19 20  1  6
 19 21  1  0
 20 22  1  0
 21 23  1  0
 22 24  1  1
 22 25  1  0
 23 25  1  0
M  CHG  1  12  -1
M  END
