ucsf258-ucsf487
     RDKit          3D

 16 17  0  0  0  0  0  0  0  0999 V2000
    0.5280   13.7630   -1.2800 O   0  0  0  0  0  0  0  0  0  0  0  0
   -0.5100   13.8130   -2.0790 C   0  0  2  0  0  0  0  0  0  0  0  0
    0.1090   14.1600   -3.3070 O   0  0  0  0  0  0  0  0  0  0  0  0
   -1.5780   14.9100   -1.6640 C   0  0  1  0  0  0  0  0  0  0  0  0
   -2.8730   14.8960   -2.5310 C   0  0  1  0  0  0  0  0  0  0  0  0
   -1.9120   14.8200   -0.1940 N   0  0  0  0  0  0  0  0  0  0  0  0
   -2.6630   14.4100   -3.8680 O   0  0  0  0  0  0  0  0  0  0  0  0
   -3.9200   14.0330   -1.8020 C   0  0  0  0  0  0  0  0  0  0  0  0
   -3.2050   15.4510    0.1330 C   0  0  0  0  0  0  0  0  0  0  0  0
   -4.4530   14.7370   -0.5050 C   0  0  2  0  0  0  0  0  0  0  0  0
   -5.1240   13.8020    0.5990 C   0  0  0  0  0  0  0  0  0  0  0  0
   -5.5620   15.6770   -1.0390 C   0  0  0  0  0  0  0  0  0  0  0  0
   -6.3990   14.3910    1.2590 C   0  0  2  0  0  0  0  0  0  0  0  0
   -6.9390   15.1210   -1.0940 N   0  0  0  0  0  0  0  0  0  0  0  0
   -6.9400   13.5850    2.3640 N   0  0  0  0  0  0  0  0  0  0  0  0
   -7.4650   14.6510    0.1840 C   0  0  0  0  0  0  0  0  0  0  0  0
  2  1  1  1
  2  3  1  0
  2  4  1  0
  4  5  1  0
  4  6  1  1
  5  7  1  6
  5  8  1  0
  6  9  1  0
 10  8  1  6
  9 10  1  0
 10 11  1  0
 10 12  1  0
 11 13  1  0
 12 14  1  0
 13 15  1  1
 13 16  1  0
 14 16  1  0
M  CHG  1   1  -1
M  END
