ucsf124-ucsf412
     RDKit          3D

 29 32  0  0  0  0  0  0  0  0999 V2000
    0.6980   11.0840   -2.3970 O   0  0  0  0  0  0  0  0  0  0  0  0
    0.6580   12.3250   -2.8370 C   0  0  1  0  0  0  0  0  0  0  0  0
    1.7750   12.9110   -2.2060 O   0  0  0  0  0  0  0  0  0  0  0  0
    0.7440   12.4720   -4.4040 C   0  0  0  0  0  0  0  0  0  0  0  0
    0.1890   11.4700   -5.3420 N   0  0  0  0  0  0  0  0  0  0  0  0
   -1.2540   11.3280   -5.2980 C   0  0  2  0  0  0  0  0  0  0  0  0
    0.4550   11.7510   -6.7240 C   0  0  1  0  0  0  0  0  0  0  0  0
   -1.6510   10.6500   -4.1040 O   0  0  0  0  0  0  0  0  0  0  0  0
    1.8180   11.6150   -7.0040 O   0  0  0  0  0  0  0  0  0  0  0  0
   -1.5750   10.4920   -6.5680 C   0  0  1  0  0  0  0  0  0  0  0  0
   -0.3910   10.7430   -7.5140 C   0  0  2  0  0  0  0  0  0  0  0  0
   -2.8540   11.1710   -3.5370 C   0  0  0  0  0  0  0  0  0  0  0  0
   -1.9290    9.0080   -6.3860 C   0  0  0  0  0  0  0  0  0  0  0  0
    0.2360    9.4200   -7.9770 C   0  0  0  0  0  0  0  0  0  0  0  0
   -2.6830   12.6710   -3.3280 C   0  0  0  0  0  0  0  0  0  0  0  0
   -2.0760    8.3150   -7.7380 C   0  0  0  0  0  0  0  0  0  0  0  0
   -0.8290    8.5140   -8.6120 C   0  0  0  0  0  0  0  0  0  0  0  0
   -2.8910   13.1570   -1.8890 C   0  0  0  0  0  0  0  0  0  0  0  0
   -3.0900   14.6830   -1.7520 C   0  0  2  0  0  0  0  0  0  0  0  0
   -3.2640   15.1020   -0.2900 C   0  0  0  0  0  0  0  0  0  0  0  0
   -4.3300   15.1400   -2.5330 C   0  0  0  0  0  0  0  0  0  0  0  0
   -4.4250   14.4150    0.3980 C   0  0  2  0  0  0  0  0  0  0  0  0
   -5.5140   15.4570   -1.6140 C   0  0  0  0  0  0  0  0  0  0  0  0
   -5.6530   14.3830   -0.5240 C   0  0  2  0  0  0  0  0  0  0  0  0
   -4.6740   15.1110    1.7120 C   0  0  0  0  0  0  0  0  0  0  0  0
   -7.0380   14.3480    0.1890 C   0  0  2  0  0  0  0  0  0  0  0  0
   -5.9250   14.5850    2.3920 C   0  0  0  0  0  0  0  0  0  0  0  0
   -7.9780   15.1380   -0.5020 O   0  0  0  0  0  0  0  0  0  0  0  0
   -7.1260   14.7430    1.5870 N   0  0  0  0  0  0  0  0  0  0  0  0
  2  1  1  6
  2  3  1  0
  2  4  1  0
  4  5  1  0
  5  6  1  0
  5  7  1  0
  6  8  1  1
  7  9  1  1
  6 10  1  0
  7 11  1  0
 10 11  1  0
  8 12  1  0
 10 13  1  1
 11 14  1  1
 12 15  1  0
 13 16  1  0
 14 17  1  0
 16 17  1  0
 15 18  1  0
 19 18  1  1
 19 20  1  0
 19 21  1  0
 22 20  1  6
 21 23  1  0
 22 24  1  0
 24 23  1  6
 22 25  1  0
 24 26  1  0
 25 27  1  0
 26 28  1  6
 26 29  1  0
 27 29  1  0
M  CHG  1   1  -1
M  END
