ucsf264-ucsf519
     RDKit          3D

 28 30  0  0  0  0  0  0  0  0999 V2000
    1.7000   12.4300   -2.6690 O   0  0  0  0  0  0  0  0  0  0  0  0
    0.5590   12.2340   -3.3040 C   0  0  2  0  0  0  0  0  0  0  0  0
    0.4240   10.8200   -3.1920 O   0  0  0  0  0  0  0  0  0  0  0  0
    0.5290   12.6630   -4.8670 C   0  0  2  0  0  0  0  0  0  0  0  0
   -0.8460   13.8210   -5.2920 S   0  0  0  0  0  0  0  0  0  0  0  0
    0.5260   11.5050   -5.7930 N   0  0  0  0  0  0  0  0  0  0  0  0
   -0.6920   15.0740   -3.9660 C   0  0  1  0  0  0  0  0  0  0  0  0
    1.1900   11.6060   -7.0960 N   0  0  0  0  0  0  0  0  0  0  0  0
   -0.4980   10.4650   -5.7790 C   0  0  2  0  0  0  0  0  0  0  0  0
    0.0530   16.2800   -4.5550 C   0  0  0  0  0  0  0  0  0  0  0  0
   -2.0660   15.4530   -3.3060 C   0  0  1  0  0  0  0  0  0  0  0  0
    0.3010   10.9250   -8.0380 C   0  0  2  0  0  0  0  0  0  0  0  0
   -0.3070    9.8170   -7.1620 C   0  0  2  0  0  0  0  0  0  0  0  0
   -1.9350   10.9270   -5.5280 C   0  0  0  0  0  0  0  0  0  0  0  0
    0.9100   10.3330   -9.3170 C   0  0  0  0  0  0  0  0  0  0  0  0
   -3.0480   15.2560   -4.3330 O   0  0  0  0  0  0  0  0  0  0  0  0
   -1.5820    9.2040   -7.7350 C   0  0  0  0  0  0  0  0  0  0  0  0
   -2.9500    9.7960   -5.6660 C   0  0  0  0  0  0  0  0  0  0  0  0
   -2.5430   14.6940   -2.1420 N   0  0  0  0  0  0  0  0  0  0  0  0
    1.6290    9.2100   -9.0800 F   0  0  0  0  0  0  0  0  0  0  0  0
   -0.0300   10.0110  -10.2270 F   0  0  0  0  0  0  0  0  0  0  0  0
    1.7110   11.2050   -9.9640 F   0  0  0  0  0  0  0  0  0  0  0  0
   -2.5150    8.6960   -6.6400 C   0  0  0  0  0  0  0  0  0  0  0  0
   -3.8660   15.1650   -1.6740 C   0  0  0  0  0  0  0  0  0  0  0  0
   -1.6680   14.6880   -0.9770 C   0  0  1  0  0  0  0  0  0  0  0  0
   -0.5250   15.4650   -1.1840 O   0  0  0  0  0  0  0  0  0  0  0  0
   -3.7790   15.0920   -0.1620 C   0  0  0  0  0  0  0  0  0  0  0  0
   -2.3740   15.3210    0.1130 N   0  0  0  0  0  0  0  0  0  0  0  0
  2  1  1  6
  2  3  1  0
  2  4  1  0
  4  5  1  1
  4  6  1  0
  5  7  1  0
  6  8  1  0
  6  9  1  0
  7 10  1  6
  7 11  1  0
  8 12  1  0
  9 13  1  0
 12 13  1  0
  9 14  1  6
 12 15  1  6
 11 16  1  6
 13 17  1  6
 14 18  1  0
 11 19  1  0
 15 20  1  0
 15 21  1  0
 15 22  1  0
 17 23  1  0
 18 23  1  0
 19 24  1  0
 19 25  1  0
 25 26  1  6
 24 27  1  0
 25 28  1  0
 27 28  1  0
M  CHG  1   1  -1
M  END
