ucsf247-ucsf392
     RDKit          3D

 22 23  0  0  0  0  0  0  0  0999 V2000
    0.6290   13.0760   -1.8760 O   0  0  0  0  0  0  0  0  0  0  0  0
    0.3320   14.1050   -2.6490 C   0  0  1  0  0  0  0  0  0  0  0  0
    1.3080   14.0680   -3.6970 O   0  0  0  0  0  0  0  0  0  0  0  0
   -1.1090   13.9470   -3.2820 C   0  0  0  0  0  0  0  0  0  0  0  0
   -2.0410   15.0990   -3.1650 N   0  0  0  0  0  0  0  0  0  0  0  0
   -3.4830   14.8050   -3.0410 C   0  0  1  0  0  0  0  0  0  0  0  0
   -3.7870   13.9240   -4.0970 O   0  0  0  0  0  0  0  0  0  0  0  0
   -3.8760   14.2370   -1.6490 C   0  0  1  0  0  0  0  0  0  0  0  0
   -4.3620   15.2330   -0.6750 C   0  0  2  0  0  0  0  0  0  0  0  0
   -4.8900   13.1500   -1.3220 C   0  0  0  0  0  0  0  0  0  0  0  0
   -5.8380   15.5470   -0.6720 C   0  0  1  0  0  0  0  0  0  0  0  0
   -5.4330   13.3230    0.1580 C   0  0  0  0  0  0  0  0  0  0  0  0
   -3.3050   15.8820    0.1310 C   0  0  1  0  0  0  0  0  0  0  0  0
   -6.5860   15.0830   -1.7900 O   0  0  0  0  0  0  0  0  0  0  0  0
   -6.2270   14.6210    0.4420 C   0  0  0  0  0  0  0  0  0  0  0  0
   -3.1350   14.9890    1.3030 C   0  0  2  0  0  0  0  0  0  0  0  0
   -2.0050   15.9380   -0.6510 C   0  0  0  0  0  0  0  0  0  0  0  0
   -3.9200   15.5840    2.3550 N   0  0  0  0  0  0  0  0  0  0  0  0
   -1.7930   14.7510    1.7110 N   0  0  0  0  0  0  0  0  0  0  0  0
   -1.4060   14.6140   -0.6570 N   0  0  0  0  0  0  0  0  0  0  0  0
   -0.8550   14.4080    0.6570 C   0  0  1  0  0  0  0  0  0  0  0  0
    0.3010   15.3510    0.7580 C   0  0  0  0  0  0  0  0  0  0  0  0
  2  1  1  1
  2  3  1  0
  2  4  1  0
  4  5  1  0
  5  6  1  0
  6  7  1  6
  6  8  1  0
  8  9  1  0
  8 10  1  6
  9 11  1  6
 10 12  1  0
  9 13  1  0
 11 14  1  6
 11 15  1  0
 12 15  1  0
 13 16  1  0
 13 17  1  6
 16 18  1  1
 16 19  1  0
 17 20  1  0
 19 21  1  0
 20 21  1  0
 21 22  1  1
M  CHG  1   1  -1
M  END
