ucsf511-ucsf004
     RDKit          3D

 23 27  0  0  0  0  0  0  0  0999 V2000
    0.9660   12.9560   -2.0570 O   0  0  0  0  0  0  0  0  0  0  0  0
   -0.1740   13.3780   -2.5330 C   0  0  2  0  0  0  0  0  0  0  0  0
    0.1700   14.3340   -3.5380 N   0  0  0  0  0  0  0  0  0  0  0  0
   -1.5600   13.9480   -1.4790 S   0  0  0  0  0  0  0  0  0  0  0  0
   -2.5080   13.6710   -2.8640 C   0  0  2  0  0  0  0  0  0  0  0  0
   -0.8830   15.1320   -3.9310 C   0  0  0  0  0  0  0  0  0  0  0  0
   -2.9830   12.8510   -0.8750 O   0  0  0  0  0  0  0  0  0  0  0  0
   -0.4770   14.9410   -0.5830 N   0  0  0  0  0  0  0  0  0  0  0  0
   -2.2280   15.3100   -0.4680 C   0  0  2  0  0  0  0  0  0  0  0  0
   -2.0360   14.2790   -4.1260 N   0  0  0  0  0  0  0  0  0  0  0  0
   -4.1320   13.1910   -1.3470 C   0  0  2  0  0  0  0  0  0  0  0  0
   -3.9200   13.7960   -2.6510 C   0  0  1  0  0  0  0  0  0  0  0  0
    0.0530   14.5980    0.5220 C   0  0  0  0  0  0  0  0  0  0  0  0
   -1.9650   15.2660    0.9270 C   0  0  2  0  0  0  0  0  0  0  0  0
   -3.5910   15.7050   -0.6050 C   0  0  0  0  0  0  0  0  0  0  0  0
   -1.8590   13.2660   -4.9640 F   0  0  0  0  0  0  0  0  0  0  0  0
   -4.6880   14.9930   -3.0130 C   0  0  0  0  0  0  0  0  0  0  0  0
   -4.7530   14.1300   -0.3790 C   0  0  0  0  0  0  0  0  0  0  0  0
   -1.0260   14.3520    1.5080 N   0  0  0  0  0  0  0  0  0  0  0  0
   -3.2620   15.1220    1.6020 N   0  0  0  0  0  0  0  0  0  0  0  0
   -3.9870   16.1280    0.8190 C   0  0  0  0  0  0  0  0  0  0  0  0
   -5.9860   15.1810   -2.2960 C   0  0  0  0  0  0  0  0  0  0  0  0
   -6.0910   14.5820   -0.9420 C   0  0  0  0  0  0  0  0  0  0  0  0
  2  1  1  1
  2  3  1  0
  2  4  1  0
  4  5  1  0
  3  6  1  0
  4  7  1  0
  4  8  1  0
  4  9  1  0
  5 10  1  6
  6 10  1  0
  7 11  1  0
  5 12  1  0
 11 12  1  0
  8 13  1  0
  9 14  1  0
  9 15  1  1
 10 16  1  0
 12 17  1  1
 11 18  1  1
 13 19  1  0
 14 19  1  6
 14 20  1  0
 15 21  1  0
 20 21  1  0
 17 22  1  0
 18 23  1  0
 22 23  1  0
M  END
