ucsf365-ucsf248
     RDKit          3D

 25 27  0  0  0  0  0  0  0  0999 V2000
    0.5650   10.7170   -2.3540 O   0  0  0  0  0  0  0  0  0  0  0  0
    0.5640   12.0440   -2.4420 C   0  0  1  0  0  0  0  0  0  0  0  0
    1.8260   12.4580   -2.0190 O   0  0  0  0  0  0  0  0  0  0  0  0
    0.3890   12.5660   -3.8820 C   0  0  0  0  0  0  0  0  0  0  0  0
   -0.8960   13.3840   -4.1330 C   0  0  2  0  0  0  0  0  0  0  0  0
   -2.0240   12.3700   -4.4290 C   0  0  2  0  0  0  0  0  0  0  0  0
   -0.8560   14.4950   -5.1790 C   0  0  0  0  0  0  0  0  0  0  0  0
   -1.6660   11.5130   -5.5190 O   0  0  0  0  0  0  0  0  0  0  0  0
   -3.4050   12.9890   -4.7050 C   0  0  0  0  0  0  0  0  0  0  0  0
   -2.2540   14.9180   -5.6580 C   0  0  0  0  0  0  0  0  0  0  0  0
   -3.3790   14.5220   -4.7420 C   0  0  2  0  0  0  0  0  0  0  0  0
   -3.2510   15.2500   -3.3860 C   0  0  0  0  0  0  0  0  0  0  0  0
   -3.9730   14.7240   -2.1260 C   0  0  1  0  0  0  0  0  0  0  0  0
   -3.2450   15.1180   -0.8150 C   0  0  0  0  0  0  0  0  0  0  0  0
   -5.4850   15.0260   -2.0230 C   0  0  0  0  0  0  0  0  0  0  0  0
   -5.8200   15.0570   -0.5480 C   0  0  2  0  0  0  0  0  0  0  0  0
   -3.6830   14.3270    0.4120 C   0  0  0  0  0  0  0  0  0  0  0  0
   -5.1070   13.9080    0.1430 C   0  0  1  0  0  0  0  0  0  0  0  0
   -7.1980   14.8490   -0.1320 N   0  0  0  0  0  0  0  0  0  0  0  0
   -6.9620   14.5920    1.2890 C   0  0  2  0  0  0  0  0  0  0  0  0
   -5.9500   13.5600    1.2990 N   0  0  0  0  0  0  0  0  0  0  0  0
   -8.4550   14.1890    2.2080 S   0  0  0  0  0  0  0  0  0  0  0  0
   -8.5840   12.6800    2.8680 N   0  0  0  0  0  0  0  0  0  0  0  0
   -8.4090   15.2870    3.3770 O   0  0  0  0  0  0  0  0  0  0  0  0
   -9.6990   14.5640    1.2770 O   0  0  0  0  0  0  0  0  0  0  0  0
  2  1  1  6
  2  3  1  0
  2  4  1  0
  5  4  1  6
  5  6  1  0
  5  7  1  0
  6  8  1  6
  6  9  1  0
  7 10  1  0
  9 11  1  0
 10 11  1  0
 11 12  1  1
 13 12  1  6
 13 14  1  0
 13 15  1  0
 16 15  1  6
 14 17  1  0
 16 18  1  0
 18 17  1  1
 16 19  1  0
 19 20  1  0
 18 21  1  0
 20 21  1  0
 20 22  1  6
 22 23  1  0
 22 24  1  0
 22 25  1  0
M  CHG  1   1  -1
M  END
