ucsf109-ucsf274
     RDKit          3D

 30 34  0  0  0  0  0  0  0  0999 V2000
   -3.8740   15.3450    1.7710 N   0  0  0  0  0  0  0  0  0  0  0  0
   -4.7790   14.5950    0.8820 C   0  0  2  0  0  0  0  0  0  0  0  0
   -4.6340   14.9250   -0.5870 C   0  0  2  0  0  0  0  0  0  0  0  0
   -6.2030   14.8150    1.2060 N   0  0  0  0  0  0  0  0  0  0  0  0
   -7.1850   14.7800    0.1090 C   0  0  1  0  0  0  0  0  0  0  0  0
   -5.4740   13.9360   -1.3750 C   0  0  1  0  0  0  0  0  0  0  0  0
   -3.2670   14.8960   -1.2960 C   0  0  0  0  0  0  0  0  0  0  0  0
   -6.7270   13.7630    2.1120 N   0  0  0  0  0  0  0  0  0  0  0  0
   -6.8840   14.0720   -1.1030 N   0  0  0  0  0  0  0  0  0  0  0  0
   -4.9840   14.2400   -2.7740 C   0  0  0  0  0  0  0  0  0  0  0  0
   -3.5330   13.9210   -2.4620 C   0  0  1  0  0  0  0  0  0  0  0  0
   -8.4380   14.3070    0.6880 N   0  0  0  0  0  0  0  0  0  0  0  0
   -8.1250   14.1200    2.1070 C   0  0  0  0  0  0  0  0  0  0  0  0
   -2.5850   13.9130   -3.6520 C   0  0  0  0  0  0  0  0  0  0  0  0
   -2.1170   12.5570   -3.7770 O   0  0  0  0  0  0  0  0  0  0  0  0
   -2.0890   12.0620   -5.1190 C   0  0  1  0  0  0  0  0  0  0  0  0
   -0.7500   12.4260   -5.8850 C   0  0  1  0  0  0  0  0  0  0  0  0
   -2.4770   10.6310   -5.0580 N   0  0  0  0  0  0  0  0  0  0  0  0
    0.5120   12.4480   -4.9840 C   0  0  0  0  0  0  0  0  0  0  0  0
   -1.7250    9.6800   -5.9290 C   0  0  2  0  0  0  0  0  0  0  0  0
   -0.5870   11.6260   -7.1100 N   0  0  0  0  0  0  0  0  0  0  0  0
    0.4090   12.9040   -3.5130 C   0  0  0  0  0  0  0  0  0  0  0  0
   -0.5240   10.2230   -6.7820 C   0  0  2  0  0  0  0  0  0  0  0  0
   -2.7420    8.9160   -6.7830 C   0  0  0  0  0  0  0  0  0  0  0  0
    0.9570   12.0120   -2.3700 C   0  0  2  0  0  0  0  0  0  0  0  0
   -0.2520    9.4240   -8.0630 C   0  0  0  0  0  0  0  0  0  0  0  0
   -2.1040    7.7620   -7.5610 C   0  0  0  0  0  0  0  0  0  0  0  0
    0.4700   10.7690   -2.3490 O   0  0  0  0  0  0  0  0  0  0  0  0
    0.5090   12.5440   -1.1510 O   0  0  0  0  0  0  0  0  0  0  0  0
   -0.6250    7.9600   -7.8950 C   0  0  0  0  0  0  0  0  0  0  0  0
  2  1  1  1
  2  3  1  0
  2  4  1  0
  4  5  1  0
  3  6  1  0
  3  7  1  6
  4  8  1  0
  5  9  1  6
  6  9  1  0
  6 10  1  6
  7 11  1  0
 10 11  1  0
  5 12  1  0
  8 13  1  0
 12 13  1  0
 11 14  1  6
 14 15  1  0
 16 15  1  1
 16 17  1  0
 16 18  1  0
 17 19  1  1
 18 20  1  0
 17 21  1  0
 19 22  1  0
 20 23  1  0
 21 23  1  0
 20 24  1  6
 22 25  1  0
 23 26  1  6
 24 27  1  0
 25 28  1  6
 25 29  1  0
 26 30  1  0
 27 30  1  0
M  CHG  1  28  -1
M  END
