ucsf248-ucsf173
     RDKit          3D

 26 29  0  0  0  0  0  0  0  0999 V2000
   -8.7000   12.9300    2.9960 N   0  0  0  0  0  0  0  0  0  0  0  0
   -8.3500   14.3330    2.1970 S   0  0  0  0  0  0  0  0  0  0  0  0
   -7.8710   15.4500    3.2380 O   0  0  0  0  0  0  0  0  0  0  0  0
   -9.6400   14.9060    1.4500 O   0  0  0  0  0  0  0  0  0  0  0  0
   -7.0160   14.2420    0.9660 C   0  0  2  0  0  0  0  0  0  0  0  0
   -5.7460   14.8210    1.4180 N   0  0  0  0  0  0  0  0  0  0  0  0
   -7.3160   14.9140   -0.3050 N   0  0  0  0  0  0  0  0  0  0  0  0
   -5.0290   14.6500    0.1520 C   0  0  1  0  0  0  0  0  0  0  0  0
   -5.9820   15.3160   -0.8010 C   0  0  1  0  0  0  0  0  0  0  0  0
   -3.6300   15.1890   -0.0110 C   0  0  0  0  0  0  0  0  0  0  0  0
   -5.6990   14.9010   -2.2310 C   0  0  0  0  0  0  0  0  0  0  0  0
   -3.1890   14.8750   -1.4670 C   0  0  1  0  0  0  0  0  0  0  0  0
   -4.2220   15.1460   -2.5740 C   0  0  0  0  0  0  0  0  0  0  0  0
   -1.7450   15.2260   -1.8800 C   0  0  0  0  0  0  0  0  0  0  0  0
   -1.0670   14.5650   -3.1040 C   0  0  2  0  0  0  0  0  0  0  0  0
    0.4230   14.1630   -2.8660 C   0  0  1  0  0  0  0  0  0  0  0  0
   -1.0360   15.4270   -4.3990 C   0  0  2  0  0  0  0  0  0  0  0  0
    0.7000   12.6420   -2.6390 C   0  0  1  0  0  0  0  0  0  0  0  0
    0.2930   16.1190   -4.1700 C   0  0  1  0  0  0  0  0  0  0  0  0
    1.1810   14.8830   -4.0210 C   0  0  0  0  0  0  0  0  0  0  0  0
   -2.1890   16.4150   -4.6340 C   0  0  0  0  0  0  0  0  0  0  0  0
    0.4550   12.3300   -1.3720 O   0  0  0  0  0  0  0  0  0  0  0  0
   -0.2930   11.8720   -3.2840 O   0  0  0  0  0  0  0  0  0  0  0  0
   -1.8590   17.5540   -5.6230 C   0  0  0  0  0  0  0  0  0  0  0  0
    0.6380   17.1670   -5.2140 C   0  0  0  0  0  0  0  0  0  0  0  0
   -0.4900   18.1770   -5.4200 C   0  0  0  0  0  0  0  0  0  0  0  0
  1  2  1  0
  2  3  1  0
  2  4  1  0
  5  2  1  1
  5  6  1  0
  5  7  1  0
  6  8  1  0
  7  9  1  0
  8  9  1  0
  8 10  1  1
  9 11  1  6
 10 12  1  0
 11 13  1  0
 12 13  1  0
 12 14  1  6
 15 14  1  1
 15 16  1  0
 15 17  1  0
 16 18  1  0
 17 19  1  0
 16 20  1  6
 19 20  1  6
 17 21  1  1
 18 22  1  1
 18 23  1  0
 21 24  1  0
 19 25  1  0
 24 26  1  0
 25 26  1  0
M  CHG  1  22  -1
M  END
