ucsf519-ucsf110
     RDKit          3D

 20 21  0  0  0  0  0  0  0  0999 V2000
   -0.1330   16.0870   -4.6640 C   0  0  0  0  0  0  0  0  0  0  0  0
   -0.5530   14.7350   -4.0680 C   0  0  2  0  0  0  0  0  0  0  0  0
   -0.1670   13.3510   -5.2450 S   0  0  0  0  0  0  0  0  0  0  0  0
   -2.0520   14.7280   -3.5910 C   0  0  2  0  0  0  0  0  0  0  0  0
    0.8480   12.1250   -4.2870 C   0  0  0  0  0  0  0  0  0  0  0  0
   -2.9290   15.2580   -4.5890 O   0  0  0  0  0  0  0  0  0  0  0  0
   -2.3740   15.2910   -2.2960 N   0  0  0  0  0  0  0  0  0  0  0  0
    0.4090   11.8200   -2.8170 C   0  0  2  0  0  0  0  0  0  0  0  0
   -3.8220   15.2020   -2.0710 C   0  0  0  0  0  0  0  0  0  0  0  0
   -1.7510   14.8590   -1.0700 C   0  0  2  0  0  0  0  0  0  0  0  0
    1.3830   12.3510   -1.9490 O   0  0  0  0  0  0  0  0  0  0  0  0
    0.5050   10.5120   -2.5380 O   0  0  0  0  0  0  0  0  0  0  0  0
   -1.0640   13.7090   -1.4370 O   0  0  0  0  0  0  0  0  0  0  0  0
   -3.9900   15.3350   -0.5760 C   0  0  0  0  0  0  0  0  0  0  0  0
   -2.8550   14.5590   -0.1700 N   0  0  0  0  0  0  0  0  0  0  0  0
   -0.7040   15.6290   -0.5060 N   0  0  0  0  0  0  0  0  0  0  0  0
   -2.6050   14.5080    1.2040 C   0  0  2  0  0  0  0  0  0  0  0  0
   -0.3090   15.0410    0.7260 C   0  0  0  0  0  0  0  0  0  0  0  0
   -3.6910   15.2530    1.7600 N   0  0  0  0  0  0  0  0  0  0  0  0
   -1.4330   15.2180    1.5930 N   0  0  0  0  0  0  0  0  0  0  0  0
  2  1  1  6
  2  3  1  0
  2  4  1  0
  3  5  1  0
  4  6  1  6
  4  7  1  0
  5  8  1  0
  7  9  1  0
  7 10  1  0
  8 11  1  1
  8 12  1  0
 10 13  1  6
  9 14  1  0
 10 15  1  0
 14 15  1  0
 10 16  1  0
 15 17  1  0
 16 18  1  0
 17 19  1  1
 17 20  1  0
 18 20  1  0
M  CHG  1  12  -1
M  END
