ucsf412-ucsf274
     RDKit          3D

 29 32  0  0  0  0  0  0  0  0999 V2000
   -7.7420   13.8280   -0.5640 O   0  0  0  0  0  0  0  0  0  0  0  0
   -7.2230   15.0060   -0.0270 C   0  0  1  0  0  0  0  0  0  0  0  0
   -7.3900   14.8390    1.4130 N   0  0  0  0  0  0  0  0  0  0  0  0
   -5.8160   15.3150   -0.5870 C   0  0  1  0  0  0  0  0  0  0  0  0
   -4.7240   14.6170    0.2290 C   0  0  2  0  0  0  0  0  0  0  0  0
   -6.2140   14.5940    2.2450 C   0  0  0  0  0  0  0  0  0  0  0  0
   -5.7250   14.9850   -2.0780 C   0  0  0  0  0  0  0  0  0  0  0  0
   -4.8530   15.0080    1.6840 C   0  0  0  0  0  0  0  0  0  0  0  0
   -3.3590   14.9460   -0.3300 C   0  0  0  0  0  0  0  0  0  0  0  0
   -4.3060   15.1320   -2.6180 C   0  0  0  0  0  0  0  0  0  0  0  0
   -3.2980   14.3930   -1.7460 C   0  0  1  0  0  0  0  0  0  0  0  0
   -1.9150   14.2970   -2.4000 C   0  0  0  0  0  0  0  0  0  0  0  0
   -1.9340   13.8020   -3.8470 C   0  0  0  0  0  0  0  0  0  0  0  0
   -2.0430   12.3800   -3.8620 O   0  0  0  0  0  0  0  0  0  0  0  0
   -1.7530   11.8470   -5.1590 C   0  0  1  0  0  0  0  0  0  0  0  0
   -0.2080   11.5990   -5.3090 C   0  0  2  0  0  0  0  0  0  0  0  0
   -2.5320   10.6220   -5.3690 N   0  0  0  0  0  0  0  0  0  0  0  0
    0.6910   12.7620   -4.8910 C   0  0  0  0  0  0  0  0  0  0  0  0
   -2.0280    9.8570   -6.5380 C   0  0  1  0  0  0  0  0  0  0  0  0
    0.1390   11.1030   -6.6520 N   0  0  0  0  0  0  0  0  0  0  0  0
    0.5550   13.1550   -3.4120 C   0  0  0  0  0  0  0  0  0  0  0  0
   -0.4910    9.7910   -6.7680 C   0  0  2  0  0  0  0  0  0  0  0  0
   -2.5690    8.4260   -6.4950 C   0  0  0  0  0  0  0  0  0  0  0  0
    1.0710   12.1220   -2.3770 C   0  0  2  0  0  0  0  0  0  0  0  0
   -0.1900    9.1720   -8.1280 C   0  0  0  0  0  0  0  0  0  0  0  0
   -2.2370    7.6880   -7.7980 C   0  0  0  0  0  0  0  0  0  0  0  0
    0.4840   10.9220   -2.4290 O   0  0  0  0  0  0  0  0  0  0  0  0
    0.5920   12.5850   -1.1350 O   0  0  0  0  0  0  0  0  0  0  0  0
   -0.7590    7.7540   -8.1790 C   0  0  0  0  0  0  0  0  0  0  0  0
  2  1  1  6
  2  3  1  0
  2  4  1  0
  4  5  1  0
  3  6  1  0
  4  7  1  6
  5  8  1  1
  6  8  1  0
  5  9  1  0
  7 10  1  0
  9 11  1  0
 10 11  1  0
 11 12  1  6
 12 13  1  0
 13 14  1  0
 15 14  1  1
 15 16  1  0
 15 17  1  0
 16 18  1  6
 17 19  1  0
 16 20  1  0
 18 21  1  0
 19 22  1  0
 20 22  1  0
 19 23  1  1
 21 24  1  0
 22 25  1  6
 23 26  1  0
 24 27  1  6
 24 28  1  0
 25 29  1  0
 26 29  1  0
M  CHG  1  27  -1
M  END
