ucsf149-ucsf187
     RDKit          3D

 14 15  0  0  0  0  0  0  0  0999 V2000
   14.0730    9.3610   10.8500 O   0  0  0  0  0  0  0  0  0  0  0  0
   14.6240    8.2510   11.5700 C   0  0  0  0  0  0  0  0  0  0  0  0
   14.3760    6.9310   10.8150 C   0  0  2  0  0  0  0  0  0  0  0  0
   14.6410    5.7520   11.6430 N   0  0  0  0  0  0  0  0  0  0  0  0
   15.1930    6.6980    9.6390 N   0  0  0  0  0  0  0  0  0  0  0  0
   14.5220    4.6740   10.6340 C   0  0  1  0  0  0  0  0  0  0  0  0
   14.7060    5.3600    9.2700 C   0  0  2  0  0  0  0  0  0  0  0  0
   15.4360    3.4580   10.8400 C   0  0  0  0  0  0  0  0  0  0  0  0
   15.5300    4.4310    8.3770 C   0  0  0  0  0  0  0  0  0  0  0  0
   15.2150    2.4000    9.7480 C   0  0  0  0  0  0  0  0  0  0  0  0
   14.7770    3.0690    8.4470 C   0  0  2  0  0  0  0  0  0  0  0  0
   14.5380    2.1000    7.2330 C   0  0  1  0  0  0  0  0  0  0  0  0
   15.4500    2.1290    6.2970 O   0  0  0  0  0  0  0  0  0  0  0  0
   14.6460    0.7710    7.7120 O   0  0  0  0  0  0  0  0  0  0  0  0
  1  2  1  0
  3  2  1  1
  3  4  1  0
  3  5  1  0
  4  6  1  0
  5  7  1  0
  6  7  1  0
  6  8  1  1
  7  9  1  6
  8 10  1  0
 11  9  1  6
 10 11  1  0
 11 12  1  0
 12 13  1  6
 12 14  1  0
M  CHG  1  13  -1
M  END
