ucsf138-ucsf260
     RDKit          3D

 23 25  0  0  0  0  0  0  0  0999 V2000
    1.3980   12.2720   -2.0830 O   0  0  0  0  0  0  0  0  0  0  0  0
    0.5290   11.7010   -2.8930 C   0  0  2  0  0  0  0  0  0  0  0  0
    0.3880   10.4200   -2.2970 O   0  0  0  0  0  0  0  0  0  0  0  0
    1.1100   11.4600   -4.3250 C   0  0  0  0  0  0  0  0  0  0  0  0
    0.4850   12.0470   -5.5450 N   0  0  0  0  0  0  0  0  0  0  0  0
    1.2040   11.7010   -6.7860 C   0  0  1  0  0  0  0  0  0  0  0  0
   -0.9440   11.7310   -5.7670 N   0  0  0  0  0  0  0  0  0  0  0  0
    2.4120   12.3230   -6.7210 O   0  0  0  0  0  0  0  0  0  0  0  0
    1.4060   10.2820   -7.1350 N   0  0  0  0  0  0  0  0  0  0  0  0
   -1.7220   11.2870   -4.6050 C   0  0  0  0  0  0  0  0  0  0  0  0
   -0.8320   10.5390   -6.5840 C   0  0  1  0  0  0  0  0  0  0  0  0
    0.9300    9.6740   -8.4300 C   0  0  0  0  0  0  0  0  0  0  0  0
   -2.6970   10.3460   -5.1790 N   0  0  0  0  0  0  0  0  0  0  0  0
   -1.7580    9.5260   -5.9380 C   0  0  1  0  0  0  0  0  0  0  0  0
   -1.0990   10.7220   -8.0700 C   0  0  0  0  0  0  0  0  0  0  0  0
    0.9850   10.5740   -9.7130 C   0  0  0  0  0  0  0  0  0  0  0  0
    1.7090    8.3480   -8.6660 C   0  0  0  0  0  0  0  0  0  0  0  0
   -2.3200    8.5910   -7.0020 C   0  0  0  0  0  0  0  0  0  0  0  0
   -0.8280    9.4230   -8.8430 C   0  0  0  0  0  0  0  0  0  0  0  0
    0.6160    9.8580  -11.0320 C   0  0  0  0  0  0  0  0  0  0  0  0
    2.2120    8.1430  -10.0920 C   0  0  0  0  0  0  0  0  0  0  0  0
   -1.2360    8.2140   -8.0130 C   0  0  0  0  0  0  0  0  0  0  0  0
    1.1100    8.4140  -11.0990 C   0  0  0  0  0  0  0  0  0  0  0  0
  2  1  1  1
  2  3  1  0
  2  4  1  0
  4  5  1  0
  5  6  1  0
  5  7  1  0
  6  8  1  1
  6  9  1  0
  7 10  1  0
  7 11  1  0
  9 12  1  0
 10 13  1  0
 11 14  1  0
 13 14  1  0
 11 15  1  6
 12 16  1  0
 12 17  1  0
 14 18  1  6
 15 19  1  0
 16 20  1  0
 17 21  1  0
 18 22  1  0
 19 22  1  0
 20 23  1  0
 21 23  1  0
M  CHG  1   1  -1
M  END
