ucsf493-ucsf345
     RDKit          3D

 25 27  0  0  0  0  0  0  0  0999 V2000
   -4.7570   15.3010   -6.1910 C   0  0  0  0  0  0  0  0  0  0  0  0
   -3.9100   15.6490   -5.0450 N   0  0  0  0  0  0  0  0  0  0  0  0
   -4.0750   14.5660   -4.0330 C   0  0  0  0  0  0  0  0  0  0  0  0
   -2.5270   15.8430   -5.4820 C   0  0  2  0  0  0  0  0  0  0  0  0
   -1.6600   14.6030   -5.2020 C   0  0  0  0  0  0  0  0  0  0  0  0
   -1.9020   17.2250   -5.1540 C   0  0  0  0  0  0  0  0  0  0  0  0
   -4.1480   15.0800   -2.5790 C   0  0  1  0  0  0  0  0  0  0  0  0
   -0.3810   14.8400   -4.4040 C   0  0  2  0  0  0  0  0  0  0  0  0
   -0.3950   17.2910   -5.3430 C   0  0  0  0  0  0  0  0  0  0  0  0
   -5.4610   14.7040   -1.9850 N   0  0  0  0  0  0  0  0  0  0  0  0
   -2.9460   14.5740   -1.7430 C   0  0  0  0  0  0  0  0  0  0  0  0
    0.2710   16.2450   -4.4600 C   0  0  2  0  0  0  0  0  0  0  0  0
    0.7610   13.9260   -4.8540 C   0  0  2  0  0  0  0  0  0  0  0  0
   -5.5460   15.2440   -0.6150 C   0  0  1  0  0  0  0  0  0  0  0  0
   -2.9950   14.9820   -0.3330 N   0  0  0  0  0  0  0  0  0  0  0  0
    0.6840   12.4310   -4.4980 C   0  0  0  0  0  0  0  0  0  0  0  0
   -6.9240   14.8710    0.0170 C   0  0  2  0  0  0  0  0  0  0  0  0
    1.6560   16.0160   -4.8580 N   0  0  0  0  0  0  0  0  0  0  0  0
    1.9260   14.6820   -4.2850 C   0  0  0  0  0  0  0  0  0  0  0  0
   -4.3410   14.7360    0.2360 C   0  0  0  0  0  0  0  0  0  0  0  0
    0.2780   12.1050   -3.0370 C   0  0  1  0  0  0  0  0  0  0  0  0
   -6.8950   14.6150    1.4420 N   0  0  0  0  0  0  0  0  0  0  0  0
   -7.4930   13.7470   -0.5990 O   0  0  0  0  0  0  0  0  0  0  0  0
    0.4120   10.7170   -2.8180 O   0  0  0  0  0  0  0  0  0  0  0  0
    1.1730   12.5690   -2.1970 O   0  0  0  0  0  0  0  0  0  0  0  0
  1  2  1  0
  2  3  1  0
  4  2  1  1
  4  5  1  0
  4  6  1  0
  7  3  1  6
  8  5  1  6
  6  9  1  0
  7 10  1  0
  7 11  1  0
  8 12  1  0
 12  9  1  6
  8 13  1  0
 10 14  1  0
 11 15  1  0
 13 16  1  1
 14 17  1  0
 12 18  1  0
 13 19  1  0
 18 19  1  0
 14 20  1  1
 15 20  1  0
 16 21  1  0
 17 22  1  1
 17 23  1  0
 21 24  1  6
 21 25  1  0
M  CHG  1  25  -1
M  END
