ucsf403-ucsf123
     RDKit          3D

 24 25  0  0  0  0  0  0  0  0999 V2000
    0.8010    8.8750   -7.9450 Cl  0  0  0  0  0  0  0  0  0  0  0  0
   -0.4570    9.2530   -6.7210 C   0  0  1  0  0  0  0  0  0  0  0  0
   -0.5730   10.7690   -6.4420 C   0  0  0  0  0  0  0  0  0  0  0  0
   -1.7800    8.6380   -7.1940 C   0  0  0  0  0  0  0  0  0  0  0  0
    0.6670   11.3040   -5.9350 O   0  0  0  0  0  0  0  0  0  0  0  0
   -1.8730   11.1170   -5.6540 C   0  0  2  0  0  0  0  0  0  0  0  0
   -3.0000    8.9580   -6.3300 C   0  0  0  0  0  0  0  0  0  0  0  0
   -1.7360   12.1570   -4.2190 Cl  0  0  0  0  0  0  0  0  0  0  0  0
    0.6960   12.4130   -5.0320 C   0  0  0  0  0  0  0  0  0  0  0  0
   -2.6660    9.8950   -5.1910 C   0  0  0  0  0  0  0  0  0  0  0  0
    0.8350   11.9450   -3.5530 C   0  0  2  0  0  0  0  0  0  0  0  0
    0.0690   12.7420   -2.5840 N   0  0  0  0  0  0  0  0  0  0  0  0
    2.1910   12.0190   -3.2120 O   0  0  0  0  0  0  0  0  0  0  0  0
    0.7640   12.8260   -1.3000 O   0  0  0  0  0  0  0  0  0  0  0  0
   -0.4090   14.0700   -3.0160 C   0  0  1  0  0  0  0  0  0  0  0  0
    0.7450   14.9720   -3.5530 C   0  0  0  0  0  0  0  0  0  0  0  0
   -1.6730   14.0040   -3.9080 C   0  0  0  0  0  0  0  0  0  0  0  0
    0.3010   16.2890   -4.1980 C   0  0  0  0  0  0  0  0  0  0  0  0
   -1.5050   14.8330   -5.1650 C   0  0  0  0  0  0  0  0  0  0  0  0
   -1.1400   16.2240   -4.7050 C   0  0  2  0  0  0  0  0  0  0  0  0
   -1.5630   17.5620   -5.7890 S   0  0  0  0  0  0  0  0  0  0  0  0
   -2.0190   18.9880   -5.1350 N   0  0  0  0  0  0  0  0  0  0  0  0
   -0.2800   17.7930   -6.6930 O   0  0  0  0  0  0  0  0  0  0  0  0
   -2.7080   17.0100   -6.7380 O   0  0  0  0  0  0  0  0  0  0  0  0
  2  1  1  6
  2  3  1  0
  2  4  1  0
  3  5  1  0
  3  6  1  0
  4  7  1  0
  6  8  1  1
  5  9  1  0
  6 10  1  0
  7 10  1  0
  9 11  1  0
 11 12  1  0
 11 13  1  1
 12 14  1  0
 15 12  1  6
 15 16  1  0
 15 17  1  0
 16 18  1  0
 17 19  1  0
 18 20  1  0
 19 20  1  0
 20 21  1  6
 21 22  1  0
 21 23  1  0
 21 24  1  0
M  END
