ucsf190-ucsf364
     RDKit          3D

 22 24  0  0  0  0  0  0  0  0999 V2000
    0.3630   10.9880   -1.5690 O   0  0  0  0  0  0  0  0  0  0  0  0
    0.4600   12.0040   -2.4010 C   0  0  0  0  0  0  0  0  0  0  0  0
    1.7620   12.4560   -2.2150 O   0  0  0  0  0  0  0  0  0  0  0  0
   -0.4440   12.9650   -1.9130 O   0  0  0  0  0  0  0  0  0  0  0  0
    0.1870   11.5730   -3.8460 C   0  0  2  0  0  0  0  0  0  0  0  0
    1.0700   12.2900   -4.9390 C   0  0  2  0  0  0  0  0  0  0  0  0
   -1.3240   11.4690   -4.1900 C   0  0  0  0  0  0  0  0  0  0  0  0
    0.9830   13.8380   -4.9930 C   0  0  1  0  0  0  0  0  0  0  0  0
   -1.6240   11.0870   -5.6500 C   0  0  0  0  0  0  0  0  0  0  0  0
    0.6970   11.6150   -6.2730 C   0  0  2  0  0  0  0  0  0  0  0  0
    1.5760   11.9270   -7.3250 O   0  0  0  0  0  0  0  0  0  0  0  0
   -0.4500   14.3920   -5.1340 C   0  0  2  0  0  0  0  0  0  0  0  0
    1.8820   14.6120   -4.1130 N   0  0  0  0  0  0  0  0  0  0  0  0
   -0.7430   11.8070   -6.6560 C   0  0  0  0  0  0  0  0  0  0  0  0
   -0.6460   15.9030   -5.0240 C   0  0  2  0  0  0  0  0  0  0  0  0
    1.7270   16.0460   -4.3020 N   0  0  0  0  0  0  0  0  0  0  0  0
   -1.5540   13.6470   -4.3960 C   0  0  0  0  0  0  0  0  0  0  0  0
    0.3660   16.5100   -4.0540 C   0  0  1  0  0  0  0  0  0  0  0  0
   -2.1460   16.2240   -4.8280 C   0  0  0  0  0  0  0  0  0  0  0  0
   -2.8420   13.7700   -5.1830 C   0  0  0  0  0  0  0  0  0  0  0  0
    0.3510   17.9150   -4.1830 O   0  0  0  0  0  0  0  0  0  0  0  0
   -3.0930   15.2370   -5.5250 C   0  0  0  0  0  0  0  0  0  0  0  0
  2  1  1  0
  2  3  1  0
  2  4  1  0
  5  2  1  1
  6  5  1  1
  5  7  1  0
  6  8  1  0
  7  9  1  0
  6 10  1  0
 10 11  1  6
  8 12  1  0
  8 13  1  1
  9 14  1  0
 10 14  1  0
 12 15  1  0
 13 16  1  0
 12 17  1  1
 15 18  1  0
 16 18  1  0
 15 19  1  1
 17 20  1  0
 18 21  1  6
 19 22  1  0
 20 22  1  0
M  CHG  1   1  -1
M  END
