ucsf172-ucsf170
     RDKit          3D

 16 16  0  0  0  0  0  0  0  0999 V2000
   -8.0690   14.9030    2.3880 C   0  0  0  0  0  0  0  0  0  0  0  0
   -6.8330   14.4560    1.2210 S   0  0  0  0  0  0  0  0  0  0  0  0
   -6.5310   12.9390    1.6370 O   0  0  0  0  0  0  0  0  0  0  0  0
   -7.5770   14.3440   -0.1910 O   0  0  0  0  0  0  0  0  0  0  0  0
   -5.3650   15.2130    1.2060 N   0  0  0  0  0  0  0  0  0  0  0  0
   -4.3300   15.1770    0.1760 C   0  0  1  0  0  0  0  0  0  0  0  0
   -3.3520   14.0240    0.3630 C   0  0  0  0  0  0  0  0  0  0  0  0
   -4.8950   15.3720   -1.2300 C   0  0  0  0  0  0  0  0  0  0  0  0
   -2.2040   13.9810   -0.6210 C   0  0  0  0  0  0  0  0  0  0  0  0
   -3.9790   14.9130   -2.3600 C   0  0  0  0  0  0  0  0  0  0  0  0
   -2.4960   14.5930   -2.0140 C   0  0  2  0  0  0  0  0  0  0  0  0
   -1.6770   13.8700   -3.1750 C   0  0  2  0  0  0  0  0  0  0  0  0
   -0.2800   13.4770   -2.7500 N   0  0  0  0  0  0  0  0  0  0  0  0
   -1.6560   14.7270   -4.2010 O   0  0  0  0  0  0  0  0  0  0  0  0
    0.2160   14.3800   -1.7310 O   0  0  0  0  0  0  0  0  0  0  0  0
    0.6600   13.7530   -3.8100 O   0  0  0  0  0  0  0  0  0  0  0  0
  1  2  1  0
  2  3  1  0
  2  4  1  0
  2  5  1  0
  6  5  1  1
  6  7  1  0
  6  8  1  0
  7  9  1  0
  8 10  1  0
 11  9  1  1
 10 11  1  0
 11 12  1  0
 12 13  1  0
 12 14  1  6
 13 15  1  0
 13 16  1  0
M  CHG  2  14  -1  16  -1
M  END
