ucsf411-ucsf013
     RDKit          3D

 27 30  0  0  0  0  0  0  0  0999 V2000
    0.5930   10.5600   -2.2820 O   0  0  0  0  0  0  0  0  0  0  0  0
    0.2700   11.8220   -2.5530 C   0  0  1  0  0  0  0  0  0  0  0  0
    0.4530   12.4090   -1.2780 O   0  0  0  0  0  0  0  0  0  0  0  0
    1.2650   12.4880   -3.5710 C   0  0  0  0  0  0  0  0  0  0  0  0
    0.9550   13.8790   -3.8410 O   0  0  0  0  0  0  0  0  0  0  0  0
    0.4290   14.1900   -5.1360 C   0  0  2  0  0  0  0  0  0  0  0  0
    0.0980   15.7080   -5.2430 C   0  0  1  0  0  0  0  0  0  0  0  0
   -0.7500   13.2670   -5.4860 C   0  0  0  0  0  0  0  0  0  0  0  0
   -1.3900   16.1040   -5.1480 C   0  0  1  0  0  0  0  0  0  0  0  0
   -2.1060   13.6840   -4.9260 C   0  0  0  0  0  0  0  0  0  0  0  0
    0.9270   16.6150   -4.3480 C   0  0  0  0  0  0  0  0  0  0  0  0
   -2.1720   15.0870   -4.3480 C   0  0  2  0  0  0  0  0  0  0  0  0
   -1.5120   17.5680   -4.7500 C   0  0  0  0  0  0  0  0  0  0  0  0
    0.9540   17.9950   -4.9780 C   0  0  0  0  0  0  0  0  0  0  0  0
   -3.5560   15.5660   -3.9760 C   0  0  0  0  0  0  0  0  0  0  0  0
   -0.4380   18.3630   -5.4720 C   0  0  0  0  0  0  0  0  0  0  0  0
   -3.9750   15.4410   -2.5130 C   0  0  1  0  0  0  0  0  0  0  0  0
   -5.4600   15.1260   -2.3060 C   0  0  0  0  0  0  0  0  0  0  0  0
   -3.1130   14.3630   -1.8860 C   0  0  0  0  0  0  0  0  0  0  0  0
   -5.7800   14.2110   -1.1090 C   0  0  1  0  0  0  0  0  0  0  0  0
   -3.2640   14.4130   -0.3970 C   0  0  0  0  0  0  0  0  0  0  0  0
   -4.7200   14.1790    0.0150 C   0  0  1  0  0  0  0  0  0  0  0  0
   -7.0640   14.6360   -0.5230 N   0  0  0  0  0  0  0  0  0  0  0  0
   -5.0770   15.2210    1.0320 C   0  0  2  0  0  0  0  0  0  0  0  0
   -7.2380   14.1970    0.8510 C   0  0  0  0  0  0  0  0  0  0  0  0
   -4.0820   15.4400    2.0430 N   0  0  0  0  0  0  0  0  0  0  0  0
   -6.2850   14.8720    1.7140 N   0  0  0  0  0  0  0  0  0  0  0  0
  2  1  1  1
  2  3  1  0
  2  4  1  0
  4  5  1  0
  6  5  1  1
  6  7  1  0
  6  8  1  0
  7  9  1  0
  8 10  1  0
  7 11  1  1
  9 12  1  0
 10 12  1  0
  9 13  1  1
 11 14  1  0
 12 15  1  6
 13 16  1  0
 14 16  1  0
 17 15  1  6
 17 18  1  0
 17 19  1  0
 20 18  1  6
 19 21  1  0
 20 22  1  0
 22 21  1  6
 20 23  1  0
 22 24  1  0
 23 25  1  0
 24 26  1  1
 24 27  1  0
 25 27  1  0
M  CHG  1   1  -1
M  END
