ucsf147-ucsf012
     RDKit          3D

 27 30  0  0  0  0  0  0  0  0999 V2000
    1.0320   14.2480   -5.4010 C   0  0  0  0  0  0  0  0  0  0  0  0
   -0.3770   14.4280   -4.8560 C   0  0  1  0  0  0  0  0  0  0  0  0
   -1.3120   14.0050   -5.8540 O   0  0  0  0  0  0  0  0  0  0  0  0
   -0.6530   13.4730   -3.7410 C   0  0  1  0  0  0  0  0  0  0  0  0
    0.2910   13.5190   -2.5100 C   0  0  2  0  0  0  0  0  0  0  0  0
   -2.5490   13.5890   -5.1760 N   0  0  0  0  0  0  0  0  0  0  0  0
   -2.1570   13.1760   -3.8060 C   0  0  2  0  0  0  0  0  0  0  0  0
   -0.2390   13.8220   -1.2710 O   0  0  0  0  0  0  0  0  0  0  0  0
    1.2670   14.4130   -2.6520 O   0  0  0  0  0  0  0  0  0  0  0  0
   -3.2360   13.4920   -2.7350 C   0  0  1  0  0  0  0  0  0  0  0  0
    0.7330   12.0720   -2.5060 C   0  0  2  0  0  0  0  0  0  0  0  0
   -2.7990   13.5350   -1.2180 C   0  0  0  0  0  0  0  0  0  0  0  0
   -4.0680   14.6910   -3.1970 C   0  0  2  0  0  0  0  0  0  0  0  0
    1.5850   11.7010   -3.7040 C   0  0  0  0  0  0  0  0  0  0  0  0
   -0.4940   11.2830   -2.6590 O   0  0  0  0  0  0  0  0  0  0  0  0
   -3.1850   15.7340   -3.8850 C   0  0  0  0  0  0  0  0  0  0  0  0
   -2.7240   14.9390   -0.5500 C   0  0  1  0  0  0  0  0  0  0  0  0
   -4.8450   15.2150   -2.0080 C   0  0  0  0  0  0  0  0  0  0  0  0
   -0.4310   10.6110   -3.9070 C   0  0  0  0  0  0  0  0  0  0  0  0
    1.0190   10.3780   -4.1190 C   0  0  0  0  0  0  0  0  0  0  0  0
   -3.8700   15.8280   -1.0520 C   0  0  0  0  0  0  0  0  0  0  0  0
   -2.8090   15.0420    0.9860 C   0  0  1  0  0  0  0  0  0  0  0  0
   -1.3760   15.5570   -0.9540 C   0  0  0  0  0  0  0  0  0  0  0  0
   -4.0250   14.5310    1.5550 N   0  0  0  0  0  0  0  0  0  0  0  0
   -1.7190   14.4410    1.7050 N   0  0  0  0  0  0  0  0  0  0  0  0
   -0.2920   15.3810    0.0320 N   0  0  0  0  0  0  0  0  0  0  0  0
   -0.5060   14.2810    0.9550 C   0  0  0  0  0  0  0  0  0  0  0  0
  2  1  1  6
  2  3  1  0
  4  2  1  1
  4  5  1  0
  3  6  1  0
  4  7  1  0
  7  6  1  6
  5  8  1  1
  5  9  1  0
  7 10  1  0
  5 11  1  0
 10 12  1  1
 10 13  1  0
 11 14  1  6
 11 15  1  0
 13 16  1  1
 17 12  1  1
 13 18  1  0
 15 19  1  0
 14 20  1  0
 19 20  1  0
 17 21  1  0
 18 21  1  0
 17 22  1  0
 17 23  1  0
 22 24  1  1
 22 25  1  0
 23 26  1  0
 25 27  1  0
 26 27  1  0
M  CHG  1   9  -1
M  END
