ucsf333-ucsf114
     RDKit          3D

 22 23  0  0  0  0  0  0  0  0999 V2000
   -6.0870   14.8430   -1.6540 Cl  0  0  0  0  0  0  0  0  0  0  0  0
   -4.5390   15.6280   -1.2210 C   0  0  2  0  0  0  0  0  0  0  0  0
   -3.4850   15.4790   -2.3610 C   0  0  0  0  0  0  0  0  0  0  0  0
   -4.0910   15.2280    0.1870 C   0  0  0  0  0  0  0  0  0  0  0  0
   -2.0980   14.8960   -1.9970 C   0  0  1  0  0  0  0  0  0  0  0  0
   -3.0570   14.0950    0.1890 C   0  0  0  0  0  0  0  0  0  0  0  0
   -0.8630   15.5710   -2.4360 N   0  0  0  0  0  0  0  0  0  0  0  0
   -1.8120   14.5180   -0.5590 C   0  0  2  0  0  0  0  0  0  0  0  0
   -1.1200   15.4940    0.2420 O   0  0  0  0  0  0  0  0  0  0  0  0
    0.1280   14.4580   -2.3530 C   0  0  1  0  0  0  0  0  0  0  0  0
   -0.6270   13.2930   -1.0800 S   0  0  0  0  0  0  0  0  0  0  0  0
    0.6830   13.9670   -3.7240 C   0  0  1  0  0  0  0  0  0  0  0  0
    1.6750   14.7720   -1.3810 S   0  0  0  0  0  0  0  0  0  0  0  0
    0.5690   12.4220   -3.9370 C   0  0  0  0  0  0  0  0  0  0  0  0
    0.2930   14.8790   -4.9450 C   0  0  0  0  0  0  0  0  0  0  0  0
    0.1800   11.6440   -2.6320 C   0  0  2  0  0  0  0  0  0  0  0  0
   -0.5760   15.9990   -4.6140 O   0  0  0  0  0  0  0  0  0  0  0  0
    0.9760   11.8950   -1.6220 O   0  0  0  0  0  0  0  0  0  0  0  0
    0.4060   10.2600   -2.7490 O   0  0  0  0  0  0  0  0  0  0  0  0
   -0.2840   17.2510   -5.2710 C   0  0  0  0  0  0  0  0  0  0  0  0
    0.7670   17.9690   -4.4360 C   0  0  0  0  0  0  0  0  0  0  0  0
   -1.5480   18.1090   -5.3790 C   0  0  0  0  0  0  0  0  0  0  0  0
  2  1  1  6
  2  3  1  0
  2  4  1  0
  5  3  1  1
  4  6  1  0
  5  7  1  0
  5  8  1  0
  6  8  1  0
  8  9  1  1
  7 10  1  0
  8 11  1  0
 10 11  1  0
 10 12  1  0
 10 13  1  1
 12 14  1  6
 12 15  1  0
 14 16  1  0
 15 17  1  0
 16 18  1  1
 16 19  1  0
 17 20  1  0
 20 21  1  0
 20 22  1  0
M  CHG  1  18  -1
M  END
