ucsf262-ucsf396
     RDKit          3D

 25 27  0  0  0  0  0  0  0  0999 V2000
   -3.2560   15.6830   -4.3810 Cl  0  0  0  0  0  0  0  0  0  0  0  0
   -1.7240   16.2430   -5.1200 C   0  0  2  0  0  0  0  0  0  0  0  0
   -0.5600   15.9250   -4.2130 C   0  0  1  0  0  0  0  0  0  0  0  0
   -1.8020   17.7090   -5.5920 C   0  0  0  0  0  0  0  0  0  0  0  0
    0.0610   14.5550   -4.4530 C   0  0  0  0  0  0  0  0  0  0  0  0
    0.5680   16.9470   -4.2630 C   0  0  1  0  0  0  0  0  0  0  0  0
   -0.5140   18.2720   -6.2050 C   0  0  0  0  0  0  0  0  0  0  0  0
    1.5390   14.7100   -4.1130 C   0  0  1  0  0  0  0  0  0  0  0  0
    1.7430   16.1610   -3.9050 N   0  0  0  0  0  0  0  0  0  0  0  0
    0.7640   17.7230   -5.5760 C   0  0  0  0  0  0  0  0  0  0  0  0
    2.1250   13.8300   -2.9460 C   0  0  1  0  0  0  0  0  0  0  0  0
    2.9070   14.5740   -2.1750 O   0  0  0  0  0  0  0  0  0  0  0  0
    1.0180   13.3920   -2.1260 O   0  0  0  0  0  0  0  0  0  0  0  0
    0.6430   14.3370   -1.1270 C   0  0  0  0  0  0  0  0  0  0  0  0
   -0.2670   13.6700   -0.0990 C   0  0  0  0  0  0  0  0  0  0  0  0
   -1.2810   14.6330    0.4950 C   0  0  0  0  0  0  0  0  0  0  0  0
   -2.4970   14.7010   -0.3380 N   0  0  0  0  0  0  0  0  0  0  0  0
   -3.6480   15.2020    0.3690 C   0  0  2  0  0  0  0  0  0  0  0  0
   -3.3410   15.2730    1.7380 O   0  0  0  0  0  0  0  0  0  0  0  0
   -5.0300   14.5480    0.1430 C   0  0  2  0  0  0  0  0  0  0  0  0
   -5.8890   15.2020   -0.9420 C   0  0  0  0  0  0  0  0  0  0  0  0
   -5.7720   14.4720    1.4920 C   0  0  0  0  0  0  0  0  0  0  0  0
   -7.1890   14.5300   -1.0610 N   0  0  0  0  0  0  0  0  0  0  0  0
   -7.2720   14.1640    1.4090 C   0  0  0  0  0  0  0  0  0  0  0  0
   -7.9830   14.6820    0.1590 C   0  0  0  0  0  0  0  0  0  0  0  0
  2  1  1  1
  2  3  1  0
  2  4  1  0
  3  5  1  6
  3  6  1  0
  4  7  1  0
  8  5  1  1
  6  9  1  0
  8  9  1  0
  6 10  1  6
  7 10  1  0
  8 11  1  0
 11 12  1  1
 11 13  1  0
 13 14  1  0
 14 15  1  0
 15 16  1  0
 16 17  1  0
 17 18  1  0
 18 19  1  1
 18 20  1  0
 20 21  1  6
 20 22  1  0
 21 23  1  0
 22 24  1  0
 23 25  1  0
 24 25  1  0
M  CHG  1  12  -1
M  END
