ucsf147-ucsf012
     RDKit          3D

 27 30  0  0  0  0  0  0  0  0999 V2000
    1.0360   14.2450   -5.4000 C   0  0  0  0  0  0  0  0  0  0  0  0
   -0.3730   14.4270   -4.8550 C   0  0  1  0  0  0  0  0  0  0  0  0
   -1.3110   14.0050   -5.8540 O   0  0  0  0  0  0  0  0  0  0  0  0
   -0.6520   13.4720   -3.7380 C   0  0  1  0  0  0  0  0  0  0  0  0
    0.2930   13.5210   -2.5080 C   0  0  2  0  0  0  0  0  0  0  0  0
   -2.5460   13.5860   -5.1750 N   0  0  0  0  0  0  0  0  0  0  0  0
   -2.1550   13.1730   -3.8060 C   0  0  2  0  0  0  0  0  0  0  0  0
   -0.2380   13.8210   -1.2680 O   0  0  0  0  0  0  0  0  0  0  0  0
    1.2680   14.4170   -2.6480 O   0  0  0  0  0  0  0  0  0  0  0  0
   -3.2340   13.4890   -2.7330 C   0  0  1  0  0  0  0  0  0  0  0  0
    0.7330   12.0750   -2.5050 C   0  0  2  0  0  0  0  0  0  0  0  0
   -2.7970   13.5370   -1.2200 C   0  0  0  0  0  0  0  0  0  0  0  0
   -4.0680   14.6920   -3.1980 C   0  0  2  0  0  0  0  0  0  0  0  0
    1.5880   11.7020   -3.7030 C   0  0  0  0  0  0  0  0  0  0  0  0
   -0.4940   11.2910   -2.6630 O   0  0  0  0  0  0  0  0  0  0  0  0
   -3.1850   15.7320   -3.8850 C   0  0  0  0  0  0  0  0  0  0  0  0
   -2.7210   14.9370   -0.5520 C   0  0  1  0  0  0  0  0  0  0  0  0
   -4.8430   15.2140   -2.0070 C   0  0  0  0  0  0  0  0  0  0  0  0
   -0.4300   10.6120   -3.9080 C   0  0  0  0  0  0  0  0  0  0  0  0
    1.0220   10.3810   -4.1160 C   0  0  0  0  0  0  0  0  0  0  0  0
   -3.8660   15.8310   -1.0530 C   0  0  0  0  0  0  0  0  0  0  0  0
   -2.8040   15.0440    0.9830 C   0  0  1  0  0  0  0  0  0  0  0  0
   -1.3700   15.5570   -0.9570 C   0  0  0  0  0  0  0  0  0  0  0  0
   -4.0210   14.5340    1.5550 N   0  0  0  0  0  0  0  0  0  0  0  0
   -1.7180   14.4420    1.7050 N   0  0  0  0  0  0  0  0  0  0  0  0
   -0.2910   15.3860    0.0350 N   0  0  0  0  0  0  0  0  0  0  0  0
   -0.5000   14.2880    0.9600 C   0  0  0  0  0  0  0  0  0  0  0  0
  2  1  1  6
  2  3  1  0
  4  2  1  1
  4  5  1  0
  3  6  1  0
  4  7  1  0
  7  6  1  6
  5  8  1  1
  5  9  1  0
  7 10  1  0
  5 11  1  0
 10 12  1  1
 10 13  1  0
 11 14  1  6
 11 15  1  0
 13 16  1  1
 17 12  1  1
 13 18  1  0
 15 19  1  0
 14 20  1  0
 19 20  1  0
 17 21  1  0
 18 21  1  0
 17 22  1  0
 17 23  1  0
 22 24  1  1
 22 25  1  0
 23 26  1  0
 25 27  1  0
 26 27  1  0
M  CHG  1   9  -1
M  END
