ucsf247-ucsf340
     RDKit          3D

 26 28  0  0  0  0  0  0  0  0999 V2000
    1.0610   13.8360   -2.3120 O   0  0  0  0  0  0  0  0  0  0  0  0
    0.3220   14.1500   -3.4770 C   0  0  1  0  0  0  0  0  0  0  0  0
    0.9160   13.5550   -4.6310 O   0  0  0  0  0  0  0  0  0  0  0  0
    1.3770   12.4230   -2.3060 C   0  0  0  0  0  0  0  0  0  0  0  0
   -1.0710   13.5340   -3.2180 C   0  0  0  0  0  0  0  0  0  0  0  0
    0.4180   11.7310   -1.6730 O   0  0  0  0  0  0  0  0  0  0  0  0
    0.0330   15.6200   -3.8360 C   0  0  1  0  0  0  0  0  0  0  0  0
   -1.8890   14.0990   -2.1140 N   0  0  0  0  0  0  0  0  0  0  0  0
    1.0780   16.5250   -4.4640 C   0  0  0  0  0  0  0  0  0  0  0  0
   -0.9950   15.6870   -4.9550 C   0  0  2  0  0  0  0  0  0  0  0  0
   -3.2420   14.4720   -2.4430 C   0  0  2  0  0  0  0  0  0  0  0  0
    0.2520   17.7050   -4.8530 N   0  0  0  0  0  0  0  0  0  0  0  0
   -0.7890   17.0530   -5.6290 C   0  0  2  0  0  0  0  0  0  0  0  0
   -2.4130   15.4350   -4.4580 C   0  0  0  0  0  0  0  0  0  0  0  0
   -3.3020   15.5720   -3.3110 O   0  0  0  0  0  0  0  0  0  0  0  0
    1.0320   18.5260   -5.7630 C   0  0  0  0  0  0  0  0  0  0  0  0
   -4.0520   14.9390   -1.2400 C   0  0  1  0  0  0  0  0  0  0  0  0
   -3.4320   15.5170   -5.5520 C   0  0  0  0  0  0  0  0  0  0  0  0
   -2.1190   17.7450   -5.8790 C   0  0  0  0  0  0  0  0  0  0  0  0
   -5.4590   14.3650   -1.2170 C   0  0  0  0  0  0  0  0  0  0  0  0
   -3.3600   14.8140    0.1200 C   0  0  0  0  0  0  0  0  0  0  0  0
   -3.2030   16.7560   -6.3740 C   0  0  0  0  0  0  0  0  0  0  0  0
   -6.2730   15.0140   -0.1450 C   0  0  1  0  0  0  0  0  0  0  0  0
   -4.1910   15.4040    1.2450 C   0  0  0  0  0  0  0  0  0  0  0  0
   -7.5900   14.4700   -0.1120 O   0  0  0  0  0  0  0  0  0  0  0  0
   -5.5990   14.8180    1.2160 C   0  0  0  0  0  0  0  0  0  0  0  0
  2  1  1  0
  2  3  1  6
  1  4  1  0
  2  5  1  0
  4  6  1  0
  2  7  1  0
  5  8  1  0
  7  9  1  6
  7 10  1  0
  8 11  1  0
  9 12  1  0
 10 13  1  0
 12 13  1  0
 10 14  1  1
 11 15  1  6
 12 16  1  0
 11 17  1  0
 14 18  1  0
 13 19  1  1
 17 20  1  1
 17 21  1  0
 18 22  1  0
 19 22  1  0
 20 23  1  0
 21 24  1  0
 23 25  1  1
 23 26  1  0
 24 26  1  0
M  CHG  1   6  -1
M  END
