ucsf404-ucsf017
     RDKit          3D

 25 29  0  0  0  0  0  0  0  0999 V2000
   -6.8290   14.6590   -2.2490 Cl  0  0  0  0  0  0  0  0  0  0  0  0
   -5.3530   15.4190   -1.5840 C   0  0  1  0  0  0  0  0  0  0  0  0
   -5.1960   15.1960   -0.0860 C   0  0  1  0  0  0  0  0  0  0  0  0
   -4.1480   15.1020   -2.4360 C   0  0  0  0  0  0  0  0  0  0  0  0
   -6.3080   14.4120    0.4870 N   0  0  0  0  0  0  0  0  0  0  0  0
   -3.8170   14.6970    0.4270 C   0  0  1  0  0  0  0  0  0  0  0  0
   -2.8480   15.5440   -1.7940 C   0  0  0  0  0  0  0  0  0  0  0  0
   -5.9230   13.8230    1.7260 C   0  0  1  0  0  0  0  0  0  0  0  0
   -4.2120   13.3200    1.5530 S   0  0  0  0  0  0  0  0  0  0  0  0
   -2.5220   14.8480   -0.4880 C   0  0  1  0  0  0  0  0  0  0  0  0
   -6.1480   14.8410    2.7090 N   0  0  0  0  0  0  0  0  0  0  0  0
   -1.7690   15.8060    0.3980 C   0  0  0  0  0  0  0  0  0  0  0  0
   -1.3650   13.7620   -0.6750 C   0  0  1  0  0  0  0  0  0  0  0  0
   -1.1360   13.1670   -2.0300 N   0  0  0  0  0  0  0  0  0  0  0  0
   -0.0770   14.2470   -0.1830 N   0  0  0  0  0  0  0  0  0  0  0  0
   -1.3260   15.0650    1.5420 N   0  0  0  0  0  0  0  0  0  0  0  0
   -1.0950   13.8550   -3.3560 C   0  0  2  0  0  0  0  0  0  0  0  0
    0.2210   12.5750   -2.0000 C   0  0  0  0  0  0  0  0  0  0  0  0
   -0.0890   14.4670    1.2390 C   0  0  0  0  0  0  0  0  0  0  0  0
   -2.2880   14.5600   -4.0310 C   0  0  0  0  0  0  0  0  0  0  0  0
   -0.9740   12.7580   -4.4370 C   0  0  1  0  0  0  0  0  0  0  0  0
    0.2070   11.3240   -2.8390 C   0  0  0  0  0  0  0  0  0  0  0  0
   -0.9800   13.5850   -5.6840 C   0  0  0  0  0  0  0  0  0  0  0  0
   -2.0830   14.4750   -5.4630 O   0  0  0  0  0  0  0  0  0  0  0  0
    0.1660   11.7610   -4.2910 C   0  0  0  0  0  0  0  0  0  0  0  0
  2  1  1  6
  2  3  1  0
  2  4  1  0
  3  5  1  6
  3  6  1  0
  4  7  1  0
  5  8  1  0
  6  9  1  6
  8  9  1  0
  6 10  1  0
 10  7  1  6
  8 11  1  1
 10 12  1  0
 10 13  1  0
 13 14  1  6
 13 15  1  0
 12 16  1  0
 14 17  1  0
 14 18  1  0
 15 19  1  0
 16 19  1  0
 17 20  1  6
 17 21  1  0
 18 22  1  0
 21 23  1  6
 20 24  1  0
 23 24  1  0
 21 25  1  0
 22 25  1  0
M  END
