ucsf336-ucsf412
     RDKit          3D

 26 28  0  0  0  0  0  0  0  0999 V2000
    1.7210   13.8280   -4.3570 O   0  0  0  0  0  0  0  0  0  0  0  0
    1.6110   12.7270   -3.6280 C   0  0  1  0  0  0  0  0  0  0  0  0
    1.3540   13.1590   -2.2740 O   0  0  0  0  0  0  0  0  0  0  0  0
    0.3720   11.8960   -4.2340 C   0  0  2  0  0  0  0  0  0  0  0  0
    0.0900   10.7610   -3.4100 O   0  0  0  0  0  0  0  0  0  0  0  0
    0.4070   11.4970   -5.6410 N   0  0  0  0  0  0  0  0  0  0  0  0
    0.0550   12.8250   -1.7880 C   0  0  0  0  0  0  0  0  0  0  0  0
   -0.9970   13.3730   -2.7520 C   0  0  0  0  0  0  0  0  0  0  0  0
   -0.7680   10.8780   -6.2550 C   0  0  0  0  0  0  0  0  0  0  0  0
   -1.6540   14.6510   -2.2460 C   0  0  0  0  0  0  0  0  0  0  0  0
   -0.3600    9.9300   -7.3980 C   0  0  0  0  0  0  0  0  0  0  0  0
   -1.6070   10.1330   -5.1860 C   0  0  0  0  0  0  0  0  0  0  0  0
   -1.5650    9.2450   -8.0180 C   0  0  0  0  0  0  0  0  0  0  0  0
   -2.8030    9.4040   -5.7830 C   0  0  0  0  0  0  0  0  0  0  0  0
   -3.0800   14.4730   -1.7030 C   0  0  1  0  0  0  0  0  0  0  0  0
   -2.4040    8.5200   -6.9630 C   0  0  0  0  0  0  0  0  0  0  0  0
   -3.2120   14.7940   -0.2130 C   0  0  0  0  0  0  0  0  0  0  0  0
   -4.1510   15.1520   -2.5480 C   0  0  0  0  0  0  0  0  0  0  0  0
   -4.5270   14.3410    0.3940 C   0  0  2  0  0  0  0  0  0  0  0  0
   -5.3920   15.4630   -1.7210 C   0  0  0  0  0  0  0  0  0  0  0  0
   -5.6940   14.4610   -0.5970 C   0  0  2  0  0  0  0  0  0  0  0  0
   -4.7730   15.0880    1.6860 C   0  0  0  0  0  0  0  0  0  0  0  0
   -7.0500   14.8100    0.0630 C   0  0  1  0  0  0  0  0  0  0  0  0
   -6.0650   14.6570    2.3710 C   0  0  0  0  0  0  0  0  0  0  0  0
   -8.0420   13.9770   -0.4890 O   0  0  0  0  0  0  0  0  0  0  0  0
   -7.2570   14.6880    1.5110 N   0  0  0  0  0  0  0  0  0  0  0  0
  2  1  1  6
  2  3  1  0
  2  4  1  0
  4  5  1  1
  4  6  1  0
  3  7  1  0
  7  8  1  0
  6  9  1  0
  8 10  1  0
  9 11  1  0
  9 12  1  0
 11 13  1  0
 12 14  1  0
 15 10  1  6
 13 16  1  0
 14 16  1  0
 15 17  1  0
 15 18  1  0
 19 17  1  6
 18 20  1  0
 19 21  1  0
 21 20  1  6
 19 22  1  0
 21 23  1  0
 22 24  1  0
 23 25  1  6
 23 26  1  0
 24 26  1  0
M  CHG  1   1  -1
M  END
