ucsf213-ucsf412
     RDKit          3D

 26 29  0  0  0  0  0  0  0  0999 V2000
    0.4290   10.7550   -2.3280 O   0  0  0  0  0  0  0  0  0  0  0  0
    1.0510   11.9410   -2.3500 C   0  0  2  0  0  0  0  0  0  0  0  0
    0.3060   12.6220   -1.3690 O   0  0  0  0  0  0  0  0  0  0  0  0
    0.9660   12.5950   -3.7630 C   0  0  0  0  0  0  0  0  0  0  0  0
    0.2710   13.9700   -3.7800 C   0  0  1  0  0  0  0  0  0  0  0  0
    1.1360   15.1560   -4.3080 C   0  0  0  0  0  0  0  0  0  0  0  0
   -1.2680   14.0760   -4.7690 S   0  0  0  0  0  0  0  0  0  0  0  0
    0.2430   16.0770   -5.1720 C   0  0  1  0  0  0  0  0  0  0  0  0
   -1.1590   15.8770   -4.6420 C   0  0  2  0  0  0  0  0  0  0  0  0
   -1.2860   16.2890   -3.1720 C   0  0  0  0  0  0  0  0  0  0  0  0
    0.6370   17.5580   -5.2610 C   0  0  0  0  0  0  0  0  0  0  0  0
   -2.2410   16.6360   -5.4310 C   0  0  0  0  0  0  0  0  0  0  0  0
   -0.3780   18.3490   -6.0880 C   0  0  0  0  0  0  0  0  0  0  0  0
   -1.8490   18.0950   -5.7270 C   0  0  0  0  0  0  0  0  0  0  0  0
   -1.6880   15.2470   -2.1450 C   0  0  0  0  0  0  0  0  0  0  0  0
   -3.1350   15.4090   -1.6910 C   0  0  2  0  0  0  0  0  0  0  0  0
   -3.4030   15.0190   -0.2670 C   0  0  0  0  0  0  0  0  0  0  0  0
   -4.1600   14.8800   -2.6860 C   0  0  0  0  0  0  0  0  0  0  0  0
   -4.7250   15.5480    0.2310 C   0  0  1  0  0  0  0  0  0  0  0  0
   -5.6060   14.8670   -2.1730 C   0  0  0  0  0  0  0  0  0  0  0  0
   -5.9230   15.3870   -0.7480 C   0  0  1  0  0  0  0  0  0  0  0  0
   -4.9370   15.0150    1.6260 C   0  0  0  0  0  0  0  0  0  0  0  0
   -7.0900   14.5320   -0.1920 C   0  0  2  0  0  0  0  0  0  0  0  0
   -6.3670   14.6340    2.0720 C   0  0  0  0  0  0  0  0  0  0  0  0
   -8.2670   14.7840   -0.9220 O   0  0  0  0  0  0  0  0  0  0  0  0
   -7.4450   14.8440    1.1550 N   0  0  0  0  0  0  0  0  0  0  0  0
  2  1  1  6
  2  3  1  0
  2  4  1  0
  5  4  1  6
  5  6  1  0
  5  7  1  0
  8  6  1  1
  7  9  1  0
  8  9  1  0
  9 10  1  1
  8 11  1  0
  9 12  1  0
 11 13  1  0
 12 14  1  0
 13 14  1  0
 10 15  1  0
 16 15  1  6
 16 17  1  0
 16 18  1  0
 19 17  1  6
 18 20  1  0
 19 21  1  0
 21 20  1  6
 19 22  1  0
 21 23  1  0
 22 24  1  0
 23 25  1  6
 23 26  1  0
 24 26  1  0
M  CHG  1   1  -1
M  END
