ucsf123-ucsf241
     RDKit          3D

 23 25  0  0  0  0  0  0  0  0999 V2000
   -1.9580   18.9100   -5.0680 N   0  0  0  0  0  0  0  0  0  0  0  0
   -1.5420   17.4420   -5.6520 S   0  0  0  0  0  0  0  0  0  0  0  0
   -0.2810   17.6580   -6.5940 O   0  0  0  0  0  0  0  0  0  0  0  0
   -2.6980   16.9090   -6.6170 O   0  0  0  0  0  0  0  0  0  0  0  0
   -1.1010   16.1140   -4.5330 C   0  0  2  0  0  0  0  0  0  0  0  0
    0.4190   16.0160   -4.3650 C   0  0  0  0  0  0  0  0  0  0  0  0
   -1.7570   14.7510   -4.8090 C   0  0  0  0  0  0  0  0  0  0  0  0
    0.8720   14.9520   -3.3630 C   0  0  0  0  0  0  0  0  0  0  0  0
   -1.2720   13.6070   -3.8990 C   0  0  0  0  0  0  0  0  0  0  0  0
    0.2650   13.5590   -3.6800 C   0  0  2  0  0  0  0  0  0  0  0  0
    0.7850   12.3200   -2.8240 C   0  0  1  0  0  0  0  0  0  0  0  0
    1.1390   12.7260   -1.4940 O   0  0  0  0  0  0  0  0  0  0  0  0
   -0.1370   11.3890   -2.6880 O   0  0  0  0  0  0  0  0  0  0  0  0
    1.0330   14.1130   -1.2250 C   0  0  0  0  0  0  0  0  0  0  0  0
   -0.3040   14.2230   -0.5400 C   0  0  2  0  0  0  0  0  0  0  0  0
   -1.2200   15.2330   -1.1940 C   0  0  0  0  0  0  0  0  0  0  0  0
   -0.2490   14.4330    0.9890 C   0  0  0  0  0  0  0  0  0  0  0  0
   -2.5190   14.8290   -0.5700 C   0  0  2  0  0  0  0  0  0  0  0  0
   -1.5790   14.5040    1.6450 N   0  0  0  0  0  0  0  0  0  0  0  0
   -3.8190   15.3550   -1.1110 C   0  0  0  0  0  0  0  0  0  0  0  0
   -2.5300   15.2400    0.8700 C   0  0  2  0  0  0  0  0  0  0  0  0
   -4.6630   15.4360    0.1600 C   0  0  0  0  0  0  0  0  0  0  0  0
   -3.8560   14.8550    1.2500 N   0  0  0  0  0  0  0  0  0  0  0  0
  1  2  1  0
  2  3  1  0
  2  4  1  0
  5  2  1  6
  5  6  1  0
  5  7  1  0
  6  8  1  0
  7  9  1  0
 10  8  1  1
  9 10  1  0
 10 11  1  0
 11 12  1  0
 11 13  1  1
 12 14  1  0
 15 14  1  6
 15 16  1  0
 15 17  1  0
 18 16  1  6
 17 19  1  0
 18 20  1  0
 18 21  1  0
 21 19  1  1
 20 22  1  0
 21 23  1  0
 22 23  1  0
M  CHG  1  13  -1
M  END
