ucsf248-ucsf385
     RDKit          3D

 22 24  0  0  0  0  0  0  0  0999 V2000
   -8.3570   12.3430    2.6150 N   0  0  0  0  0  0  0  0  0  0  0  0
   -8.6440   13.9090    2.1840 S   0  0  0  0  0  0  0  0  0  0  0  0
   -8.5420   14.8500    3.4890 O   0  0  0  0  0  0  0  0  0  0  0  0
  -10.1150   14.1390    1.5820 O   0  0  0  0  0  0  0  0  0  0  0  0
   -7.6060   14.7710    1.0200 C   0  0  1  0  0  0  0  0  0  0  0  0
   -6.1590   14.8370    1.4310 N   0  0  0  0  0  0  0  0  0  0  0  0
   -7.6090   14.4710   -0.4230 N   0  0  0  0  0  0  0  0  0  0  0  0
   -5.5880   14.1510    0.2670 C   0  0  1  0  0  0  0  0  0  0  0  0
   -6.2810   14.9780   -0.7560 C   0  0  1  0  0  0  0  0  0  0  0  0
   -4.1030   14.0160    0.1180 C   0  0  0  0  0  0  0  0  0  0  0  0
   -5.7810   14.7260   -2.1560 C   0  0  0  0  0  0  0  0  0  0  0  0
   -3.4160   14.5130   -1.1840 C   0  0  1  0  0  0  0  0  0  0  0  0
   -4.3390   15.2010   -2.2060 C   0  0  0  0  0  0  0  0  0  0  0  0
   -2.3060   15.3680   -0.5450 C   0  0  2  0  0  0  0  0  0  0  0  0
   -0.8330   15.1880   -0.9790 C   0  0  2  0  0  0  0  0  0  0  0  0
   -2.4970   15.0220    0.9590 C   0  0  0  0  0  0  0  0  0  0  0  0
   -0.5720   15.2110   -2.5060 C   0  0  1  0  0  0  0  0  0  0  0  0
   -0.2310   13.9880   -0.2550 C   0  0  0  0  0  0  0  0  0  0  0  0
   -1.3280   14.8800    1.7950 N   0  0  0  0  0  0  0  0  0  0  0  0
    0.5370   14.3890   -2.7980 O   0  0  0  0  0  0  0  0  0  0  0  0
   -1.5320   14.5720   -3.1400 O   0  0  0  0  0  0  0  0  0  0  0  0
   -0.1220   14.3530    1.2000 C   0  0  0  0  0  0  0  0  0  0  0  0
  1  2  1  0
  2  3  1  0
  2  4  1  0
  5  2  1  1
  5  6  1  0
  5  7  1  0
  6  8  1  0
  7  9  1  0
  8  9  1  0
  8 10  1  6
  9 11  1  6
 12 10  1  1
 11 13  1  0
 12 13  1  0
 12 14  1  0
 14 15  1  0
 14 16  1  1
 15 17  1  0
 15 18  1  6
 16 19  1  0
 17 20  1  1
 17 21  1  0
 18 22  1  0
 19 22  1  0
M  CHG  1  21  -1
M  END
