ucsf364-ucsf337
     RDKit          3D

 22 23  0  0  0  0  0  0  0  0999 V2000
    2.3390   13.0280   -4.4870 C   0  0  0  0  0  0  0  0  0  0  0  0
    0.8670   12.7770   -4.8790 C   0  0  1  0  0  0  0  0  0  0  0  0
    0.7170   11.8420   -6.0560 C   0  0  2  0  0  0  0  0  0  0  0  0
    0.0100   12.1110   -3.7570 C   0  0  1  0  0  0  0  0  0  0  0  0
    1.7670   11.8600   -7.0020 O   0  0  0  0  0  0  0  0  0  0  0  0
    0.0890   12.7990   -2.3560 C   0  0  2  0  0  0  0  0  0  0  0  0
   -1.4630   11.8200   -4.1970 C   0  0  0  0  0  0  0  0  0  0  0  0
   -0.6600   11.9330   -6.6390 C   0  0  0  0  0  0  0  0  0  0  0  0
   -0.5950   14.0570   -2.4980 O   0  0  0  0  0  0  0  0  0  0  0  0
    1.3450   12.9790   -1.9990 O   0  0  0  0  0  0  0  0  0  0  0  0
   -1.6460   11.3280   -5.6410 C   0  0  0  0  0  0  0  0  0  0  0  0
   -1.7680   14.1090   -1.6870 C   0  0  0  0  0  0  0  0  0  0  0  0
   -3.0010   14.2940   -2.5890 C   0  0  0  0  0  0  0  0  0  0  0  0
   -3.9980   15.2920   -1.9720 C   0  0  2  0  0  0  0  0  0  0  0  0
   -3.7980   15.3640   -0.4640 C   0  0  0  0  0  0  0  0  0  0  0  0
   -5.5010   15.1050   -2.3510 C   0  0  1  0  0  0  0  0  0  0  0  0
   -5.6340   14.4630   -3.6310 N   0  0  0  0  0  0  0  0  0  0  0  0
   -4.8720   14.7360    0.3840 C   0  0  1  0  0  0  0  0  0  0  0  0
   -6.3020   14.2540   -1.5050 N   0  0  0  0  0  0  0  0  0  0  0  0
   -4.5460   15.4980    2.1140 Br  0  0  0  0  0  0  0  0  0  0  0  0
   -6.3050   14.8210   -0.1680 C   0  0  1  0  0  0  0  0  0  0  0  0
   -7.5260   14.3990    0.6600 C   0  0  0  0  0  0  0  0  0  0  0  0
  2  1  1  1
  2  3  1  0
  2  4  1  0
  3  5  1  6
  4  6  1  0
  4  7  1  6
  3  8  1  0
  6  9  1  0
  6 10  1  6
  7 11  1  0
  8 11  1  0
  9 12  1  0
 12 13  1  0
 14 13  1  1
 14 15  1  0
 14 16  1  0
 16 17  1  6
 15 18  1  0
 16 19  1  0
 18 20  1  1
 18 21  1  0
 19 21  1  0
 21 22  1  1
M  CHG  1  10  -1
M  END
