ucsf006-ucsf320
     RDKit          3D

 23 25  0  0  0  0  0  0  0  0999 V2000
   -2.1290   15.9660   -3.5870 C   0  0  0  0  0  0  0  0  0  0  0  0
   -1.9230   14.7740   -2.6170 C   0  0  1  0  0  0  0  0  0  0  0  0
   -0.6900   13.9230   -3.1540 C   0  0  0  0  0  0  0  0  0  0  0  0
   -1.5440   15.3010   -1.1900 C   0  0  1  0  0  0  0  0  0  0  0  0
   -3.3160   13.9740   -2.5030 C   0  0  1  0  0  0  0  0  0  0  0  0
    0.0970   14.3840   -4.4030 C   0  0  0  0  0  0  0  0  0  0  0  0
   -2.6950   14.9890   -0.2310 C   0  0  1  0  0  0  0  0  0  0  0  0
   -0.2590   14.7230   -0.6840 N   0  0  0  0  0  0  0  0  0  0  0  0
   -3.6590   13.3900   -1.0920 C   0  0  0  0  0  0  0  0  0  0  0  0
   -4.5830   14.6110   -3.1270 C   0  0  0  0  0  0  0  0  0  0  0  0
    0.8780   13.1820   -4.9920 C   0  0  2  0  0  0  0  0  0  0  0  0
   -2.1550   14.5500    1.0960 C   0  0  1  0  0  0  0  0  0  0  0  0
    0.0360   14.8840    0.7200 C   0  0  0  0  0  0  0  0  0  0  0  0
   -3.7080   15.9940    0.2170 C   0  0  0  0  0  0  0  0  0  0  0  0
   -5.1380   13.4460   -0.6670 C   0  0  0  0  0  0  0  0  0  0  0  0
   -5.3620   15.4890   -2.1430 C   0  0  0  0  0  0  0  0  0  0  0  0
   -0.0550   12.2060   -5.4170 O   0  0  0  0  0  0  0  0  0  0  0  0
    1.5060   12.5500   -4.0170 O   0  0  0  0  0  0  0  0  0  0  0  0
   -1.0990   15.3820    1.4110 N   0  0  0  0  0  0  0  0  0  0  0  0
   -3.2100   14.7290    2.0670 N   0  0  0  0  0  0  0  0  0  0  0  0
   -4.3570   15.2760    1.3670 C   0  0  0  0  0  0  0  0  0  0  0  0
   -5.8030   14.8040   -0.8680 C   0  0  1  0  0  0  0  0  0  0  0  0
   -7.2260   14.6750   -0.8340 O   0  0  0  0  0  0  0  0  0  0  0  0
  2  1  1  6
  2  3  1  0
  2  4  1  0
  2  5  1  0
  3  6  1  0
  4  7  1  0
  4  8  1  1
  5  9  1  1
  5 10  1  0
  6 11  1  0
  7 12  1  0
  8 13  1  0
  7 14  1  1
  9 15  1  0
 10 16  1  0
 11 17  1  1
 11 18  1  0
 12 19  1  1
 13 19  1  0
 12 20  1  0
 14 21  1  0
 20 21  1  0
 15 22  1  0
 16 22  1  0
 22 23  1  6
M  CHG  1  18  -1
M  END
