ucsf345-ucsf340
     RDKit          3D

 25 27  0  0  0  0  0  0  0  0999 V2000
   -6.8120   14.7720    1.6610 N   0  0  0  0  0  0  0  0  0  0  0  0
   -6.7510   14.7250    0.2010 C   0  0  2  0  0  0  0  0  0  0  0  0
   -7.7370   13.8110   -0.2200 O   0  0  0  0  0  0  0  0  0  0  0  0
   -5.3730   14.3280   -0.3910 C   0  0  1  0  0  0  0  0  0  0  0  0
   -5.2740   14.6230   -1.8490 N   0  0  0  0  0  0  0  0  0  0  0  0
   -4.2200   15.0270    0.3700 C   0  0  0  0  0  0  0  0  0  0  0  0
   -3.9230   14.2330   -2.2910 C   0  0  1  0  0  0  0  0  0  0  0  0
   -2.9150   14.5010   -0.0590 N   0  0  0  0  0  0  0  0  0  0  0  0
   -3.0200   15.3680   -2.7430 C   0  0  0  0  0  0  0  0  0  0  0  0
   -3.1810   13.5400   -1.1510 C   0  0  0  0  0  0  0  0  0  0  0  0
   -2.5280   15.7240   -4.1530 C   0  0  1  0  0  0  0  0  0  0  0  0
   -1.0750   15.6600   -4.6440 C   0  0  2  0  0  0  0  0  0  0  0  0
   -3.4380   15.3250   -5.2810 C   0  0  0  0  0  0  0  0  0  0  0  0
    0.1530   15.6510   -3.7430 C   0  0  1  0  0  0  0  0  0  0  0  0
   -0.8560   16.8550   -5.5680 C   0  0  2  0  0  0  0  0  0  0  0  0
   -3.3000   16.3770   -6.3390 C   0  0  0  0  0  0  0  0  0  0  0  0
    0.9270   14.3280   -3.6300 C   0  0  0  0  0  0  0  0  0  0  0  0
    0.0020   17.7550   -4.8680 N   0  0  0  0  0  0  0  0  0  0  0  0
    0.9740   16.7890   -4.3700 C   0  0  0  0  0  0  0  0  0  0  0  0
   -2.1790   17.4330   -6.0940 C   0  0  0  0  0  0  0  0  0  0  0  0
    0.6760   18.5830   -5.8580 C   0  0  0  0  0  0  0  0  0  0  0  0
    0.1100   13.0120   -3.4570 C   0  0  0  0  0  0  0  0  0  0  0  0
    0.7620   12.0160   -2.4400 C   0  0  1  0  0  0  0  0  0  0  0  0
    0.4880   12.4830   -1.1420 O   0  0  0  0  0  0  0  0  0  0  0  0
    0.1330   10.8400   -2.3960 O   0  0  0  0  0  0  0  0  0  0  0  0
  2  1  1  1
  2  3  1  0
  2  4  1  0
  4  5  1  0
  4  6  1  1
  5  7  1  0
  6  8  1  0
  7  9  1  1
  7 10  1  0
  8 10  1  0
 11  9  1  1
 12 11  1  1
 11 13  1  0
 12 14  1  0
 12 15  1  0
 13 16  1  0
 14 17  1  6
 15 18  1  0
 14 19  1  0
 18 19  1  0
 15 20  1  1
 16 20  1  0
 18 21  1  0
 17 22  1  0
 22 23  1  0
 23 24  1  1
 23 25  1  0
M  CHG  1  25  -1
M  END
