ucsf016-ucsf404
     RDKit          3D

 22 26  0  0  0  0  0  0  0  0999 V2000
   -4.3460   15.4000   -2.5350 Cl  0  0  0  0  0  0  0  0  0  0  0  0
   -3.7740   14.5660   -1.0720 C   0  0  1  0  0  0  0  0  0  0  0  0
   -2.2750   14.1580   -0.7960 C   0  0  2  0  0  0  0  0  0  0  0  0
   -4.1880   15.3420    0.1790 C   0  0  2  0  0  0  0  0  0  0  0  0
   -2.1070   14.3990    0.7120 C   0  0  2  0  0  0  0  0  0  0  0  0
   -0.9070   14.4440   -1.5480 C   0  0  1  0  0  0  0  0  0  0  0  0
   -3.4200   14.6790    1.2230 N   0  0  0  0  0  0  0  0  0  0  0  0
   -5.6080   15.1980    0.6010 N   0  0  0  0  0  0  0  0  0  0  0  0
   -0.7910   15.1030   -2.8560 N   0  0  0  0  0  0  0  0  0  0  0  0
    0.1300   15.1000   -0.7460 N   0  0  0  0  0  0  0  0  0  0  0  0
   -1.1810   15.4040    1.0790 N   0  0  0  0  0  0  0  0  0  0  0  0
   -5.5110   14.8170    1.9900 C   0  0  2  0  0  0  0  0  0  0  0  0
   -4.3360   13.4800    1.8720 S   0  0  0  0  0  0  0  0  0  0  0  0
   -6.7740   14.4000    2.5320 N   0  0  0  0  0  0  0  0  0  0  0  0
    0.3660   14.6860   -3.6520 C   0  0  0  0  0  0  0  0  0  0  0  0
   -1.9730   15.2920   -3.7120 C   0  0  0  0  0  0  0  0  0  0  0  0
    0.0800   14.9480    0.6690 C   0  0  0  0  0  0  0  0  0  0  0  0
   -2.1950   14.3300   -4.8710 C   0  0  0  0  0  0  0  0  0  0  0  0
    0.1120   13.3800   -4.3870 C   0  0  0  0  0  0  0  0  0  0  0  0
   -3.5440   13.6460   -4.9340 C   0  0  0  0  0  0  0  0  0  0  0  0
   -3.2430   14.7630   -5.8840 C   0  0  0  0  0  0  0  0  0  0  0  0
   -1.0050   13.5390   -5.3980 C   0  0  0  0  0  0  0  0  0  0  0  0
  2  1  1  6
  2  3  1  0
  2  4  1  0
  3  5  1  0
  3  6  1  6
  4  7  1  0
  5  7  1  0
  4  8  1  1
  6  9  1  6
  6 10  1  0
  5 11  1  6
  8 12  1  0
  7 13  1  0
 12 13  1  0
 12 14  1  6
  9 15  1  0
  9 16  1  0
 10 17  1  0
 11 17  1  0
 18 16  1  0
 15 19  1  0
 18 20  1  0
 18 21  1  0
 20 21  1  0
 18 22  1  0
 19 22  1  0
M  END
