ucsf241-ucsf357
     RDKit          3D

 14 15  0  0  0  0  0  0  0  0999 V2000
   -5.6180   15.6430   -2.1520 O   0  0  0  0  0  0  0  0  0  0  0  0
   -5.6020   14.7410   -1.2030 C   0  0  2  0  0  0  0  0  0  0  0  0
   -6.3280   15.3580   -0.1720 O   0  0  0  0  0  0  0  0  0  0  0  0
   -4.1460   14.4740   -0.7410 C   0  0  1  0  0  0  0  0  0  0  0  0
   -3.0710   14.8950   -1.7600 C   0  0  2  0  0  0  0  0  0  0  0  0
   -3.6690   15.1620    0.5010 N   0  0  0  0  0  0  0  0  0  0  0  0
   -2.9450   14.0580   -2.8590 F   0  0  0  0  0  0  0  0  0  0  0  0
   -1.8290   14.6320   -0.9180 C   0  0  2  0  0  0  0  0  0  0  0  0
   -2.3640   14.5510    0.5120 C   0  0  1  0  0  0  0  0  0  0  0  0
   -0.6940   15.4540   -1.1740 O   0  0  0  0  0  0  0  0  0  0  0  0
   -1.0510   13.4280   -1.0900 C   0  0  0  0  0  0  0  0  0  0  0  0
   -1.4240   15.0500    1.4290 N   0  0  0  0  0  0  0  0  0  0  0  0
    0.1760   13.8410   -0.2750 C   0  0  0  0  0  0  0  0  0  0  0  0
   -0.0910   14.5070    1.1200 C   0  0  0  0  0  0  0  0  0  0  0  0
  2  1  1  6
  2  3  1  0
  2  4  1  0
  4  5  1  0
  4  6  1  1
  5  7  1  6
  5  8  1  0
  9  6  1  6
  8  9  1  0
  8 10  1  1
  8 11  1  0
  9 12  1  0
 11 13  1  0
 12 14  1  0
 13 14  1  0
M  CHG  1   1  -1
M  END
