ucsf110-ucsf264
     RDKit          3D

 29 32  0  0  0  0  0  0  0  0999 V2000
   -0.3170   16.2760   -2.8590 C   0  0  0  0  0  0  0  0  0  0  0  0
   -1.2630   15.1130   -2.5750 C   0  0  1  0  0  0  0  0  0  0  0  0
   -2.7390   15.4680   -2.8010 C   0  0  0  0  0  0  0  0  0  0  0  0
   -0.8430   14.0000   -3.5310 C   0  0  0  0  0  0  0  0  0  0  0  0
   -1.1550   14.5350   -1.1340 C   0  0  2  0  0  0  0  0  0  0  0  0
    0.2300   13.2740   -2.9460 O   0  0  0  0  0  0  0  0  0  0  0  0
   -3.3890   15.4620   -1.4200 C   0  0  0  0  0  0  0  0  0  0  0  0
   -2.6060   14.4380   -0.6130 C   0  0  2  0  0  0  0  0  0  0  0  0
   -0.2460   15.2530   -0.2550 N   0  0  0  0  0  0  0  0  0  0  0  0
    0.3060   12.0890   -3.6640 C   0  0  2  0  0  0  0  0  0  0  0  0
   -2.6930   14.5060    0.9150 C   0  0  2  0  0  0  0  0  0  0  0  0
   -0.2750   14.7090    1.0560 C   0  0  0  0  0  0  0  0  0  0  0  0
   -3.8190   15.2450    1.4230 N   0  0  0  0  0  0  0  0  0  0  0  0
    1.0350   11.1310   -2.9530 O   0  0  0  0  0  0  0  0  0  0  0  0
    0.8450   12.4150   -5.0810 C   0  0  0  0  0  0  0  0  0  0  0  0
   -1.5590   15.0040    1.6210 N   0  0  0  0  0  0  0  0  0  0  0  0
   -0.1480   11.9830   -6.0860 N   0  0  0  0  0  0  0  0  0  0  0  0
    0.3280   11.9500   -7.4530 N   0  0  0  0  0  0  0  0  0  0  0  0
   -0.6560   10.6280   -5.8130 C   0  0  2  0  0  0  0  0  0  0  0  0
    0.7720   10.5970   -7.7800 C   0  0  1  0  0  0  0  0  0  0  0  0
   -0.2670    9.7590   -7.0270 C   0  0  2  0  0  0  0  0  0  0  0  0
   -2.1650   10.7290   -5.5390 C   0  0  0  0  0  0  0  0  0  0  0  0
    0.9960   10.2520   -9.2590 C   0  0  0  0  0  0  0  0  0  0  0  0
   -1.5020    9.3210   -7.8110 C   0  0  0  0  0  0  0  0  0  0  0  0
   -2.8730    9.3830   -5.6570 C   0  0  0  0  0  0  0  0  0  0  0  0
    1.6460    9.0640   -9.3470 F   0  0  0  0  0  0  0  0  0  0  0  0
   -0.1700   10.1060   -9.9170 F   0  0  0  0  0  0  0  0  0  0  0  0
    1.6990   11.1510   -9.9590 F   0  0  0  0  0  0  0  0  0  0  0  0
   -2.4490    8.5690   -6.8810 C   0  0  0  0  0  0  0  0  0  0  0  0
  2  1  1  1
  2  3  1  0
  2  4  1  0
  2  5  1  0
  4  6  1  0
  3  7  1  0
  5  8  1  0
  8  7  1  6
  5  9  1  1
  6 10  1  0
  8 11  1  0
  9 12  1  0
 11 13  1  6
 10 14  1  1
 10 15  1  0
 11 16  1  0
 12 16  1  0
 15 17  1  0
 17 18  1  0
 17 19  1  0
 18 20  1  0
 19 21  1  0
 20 21  1  0
 19 22  1  6
 20 23  1  6
 21 24  1  6
 22 25  1  0
 23 26  1  0
 23 27  1  0
 23 28  1  0
 24 29  1  0
 25 29  1  0
M  END
