ucsf380-ucsf012
     RDKit          3D

 23 25  0  0  0  0  0  0  0  0999 V2000
    0.7150   15.1070   -1.4310 O   0  0  0  0  0  0  0  0  0  0  0  0
    0.2900   14.0000   -2.0070 C   0  0  1  0  0  0  0  0  0  0  0  0
    0.3910   13.0550   -0.9350 O   0  0  0  0  0  0  0  0  0  0  0  0
   -1.1900   14.1970   -2.5850 C   0  0  2  0  0  0  0  0  0  0  0  0
   -2.2560   15.1150   -1.7860 C   0  0  2  0  0  0  0  0  0  0  0  0
   -1.6940   13.0360   -3.5120 C   0  0  0  0  0  0  0  0  0  0  0  0
   -2.3370   15.2710   -0.2210 C   0  0  1  0  0  0  0  0  0  0  0  0
   -3.6450   15.2850   -2.5230 C   0  0  1  0  0  0  0  0  0  0  0  0
   -2.5420   11.8650   -3.0030 C   0  0  0  0  0  0  0  0  0  0  0  0
   -0.5360   12.4730   -4.3590 C   0  0  0  0  0  0  0  0  0  0  0  0
   -3.8600   14.6770   -3.9140 C   0  0  0  0  0  0  0  0  0  0  0  0
   -3.6640   15.9570    0.3560 C   0  0  0  0  0  0  0  0  0  0  0  0
   -4.8710   15.0070   -1.6600 C   0  0  0  0  0  0  0  0  0  0  0  0
   -2.8590   10.8030   -4.0410 C   0  0  0  0  0  0  0  0  0  0  0  0
   -0.9840   11.6540   -5.5540 C   0  0  0  0  0  0  0  0  0  0  0  0
   -2.4430   14.0380    0.6540 C   0  0  2  0  0  0  0  0  0  0  0  0
   -1.0420   15.9520    0.2010 C   0  0  0  0  0  0  0  0  0  0  0  0
   -3.7430   13.7900    1.2240 N   0  0  0  0  0  0  0  0  0  0  0  0
   -4.9700   15.8800   -0.4330 C   0  0  0  0  0  0  0  0  0  0  0  0
   -2.4480   11.2350   -5.4470 C   0  0  0  0  0  0  0  0  0  0  0  0
   -1.5820   14.1220    1.7900 N   0  0  0  0  0  0  0  0  0  0  0  0
    0.0740   15.0660    0.4330 N   0  0  0  0  0  0  0  0  0  0  0  0
   -0.1890   14.1430    1.4860 C   0  0  0  0  0  0  0  0  0  0  0  0
  2  1  1  1
  2  3  1  0
  2  4  1  0
  4  5  1  0
  4  6  1  1
  5  7  1  0
  5  8  1  1
  6  9  1  0
  6 10  1  0
  8 11  1  6
  7 12  1  6
  8 13  1  0
  9 14  1  0
 10 15  1  0
  7 16  1  0
  7 17  1  0
 16 18  1  1
 12 19  1  0
 13 19  1  0
 14 20  1  0
 15 20  1  0
 16 21  1  0
 17 22  1  0
 21 23  1  0
 22 23  1  0
M  CHG  1   1  -1
M  END
