ucsf348-ucsf333
     RDKit          3D

 20 22  0  0  0  0  0  0  0  0999 V2000
   -6.7430   14.7880    2.4040 N   0  0  0  0  0  0  0  0  0  0  0  0
   -5.9690   14.3470    1.2950 C   0  0  2  0  0  0  0  0  0  0  0  0
   -4.7560   15.0920    1.2990 N   0  0  0  0  0  0  0  0  0  0  0  0
   -6.6710   14.7670    0.1350 N   0  0  0  0  0  0  0  0  0  0  0  0
   -5.9850   14.3600   -1.0850 C   0  0  1  0  0  0  0  0  0  0  0  0
   -3.8520   14.3940    0.3580 C   0  0  1  0  0  0  0  0  0  0  0  0
   -6.4740   15.2070   -2.1010 O   0  0  0  0  0  0  0  0  0  0  0  0
   -4.4400   14.3580   -1.0760 C   0  0  2  0  0  0  0  0  0  0  0  0
   -2.3830   14.8370    0.4930 C   0  0  0  0  0  0  0  0  0  0  0  0
   -1.6900   15.5300   -0.7100 C   0  0  2  0  0  0  0  0  0  0  0  0
   -3.8920   15.3820   -2.0680 C   0  0  0  0  0  0  0  0  0  0  0  0
   -2.3810   15.6220   -2.0970 C   0  0  2  0  0  0  0  0  0  0  0  0
   -0.0300   14.8620   -1.0650 S   0  0  0  0  0  0  0  0  0  0  0  0
   -0.5010   14.1600   -2.6850 C   0  0  1  0  0  0  0  0  0  0  0  0
   -1.6980   14.8620   -3.1700 N   0  0  0  0  0  0  0  0  0  0  0  0
    0.6770   14.0630   -3.6740 C   0  0  0  0  0  0  0  0  0  0  0  0
    1.2660   12.6310   -3.6280 C   0  0  0  0  0  0  0  0  0  0  0  0
    0.4990   11.7730   -2.6010 C   0  0  2  0  0  0  0  0  0  0  0  0
    0.8180   12.1150   -1.3790 O   0  0  0  0  0  0  0  0  0  0  0  0
    0.6950   10.3800   -2.6120 O   0  0  0  0  0  0  0  0  0  0  0  0
  2  1  1  1
  2  3  1  0
  2  4  1  0
  4  5  1  0
  3  6  1  0
  5  7  1  6
  5  8  1  0
  6  8  1  0
  6  9  1  6
 10  9  1  1
  8 11  1  6
 10 12  1  0
 12 11  1  1
 10 13  1  0
 13 14  1  0
 12 15  1  0
 14 15  1  0
 14 16  1  6
 16 17  1  0
 17 18  1  0
 18 19  1  1
 18 20  1  0
M  CHG  1  19  -1
M  END
