ucsf340-ucsf333
     RDKit          3D

 24 27  0  0  0  0  0  0  0  0999 V2000
    0.6570   18.5750   -5.6430 C   0  0  0  0  0  0  0  0  0  0  0  0
    0.3050   17.2230   -5.3060 N   0  0  0  0  0  0  0  0  0  0  0  0
    0.7520   16.6880   -4.0040 C   0  0  0  0  0  0  0  0  0  0  0  0
   -1.0860   16.9230   -5.0870 C   0  0  2  0  0  0  0  0  0  0  0  0
    0.2390   15.2260   -4.1380 C   0  0  2  0  0  0  0  0  0  0  0  0
   -0.8330   15.4310   -5.1760 C   0  0  1  0  0  0  0  0  0  0  0  0
   -2.1260   17.4190   -6.0570 C   0  0  0  0  0  0  0  0  0  0  0  0
   -2.0320   14.4770   -5.3870 C   0  0  0  0  0  0  0  0  0  0  0  0
   -3.3440   16.5130   -5.8860 C   0  0  0  0  0  0  0  0  0  0  0  0
   -0.2120   14.3110   -2.9910 C   0  0  2  0  0  0  0  0  0  0  0  0
   -3.1970   15.0630   -6.1810 C   0  0  0  0  0  0  0  0  0  0  0  0
   -1.6570   14.2270   -3.2130 N   0  0  0  0  0  0  0  0  0  0  0  0
   -0.0480   15.0710   -1.2830 S   0  0  0  0  0  0  0  0  0  0  0  0
    0.4610   12.8920   -3.0660 C   0  0  0  0  0  0  0  0  0  0  0  0
   -2.4760   14.2350   -2.0270 C   0  0  1  0  0  0  0  0  0  0  0  0
   -1.7240   14.6220   -0.7530 C   0  0  2  0  0  0  0  0  0  0  0  0
   -0.1090   11.8280   -2.1260 C   0  0  2  0  0  0  0  0  0  0  0  0
   -3.7190   15.1120   -2.2700 C   0  0  0  0  0  0  0  0  0  0  0  0
   -2.4590   15.7120    0.0170 C   0  0  0  0  0  0  0  0  0  0  0  0
    0.3440   12.3130   -0.9020 O   0  0  0  0  0  0  0  0  0  0  0  0
    0.4830   10.6480   -2.1950 O   0  0  0  0  0  0  0  0  0  0  0  0
   -4.6410   14.9100   -1.0860 C   0  0  1  0  0  0  0  0  0  0  0  0
   -3.9720   15.4450    0.1860 C   0  0  0  0  0  0  0  0  0  0  0  0
   -6.2650   15.5990   -1.3530 Cl  0  0  0  0  0  0  0  0  0  0  0  0
  1  2  1  0
  2  3  1  0
  2  4  1  0
  5  3  1  1
  4  6  1  0
  5  6  1  0
  4  7  1  6
  6  8  1  1
  7  9  1  0
  5 10  1  0
  8 11  1  0
  9 11  1  0
 10 12  1  0
 10 13  1  0
 10 14  1  1
 12 15  1  0
 13 16  1  0
 15 16  1  0
 14 17  1  0
 15 18  1  6
 16 19  1  6
 17 20  1  1
 17 21  1  0
 18 22  1  0
 19 23  1  0
 22 23  1  0
 22 24  1  6
M  CHG  1  21  -1
M  END
