ucsf169-ucsf012
     RDKit          3D

 30 33  0  0  0  0  0  0  0  0999 V2000
    1.3080   18.6060   -5.6690 C   0  0  0  0  0  0  0  0  0  0  0  0
    0.2320   18.1970   -4.8620 O   0  0  0  0  0  0  0  0  0  0  0  0
   -0.1920   16.9320   -5.3360 C   0  0  2  0  0  0  0  0  0  0  0  0
   -1.5330   16.6330   -4.7350 C   0  0  1  0  0  0  0  0  0  0  0  0
    0.8050   15.8330   -4.9840 C   0  0  0  0  0  0  0  0  0  0  0  0
   -2.3640   17.7960   -4.8400 O   0  0  0  0  0  0  0  0  0  0  0  0
   -2.1600   15.3800   -5.2990 C   0  0  0  0  0  0  0  0  0  0  0  0
    0.1610   14.5220   -4.5060 C   0  0  2  0  0  0  0  0  0  0  0  0
    1.1580   13.3280   -4.5200 C   0  0  0  0  0  0  0  0  0  0  0  0
   -1.1640   14.2000   -5.2690 C   0  0  0  0  0  0  0  0  0  0  0  0
    1.4960   12.6290   -3.1720 C   0  0  1  0  0  0  0  0  0  0  0  0
    2.0450   13.5450   -2.2500 O   0  0  0  0  0  0  0  0  0  0  0  0
    0.3160   11.9070   -2.5680 C   0  0  1  0  0  0  0  0  0  0  0  0
   -0.9590   12.5380   -3.0580 C   0  0  1  0  0  0  0  0  0  0  0  0
   -0.0490   10.4840   -2.8330 C   0  0  0  0  0  0  0  0  0  0  0  0
   -0.9030   14.0580   -3.2210 C   0  0  0  0  0  0  0  0  0  0  0  0
   -1.2270   11.8740   -4.3150 O   0  0  0  0  0  0  0  0  0  0  0  0
   -0.5590   10.6100   -4.2550 C   0  0  0  0  0  0  0  0  0  0  0  0
   -1.7880   14.7520   -2.3470 N   0  0  0  0  0  0  0  0  0  0  0  0
   -3.2400   14.5130   -2.4780 C   0  0  2  0  0  0  0  0  0  0  0  0
   -1.4340   14.7240   -0.9410 C   0  0  1  0  0  0  0  0  0  0  0  0
   -3.9580   15.0200   -3.7280 C   0  0  0  0  0  0  0  0  0  0  0  0
   -3.7380   15.2670   -1.2440 C   0  0  2  0  0  0  0  0  0  0  0  0
   -2.7710   14.6200   -0.2610 C   0  0  2  0  0  0  0  0  0  0  0  0
   -0.6790   13.6410   -0.4470 N   0  0  0  0  0  0  0  0  0  0  0  0
   -5.2290   15.0900   -0.9880 C   0  0  0  0  0  0  0  0  0  0  0  0
   -2.5680   15.1350    1.1120 C   0  0  1  0  0  0  0  0  0  0  0  0
   -0.4280   14.0030    0.9430 C   0  0  0  0  0  0  0  0  0  0  0  0
   -3.8080   15.2050    1.8390 N   0  0  0  0  0  0  0  0  0  0  0  0
   -1.6660   14.1930    1.7130 N   0  0  0  0  0  0  0  0  0  0  0  0
  1  2  1  0
  3  2  1  1
  3  4  1  0
  3  5  1  0
  4  6  1  6
  4  7  1  0
  5  8  1  0
  8  9  1  6
  7 10  1  0
  8 10  1  0
  9 11  1  0
 11 12  1  1
 11 13  1  0
 13 14  1  0
 13 15  1  6
 14 16  1  6
 14 17  1  0
 15 18  1  0
 17 18  1  0
 16 19  1  0
 19 20  1  0
 19 21  1  0
 20 22  1  6
 20 23  1  0
 21 24  1  0
 23 24  1  0
 21 25  1  6
 23 26  1  1
 24 27  1  1
 25 28  1  0
 27 29  1  1
 27 30  1  0
 28 30  1  0
M  END
