ucsf260-ucsf114
     RDKit          3D

 29 33  0  0  0  0  0  0  0  0999 V2000
    1.1410   11.4150   -2.9200 O   0  0  0  0  0  0  0  0  0  0  0  0
    2.0790   12.3110   -3.2140 C   0  0  2  0  0  0  0  0  0  0  0  0
    2.1110   13.2310   -2.1580 O   0  0  0  0  0  0  0  0  0  0  0  0
    1.6890   13.0650   -4.4880 C   0  0  0  0  0  0  0  0  0  0  0  0
    0.2440   13.6300   -4.3520 C   0  0  1  0  0  0  0  0  0  0  0  0
    0.8130   13.5480   -1.7840 C   0  0  2  0  0  0  0  0  0  0  0  0
    0.3680   15.0780   -5.0610 C   0  0  0  0  0  0  0  0  0  0  0  0
   -0.6890   12.6290   -5.0940 N   0  0  0  0  0  0  0  0  0  0  0  0
   -0.0720   14.1060   -2.8660 N   0  0  0  0  0  0  0  0  0  0  0  0
    0.8000   14.4110   -0.6110 N   0  0  0  0  0  0  0  0  0  0  0  0
   -0.6790   16.0660   -4.8760 O   0  0  0  0  0  0  0  0  0  0  0  0
   -1.9140   12.1710   -4.4460 C   0  0  0  0  0  0  0  0  0  0  0  0
   -0.1460   11.3790   -5.7710 C   0  0  1  0  0  0  0  0  0  0  0  0
   -1.4160   14.3080   -2.2610 C   0  0  1  0  0  0  0  0  0  0  0  0
   -0.4620   14.4020    0.0320 C   0  0  1  0  0  0  0  0  0  0  0  0
   -0.3720   17.3810   -5.3710 C   0  0  0  0  0  0  0  0  0  0  0  0
   -0.2930   15.0530    1.2900 O   0  0  0  0  0  0  0  0  0  0  0  0
   -2.4840   11.1750   -5.3630 N   0  0  0  0  0  0  0  0  0  0  0  0
   -1.3250   10.3730   -5.7340 C   0  0  1  0  0  0  0  0  0  0  0  0
    0.4380   11.4710   -7.2170 C   0  0  0  0  0  0  0  0  0  0  0  0
   -1.4690   15.0590   -0.9220 C   0  0  2  0  0  0  0  0  0  0  0  0
   -2.4650   15.1440   -2.9720 C   0  0  0  0  0  0  0  0  0  0  0  0
    0.6820   17.9950   -4.4540 C   0  0  0  0  0  0  0  0  0  0  0  0
   -1.6370   18.2400   -5.3980 C   0  0  0  0  0  0  0  0  0  0  0  0
   -1.5540    9.5750   -7.0140 C   0  0  0  0  0  0  0  0  0  0  0  0
    0.7180   10.1320   -7.9310 C   0  0  0  0  0  0  0  0  0  0  0  0
   -2.9160   14.9930   -0.5710 N   0  0  0  0  0  0  0  0  0  0  0  0
   -3.5720   15.1500   -1.8970 C   0  0  0  0  0  0  0  0  0  0  0  0
   -0.2790    9.0200   -7.6190 C   0  0  0  0  0  0  0  0  0  0  0  0
  2  1  1  1
  2  3  1  0
  2  4  1  0
  4  5  1  0
  3  6  1  0
  5  7  1  6
  5  8  1  0
  5  9  1  0
  6  9  1  0
  6 10  1  1
  7 11  1  0
  8 12  1  0
  8 13  1  0
  9 14  1  0
 10 15  1  0
 11 16  1  0
 15 17  1  1
 12 18  1  0
 13 19  1  0
 18 19  1  0
 13 20  1  6
 14 21  1  0
 15 21  1  0
 14 22  1  6
 16 23  1  0
 16 24  1  0
 19 25  1  6
 20 26  1  0
 21 27  1  1
 22 28  1  0
 27 28  1  0
 25 29  1  0
 26 29  1  0
M  CHG  1   1  -1
M  END
