ucsf278-ucsf337
     RDKit          3D

 24 26  0  0  0  0  0  0  0  0999 V2000
   -1.5040   14.3590   -1.6030 Cl  0  0  0  0  0  0  0  0  0  0  0  0
   -0.0310   13.8620   -2.4540 C   0  0  1  0  0  0  0  0  0  0  0  0
   -0.2370   13.1140   -3.7830 C   0  0  1  0  0  0  0  0  0  0  0  0
    0.8680   15.0950   -2.5970 C   0  0  0  0  0  0  0  0  0  0  0  0
   -1.4090   13.2380   -4.7450 C   0  0  2  0  0  0  0  0  0  0  0  0
    0.8240   13.5060   -4.7880 C   0  0  2  0  0  0  0  0  0  0  0  0
    2.2340   14.7580   -3.1830 C   0  0  0  0  0  0  0  0  0  0  0  0
   -2.8870   13.1680   -4.2920 C   0  0  0  0  0  0  0  0  0  0  0  0
   -0.8710   12.3040   -5.8780 C   0  0  1  0  0  0  0  0  0  0  0  0
    0.6050   12.5550   -5.8710 N   0  0  0  0  0  0  0  0  0  0  0  0
    2.1880   13.5590   -4.1320 C   0  0  0  0  0  0  0  0  0  0  0  0
   -1.1230   10.7820   -5.8000 C   0  0  0  0  0  0  0  0  0  0  0  0
   -3.8850   14.0350   -5.0870 C   0  0  0  0  0  0  0  0  0  0  0  0
   -2.4350   10.4150   -5.4030 O   0  0  0  0  0  0  0  0  0  0  0  0
   -5.3650   13.9930   -4.6270 C   0  0  0  0  0  0  0  0  0  0  0  0
   -5.7440   14.9270   -3.5680 N   0  0  0  0  0  0  0  0  0  0  0  0
   -5.4390   14.7430   -2.1770 C   0  0  1  0  0  0  0  0  0  0  0  0
   -4.1870   15.3700   -1.6120 C   0  0  0  0  0  0  0  0  0  0  0  0
   -6.5320   15.0290   -1.2830 N   0  0  0  0  0  0  0  0  0  0  0  0
   -6.3070   14.2410   -0.0440 C   0  0  2  0  0  0  0  0  0  0  0  0
   -3.7360   14.4970   -0.4620 C   0  0  0  0  0  0  0  0  0  0  0  0
   -7.3680   14.6070    0.9940 C   0  0  0  0  0  0  0  0  0  0  0  0
   -4.8390   14.2730    0.5420 C   0  0  1  0  0  0  0  0  0  0  0  0
   -4.4510   15.6760    1.8250 Br  0  0  0  0  0  0  0  0  0  0  0  0
  2  1  1  6
  3  2  1  1
  2  4  1  0
  3  5  1  0
  3  6  1  0
  4  7  1  0
  5  8  1  1
  5  9  1  0
  6 10  1  0
  9 10  1  0
  6 11  1  1
  7 11  1  0
  9 12  1  1
  8 13  1  0
 12 14  1  0
 13 15  1  0
 15 16  1  0
 17 16  1  6
 17 18  1  0
 17 19  1  0
 19 20  1  0
 18 21  1  0
 20 22  1  1
 20 23  1  0
 21 23  1  0
 23 24  1  1
M  END
