ucsf147-ucsf387
     RDKit          3D

 24 26  0  0  0  0  0  0  0  0999 V2000
    0.9940   13.5390   -4.9330 C   0  0  0  0  0  0  0  0  0  0  0  0
   -0.0460   12.4690   -4.6450 C   0  0  2  0  0  0  0  0  0  0  0  0
   -1.1610   12.6330   -5.5460 O   0  0  0  0  0  0  0  0  0  0  0  0
    0.3420   14.8470   -4.5040 C   0  0  2  0  0  0  0  0  0  0  0  0
   -0.6800   12.5210   -3.2600 C   0  0  1  0  0  0  0  0  0  0  0  0
   -1.1040   14.7980   -4.9420 C   0  0  0  0  0  0  0  0  0  0  0  0
    1.1080   16.0940   -4.8990 C   0  0  0  0  0  0  0  0  0  0  0  0
    0.2800   12.8360   -2.1500 C   0  0  0  0  0  0  0  0  0  0  0  0
   -2.2540   13.3410   -4.8570 N   0  0  0  0  0  0  0  0  0  0  0  0
   -2.0910   13.1270   -3.3860 C   0  0  2  0  0  0  0  0  0  0  0  0
   -1.8880   16.0840   -4.8610 C   0  0  2  0  0  0  0  0  0  0  0  0
    0.3330   17.4020   -4.8150 C   0  0  1  0  0  0  0  0  0  0  0  0
   -0.1750   12.8020   -0.8500 O   0  0  0  0  0  0  0  0  0  0  0  0
    0.9500   14.0650   -2.2610 O   0  0  0  0  0  0  0  0  0  0  0  0
    1.1970   11.7960   -2.1880 O   0  0  0  0  0  0  0  0  0  0  0  0
    1.1290   18.5870   -5.8650 Cl  0  0  0  0  0  0  0  0  0  0  0  0
   -3.3620   15.8680   -5.8400 Cl  0  0  0  0  0  0  0  0  0  0  0  0
   -2.5270   14.3700   -2.5300 C   0  0  0  0  0  0  0  0  0  0  0  0
   -1.1250   17.3400   -5.2540 C   0  0  0  0  0  0  0  0  0  0  0  0
   -2.2920   14.0890   -1.0160 C   0  0  0  0  0  0  0  0  0  0  0  0
   -4.0050   14.7520   -2.8380 C   0  0  0  0  0  0  0  0  0  0  0  0
   -3.2550   14.7140    0.0140 C   0  0  0  0  0  0  0  0  0  0  0  0
   -4.7090   15.5650   -1.7680 C   0  0  0  0  0  0  0  0  0  0  0  0
   -4.6930   14.8830   -0.4390 C   0  0  0  0  0  0  0  0  0  0  0  0
  2  1  1  1
  2  3  1  0
  4  1  1  6
  2  5  1  0
  4  6  1  0
  4  7  1  0
  5  8  1  1
  3  9  1  0
  5 10  1  0
  9 10  1  0
  6 11  1  0
  7 12  1  0
  8 13  1  0
  8 14  1  0
  8 15  1  0
 12 16  1  6
 11 17  1  6
 10 18  1  1
 11 19  1  0
 12 19  1  0
 18 20  1  0
 18 21  1  0
 20 22  1  0
 21 23  1  0
 22 24  1  0
 23 24  1  0
M  CHG  2  14  -1  15  -1
M  END
