ucsf260-ucsf241
     RDKit          3D

 24 27  0  0  0  0  0  0  0  0999 V2000
    0.6730   10.5870   -2.5010 O   0  0  0  0  0  0  0  0  0  0  0  0
    0.3920   11.8910   -2.5970 C   0  0  1  0  0  0  0  0  0  0  0  0
    0.7150   12.5190   -1.3400 O   0  0  0  0  0  0  0  0  0  0  0  0
    1.1800   12.5800   -3.7810 C   0  0  0  0  0  0  0  0  0  0  0  0
    0.3980   13.0600   -5.0480 C   0  0  0  0  0  0  0  0  0  0  0  0
    1.0390   13.9180   -1.3570 C   0  0  0  0  0  0  0  0  0  0  0  0
   -0.6240   12.1710   -5.6410 N   0  0  0  0  0  0  0  0  0  0  0  0
   -0.0570   14.6990   -0.6150 C   0  0  1  0  0  0  0  0  0  0  0  0
   -1.6960   11.7730   -4.7590 C   0  0  0  0  0  0  0  0  0  0  0  0
   -0.2140   10.9460   -6.2930 C   0  0  1  0  0  0  0  0  0  0  0  0
   -1.3730   14.4910   -1.3900 C   0  0  0  0  0  0  0  0  0  0  0  0
   -0.1200   14.3570    0.9010 C   0  0  0  0  0  0  0  0  0  0  0  0
   -2.4200   10.7060   -5.4870 N   0  0  0  0  0  0  0  0  0  0  0  0
   -1.5820   10.4200   -6.6680 C   0  0  2  0  0  0  0  0  0  0  0  0
    0.6820   10.9920   -7.5190 C   0  0  0  0  0  0  0  0  0  0  0  0
   -2.5940   14.5010   -0.5020 C   0  0  2  0  0  0  0  0  0  0  0  0
   -1.4100   14.4450    1.6030 N   0  0  0  0  0  0  0  0  0  0  0  0
   -1.5580    8.9410   -7.0370 C   0  0  0  0  0  0  0  0  0  0  0  0
    0.5560    9.7020   -8.3380 C   0  0  0  0  0  0  0  0  0  0  0  0
   -3.8380   15.2120   -0.9920 C   0  0  0  0  0  0  0  0  0  0  0  0
   -2.3490   15.1560    0.8200 C   0  0  2  0  0  0  0  0  0  0  0  0
   -0.2210    8.5550   -7.6680 C   0  0  0  0  0  0  0  0  0  0  0  0
   -4.5570   15.4880    0.3210 C   0  0  0  0  0  0  0  0  0  0  0  0
   -3.6510   15.1100    1.4240 N   0  0  0  0  0  0  0  0  0  0  0  0
  2  1  1  1
  2  3  1  0
  2  4  1  0
  4  5  1  0
  3  6  1  0
  5  7  1  0
  8  6  1  6
  7  9  1  0
  7 10  1  0
  8 11  1  0
  8 12  1  0
  9 13  1  0
 10 14  1  0
 13 14  1  0
 10 15  1  6
 16 11  1  6
 12 17  1  0
 14 18  1  1
 15 19  1  0
 16 20  1  0
 16 21  1  0
 21 17  1  1
 18 22  1  0
 19 22  1  0
 20 23  1  0
 21 24  1  0
 23 24  1  0
M  CHG  1   1  -1
M  END
