ucsf224-ucsf357
     RDKit          3D

 23 24  0  0  0  0  0  0  0  0999 V2000
   -1.0630   18.2870   -6.1220 Cl  0  0  0  0  0  0  0  0  0  0  0  0
   -0.4670   17.1100   -4.9010 C   0  0  1  0  0  0  0  0  0  0  0  0
   -1.0970   15.7390   -4.9950 C   0  0  2  0  0  0  0  0  0  0  0  0
    1.0370   16.8810   -4.9180 C   0  0  0  0  0  0  0  0  0  0  0  0
   -2.8780   15.8080   -5.2850 Cl  0  0  0  0  0  0  0  0  0  0  0  0
   -0.7140   15.1460   -3.6710 C   0  0  1  0  0  0  0  0  0  0  0  0
    1.4520   15.3740   -4.7750 C   0  0  0  0  0  0  0  0  0  0  0  0
   -1.7250   14.3160   -3.1940 O   0  0  0  0  0  0  0  0  0  0  0  0
    0.6910   14.5480   -3.7160 C   0  0  2  0  0  0  0  0  0  0  0  0
    0.7200   13.0090   -3.9220 C   0  0  0  0  0  0  0  0  0  0  0  0
   -2.3170   15.1940   -2.2550 C   0  0  1  0  0  0  0  0  0  0  0  0
    1.0890   12.1660   -2.6390 C   0  0  2  0  0  0  0  0  0  0  0  0
   -3.7920   14.9400   -2.1720 C   0  0  0  0  0  0  0  0  0  0  0  0
   -1.4610   15.0040   -0.9900 C   0  0  1  0  0  0  0  0  0  0  0  0
    0.4870   10.9930   -2.6580 O   0  0  0  0  0  0  0  0  0  0  0  0
    0.5800   12.7650   -1.4460 O   0  0  0  0  0  0  0  0  0  0  0  0
   -0.2780   15.8150   -1.0630 O   0  0  0  0  0  0  0  0  0  0  0  0
   -4.2880   14.5570   -0.7880 C   0  0  2  0  0  0  0  0  0  0  0  0
   -2.1350   15.2280    0.3590 C   0  0  0  0  0  0  0  0  0  0  0  0
   -5.8230   14.5160   -0.8270 C   0  0  2  0  0  0  0  0  0  0  0  0
   -3.6520   15.4070    0.3250 C   0  0  0  0  0  0  0  0  0  0  0  0
   -6.2630   15.2750   -1.8050 O   0  0  0  0  0  0  0  0  0  0  0  0
   -6.3510   15.1340    0.3060 O   0  0  0  0  0  0  0  0  0  0  0  0
  2  1  1  6
  2  3  1  0
  2  4  1  0
  3  5  1  1
  3  6  1  0
  4  7  1  0
  6  8  1  6
  6  9  1  0
  7  9  1  0
  9 10  1  6
 11  8  1  6
 10 12  1  0
 11 13  1  0
 11 14  1  0
 12 15  1  6
 12 16  1  0
 14 17  1  6
 18 13  1  6
 14 19  1  0
 18 20  1  0
 18 21  1  0
 19 21  1  0
 20 22  1  6
 20 23  1  0
M  CHG  2  15  -1  22  -1
M  END
