ucsf519-ucsf012
     RDKit          3D

 26 28  0  0  0  0  0  0  0  0999 V2000
    0.4480   15.1920   -3.2720 C   0  0  0  0  0  0  0  0  0  0  0  0
   -0.7380   14.3230   -3.7820 C   0  0  2  0  0  0  0  0  0  0  0  0
   -0.1030   13.8660   -5.4820 S   0  0  0  0  0  0  0  0  0  0  0  0
   -2.0550   15.1690   -3.5070 C   0  0  1  0  0  0  0  0  0  0  0  0
   -0.9440   12.9170   -3.1300 C   0  0  2  0  0  0  0  0  0  0  0  0
    1.2850   12.7430   -4.9300 C   0  0  0  0  0  0  0  0  0  0  0  0
   -3.0720   15.0090   -4.4960 O   0  0  0  0  0  0  0  0  0  0  0  0
   -2.5750   15.0190   -2.1530 N   0  0  0  0  0  0  0  0  0  0  0  0
    0.1530   12.2210   -2.3250 C   0  0  0  0  0  0  0  0  0  0  0  0
   -1.2400   11.9880   -4.2160 O   0  0  0  0  0  0  0  0  0  0  0  0
    1.5090   12.5130   -3.3920 C   0  0  2  0  0  0  0  0  0  0  0  0
   -3.9430   14.6960   -1.7410 C   0  0  2  0  0  0  0  0  0  0  0  0
   -1.7890   15.2490   -0.9560 C   0  0  1  0  0  0  0  0  0  0  0  0
   -0.7170   10.6960   -3.9350 C   0  0  0  0  0  0  0  0  0  0  0  0
   -0.1980   10.7550   -2.5220 C   0  0  0  0  0  0  0  0  0  0  0  0
    2.8760   12.4730   -3.0700 O   0  0  0  0  0  0  0  0  0  0  0  0
    1.0760   11.3470   -2.9590 O   0  0  0  0  0  0  0  0  0  0  0  0
   -0.8890   16.2900   -1.0580 O   0  0  0  0  0  0  0  0  0  0  0  0
   -5.2100   14.9980   -2.5110 C   0  0  0  0  0  0  0  0  0  0  0  0
   -4.0630   15.4280   -0.4290 C   0  0  0  0  0  0  0  0  0  0  0  0
   -2.7190   15.5440    0.1100 N   0  0  0  0  0  0  0  0  0  0  0  0
   -1.0210   14.1150   -0.6010 N   0  0  0  0  0  0  0  0  0  0  0  0
   -2.6110   14.5930    1.1390 C   0  0  2  0  0  0  0  0  0  0  0  0
   -0.3360   14.3270    0.6500 C   0  0  0  0  0  0  0  0  0  0  0  0
   -3.4480   15.1390    2.1540 N   0  0  0  0  0  0  0  0  0  0  0  0
   -1.2980   14.6940    1.6600 N   0  0  0  0  0  0  0  0  0  0  0  0
  2  1  1  1
  2  3  1  0
  2  4  1  0
  2  5  1  0
  3  6  1  0
  4  7  1  6
  4  8  1  0
  5  9  1  6
  5 10  1  0
  6 11  1  0
  8 12  1  0
  8 13  1  0
 10 14  1  0
  9 15  1  0
 14 15  1  0
 11 16  1  6
 11 17  1  0
 13 18  1  6
 12 19  1  6
 12 20  1  0
 13 21  1  0
 20 21  1  0
 13 22  1  0
 21 23  1  0
 22 24  1  0
 23 25  1  1
 23 26  1  0
 24 26  1  0
M  CHG  1  17  -1
M  END
