ucsf339-ucsf411
     RDKit          3D

 28 32  0  0  0  0  0  0  0  0999 V2000
    0.8460   13.9550   -3.5710 N   0  0  0  0  0  0  0  0  0  0  0  0
    0.1890   13.9660   -2.2460 C   0  0  2  0  0  0  0  0  0  0  0  0
    0.3730   12.7810   -1.4640 O   0  0  0  0  0  0  0  0  0  0  0  0
    1.0500   12.4880   -3.7210 C   0  0  0  0  0  0  0  0  0  0  0  0
   -0.3010   14.4030   -4.4260 C   0  0  1  0  0  0  0  0  0  0  0  0
    1.0730   11.8750   -2.3090 C   0  0  2  0  0  0  0  0  0  0  0  0
   -1.2960   14.2770   -2.3460 C   0  0  1  0  0  0  0  0  0  0  0  0
   -0.0210   15.6880   -5.2000 C   0  0  1  0  0  0  0  0  0  0  0  0
   -0.9650   13.4770   -5.4620 C   0  0  0  0  0  0  0  0  0  0  0  0
    0.4800   10.6750   -2.2390 O   0  0  0  0  0  0  0  0  0  0  0  0
   -2.1160   14.6280   -1.1290 C   0  0  0  0  0  0  0  0  0  0  0  0
   -1.6040   15.2790   -3.4370 C   0  0  0  0  0  0  0  0  0  0  0  0
   -1.3400   16.4440   -5.5470 C   0  0  1  0  0  0  0  0  0  0  0  0
   -2.3480   14.0100   -5.8910 C   0  0  0  0  0  0  0  0  0  0  0  0
    0.9880   16.5810   -4.5260 C   0  0  0  0  0  0  0  0  0  0  0  0
   -3.3470   15.3800   -1.6870 C   0  0  1  0  0  0  0  0  0  0  0  0
   -2.9150   15.0360   -4.0340 N   0  0  0  0  0  0  0  0  0  0  0  0
   -2.5970   15.5370   -5.7000 C   0  0  0  0  0  0  0  0  0  0  0  0
   -1.5740   17.6050   -4.6500 C   0  0  0  0  0  0  0  0  0  0  0  0
    0.8820   17.9420   -5.1680 C   0  0  0  0  0  0  0  0  0  0  0  0
   -3.8510   14.7730   -2.9840 C   0  0  0  0  0  0  0  0  0  0  0  0
   -4.4760   15.5210   -0.7000 C   0  0  0  0  0  0  0  0  0  0  0  0
   -0.4170   18.5510   -4.7050 C   0  0  0  0  0  0  0  0  0  0  0  0
   -3.9550   15.9280    0.6540 C   0  0  0  0  0  0  0  0  0  0  0  0
   -5.3460   14.2550   -0.7300 C   0  0  0  0  0  0  0  0  0  0  0  0
   -4.5220   15.0690    1.7200 C   0  0  0  0  0  0  0  0  0  0  0  0
   -6.5140   14.3800    0.2040 C   0  0  0  0  0  0  0  0  0  0  0  0
   -6.0000   14.6090    1.6020 C   0  0  0  0  0  0  0  0  0  0  0  0
  1  2  1  0
  2  3  1  6
  1  4  1  0
  5  1  1  6
  3  6  1  0
  4  6  1  0
  2  7  1  0
  5  8  1  0
  5  9  1  0
  6 10  1  6
  7 11  1  1
  7 12  1  0
  8 13  1  0
  9 14  1  0
  8 15  1  1
 11 16  1  0
 12 17  1  0
 13 18  1  1
 14 18  1  0
 13 19  1  0
 15 20  1  0
 16 21  1  0
 17 21  1  0
 16 22  1  1
 19 23  1  0
 20 23  1  0
 22 24  1  0
 22 25  1  0
 24 26  1  0
 25 27  1  0
 26 28  1  0
 27 28  1  0
M  CHG  1  10  -1
M  END
