ucsf403-ucsf511
     RDKit          3D

 28 31  0  0  0  0  0  0  0  0999 V2000
    0.8140    9.2770   -8.0060 Cl  0  0  0  0  0  0  0  0  0  0  0  0
   -0.7150    9.7150   -7.1750 C   0  0  2  0  0  0  0  0  0  0  0  0
   -0.6240   11.0740   -6.4280 C   0  0  0  0  0  0  0  0  0  0  0  0
   -1.2040    8.5430   -6.3170 C   0  0  0  0  0  0  0  0  0  0  0  0
    0.6870   11.2170   -5.8380 O   0  0  0  0  0  0  0  0  0  0  0  0
   -1.7250   11.1710   -5.3530 C   0  0  1  0  0  0  0  0  0  0  0  0
   -2.6070    8.7670   -5.7900 C   0  0  0  0  0  0  0  0  0  0  0  0
   -2.3360   12.8490   -5.2670 Cl  0  0  0  0  0  0  0  0  0  0  0  0
    0.9630   12.3920   -5.0650 C   0  0  0  0  0  0  0  0  0  0  0  0
   -2.9300   10.2470   -5.6020 C   0  0  0  0  0  0  0  0  0  0  0  0
    0.8460   12.1210   -3.5310 C   0  0  2  0  0  0  0  0  0  0  0  0
    2.0420   12.3730   -2.7950 O   0  0  0  0  0  0  0  0  0  0  0  0
    0.5540   10.7390   -3.3240 O   0  0  0  0  0  0  0  0  0  0  0  0
    2.0950   13.6290   -2.1070 C   0  0  0  0  0  0  0  0  0  0  0  0
    0.8870   13.8130   -1.3660 O   0  0  0  0  0  0  0  0  0  0  0  0
   -0.0220   14.6660   -2.0580 C   0  0  2  0  0  0  0  0  0  0  0  0
   -1.4670   14.1350   -1.9030 C   0  0  2  0  0  0  0  0  0  0  0  0
    0.4890   14.8190   -3.4230 N   0  0  0  0  0  0  0  0  0  0  0  0
   -2.3850   14.4680   -3.0750 C   0  0  2  0  0  0  0  0  0  0  0  0
   -0.4790   14.7190   -4.4950 C   0  0  0  0  0  0  0  0  0  0  0  0
   -2.0900   14.5690   -0.6830 O   0  0  0  0  0  0  0  0  0  0  0  0
   -1.7310   15.2970   -4.0840 N   0  0  0  0  0  0  0  0  0  0  0  0
   -3.2040   15.4140   -1.0040 C   0  0  1  0  0  0  0  0  0  0  0  0
   -3.5270   15.2950   -2.5000 C   0  0  2  0  0  0  0  0  0  0  0  0
   -4.9050   14.7000   -2.8420 C   0  0  0  0  0  0  0  0  0  0  0  0
   -4.3740   15.0850   -0.1070 C   0  0  0  0  0  0  0  0  0  0  0  0
   -6.0850   15.1960   -2.0250 C   0  0  0  0  0  0  0  0  0  0  0  0
   -5.6900   15.6410   -0.6320 C   0  0  0  0  0  0  0  0  0  0  0  0
  2  1  1  1
  2  3  1  0
  2  4  1  0
  3  5  1  0
  3  6  1  0
  4  7  1  0
  6  8  1  6
  5  9  1  0
  6 10  1  0
  7 10  1  0
  9 11  1  0
 11 12  1  0
 11 13  1  6
 12 14  1  0
 14 15  1  0
 16 15  1  1
 16 17  1  0
 16 18  1  0
 17 19  1  0
 18 20  1  0
 17 21  1  1
 19 22  1  6
 20 22  1  0
 21 23  1  0
 19 24  1  0
 23 24  1  0
 24 25  1  1
 23 26  1  1
 25 27  1  0
 26 28  1  0
 27 28  1  0
M  END
