ucsf123-ucsf378
     RDKit          3D

 17 17  0  0  0  0  0  0  0  0999 V2000
   -1.8740   18.8180   -4.9700 N   0  0  0  0  0  0  0  0  0  0  0  0
   -1.4570   17.4260   -5.7160 S   0  0  0  0  0  0  0  0  0  0  0  0
   -0.2100   17.7320   -6.6490 O   0  0  0  0  0  0  0  0  0  0  0  0
   -2.6450   16.9780   -6.6810 O   0  0  0  0  0  0  0  0  0  0  0  0
   -0.9670   15.9970   -4.7500 C   0  0  2  0  0  0  0  0  0  0  0  0
    0.5460   15.7540   -4.6130 C   0  0  0  0  0  0  0  0  0  0  0  0
   -1.6560   14.6860   -5.1540 C   0  0  0  0  0  0  0  0  0  0  0  0
    0.7530   14.2830   -4.2160 C   0  0  1  0  0  0  0  0  0  0  0  0
   -1.6550   13.7420   -3.9580 C   0  0  2  0  0  0  0  0  0  0  0  0
   -3.0850   14.1350   -2.9560 Cl  0  0  0  0  0  0  0  0  0  0  0  0
    2.4260   13.7640   -3.8020 Cl  0  0  0  0  0  0  0  0  0  0  0  0
   -0.3240   13.8850   -3.1870 C   0  0  1  0  0  0  0  0  0  0  0  0
    0.0980   12.6620   -2.3070 C   0  0  2  0  0  0  0  0  0  0  0  0
    1.2240   13.0120   -1.5340 O   0  0  0  0  0  0  0  0  0  0  0  0
    0.4690   11.4490   -3.0420 N   0  0  0  0  0  0  0  0  0  0  0  0
   -0.2810   10.3300   -2.4650 O   0  0  0  0  0  0  0  0  0  0  0  0
    0.0900   11.4740   -4.4530 C   0  0  0  0  0  0  0  0  0  0  0  0
  1  2  1  0
  2  3  1  0
  2  4  1  0
  5  2  1  6
  5  6  1  0
  5  7  1  0
  6  8  1  0
  7  9  1  0
  9 10  1  1
  8 11  1  1
  8 12  1  0
  9 12  1  0
 12 13  1  6
 13 14  1  6
 13 15  1  0
 15 16  1  0
 15 17  1  0
M  END
