ucsf258-ucsf424
     RDKit          3D

 22 24  0  0  0  0  0  0  0  0999 V2000
    0.4880   13.1430   -2.2730 O   0  0  0  0  0  0  0  0  0  0  0  0
   -0.4060   14.1200   -2.7830 C   0  0  2  0  0  0  0  0  0  0  0  0
    0.2190   15.3880   -2.7630 O   0  0  0  0  0  0  0  0  0  0  0  0
    0.6060   12.0710   -3.2010 C   0  0  1  0  0  0  0  0  0  0  0  0
   -0.6250   11.3810   -3.2720 O   0  0  0  0  0  0  0  0  0  0  0  0
    0.9600   12.5960   -4.6140 C   0  0  0  0  0  0  0  0  0  0  0  0
   -1.7280   14.1230   -1.9720 C   0  0  2  0  0  0  0  0  0  0  0  0
   -2.8070   14.8360   -2.8080 C   0  0  1  0  0  0  0  0  0  0  0  0
   -1.5730   14.7630   -0.6470 N   0  0  0  0  0  0  0  0  0  0  0  0
    0.2210   12.0150   -5.8420 C   0  0  1  0  0  0  0  0  0  0  0  0
   -2.8990   14.1770   -4.0730 O   0  0  0  0  0  0  0  0  0  0  0  0
   -4.1690   14.8420   -2.1090 C   0  0  0  0  0  0  0  0  0  0  0  0
   -2.8370   14.7490    0.1070 C   0  0  0  0  0  0  0  0  0  0  0  0
    1.2750   11.6990   -6.8450 N   0  0  0  0  0  0  0  0  0  0  0  0
   -0.5250   10.6780   -5.7620 C   0  0  2  0  0  0  0  0  0  0  0  0
   -4.0750   15.2730   -0.6410 C   0  0  0  0  0  0  0  0  0  0  0  0
    0.8250   10.5590   -7.6450 O   0  0  0  0  0  0  0  0  0  0  0  0
   -0.4930   10.2690   -7.2170 C   0  0  1  0  0  0  0  0  0  0  0  0
   -1.9600   10.6090   -5.2540 C   0  0  0  0  0  0  0  0  0  0  0  0
   -0.8670    8.8090   -7.4120 C   0  0  0  0  0  0  0  0  0  0  0  0
   -2.8710    9.7030   -6.1090 C   0  0  0  0  0  0  0  0  0  0  0  0
   -2.1750    8.4700   -6.6860 C   0  0  0  0  0  0  0  0  0  0  0  0
  1  2  1  0
  2  3  1  1
  1  4  1  0
  4  5  1  6
  4  6  1  0
  2  7  1  0
  7  8  1  0
  7  9  1  1
 10  6  1  1
  8 11  1  6
  8 12  1  0
  9 13  1  0
 10 14  1  0
 10 15  1  0
 12 16  1  0
 13 16  1  0
 14 17  1  0
 15 18  1  0
 17 18  1  0
 15 19  1  6
 18 20  1  1
 19 21  1  0
 20 22  1  0
 21 22  1  0
M  END
