ucsf371-ucsf385
     RDKit          3D

 17 18  0  0  0  0  0  0  0  0999 V2000
   -5.0470   15.0880    0.2520 C   0  0  0  0  0  0  0  0  0  0  0  0
   -4.6180   15.6130   -1.1180 C   0  0  2  0  0  0  0  0  0  0  0  0
   -4.9920   14.7050   -2.2050 N   0  0  0  0  0  0  0  0  0  0  0  0
   -2.8310   15.8860   -1.2410 S   0  0  0  0  0  0  0  0  0  0  0  0
   -4.0420   14.7810   -3.3450 C   0  0  0  0  0  0  0  0  0  0  0  0
   -2.7910   15.6140   -3.0540 C   0  0  2  0  0  0  0  0  0  0  0  0
   -1.5250   14.9600   -3.6470 C   0  0  1  0  0  0  0  0  0  0  0  0
   -1.3600   15.2900   -5.0160 O   0  0  0  0  0  0  0  0  0  0  0  0
   -0.3530   15.3070   -2.9610 O   0  0  0  0  0  0  0  0  0  0  0  0
   -0.0920   14.2910   -2.0400 C   0  0  0  0  0  0  0  0  0  0  0  0
   -0.8010   14.6510   -0.7530 C   0  0  1  0  0  0  0  0  0  0  0  0
   -2.0160   13.7710   -0.3850 C   0  0  2  0  0  0  0  0  0  0  0  0
    0.2300   14.4790    0.3230 C   0  0  0  0  0  0  0  0  0  0  0  0
   -3.0320   13.6010   -1.4230 N   0  0  0  0  0  0  0  0  0  0  0  0
   -0.4040   14.1940    1.6550 C   0  0  0  0  0  0  0  0  0  0  0  0
   -2.6680   14.3130    0.8910 C   0  0  0  0  0  0  0  0  0  0  0  0
   -1.6830   14.8910    1.7610 N   0  0  0  0  0  0  0  0  0  0  0  0
  2  1  1  1
  2  3  1  0
  2  4  1  0
  3  5  1  0
  4  6  1  0
  6  5  1  1
  6  7  1  0
  7  8  1  6
  7  9  1  0
  9 10  1  0
 11 10  1  6
 11 12  1  0
 11 13  1  0
 12 14  1  6
 13 15  1  0
 12 16  1  0
 15 17  1  0
 16 17  1  0
M  END
