ucsf213-ucsf333
     RDKit          3D

 24 27  0  0  0  0  0  0  0  0999 V2000
   -0.6730   11.4910   -2.8350 O   0  0  0  0  0  0  0  0  0  0  0  0
    0.5370   11.8700   -2.5410 C   0  0  2  0  0  0  0  0  0  0  0  0
    0.3180   12.3710   -1.2350 O   0  0  0  0  0  0  0  0  0  0  0  0
    1.1200   13.0520   -3.3890 C   0  0  2  0  0  0  0  0  0  0  0  0
    1.4140   14.3080   -2.5470 C   0  0  0  0  0  0  0  0  0  0  0  0
    0.2840   13.5890   -4.5720 C   0  0  2  0  0  0  0  0  0  0  0  0
    0.9730   14.8770   -5.0460 C   0  0  0  0  0  0  0  0  0  0  0  0
   -1.4780   14.0210   -4.2950 S   0  0  0  0  0  0  0  0  0  0  0  0
    0.1610   15.0810   -2.1050 C   0  0  1  0  0  0  0  0  0  0  0  0
    0.0300   16.0390   -5.2880 C   0  0  1  0  0  0  0  0  0  0  0  0
   -1.4380   15.6410   -5.1020 C   0  0  2  0  0  0  0  0  0  0  0  0
   -1.1160   14.6710   -2.6770 N   0  0  0  0  0  0  0  0  0  0  0  0
   -0.1460   14.8360   -0.3410 S   0  0  0  0  0  0  0  0  0  0  0  0
    0.3180   17.4130   -4.7180 C   0  0  0  0  0  0  0  0  0  0  0  0
   -2.2200   16.7920   -4.5120 C   0  0  0  0  0  0  0  0  0  0  0  0
   -2.1900   15.4130   -2.0120 C   0  0  2  0  0  0  0  0  0  0  0  0
   -1.8080   15.5490   -0.5160 C   0  0  1  0  0  0  0  0  0  0  0  0
   -0.5330   18.3250   -5.5890 C   0  0  0  0  0  0  0  0  0  0  0  0
   -2.0140   18.0270   -5.4100 C   0  0  0  0  0  0  0  0  0  0  0  0
   -3.6450   15.0170   -2.3600 C   0  0  0  0  0  0  0  0  0  0  0  0
   -2.7870   14.9440    0.4770 C   0  0  0  0  0  0  0  0  0  0  0  0
   -4.6300   14.7820   -1.2070 C   0  0  1  0  0  0  0  0  0  0  0  0
   -4.2060   15.3410    0.1520 C   0  0  0  0  0  0  0  0  0  0  0  0
   -6.2460   15.4390   -1.6440 Cl  0  0  0  0  0  0  0  0  0  0  0  0
  2  1  1  6
  2  3  1  0
  2  4  1  0
  4  5  1  1
  4  6  1  0
  6  7  1  1
  6  8  1  0
  9  5  1  6
 10  7  1  1
  8 11  1  0
 10 11  1  0
  9 12  1  0
  9 13  1  0
 10 14  1  0
 11 15  1  1
 12 16  1  0
 13 17  1  0
 16 17  1  0
 14 18  1  0
 15 19  1  0
 18 19  1  0
 16 20  1  1
 17 21  1  1
 20 22  1  0
 21 23  1  0
 22 23  1  0
 22 24  1  6
M  CHG  1   1  -1
M  END
