ucsf523-ucsf110
     RDKit          3D

 16 18  0  0  0  0  0  0  0  0999 V2000
    0.1390   14.9930    1.1860 N   0  0  0  0  0  0  0  0  0  0  0  0
   -0.7860   14.0640    0.6620 C   0  0  1  0  0  0  0  0  0  0  0  0
   -2.1360   14.3740    1.1910 N   0  0  0  0  0  0  0  0  0  0  0  0
   -0.6920   14.3150   -0.7410 N   0  0  0  0  0  0  0  0  0  0  0  0
   -2.4520   15.7950    1.1910 N   0  0  0  0  0  0  0  0  0  0  0  0
   -1.6550   15.2910   -1.1740 C   0  0  2  0  0  0  0  0  0  0  0  0
   -3.1320   13.8610    0.2620 C   0  0  2  0  0  0  0  0  0  0  0  0
   -3.1130   14.7480   -1.0450 C   0  0  1  0  0  0  0  0  0  0  0  0
   -4.4300   13.7450    0.9860 N   0  0  0  0  0  0  0  0  0  0  0  0
   -1.3860   15.4830   -2.6090 N   0  0  0  0  0  0  0  0  0  0  0  0
   -5.1920   14.9630    0.9090 C   0  0  2  0  0  0  0  0  0  0  0  0
   -4.1190   15.8290   -1.1180 N   0  0  0  0  0  0  0  0  0  0  0  0
   -2.5850   15.0130   -3.3060 C   0  0  0  0  0  0  0  0  0  0  0  0
   -3.2280   14.0110   -2.3640 C   0  0  0  0  0  0  0  0  0  0  0  0
   -6.3780   14.7670    1.6390 O   0  0  0  0  0  0  0  0  0  0  0  0
   -5.3970   15.4220   -0.5480 C   0  0  0  0  0  0  0  0  0  0  0  0
  2  1  1  1
  2  3  1  0
  2  4  1  0
  3  5  1  0
  6  4  1  6
  3  7  1  0
  6  8  1  0
  7  8  1  0
  7  9  1  1
  6 10  1  0
  9 11  1  0
  8 12  1  0
 10 13  1  0
  8 14  1  6
 13 14  1  0
 11 15  1  6
 11 16  1  0
 12 16  1  0
M  END
