ucsf357-ucsf584
     RDKit          3D

 15 16  0  0  0  0  0  0  0  0999 V2000
   -5.5850   13.1120   -2.6840 O   0  0  0  0  0  0  0  0  0  0  0  0
   -5.8880   13.1340   -1.4020 C   0  0  1  0  0  0  0  0  0  0  0  0
   -5.2050   12.1240   -0.8910 O   0  0  0  0  0  0  0  0  0  0  0  0
   -5.3130   14.7840   -0.6820 S   0  0  0  0  0  0  0  0  0  0  0  0
   -4.0320   15.0720   -1.9590 C   0  0  0  0  0  0  0  0  0  0  0  0
   -3.7570   15.6090   -0.2120 C   0  0  0  0  0  0  0  0  0  0  0  0
   -5.8620   14.5160    0.9430 N   0  0  0  0  0  0  0  0  0  0  0  0
   -7.0710   15.5800   -0.3850 N   0  0  0  0  0  0  0  0  0  0  0  0
   -2.7790   14.5040   -2.1400 C   0  0  1  0  0  0  0  0  0  0  0  0
   -2.6220   14.6810    0.1610 C   0  0  0  0  0  0  0  0  0  0  0  0
   -7.9230   14.7110    0.1850 C   0  0  0  0  0  0  0  0  0  0  0  0
   -7.1700   14.3740    1.3920 C   0  0  0  0  0  0  0  0  0  0  0  0
   -2.0970   15.0820   -3.2520 F   0  0  0  0  0  0  0  0  0  0  0  0
   -1.7330   14.3450   -1.0910 C   0  0  2  0  0  0  0  0  0  0  0  0
   -0.6160   15.1420   -1.2370 O   0  0  0  0  0  0  0  0  0  0  0  0
  2  1  1  6
  2  3  1  0
  2  4  1  0
  4  5  1  0
  4  6  1  0
  4  7  1  0
  4  8  1  0
  5  9  1  0
  6 10  1  0
  8 11  1  0
  7 12  1  0
 11 12  1  0
  9 13  1  6
  9 14  1  0
 10 14  1  0
 14 15  1  6
M  CHG  1   1  -1
M  END
