ucsf442-ucsf365
     RDKit          3D

 23 25  0  0  0  0  0  0  0  0999 V2000
   -0.2440   15.5220    0.4910 O   0  0  0  0  0  0  0  0  0  0  0  0
   -1.3430   14.6570    0.4970 C   0  0  2  0  0  0  0  0  0  0  0  0
   -1.7550   14.4830   -0.8770 N   0  0  0  0  0  0  0  0  0  0  0  0
   -2.3670   15.2940    1.2750 N   0  0  0  0  0  0  0  0  0  0  0  0
   -3.6080   14.7470    0.8190 C   0  0  2  0  0  0  0  0  0  0  0  0
   -2.7810   15.4230   -1.3700 C   0  0  1  0  0  0  0  0  0  0  0  0
   -3.0560   15.1530   -2.7580 O   0  0  0  0  0  0  0  0  0  0  0  0
   -4.0160   15.4320   -0.4460 C   0  0  1  0  0  0  0  0  0  0  0  0
   -4.7650   15.1350    1.5810 N   0  0  0  0  0  0  0  0  0  0  0  0
   -2.2370   15.9760   -3.6170 C   0  0  0  0  0  0  0  0  0  0  0  0
   -5.2780   14.7370   -0.6660 N   0  0  0  0  0  0  0  0  0  0  0  0
   -5.7930   14.5750    0.6960 C   0  0  0  0  0  0  0  0  0  0  0  0
   -1.8500   15.3350   -4.9570 C   0  0  2  0  0  0  0  0  0  0  0  0
   -3.0250   14.4870   -5.5100 C   0  0  0  0  0  0  0  0  0  0  0  0
   -0.4230   14.7280   -4.9130 C   0  0  0  0  0  0  0  0  0  0  0  0
   -0.2580   13.2160   -5.1710 C   0  0  1  0  0  0  0  0  0  0  0  0
   -2.6900   13.0440   -5.8450 C   0  0  0  0  0  0  0  0  0  0  0  0
    0.8810   12.6200   -4.3200 C   0  0  0  0  0  0  0  0  0  0  0  0
   -1.5820   12.4780   -4.9640 C   0  0  1  0  0  0  0  0  0  0  0  0
    0.5790   12.3890   -2.8100 C   0  0  1  0  0  0  0  0  0  0  0  0
   -1.4510   11.0850   -5.3050 O   0  0  0  0  0  0  0  0  0  0  0  0
    0.4570   11.0970   -2.5710 O   0  0  0  0  0  0  0  0  0  0  0  0
    1.7330   12.6880   -2.0870 O   0  0  0  0  0  0  0  0  0  0  0  0
  2  1  1  6
  2  3  1  0
  2  4  1  0
  5  4  1  1
  3  6  1  0
  6  7  1  6
  5  8  1  0
  6  8  1  0
  5  9  1  0
  7 10  1  0
  8 11  1  6
  9 12  1  0
 11 12  1  0
 13 10  1  1
 13 14  1  0
 13 15  1  0
 15 16  1  0
 14 17  1  0
 16 18  1  1
 16 19  1  0
 17 19  1  0
 18 20  1  0
 19 21  1  6
 20 22  1  6
 20 23  1  0
M  CHG  1  22  -1
M  END
