ucsf320-ucsf262
     RDKit          3D

 23 25  0  0  0  0  0  0  0  0999 V2000
   -1.1530   14.9550   -1.0860 O   0  0  0  0  0  0  0  0  0  0  0  0
   -1.9170   15.0790   -2.1620 C   0  0  1  0  0  0  0  0  0  0  0  0
   -1.3070   14.2990   -3.2170 O   0  0  0  0  0  0  0  0  0  0  0  0
   -3.2840   14.3820   -1.8750 C   0  0  1  0  0  0  0  0  0  0  0  0
   -3.6960   14.3430   -0.3840 C   0  0  0  0  0  0  0  0  0  0  0  0
   -4.3810   15.0250   -2.7570 C   0  0  0  0  0  0  0  0  0  0  0  0
   -0.3940   14.9960   -4.0680 C   0  0  2  0  0  0  0  0  0  0  0  0
   -4.7430   15.3860    0.0180 C   0  0  0  0  0  0  0  0  0  0  0  0
   -5.7970   14.8500   -2.2380 C   0  0  0  0  0  0  0  0  0  0  0  0
    1.1260   14.8570   -3.8050 C   0  0  2  0  0  0  0  0  0  0  0  0
   -0.7140   16.4990   -4.0800 C   0  0  1  0  0  0  0  0  0  0  0  0
    1.6850   14.4690   -2.3660 C   0  0  2  0  0  0  0  0  0  0  0  0
   -5.9810   15.5070   -0.8920 C   0  0  1  0  0  0  0  0  0  0  0  0
    0.6350   17.2020   -4.2830 C   0  0  1  0  0  0  0  0  0  0  0  0
    1.6830   16.1640   -4.2950 N   0  0  0  0  0  0  0  0  0  0  0  0
   -1.6180   16.7360   -5.2530 C   0  0  1  0  0  0  0  0  0  0  0  0
   -7.1260   14.9580   -0.2400 O   0  0  0  0  0  0  0  0  0  0  0  0
   -3.1730   15.8060   -5.2640 Cl  0  0  0  0  0  0  0  0  0  0  0  0
    3.0270   14.4310   -2.3580 O   0  0  0  0  0  0  0  0  0  0  0  0
    1.4100   13.0930   -2.1440 O   0  0  0  0  0  0  0  0  0  0  0  0
   -1.7590   18.1890   -5.6370 C   0  0  0  0  0  0  0  0  0  0  0  0
    0.8120   18.0610   -5.5510 C   0  0  0  0  0  0  0  0  0  0  0  0
   -0.4360   18.6680   -6.2200 C   0  0  0  0  0  0  0  0  0  0  0  0
  2  1  1  1
  2  3  1  0
  2  4  1  0
  4  5  1  1
  4  6  1  0
  7  3  1  1
  5  8  1  0
  6  9  1  0
  7 10  1  0
  7 11  1  0
 10 12  1  0
  8 13  1  0
  9 13  1  0
 11 14  1  0
 10 15  1  1
 14 15  1  0
 11 16  1  6
 13 17  1  1
 16 18  1  1
 12 19  1  6
 12 20  1  0
 16 21  1  0
 14 22  1  6
 21 23  1  0
 22 23  1  0
M  CHG  2   1  -1  19  -1
M  END
