ucsf039-ucsf422
     RDKit          3D

 26 29  0  0  0  0  0  0  0  0999 V2000
   -4.3650   15.4850    1.3940 N   0  0  0  0  0  0  0  0  0  0  0  0
   -3.6990   14.7550    0.3390 C   0  0  2  0  0  0  0  0  0  0  0  0
   -2.1810   14.5160    0.5640 C   0  0  1  0  0  0  0  0  0  0  0  0
   -4.0510   15.4800   -0.8690 N   0  0  0  0  0  0  0  0  0  0  0  0
   -3.3890   14.9440   -2.0410 C   0  0  0  0  0  0  0  0  0  0  0  0
   -1.4900   14.1940   -0.7510 C   0  0  1  0  0  0  0  0  0  0  0  0
   -1.3090   15.5680    1.0460 N   0  0  0  0  0  0  0  0  0  0  0  0
   -1.9490   15.0040   -1.8500 N   0  0  0  0  0  0  0  0  0  0  0  0
   -0.0650   14.2960   -0.4210 N   0  0  0  0  0  0  0  0  0  0  0  0
   -0.0270   14.9230    0.8900 C   0  0  0  0  0  0  0  0  0  0  0  0
   -1.2230   14.8810   -3.0970 C   0  0  0  0  0  0  0  0  0  0  0  0
   -0.6590   16.2490   -3.5640 C   0  0  1  0  0  0  0  0  0  0  0  0
    0.7330   16.2100   -4.1750 C   0  0  1  0  0  0  0  0  0  0  0  0
   -1.4700   16.9530   -4.6080 N   0  0  0  0  0  0  0  0  0  0  0  0
   -2.8620   15.9930   -5.4140 Br  0  0  0  0  0  0  0  0  0  0  0  0
   -0.5610   17.7590   -5.4500 C   0  0  2  0  0  0  0  0  0  0  0  0
    0.9630   18.0010   -4.4430 S   0  0  0  0  0  0  0  0  0  0  0  0
    1.7580   15.1690   -3.7260 C   0  0  0  0  0  0  0  0  0  0  0  0
    0.5970   15.7410   -5.5700 C   0  0  0  0  0  0  0  0  0  0  0  0
   -1.1990   19.0570   -5.9250 C   0  0  0  0  0  0  0  0  0  0  0  0
    0.8820   13.9420   -4.0670 C   0  0  1  0  0  0  0  0  0  0  0  0
    0.4460   14.2290   -5.4890 C   0  0  0  0  0  0  0  0  0  0  0  0
    1.3150   12.4950   -3.7120 C   0  0  0  0  0  0  0  0  0  0  0  0
    0.3480   11.8090   -2.6860 C   0  0  1  0  0  0  0  0  0  0  0  0
    0.6090   10.5220   -2.4870 O   0  0  0  0  0  0  0  0  0  0  0  0
    0.6240   12.3440   -1.4150 O   0  0  0  0  0  0  0  0  0  0  0  0
  2  1  1  1
  2  3  1  0
  2  4  1  0
  4  5  1  0
  3  6  1  0
  3  7  1  6
  5  8  1  0
  6  8  1  0
  6  9  1  1
  7 10  1  0
  9 10  1  0
  8 11  1  0
 12 11  1  6
 12 13  1  0
 12 14  1  0
 14 15  1  0
 14 16  1  0
 13 17  1  0
 16 17  1  0
 13 18  1  1
 13 19  1  0
 16 20  1  1
 18 21  1  0
 19 22  1  0
 21 22  1  0
 21 23  1  6
 23 24  1  0
 24 25  1  1
 24 26  1  0
M  CHG  1  25  -1
M  END
