ucsf224-ucsf367
     RDKit          3D

 19 20  0  0  0  0  0  0  0  0999 V2000
   -0.8550   18.2110   -6.1300 Cl  0  0  0  0  0  0  0  0  0  0  0  0
   -0.5030   16.9950   -4.8540 C   0  0  1  0  0  0  0  0  0  0  0  0
   -1.5160   15.8290   -4.7580 C   0  0  1  0  0  0  0  0  0  0  0  0
    0.9480   16.5370   -4.8570 C   0  0  0  0  0  0  0  0  0  0  0  0
   -3.0540   16.1480   -5.6050 Cl  0  0  0  0  0  0  0  0  0  0  0  0
   -1.0780   14.4160   -5.1270 C   0  0  0  0  0  0  0  0  0  0  0  0
    1.1840   15.1560   -4.2130 C   0  0  0  0  0  0  0  0  0  0  0  0
    0.3710   14.0330   -4.8960 C   0  0  1  0  0  0  0  0  0  0  0  0
    0.2950   12.6220   -4.2420 C   0  0  2  0  0  0  0  0  0  0  0  0
    0.7740   12.3480   -2.7710 C   0  0  1  0  0  0  0  0  0  0  0  0
    0.7020   11.6180   -5.2390 O   0  0  0  0  0  0  0  0  0  0  0  0
    0.6460   11.0800   -2.4330 O   0  0  0  0  0  0  0  0  0  0  0  0
    2.1630   12.5420   -2.6390 O   0  0  0  0  0  0  0  0  0  0  0  0
   -0.4190   10.7690   -5.5630 C   0  0  0  0  0  0  0  0  0  0  0  0
   -0.2570    9.9670   -6.8630 C   0  0  0  0  0  0  0  0  0  0  0  0
   -1.6920   11.5650   -5.7890 C   0  0  0  0  0  0  0  0  0  0  0  0
   -1.2730    8.8260   -6.9090 C   0  0  0  0  0  0  0  0  0  0  0  0
   -2.8530   10.6420   -6.1460 C   0  0  0  0  0  0  0  0  0  0  0  0
   -2.5090    9.1510   -6.0720 C   0  0  0  0  0  0  0  0  0  0  0  0
  2  1  1  6
  2  3  1  0
  2  4  1  0
  3  5  1  6
  3  6  1  0
  4  7  1  0
  8  6  1  1
  7  8  1  0
  8  9  1  0
  9 10  1  0
  9 11  1  6
 10 12  1  6
 10 13  1  0
 11 14  1  0
 14 15  1  0
 14 16  1  0
 15 17  1  0
 16 18  1  0
 17 19  1  0
 18 19  1  0
M  CHG  1  12  -1
M  END
