ucsf006-ucsf338
     RDKit          3D

 21 22  0  0  0  0  0  0  0  0999 V2000
   -2.1470   14.8930   -3.5240 C   0  0  0  0  0  0  0  0  0  0  0  0
   -1.1000   15.2180   -2.5710 N   0  0  0  0  0  0  0  0  0  0  0  0
    0.2780   15.2280   -3.1590 C   0  0  0  0  0  0  0  0  0  0  0  0
   -1.1640   14.6660   -1.2130 C   0  0  2  0  0  0  0  0  0  0  0  0
    0.5120   14.4380   -4.4700 C   0  0  0  0  0  0  0  0  0  0  0  0
   -2.5930   14.5760   -0.5760 C   0  0  1  0  0  0  0  0  0  0  0  0
   -0.2740   15.2530   -0.2130 N   0  0  0  0  0  0  0  0  0  0  0  0
    0.4210   12.9090   -4.3250 C   0  0  1  0  0  0  0  0  0  0  0  0
   -2.6530   15.2650    0.7660 C   0  0  2  0  0  0  0  0  0  0  0  0
   -0.3750   14.5180    1.0380 C   0  0  0  0  0  0  0  0  0  0  0  0
   -3.8230   15.2000   -1.1980 C   0  0  1  0  0  0  0  0  0  0  0  0
    0.0710   12.3180   -5.5690 O   0  0  0  0  0  0  0  0  0  0  0  0
    1.5800   12.3620   -4.0200 O   0  0  0  0  0  0  0  0  0  0  0  0
   -4.1750   14.6490   -2.4720 O   0  0  0  0  0  0  0  0  0  0  0  0
   -1.6780   14.7310    1.6610 N   0  0  0  0  0  0  0  0  0  0  0  0
   -4.0750   15.2290    1.1870 N   0  0  0  0  0  0  0  0  0  0  0  0
   -4.7760   14.7330   -0.0880 C   0  0  1  0  0  0  0  0  0  0  0  0
   -6.2950   15.0320   -0.3580 C   0  0  2  0  0  0  0  0  0  0  0  0
   -7.2650   14.5070    0.6260 N   0  0  0  0  0  0  0  0  0  0  0  0
   -6.6760   14.4350   -1.5950 O   0  0  0  0  0  0  0  0  0  0  0  0
   -8.5780   14.4300   -0.0280 O   0  0  0  0  0  0  0  0  0  0  0  0
  1  2  1  0
  2  3  1  0
  4  2  1  6
  3  5  1  0
  6  4  1  6
  4  7  1  0
  5  8  1  0
  6  9  1  0
  7 10  1  0
  6 11  1  0
  8 12  1  6
  8 13  1  0
 11 14  1  6
  9 15  1  1
 10 15  1  0
  9 16  1  0
 11 17  1  0
 17 16  1  1
 17 18  1  0
 18 19  1  0
 18 20  1  6
 19 21  1  0
M  CHG  1  13  -1
M  END
