ucsf411
     RDKit          3D

 15 16  0  0  0  0  0  0  0  0999 V2000
    0.6750   10.9310   -2.9820 O   0  0  0  0  0  0  0  0  0  0  0  0
    0.9030   12.1380   -2.8540 C   0  0  1  0  0  0  0  0  0  0  0  0
    0.9470   12.7190   -1.8870 O   0  0  0  0  0  0  0  0  0  0  0  0
    1.5230   12.8250   -3.9430 C   0  0  0  0  0  0  0  0  0  0  0  0
    1.2940   14.0260   -4.8400 O   0  0  0  0  0  0  0  0  0  0  0  0
    0.0230   14.5130   -4.9240 C   0  0  0  0  0  0  0  0  0  0  0  0
   -1.0550   13.6540   -4.9740 C   0  0  0  0  0  0  0  0  0  0  0  0
   -2.3350   14.1840   -5.2530 C   0  0  0  0  0  0  0  0  0  0  0  0
   -2.4400   15.5270   -5.3230 C   0  0  0  0  0  0  0  0  0  0  0  0
   -1.3610   16.3590   -5.2690 C   0  0  0  0  0  0  0  0  0  0  0  0
   -1.4600   17.6790   -5.4350 C   0  0  0  0  0  0  0  0  0  0  0  0
   -0.4230   18.5550   -5.3220 C   0  0  0  0  0  0  0  0  0  0  0  0
    0.8470   18.0690   -5.0680 C   0  0  0  0  0  0  0  0  0  0  0  0
    0.9600   16.7130   -4.9400 C   0  0  0  0  0  0  0  0  0  0  0  0
   -0.1440   15.9040   -4.9930 C   0  0  2  0  0  0  0  0  0  0  0  0
  2  1  1  1
  2  3  1  0
  2  4  1  0
  4  5  1  0
  5  6  1  0
  6  7  1  0
  7  8  1  0
  8  9  1  0
  9 10  1  0
 10 11  1  0
 11 12  1  0
 12 13  1  0
 13 14  1  0
  6 15  1  0
 10 15  1  0
 15 14  1  6
M  CHG  1   1  -1
M  END
