ucsf520-ucsf138
     RDKit          3D

 31 34  0  0  0  0  0  0  0  0999 V2000
   -4.4120   14.7210    0.9070 N   0  0  0  0  0  0  0  0  0  0  0  0
   -3.5850   15.4480   -0.0240 C   0  0  1  0  0  0  0  0  0  0  0  0
   -2.0580   15.3670    0.1670 C   0  0  2  0  0  0  0  0  0  0  0  0
   -3.9460   14.9470   -1.3260 N   0  0  0  0  0  0  0  0  0  0  0  0
   -2.9330   15.2030   -2.3570 C   0  0  0  0  0  0  0  0  0  0  0  0
   -1.4980   14.2560   -0.6600 C   0  0  1  0  0  0  0  0  0  0  0  0
   -1.4980   15.0440    1.4790 N   0  0  0  0  0  0  0  0  0  0  0  0
   -1.7550   14.3860   -2.0710 N   0  0  0  0  0  0  0  0  0  0  0  0
   -0.1070   14.3730   -0.3050 N   0  0  0  0  0  0  0  0  0  0  0  0
   -0.1570   14.5700    1.1290 C   0  0  0  0  0  0  0  0  0  0  0  0
   -0.5680   14.4270   -2.9850 C   0  0  2  0  0  0  0  0  0  0  0  0
    0.8170   13.9710   -2.4080 C   0  0  0  0  0  0  0  0  0  0  0  0
   -0.3080   15.7980   -3.6820 C   0  0  2  0  0  0  0  0  0  0  0  0
    0.8390   12.5690   -2.1190 O   0  0  0  0  0  0  0  0  0  0  0  0
   -1.4450   16.5040   -4.2160 O   0  0  0  0  0  0  0  0  0  0  0  0
    0.6880   15.7640   -4.8330 C   0  0  0  0  0  0  0  0  0  0  0  0
    0.2210   11.8070   -3.1300 C   0  0  2  0  0  0  0  0  0  0  0  0
    0.5710   17.1880   -5.3200 C   0  0  0  0  0  0  0  0  0  0  0  0
   -0.8940   17.5230   -5.0750 C   0  0  0  0  0  0  0  0  0  0  0  0
    0.4280   10.4280   -2.7850 O   0  0  0  0  0  0  0  0  0  0  0  0
    0.7660   12.1590   -4.5520 C   0  0  0  0  0  0  0  0  0  0  0  0
    0.2340   11.2480   -5.5890 N   0  0  0  0  0  0  0  0  0  0  0  0
    0.6380   11.5110   -6.9410 C   0  0  1  0  0  0  0  0  0  0  0  0
    2.0060   11.7400   -7.0440 O   0  0  0  0  0  0  0  0  0  0  0  0
    0.2740   10.3560   -7.7120 N   0  0  0  0  0  0  0  0  0  0  0  0
    1.1690   10.0960   -8.8460 C   0  0  0  0  0  0  0  0  0  0  0  0
    0.5860   10.4920  -10.2170 C   0  0  0  0  0  0  0  0  0  0  0  0
    1.4900    8.5990   -8.8470 C   0  0  0  0  0  0  0  0  0  0  0  0
    0.1850    9.3080  -11.1080 C   0  0  0  0  0  0  0  0  0  0  0  0
    2.2000    8.1210  -10.1120 C   0  0  0  0  0  0  0  0  0  0  0  0
    1.3110    8.2950  -11.3320 C   0  0  0  0  0  0  0  0  0  0  0  0
  2  1  1  1
  2  3  1  0
  2  4  1  0
  4  5  1  0
  3  6  1  0
  3  7  1  1
  5  8  1  0
  6  8  1  0
  6  9  1  6
  7 10  1  0
  9 10  1  0
  8 11  1  0
 11 12  1  1
 11 13  1  0
 12 14  1  0
 13 15  1  0
 13 16  1  6
 14 17  1  0
 16 18  1  0
 15 19  1  0
 18 19  1  0
 17 20  1  1
 17 21  1  0
 21 22  1  0
 22 23  1  0
 23 24  1  1
 23 25  1  0
 25 26  1  0
 26 27  1  0
 26 28  1  0
 27 29  1  0
 28 30  1  0
 29 31  1  0
 30 31  1  0
M  END
