ucsf135-ucsf028
     RDKit          3D

 28 32  0  0  0  0  0  0  0  0999 V2000
    1.6270   11.4630   -7.3790 O   0  0  0  0  0  0  0  0  0  0  0  0
    0.4100   11.7120   -6.7780 C   0  0  2  0  0  0  0  0  0  0  0  0
    0.5630   11.7600   -5.3690 N   0  0  0  0  0  0  0  0  0  0  0  0
   -0.7240   10.6800   -7.1320 C   0  0  2  0  0  0  0  0  0  0  0  0
   -0.9200   11.5010   -4.7070 S   0  0  2  0  0  0  0  0  0  0  0  0
   -1.5760   10.3400   -5.8570 C   0  0  2  0  0  0  0  0  0  0  0  0
   -0.2270    9.3840   -7.7980 C   0  0  0  0  0  0  0  0  0  0  0  0
   -1.6020   11.4300   -8.1170 C   0  0  0  0  0  0  0  0  0  0  0  0
   -1.8450   12.7680   -4.9780 O   0  0  0  0  0  0  0  0  0  0  0  0
   -1.5960    8.8750   -5.4670 C   0  0  0  0  0  0  0  0  0  0  0  0
   -1.3470    8.3460   -7.9370 C   0  0  0  0  0  0  0  0  0  0  0  0
   -0.6810   11.3810   -3.1100 N   0  0  0  0  0  0  0  0  0  0  0  0
   -2.0750    8.0200   -6.6310 C   0  0  0  0  0  0  0  0  0  0  0  0
   -1.3800   12.5130   -2.4920 O   0  0  0  0  0  0  0  0  0  0  0  0
    0.6480   11.8270   -2.8610 C   0  0  0  0  0  0  0  0  0  0  0  0
    0.5940   13.2040   -3.4380 C   0  0  0  0  0  0  0  0  0  0  0  0
   -0.5070   13.6600   -2.5700 C   0  0  1  0  0  0  0  0  0  0  0  0
   -1.2300   14.9250   -3.0450 C   0  0  0  0  0  0  0  0  0  0  0  0
   -1.9800   15.5110   -1.9350 N   0  0  0  0  0  0  0  0  0  0  0  0
   -3.4180   15.2460   -2.0720 C   0  0  0  0  0  0  0  0  0  0  0  0
   -1.5340   14.9310   -0.6840 C   0  0  2  0  0  0  0  0  0  0  0  0
   -4.2280   15.5270   -0.8940 N   0  0  0  0  0  0  0  0  0  0  0  0
   -2.2730   15.3400    0.5600 C   0  0  1  0  0  0  0  0  0  0  0  0
   -0.1860   15.2330   -0.2880 N   0  0  0  0  0  0  0  0  0  0  0  0
   -3.7240   14.9400    0.3270 C   0  0  1  0  0  0  0  0  0  0  0  0
   -1.4770   14.6540    1.5930 N   0  0  0  0  0  0  0  0  0  0  0  0
   -0.1340   14.5770    1.0040 C   0  0  0  0  0  0  0  0  0  0  0  0
   -4.5920   15.4520    1.3620 N   0  0  0  0  0  0  0  0  0  0  0  0
  2  1  1  6
  2  3  1  0
  2  4  1  0
  3  5  1  0
  4  6  1  0
  5  6  1  0
  4  7  1  0
  4  8  1  6
  5  9  1  1
  6 10  1  1
  7 11  1  0
  5 12  1  0
 10 13  1  0
 11 13  1  0
 12 14  1  0
 12 15  1  0
 15 16  1  0
 14 17  1  0
 16 17  1  0
 17 18  1  6
 18 19  1  0
 19 20  1  0
 19 21  1  0
 20 22  1  0
 21 23  1  0
 21 24  1  1
 22 25  1  0
 23 25  1  0
 23 26  1  1
 24 27  1  0
 26 27  1  0
 25 28  1  1
M  END
