ucsf380-ucsf422
     RDKit          3D

 29 32  0  0  0  0  0  0  0  0999 V2000
    0.0940   14.9100   -0.8190 O   0  0  0  0  0  0  0  0  0  0  0  0
   -0.0890   14.0770   -1.8330 C   0  0  1  0  0  0  0  0  0  0  0  0
    0.2710   12.7130   -1.5050 O   0  0  0  0  0  0  0  0  0  0  0  0
   -1.6170   14.1890   -2.2970 C   0  0  0  0  0  0  0  0  0  0  0  0
    0.9680   11.9850   -2.5500 C   0  0  1  0  0  0  0  0  0  0  0  0
   -2.7590   14.4240   -1.2590 C   0  0  0  0  0  0  0  0  0  0  0  0
   -2.0630   13.0880   -3.3490 C   0  0  0  0  0  0  0  0  0  0  0  0
    0.5200   10.7090   -2.4610 O   0  0  0  0  0  0  0  0  0  0  0  0
    0.6090   12.4940   -4.0100 C   0  0  0  0  0  0  0  0  0  0  0  0
   -2.3650   14.7580    0.1960 C   0  0  0  0  0  0  0  0  0  0  0  0
   -3.8420   15.3390   -1.8870 C   0  0  0  0  0  0  0  0  0  0  0  0
   -2.6220   11.7870   -2.7600 C   0  0  0  0  0  0  0  0  0  0  0  0
   -0.9640   12.6560   -4.3350 C   0  0  0  0  0  0  0  0  0  0  0  0
   -3.4790   15.5200    0.9180 C   0  0  0  0  0  0  0  0  0  0  0  0
   -5.0610   15.6300   -1.0150 C   0  0  0  0  0  0  0  0  0  0  0  0
   -3.1880   10.9060   -3.8840 C   0  0  0  0  0  0  0  0  0  0  0  0
   -1.4770   11.8270   -5.5090 C   0  0  0  0  0  0  0  0  0  0  0  0
    1.1070   13.8680   -4.5810 C   0  0  2  0  0  0  0  0  0  0  0  0
   -4.8490   15.1440    0.3940 C   0  0  0  0  0  0  0  0  0  0  0  0
   -2.2030   10.5930   -5.0160 C   0  0  0  0  0  0  0  0  0  0  0  0
    1.9370   14.7860   -3.7040 C   0  0  0  0  0  0  0  0  0  0  0  0
    0.0650   14.8420   -5.1880 C   0  0  2  0  0  0  0  0  0  0  0  0
    1.7300   16.1370   -4.2850 N   0  0  0  0  0  0  0  0  0  0  0  0
    0.2940   16.1440   -4.4590 C   0  0  1  0  0  0  0  0  0  0  0  0
   -1.4290   14.5450   -5.1930 C   0  0  0  0  0  0  0  0  0  0  0  0
   -0.2690   17.3540   -5.2070 C   0  0  0  0  0  0  0  0  0  0  0  0
   -2.3140   15.7920   -5.0540 C   0  0  2  0  0  0  0  0  0  0  0  0
   -3.9630   15.3820   -6.0280 Br  0  0  0  0  0  0  0  0  0  0  0  0
   -1.7570   17.1590   -5.5260 C   0  0  0  0  0  0  0  0  0  0  0  0
  2  1  1  1
  2  3  1  0
  2  4  1  0
  3  5  1  0
  4  6  1  0
  4  7  1  0
  5  8  1  6
  5  9  1  0
  6 10  1  0
  6 11  1  0
  7 12  1  0
  7 13  1  0
 10 14  1  0
 11 15  1  0
 12 16  1  0
 13 17  1  0
 18  9  1  1
 14 19  1  0
 15 19  1  0
 16 20  1  0
 17 20  1  0
 18 21  1  0
 18 22  1  0
 21 23  1  0
 22 24  1  0
 23 24  1  0
 22 25  1  1
 24 26  1  6
 25 27  1  0
 27 28  1  6
 26 29  1  0
 27 29  1  0
M  CHG  2   1  -1   8  -1
M  END
