ucsf320-ucsf115
     RDKit          3D

 20 22  0  0  0  0  0  0  0  0999 V2000
   -0.8890   14.7260   -1.8940 O   0  0  0  0  0  0  0  0  0  0  0  0
   -1.8890   14.8380   -2.7330 C   0  0  1  0  0  0  0  0  0  0  0  0
   -1.7030   13.9850   -3.8630 O   0  0  0  0  0  0  0  0  0  0  0  0
   -3.2440   14.4340   -2.0320 C   0  0  1  0  0  0  0  0  0  0  0  0
   -3.3240   14.8370   -0.4870 C   0  0  0  0  0  0  0  0  0  0  0  0
   -4.4450   15.0100   -2.8370 C   0  0  0  0  0  0  0  0  0  0  0  0
   -0.6030   13.0660   -3.8100 C   0  0  2  0  0  0  0  0  0  0  0  0
   -4.7020   15.4470   -0.0790 C   0  0  0  0  0  0  0  0  0  0  0  0
   -5.8420   14.9360   -2.2280 C   0  0  0  0  0  0  0  0  0  0  0  0
   -1.0790   11.7550   -4.2140 O   0  0  0  0  0  0  0  0  0  0  0  0
   -0.0820   12.8350   -2.3970 C   0  0  0  0  0  0  0  0  0  0  0  0
   -2.9450   13.7550    0.5450 C   0  0  0  0  0  0  0  0  0  0  0  0
   -2.2070   15.8840   -0.3060 C   0  0  0  0  0  0  0  0  0  0  0  0
   -5.8610   14.7150   -0.7290 C   0  0  2  0  0  0  0  0  0  0  0  0
    0.6050   11.5190   -2.5770 C   0  0  0  0  0  0  0  0  0  0  0  0
   -0.3960   10.7770   -3.4250 C   0  0  0  0  0  0  0  0  0  0  0  0
   -0.8560   15.3070   -0.3050 N   0  0  0  0  0  0  0  0  0  0  0  0
   -1.9600   14.2720    1.5190 N   0  0  0  0  0  0  0  0  0  0  0  0
   -7.1110   15.1950   -0.2280 O   0  0  0  0  0  0  0  0  0  0  0  0
   -0.6870   14.4670    0.8590 C   0  0  0  0  0  0  0  0  0  0  0  0
  2  1  1  1
  2  3  1  0
  2  4  1  0
  4  5  1  0
  4  6  1  6
  7  3  1  1
  5  8  1  0
  6  9  1  0
  7 10  1  0
  7 11  1  0
  5 12  1  0
  5 13  1  0
  8 14  1  0
  9 14  1  0
 11 15  1  0
 10 16  1  0
 15 16  1  0
 13 17  1  0
 12 18  1  0
 14 19  1  1
 17 20  1  0
 18 20  1  0
M  CHG  1   1  -1
M  END
