ucsf320-ucsf274
     RDKit          3D

 27 29  0  0  0  0  0  0  0  0999 V2000
   -1.2350   13.5050   -1.7540 O   0  0  0  0  0  0  0  0  0  0  0  0
   -1.9160   14.5220   -2.2280 C   0  0  1  0  0  0  0  0  0  0  0  0
   -1.9770   14.4920   -3.6720 O   0  0  0  0  0  0  0  0  0  0  0  0
   -3.3800   14.4650   -1.6950 C   0  0  1  0  0  0  0  0  0  0  0  0
   -2.6970   13.3850   -4.2190 C   0  0  0  0  0  0  0  0  0  0  0  0
   -3.5720   14.9840   -0.2530 C   0  0  0  0  0  0  0  0  0  0  0  0
   -4.4270   15.1070   -2.6240 C   0  0  0  0  0  0  0  0  0  0  0  0
   -2.2010   12.1440   -3.7080 O   0  0  0  0  0  0  0  0  0  0  0  0
   -4.9270   14.5910    0.3170 C   0  0  0  0  0  0  0  0  0  0  0  0
   -5.6970   15.5150   -1.8760 C   0  0  0  0  0  0  0  0  0  0  0  0
   -6.0330   14.5740   -0.7390 C   0  0  2  0  0  0  0  0  0  0  0  0
   -1.5530   11.3420   -4.6910 C   0  0  2  0  0  0  0  0  0  0  0  0
   -7.2760   14.9580   -0.1540 O   0  0  0  0  0  0  0  0  0  0  0  0
   -0.6420   12.1590   -5.6860 C   0  0  1  0  0  0  0  0  0  0  0  0
   -2.5630   10.6200   -5.4640 N   0  0  0  0  0  0  0  0  0  0  0  0
    0.6540   12.6480   -4.9900 C   0  0  0  0  0  0  0  0  0  0  0  0
   -1.8850    9.4860   -6.0720 C   0  0  2  0  0  0  0  0  0  0  0  0
   -0.2920   11.3730   -6.9110 N   0  0  0  0  0  0  0  0  0  0  0  0
    0.4260   12.9790   -3.5000 C   0  0  0  0  0  0  0  0  0  0  0  0
   -0.5920    9.9240   -6.8100 C   0  0  2  0  0  0  0  0  0  0  0  0
   -2.8190    8.7040   -7.0010 C   0  0  0  0  0  0  0  0  0  0  0  0
    1.0000   12.0300   -2.4080 C   0  0  2  0  0  0  0  0  0  0  0  0
   -0.4270    9.2820   -8.1960 C   0  0  0  0  0  0  0  0  0  0  0  0
   -2.1680    7.5070   -7.6930 C   0  0  0  0  0  0  0  0  0  0  0  0
    0.4740   10.7980   -2.3940 O   0  0  0  0  0  0  0  0  0  0  0  0
    0.5990   12.5340   -1.1570 O   0  0  0  0  0  0  0  0  0  0  0  0
   -0.7760    7.7980   -8.2230 C   0  0  0  0  0  0  0  0  0  0  0  0
  2  1  1  1
  2  3  1  0
  2  4  1  0
  3  5  1  0
  4  6  1  1
  4  7  1  0
  5  8  1  0
  6  9  1  0
  7 10  1  0
  9 11  1  0
 10 11  1  0
 12  8  1  1
 11 13  1  1
 12 14  1  0
 12 15  1  0
 14 16  1  1
 15 17  1  0
 14 18  1  0
 16 19  1  0
 17 20  1  0
 18 20  1  0
 17 21  1  6
 19 22  1  0
 20 23  1  6
 21 24  1  0
 22 25  1  6
 22 26  1  0
 23 27  1  0
 24 27  1  0
M  CHG  2   1  -1  25  -1
M  END
