ucsf243-ucsf135
     RDKit          3D

 24 26  0  0  0  0  0  0  0  0999 V2000
   -3.7610   14.7390    0.8690 C   0  0  0  0  0  0  0  0  0  0  0  0
   -3.4170   15.5740   -0.3530 C   0  0  2  0  0  0  0  0  0  0  0  0
   -4.3680   15.3140   -1.5310 C   0  0  0  0  0  0  0  0  0  0  0  0
   -1.9450   15.4340   -0.7700 C   0  0  0  0  0  0  0  0  0  0  0  0
   -1.6300   14.2430   -1.7110 C   0  0  2  0  0  0  0  0  0  0  0  0
   -3.6450   15.3420   -2.8750 C   0  0  0  0  0  0  0  0  0  0  0  0
   -0.1000   14.1290   -1.9980 C   0  0  1  0  0  0  0  0  0  0  0  0
   -2.5520   14.2820   -2.9860 C   0  0  1  0  0  0  0  0  0  0  0  0
   -1.9130   14.4950   -4.2520 O   0  0  0  0  0  0  0  0  0  0  0  0
    0.1900   14.6940   -3.2600 O   0  0  0  0  0  0  0  0  0  0  0  0
    0.6030   14.9380   -1.2260 O   0  0  0  0  0  0  0  0  0  0  0  0
   -1.8860   13.3510   -5.1100 C   0  0  0  0  0  0  0  0  0  0  0  0
   -1.8280   12.1310   -4.3670 O   0  0  0  0  0  0  0  0  0  0  0  0
   -0.5230   11.1980   -4.4250 S   0  0  2  0  0  0  0  0  0  0  0  0
   -0.1620   10.4910   -3.0410 O   0  0  0  0  0  0  0  0  0  0  0  0
    0.7910   11.8820   -5.1720 N   0  0  0  0  0  0  0  0  0  0  0  0
   -0.8400    9.8320   -5.5080 C   0  0  2  0  0  0  0  0  0  0  0  0
    0.8990   11.4220   -6.5530 C   0  0  1  0  0  0  0  0  0  0  0  0
    0.0030   10.1620   -6.7750 C   0  0  2  0  0  0  0  0  0  0  0  0
   -2.2690    9.5000   -5.8620 C   0  0  0  0  0  0  0  0  0  0  0  0
    0.4620   12.4370   -7.3700 O   0  0  0  0  0  0  0  0  0  0  0  0
   -2.3440    8.4200   -6.9540 C   0  0  0  0  0  0  0  0  0  0  0  0
   -0.8430   10.1570   -8.0430 C   0  0  0  0  0  0  0  0  0  0  0  0
   -1.5760    8.8160   -8.2140 C   0  0  0  0  0  0  0  0  0  0  0  0
  2  1  1  1
  2  3  1  0
  2  4  1  0
  5  4  1  6
  3  6  1  0
  5  7  1  0
  5  8  1  0
  6  8  1  0
  8  9  1  6
  7 10  1  6
  7 11  1  0
  9 12  1  0
 12 13  1  0
 14 13  1  0
 14 15  1  1
 14 16  1  0
 14 17  1  0
 16 18  1  0
 17 19  1  0
 18 19  1  0
 17 20  1  6
 18 21  1  6
 20 22  1  0
 19 23  1  6
 22 24  1  0
 23 24  1  0
M  CHG  1  11  -1
M  END
