ucsf173-ucsf403
     RDKit          3D

 23 25  0  0  0  0  0  0  0  0999 V2000
    0.6860   12.6320   -1.2890 O   0  0  0  0  0  0  0  0  0  0  0  0
   -0.2220   12.7770   -2.2500 C   0  0  2  0  0  0  0  0  0  0  0  0
   -0.1220   11.6660   -3.2200 N   0  0  0  0  0  0  0  0  0  0  0  0
   -0.1550   14.2580   -2.8390 C   0  0  2  0  0  0  0  0  0  0  0  0
    0.6830   10.5990   -2.5830 O   0  0  0  0  0  0  0  0  0  0  0  0
    0.5400   12.0300   -4.4960 C   0  0  0  0  0  0  0  0  0  0  0  0
   -1.5050   14.6670   -3.4650 C   0  0  0  0  0  0  0  0  0  0  0  0
    0.9160   14.7700   -3.8440 C   0  0  0  0  0  0  0  0  0  0  0  0
    0.4800   10.9780   -5.4720 O   0  0  0  0  0  0  0  0  0  0  0  0
   -1.2650   15.3350   -4.8150 C   0  0  2  0  0  0  0  0  0  0  0  0
    0.2130   15.7140   -4.8410 C   0  0  1  0  0  0  0  0  0  0  0  0
   -2.2960   16.4540   -5.0620 C   0  0  0  0  0  0  0  0  0  0  0  0
    0.4500   17.1970   -4.6160 C   0  0  0  0  0  0  0  0  0  0  0  0
   -0.5150   10.9620   -6.4920 C   0  0  2  0  0  0  0  0  0  0  0  0
   -1.7810   17.6930   -5.7930 C   0  0  0  0  0  0  0  0  0  0  0  0
   -0.2900   18.0180   -5.6560 C   0  0  0  0  0  0  0  0  0  0  0  0
   -1.9000   11.5020   -6.0740 C   0  0  2  0  0  0  0  0  0  0  0  0
   -0.6410    9.6190   -7.2530 C   0  0  1  0  0  0  0  0  0  0  0  0
    0.8690    8.9650   -7.9870 Cl  0  0  0  0  0  0  0  0  0  0  0  0
   -1.9990   12.3910   -4.5290 Cl  0  0  0  0  0  0  0  0  0  0  0  0
   -2.9640   10.3880   -6.0610 C   0  0  0  0  0  0  0  0  0  0  0  0
   -1.2750    8.5110   -6.4000 C   0  0  0  0  0  0  0  0  0  0  0  0
   -2.4840    9.0030   -5.6240 C   0  0  0  0  0  0  0  0  0  0  0  0
  2  1  1  1
  2  3  1  0
  2  4  1  0
  3  5  1  0
  3  6  1  0
  4  7  1  6
  4  8  1  0
  6  9  1  0
 10  7  1  1
 11  8  1  1
 10 11  1  0
 10 12  1  0
 11 13  1  0
 14  9  1  1
 12 15  1  0
 13 16  1  0
 15 16  1  0
 14 17  1  0
 14 18  1  0
 18 19  1  1
 17 20  1  1
 17 21  1  0
 18 22  1  0
 21 23  1  0
 22 23  1  0
M  CHG  1   1  -1
M  END
