ucsf392-ucsf278
     RDKit          3D

 20 22  0  0  0  0  0  0  0  0999 V2000
   -5.2000   15.1920   -1.1060 C   0  0  0  0  0  0  0  0  0  0  0  0
   -3.7130   15.3840   -0.8370 C   0  0  2  0  0  0  0  0  0  0  0  0
   -2.8250   14.3330   -1.5360 C   0  0  0  0  0  0  0  0  0  0  0  0
   -3.3910   15.5390    0.6500 C   0  0  1  0  0  0  0  0  0  0  0  0
   -4.4780   15.2440    1.5540 N   0  0  0  0  0  0  0  0  0  0  0  0
   -2.3250   14.6680    1.0290 N   0  0  0  0  0  0  0  0  0  0  0  0
   -1.3780   14.2770   -1.1630 N   0  0  0  0  0  0  0  0  0  0  0  0
   -1.1020   14.7690    0.2250 C   0  0  2  0  0  0  0  0  0  0  0  0
   -0.4630   14.5530   -2.3530 C   0  0  2  0  0  0  0  0  0  0  0  0
   -0.1090   14.0020    1.0580 C   0  0  0  0  0  0  0  0  0  0  0  0
   -0.6420   13.7860   -3.7240 C   0  0  2  0  0  0  0  0  0  0  0  0
    1.0400   14.6660   -2.0730 C   0  0  0  0  0  0  0  0  0  0  0  0
   -1.3720   12.4560   -3.7920 C   0  0  0  0  0  0  0  0  0  0  0  0
    0.6790   13.2660   -4.2980 C   0  0  1  0  0  0  0  0  0  0  0  0
    1.7540   15.2480   -3.3060 C   0  0  0  0  0  0  0  0  0  0  0  0
   -1.0620   12.0680   -5.2610 C   0  0  1  0  0  0  0  0  0  0  0  0
    0.3190   12.5210   -5.5050 N   0  0  0  0  0  0  0  0  0  0  0  0
    1.6870   14.3510   -4.5100 C   0  0  0  0  0  0  0  0  0  0  0  0
   -1.2370   10.5870   -5.5920 C   0  0  0  0  0  0  0  0  0  0  0  0
   -2.5890   10.1900   -5.4060 O   0  0  0  0  0  0  0  0  0  0  0  0
  2  1  1  1
  2  3  1  0
  2  4  1  0
  4  5  1  1
  4  6  1  0
  3  7  1  0
  6  8  1  0
  7  8  1  0
  9  7  1  1
  8 10  1  1
  9 11  1  0
  9 12  1  0
 11 13  1  1
 11 14  1  0
 12 15  1  0
 13 16  1  0
 14 17  1  0
 16 17  1  0
 14 18  1  6
 15 18  1  0
 16 19  1  1
 19 20  1  0
M  END
