ucsf387-ucsf115
     RDKit          3D

 27 30  0  0  0  0  0  0  0  0999 V2000
    0.9910   18.2620   -4.3460 Cl  0  0  0  0  0  0  0  0  0  0  0  0
    0.1830   16.9870   -5.2410 C   0  0  2  0  0  0  0  0  0  0  0  0
   -1.2540   16.8930   -4.7030 C   0  0  0  0  0  0  0  0  0  0  0  0
    1.0350   15.7430   -5.0780 C   0  0  0  0  0  0  0  0  0  0  0  0
    0.2540   14.6700   -4.3970 C   0  0  2  0  0  0  0  0  0  0  0  0
   -1.9640   15.6490   -5.2130 C   0  0  2  0  0  0  0  0  0  0  0  0
   -3.5080   15.3720   -4.3990 Cl  0  0  0  0  0  0  0  0  0  0  0  0
    1.0340   13.3890   -4.1190 C   0  0  0  0  0  0  0  0  0  0  0  0
   -1.0660   14.3990   -5.1440 C   0  0  0  0  0  0  0  0  0  0  0  0
    0.9270   13.1120   -2.6250 C   0  0  2  0  0  0  0  0  0  0  0  0
    2.1370   12.5060   -2.2290 O   0  0  0  0  0  0  0  0  0  0  0  0
   -0.2130   12.2140   -2.2010 C   0  0  2  0  0  0  0  0  0  0  0  0
   -0.0470   10.7550   -2.4650 C   0  0  0  0  0  0  0  0  0  0  0  0
   -1.5720   12.3250   -2.8780 C   0  0  1  0  0  0  0  0  0  0  0  0
   -2.2730   13.6900   -3.0220 C   0  0  0  0  0  0  0  0  0  0  0  0
   -0.2900   10.7440   -3.9520 C   0  0  0  0  0  0  0  0  0  0  0  0
   -1.3300   11.7010   -4.1620 O   0  0  0  0  0  0  0  0  0  0  0  0
   -1.4500   14.8360   -2.6230 N   0  0  0  0  0  0  0  0  0  0  0  0
   -1.4360   15.2060   -1.2140 C   0  0  2  0  0  0  0  0  0  0  0  0
   -0.6830   14.2170   -0.4560 N   0  0  0  0  0  0  0  0  0  0  0  0
   -2.7860   15.5030   -0.5220 C   0  0  2  0  0  0  0  0  0  0  0  0
   -0.5400   14.6160    0.9380 C   0  0  0  0  0  0  0  0  0  0  0  0
   -2.9050   14.5760    0.6420 C   0  0  1  0  0  0  0  0  0  0  0  0
   -4.0260   15.1570   -1.2320 N   0  0  0  0  0  0  0  0  0  0  0  0
   -1.8400   14.6710    1.5730 N   0  0  0  0  0  0  0  0  0  0  0  0
   -4.2150   14.9460    1.1350 N   0  0  0  0  0  0  0  0  0  0  0  0
   -4.9780   15.0560   -0.1200 C   0  0  0  0  0  0  0  0  0  0  0  0
  2  1  1  1
  2  3  1  0
  2  4  1  0
  4  5  1  0
  3  6  1  0
  6  7  1  1
  5  8  1  6
  5  9  1  0
  6  9  1  0
  8 10  1  0
 10 11  1  6
 10 12  1  0
 12 13  1  6
 12 14  1  0
 14 15  1  6
 13 16  1  0
 14 17  1  0
 16 17  1  0
 15 18  1  0
 19 18  1  6
 19 20  1  0
 19 21  1  0
 20 22  1  0
 21 23  1  0
 21 24  1  6
 22 25  1  0
 23 25  1  1
 23 26  1  0
 24 27  1  0
 26 27  1  0
M  END
