ucsf511-ucsf424
     RDKit          3D

 26 30  0  0  0  0  0  0  0  0999 V2000
    0.8300   13.1940   -2.1790 O   0  0  0  0  0  0  0  0  0  0  0  0
    1.0090   12.1620   -3.1470 C   0  0  1  0  0  0  0  0  0  0  0  0
    0.1560   11.0930   -2.7610 O   0  0  0  0  0  0  0  0  0  0  0  0
   -0.2100   13.9590   -2.6920 C   0  0  1  0  0  0  0  0  0  0  0  0
    0.5780   12.6710   -4.5560 C   0  0  0  0  0  0  0  0  0  0  0  0
   -1.5590   13.8530   -2.0220 C   0  0  2  0  0  0  0  0  0  0  0  0
    0.1190   15.2240   -3.2370 N   0  0  0  0  0  0  0  0  0  0  0  0
   -2.5210   14.1690   -3.1310 C   0  0  2  0  0  0  0  0  0  0  0  0
   -0.7420   15.4210   -4.3780 C   0  0  0  0  0  0  0  0  0  0  0  0
   -1.9710   14.6930   -0.9370 O   0  0  0  0  0  0  0  0  0  0  0  0
    0.5280   11.6810   -5.7530 C   0  0  2  0  0  0  0  0  0  0  0  0
   -2.1630   15.3100   -4.0190 N   0  0  0  0  0  0  0  0  0  0  0  0
   -3.3970   14.4240   -0.9150 C   0  0  2  0  0  0  0  0  0  0  0  0
   -3.8290   14.2190   -2.3810 C   0  0  1  0  0  0  0  0  0  0  0  0
    0.1910   12.1290   -7.1000 N   0  0  0  0  0  0  0  0  0  0  0  0
   -0.3590   10.4220   -5.7310 C   0  0  2  0  0  0  0  0  0  0  0  0
   -4.8400   15.1920   -2.8850 C   0  0  0  0  0  0  0  0  0  0  0  0
   -4.1650   15.4640   -0.1040 C   0  0  0  0  0  0  0  0  0  0  0  0
    0.3600   10.9020   -7.8970 O   0  0  0  0  0  0  0  0  0  0  0  0
   -0.0970    9.8130   -7.0950 C   0  0  2  0  0  0  0  0  0  0  0  0
   -1.8220   10.5360   -5.3140 C   0  0  0  0  0  0  0  0  0  0  0  0
   -6.0070   15.3730   -1.9690 C   0  0  0  0  0  0  0  0  0  0  0  0
   -5.5800   15.7950   -0.5860 C   0  0  0  0  0  0  0  0  0  0  0  0
   -1.2770    9.1550   -7.7730 C   0  0  0  0  0  0  0  0  0  0  0  0
   -2.7660    9.4140   -5.7540 C   0  0  0  0  0  0  0  0  0  0  0  0
   -2.1740    8.4510   -6.7790 C   0  0  0  0  0  0  0  0  0  0  0  0
  1  2  1  0
  2  3  1  1
  4  1  1  1
  2  5  1  0
  4  6  1  0
  4  7  1  0
  6  8  1  0
  7  9  1  0
  6 10  1  1
 11  5  1  1
  8 12  1  1
  9 12  1  0
 10 13  1  0
  8 14  1  0
 13 14  1  0
 11 15  1  0
 11 16  1  0
 14 17  1  6
 13 18  1  6
 15 19  1  0
 16 20  1  0
 19 20  1  0
 16 21  1  6
 17 22  1  0
 18 23  1  0
 22 23  1  0
 20 24  1  6
 21 25  1  0
 24 26  1  0
 25 26  1  0
M  END
