ucsf013-ucsf115
     RDKit          3D

 23 26  0  0  0  0  0  0  0  0999 V2000
   -4.1020   13.4130    1.8310 N   0  0  0  0  0  0  0  0  0  0  0  0
   -5.0930   14.2490    1.2640 C   0  0  2  0  0  0  0  0  0  0  0  0
   -6.3240   13.5210    1.2960 N   0  0  0  0  0  0  0  0  0  0  0  0
   -4.7180   14.8940   -0.0760 C   0  0  2  0  0  0  0  0  0  0  0  0
   -5.9000   14.9520   -1.1260 C   0  0  2  0  0  0  0  0  0  0  0  0
   -7.3920   14.2250    0.6500 C   0  0  0  0  0  0  0  0  0  0  0  0
   -3.2520   15.2300   -0.5930 C   0  0  1  0  0  0  0  0  0  0  0  0
   -7.1130   14.2160   -0.7600 N   0  0  0  0  0  0  0  0  0  0  0  0
   -5.5490   14.6040   -2.5800 C   0  0  0  0  0  0  0  0  0  0  0  0
   -3.6630   15.9670   -1.8470 C   0  0  0  0  0  0  0  0  0  0  0  0
   -2.4850   15.9450    0.5190 C   0  0  0  0  0  0  0  0  0  0  0  0
   -1.9610   14.5460   -1.1130 C   0  0  2  0  0  0  0  0  0  0  0  0
   -1.4950   14.7540   -2.5040 N   0  0  0  0  0  0  0  0  0  0  0  0
   -4.1520   15.0430   -2.9420 C   0  0  0  0  0  0  0  0  0  0  0  0
   -1.2030   13.5930   -0.3340 N   0  0  0  0  0  0  0  0  0  0  0  0
   -1.8480   14.9970    1.4660 N   0  0  0  0  0  0  0  0  0  0  0  0
   -1.8070   13.8320   -3.5790 C   0  0  0  0  0  0  0  0  0  0  0  0
   -0.7770   14.2030    0.9190 C   0  0  0  0  0  0  0  0  0  0  0  0
   -1.3980   12.4460   -3.1310 C   0  0  1  0  0  0  0  0  0  0  0  0
   -1.0400   11.6520   -4.2560 O   0  0  0  0  0  0  0  0  0  0  0  0
   -0.1690   12.4550   -2.2320 C   0  0  0  0  0  0  0  0  0  0  0  0
    0.5690   11.2210   -2.6390 C   0  0  0  0  0  0  0  0  0  0  0  0
   -0.3430   10.5790   -3.6580 C   0  0  0  0  0  0  0  0  0  0  0  0
  2  1  1  6
  2  3  1  0
  4  2  1  6
  4  5  1  0
  3  6  1  0
  4  7  1  0
  5  8  1  0
  6  8  1  0
  5  9  1  6
  7 10  1  6
  7 11  1  0
  7 12  1  0
 12 13  1  6
  9 14  1  0
 10 14  1  0
 12 15  1  0
 11 16  1  0
 13 17  1  0
 15 18  1  0
 16 18  1  0
 19 17  1  6
 19 20  1  0
 19 21  1  0
 21 22  1  0
 20 23  1  0
 22 23  1  0
M  END
