ucsf403-ucsf442
     RDKit          3D

 26 28  0  0  0  0  0  0  0  0999 V2000
    0.7510    9.2050   -7.9210 Cl  0  0  0  0  0  0  0  0  0  0  0  0
   -0.7380    9.8000   -7.0960 C   0  0  2  0  0  0  0  0  0  0  0  0
   -0.5640   11.1870   -6.4130 C   0  0  2  0  0  0  0  0  0  0  0  0
   -1.3180    8.7020   -6.2050 C   0  0  0  0  0  0  0  0  0  0  0  0
    0.7400   11.2880   -5.8340 O   0  0  0  0  0  0  0  0  0  0  0  0
   -1.6480   11.4180   -5.3240 C   0  0  1  0  0  0  0  0  0  0  0  0
   -2.7080    9.0400   -5.7070 C   0  0  0  0  0  0  0  0  0  0  0  0
   -2.0220   12.9260   -5.1910 C   0  0  0  0  0  0  0  0  0  0  0  0
    0.9850   12.4260   -4.9850 C   0  0  0  0  0  0  0  0  0  0  0  0
   -2.9210   10.5470   -5.5580 C   0  0  0  0  0  0  0  0  0  0  0  0
    0.7200   12.1590   -3.4650 C   0  0  2  0  0  0  0  0  0  0  0  0
   -2.4580   13.4080   -3.7920 C   0  0  0  0  0  0  0  0  0  0  0  0
    1.7920   12.3210   -2.7180 O   0  0  0  0  0  0  0  0  0  0  0  0
    0.4800   10.7790   -3.2540 O   0  0  0  0  0  0  0  0  0  0  0  0
   -3.2040   14.7450   -3.7230 C   0  0  0  0  0  0  0  0  0  0  0  0
   -3.1710   15.2840   -2.3880 O   0  0  0  0  0  0  0  0  0  0  0  0
   -2.5800   14.3810   -1.4350 C   0  0  2  0  0  0  0  0  0  0  0  0
   -3.5890   13.9820   -0.3270 C   0  0  1  0  0  0  0  0  0  0  0  0
   -1.2560   14.8470   -1.0250 N   0  0  0  0  0  0  0  0  0  0  0  0
   -0.9260   14.9700    0.3690 C   0  0  2  0  0  0  0  0  0  0  0  0
   -3.2210   14.4850    1.0490 C   0  0  1  0  0  0  0  0  0  0  0  0
   -4.9810   14.4220   -0.5880 N   0  0  0  0  0  0  0  0  0  0  0  0
   -0.3850   13.7500    0.7850 O   0  0  0  0  0  0  0  0  0  0  0  0
   -2.0500   15.2690    1.1950 N   0  0  0  0  0  0  0  0  0  0  0  0
   -4.3640   15.2100    1.5460 N   0  0  0  0  0  0  0  0  0  0  0  0
   -5.2960   15.3660    0.4480 C   0  0  0  0  0  0  0  0  0  0  0  0
  2  1  1  1
  2  3  1  0
  2  4  1  0
  3  5  1  1
  3  6  1  0
  4  7  1  0
  6  8  1  6
  5  9  1  0
  6 10  1  0
  7 10  1  0
  9 11  1  0
  8 12  1  0
 11 13  1  1
 11 14  1  0
 12 15  1  0
 15 16  1  0
 17 16  1  1
 17 18  1  0
 17 19  1  0
 19 20  1  0
 18 21  1  0
 18 22  1  6
 20 23  1  1
 20 24  1  0
 21 24  1  6
 21 25  1  0
 22 26  1  0
 25 26  1  0
M  CHG  1  13  -1
M  END
