ucsf338-ucsf190
     RDKit          3D

 27 29  0  0  0  0  0  0  0  0999 V2000
   -8.9070   13.9870   -0.3150 O   0  0  0  0  0  0  0  0  0  0  0  0
   -7.6680   14.4400    0.2700 N   0  0  0  0  0  0  0  0  0  0  0  0
   -6.5760   14.4150   -0.7080 C   0  0  1  0  0  0  0  0  0  0  0  0
   -7.0860   14.9720   -1.9080 O   0  0  0  0  0  0  0  0  0  0  0  0
   -5.2580   15.1480   -0.3410 C   0  0  2  0  0  0  0  0  0  0  0  0
   -4.0040   15.0390   -1.2900 C   0  0  2  0  0  0  0  0  0  0  0  0
   -4.9450   14.9130    1.1370 C   0  0  0  0  0  0  0  0  0  0  0  0
   -4.1940   14.1570   -2.4140 O   0  0  0  0  0  0  0  0  0  0  0  0
   -2.7120   14.6250   -0.5310 C   0  0  0  0  0  0  0  0  0  0  0  0
   -3.7360   15.6620    1.5900 C   0  0  0  0  0  0  0  0  0  0  0  0
   -4.4110   14.7570   -3.6860 C   0  0  0  0  0  0  0  0  0  0  0  0
   -2.4930   15.1490    0.9000 C   0  0  0  0  0  0  0  0  0  0  0  0
   -3.2320   14.8260   -4.7080 C   0  0  1  0  0  0  0  0  0  0  0  0
   -2.1200   15.7170   -4.1600 C   0  0  0  0  0  0  0  0  0  0  0  0
   -2.7630   13.4930   -5.3200 C   0  0  0  0  0  0  0  0  0  0  0  0
   -0.7650   15.6240   -4.8740 C   0  0  2  0  0  0  0  0  0  0  0  0
   -1.3540   13.0750   -4.9410 C   0  0  0  0  0  0  0  0  0  0  0  0
   -0.2640   14.1660   -5.0430 C   0  0  2  0  0  0  0  0  0  0  0  0
    0.3770   16.4300   -4.2430 C   0  0  2  0  0  0  0  0  0  0  0  0
    0.2200   17.8140   -4.4920 O   0  0  0  0  0  0  0  0  0  0  0  0
    0.8030   13.8970   -3.9580 C   0  0  1  0  0  0  0  0  0  0  0  0
    1.6690   16.0190   -4.7470 N   0  0  0  0  0  0  0  0  0  0  0  0
    1.1380   12.3970   -3.8400 C   0  0  0  0  0  0  0  0  0  0  0  0
    2.0220   14.7050   -4.2100 N   0  0  0  0  0  0  0  0  0  0  0  0
    1.0350   11.7940   -2.4120 C   0  0  2  0  0  0  0  0  0  0  0  0
    0.6030   10.5330   -2.3890 O   0  0  0  0  0  0  0  0  0  0  0  0
    0.0900   12.4120   -1.5760 O   0  0  0  0  0  0  0  0  0  0  0  0
  1  2  1  0
  2  3  1  0
  3  4  1  6
  3  5  1  0
  5  6  1  0
  5  7  1  1
  6  8  1  6
  6  9  1  0
  7 10  1  0
  8 11  1  0
  9 12  1  0
 10 12  1  0
 13 11  1  1
 13 14  1  0
 13 15  1  0
 16 14  1  1
 15 17  1  0
 16 18  1  0
 18 17  1  1
 16 19  1  0
 19 20  1  6
 18 21  1  0
 19 22  1  0
 21 23  1  6
 21 24  1  0
 22 24  1  0
 23 25  1  0
 25 26  1  6
 25 27  1  0
M  CHG  1  26  -1
M  END
