ucsf004-ucsf274
     RDKit          3D

 30 34  0  0  0  0  0  0  0  0999 V2000
    0.5410   10.5520   -2.3340 O   0  0  0  0  0  0  0  0  0  0  0  0
    0.9990   11.7880   -2.5160 C   0  0  2  0  0  0  0  0  0  0  0  0
    0.6340   12.4030   -1.3020 O   0  0  0  0  0  0  0  0  0  0  0  0
    0.2540   12.5200   -3.6280 C   0  0  0  0  0  0  0  0  0  0  0  0
    0.9460   12.5610   -5.0180 C   0  0  0  0  0  0  0  0  0  0  0  0
   -0.0350   12.1160   -6.1200 C   0  0  2  0  0  0  0  0  0  0  0  0
   -1.4790   12.2370   -5.5660 C   0  0  2  0  0  0  0  0  0  0  0  0
    0.4390   10.8820   -6.7330 N   0  0  0  0  0  0  0  0  0  0  0  0
   -1.2520   13.4050   -4.5450 C   0  0  2  0  0  0  0  0  0  0  0  0
   -2.1610   10.9530   -5.1690 N   0  0  0  0  0  0  0  0  0  0  0  0
   -0.4580    9.7440   -6.7960 C   0  0  1  0  0  0  0  0  0  0  0  0
   -2.1970   13.9760   -3.5080 C   0  0  0  0  0  0  0  0  0  0  0  0
   -0.6940   14.5780   -5.3240 C   0  0  0  0  0  0  0  0  0  0  0  0
   -1.6500    9.6970   -5.7900 C   0  0  2  0  0  0  0  0  0  0  0  0
   -0.7930    9.4000   -8.2510 C   0  0  0  0  0  0  0  0  0  0  0  0
   -1.3870   14.8600   -2.6080 N   0  0  0  0  0  0  0  0  0  0  0  0
    0.1960   15.4630   -4.4860 C   0  0  0  0  0  0  0  0  0  0  0  0
   -1.3540    8.0050   -8.3990 C   0  0  0  0  0  0  0  0  0  0  0  0
   -2.7880    8.8980   -6.4550 C   0  0  0  0  0  0  0  0  0  0  0  0
   -0.0050   15.2130   -3.0010 C   0  0  0  0  0  0  0  0  0  0  0  0
   -1.4620   14.5290   -1.2040 C   0  0  1  0  0  0  0  0  0  0  0  0
   -2.3120    7.6750   -7.2570 C   0  0  0  0  0  0  0  0  0  0  0  0
   -0.2000   14.7130   -0.5020 N   0  0  0  0  0  0  0  0  0  0  0  0
   -2.5280   15.3060   -0.4920 C   0  0  2  0  0  0  0  0  0  0  0  0
   -0.2040   14.5510    0.9500 C   0  0  0  0  0  0  0  0  0  0  0  0
   -2.5890   14.7090    0.8650 C   0  0  1  0  0  0  0  0  0  0  0  0
   -3.9490   15.1090   -0.9390 C   0  0  0  0  0  0  0  0  0  0  0  0
   -1.4170   14.9890    1.6250 N   0  0  0  0  0  0  0  0  0  0  0  0
   -3.7560   15.3120    1.4440 N   0  0  0  0  0  0  0  0  0  0  0  0
   -4.6890   15.5280    0.3220 C   0  0  0  0  0  0  0  0  0  0  0  0
  2  1  1  1
  2  3  1  0
  2  4  1  0
  4  5  1  0
  6  5  1  1
  6  7  1  0
  6  8  1  0
  7  9  1  0
  7 10  1  1
  8 11  1  0
  9 12  1  6
  9 13  1  0
 10 14  1  0
 11 14  1  0
 11 15  1  6
 12 16  1  0
 13 17  1  0
 15 18  1  0
 14 19  1  6
 16 20  1  0
 17 20  1  0
 21 16  1  6
 18 22  1  0
 19 22  1  0
 21 23  1  0
 21 24  1  0
 23 25  1  0
 24 26  1  0
 24 27  1  6
 25 28  1  0
 26 28  1  1
 26 29  1  0
 27 30  1  0
 29 30  1  0
M  CHG  1   1  -1
M  END
