ucsf333-ucsf520
     RDKit          3D

 25 28  0  0  0  0  0  0  0  0999 V2000
   -6.4590   15.1260   -1.2800 Cl  0  0  0  0  0  0  0  0  0  0  0  0
   -4.7020   15.5220   -1.1780 C   0  0  2  0  0  0  0  0  0  0  0  0
   -3.9640   15.0120   -2.4440 C   0  0  0  0  0  0  0  0  0  0  0  0
   -4.0840   15.0160    0.1550 C   0  0  2  0  0  0  0  0  0  0  0  0
   -4.6090   15.7150    1.3560 N   0  0  0  0  0  0  0  0  0  0  0  0
   -2.4720   15.3690   -2.4270 C   0  0  2  0  0  0  0  0  0  0  0  0
   -2.5000   14.9830    0.1370 C   0  0  1  0  0  0  0  0  0  0  0  0
   -1.5710   14.6390   -3.3580 N   0  0  0  0  0  0  0  0  0  0  0  0
   -1.8150   14.9550   -1.1770 C   0  0  2  0  0  0  0  0  0  0  0  0
   -1.6860   15.6510    1.1850 N   0  0  0  0  0  0  0  0  0  0  0  0
   -2.1110   13.6510    0.5600 C   0  0  0  0  0  0  0  0  0  0  0  0
   -0.1820   14.5370   -2.6950 C   0  0  2  0  0  0  0  0  0  0  0  0
   -0.2490   15.7240   -1.3370 S   0  0  0  0  0  0  0  0  0  0  0  0
   -0.6620   13.7190    0.3940 N   0  0  0  0  0  0  0  0  0  0  0  0
   -0.4140   14.8870    1.1990 C   0  0  0  0  0  0  0  0  0  0  0  0
    0.9140   14.7790   -3.7330 C   0  0  1  0  0  0  0  0  0  0  0  0
    1.0890   13.4010   -4.4300 C   0  0  0  0  0  0  0  0  0  0  0  0
    0.2050   15.9880   -4.3810 C   0  0  2  0  0  0  0  0  0  0  0  0
    0.7420   12.2350   -3.4630 C   0  0  2  0  0  0  0  0  0  0  0  0
   -1.1700   15.7240   -4.9190 C   0  0  0  0  0  0  0  0  0  0  0  0
    0.8080   16.9520   -5.3590 C   0  0  0  0  0  0  0  0  0  0  0  0
    1.7400   12.0020   -2.6510 O   0  0  0  0  0  0  0  0  0  0  0  0
    0.4680   11.0430   -4.1420 O   0  0  0  0  0  0  0  0  0  0  0  0
   -1.5980   16.9920   -5.4230 O   0  0  0  0  0  0  0  0  0  0  0  0
   -0.4190   17.7240   -5.8050 C   0  0  0  0  0  0  0  0  0  0  0  0
  2  1  1  6
  2  3  1  0
  2  4  1  0
  4  5  1  1
  6  3  1  1
  4  7  1  0
  6  8  1  0
  6  9  1  0
  7  9  1  0
  7 10  1  0
  7 11  1  1
 12  8  1  6
  9 13  1  1
 12 13  1  0
 11 14  1  0
 10 15  1  0
 14 15  1  0
 12 16  1  0
 16 17  1  6
 16 18  1  0
 17 19  1  0
 18 20  1  6
 18 21  1  0
 19 22  1  1
 19 23  1  0
 20 24  1  0
 21 25  1  0
 24 25  1  0
M  CHG  1  22  -1
M  END
