ucsf424-ucsf005
     RDKit          3D

 27 30  0  0  0  0  0  0  0  0999 V2000
    1.1330   12.1950   -2.2370 O   0  0  0  0  0  0  0  0  0  0  0  0
    0.5730   11.6790   -3.3160 C   0  0  1  0  0  0  0  0  0  0  0  0
   -0.7780   11.8030   -2.9500 O   0  0  0  0  0  0  0  0  0  0  0  0
    0.9940   12.5120   -4.5910 C   0  0  2  0  0  0  0  0  0  0  0  0
    1.0620   14.0680   -4.3340 C   0  0  0  0  0  0  0  0  0  0  0  0
    0.2490   12.1570   -5.9440 C   0  0  1  0  0  0  0  0  0  0  0  0
   -0.2740   14.8270   -4.3210 C   0  0  0  0  0  0  0  0  0  0  0  0
    1.3430   11.7550   -6.8850 N   0  0  0  0  0  0  0  0  0  0  0  0
   -0.8180   11.0590   -6.1650 C   0  0  1  0  0  0  0  0  0  0  0  0
   -1.3330   14.2870   -3.3490 C   0  0  0  0  0  0  0  0  0  0  0  0
    0.9520   10.5150   -7.5750 O   0  0  0  0  0  0  0  0  0  0  0  0
   -0.4580   10.3930   -7.4710 C   0  0  1  0  0  0  0  0  0  0  0  0
   -1.3370   10.1090   -5.0970 C   0  0  0  0  0  0  0  0  0  0  0  0
   -0.8990    8.9450   -7.5750 C   0  0  0  0  0  0  0  0  0  0  0  0
   -2.5310    9.2950   -5.6020 C   0  0  0  0  0  0  0  0  0  0  0  0
   -2.0970   15.1460   -2.4440 N   0  0  0  0  0  0  0  0  0  0  0  0
   -2.2950    8.7020   -6.9940 C   0  0  0  0  0  0  0  0  0  0  0  0
   -3.5320   15.2250   -2.7500 C   0  0  0  0  0  0  0  0  0  0  0  0
   -2.0860   14.6650   -1.0910 C   0  0  2  0  0  0  0  0  0  0  0  0
   -4.3190   15.1010   -1.5010 N   0  0  0  0  0  0  0  0  0  0  0  0
   -3.2770   15.3390   -0.4900 C   0  0  1  0  0  0  0  0  0  0  0  0
   -0.8700   14.9290   -0.3790 N   0  0  0  0  0  0  0  0  0  0  0  0
   -3.3990   14.8010    0.9500 C   0  0  2  0  0  0  0  0  0  0  0  0
   -1.0460   14.2820    0.8780 C   0  0  1  0  0  0  0  0  0  0  0  0
   -4.3670   15.4970    1.7790 N   0  0  0  0  0  0  0  0  0  0  0  0
    0.1410   14.5470    1.5930 N   0  0  0  0  0  0  0  0  0  0  0  0
   -2.1140   14.9090    1.6040 N   0  0  0  0  0  0  0  0  0  0  0  0
  2  1  1  1
  2  3  1  0
  2  4  1  0
  4  5  1  1
  4  6  1  0
  5  7  1  0
  6  8  1  6
  6  9  1  0
  7 10  1  0
  8 11  1  0
  9 12  1  0
 11 12  1  0
  9 13  1  1
 12 14  1  1
 13 15  1  0
 10 16  1  0
 14 17  1  0
 15 17  1  0
 16 18  1  0
 16 19  1  0
 18 20  1  0
 19 21  1  0
 21 20  1  6
 19 22  1  1
 21 23  1  0
 22 24  1  0
 23 25  1  1
 24 26  1  1
 23 27  1  0
 24 27  1  0
M  CHG  1   1  -1
M  END
