ucsf367-ucsf336
     RDKit          3D

 12 12  0  0  0  0  0  0  0  0999 V2000
    0.8210   11.1250   -2.9110 O   0  0  0  0  0  0  0  0  0  0  0  0
    1.1440   12.3780   -3.4660 C   0  0  0  0  0  0  0  0  0  0  0  0
    0.8030   13.2970   -2.4820 O   0  0  0  0  0  0  0  0  0  0  0  0
    0.5490   12.6750   -4.8670 C   0  0  0  0  0  0  0  0  0  0  0  0
    2.5290   12.5060   -3.5600 O   0  0  0  0  0  0  0  0  0  0  0  0
    0.5840   11.6360   -5.8760 O   0  0  0  0  0  0  0  0  0  0  0  0
   -0.3720   10.5970   -5.6590 C   0  0  0  0  0  0  0  0  0  0  0  0
   -0.4580    9.7060   -6.8960 C   0  0  0  0  0  0  0  0  0  0  0  0
   -1.7340   11.2390   -5.3770 C   0  0  0  0  0  0  0  0  0  0  0  0
   -1.5170    8.6250   -6.7170 C   0  0  0  0  0  0  0  0  0  0  0  0
   -2.8360   10.1940   -5.2290 C   0  0  0  0  0  0  0  0  0  0  0  0
   -2.8830    9.2310   -6.4110 C   0  0  0  0  0  0  0  0  0  0  0  0
  2  1  1  0
  2  3  1  0
  2  4  1  0
  2  5  1  0
  4  6  1  0
  6  7  1  0
  7  8  1  0
  7  9  1  0
  8 10  1  0
  9 11  1  0
 10 12  1  0
 11 12  1  0
M  CHG  2   1  -1   5  -1
M  END
