ucsf412
     RDKit          3D

 11 12  0  0  0  0  0  0  0  0999 V2000
   -7.9430   14.9850   -0.3030 O   0  0  0  0  0  0  0  0  0  0  0  0
   -6.9680   14.9800    0.3470 C   0  0  0  0  0  0  0  0  0  0  0  0
   -7.0450   14.9280    1.7990 N   0  0  0  0  0  0  0  0  0  0  0  0
   -5.8390   14.9260    2.5870 C   0  0  0  0  0  0  0  0  0  0  0  0
   -4.5010   14.9820    1.9210 C   0  0  0  0  0  0  0  0  0  0  0  0
   -4.4240   15.0420    0.3990 C   0  0  0  0  0  0  0  0  0  0  0  0
   -3.1710   15.0880   -0.2430 C   0  0  0  0  0  0  0  0  0  0  0  0
   -3.1140   15.1370   -1.6250 C   0  0  0  0  0  0  0  0  0  0  0  0
   -4.2900   15.1420   -2.3720 C   0  0  0  0  0  0  0  0  0  0  0  0
   -5.5220   15.0950   -1.7500 C   0  0  0  0  0  0  0  0  0  0  0  0
   -5.5850   15.0450   -0.3500 C   0  0  0  0  0  0  0  0  0  0  0  0
  1  2  1  0
  2  3  1  0
  3  4  1  0
  4  5  1  0
  5  6  1  0
  6  7  1  0
  7  8  1  0
  8  9  1  0
  9 10  1  0
  2 11  1  0
  6 11  1  0
 10 11  1  0
M  END
