ucsf115-ucsf248
     RDKit          3D

 24 27  0  0  0  0  0  0  0  0999 V2000
   -1.9480   13.8340   -3.7120 C   0  0  0  0  0  0  0  0  0  0  0  0
   -1.8550   14.9460   -2.7900 N   0  0  0  0  0  0  0  0  0  0  0  0
   -1.9580   14.7500   -1.3480 C   0  0  2  0  0  0  0  0  0  0  0  0
   -1.3690   12.5650   -3.1040 C   0  0  1  0  0  0  0  0  0  0  0  0
   -1.0710   11.6220   -4.1310 O   0  0  0  0  0  0  0  0  0  0  0  0
   -0.0740   12.7550   -2.3280 C   0  0  0  0  0  0  0  0  0  0  0  0
    0.6740   11.4790   -2.6110 C   0  0  0  0  0  0  0  0  0  0  0  0
   -0.2870   10.6660   -3.4460 C   0  0  0  0  0  0  0  0  0  0  0  0
   -0.6350   14.8460   -0.7560 N   0  0  0  0  0  0  0  0  0  0  0  0
   -2.8670   13.7440   -0.6400 C   0  0  1  0  0  0  0  0  0  0  0  0
   -0.5840   14.5230    0.6590 C   0  0  0  0  0  0  0  0  0  0  0  0
   -2.9610   14.2430    0.8050 C   0  0  1  0  0  0  0  0  0  0  0  0
   -4.2920   13.7030   -1.0730 N   0  0  0  0  0  0  0  0  0  0  0  0
   -1.8030   14.9440    1.3230 N   0  0  0  0  0  0  0  0  0  0  0  0
   -4.0810   15.1340    0.7530 N   0  0  0  0  0  0  0  0  0  0  0  0
   -5.0330   14.5440   -0.1470 C   0  0  2  0  0  0  0  0  0  0  0  0
   -5.8890   13.7040    0.6600 N   0  0  0  0  0  0  0  0  0  0  0  0
   -6.0160   15.5030   -0.8620 C   0  0  0  0  0  0  0  0  0  0  0  0
   -6.9010   14.6500    1.0320 C   0  0  1  0  0  0  0  0  0  0  0  0
   -7.3160   15.1980   -0.2520 N   0  0  0  0  0  0  0  0  0  0  0  0
   -8.3080   14.1340    2.1000 S   0  0  0  0  0  0  0  0  0  0  0  0
   -8.3700   12.5990    2.6900 N   0  0  0  0  0  0  0  0  0  0  0  0
   -8.2690   15.1660    3.3280 O   0  0  0  0  0  0  0  0  0  0  0  0
   -9.6430   14.4730    1.2790 O   0  0  0  0  0  0  0  0  0  0  0  0
  1  2  1  0
  3  2  1  6
  4  1  1  6
  4  5  1  0
  4  6  1  0
  6  7  1  0
  5  8  1  0
  7  8  1  0
  3  9  1  0
  3 10  1  0
  9 11  1  0
 10 12  1  0
 10 13  1  6
 11 14  1  0
 12 14  1  6
 12 15  1  0
 16 13  1  0
 15 16  1  0
 16 17  1  0
 16 18  1  6
 17 19  1  0
 18 20  1  0
 19 20  1  0
 19 21  1  6
 21 22  1  0
 21 23  1  0
 21 24  1  0
M  END
