ucsf303-ucsf442
     RDKit          3D

 19 21  0  0  0  0  0  0  0  0999 V2000
   -2.6740   14.3600   -3.6500 O   0  0  0  0  0  0  0  0  0  0  0  0
   -3.8450   14.3310   -2.5640 S   0  0  0  0  0  0  0  0  0  0  0  0
   -4.3030   15.8430   -2.3970 O   0  0  0  0  0  0  0  0  0  0  0  0
   -5.1170   13.4000   -2.9760 N   0  0  0  0  0  0  0  0  0  0  0  0
   -3.1030   13.9010   -1.0360 C   0  0  1  0  0  0  0  0  0  0  0  0
   -5.0480   11.9650   -2.9710 C   0  0  2  0  0  0  0  0  0  0  0  0
   -1.6520   14.3270   -0.8260 C   0  0  0  0  0  0  0  0  0  0  0  0
   -4.0490   14.2140    0.0940 C   0  0  1  0  0  0  0  0  0  0  0  0
   -5.8580   11.2930   -1.9520 N   0  0  0  0  0  0  0  0  0  0  0  0
   -3.4130   11.2910   -2.7560 S   0  0  0  0  0  0  0  0  0  0  0  0
   -1.1820   14.3410    0.6320 C   0  0  1  0  0  0  0  0  0  0  0  0
   -3.5360   15.2450    1.0260 C   0  0  2  0  0  0  0  0  0  0  0  0
   -5.3690   14.7770   -0.2030 N   0  0  0  0  0  0  0  0  0  0  0  0
   -0.0740   15.2350    0.7600 O   0  0  0  0  0  0  0  0  0  0  0  0
   -4.1930    9.6840   -2.6990 C   0  0  0  0  0  0  0  0  0  0  0  0
   -5.5180    9.8570   -2.0540 N   0  0  0  0  0  0  0  0  0  0  0  0
   -2.2610   14.7040    1.6360 C   0  0  0  0  0  0  0  0  0  0  0  0
   -4.7290   15.4180    1.8910 N   0  0  0  0  0  0  0  0  0  0  0  0
   -5.8040   14.7340    1.1750 C   0  0  0  0  0  0  0  0  0  0  0  0
  2  1  1  0
  2  3  1  0
  2  4  1  0
  5  2  1  6
  6  4  1  1
  5  7  1  0
  5  8  1  0
  6  9  1  0
  6 10  1  0
  7 11  1  0
  8 12  1  0
  8 13  1  6
 11 14  1  6
 10 15  1  0
  9 16  1  0
 15 16  1  0
 11 17  1  0
 12 17  1  1
 12 18  1  0
 13 19  1  0
 18 19  1  0
M  END
