ucsf412-ucsf357
     RDKit          3D

 14 15  0  0  0  0  0  0  0  0999 V2000
   -7.6970   15.1090   -0.5420 O   0  0  0  0  0  0  0  0  0  0  0  0
   -6.8610   14.3360    0.2920 C   0  0  2  0  0  0  0  0  0  0  0  0
   -7.0230   14.8430    1.6700 N   0  0  0  0  0  0  0  0  0  0  0  0
   -5.3810   14.1580   -0.2620 C   0  0  2  0  0  0  0  0  0  0  0  0
   -4.2150   14.4520    0.7560 C   0  0  2  0  0  0  0  0  0  0  0  0
   -5.9660   14.4650    2.5780 C   0  0  0  0  0  0  0  0  0  0  0  0
   -5.0910   14.5870   -1.7840 C   0  0  2  0  0  0  0  0  0  0  0  0
   -4.6280   14.9950    2.1220 C   0  0  0  0  0  0  0  0  0  0  0  0
   -3.1200   15.3120    0.1880 C   0  0  0  0  0  0  0  0  0  0  0  0
   -3.6700   15.1410   -2.1700 C   0  0  2  0  0  0  0  0  0  0  0  0
   -6.0030   15.4490   -2.1620 O   0  0  0  0  0  0  0  0  0  0  0  0
   -3.1400   14.6820   -3.3620 F   0  0  0  0  0  0  0  0  0  0  0  0
   -2.6890   14.7180   -1.1180 C   0  0  1  0  0  0  0  0  0  0  0  0
   -1.2960   14.9840   -1.4350 O   0  0  0  0  0  0  0  0  0  0  0  0
  2  1  1  6
  2  3  1  0
  4  2  1  1
  4  5  1  0
  3  6  1  0
  4  7  1  0
  5  8  1  1
  6  8  1  0
  5  9  1  0
  7 10  1  0
  7 11  1  1
 10 12  1  6
  9 13  1  0
 10 13  1  0
 13 14  1  6
M  CHG  1  11  -1
M  END
