ucsf173-ucsf017
     RDKit          3D

 25 29  0  0  0  0  0  0  0  0999 V2000
   -0.6420   12.3920   -2.3380 O   0  0  0  0  0  0  0  0  0  0  0  0
   -0.8700   12.7390   -3.5990 C   0  0  2  0  0  0  0  0  0  0  0  0
   -0.6290   11.4770   -4.1900 O   0  0  0  0  0  0  0  0  0  0  0  0
    0.2380   13.7490   -4.0740 C   0  0  2  0  0  0  0  0  0  0  0  0
    0.2860   14.8810   -3.0180 C   0  0  1  0  0  0  0  0  0  0  0  0
    0.1420   14.6490   -5.3540 C   0  0  0  0  0  0  0  0  0  0  0  0
    1.4980   12.9530   -3.9710 C   0  0  0  0  0  0  0  0  0  0  0  0
   -0.4980   16.0480   -3.6790 C   0  0  1  0  0  0  0  0  0  0  0  0
    0.5370   16.0170   -4.7710 C   0  0  2  0  0  0  0  0  0  0  0  0
    1.5720   12.4110   -2.5570 C   0  0  0  0  0  0  0  0  0  0  0  0
    0.1600   14.4720   -1.6500 N   0  0  0  0  0  0  0  0  0  0  0  0
   -1.8920   16.1250   -4.3170 C   0  0  0  0  0  0  0  0  0  0  0  0
    0.6110   17.3340   -5.5240 C   0  0  0  0  0  0  0  0  0  0  0  0
    1.1500   13.4120   -1.4400 C   0  0  0  0  0  0  0  0  0  0  0  0
   -1.1480   14.1360   -1.0710 C   0  0  1  0  0  0  0  0  0  0  0  0
   -1.9540   17.2250   -5.3790 C   0  0  0  0  0  0  0  0  0  0  0  0
   -0.7020   18.0960   -5.4580 C   0  0  0  0  0  0  0  0  0  0  0  0
   -0.7540   13.4910    0.1800 N   0  0  0  0  0  0  0  0  0  0  0  0
   -2.2060   15.1730   -0.6940 C   0  0  2  0  0  0  0  0  0  0  0  0
   -0.3390   14.4190    1.1970 C   0  0  0  0  0  0  0  0  0  0  0  0
   -2.5620   14.8710    0.7400 C   0  0  1  0  0  0  0  0  0  0  0  0
   -3.5800   15.1420   -1.3360 C   0  0  0  0  0  0  0  0  0  0  0  0
   -1.4630   15.2550    1.5460 N   0  0  0  0  0  0  0  0  0  0  0  0
   -3.6960   15.7140    1.0180 N   0  0  0  0  0  0  0  0  0  0  0  0
   -4.5310   15.4870   -0.1780 C   0  0  0  0  0  0  0  0  0  0  0  0
  2  1  1  1
  2  3  1  0
  2  4  1  0
  4  5  1  0
  4  6  1  6
  4  7  1  0
  5  8  1  0
  9  6  1  6
  8  9  1  0
  7 10  1  0
  5 11  1  1
  8 12  1  6
  9 13  1  0
 10 14  1  0
 11 14  1  0
 15 11  1  1
 12 16  1  0
 13 17  1  0
 16 17  1  0
 15 18  1  0
 15 19  1  0
 18 20  1  0
 19 21  1  0
 19 22  1  6
 20 23  1  0
 21 23  1  1
 21 24  1  0
 22 25  1  0
 24 25  1  0
M  CHG  1   1  -1
M  END
