ucsf337-ucsf364
     RDKit          3D

 22 23  0  0  0  0  0  0  0  0999 V2000
   -7.4270   14.5600    0.9700 C   0  0  0  0  0  0  0  0  0  0  0  0
   -6.2690   14.3460   -0.0140 C   0  0  1  0  0  0  0  0  0  0  0  0
   -6.4180   15.2340   -1.1760 N   0  0  0  0  0  0  0  0  0  0  0  0
   -4.8490   14.3630    0.6180 C   0  0  2  0  0  0  0  0  0  0  0  0
   -4.5550   15.5560    2.1170 Br  0  0  0  0  0  0  0  0  0  0  0  0
   -3.7630   14.8180   -0.3220 C   0  0  0  0  0  0  0  0  0  0  0  0
   -5.3300   15.2410   -2.1380 C   0  0  2  0  0  0  0  0  0  0  0  0
   -5.9730   14.8240   -3.3710 N   0  0  0  0  0  0  0  0  0  0  0  0
   -4.0820   14.4370   -1.7490 C   0  0  1  0  0  0  0  0  0  0  0  0
   -2.8120   14.6540   -2.6050 C   0  0  0  0  0  0  0  0  0  0  0  0
   -1.5610   14.4090   -1.7410 C   0  0  0  0  0  0  0  0  0  0  0  0
   -0.4730   13.9550   -2.5300 O   0  0  0  0  0  0  0  0  0  0  0  0
   -0.2440   12.5670   -2.2690 C   0  0  2  0  0  0  0  0  0  0  0  0
    0.7000   12.3780   -1.3710 O   0  0  0  0  0  0  0  0  0  0  0  0
    0.0810   11.8270   -3.6180 C   0  0  2  0  0  0  0  0  0  0  0  0
    0.8950   12.5960   -4.7160 C   0  0  1  0  0  0  0  0  0  0  0  0
   -1.2900   11.3060   -4.1320 C   0  0  0  0  0  0  0  0  0  0  0  0
    2.3180   13.0030   -4.2670 C   0  0  0  0  0  0  0  0  0  0  0  0
   -1.4980   11.2110   -5.6350 C   0  0  0  0  0  0  0  0  0  0  0  0
    0.8870   11.8950   -6.0830 C   0  0  2  0  0  0  0  0  0  0  0  0
    0.7840   12.8860   -7.0470 O   0  0  0  0  0  0  0  0  0  0  0  0
   -0.2340   10.9100   -6.3930 C   0  0  0  0  0  0  0  0  0  0  0  0
  2  1  1  1
  2  3  1  0
  2  4  1  0
  4  5  1  1
  4  6  1  0
  3  7  1  0
  7  8  1  6
  6  9  1  0
  7  9  1  0
  9 10  1  6
 10 11  1  0
 11 12  1  0
 12 13  1  0
 13 14  1  1
 13 15  1  0
 15 16  1  0
 15 17  1  6
 16 18  1  1
 17 19  1  0
 16 20  1  0
 20 21  1  6
 19 22  1  0
 20 22  1  0
M  CHG  1  14  -1
M  END
