ucsf172-ucsf004
     RDKit          3D

 26 28  0  0  0  0  0  0  0  0999 V2000
   -8.1030   15.0470    2.7870 C   0  0  0  0  0  0  0  0  0  0  0  0
   -7.0120   14.4440    1.5500 S   0  0  0  0  0  0  0  0  0  0  0  0
   -6.7400   12.9440    2.0150 O   0  0  0  0  0  0  0  0  0  0  0  0
   -7.9040   14.3860    0.2110 O   0  0  0  0  0  0  0  0  0  0  0  0
   -5.5230   15.1280    1.3230 N   0  0  0  0  0  0  0  0  0  0  0  0
   -4.7150   14.7420    0.1750 C   0  0  2  0  0  0  0  0  0  0  0  0
   -3.3550   15.4400    0.0900 C   0  0  0  0  0  0  0  0  0  0  0  0
   -5.5120   14.8900   -1.1040 C   0  0  0  0  0  0  0  0  0  0  0  0
   -2.4780   14.7540   -1.0020 C   0  0  2  0  0  0  0  0  0  0  0  0
   -4.7680   14.2730   -2.2710 C   0  0  0  0  0  0  0  0  0  0  0  0
   -3.2810   14.7150   -2.3790 C   0  0  2  0  0  0  0  0  0  0  0  0
   -2.2790   13.4640   -0.1600 C   0  0  0  0  0  0  0  0  0  0  0  0
   -0.8970   14.8280   -1.2070 C   0  0  1  0  0  0  0  0  0  0  0  0
   -2.6800   14.0920   -3.6730 C   0  0  1  0  0  0  0  0  0  0  0  0
   -0.1540   15.1860   -2.4270 N   0  0  0  0  0  0  0  0  0  0  0  0
   -0.1520   15.2460   -0.0270 N   0  0  0  0  0  0  0  0  0  0  0  0
   -1.6750   13.9080    1.1210 N   0  0  0  0  0  0  0  0  0  0  0  0
   -2.5190   12.7000   -3.5560 O   0  0  0  0  0  0  0  0  0  0  0  0
   -3.3750   14.2730   -4.7670 O   0  0  0  0  0  0  0  0  0  0  0  0
   -0.9280   15.0820   -3.6670 C   0  0  0  0  0  0  0  0  0  0  0  0
    1.1540   14.5570   -2.6180 C   0  0  0  0  0  0  0  0  0  0  0  0
   -0.2820   14.2500    0.9920 C   0  0  0  0  0  0  0  0  0  0  0  0
   -0.5810   13.7750   -4.4260 C   0  0  1  0  0  0  0  0  0  0  0  0
    1.6820   14.6590   -4.0680 C   0  0  0  0  0  0  0  0  0  0  0  0
   -1.4720   13.4560   -5.4210 F   0  0  0  0  0  0  0  0  0  0  0  0
    0.8050   13.8820   -5.0330 C   0  0  0  0  0  0  0  0  0  0  0  0
  1  2  1  0
  2  3  1  0
  2  4  1  0
  2  5  1  0
  6  5  1  1
  6  7  1  0
  6  8  1  0
  9  7  1  1
  8 10  1  0
  9 11  1  0
 11 10  1  1
  9 12  1  0
  9 13  1  0
 11 14  1  0
 13 15  1  6
 13 16  1  0
 12 17  1  0
 14 18  1  1
 14 19  1  0
 15 20  1  0
 15 21  1  0
 16 22  1  0
 17 22  1  0
 20 23  1  0
 21 24  1  0
 23 25  1  6
 23 26  1  0
 24 26  1  0
M  CHG  1  19  -1
M  END
