ucsf243-ucsf442
     RDKit          3D

 16 17  0  0  0  0  0  0  0  0999 V2000
   -3.2770   16.1330    1.1430 C   0  0  0  0  0  0  0  0  0  0  0  0
   -3.8240   15.0170   -0.3320 S   0  0  0  0  0  0  0  0  0  0  0  0
   -3.9440   15.5380   -2.1480 C   0  0  0  0  0  0  0  0  0  0  0  0
   -2.1720   14.4190   -0.8490 C   0  0  2  0  0  0  0  0  0  0  0  0
   -5.6120   14.4580   -0.3590 N   0  0  0  0  0  0  0  0  0  0  0  0
   -4.2800   13.4830    0.6110 C   0  0  0  0  0  0  0  0  0  0  0  0
   -1.0710   15.0740   -0.1790 O   0  0  0  0  0  0  0  0  0  0  0  0
   -1.6030   14.1130   -2.1340 C   0  0  2  0  0  0  0  0  0  0  0  0
   -3.4140   14.6450   -3.0870 C   0  0  0  0  0  0  0  0  0  0  0  0
   -5.1720   13.9220    1.6600 N   0  0  0  0  0  0  0  0  0  0  0  0
   -5.9470   14.7190    0.9190 C   0  0  0  0  0  0  0  0  0  0  0  0
   -0.0600   14.0950   -2.2170 C   0  0  1  0  0  0  0  0  0  0  0  0
   -2.0380   14.7540   -3.4040 C   0  0  2  0  0  0  0  0  0  0  0  0
   -1.7020   13.9620   -4.5340 O   0  0  0  0  0  0  0  0  0  0  0  0
    0.3510   14.5180   -3.4530 O   0  0  0  0  0  0  0  0  0  0  0  0
    0.4260   15.0340   -1.2860 O   0  0  0  0  0  0  0  0  0  0  0  0
  1  2  1  0
  2  3  1  0
  2  4  1  0
  2  5  1  0
  2  6  1  0
  4  7  1  6
  4  8  1  0
  3  9  1  0
  6 10  1  0
  5 11  1  0
 10 11  1  0
  8 12  1  1
  8 13  1  0
  9 13  1  0
 13 14  1  6
 12 15  1  6
 12 16  1  0
M  CHG  1  16  -1
M  END
