ucsf248-ucsf403
     RDKit          3D

 28 30  0  0  0  0  0  0  0  0999 V2000
   -8.7960   12.9390    2.9150 N   0  0  0  0  0  0  0  0  0  0  0  0
   -8.3800   14.3490    2.1610 S   0  0  0  0  0  0  0  0  0  0  0  0
   -8.0280   15.4870    3.2220 O   0  0  0  0  0  0  0  0  0  0  0  0
   -9.6000   14.8750    1.2630 O   0  0  0  0  0  0  0  0  0  0  0  0
   -6.9810   14.2440    1.0100 C   0  0  2  0  0  0  0  0  0  0  0  0
   -5.7760   14.8950    1.5220 N   0  0  0  0  0  0  0  0  0  0  0  0
   -7.1940   14.8750   -0.3080 N   0  0  0  0  0  0  0  0  0  0  0  0
   -4.9570   14.6470    0.3620 C   0  0  1  0  0  0  0  0  0  0  0  0
   -5.8290   15.2870   -0.7100 C   0  0  1  0  0  0  0  0  0  0  0  0
   -3.5620   15.2080    0.3050 C   0  0  0  0  0  0  0  0  0  0  0  0
   -5.3380   14.8600   -2.0860 C   0  0  0  0  0  0  0  0  0  0  0  0
   -2.9750   14.7500   -1.0360 C   0  0  0  0  0  0  0  0  0  0  0  0
   -3.8270   15.1870   -2.2510 C   0  0  1  0  0  0  0  0  0  0  0  0
   -3.3110   14.6400   -3.6100 C   0  0  0  0  0  0  0  0  0  0  0  0
   -2.4910   13.3330   -3.5570 C   0  0  0  0  0  0  0  0  0  0  0  0
   -2.0400   12.7500   -4.9230 C   0  0  0  0  0  0  0  0  0  0  0  0
   -1.5710   11.2580   -5.0010 C   0  0  2  0  0  0  0  0  0  0  0  0
   -0.5650   10.9390   -6.1550 C   0  0  1  0  0  0  0  0  0  0  0  0
   -2.7500   10.2660   -4.9570 C   0  0  0  0  0  0  0  0  0  0  0  0
    0.7340   11.4810   -5.8670 O   0  0  0  0  0  0  0  0  0  0  0  0
   -3.0030    9.5490   -6.2740 C   0  0  0  0  0  0  0  0  0  0  0  0
   -0.4380    9.4120   -6.4260 C   0  0  2  0  0  0  0  0  0  0  0  0
    0.7120    9.0340   -7.7770 Cl  0  0  0  0  0  0  0  0  0  0  0  0
    0.8430   12.5290   -4.8780 C   0  0  0  0  0  0  0  0  0  0  0  0
   -1.7870    8.7760   -6.7780 C   0  0  0  0  0  0  0  0  0  0  0  0
    1.2230   12.1680   -3.3950 C   0  0  1  0  0  0  0  0  0  0  0  0
    0.7780   13.0090   -2.5030 O   0  0  0  0  0  0  0  0  0  0  0  0
    0.6210   10.9620   -2.9560 O   0  0  0  0  0  0  0  0  0  0  0  0
  1  2  1  0
  2  3  1  0
  2  4  1  0
  5  2  1  1
  5  6  1  0
  5  7  1  0
  6  8  1  0
  7  9  1  0
  8  9  1  0
  8 10  1  1
  9 11  1  6
 10 12  1  0
 11 13  1  0
 12 13  1  0
 13 14  1  6
 14 15  1  0
 15 16  1  0
 17 16  1  6
 17 18  1  0
 17 19  1  0
 18 20  1  1
 19 21  1  0
 18 22  1  0
 22 23  1  6
 20 24  1  0
 21 25  1  0
 22 25  1  0
 24 26  1  0
 26 27  1  1
 26 28  1  0
M  CHG  1  27  -1
M  END
