ucsf109-ucsf123
     RDKit          3D

 27 30  0  0  0  0  0  0  0  0999 V2000
   -3.9300   14.3800    1.7610 N   0  0  0  0  0  0  0  0  0  0  0  0
   -4.9810   14.5440    0.7600 C   0  0  1  0  0  0  0  0  0  0  0  0
   -4.9190   13.5950   -0.4030 C   0  0  1  0  0  0  0  0  0  0  0  0
   -6.2660   14.2470    1.3030 N   0  0  0  0  0  0  0  0  0  0  0  0
   -7.2740   14.2230    0.2690 C   0  0  2  0  0  0  0  0  0  0  0  0
   -5.6940   14.1890   -1.5460 C   0  0  1  0  0  0  0  0  0  0  0  0
   -3.5860   13.1700   -0.9510 C   0  0  0  0  0  0  0  0  0  0  0  0
   -6.7280   14.9510    2.4620 N   0  0  0  0  0  0  0  0  0  0  0  0
   -6.8570   14.8870   -0.9650 N   0  0  0  0  0  0  0  0  0  0  0  0
   -4.5770   15.0550   -2.1620 C   0  0  0  0  0  0  0  0  0  0  0  0
   -3.3730   14.0640   -2.1480 C   0  0  1  0  0  0  0  0  0  0  0  0
   -8.4080   14.8890    0.8800 N   0  0  0  0  0  0  0  0  0  0  0  0
   -8.1610   14.7770    2.3210 C   0  0  0  0  0  0  0  0  0  0  0  0
   -1.9770   14.5220   -1.8750 C   0  0  0  0  0  0  0  0  0  0  0  0
   -1.0740   14.7960   -3.0610 C   0  0  1  0  0  0  0  0  0  0  0  0
    0.0570   13.7800   -3.2870 C   0  0  2  0  0  0  0  0  0  0  0  0
   -1.7490   15.2440   -4.3450 C   0  0  0  0  0  0  0  0  0  0  0  0
    0.5650   13.0220   -1.9990 C   0  0  2  0  0  0  0  0  0  0  0  0
   -0.7500   16.2850   -4.7720 C   0  0  2  0  0  0  0  0  0  0  0  0
    1.1270   14.6030   -4.0560 C   0  0  0  0  0  0  0  0  0  0  0  0
   -1.4080   17.5690   -5.8130 S   0  0  0  0  0  0  0  0  0  0  0  0
    1.9110   12.6770   -2.1900 O   0  0  0  0  0  0  0  0  0  0  0  0
    0.0270   11.8320   -1.7550 O   0  0  0  0  0  0  0  0  0  0  0  0
    0.5780   15.5930   -5.1270 C   0  0  0  0  0  0  0  0  0  0  0  0
   -1.9300   18.9490   -5.1110 N   0  0  0  0  0  0  0  0  0  0  0  0
   -0.2550   17.9390   -6.8450 O   0  0  0  0  0  0  0  0  0  0  0  0
   -2.6040   16.9360   -6.6590 O   0  0  0  0  0  0  0  0  0  0  0  0
  2  1  1  1
  2  3  1  0
  2  4  1  0
  4  5  1  0
  3  6  1  0
  3  7  1  6
  4  8  1  0
  5  9  1  6
  6  9  1  0
  6 10  1  1
  7 11  1  0
 10 11  1  0
  5 12  1  0
  8 13  1  0
 12 13  1  0
 11 14  1  1
 15 14  1  1
 15 16  1  0
 15 17  1  0
 16 18  1  0
 17 19  1  0
 16 20  1  1
 19 21  1  6
 18 22  1  6
 18 23  1  0
 19 24  1  0
 20 24  1  0
 21 25  1  0
 21 26  1  0
 21 27  1  0
M  CHG  1  23  -1
M  END
