ucsf364-ucsf247
     RDKit          3D

 21 22  0  0  0  0  0  0  0  0999 V2000
    2.3520   13.0870   -4.5170 C   0  0  0  0  0  0  0  0  0  0  0  0
    0.8670   12.8690   -4.8580 C   0  0  1  0  0  0  0  0  0  0  0  0
    0.7220   11.8750   -6.0030 C   0  0  2  0  0  0  0  0  0  0  0  0
   -0.0040   12.2470   -3.7250 C   0  0  1  0  0  0  0  0  0  0  0  0
    1.8070   11.9310   -6.9260 O   0  0  0  0  0  0  0  0  0  0  0  0
    0.0400   12.8950   -2.2940 C   0  0  2  0  0  0  0  0  0  0  0  0
   -1.4580   11.9450   -4.2330 C   0  0  0  0  0  0  0  0  0  0  0  0
   -0.6450   11.8740   -6.6310 C   0  0  0  0  0  0  0  0  0  0  0  0
   -0.4780   14.2640   -2.3890 O   0  0  0  0  0  0  0  0  0  0  0  0
    1.2800   12.8850   -1.8320 O   0  0  0  0  0  0  0  0  0  0  0  0
   -1.5880   11.2650   -5.6070 C   0  0  0  0  0  0  0  0  0  0  0  0
   -1.8330   14.2160   -2.9720 N   0  0  0  0  0  0  0  0  0  0  0  0
   -2.6730   15.2340   -2.3660 C   0  0  1  0  0  0  0  0  0  0  0  0
   -3.4820   15.8320   -3.3560 O   0  0  0  0  0  0  0  0  0  0  0  0
   -3.5300   14.7160   -1.1910 C   0  0  2  0  0  0  0  0  0  0  0  0
   -5.0450   14.7290   -1.4810 C   0  0  0  0  0  0  0  0  0  0  0  0
   -3.1650   15.4670    0.1070 C   0  0  0  0  0  0  0  0  0  0  0  0
   -5.8740   15.2780   -0.3420 C   0  0  1  0  0  0  0  0  0  0  0  0
   -3.9880   15.0370    1.3190 C   0  0  0  0  0  0  0  0  0  0  0  0
   -7.2630   15.0210   -0.5520 O   0  0  0  0  0  0  0  0  0  0  0  0
   -5.4440   14.7170    1.0060 C   0  0  0  0  0  0  0  0  0  0  0  0
  2  1  1  1
  2  3  1  0
  2  4  1  0
  3  5  1  6
  4  6  1  0
  4  7  1  6
  3  8  1  0
  6  9  1  0
  6 10  1  6
  7 11  1  0
  8 11  1  0
  9 12  1  0
 12 13  1  0
 13 14  1  6
 13 15  1  0
 15 16  1  6
 15 17  1  0
 16 18  1  0
 17 19  1  0
 18 20  1  6
 18 21  1  0
 19 21  1  0
M  CHG  1  10  -1
M  END
