ucsf258-ucsf138
     RDKit          3D

 23 24  0  0  0  0  0  0  0  0999 V2000
    0.2870   12.8550   -2.1330 O   0  0  0  0  0  0  0  0  0  0  0  0
   -0.3220   13.9700   -2.7290 C   0  0  2  0  0  0  0  0  0  0  0  0
    0.6870   14.9220   -3.0160 O   0  0  0  0  0  0  0  0  0  0  0  0
    0.0580   11.7680   -3.0200 C   0  0  2  0  0  0  0  0  0  0  0  0
    0.6300   10.5790   -2.4730 O   0  0  0  0  0  0  0  0  0  0  0  0
    0.6540   12.0880   -4.4340 C   0  0  0  0  0  0  0  0  0  0  0  0
   -1.4500   14.6280   -1.8910 C   0  0  1  0  0  0  0  0  0  0  0  0
    0.1150   11.1820   -5.4820 N   0  0  0  0  0  0  0  0  0  0  0  0
   -2.6510   14.9690   -2.8170 C   0  0  1  0  0  0  0  0  0  0  0  0
   -1.7960   13.9000   -0.6300 N   0  0  0  0  0  0  0  0  0  0  0  0
   -2.6340   14.1030   -3.9590 O   0  0  0  0  0  0  0  0  0  0  0  0
    0.4500   11.5480   -6.8310 C   0  0  1  0  0  0  0  0  0  0  0  0
   -3.9900   14.8260   -2.1030 C   0  0  0  0  0  0  0  0  0  0  0  0
   -2.7570   14.6590    0.1850 C   0  0  0  0  0  0  0  0  0  0  0  0
    1.8190   11.7290   -6.9680 O   0  0  0  0  0  0  0  0  0  0  0  0
    0.0810   10.3870   -7.6080 N   0  0  0  0  0  0  0  0  0  0  0  0
   -3.9410   15.2090   -0.6180 C   0  0  0  0  0  0  0  0  0  0  0  0
    0.8530   10.0600   -8.8150 C   0  0  0  0  0  0  0  0  0  0  0  0
   -0.0480   10.1760  -10.0570 C   0  0  0  0  0  0  0  0  0  0  0  0
    1.4220    8.6340   -8.7000 C   0  0  0  0  0  0  0  0  0  0  0  0
    0.6360    9.6540  -11.3260 C   0  0  0  0  0  0  0  0  0  0  0  0
    2.1130    8.1470   -9.9740 C   0  0  0  0  0  0  0  0  0  0  0  0
    1.1700    8.2340  -11.1590 C   0  0  0  0  0  0  0  0  0  0  0  0
  1  2  1  0
  2  3  1  1
  1  4  1  0
  4  5  1  1
  4  6  1  0
  2  7  1  0
  6  8  1  0
  7  9  1  0
  7 10  1  1
  9 11  1  6
  8 12  1  0
  9 13  1  0
 10 14  1  0
 12 15  1  1
 12 16  1  0
 13 17  1  0
 14 17  1  0
 16 18  1  0
 18 19  1  0
 18 20  1  0
 19 21  1  0
 20 22  1  0
 21 23  1  0
 22 23  1  0
M  END
