ucsf147-ucsf016
     RDKit          3D

 21 24  0  0  0  0  0  0  0  0999 V2000
    1.0840   12.4310   -4.4960 C   0  0  0  0  0  0  0  0  0  0  0  0
    0.2140   13.6530   -4.2360 C   0  0  1  0  0  0  0  0  0  0  0  0
   -0.8750   13.6370   -5.2190 O   0  0  0  0  0  0  0  0  0  0  0  0
   -0.4170   13.9870   -2.8020 C   0  0  1  0  0  0  0  0  0  0  0  0
    0.2930   15.2680   -2.2600 C   0  0  1  0  0  0  0  0  0  0  0  0
   -2.0860   14.1180   -4.5810 C   0  0  0  0  0  0  0  0  0  0  0  0
   -1.9730   13.8960   -3.0750 C   0  0  2  0  0  0  0  0  0  0  0  0
   -0.0400   13.1730   -1.5780 N   0  0  0  0  0  0  0  0  0  0  0  0
    1.5340   14.7810   -1.7580 O   0  0  0  0  0  0  0  0  0  0  0  0
    0.7390   16.0880   -3.1610 O   0  0  0  0  0  0  0  0  0  0  0  0
   -3.0300   14.4960   -2.0610 C   0  0  1  0  0  0  0  0  0  0  0  0
   -3.3260   13.5500   -5.2520 C   0  0  0  0  0  0  0  0  0  0  0  0
   -3.0260   15.0010   -5.3840 C   0  0  0  0  0  0  0  0  0  0  0  0
    0.1890   13.8230   -0.2830 C   0  0  0  0  0  0  0  0  0  0  0  0
   -2.7310   15.4730   -0.8780 C   0  0  1  0  0  0  0  0  0  0  0  0
   -4.1940   15.0920   -2.8560 C   0  0  0  0  0  0  0  0  0  0  0  0
   -1.1000   13.8710    0.3250 N   0  0  0  0  0  0  0  0  0  0  0  0
   -3.9680   15.5660    0.0250 C   0  0  0  0  0  0  0  0  0  0  0  0
   -5.4690   15.1990   -2.0650 C   0  0  0  0  0  0  0  0  0  0  0  0
   -1.6850   15.1690    0.2080 C   0  0  0  0  0  0  0  0  0  0  0  0
   -5.3040   15.7720   -0.6670 C   0  0  0  0  0  0  0  0  0  0  0  0
  2  1  1  1
  2  3  1  0
  2  4  1  0
  4  5  1  0
  6  3  1  0
  4  7  1  0
  7  6  1  6
  4  8  1  1
  5  9  1  6
  5 10  1  0
  7 11  1  0
  6 12  1  0
  6 13  1  0
 12 13  1  0
  8 14  1  0
 11 15  1  0
 11 16  1  6
 14 17  1  0
 15 18  1  1
 16 19  1  0
 15 20  1  0
 17 20  1  0
 18 21  1  0
 19 21  1  0
M  CHG  1  10  -1
M  END
