ucsf012-ucsf519
     RDKit          3D

 25 28  0  0  0  0  0  0  0  0999 V2000
   -3.5360   14.1870   -3.2860 C   0  0  0  0  0  0  0  0  0  0  0  0
   -2.6890   14.6290   -4.4980 C   0  0  0  0  0  0  0  0  0  0  0  0
   -1.0200   14.7420   -4.1900 S   0  0  0  0  0  0  0  0  0  0  0  0
   -3.0340   15.4060   -2.6110 C   0  0  1  0  0  0  0  0  0  0  0  0
   -3.6010   15.3620   -1.2670 C   0  0  1  0  0  0  0  0  0  0  0  0
   -1.7600   15.0570   -2.6380 N   0  0  0  0  0  0  0  0  0  0  0  0
   -5.0060   14.9200   -1.1220 C   0  0  0  0  0  0  0  0  0  0  0  0
   -0.7220   16.5100   -4.7210 C   0  0  0  0  0  0  0  0  0  0  0  0
    0.8820   14.6730   -3.8440 S   0  0  0  0  0  0  0  0  0  0  0  0
   -2.6880   14.3610   -0.6560 C   0  0  1  0  0  0  0  0  0  0  0  0
   -1.3990   14.5240   -1.4420 C   0  0  2  0  0  0  0  0  0  0  0  0
   -0.6210   12.9570   -3.9610 C   0  0  1  0  0  0  0  0  0  0  0  0
    1.8970   13.5350   -4.1770 C   0  0  0  0  0  0  0  0  0  0  0  0
   -2.6560   14.6170    0.8640 C   0  0  2  0  0  0  0  0  0  0  0  0
   -0.2650   15.0980   -0.6810 N   0  0  0  0  0  0  0  0  0  0  0  0
    0.1390   12.3830   -2.8640 C   0  0  0  0  0  0  0  0  0  0  0  0
   -1.4950   12.0360   -4.4340 O   0  0  0  0  0  0  0  0  0  0  0  0
   -3.8030   15.2830    1.3980 N   0  0  0  0  0  0  0  0  0  0  0  0
    2.3240   12.3690   -3.3410 C   0  0  1  0  0  0  0  0  0  0  0  0
   -1.5120   15.3820    1.2750 N   0  0  0  0  0  0  0  0  0  0  0  0
   -0.3600   14.7400    0.7370 C   0  0  0  0  0  0  0  0  0  0  0  0
   -0.7780   10.8860   -4.3760 C   0  0  0  0  0  0  0  0  0  0  0  0
    0.1010   10.9170   -3.1360 C   0  0  0  0  0  0  0  0  0  0  0  0
    2.1130   12.5670   -2.0170 O   0  0  0  0  0  0  0  0  0  0  0  0
    1.7670   11.1500   -3.6940 O   0  0  0  0  0  0  0  0  0  0  0  0
  1  2  1  0
  2  3  1  0
  4  1  1  6
  4  5  1  0
  3  6  1  0
  4  6  1  0
  5  7  1  6
  3  8  1  0
  3  9  1  0
  5 10  1  0
  6 11  1  0
 10 11  1  0
 12  3  1  1
  9 13  1  0
 10 14  1  1
 11 15  1  1
 12 16  1  0
 12 17  1  0
 14 18  1  6
 13 19  1  0
 14 20  1  0
 15 21  1  0
 20 21  1  0
 17 22  1  0
 16 23  1  0
 22 23  1  0
 19 24  1  1
 19 25  1  0
M  CHG  1  25  -1
M  END
