ucsf258-ucsf172
     RDKit          3D

 15 15  0  0  0  0  0  0  0  0999 V2000
    0.4180   13.0120   -1.1560 O   0  0  0  0  0  0  0  0  0  0  0  0
   -0.4700   13.3080   -2.1040 C   0  0  2  0  0  0  0  0  0  0  0  0
    0.3380   13.8610   -3.1320 O   0  0  0  0  0  0  0  0  0  0  0  0
   -1.4840   14.4170   -1.6360 C   0  0  1  0  0  0  0  0  0  0  0  0
   -2.8320   14.3370   -2.4170 C   0  0  2  0  0  0  0  0  0  0  0  0
   -1.6400   14.5080   -0.1520 N   0  0  0  0  0  0  0  0  0  0  0  0
   -2.6020   14.8600   -3.7530 O   0  0  0  0  0  0  0  0  0  0  0  0
   -4.0610   15.0850   -1.8300 C   0  0  0  0  0  0  0  0  0  0  0  0
   -3.0060   14.3870    0.3520 C   0  0  0  0  0  0  0  0  0  0  0  0
   -4.0330   15.3130   -0.2970 C   0  0  2  0  0  0  0  0  0  0  0  0
   -5.3630   15.4350    0.3480 N   0  0  0  0  0  0  0  0  0  0  0  0
   -6.5400   14.3680    0.8150 S   0  0  0  0  0  0  0  0  0  0  0  0
   -7.5560   14.7620    2.2010 C   0  0  0  0  0  0  0  0  0  0  0  0
   -5.9940   12.9300    1.2480 O   0  0  0  0  0  0  0  0  0  0  0  0
   -7.6240   14.1340   -0.3380 O   0  0  0  0  0  0  0  0  0  0  0  0
  2  1  1  1
  2  3  1  0
  2  4  1  0
  4  5  1  0
  4  6  1  1
  5  7  1  6
  5  8  1  0
  6  9  1  0
  8 10  1  0
  9 10  1  0
 10 11  1  1
 11 12  1  0
 12 13  1  0
 12 14  1  0
 12 15  1  0
M  CHG  1   1  -1
M  END
