ucsf403-ucsf357
     RDKit          3D

 25 26  0  0  0  0  0  0  0  0999 V2000
    0.4270    9.5070   -7.8250 Cl  0  0  0  0  0  0  0  0  0  0  0  0
   -0.5300    9.2870   -6.3260 C   0  0  1  0  0  0  0  0  0  0  0  0
   -0.4510   10.5240   -5.3710 C   0  0  1  0  0  0  0  0  0  0  0  0
   -1.9050    8.7080   -6.6810 C   0  0  0  0  0  0  0  0  0  0  0  0
    0.4970   11.4760   -5.9030 O   0  0  0  0  0  0  0  0  0  0  0  0
   -1.7340   11.3450   -5.0720 C   0  0  1  0  0  0  0  0  0  0  0  0
   -3.0210    9.7130   -6.5990 C   0  0  0  0  0  0  0  0  0  0  0  0
   -1.8330   12.7430   -5.7250 C   0  0  0  0  0  0  0  0  0  0  0  0
    1.1190   12.3530   -4.9320 C   0  0  0  0  0  0  0  0  0  0  0  0
   -2.9910   10.4950   -5.3020 C   0  0  0  0  0  0  0  0  0  0  0  0
    0.7940   12.1120   -3.4120 C   0  0  2  0  0  0  0  0  0  0  0  0
   -1.4440   13.9710   -4.8760 C   0  0  0  0  0  0  0  0  0  0  0  0
    1.8220   12.4440   -2.6620 O   0  0  0  0  0  0  0  0  0  0  0  0
    0.5910   10.7160   -3.1540 O   0  0  0  0  0  0  0  0  0  0  0  0
   -1.8240   13.7400   -3.5200 O   0  0  0  0  0  0  0  0  0  0  0  0
   -1.9560   14.9060   -2.6850 C   0  0  1  0  0  0  0  0  0  0  0  0
   -3.4370   15.2120   -2.4590 C   0  0  0  0  0  0  0  0  0  0  0  0
   -1.1450   14.6260   -1.3930 C   0  0  1  0  0  0  0  0  0  0  0  0
    0.1970   15.1150   -1.5180 O   0  0  0  0  0  0  0  0  0  0  0  0
   -3.9760   14.5220   -1.1960 C   0  0  2  0  0  0  0  0  0  0  0  0
   -1.7430   15.1690   -0.0910 C   0  0  0  0  0  0  0  0  0  0  0  0
   -5.5210   14.5450   -1.1520 C   0  0  2  0  0  0  0  0  0  0  0  0
   -3.2880   15.1970    0.0090 C   0  0  0  0  0  0  0  0  0  0  0  0
   -5.9870   15.2620   -2.1590 O   0  0  0  0  0  0  0  0  0  0  0  0
   -5.9580   15.3230   -0.0480 O   0  0  0  0  0  0  0  0  0  0  0  0
  2  1  1  6
  2  3  1  0
  2  4  1  0
  3  5  1  6
  3  6  1  0
  4  7  1  0
  6  8  1  6
  5  9  1  0
  6 10  1  0
  7 10  1  0
  9 11  1  0
  8 12  1  0
 11 13  1  1
 11 14  1  0
 12 15  1  0
 16 15  1  6
 16 17  1  0
 16 18  1  0
 18 19  1  6
 20 17  1  6
 18 21  1  0
 20 22  1  0
 20 23  1  0
 21 23  1  0
 22 24  1  6
 22 25  1  0
M  CHG  2  13  -1  24  -1
M  END
