ucsf339-ucsf124
     RDKit          3D

 29 32  0  0  0  0  0  0  0  0999 V2000
    0.7840   15.4420   -2.1390 O   0  0  0  0  0  0  0  0  0  0  0  0
    0.4890   14.3740   -2.8320 C   0  0  1  0  0  0  0  0  0  0  0  0
    0.9520   13.2210   -2.1250 O   0  0  0  0  0  0  0  0  0  0  0  0
   -1.0780   14.2960   -2.9880 C   0  0  1  0  0  0  0  0  0  0  0  0
    1.3230   12.1310   -2.9900 C   0  0  1  0  0  0  0  0  0  0  0  0
   -1.8530   14.4720   -1.6600 C   0  0  0  0  0  0  0  0  0  0  0  0
   -1.6460   15.1300   -4.1640 C   0  0  0  0  0  0  0  0  0  0  0  0
    0.6310   11.0450   -2.6480 O   0  0  0  0  0  0  0  0  0  0  0  0
    1.0170   12.5200   -4.5160 C   0  0  0  0  0  0  0  0  0  0  0  0
   -3.2600   15.0860   -1.8560 C   0  0  1  0  0  0  0  0  0  0  0  0
   -3.0970   15.0420   -4.3750 N   0  0  0  0  0  0  0  0  0  0  0  0
   -3.8140   14.5890   -3.1960 C   0  0  0  0  0  0  0  0  0  0  0  0
   -4.1930   15.0560   -0.6230 C   0  0  0  0  0  0  0  0  0  0  0  0
    0.2170   11.6910   -5.4480 N   0  0  0  0  0  0  0  0  0  0  0  0
   -3.4230   14.9140    0.6930 C   0  0  0  0  0  0  0  0  0  0  0  0
   -5.3130   14.0020   -0.6910 C   0  0  0  0  0  0  0  0  0  0  0  0
   -0.8410   10.7840   -5.0540 C   0  0  1  0  0  0  0  0  0  0  0  0
    0.8140   11.2540   -6.7120 C   0  0  2  0  0  0  0  0  0  0  0  0
   -1.9540   11.3280   -4.3720 O   0  0  0  0  0  0  0  0  0  0  0  0
    0.5030   12.1090   -7.7470 O   0  0  0  0  0  0  0  0  0  0  0  0
   -4.3470   15.2000    1.8430 C   0  0  0  0  0  0  0  0  0  0  0  0
   -6.2970   14.1710    0.4530 C   0  0  0  0  0  0  0  0  0  0  0  0
   -1.2820   10.2350   -6.4060 C   0  0  1  0  0  0  0  0  0  0  0  0
    0.0630    9.9510   -7.0310 C   0  0  1  0  0  0  0  0  0  0  0  0
   -5.6040   14.3160    1.8140 C   0  0  0  0  0  0  0  0  0  0  0  0
   -2.1940    9.0130   -6.4000 C   0  0  0  0  0  0  0  0  0  0  0  0
   -0.0320    9.5600   -8.5000 C   0  0  0  0  0  0  0  0  0  0  0  0
   -1.8950    8.0480   -7.5620 C   0  0  0  0  0  0  0  0  0  0  0  0
   -1.2820    8.7140   -8.7970 C   0  0  0  0  0  0  0  0  0  0  0  0
  2  1  1  1
  2  3  1  0
  2  4  1  0
  3  5  1  0
  4  6  1  1
  4  7  1  0
  5  8  1  1
  5  9  1  0
  6 10  1  0
  7 11  1  0
 10 12  1  0
 11 12  1  0
 10 13  1  1
  9 14  1  0
 13 15  1  0
 13 16  1  0
 14 17  1  0
 14 18  1  0
 17 19  1  6
 18 20  1  6
 15 21  1  0
 16 22  1  0
 17 23  1  0
 18 24  1  0
 23 24  1  0
 21 25  1  0
 22 25  1  0
 23 26  1  1
 24 27  1  6
 26 28  1  0
 27 29  1  0
 28 29  1  0
M  CHG  2   1  -1   8  -1
M  END
