ucsf241-ucsf337
     RDKit          3D

 19 22  0  0  0  0  0  0  0  0999 V2000
   -8.4700   15.4380   -0.2580 C   0  0  0  0  0  0  0  0  0  0  0  0
   -7.4140   14.3600   -0.4630 C   0  0  1  0  0  0  0  0  0  0  0  0
   -6.8900   14.3370   -1.8420 N   0  0  0  0  0  0  0  0  0  0  0  0
   -6.3670   14.2390    0.6250 C   0  0  2  0  0  0  0  0  0  0  0  0
   -7.0580   14.6590    2.4330 Br  0  0  0  0  0  0  0  0  0  0  0  0
   -5.1550   15.0720    0.3750 C   0  0  2  0  0  0  0  0  0  0  0  0
   -5.7530   15.1740   -2.1110 C   0  0  2  0  0  0  0  0  0  0  0  0
   -5.3110   14.8100   -3.4270 N   0  0  0  0  0  0  0  0  0  0  0  0
   -4.6280   15.1220   -1.0720 C   0  0  2  0  0  0  0  0  0  0  0  0
   -4.0240   14.6100    1.2000 C   0  0  2  0  0  0  0  0  0  0  0  0
   -3.4240   14.1250   -1.0340 C   0  0  2  0  0  0  0  0  0  0  0  0
   -2.9900   15.5560    1.3240 N   0  0  0  0  0  0  0  0  0  0  0  0
   -3.6590   13.4200    0.3130 C   0  0  0  0  0  0  0  0  0  0  0  0
   -2.0060   14.6180   -0.7790 C   0  0  1  0  0  0  0  0  0  0  0  0
   -1.8310   15.1520    0.6640 C   0  0  2  0  0  0  0  0  0  0  0  0
   -0.8040   13.7950   -1.1870 C   0  0  0  0  0  0  0  0  0  0  0  0
   -1.3550   14.1460    1.5050 N   0  0  0  0  0  0  0  0  0  0  0  0
    0.3520   14.2560   -0.3160 C   0  0  0  0  0  0  0  0  0  0  0  0
    0.0290   14.0940    1.1850 C   0  0  0  0  0  0  0  0  0  0  0  0
  2  1  1  1
  2  3  1  0
  2  4  1  0
  4  5  1  1
  4  6  1  0
  3  7  1  0
  7  8  1  6
  6  9  1  0
  9  7  1  6
  6 10  1  1
  9 11  1  0
 10 12  1  6
 10 13  1  0
 11 13  1  1
 11 14  1  0
 15 12  1  1
 14 15  1  0
 14 16  1  1
 15 17  1  0
 16 18  1  0
 17 19  1  0
 18 19  1  0
M  END
