ucsf365-ucsf411
     RDKit          3D

 17 18  0  0  0  0  0  0  0  0999 V2000
    0.1230   11.4700   -3.1220 O   0  0  0  0  0  0  0  0  0  0  0  0
    1.0450   12.3700   -2.8660 C   0  0  2  0  0  0  0  0  0  0  0  0
    0.6670   12.7690   -1.5550 O   0  0  0  0  0  0  0  0  0  0  0  0
    1.0360   13.5880   -3.9050 C   0  0  1  0  0  0  0  0  0  0  0  0
    2.2680   13.5880   -4.6200 O   0  0  0  0  0  0  0  0  0  0  0  0
   -0.1700   13.8030   -4.9100 C   0  0  1  0  0  0  0  0  0  0  0  0
   -1.3340   12.8580   -4.5780 C   0  0  2  0  0  0  0  0  0  0  0  0
   -0.6210   15.3170   -5.1670 C   0  0  0  0  0  0  0  0  0  0  0  0
   -0.9920   11.4760   -4.7600 O   0  0  0  0  0  0  0  0  0  0  0  0
   -2.7310   13.0950   -5.1810 C   0  0  0  0  0  0  0  0  0  0  0  0
   -2.1190   15.4780   -5.6380 C   0  0  0  0  0  0  0  0  0  0  0  0
    0.7070   16.1480   -5.5100 C   0  0  0  0  0  0  0  0  0  0  0  0
   -0.9340   16.2690   -4.1050 C   0  0  0  0  0  0  0  0  0  0  0  0
   -2.8100   14.2280   -6.1650 C   0  0  0  0  0  0  0  0  0  0  0  0
   -1.4990   17.5920   -4.7620 C   0  0  0  0  0  0  0  0  0  0  0  0
    0.6690   17.6410   -5.8540 C   0  0  0  0  0  0  0  0  0  0  0  0
   -0.7350   18.1270   -5.9480 C   0  0  0  0  0  0  0  0  0  0  0  0
  2  1  1  6
  2  3  1  0
  2  4  1  0
  4  5  1  6
  4  6  1  0
  6  7  1  0
  6  8  1  1
  7  9  1  6
  7 10  1  0
  8 11  1  0
  8 12  1  0
  8 13  1  0
 10 14  1  0
 11 14  1  0
 13 15  1  0
 12 16  1  0
 15 17  1  0
 16 17  1  0
M  CHG  1   1  -1
M  END
