ucsf012-ucsf336
     RDKit          3D

 30 33  0  0  0  0  0  0  0  0999 V2000
   -3.5870   15.3300   -4.0370 C   0  0  0  0  0  0  0  0  0  0  0  0
   -2.9810   14.9930   -2.6870 C   0  0  2  0  0  0  0  0  0  0  0  0
   -3.7390   15.3180   -1.3860 C   0  0  1  0  0  0  0  0  0  0  0  0
   -1.5840   15.4220   -2.4040 N   0  0  0  0  0  0  0  0  0  0  0  0
   -5.1780   14.8590   -1.2150 C   0  0  0  0  0  0  0  0  0  0  0  0
   -0.6330   14.5100   -3.0010 C   0  0  0  0  0  0  0  0  0  0  0  0
   -2.7360   14.5960   -0.5030 C   0  0  1  0  0  0  0  0  0  0  0  0
   -1.5090   15.3590   -0.9220 C   0  0  1  0  0  0  0  0  0  0  0  0
   -2.7760   14.6170    1.0050 C   0  0  2  0  0  0  0  0  0  0  0  0
   -0.2760   14.7570   -0.4450 N   0  0  0  0  0  0  0  0  0  0  0  0
   -0.8450   13.0650   -2.5420 C   0  0  2  0  0  0  0  0  0  0  0  0
   -3.7850   15.4440    1.6130 N   0  0  0  0  0  0  0  0  0  0  0  0
   -1.5420   15.1410    1.5250 N   0  0  0  0  0  0  0  0  0  0  0  0
   -0.3330   14.5520    0.9850 C   0  0  0  0  0  0  0  0  0  0  0  0
    0.3400   12.2830   -2.0010 C   0  0  0  0  0  0  0  0  0  0  0  0
   -1.5000   12.2670   -3.5210 O   0  0  0  0  0  0  0  0  0  0  0  0
   -0.5430   11.2550   -3.7600 C   0  0  2  0  0  0  0  0  0  0  0  0
   -0.0760   10.8980   -2.3840 C   0  0  0  0  0  0  0  0  0  0  0  0
    0.5940   11.8170   -4.6150 C   0  0  1  0  0  0  0  0  0  0  0  0
    1.0560   13.3360   -4.2970 C   0  0  2  0  0  0  0  0  0  0  0  0
    1.7760   11.1560   -4.2280 O   0  0  0  0  0  0  0  0  0  0  0  0
    0.1900   11.7520   -6.0270 N   0  0  0  0  0  0  0  0  0  0  0  0
    2.1400   13.6210   -4.9910 O   0  0  0  0  0  0  0  0  0  0  0  0
    1.6650   13.4360   -3.0170 O   0  0  0  0  0  0  0  0  0  0  0  0
   -0.9220   10.8880   -6.4090 C   0  0  0  0  0  0  0  0  0  0  0  0
   -0.8080   10.3670   -7.8430 C   0  0  0  0  0  0  0  0  0  0  0  0
   -2.3670   11.0690   -6.0070 C   0  0  0  0  0  0  0  0  0  0  0  0
   -1.5180    9.0220   -8.0450 C   0  0  0  0  0  0  0  0  0  0  0  0
   -2.9940    9.6710   -6.0070 C   0  0  0  0  0  0  0  0  0  0  0  0
   -2.8760    8.9150   -7.3390 C   0  0  0  0  0  0  0  0  0  0  0  0
  2  1  1  6
  2  3  1  0
  2  4  1  0
  3  5  1  6
  4  6  1  0
  3  7  1  0
  4  8  1  0
  7  8  1  0
  7  9  1  1
  8 10  1  6
 11  6  1  6
  9 12  1  6
  9 13  1  0
 10 14  1  0
 13 14  1  0
 11 15  1  0
 11 16  1  0
 16 17  1  0
 15 18  1  0
 17 18  1  1
 17 19  1  0
 19 20  1  0
 19 21  1  6
 19 22  1  0
 20 23  1  6
 20 24  1  0
 22 25  1  0
 25 26  1  0
 25 27  1  0
 26 28  1  0
 27 29  1  0
 28 30  1  0
 29 30  1  0
M  CHG  1  23  -1
M  END
