ucsf336-ucsf039
     RDKit          3D

 30 33  0  0  0  0  0  0  0  0999 V2000
    1.8930   12.9120   -4.4970 O   0  0  0  0  0  0  0  0  0  0  0  0
    0.7660   12.8200   -3.8210 C   0  0  2  0  0  0  0  0  0  0  0  0
    1.2260   12.8430   -2.4780 O   0  0  0  0  0  0  0  0  0  0  0  0
    0.0030   11.4990   -4.1610 C   0  0  2  0  0  0  0  0  0  0  0  0
   -0.1620   14.0020   -4.1040 C   0  0  0  0  0  0  0  0  0  0  0  0
    0.3260   10.4660   -3.2450 O   0  0  0  0  0  0  0  0  0  0  0  0
    0.2180   11.1800   -5.5540 N   0  0  0  0  0  0  0  0  0  0  0  0
   -0.3890   15.0400   -3.0030 C   0  0  2  0  0  0  0  0  0  0  0  0
   -0.8690   10.6020   -6.2940 C   0  0  0  0  0  0  0  0  0  0  0  0
   -1.5310   14.9750   -2.0400 N   0  0  0  0  0  0  0  0  0  0  0  0
   -0.2600   16.4610   -3.6440 C   0  0  1  0  0  0  0  0  0  0  0  0
   -0.3970    9.4880   -7.2240 C   0  0  0  0  0  0  0  0  0  0  0  0
   -2.0850   10.1860   -5.4460 C   0  0  0  0  0  0  0  0  0  0  0  0
   -2.8600   15.4650   -2.3430 C   0  0  0  0  0  0  0  0  0  0  0  0
   -1.0570   15.3290   -0.7230 C   0  0  1  0  0  0  0  0  0  0  0  0
    1.0500   16.5630   -4.4190 C   0  0  0  0  0  0  0  0  0  0  0  0
   -1.3470   16.8990   -4.5660 N   0  0  0  0  0  0  0  0  0  0  0  0
   -1.5280    8.9940   -8.1230 C   0  0  0  0  0  0  0  0  0  0  0  0
   -2.6990    8.8550   -5.8740 C   0  0  0  0  0  0  0  0  0  0  0  0
   -3.8710   15.0020   -1.3620 N   0  0  0  0  0  0  0  0  0  0  0  0
   -2.1030   15.3500    0.3980 C   0  0  1  0  0  0  0  0  0  0  0  0
   -0.1280   14.3320   -0.2630 N   0  0  0  0  0  0  0  0  0  0  0  0
   -0.7940   17.7520   -5.6240 C   0  0  2  0  0  0  0  0  0  0  0  0
    0.9040   18.1880   -5.1760 S   0  0  0  0  0  0  0  0  0  0  0  0
   -1.6220   18.9910   -5.9180 C   0  0  0  0  0  0  0  0  0  0  0  0
   -2.8360    8.7160   -7.3810 C   0  0  0  0  0  0  0  0  0  0  0  0
   -3.4360   14.7150   -0.0140 C   0  0  1  0  0  0  0  0  0  0  0  0
   -1.4660   14.6830    1.5510 N   0  0  0  0  0  0  0  0  0  0  0  0
   -0.0950   14.4330    1.1510 C   0  0  0  0  0  0  0  0  0  0  0  0
   -4.5450   15.1440    0.8530 N   0  0  0  0  0  0  0  0  0  0  0  0
  2  1  1  6
  2  3  1  0
  2  4  1  0
  2  5  1  0
  4  6  1  1
  4  7  1  0
  8  5  1  6
  7  9  1  0
  8 10  1  0
  8 11  1  0
  9 12  1  0
  9 13  1  0
 10 14  1  0
 10 15  1  0
 11 16  1  6
 11 17  1  0
 12 18  1  0
 13 19  1  0
 14 20  1  0
 15 21  1  0
 15 22  1  1
 17 23  1  0
 16 24  1  0
 23 24  1  0
 23 25  1  1
 18 26  1  0
 19 26  1  0
 20 27  1  0
 21 27  1  0
 21 28  1  1
 22 29  1  0
 28 29  1  0
 27 30  1  1
M  CHG  1   1  -1
M  END
