ucsf404-ucsf110
     RDKit          3D

 18 20  0  0  0  0  0  0  0  0999 V2000
   -6.7110   15.4520   -2.2540 Cl  0  0  0  0  0  0  0  0  0  0  0  0
   -5.0730   15.3780   -1.5180 C   0  0  1  0  0  0  0  0  0  0  0  0
   -5.1470   14.1960   -0.5810 C   0  0  2  0  0  0  0  0  0  0  0  0
   -4.0040   15.2640   -2.6010 C   0  0  0  0  0  0  0  0  0  0  0  0
   -6.1660   14.4270    0.4600 N   0  0  0  0  0  0  0  0  0  0  0  0
   -3.7810   13.7210   -0.0200 C   0  0  2  0  0  0  0  0  0  0  0  0
   -2.6340   14.7200   -2.1470 C   0  0  1  0  0  0  0  0  0  0  0  0
   -1.4880   15.5370   -2.8010 C   0  0  0  0  0  0  0  0  0  0  0  0
   -5.5040   14.8440    1.6460 C   0  0  2  0  0  0  0  0  0  0  0  0
   -4.0320   13.8410    1.7960 S   0  0  0  0  0  0  0  0  0  0  0  0
   -2.4860   14.4250   -0.6020 C   0  0  1  0  0  0  0  0  0  0  0  0
   -6.4990   14.6760    2.6590 N   0  0  0  0  0  0  0  0  0  0  0  0
   -2.2480   15.6340    0.3390 C   0  0  1  0  0  0  0  0  0  0  0  0
   -1.1520   13.6350   -0.5250 C   0  0  0  0  0  0  0  0  0  0  0  0
   -3.4460   16.1260    0.9770 N   0  0  0  0  0  0  0  0  0  0  0  0
   -1.4170   15.2290    1.4270 N   0  0  0  0  0  0  0  0  0  0  0  0
   -0.0360   14.5380   -0.3640 N   0  0  0  0  0  0  0  0  0  0  0  0
   -0.0640   14.9520    1.0060 C   0  0  0  0  0  0  0  0  0  0  0  0
  2  1  1  6
  2  3  1  0
  2  4  1  0
  3  5  1  1
  3  6  1  0
  4  7  1  0
  7  8  1  1
  5  9  1  0
  6 10  1  1
  9 10  1  0
  6 11  1  0
  7 11  1  0
  9 12  1  1
 11 13  1  0
 11 14  1  6
 13 15  1  1
 13 16  1  0
 14 17  1  0
 16 18  1  0
 17 18  1  0
M  END
