ucsf511-ucsf016
     RDKit          3D

 20 24  0  0  0  0  0  0  0  0999 V2000
    0.5440   12.8940   -1.1640 O   0  0  0  0  0  0  0  0  0  0  0  0
   -0.4120   13.3770   -2.0900 C   0  0  2  0  0  0  0  0  0  0  0  0
    0.3600   13.8310   -3.2740 N   0  0  0  0  0  0  0  0  0  0  0  0
   -1.3780   14.4800   -1.4500 C   0  0  1  0  0  0  0  0  0  0  0  0
   -2.3260   14.9300   -2.6250 C   0  0  1  0  0  0  0  0  0  0  0  0
   -0.2960   14.8400   -4.1240 C   0  0  0  0  0  0  0  0  0  0  0  0
   -2.3520   14.1390   -0.3600 N   0  0  0  0  0  0  0  0  0  0  0  0
   -0.5330   15.5350   -0.8220 N   0  0  0  0  0  0  0  0  0  0  0  0
   -1.8160   14.8000   -4.0410 C   0  0  0  0  0  0  0  0  0  0  0  0
   -3.7400   14.2970   -0.7950 C   0  0  2  0  0  0  0  0  0  0  0  0
   -3.6900   14.3960   -2.3110 C   0  0  1  0  0  0  0  0  0  0  0  0
    0.1420   15.0370    0.3720 C   0  0  0  0  0  0  0  0  0  0  0  0
   -2.1440   14.8900    0.8530 C   0  0  0  0  0  0  0  0  0  0  0  0
   -4.9290   14.9980   -2.8980 C   0  0  0  0  0  0  0  0  0  0  0  0
   -4.5070   15.4510   -0.1550 C   0  0  0  0  0  0  0  0  0  0  0  0
   -2.5620   13.9640   -5.0700 C   0  0  0  0  0  0  0  0  0  0  0  0
   -2.6320   15.4620   -5.1400 C   0  0  0  0  0  0  0  0  0  0  0  0
   -0.8280   14.7150    1.3690 N   0  0  0  0  0  0  0  0  0  0  0  0
   -6.1630   14.8790   -2.0110 C   0  0  0  0  0  0  0  0  0  0  0  0
   -5.9420   15.5780   -0.6890 C   0  0  0  0  0  0  0  0  0  0  0  0
  2  1  1  1
  2  3  1  0
  2  4  1  0
  4  5  1  0
  3  6  1  0
  4  7  1  0
  4  8  1  1
  5  9  1  6
  9  6  1  0
  7 10  1  0
  5 11  1  0
 10 11  1  0
  8 12  1  0
  7 13  1  0
 11 14  1  1
 10 15  1  1
  9 16  1  0
  9 17  1  0
 16 17  1  0
 12 18  1  0
 13 18  1  0
 14 19  1  0
 15 20  1  0
 19 20  1  0
M  END
