ucsf516-ucsf124
     RDKit          3D

 33 38  0  0  0  0  0  0  0  0999 V2000
    1.6780   11.8790   -3.9240 O   0  0  0  0  0  0  0  0  0  0  0  0
    1.2050   13.0760   -4.0670 C   0  0  1  0  0  0  0  0  0  0  0  0
    2.2920   13.9860   -3.9680 O   0  0  0  0  0  0  0  0  0  0  0  0
    0.2700   13.2560   -5.3850 C   0  0  2  0  0  0  0  0  0  0  0  0
   -0.8960   14.0930   -4.7850 C   0  0  1  0  0  0  0  0  0  0  0  0
   -0.2760   12.0250   -6.0520 N   0  0  0  0  0  0  0  0  0  0  0  0
   -0.5600   14.0230   -3.3440 C   0  0  2  0  0  0  0  0  0  0  0  0
   -1.1120   15.5950   -4.7960 C   0  0  0  0  0  0  0  0  0  0  0  0
   -0.7170   10.8870   -5.2480 C   0  0  1  0  0  0  0  0  0  0  0  0
    0.4420   11.5270   -7.1960 C   0  0  1  0  0  0  0  0  0  0  0  0
   -1.9390   11.1180   -4.5860 O   0  0  0  0  0  0  0  0  0  0  0  0
    1.8200   11.7240   -7.0160 O   0  0  0  0  0  0  0  0  0  0  0  0
   -0.1760   12.6240   -3.0350 C   0  0  0  0  0  0  0  0  0  0  0  0
   -1.6540   14.5940   -2.6640 N   0  0  0  0  0  0  0  0  0  0  0  0
   -1.8180   15.8410   -3.4280 C   0  0  0  0  0  0  0  0  0  0  0  0
   -0.8530    9.7050   -6.2250 C   0  0  2  0  0  0  0  0  0  0  0  0
    0.1350   10.0390   -7.3570 C   0  0  1  0  0  0  0  0  0  0  0  0
    1.1900   12.2070   -2.4900 C   0  0  0  0  0  0  0  0  0  0  0  0
   -0.7690   11.6580   -2.0200 C   0  0  0  0  0  0  0  0  0  0  0  0
   -1.5140   14.4860   -1.2290 C   0  0  1  0  0  0  0  0  0  0  0  0
   -2.2690    9.4070   -6.7150 C   0  0  0  0  0  0  0  0  0  0  0  0
   -0.4130    9.7000   -8.7400 C   0  0  0  0  0  0  0  0  0  0  0  0
    0.4650   10.8460   -2.4150 C   0  0  0  0  0  0  0  0  0  0  0  0
   -0.5050   15.3830   -0.7100 N   0  0  0  0  0  0  0  0  0  0  0  0
   -2.7940   14.3940   -0.4260 C   0  0  1  0  0  0  0  0  0  0  0  0
   -2.2770    8.2830   -7.7500 C   0  0  0  0  0  0  0  0  0  0  0  0
   -1.1020    8.3480   -8.7270 C   0  0  0  0  0  0  0  0  0  0  0  0
   -0.2360   15.0270    0.6500 C   0  0  0  0  0  0  0  0  0  0  0  0
   -2.5570   14.5930    1.0670 C   0  0  1  0  0  0  0  0  0  0  0  0
   -3.9080   15.3260   -0.8210 C   0  0  0  0  0  0  0  0  0  0  0  0
   -1.4020   15.3680    1.4030 N   0  0  0  0  0  0  0  0  0  0  0  0
   -3.6650   15.3760    1.5690 N   0  0  0  0  0  0  0  0  0  0  0  0
   -4.6040   15.6140    0.4770 C   0  0  0  0  0  0  0  0  0  0  0  0
  2  1  1  6
  2  3  1  0
  2  4  1  0
  4  5  1  0
  4  6  1  1
  5  7  1  0
  5  8  1  6
  6  9  1  0
  6 10  1  0
  9 11  1  6
 10 12  1  1
  7 13  1  1
  7 14  1  0
  8 15  1  0
 14 15  1  0
  9 16  1  0
 10 17  1  0
 16 17  1  0
 13 18  1  0
 13 19  1  0
 20 14  1  6
 16 21  1  6
 17 22  1  6
 18 23  1  0
 19 23  1  0
 20 24  1  0
 20 25  1  0
 21 26  1  0
 22 27  1  0
 26 27  1  0
 24 28  1  0
 25 29  1  0
 25 30  1  6
 28 31  1  0
 29 31  1  6
 29 32  1  0
 30 33  1  0
 32 33  1  0
M  CHG  1   1  -1
M  END
