ucsf320-ucsf412
     RDKit          3D

 13 14  0  0  0  0  0  0  0  0999 V2000
   -0.9640   14.5170   -1.7300 O   0  0  0  0  0  0  0  0  0  0  0  0
   -1.9300   15.1350   -2.3620 C   0  0  1  0  0  0  0  0  0  0  0  0
   -1.6330   14.7970   -3.7030 O   0  0  0  0  0  0  0  0  0  0  0  0
   -3.3000   14.5060   -1.9960 C   0  0  1  0  0  0  0  0  0  0  0  0
   -3.5460   14.3490   -0.4700 C   0  0  0  0  0  0  0  0  0  0  0  0
   -4.4210   15.2400   -2.7080 C   0  0  0  0  0  0  0  0  0  0  0  0
   -4.5070   15.3850    0.1000 C   0  0  1  0  0  0  0  0  0  0  0  0
   -5.7730   14.9240   -2.1080 C   0  0  0  0  0  0  0  0  0  0  0  0
   -5.8680   15.3580   -0.6410 C   0  0  1  0  0  0  0  0  0  0  0  0
   -4.5860   15.2790    1.6350 C   0  0  0  0  0  0  0  0  0  0  0  0
   -6.9210   14.4880    0.0690 C   0  0  0  0  0  0  0  0  0  0  0  0
   -5.8180   14.5900    2.2330 C   0  0  0  0  0  0  0  0  0  0  0  0
   -7.0730   14.7500    1.4990 N   0  0  0  0  0  0  0  0  0  0  0  0
  2  1  1  1
  2  3  1  0
  2  4  1  0
  4  5  1  1
  4  6  1  0
  7  5  1  6
  6  8  1  0
  7  9  1  0
  9  8  1  6
  7 10  1  0
  9 11  1  0
 10 12  1  0
 11 13  1  0
 12 13  1  0
M  CHG  1   1  -1
M  END
