ucsf017-ucsf336
     RDKit          3D

 30 34  0  0  0  0  0  0  0  0999 V2000
    1.7080   13.7860   -4.3660 O   0  0  0  0  0  0  0  0  0  0  0  0
    1.5610   12.7050   -3.6160 C   0  0  2  0  0  0  0  0  0  0  0  0
    2.8630   12.6000   -3.0770 O   0  0  0  0  0  0  0  0  0  0  0  0
    1.2900   11.3900   -4.5220 C   0  0  1  0  0  0  0  0  0  0  0  0
    0.5630   12.7960   -2.3900 C   0  0  2  0  0  0  0  0  0  0  0  0
    0.8560   10.3460   -3.6400 O   0  0  0  0  0  0  0  0  0  0  0  0
    0.2740   11.5530   -5.5760 N   0  0  0  0  0  0  0  0  0  0  0  0
   -0.3960   11.6140   -2.4410 C   0  0  0  0  0  0  0  0  0  0  0  0
   -0.2900   13.9890   -2.2440 N   0  0  0  0  0  0  0  0  0  0  0  0
   -0.9470   14.2820   -3.5050 C   0  0  2  0  0  0  0  0  0  0  0  0
   -1.2790   11.7790   -3.6660 C   0  0  0  0  0  0  0  0  0  0  0  0
   -0.8920   14.0330   -0.9160 C   0  0  1  0  0  0  0  0  0  0  0  0
   -0.4100   10.3030   -5.9410 C   0  0  0  0  0  0  0  0  0  0  0  0
   -2.4280   14.6280   -3.6250 C   0  0  0  0  0  0  0  0  0  0  0  0
   -0.9170   13.0720   -4.4320 C   0  0  1  0  0  0  0  0  0  0  0  0
   -0.0280   14.7760   -0.0150 N   0  0  0  0  0  0  0  0  0  0  0  0
   -2.3800   14.2870   -0.5690 C   0  0  1  0  0  0  0  0  0  0  0  0
   -0.3830   10.2110   -7.4700 C   0  0  0  0  0  0  0  0  0  0  0  0
   -1.8540   10.1640   -5.3810 C   0  0  0  0  0  0  0  0  0  0  0  0
   -1.9140   13.4230   -5.5100 C   0  0  0  0  0  0  0  0  0  0  0  0
   -2.7620   14.4630   -5.0130 O   0  0  0  0  0  0  0  0  0  0  0  0
   -0.2360   14.3450    1.3470 C   0  0  0  0  0  0  0  0  0  0  0  0
   -2.3010   15.1900    0.6250 C   0  0  2  0  0  0  0  0  0  0  0  0
   -3.3300   15.1720   -1.3480 C   0  0  0  0  0  0  0  0  0  0  0  0
   -1.1230    8.9710   -7.9600 C   0  0  0  0  0  0  0  0  0  0  0  0
   -2.6430    8.9770   -5.9150 C   0  0  0  0  0  0  0  0  0  0  0  0
   -1.6040   14.6220    1.7300 N   0  0  0  0  0  0  0  0  0  0  0  0
   -3.6640   15.4720    1.0150 N   0  0  0  0  0  0  0  0  0  0  0  0
   -4.3800   15.4750   -0.2720 C   0  0  0  0  0  0  0  0  0  0  0  0
   -2.5510    8.8580   -7.4270 C   0  0  0  0  0  0  0  0  0  0  0  0
  2  1  1  6
  2  3  1  0
  2  4  1  0
  2  5  1  0
  4  6  1  1
  4  7  1  0
  5  8  1  6
  5  9  1  0
  9 10  1  0
  8 11  1  0
 12  9  1  6
  7 13  1  0
 10 14  1  1
 10 15  1  0
 15 11  1  1
 12 16  1  0
 12 17  1  0
 13 18  1  0
 13 19  1  0
 15 20  1  0
 14 21  1  0
 20 21  1  0
 16 22  1  0
 17 23  1  0
 17 24  1  6
 18 25  1  0
 19 26  1  0
 22 27  1  0
 23 27  1  1
 23 28  1  0
 24 29  1  0
 28 29  1  0
 25 30  1  0
 26 30  1  0
M  CHG  1   1  -1
M  END
