ucsf274-ucsf404
     RDKit          3D

 29 32  0  0  0  0  0  0  0  0999 V2000
    0.5630   11.2450   -2.4560 O   0  0  0  0  0  0  0  0  0  0  0  0
    1.2420   12.3050   -2.8570 C   0  0  2  0  0  0  0  0  0  0  0  0
    1.4650   12.9580   -1.6460 O   0  0  0  0  0  0  0  0  0  0  0  0
    0.3770   13.2340   -3.7260 C   0  0  0  0  0  0  0  0  0  0  0  0
    0.5540   13.0350   -5.2410 C   0  0  0  0  0  0  0  0  0  0  0  0
   -0.5120   12.1370   -5.9100 C   0  0  2  0  0  0  0  0  0  0  0  0
   -1.5810   11.6030   -4.8810 C   0  0  1  0  0  0  0  0  0  0  0  0
    0.1860   11.0500   -6.6500 N   0  0  0  0  0  0  0  0  0  0  0  0
   -2.3750   12.6540   -4.3400 O   0  0  0  0  0  0  0  0  0  0  0  0
   -2.5210   10.6620   -5.4800 N   0  0  0  0  0  0  0  0  0  0  0  0
   -0.4840    9.7320   -6.7510 C   0  0  1  0  0  0  0  0  0  0  0  0
   -3.2190   12.2580   -3.2680 C   0  0  0  0  0  0  0  0  0  0  0  0
   -1.8170    9.4750   -5.9510 C   0  0  2  0  0  0  0  0  0  0  0  0
   -0.6100    9.4100   -8.2420 C   0  0  0  0  0  0  0  0  0  0  0  0
   -2.6350   12.7850   -1.9590 C   0  0  0  0  0  0  0  0  0  0  0  0
   -0.9570    7.9460   -8.4540 C   0  0  0  0  0  0  0  0  0  0  0  0
   -2.7830    8.6270   -6.7800 C   0  0  0  0  0  0  0  0  0  0  0  0
   -2.0880    7.4890   -7.5300 C   0  0  0  0  0  0  0  0  0  0  0  0
   -2.6370   14.3270   -1.7860 C   0  0  1  0  0  0  0  0  0  0  0  0
   -3.8940   15.0110   -2.4080 C   0  0  0  0  0  0  0  0  0  0  0  0
   -2.5240   14.6090   -0.2750 C   0  0  0  0  0  0  0  0  0  0  0  0
   -3.8350   15.2180    0.1590 C   0  0  1  0  0  0  0  0  0  0  0  0
   -5.2080   14.4900   -1.8160 C   0  0  2  0  0  0  0  0  0  0  0  0
   -6.6550   15.4630   -2.2270 Cl  0  0  0  0  0  0  0  0  0  0  0  0
   -5.0170   14.3780   -0.3060 C   0  0  2  0  0  0  0  0  0  0  0  0
   -4.0920   15.2990    1.9310 S   0  0  0  0  0  0  0  0  0  0  0  0
   -5.6600   14.4460    1.8350 C   0  0  2  0  0  0  0  0  0  0  0  0
   -6.1880   14.6920    0.5300 N   0  0  0  0  0  0  0  0  0  0  0  0
   -6.6180   14.9150    2.7780 N   0  0  0  0  0  0  0  0  0  0  0  0
  2  1  1  1
  2  3  1  0
  2  4  1  0
  4  5  1  0
  6  5  1  1
  6  7  1  0
  6  8  1  0
  7  9  1  6
  7 10  1  0
  8 11  1  0
  9 12  1  0
 10 13  1  0
 11 13  1  0
 11 14  1  6
 12 15  1  0
 14 16  1  0
 13 17  1  6
 16 18  1  0
 17 18  1  0
 19 15  1  1
 19 20  1  0
 19 21  1  0
 22 21  1  1
 20 23  1  0
 23 24  1  1
 22 25  1  0
 23 25  1  0
 22 26  1  0
 26 27  1  0
 25 28  1  1
 27 28  1  0
 27 29  1  1
M  CHG  1   1  -1
M  END
