ucsf523-ucsf338
     RDKit          3D

 17 18  0  0  0  0  0  0  0  0999 V2000
    0.0900   13.6670    1.3310 N   0  0  0  0  0  0  0  0  0  0  0  0
   -0.7020   14.7080    0.8160 C   0  0  2  0  0  0  0  0  0  0  0  0
   -1.9780   14.3730    1.3810 N   0  0  0  0  0  0  0  0  0  0  0  0
   -0.6430   14.5300   -0.5960 N   0  0  0  0  0  0  0  0  0  0  0  0
   -1.6920   15.2860   -1.2320 C   0  0  1  0  0  0  0  0  0  0  0  0
   -3.1350   14.8770    0.6700 C   0  0  1  0  0  0  0  0  0  0  0  0
   -1.5170   15.2160   -2.6380 O   0  0  0  0  0  0  0  0  0  0  0  0
   -3.0830   14.7660   -0.8530 C   0  0  1  0  0  0  0  0  0  0  0  0
   -4.2960   14.1400    1.1020 N   0  0  0  0  0  0  0  0  0  0  0  0
   -5.3870   15.0810    0.8380 C   0  0  2  0  0  0  0  0  0  0  0  0
   -4.2210   15.4800   -1.4760 N   0  0  0  0  0  0  0  0  0  0  0  0
   -6.6290   14.6110    1.4350 O   0  0  0  0  0  0  0  0  0  0  0  0
   -4.5240   14.8830   -2.7670 O   0  0  0  0  0  0  0  0  0  0  0  0
   -5.5100   15.5520   -0.6760 C   0  0  1  0  0  0  0  0  0  0  0  0
   -7.7600   14.5590    0.4860 O   0  0  0  0  0  0  0  0  0  0  0  0
   -6.7830   14.9920   -1.3680 C   0  0  0  0  0  0  0  0  0  0  0  0
   -6.7130   14.9150   -2.7870 O   0  0  0  0  0  0  0  0  0  0  0  0
  2  1  1  1
  2  3  1  0
  2  4  1  0
  4  5  1  0
  6  3  1  1
  5  7  1  6
  5  8  1  0
  6  8  1  0
  6  9  1  0
  9 10  1  0
  8 11  1  6
 10 12  1  6
 11 13  1  0
 10 14  1  0
 11 14  1  0
 12 15  1  0
 14 16  1  6
 16 17  1  0
M  END
