ucsf333-ucsf337
     RDKit          3D

 22 24  0  0  0  0  0  0  0  0999 V2000
   -5.3840   16.1850   -0.8790 Cl  0  0  0  0  0  0  0  0  0  0  0  0
   -4.5460   14.8110   -1.6920 C   0  0  1  0  0  0  0  0  0  0  0  0
   -3.6290   15.2710   -2.8250 C   0  0  0  0  0  0  0  0  0  0  0  0
   -3.9530   14.0140   -0.5450 C   0  0  1  0  0  0  0  0  0  0  0  0
   -5.8270   14.1470   -2.2250 C   0  0  2  0  0  0  0  0  0  0  0  0
   -6.3350   14.6390   -3.5070 N   0  0  0  0  0  0  0  0  0  0  0  0
   -2.1880   15.5720   -2.4950 C   0  0  2  0  0  0  0  0  0  0  0  0
   -2.5370   14.4930   -0.0970 C   0  0  0  0  0  0  0  0  0  0  0  0
   -5.0300   14.0590    0.5720 C   0  0  1  0  0  0  0  0  0  0  0  0
   -6.8890   14.4090   -1.2850 N   0  0  0  0  0  0  0  0  0  0  0  0
   -4.5330   15.4230    1.8750 Br  0  0  0  0  0  0  0  0  0  0  0  0
   -1.3440   14.7180   -3.3170 N   0  0  0  0  0  0  0  0  0  0  0  0
   -1.7530   15.4390   -1.0230 C   0  0  1  0  0  0  0  0  0  0  0  0
   -6.5510   13.9870    0.1090 C   0  0  2  0  0  0  0  0  0  0  0  0
   -7.5950   14.5830    1.0530 C   0  0  0  0  0  0  0  0  0  0  0  0
    0.0190   15.0120   -2.9400 C   0  0  1  0  0  0  0  0  0  0  0  0
   -0.0040   14.8980   -1.1260 S   0  0  0  0  0  0  0  0  0  0  0  0
    1.0170   14.1200   -3.6710 C   0  0  0  0  0  0  0  0  0  0  0  0
    0.5860   12.6510   -3.7500 C   0  0  0  0  0  0  0  0  0  0  0  0
    1.0210   11.8550   -2.4990 C   0  0  1  0  0  0  0  0  0  0  0  0
    0.4850   12.2940   -1.3770 O   0  0  0  0  0  0  0  0  0  0  0  0
    0.4650   10.5440   -2.5620 O   0  0  0  0  0  0  0  0  0  0  0  0
  2  1  1  1
  2  3  1  0
  2  4  1  0
  2  5  1  0
  5  6  1  6
  7  3  1  1
  4  8  1  1
  4  9  1  0
  5 10  1  0
  9 11  1  6
  7 12  1  0
  7 13  1  0
 13  8  1  1
  9 14  1  0
 10 14  1  0
 14 15  1  1
 12 16  1  0
 13 17  1  0
 16 17  1  0
 16 18  1  6
 18 19  1  0
 19 20  1  0
 20 21  1  1
 20 22  1  0
M  CHG  1  21  -1
M  END
