ucsf364-ucsf004
     RDKit          3D

 27 30  0  0  0  0  0  0  0  0999 V2000
    2.9130   13.0920   -4.5910 C   0  0  0  0  0  0  0  0  0  0  0  0
    1.7170   12.1670   -4.7340 C   0  0  2  0  0  0  0  0  0  0  0  0
    1.0570   12.2190   -6.1170 C   0  0  1  0  0  0  0  0  0  0  0  0
    0.6570   12.5000   -3.7160 C   0  0  2  0  0  0  0  0  0  0  0  0
    1.8580   11.6220   -7.1000 O   0  0  0  0  0  0  0  0  0  0  0  0
    1.2340   12.8630   -2.3010 C   0  0  1  0  0  0  0  0  0  0  0  0
   -0.3800   11.3980   -3.7070 C   0  0  0  0  0  0  0  0  0  0  0  0
   -0.3230   11.5520   -6.2760 C   0  0  0  0  0  0  0  0  0  0  0  0
    0.9420   14.2700   -2.2480 O   0  0  0  0  0  0  0  0  0  0  0  0
    0.5460   12.2030   -1.3740 O   0  0  0  0  0  0  0  0  0  0  0  0
   -1.0670   11.0600   -5.0370 C   0  0  0  0  0  0  0  0  0  0  0  0
   -0.1390   14.4500   -3.1080 C   0  0  1  0  0  0  0  0  0  0  0  0
   -1.2230   15.2270   -2.5800 N   0  0  0  0  0  0  0  0  0  0  0  0
    0.1570   14.9170   -4.5270 C   0  0  0  0  0  0  0  0  0  0  0  0
   -2.3730   14.5270   -3.1680 C   0  0  0  0  0  0  0  0  0  0  0  0
   -1.0380   14.4230   -5.3080 C   0  0  0  0  0  0  0  0  0  0  0  0
   -1.1870   15.2060   -1.1070 C   0  0  2  0  0  0  0  0  0  0  0  0
   -1.9830   13.6790   -4.3900 C   0  0  2  0  0  0  0  0  0  0  0  0
   -0.2380   14.2650   -0.5270 N   0  0  0  0  0  0  0  0  0  0  0  0
   -2.5080   14.8130   -0.5120 C   0  0  1  0  0  0  0  0  0  0  0  0
   -3.0840   13.1930   -5.0780 F   0  0  0  0  0  0  0  0  0  0  0  0
   -0.1890   14.3870    0.9390 C   0  0  0  0  0  0  0  0  0  0  0  0
   -2.3920   15.2730    0.8750 C   0  0  2  0  0  0  0  0  0  0  0  0
   -3.8050   15.4070   -1.0340 C   0  0  0  0  0  0  0  0  0  0  0  0
   -1.5020   14.4120    1.5870 N   0  0  0  0  0  0  0  0  0  0  0  0
   -3.7260   15.1630    1.3990 N   0  0  0  0  0  0  0  0  0  0  0  0
   -4.5900   15.5580    0.2590 C   0  0  0  0  0  0  0  0  0  0  0  0
  2  1  1  6
  2  3  1  0
  2  4  1  0
  3  5  1  6
  4  6  1  0
  4  7  1  1
  3  8  1  0
  6  9  1  0
  6 10  1  1
  7 11  1  0
  8 11  1  0
 12  9  1  1
 12 13  1  0
 12 14  1  0
 13 15  1  0
 14 16  1  0
 17 13  1  6
 15 18  1  0
 16 18  1  0
 17 19  1  0
 17 20  1  0
 18 21  1  6
 19 22  1  0
 20 23  1  0
 20 24  1  6
 22 25  1  0
 23 25  1  1
 23 26  1  0
 24 27  1  0
 26 27  1  0
M  CHG  1  10  -1
M  END
