ucsf170-ucsf247
     RDKit          3D

 22 23  0  0  0  0  0  0  0  0999 V2000
   -4.0290   15.9790    1.4810 C   0  0  0  0  0  0  0  0  0  0  0  0
   -2.5670   14.9190    1.6150 S   0  0  0  0  0  0  0  0  0  0  0  0
   -2.2360   14.6760   -0.1630 C   0  0  2  0  0  0  0  0  0  0  0  0
   -0.7880   14.2420   -0.4270 C   0  0  0  0  0  0  0  0  0  0  0  0
   -2.6090   15.9150   -0.9530 C   0  0  0  0  0  0  0  0  0  0  0  0
   -0.7100   13.6540   -1.8550 C   0  0  2  0  0  0  0  0  0  0  0  0
   -2.0280   15.8140   -2.3380 C   0  0  0  0  0  0  0  0  0  0  0  0
    0.6710   13.7120   -2.5470 C   0  0  2  0  0  0  0  0  0  0  0  0
   -1.8810   14.3360   -2.5950 C   0  0  1  0  0  0  0  0  0  0  0  0
   -2.1030   14.0160   -3.9380 O   0  0  0  0  0  0  0  0  0  0  0  0
    1.5250   14.6100   -1.8860 O   0  0  0  0  0  0  0  0  0  0  0  0
    0.5510   14.2370   -3.7380 O   0  0  0  0  0  0  0  0  0  0  0  0
   -3.4570   13.5270   -3.7400 N   0  0  0  0  0  0  0  0  0  0  0  0
   -4.2760   14.6370   -3.2040 C   0  0  2  0  0  0  0  0  0  0  0  0
   -3.6610   15.7650   -3.7970 O   0  0  0  0  0  0  0  0  0  0  0  0
   -4.4260   14.8830   -1.6510 C   0  0  1  0  0  0  0  0  0  0  0  0
   -5.7100   15.6430   -1.2780 C   0  0  0  0  0  0  0  0  0  0  0  0
   -4.3460   13.6000   -0.7760 C   0  0  0  0  0  0  0  0  0  0  0  0
   -6.6360   14.8950   -0.3020 C   0  0  1  0  0  0  0  0  0  0  0  0
   -4.6220   13.7810    0.7270 C   0  0  0  0  0  0  0  0  0  0  0  0
   -7.2580   13.8100   -0.9590 O   0  0  0  0  0  0  0  0  0  0  0  0
   -5.9810   14.4000    0.9900 C   0  0  0  0  0  0  0  0  0  0  0  0
  1  2  1  0
  3  2  1  1
  3  4  1  0
  3  5  1  0
  6  4  1  1
  5  7  1  0
  6  8  1  0
  6  9  1  0
  7  9  1  0
  9 10  1  6
  8 11  1  1
  8 12  1  0
 10 13  1  0
 13 14  1  0
 14 15  1  6
 14 16  1  0
 16 17  1  6
 16 18  1  0
 17 19  1  0
 18 20  1  0
 19 21  1  6
 19 22  1  0
 20 22  1  0
M  CHG  1  12  -1
M  END
