ucsf110-ucsf017
     RDKit          3D

 23 27  0  0  0  0  0  0  0  0999 V2000
    0.6110   15.3520   -3.9350 C   0  0  0  0  0  0  0  0  0  0  0  0
   -0.5180   15.7510   -3.0950 N   0  0  0  0  0  0  0  0  0  0  0  0
   -1.7470   15.6310   -3.9250 C   0  0  0  0  0  0  0  0  0  0  0  0
   -0.8730   14.8880   -2.0020 C   0  0  1  0  0  0  0  0  0  0  0  0
   -2.8770   15.3210   -2.9950 C   0  0  0  0  0  0  0  0  0  0  0  0
   -2.3000   14.7580   -1.7890 C   0  0  2  0  0  0  0  0  0  0  0  0
   -0.2680   13.7400   -1.7950 C   0  0  1  0  0  0  0  0  0  0  0  0
   -3.0580   15.0400   -0.1680 S   0  0  0  0  0  0  0  0  0  0  0  0
   -0.6930   13.5560   -0.2910 C   0  0  0  0  0  0  0  0  0  0  0  0
   -1.0340   13.2650   -3.0140 C   0  0  2  0  0  0  0  0  0  0  0  0
    1.2190   13.4490   -2.0100 C   0  0  0  0  0  0  0  0  0  0  0  0
   -3.2380   16.4650    1.1220 N   0  0  0  0  0  0  0  0  0  0  0  0
   -1.3460   14.6510    0.0780 N   0  0  0  0  0  0  0  0  0  0  0  0
   -1.9310   12.1370   -3.1810 C   0  0  0  0  0  0  0  0  0  0  0  0
   -0.2370   13.0460   -4.3040 C   0  0  2  0  0  0  0  0  0  0  0  0
    1.4080   12.1990   -2.7570 C   0  0  0  0  0  0  0  0  0  0  0  0
   -3.8920   13.8740    0.8330 N   0  0  0  0  0  0  0  0  0  0  0  0
   -4.5890   14.3920   -0.8630 C   0  0  0  0  0  0  0  0  0  0  0  0
   -1.3300   12.5030   -5.2870 C   0  0  0  0  0  0  0  0  0  0  0  0
   -2.4890   12.4840   -4.4430 O   0  0  0  0  0  0  0  0  0  0  0  0
    0.7220   12.0020   -4.0390 C   0  0  0  0  0  0  0  0  0  0  0  0
   -5.5380   15.1520   -0.0150 C   0  0  0  0  0  0  0  0  0  0  0  0
   -5.0730   14.4280    1.1820 C   0  0  0  0  0  0  0  0  0  0  0  0
  1  2  1  0
  2  3  1  0
  4  2  1  6
  3  5  1  0
  4  6  1  0
  6  5  1  6
  4  7  1  0
  6  8  1  0
  7  9  1  1
  7 10  1  0
  7 11  1  0
  8 12  1  0
  8 13  1  0
  9 13  1  0
 10 14  1  1
 10 15  1  0
 11 16  1  0
  8 17  1  0
  8 18  1  0
 15 19  1  6
 14 20  1  0
 19 20  1  0
 15 21  1  0
 16 21  1  0
 18 22  1  0
 17 23  1  0
 22 23  1  0
M  END
