ucsf110-ucsf511
     RDKit          3D

 20 23  0  0  0  0  0  0  0  0999 V2000
   -0.1300   15.3850   -2.8270 C   0  0  0  0  0  0  0  0  0  0  0  0
   -0.8820   14.1360   -2.3010 C   0  0  2  0  0  0  0  0  0  0  0  0
   -2.2970   13.9760   -2.8460 C   0  0  1  0  0  0  0  0  0  0  0  0
   -0.9600   14.0630   -0.7980 C   0  0  2  0  0  0  0  0  0  0  0  0
   -0.0180   13.0720   -2.8800 C   0  0  2  0  0  0  0  0  0  0  0  0
    1.2720   13.0680   -2.3010 O   0  0  0  0  0  0  0  0  0  0  0  0
   -3.3280   14.4290   -1.6920 C   0  0  0  0  0  0  0  0  0  0  0  0
   -2.4670   14.1120   -0.4020 C   0  0  2  0  0  0  0  0  0  0  0  0
   -0.1850   15.0310   -0.1120 N   0  0  0  0  0  0  0  0  0  0  0  0
   -2.2240   14.5020   -4.2190 N   0  0  0  0  0  0  0  0  0  0  0  0
    0.0650   13.3270   -4.2920 N   0  0  0  0  0  0  0  0  0  0  0  0
   -2.6530   14.5990    1.0550 C   0  0  2  0  0  0  0  0  0  0  0  0
   -0.3020   14.6820    1.2290 C   0  0  0  0  0  0  0  0  0  0  0  0
   -0.9160   14.2490   -4.9010 C   0  0  0  0  0  0  0  0  0  0  0  0
   -4.0160   15.7630   -1.9530 C   0  0  0  0  0  0  0  0  0  0  0  0
   -4.5910   13.5450   -1.5620 C   0  0  0  0  0  0  0  0  0  0  0  0
   -3.8280   15.3590    1.3740 N   0  0  0  0  0  0  0  0  0  0  0  0
   -1.5400   15.2990    1.5850 N   0  0  0  0  0  0  0  0  0  0  0  0
   -5.5290   15.6620   -1.7060 C   0  0  0  0  0  0  0  0  0  0  0  0
   -5.6660   14.4080   -0.9150 C   0  0  0  0  0  0  0  0  0  0  0  0
  2  1  1  1
  2  3  1  0
  2  4  1  0
  2  5  1  0
  5  6  1  1
  3  7  1  0
  4  8  1  0
  8  7  1  6
  4  9  1  1
  3 10  1  6
  5 11  1  0
  8 12  1  0
  9 13  1  0
 10 14  1  0
 11 14  1  0
  7 15  1  0
  7 16  1  0
 12 17  1  6
 12 18  1  0
 13 18  1  0
 15 19  1  0
 16 20  1  0
 19 20  1  0
M  END
