ucsf320-ucsf248
     RDKit          3D

 17 18  0  0  0  0  0  0  0  0999 V2000
   -1.1700   14.3360   -1.5200 O   0  0  0  0  0  0  0  0  0  0  0  0
   -1.8830   15.1130   -2.2860 C   0  0  1  0  0  0  0  0  0  0  0  0
   -1.7790   14.4490   -3.5290 O   0  0  0  0  0  0  0  0  0  0  0  0
   -3.3630   15.2230   -1.7950 C   0  0  2  0  0  0  0  0  0  0  0  0
   -3.7820   14.7240   -0.3930 C   0  0  0  0  0  0  0  0  0  0  0  0
   -4.3290   14.7150   -2.8840 C   0  0  0  0  0  0  0  0  0  0  0  0
   -5.1540   15.2840   -0.0360 C   0  0  1  0  0  0  0  0  0  0  0  0
   -5.8110   14.5580   -2.5020 C   0  0  0  0  0  0  0  0  0  0  0  0
   -6.2410   14.9490   -1.0800 C   0  0  2  0  0  0  0  0  0  0  0  0
   -5.7740   14.8440    1.2420 N   0  0  0  0  0  0  0  0  0  0  0  0
   -7.1630   16.0150   -1.1640 O   0  0  0  0  0  0  0  0  0  0  0  0
   -7.1600   14.6110    0.8120 C   0  0  1  0  0  0  0  0  0  0  0  0
   -7.0030   13.9090   -0.4170 N   0  0  0  0  0  0  0  0  0  0  0  0
   -8.2720   14.0220    2.1070 S   0  0  0  0  0  0  0  0  0  0  0  0
   -8.2030   12.4720    2.6680 N   0  0  0  0  0  0  0  0  0  0  0  0
   -8.0300   15.0520    3.3160 O   0  0  0  0  0  0  0  0  0  0  0  0
   -9.7300   14.3730    1.5260 O   0  0  0  0  0  0  0  0  0  0  0  0
  2  1  1  1
  2  3  1  0
  2  4  1  0
  4  5  1  1
  4  6  1  0
  7  5  1  6
  6  8  1  0
  7  9  1  0
  8  9  1  0
  7 10  1  0
  9 11  1  6
 10 12  1  0
  9 13  1  0
 12 13  1  0
 12 14  1  1
 14 15  1  0
 14 16  1  0
 14 17  1  0
M  CHG  1   1  -1
M  END
