ucsf367-ucsf523
     RDKit          3D

 26 28  0  0  0  0  0  0  0  0999 V2000
    0.5860   10.6550   -3.1050 O   0  0  0  0  0  0  0  0  0  0  0  0
    0.5340   11.9570   -3.3560 C   0  0  1  0  0  0  0  0  0  0  0  0
    1.4110   12.5510   -2.3870 O   0  0  0  0  0  0  0  0  0  0  0  0
    1.1200   12.3610   -4.7620 C   0  0  0  0  0  0  0  0  0  0  0  0
    0.6770   11.5430   -5.8650 O   0  0  0  0  0  0  0  0  0  0  0  0
    1.2720   13.9710   -2.3450 C   0  0  0  0  0  0  0  0  0  0  0  0
   -0.0800   14.3660   -2.9470 C   0  0  0  0  0  0  0  0  0  0  0  0
   -0.3740   10.6150   -5.6110 C   0  0  0  0  0  0  0  0  0  0  0  0
   -1.1490   13.7790   -2.1910 O   0  0  0  0  0  0  0  0  0  0  0  0
   -0.4780    9.7210   -6.8460 C   0  0  0  0  0  0  0  0  0  0  0  0
   -1.7270   11.3010   -5.3750 C   0  0  0  0  0  0  0  0  0  0  0  0
   -1.5730    8.6700   -6.6750 C   0  0  0  0  0  0  0  0  0  0  0  0
   -2.8810   10.3020   -5.2230 C   0  0  0  0  0  0  0  0  0  0  0  0
   -1.7080   14.7130   -1.3080 C   0  0  2  0  0  0  0  0  0  0  0  0
   -2.9450    9.2690   -6.3480 C   0  0  0  0  0  0  0  0  0  0  0  0
   -0.6920   14.8700   -0.2640 N   0  0  0  0  0  0  0  0  0  0  0  0
   -3.1110   14.4370   -0.6860 C   0  0  1  0  0  0  0  0  0  0  0  0
   -0.9250   13.9890    0.8090 C   0  0  1  0  0  0  0  0  0  0  0  0
   -3.0230   15.0280    0.7610 C   0  0  2  0  0  0  0  0  0  0  0  0
   -4.2150   15.1020   -1.4440 N   0  0  0  0  0  0  0  0  0  0  0  0
    0.1550   14.1640    1.7060 N   0  0  0  0  0  0  0  0  0  0  0  0
   -2.0500   14.3730    1.5910 N   0  0  0  0  0  0  0  0  0  0  0  0
   -4.2560   15.0650    1.5290 N   0  0  0  0  0  0  0  0  0  0  0  0
   -5.4430   15.2530   -0.6410 C   0  0  0  0  0  0  0  0  0  0  0  0
   -5.3590   14.5750    0.7500 C   0  0  2  0  0  0  0  0  0  0  0  0
   -6.4580   14.7980    1.5950 O   0  0  0  0  0  0  0  0  0  0  0  0
  2  1  1  6
  2  3  1  0
  2  4  1  0
  4  5  1  0
  3  6  1  0
  6  7  1  0
  5  8  1  0
  7  9  1  0
  8 10  1  0
  8 11  1  0
 10 12  1  0
 11 13  1  0
 14  9  1  6
 12 15  1  0
 13 15  1  0
 14 16  1  0
 14 17  1  0
 16 18  1  0
 17 19  1  0
 17 20  1  6
 18 21  1  1
 18 22  1  0
 19 22  1  1
 19 23  1  0
 20 24  1  0
 23 25  1  0
 24 25  1  0
 25 26  1  1
M  CHG  1   1  -1
M  END
