ucsf262-ucsf365
     RDKit          3D

 23 25  0  0  0  0  0  0  0  0999 V2000
   -3.1670   16.1170   -5.0230 Cl  0  0  0  0  0  0  0  0  0  0  0  0
   -1.6090   16.9270   -5.3000 C   0  0  2  0  0  0  0  0  0  0  0  0
   -0.4810   16.4990   -4.4390 C   0  0  1  0  0  0  0  0  0  0  0  0
   -1.5930   18.4080   -5.5400 C   0  0  0  0  0  0  0  0  0  0  0  0
   -0.3600   15.1580   -3.7580 C   0  0  0  0  0  0  0  0  0  0  0  0
    0.8030   16.6190   -5.1400 C   0  0  2  0  0  0  0  0  0  0  0  0
   -0.2720   18.6800   -6.2800 C   0  0  0  0  0  0  0  0  0  0  0  0
    0.9030   15.5070   -3.0330 C   0  0  2  0  0  0  0  0  0  0  0  0
    1.7350   16.2040   -4.0960 N   0  0  0  0  0  0  0  0  0  0  0  0
    0.9720   18.0920   -5.5660 C   0  0  0  0  0  0  0  0  0  0  0  0
    1.6650   14.4710   -2.0800 C   0  0  2  0  0  0  0  0  0  0  0  0
    2.9140   14.3060   -2.5500 O   0  0  0  0  0  0  0  0  0  0  0  0
    1.0350   13.1910   -1.9650 O   0  0  0  0  0  0  0  0  0  0  0  0
    1.2820   12.0880   -2.8440 C   0  0  1  0  0  0  0  0  0  0  0  0
    0.5420   11.0200   -2.5710 O   0  0  0  0  0  0  0  0  0  0  0  0
    0.8910   12.5440   -4.2820 C   0  0  0  0  0  0  0  0  0  0  0  0
   -0.5920   12.8610   -4.5570 C   0  0  2  0  0  0  0  0  0  0  0  0
   -1.4240   11.7910   -5.2780 C   0  0  2  0  0  0  0  0  0  0  0  0
   -0.7060   14.1640   -5.3100 C   0  0  0  0  0  0  0  0  0  0  0  0
   -0.7500   11.2830   -6.4000 O   0  0  0  0  0  0  0  0  0  0  0  0
   -2.8360   12.2660   -5.7340 C   0  0  0  0  0  0  0  0  0  0  0  0
   -2.1430   14.6580   -5.3330 C   0  0  0  0  0  0  0  0  0  0  0  0
   -3.0060   13.7310   -6.1420 C   0  0  0  0  0  0  0  0  0  0  0  0
  2  1  1  1
  2  3  1  0
  2  4  1  0
  3  5  1  6
  3  6  1  0
  4  7  1  0
  8  5  1  6
  6  9  1  0
  8  9  1  0
  6 10  1  1
  7 10  1  0
  8 11  1  0
 11 12  1  6
 11 13  1  0
 13 14  1  0
 14 15  1  1
 14 16  1  0
 17 16  1  6
 17 18  1  0
 17 19  1  0
 18 20  1  6
 18 21  1  0
 19 22  1  0
 21 23  1  0
 22 23  1  0
M  CHG  2  12  -1  15  -1
M  END
