ucsf442-ucsf151
     RDKit          3D

 21 23  0  0  0  0  0  0  0  0999 V2000
   -0.1150   15.4860    0.9860 O   0  0  0  0  0  0  0  0  0  0  0  0
   -1.2910   14.9830    0.4620 C   0  0  2  0  0  0  0  0  0  0  0  0
   -1.6540   15.7970   -0.6250 N   0  0  0  0  0  0  0  0  0  0  0  0
   -2.3230   15.1700    1.4120 N   0  0  0  0  0  0  0  0  0  0  0  0
   -3.5220   14.5090    0.9700 C   0  0  2  0  0  0  0  0  0  0  0  0
   -2.5950   15.0000   -1.3540 C   0  0  2  0  0  0  0  0  0  0  0  0
   -2.8190   15.5870   -2.6170 O   0  0  0  0  0  0  0  0  0  0  0  0
   -3.8520   14.5750   -0.5430 C   0  0  2  0  0  0  0  0  0  0  0  0
   -4.6670   15.1830    1.5770 N   0  0  0  0  0  0  0  0  0  0  0  0
   -5.1610   15.2690   -0.6110 N   0  0  0  0  0  0  0  0  0  0  0  0
   -5.6960   14.7870    0.6370 C   0  0  0  0  0  0  0  0  0  0  0  0
   -2.6780   14.5550   -3.5930 C   0  0  2  0  0  0  0  0  0  0  0  0
   -1.4400   13.6020   -3.4970 C   0  0  2  0  0  0  0  0  0  0  0  0
   -2.9080   15.1430   -4.9980 C   0  0  1  0  0  0  0  0  0  0  0  0
    0.0530   14.0130   -3.2710 C   0  0  2  0  0  0  0  0  0  0  0  0
   -1.9260   16.1140   -5.3900 O   0  0  0  0  0  0  0  0  0  0  0  0
   -2.9720   13.9690   -5.9870 C   0  0  0  0  0  0  0  0  0  0  0  0
   -1.6020   12.5040   -4.5530 C   0  0  0  0  0  0  0  0  0  0  0  0
    0.6910   13.1900   -2.4600 O   0  0  0  0  0  0  0  0  0  0  0  0
    0.1710   15.2490   -2.5940 O   0  0  0  0  0  0  0  0  0  0  0  0
   -1.8250   13.0480   -5.9140 N   0  0  0  0  0  0  0  0  0  0  0  0
  2  1  1  1
  2  3  1  0
  2  4  1  0
  5  4  1  6
  3  6  1  0
  6  7  1  6
  5  8  1  0
  6  8  1  0
  5  9  1  0
  8 10  1  1
  9 11  1  0
 10 11  1  0
 12  7  1  1
 12 13  1  0
 12 14  1  0
 13 15  1  0
 14 16  1  6
 14 17  1  0
 13 18  1  6
 15 19  1  1
 15 20  1  0
 17 21  1  0
 18 21  1  0
M  CHG  1  19  -1
M  END
