ucsf147-ucsf411
     RDKit          3D

 22 25  0  0  0  0  0  0  0  0999 V2000
    0.8110   12.8640   -5.5320 C   0  0  0  0  0  0  0  0  0  0  0  0
    1.7410   13.4360   -4.5140 C   0  0  0  0  0  0  0  0  0  0  0  0
    1.0580   13.5130   -3.1030 S   0  0  0  0  0  0  0  0  0  0  0  0
   -0.4020   13.2520   -4.7790 C   0  0  2  0  0  0  0  0  0  0  0  0
   -1.3880   13.2680   -5.7770 O   0  0  0  0  0  0  0  0  0  0  0  0
   -0.2240   14.7130   -3.9260 S   0  0  0  0  0  0  0  0  0  0  0  0
    1.0450   11.7410   -2.5340 O   0  0  0  0  0  0  0  0  0  0  0  0
    3.0010   14.0680   -2.4160 O   0  0  0  0  0  0  0  0  0  0  0  0
    1.7540   14.6390   -1.3880 O   0  0  0  0  0  0  0  0  0  0  0  0
   -2.3560   13.8300   -5.1080 N   0  0  0  0  0  0  0  0  0  0  0  0
   -2.0290   14.1400   -3.8020 C   0  0  2  0  0  0  0  0  0  0  0  0
    0.6530   16.3840   -3.6360 C   0  0  0  0  0  0  0  0  0  0  0  0
   -0.1880   15.9900   -5.3330 C   0  0  0  0  0  0  0  0  0  0  0  0
   -3.0290   14.1230   -2.8260 C   0  0  0  0  0  0  0  0  0  0  0  0
   -1.3440   16.8960   -5.2970 C   0  0  0  0  0  0  0  0  0  0  0  0
    0.4400   17.6540   -4.4090 C   0  0  0  0  0  0  0  0  0  0  0  0
   -2.3190   14.3830   -1.4950 C   0  0  0  0  0  0  0  0  0  0  0  0
   -3.9990   15.3100   -3.0210 C   0  0  0  0  0  0  0  0  0  0  0  0
   -0.7640   18.1560   -4.9980 C   0  0  0  0  0  0  0  0  0  0  0  0
   -3.3920   14.2450   -0.4180 C   0  0  0  0  0  0  0  0  0  0  0  0
   -4.9460   15.3920   -1.8850 C   0  0  0  0  0  0  0  0  0  0  0  0
   -4.3570   15.3950   -0.5320 C   0  0  0  0  0  0  0  0  0  0  0  0
  1  2  1  0
  2  3  1  0
  4  1  1  6
  4  5  1  0
  3  6  1  0
  4  6  1  0
  3  7  1  0
  3  8  1  0
  3  9  1  0
  5 10  1  0
  6 11  1  0
 10 11  1  0
  6 12  1  0
  6 13  1  0
 11 14  1  6
 13 15  1  0
 12 16  1  0
 14 17  1  0
 14 18  1  0
 15 19  1  0
 16 19  1  0
 17 20  1  0
 18 21  1  0
 20 22  1  0
 21 22  1  0
M  CHG  2   8  -1   9  -1
M  END
