ucsf523-ucsf173
     RDKit          3D

 25 28  0  0  0  0  0  0  0  0999 V2000
    0.2800   14.4340    1.5810 N   0  0  0  0  0  0  0  0  0  0  0  0
   -0.7380   14.1580    0.6500 C   0  0  1  0  0  0  0  0  0  0  0  0
   -1.8520   14.4710    1.4560 N   0  0  0  0  0  0  0  0  0  0  0  0
   -0.5780   15.0780   -0.4280 N   0  0  0  0  0  0  0  0  0  0  0  0
   -1.8760   15.3890   -1.0410 C   0  0  1  0  0  0  0  0  0  0  0  0
   -3.0830   14.1780    0.7800 C   0  0  2  0  0  0  0  0  0  0  0  0
   -1.7460   15.6250   -2.4490 O   0  0  0  0  0  0  0  0  0  0  0  0
   -2.9760   14.3250   -0.7750 C   0  0  1  0  0  0  0  0  0  0  0  0
   -4.0650   14.9890    1.4920 N   0  0  0  0  0  0  0  0  0  0  0  0
   -5.2540   15.1820    0.7120 C   0  0  2  0  0  0  0  0  0  0  0  0
   -4.2440   14.6780   -1.4670 N   0  0  0  0  0  0  0  0  0  0  0  0
   -1.1820   14.6290   -3.3390 C   0  0  2  0  0  0  0  0  0  0  0  0
   -6.3270   14.8890    1.5940 O   0  0  0  0  0  0  0  0  0  0  0  0
   -5.3490   14.3600   -0.5750 C   0  0  0  0  0  0  0  0  0  0  0  0
    0.2940   14.2280   -2.9450 C   0  0  1  0  0  0  0  0  0  0  0  0
   -1.0060   15.4140   -4.6530 C   0  0  2  0  0  0  0  0  0  0  0  0
    0.5590   12.6970   -2.7200 C   0  0  1  0  0  0  0  0  0  0  0  0
    0.2540   16.1780   -4.2860 C   0  0  1  0  0  0  0  0  0  0  0  0
    1.1610   14.9840   -3.9950 C   0  0  0  0  0  0  0  0  0  0  0  0
   -2.1580   16.3220   -5.1240 C   0  0  0  0  0  0  0  0  0  0  0  0
    0.4010   12.3740   -1.4410 O   0  0  0  0  0  0  0  0  0  0  0  0
   -0.4060   11.8970   -3.3620 O   0  0  0  0  0  0  0  0  0  0  0  0
   -1.7480   17.7930   -5.3310 C   0  0  0  0  0  0  0  0  0  0  0  0
    0.7380   17.1960   -5.3160 C   0  0  0  0  0  0  0  0  0  0  0  0
   -0.3900   17.9960   -5.9790 C   0  0  0  0  0  0  0  0  0  0  0  0
  2  1  1  1
  2  3  1  0
  2  4  1  0
  4  5  1  0
  6  3  1  1
  5  7  1  6
  5  8  1  0
  6  8  1  0
  6  9  1  0
  9 10  1  0
  8 11  1  1
 12  7  1  1
 10 13  1  1
 10 14  1  0
 11 14  1  0
 12 15  1  0
 12 16  1  0
 15 17  1  0
 16 18  1  0
 15 19  1  6
 18 19  1  6
 16 20  1  1
 17 21  1  1
 17 22  1  0
 20 23  1  0
 18 24  1  0
 23 25  1  0
 24 25  1  0
M  CHG  1  21  -1
M  END
