ucsf190-ucsf243
     RDKit          3D

 26 28  0  0  0  0  0  0  0  0999 V2000
    0.7000   10.5450   -2.5320 O   0  0  0  0  0  0  0  0  0  0  0  0
    0.5640   11.8470   -2.7950 C   0  0  1  0  0  0  0  0  0  0  0  0
    0.8510   12.3940   -1.5250 O   0  0  0  0  0  0  0  0  0  0  0  0
    1.5900   12.3520   -3.8890 C   0  0  0  0  0  0  0  0  0  0  0  0
    1.3090   13.7160   -4.5890 C   0  0  1  0  0  0  0  0  0  0  0  0
   -0.1910   14.0160   -4.5960 C   0  0  1  0  0  0  0  0  0  0  0  0
    2.0210   14.8470   -3.9700 N   0  0  0  0  0  0  0  0  0  0  0  0
   -0.5630   15.5630   -4.4160 C   0  0  1  0  0  0  0  0  0  0  0  0
    1.8290   16.0050   -4.8310 N   0  0  0  0  0  0  0  0  0  0  0  0
   -0.8980   13.1750   -5.7170 C   0  0  0  0  0  0  0  0  0  0  0  0
    0.5400   16.6020   -4.6070 C   0  0  1  0  0  0  0  0  0  0  0  0
   -1.9370   15.8110   -4.9590 C   0  0  0  0  0  0  0  0  0  0  0  0
   -2.3870   13.4550   -5.7480 C   0  0  0  0  0  0  0  0  0  0  0  0
    0.2490   17.5250   -5.6360 O   0  0  0  0  0  0  0  0  0  0  0  0
   -2.4570   14.4430   -4.6310 C   0  0  2  0  0  0  0  0  0  0  0  0
   -3.5800   14.5280   -3.8740 O   0  0  0  0  0  0  0  0  0  0  0  0
   -3.1820   15.3120   -2.7270 C   0  0  2  0  0  0  0  0  0  0  0  0
   -2.1620   14.6120   -1.7700 C   0  0  1  0  0  0  0  0  0  0  0  0
   -4.5080   15.4840   -2.0020 C   0  0  0  0  0  0  0  0  0  0  0  0
   -0.6630   14.3540   -2.1480 C   0  0  1  0  0  0  0  0  0  0  0  0
   -2.3080   15.2330   -0.3820 C   0  0  0  0  0  0  0  0  0  0  0  0
   -4.6610   14.5470   -0.8240 C   0  0  0  0  0  0  0  0  0  0  0  0
    0.0420   15.5510   -2.3490 O   0  0  0  0  0  0  0  0  0  0  0  0
   -0.0080   13.8980   -1.0960 O   0  0  0  0  0  0  0  0  0  0  0  0
   -3.6120   14.8020    0.2590 C   0  0  2  0  0  0  0  0  0  0  0  0
   -4.1010   15.7320    1.3560 C   0  0  0  0  0  0  0  0  0  0  0  0
  2  1  1  1
  2  3  1  0
  2  4  1  0
  5  4  1  1
  5  6  1  0
  5  7  1  0
  6  8  1  0
  7  9  1  0
  6 10  1  6
  8 11  1  0
  9 11  1  0
  8 12  1  6
 10 13  1  0
 11 14  1  6
 12 15  1  0
 13 15  1  0
 15 16  1  6
 17 16  1  6
 17 18  1  0
 17 19  1  0
 18 20  1  0
 18 21  1  1
 19 22  1  0
 20 23  1  1
 20 24  1  0
 21 25  1  0
 22 25  1  0
 25 26  1  1
M  CHG  2   1  -1  24  -1
M  END
