ucsf396-ucsf337
     RDKit          3D

 11 11  0  0  0  0  0  0  0  0999 V2000
   -2.8890   14.8620   -1.5510 N   0  0  0  0  0  0  0  0  0  0  0  0
   -3.6510   15.0690   -0.3560 C   0  0  2  0  0  0  0  0  0  0  0  0
   -2.7710   14.8120    0.7300 O   0  0  0  0  0  0  0  0  0  0  0  0
   -4.9270   14.1990   -0.2220 C   0  0  2  0  0  0  0  0  0  0  0  0
   -6.0270   14.4170   -1.2900 C   0  0  2  0  0  0  0  0  0  0  0  0
   -5.4260   14.2140    1.2260 C   0  0  1  0  0  0  0  0  0  0  0  0
   -5.6080   15.0920   -2.5020 N   0  0  0  0  0  0  0  0  0  0  0  0
   -4.4390   15.6060    2.1500 Br  0  0  0  0  0  0  0  0  0  0  0  0
   -7.1000   15.2490   -0.8160 N   0  0  0  0  0  0  0  0  0  0  0  0
   -6.9410   14.3590    1.4860 C   0  0  0  0  0  0  0  0  0  0  0  0
   -7.8160   14.5730    0.2520 C   0  0  0  0  0  0  0  0  0  0  0  0
  2  1  1  6
  2  3  1  0
  4  2  1  1
  4  5  1  0
  4  6  1  0
  5  7  1  6
  6  8  1  1
  5  9  1  0
  6 10  1  0
  9 11  1  0
 10 11  1  0
M  END
