ucsf424-ucsf403
     RDKit          3D

 16 18  0  0  0  0  0  0  0  0999 V2000
    1.5380   13.0790   -3.4290 O   0  0  0  0  0  0  0  0  0  0  0  0
    0.5520   12.2490   -3.2200 C   0  0  1  0  0  0  0  0  0  0  0  0
   -0.5150   13.1190   -2.9340 O   0  0  0  0  0  0  0  0  0  0  0  0
    0.1550   11.4280   -4.4610 C   0  0  1  0  0  0  0  0  0  0  0  0
   -1.1340   10.8070   -4.3790 O   0  0  0  0  0  0  0  0  0  0  0  0
    0.6220   11.7310   -5.9390 C   0  0  2  0  0  0  0  0  0  0  0  0
    0.2220   12.3080   -7.2290 N   0  0  0  0  0  0  0  0  0  0  0  0
   -0.4760   10.9410   -6.4880 C   0  0  2  0  0  0  0  0  0  0  0  0
   -1.6950   10.7650   -5.6270 C   0  0  2  0  0  0  0  0  0  0  0  0
   -2.8200   12.1680   -5.6320 Cl  0  0  0  0  0  0  0  0  0  0  0  0
    0.2900   11.1390   -8.2260 O   0  0  0  0  0  0  0  0  0  0  0  0
    0.1660   10.0310   -7.3590 C   0  0  2  0  0  0  0  0  0  0  0  0
   -2.5190    9.5180   -6.0100 C   0  0  0  0  0  0  0  0  0  0  0  0
   -0.5840    8.7370   -7.5890 C   0  0  1  0  0  0  0  0  0  0  0  0
   -2.1110    8.8720   -7.3670 C   0  0  0  0  0  0  0  0  0  0  0  0
   -0.0300    7.8910   -9.0390 Cl  0  0  0  0  0  0  0  0  0  0  0  0
  2  1  1  6
  2  3  1  0
  2  4  1  0
  4  5  1  6
  4  6  1  0
  6  7  1  6
  6  8  1  0
  5  9  1  0
  8  9  1  1
  9 10  1  1
  7 11  1  0
  8 12  1  0
 12 11  1  6
  9 13  1  0
 12 14  1  0
 13 15  1  0
 14 15  1  0
 14 16  1  6
M  CHG  1   1  -1
M  END
