ucsf516-ucsf403
     RDKit          3D

 31 35  0  0  0  0  0  0  0  0999 V2000
    0.6900    8.9580   -7.8570 Cl  0  0  0  0  0  0  0  0  0  0  0  0
   -0.8460    9.6190   -7.1750 C   0  0  2  0  0  0  0  0  0  0  0  0
   -0.6350   10.4070   -5.8740 C   0  0  1  0  0  0  0  0  0  0  0  0
   -1.8010    8.4540   -6.9620 C   0  0  0  0  0  0  0  0  0  0  0  0
    0.4270   11.3300   -6.1010 O   0  0  0  0  0  0  0  0  0  0  0  0
   -1.9660   11.1020   -5.4140 C   0  0  1  0  0  0  0  0  0  0  0  0
   -2.8860    8.8000   -5.9520 C   0  0  0  0  0  0  0  0  0  0  0  0
   -2.0620   12.6260   -5.6880 C   0  0  0  0  0  0  0  0  0  0  0  0
    0.8610   12.0430   -4.9420 C   0  0  0  0  0  0  0  0  0  0  0  0
   -3.1590   10.2950   -5.9270 C   0  0  0  0  0  0  0  0  0  0  0  0
    0.3260   11.5330   -3.5490 C   0  0  2  0  0  0  0  0  0  0  0  0
   -1.4600   13.5270   -4.6160 C   0  0  1  0  0  0  0  0  0  0  0  0
    1.2030   11.6720   -2.5860 O   0  0  0  0  0  0  0  0  0  0  0  0
    0.2260   10.1310   -3.5230 O   0  0  0  0  0  0  0  0  0  0  0  0
   -0.7340   14.8310   -4.8910 C   0  0  0  0  0  0  0  0  0  0  0  0
   -2.3950   13.9690   -3.5030 C   0  0  0  0  0  0  0  0  0  0  0  0
   -0.2270   14.9620   -3.4590 C   0  0  1  0  0  0  0  0  0  0  0  0
   -1.5010   14.8180   -2.7020 N   0  0  0  0  0  0  0  0  0  0  0  0
    0.6690   13.7280   -3.3060 C   0  0  0  0  0  0  0  0  0  0  0  0
   -1.5070   14.6930   -1.2250 C   0  0  2  0  0  0  0  0  0  0  0  0
    2.1090   13.9140   -3.8530 C   0  0  0  0  0  0  0  0  0  0  0  0
    1.3210   13.3510   -1.9620 C   0  0  0  0  0  0  0  0  0  0  0  0
   -0.6950   13.7560   -0.5080 N   0  0  0  0  0  0  0  0  0  0  0  0
   -2.8330   14.9370   -0.5030 C   0  0  2  0  0  0  0  0  0  0  0  0
    2.5480   12.9150   -2.7950 C   0  0  0  0  0  0  0  0  0  0  0  0
   -0.3140   14.2750    0.8040 C   0  0  0  0  0  0  0  0  0  0  0  0
   -2.6700   14.6520    0.9300 C   0  0  1  0  0  0  0  0  0  0  0  0
   -4.1630   14.2920   -0.7200 C   0  0  0  0  0  0  0  0  0  0  0  0
   -1.3930   15.0420    1.4420 N   0  0  0  0  0  0  0  0  0  0  0  0
   -3.8220   15.3500    1.4340 N   0  0  0  0  0  0  0  0  0  0  0  0
   -4.8840   14.9530    0.4730 C   0  0  0  0  0  0  0  0  0  0  0  0
  2  1  1  1
  2  3  1  0
  2  4  1  0
  3  5  1  6
  3  6  1  0
  4  7  1  0
  6  8  1  6
  5  9  1  0
  6 10  1  0
  7 10  1  0
  9 11  1  0
 12  8  1  6
 11 13  1  1
 11 14  1  0
 12 15  1  0
 12 16  1  0
 15 17  1  0
 16 18  1  0
 17 18  1  0
 17 19  1  1
 20 18  1  6
 19 21  1  0
 19 22  1  0
 20 23  1  0
 20 24  1  0
 21 25  1  0
 22 25  1  0
 23 26  1  0
 24 27  1  0
 24 28  1  6
 26 29  1  0
 27 29  1  1
 27 30  1  0
 28 31  1  0
 30 31  1  0
M  CHG  1  13  -1
M  END
