ucsf422-ucsf006
     RDKit          3D

 28 31  0  0  0  0  0  0  0  0999 V2000
    0.4990   10.7060   -2.4010 O   0  0  0  0  0  0  0  0  0  0  0  0
    0.5610   12.0390   -2.3950 C   0  0  1  0  0  0  0  0  0  0  0  0
    1.9240   12.3370   -2.1700 O   0  0  0  0  0  0  0  0  0  0  0  0
    0.2560   12.7800   -3.7710 C   0  0  2  0  0  0  0  0  0  0  0  0
   -1.2100   12.5760   -4.1570 C   0  0  0  0  0  0  0  0  0  0  0  0
    1.0820   12.1330   -4.7740 O   0  0  0  0  0  0  0  0  0  0  0  0
    0.6610   14.2990   -3.7510 C   0  0  1  0  0  0  0  0  0  0  0  0
   -2.1770   13.1750   -3.1250 C   0  0  0  0  0  0  0  0  0  0  0  0
    1.6920   14.7440   -4.7370 C   0  0  0  0  0  0  0  0  0  0  0  0
   -0.4430   15.3530   -3.9580 C   0  0  1  0  0  0  0  0  0  0  0  0
   -1.7760   14.4590   -2.5070 N   0  0  0  0  0  0  0  0  0  0  0  0
    1.6440   16.2180   -4.7140 N   0  0  0  0  0  0  0  0  0  0  0  0
    0.2790   16.6300   -4.4190 C   0  0  1  0  0  0  0  0  0  0  0  0
   -1.5320   14.9640   -4.9230 C   0  0  0  0  0  0  0  0  0  0  0  0
   -2.7800   15.4650   -2.8730 C   0  0  0  0  0  0  0  0  0  0  0  0
   -0.3410   17.4630   -5.5650 C   0  0  0  0  0  0  0  0  0  0  0  0
   -2.4940   16.1040   -5.1530 C   0  0  2  0  0  0  0  0  0  0  0  0
   -1.6880   14.4070   -1.0720 C   0  0  2  0  0  0  0  0  0  0  0  0
   -3.9650   15.3840   -6.2260 Br  0  0  0  0  0  0  0  0  0  0  0  0
   -1.8740   17.3860   -5.7210 C   0  0  0  0  0  0  0  0  0  0  0  0
   -2.7700   15.1230   -0.3200 C   0  0  2  0  0  0  0  0  0  0  0  0
   -0.4200   14.9910   -0.6440 N   0  0  0  0  0  0  0  0  0  0  0  0
   -2.5860   14.7710    1.1000 C   0  0  1  0  0  0  0  0  0  0  0  0
   -0.1760   14.7330    0.7630 C   0  0  0  0  0  0  0  0  0  0  0  0
   -4.1950   14.6630   -0.4610 C   0  0  0  0  0  0  0  0  0  0  0  0
   -1.2980   15.1580    1.5780 N   0  0  0  0  0  0  0  0  0  0  0  0
   -3.7180   15.3880    1.7660 N   0  0  0  0  0  0  0  0  0  0  0  0
   -4.7550   15.4290    0.7200 C   0  0  0  0  0  0  0  0  0  0  0  0
  2  1  1  6
  2  3  1  0
  2  4  1  0
  4  5  1  0
  4  6  1  6
  4  7  1  0
  5  8  1  0
  7  9  1  6
  7 10  1  0
  8 11  1  0
  9 12  1  0
 10 13  1  0
 12 13  1  0
 10 14  1  6
 11 15  1  0
 13 16  1  6
 14 17  1  0
 18 11  1  6
 17 19  1  6
 16 20  1  0
 17 20  1  0
 18 21  1  0
 18 22  1  0
 21 23  1  0
 22 24  1  0
 21 25  1  6
 23 26  1  1
 24 26  1  0
 23 27  1  0
 25 28  1  0
 27 28  1  0
M  CHG  1   1  -1
M  END
