ucsf337-ucsf392
     RDKit          3D

 17 18  0  0  0  0  0  0  0  0999 V2000
   -7.1210   14.2520    0.8780 C   0  0  0  0  0  0  0  0  0  0  0  0
   -6.5840   15.0310   -0.3330 C   0  0  2  0  0  0  0  0  0  0  0  0
   -6.7410   14.3120   -1.5830 N   0  0  0  0  0  0  0  0  0  0  0  0
   -5.1610   15.6770   -0.1410 C   0  0  1  0  0  0  0  0  0  0  0  0
   -4.6170   15.3530    1.1440 O   0  0  0  0  0  0  0  0  0  0  0  0
   -4.1320   15.3890   -1.2310 C   0  0  0  0  0  0  0  0  0  0  0  0
   -6.1860   15.1110   -2.6160 C   0  0  2  0  0  0  0  0  0  0  0  0
   -6.7330   14.6520   -3.8580 N   0  0  0  0  0  0  0  0  0  0  0  0
   -4.6770   15.0780   -2.6130 C   0  0  0  0  0  0  0  0  0  0  0  0
   -3.4120   14.5730    1.1030 C   0  0  1  0  0  0  0  0  0  0  0  0
   -3.3640   13.6750   -0.1390 C   0  0  1  0  0  0  0  0  0  0  0  0
   -2.1950   15.3560    1.0820 N   0  0  0  0  0  0  0  0  0  0  0  0
   -4.7190   13.0880   -0.5200 C   0  0  0  0  0  0  0  0  0  0  0  0
   -1.1210   14.5760    0.4950 C   0  0  2  0  0  0  0  0  0  0  0  0
   -2.6520   14.3700   -1.3080 C   0  0  0  0  0  0  0  0  0  0  0  0
    0.1790   15.2490    0.8240 C   0  0  0  0  0  0  0  0  0  0  0  0
   -1.2560   14.5780   -0.9460 N   0  0  0  0  0  0  0  0  0  0  0  0
  2  1  1  1
  2  3  1  0
  2  4  1  0
  4  5  1  1
  4  6  1  0
  3  7  1  0
  7  8  1  6
  6  9  1  0
  7  9  1  0
 10  5  1  6
 10 11  1  0
 10 12  1  0
 11 13  1  6
 12 14  1  0
 11 15  1  0
 14 16  1  6
 14 17  1  0
 15 17  1  0
M  END
