ucsf412-ucsf523
     RDKit          3D

 19 21  0  0  0  0  0  0  0  0999 V2000
   -7.9390   14.4480   -0.0270 O   0  0  0  0  0  0  0  0  0  0  0  0
   -6.8230   13.8630    0.6080 C   0  0  2  0  0  0  0  0  0  0  0  0
   -6.6280   14.6460    1.8050 N   0  0  0  0  0  0  0  0  0  0  0  0
   -5.6410   13.7160   -0.3980 C   0  0  2  0  0  0  0  0  0  0  0  0
   -4.1450   13.8590    0.1380 C   0  0  2  0  0  0  0  0  0  0  0  0
   -5.2640   15.1190    1.9490 C   0  0  0  0  0  0  0  0  0  0  0  0
   -6.0020   14.6360   -1.5180 C   0  0  1  0  0  0  0  0  0  0  0  0
   -6.4680   15.7890   -0.8100 O   0  0  0  0  0  0  0  0  0  0  0  0
   -4.2630   14.0240    1.6650 C   0  0  0  0  0  0  0  0  0  0  0  0
   -3.1430   14.9310   -0.5250 C   0  0  2  0  0  0  0  0  0  0  0  0
   -4.8250   14.9690   -2.3850 C   0  0  0  0  0  0  0  0  0  0  0  0
   -3.8660   15.7580   -1.5660 C   0  0  0  0  0  0  0  0  0  0  0  0
   -1.7790   14.5320   -1.1790 C   0  0  2  0  0  0  0  0  0  0  0  0
   -2.5960   15.8120    0.5740 C   0  0  0  0  0  0  0  0  0  0  0  0
   -1.9070   13.8320   -2.3980 O   0  0  0  0  0  0  0  0  0  0  0  0
   -0.8010   13.8980   -0.3240 N   0  0  0  0  0  0  0  0  0  0  0  0
   -1.7940   15.0270    1.4800 N   0  0  0  0  0  0  0  0  0  0  0  0
   -0.5870   14.5980    0.8990 C   0  0  1  0  0  0  0  0  0  0  0  0
    0.0680   13.7970    1.8430 N   0  0  0  0  0  0  0  0  0  0  0  0
  2  1  1  6
  2  3  1  0
  4  2  1  1
  4  5  1  0
  3  6  1  0
  4  7  1  0
  7  8  1  1
  5  9  1  1
  6  9  1  0
  5 10  1  0
  7 11  1  0
 10 12  1  6
 11 12  1  0
 10 13  1  0
 10 14  1  0
 13 15  1  6
 13 16  1  0
 14 17  1  0
 16 18  1  0
 17 18  1  0
 18 19  1  1
M  END
