ucsf340-ucsf365
     RDKit          3D

 22 24  0  0  0  0  0  0  0  0999 V2000
    1.1520   18.5860   -5.9910 C   0  0  0  0  0  0  0  0  0  0  0  0
    0.6620   17.3070   -5.5920 N   0  0  0  0  0  0  0  0  0  0  0  0
    1.2550   16.7080   -4.4140 C   0  0  0  0  0  0  0  0  0  0  0  0
   -0.6930   17.3660   -5.2810 C   0  0  2  0  0  0  0  0  0  0  0  0
    0.2090   15.8250   -3.7610 C   0  0  1  0  0  0  0  0  0  0  0  0
   -0.8970   15.9250   -4.8240 C   0  0  1  0  0  0  0  0  0  0  0  0
   -1.5390   17.8360   -6.4120 C   0  0  0  0  0  0  0  0  0  0  0  0
    0.8110   14.4380   -3.5140 C   0  0  0  0  0  0  0  0  0  0  0  0
   -2.3470   15.5790   -4.4700 C   0  0  0  0  0  0  0  0  0  0  0  0
   -2.8640   17.3010   -6.0740 C   0  0  0  0  0  0  0  0  0  0  0  0
   -0.2060   13.3760   -3.0210 C   0  0  2  0  0  0  0  0  0  0  0  0
   -3.1430   15.8510   -5.7330 C   0  0  0  0  0  0  0  0  0  0  0  0
    0.5050   12.2240   -2.2400 C   0  0  2  0  0  0  0  0  0  0  0  0
   -1.2320   13.0850   -4.1640 C   0  0  2  0  0  0  0  0  0  0  0  0
    1.8850   12.3020   -2.4550 O   0  0  0  0  0  0  0  0  0  0  0  0
    0.2600   11.0180   -2.7060 O   0  0  0  0  0  0  0  0  0  0  0  0
   -1.7750   11.6860   -4.4280 C   0  0  2  0  0  0  0  0  0  0  0  0
   -0.9920   13.7560   -5.5110 C   0  0  0  0  0  0  0  0  0  0  0  0
   -0.9540   10.9210   -5.2950 O   0  0  0  0  0  0  0  0  0  0  0  0
   -3.1290   11.8530   -5.1480 C   0  0  0  0  0  0  0  0  0  0  0  0
   -2.3560   14.0130   -6.1670 C   0  0  0  0  0  0  0  0  0  0  0  0
   -3.4930   13.3090   -5.4740 C   0  0  0  0  0  0  0  0  0  0  0  0
  1  2  1  0
  2  3  1  0
  2  4  1  0
  3  5  1  0
  4  6  1  0
  5  6  1  0
  4  7  1  6
  5  8  1  6
  6  9  1  1
  7 10  1  0
 11  8  1  6
  9 12  1  0
 10 12  1  0
 11 13  1  0
 11 14  1  0
 13 15  1  6
 13 16  1  0
 14 17  1  0
 14 18  1  6
 17 19  1  6
 17 20  1  0
 18 21  1  0
 20 22  1  0
 21 22  1  0
M  CHG  1  16  -1
M  END
