ucsf584-ucsf006
     RDKit          3D

 23 25  0  0  0  0  0  0  0  0999 V2000
   -2.0050   14.0710   -3.3780 C   0  0  0  0  0  0  0  0  0  0  0  0
   -1.0390   14.8750   -2.6170 N   0  0  0  0  0  0  0  0  0  0  0  0
    0.3700   14.6460   -3.0850 C   0  0  0  0  0  0  0  0  0  0  0  0
   -1.2960   14.9440   -1.1620 C   0  0  1  0  0  0  0  0  0  0  0  0
    0.6060   14.4620   -4.6020 C   0  0  0  0  0  0  0  0  0  0  0  0
   -2.8280   15.1010   -0.6950 C   0  0  2  0  0  0  0  0  0  0  0  0
   -0.6090   13.9540   -0.3720 N   0  0  0  0  0  0  0  0  0  0  0  0
    1.0560   13.0440   -5.0240 C   0  0  2  0  0  0  0  0  0  0  0  0
   -3.8740   14.0160   -0.3100 C   0  0  0  0  0  0  0  0  0  0  0  0
   -3.4970   15.9630   -1.6740 N   0  0  0  0  0  0  0  0  0  0  0  0
   -2.6020   15.7160    0.7150 C   0  0  0  0  0  0  0  0  0  0  0  0
   -0.6300   14.3590    1.0050 C   0  0  0  0  0  0  0  0  0  0  0  0
   -0.0720   12.2830   -5.4120 O   0  0  0  0  0  0  0  0  0  0  0  0
    1.5270   12.3650   -3.9970 O   0  0  0  0  0  0  0  0  0  0  0  0
   -4.4360   15.2000   -2.4800 C   0  0  0  0  0  0  0  0  0  0  0  0
   -5.2710   14.7120   -0.2320 C   0  0  2  0  0  0  0  0  0  0  0  0
   -1.1870   15.6920    1.0810 N   0  0  0  0  0  0  0  0  0  0  0  0
   -6.3990   14.1210    0.6340 C   0  0  0  0  0  0  0  0  0  0  0  0
   -5.6980   15.0680   -1.6570 C   0  0  0  0  0  0  0  0  0  0  0  0
   -6.5040   14.7920    1.9160 N   0  0  0  0  0  0  0  0  0  0  0  0
   -7.7190   14.3170    0.0040 N   0  0  0  0  0  0  0  0  0  0  0  0
   -8.6860   14.5140    1.0950 C   0  0  0  0  0  0  0  0  0  0  0  0
   -7.8590   14.5500    2.3660 C   0  0  0  0  0  0  0  0  0  0  0  0
  1  2  1  0
  2  3  1  0
  4  2  1  6
  3  5  1  0
  4  6  1  0
  4  7  1  0
  5  8  1  0
  6  9  1  1
  6 10  1  0
  6 11  1  0
  7 12  1  0
  8 13  1  1
  8 14  1  0
 10 15  1  0
  9 16  1  0
 11 17  1  0
 12 17  1  0
 16 18  1  6
 15 19  1  0
 16 19  1  0
 18 20  1  0
 18 21  1  0
 21 22  1  0
 20 23  1  0
 22 23  1  0
M  CHG  1  14  -1
M  END
