ucsf357-ucsf241
     RDKit          3D

 15 16  0  0  0  0  0  0  0  0999 V2000
   -6.4710   14.7080   -2.1020 O   0  0  0  0  0  0  0  0  0  0  0  0
   -5.5330   14.4890   -1.2210 C   0  0  2  0  0  0  0  0  0  0  0  0
   -5.9370   15.3160   -0.1550 O   0  0  0  0  0  0  0  0  0  0  0  0
   -4.1590   14.9510   -1.7660 C   0  0  2  0  0  0  0  0  0  0  0  0
   -3.2900   13.8310   -2.3190 C   0  0  0  0  0  0  0  0  0  0  0  0
   -3.3680   15.9060   -0.8810 C   0  0  0  0  0  0  0  0  0  0  0  0
   -1.8020   14.1560   -2.4740 C   0  0  1  0  0  0  0  0  0  0  0  0
   -2.1130   15.3910   -0.2300 C   0  0  2  0  0  0  0  0  0  0  0  0
   -1.6970   15.0090   -3.5460 F   0  0  0  0  0  0  0  0  0  0  0  0
   -1.1180   14.7680   -1.2160 C   0  0  2  0  0  0  0  0  0  0  0  0
   -2.5030   14.4470    0.8770 C   0  0  0  0  0  0  0  0  0  0  0  0
   -0.1480   15.7330   -1.6520 O   0  0  0  0  0  0  0  0  0  0  0  0
   -0.2840   13.7650   -0.4210 C   0  0  0  0  0  0  0  0  0  0  0  0
   -1.3860   14.3190    1.7750 N   0  0  0  0  0  0  0  0  0  0  0  0
   -0.1350   14.1620    1.0520 C   0  0  0  0  0  0  0  0  0  0  0  0
  2  1  1  6
  2  3  1  0
  2  4  1  0
  4  5  1  1
  4  6  1  0
  5  7  1  0
  8  6  1  6
  7  9  1  6
  7 10  1  0
  8 10  1  0
  8 11  1  0
 10 12  1  6
 10 13  1  0
 11 14  1  0
 13 15  1  0
 14 15  1  0
M  CHG  1   1  -1
M  END
