ucsf412-ucsf345
     RDKit          3D

 13 15  0  0  0  0  0  0  0  0999 V2000
   -7.3400   13.6350   -0.2970 O   0  0  0  0  0  0  0  0  0  0  0  0
   -7.3530   14.8410   -1.0360 C   0  0  1  0  0  0  0  0  0  0  0  0
   -8.1890   15.6880   -0.2480 N   0  0  0  0  0  0  0  0  0  0  0  0
   -6.4040   13.8930    0.7420 C   0  0  1  0  0  0  0  0  0  0  0  0
   -5.4880   14.9500    0.2440 C   0  0  2  0  0  0  0  0  0  0  0  0
   -6.8140   14.3850    2.0240 N   0  0  0  0  0  0  0  0  0  0  0  0
   -5.8930   15.3030   -1.1360 C   0  0  1  0  0  0  0  0  0  0  0  0
   -4.1640   14.4580    0.6230 C   0  0  2  0  0  0  0  0  0  0  0  0
   -5.6010   14.6310    2.8410 C   0  0  0  0  0  0  0  0  0  0  0  0
   -4.8860   14.7530   -2.1190 C   0  0  0  0  0  0  0  0  0  0  0  0
   -4.1790   14.6540    2.1580 C   0  0  0  0  0  0  0  0  0  0  0  0
   -3.1480   15.2080   -0.1880 C   0  0  0  0  0  0  0  0  0  0  0  0
   -3.5310   15.3430   -1.6950 C   0  0  0  0  0  0  0  0  0  0  0  0
  1  2  1  0
  2  3  1  1
  1  4  1  0
  5  4  1  6
  4  6  1  1
  2  7  1  0
  5  7  1  0
  5  8  1  0
  6  9  1  0
  7 10  1  6
  8 11  1  1
  9 11  1  0
  8 12  1  0
 10 13  1  0
 12 13  1  0
M  END
