ucsf169-ucsf278
     RDKit          3D

 24 26  0  0  0  0  0  0  0  0999 V2000
    1.3410   18.4940   -5.8180 C   0  0  0  0  0  0  0  0  0  0  0  0
   -0.0110   18.3280   -5.5290 O   0  0  0  0  0  0  0  0  0  0  0  0
   -0.2660   17.2820   -4.6060 C   0  0  1  0  0  0  0  0  0  0  0  0
   -1.7710   17.0860   -4.4200 C   0  0  1  0  0  0  0  0  0  0  0  0
    0.4690   16.0400   -5.0680 C   0  0  0  0  0  0  0  0  0  0  0  0
   -2.3630   18.3300   -4.7110 O   0  0  0  0  0  0  0  0  0  0  0  0
   -2.4440   16.0170   -5.2740 C   0  0  0  0  0  0  0  0  0  0  0  0
   -0.3190   14.8010   -4.6760 C   0  0  1  0  0  0  0  0  0  0  0  0
   -1.7480   14.6730   -5.2050 C   0  0  0  0  0  0  0  0  0  0  0  0
    0.4560   13.4800   -4.3320 C   0  0  1  0  0  0  0  0  0  0  0  0
   -0.2060   12.8190   -3.0820 C   0  0  2  0  0  0  0  0  0  0  0  0
    0.2660   12.5420   -5.4590 N   0  0  0  0  0  0  0  0  0  0  0  0
    1.8990   13.8990   -4.0710 C   0  0  0  0  0  0  0  0  0  0  0  0
   -1.0830   11.9960   -5.2510 C   0  0  2  0  0  0  0  0  0  0  0  0
   -1.4450   12.1820   -3.7600 C   0  0  0  0  0  0  0  0  0  0  0  0
   -0.3590   14.0400   -2.0530 C   0  0  2  0  0  0  0  0  0  0  0  0
    2.0290   14.8080   -2.8780 C   0  0  0  0  0  0  0  0  0  0  0  0
    0.6310   11.9030   -2.1710 C   0  0  2  0  0  0  0  0  0  0  0  0
   -1.9600   14.8680   -1.8920 Cl  0  0  0  0  0  0  0  0  0  0  0  0
   -1.2000   10.5530   -5.7320 C   0  0  0  0  0  0  0  0  0  0  0  0
    0.7260   15.1320   -2.1260 C   0  0  0  0  0  0  0  0  0  0  0  0
    1.9670   12.1780   -2.4200 O   0  0  0  0  0  0  0  0  0  0  0  0
    0.4980   10.6070   -2.3900 O   0  0  0  0  0  0  0  0  0  0  0  0
   -2.5340   10.0850   -5.5320 O   0  0  0  0  0  0  0  0  0  0  0  0
  1  2  1  0
  3  2  1  6
  3  4  1  0
  3  5  1  0
  4  6  1  6
  4  7  1  0
  8  5  1  6
  7  9  1  0
  8  9  1  0
  8 10  1  0
 10 11  1  0
 10 12  1  0
 10 13  1  1
 12 14  1  0
 11 15  1  6
 14 15  1  0
 11 16  1  0
 13 17  1  0
 11 18  1  0
 16 19  1  6
 14 20  1  1
 16 21  1  0
 17 21  1  0
 18 22  1  6
 18 23  1  0
 20 24  1  0
M  CHG  1  23  -1
M  END
