ucsf385-ucsf135
     RDKit          3D

 23 25  0  0  0  0  0  0  0  0999 V2000
   -3.4990   14.0950   -1.4580 N   0  0  0  0  0  0  0  0  0  0  0  0
   -2.6200   14.8020   -0.5240 C   0  0  1  0  0  0  0  0  0  0  0  0
   -2.8150   14.2850    0.9150 C   0  0  0  0  0  0  0  0  0  0  0  0
   -1.0940   14.7440   -0.8630 C   0  0  2  0  0  0  0  0  0  0  0  0
   -0.7360   14.7200   -2.3550 C   0  0  1  0  0  0  0  0  0  0  0  0
   -0.3900   13.6660   -0.0580 C   0  0  0  0  0  0  0  0  0  0  0  0
   -1.7050   14.5730    1.8130 N   0  0  0  0  0  0  0  0  0  0  0  0
    0.4870   14.0560   -2.5800 O   0  0  0  0  0  0  0  0  0  0  0  0
   -1.7660   14.1900   -3.1570 O   0  0  0  0  0  0  0  0  0  0  0  0
   -0.4100   14.0310    1.4200 C   0  0  0  0  0  0  0  0  0  0  0  0
   -1.9480   12.7960   -2.9840 C   0  0  0  0  0  0  0  0  0  0  0  0
   -1.8730   12.2090   -4.2610 O   0  0  0  0  0  0  0  0  0  0  0  0
   -0.6840   11.2230   -4.6260 S   0  0  2  0  0  0  0  0  0  0  0  0
   -0.3960   10.1800   -3.4550 O   0  0  0  0  0  0  0  0  0  0  0  0
    0.6810   11.8670   -5.3130 N   0  0  0  0  0  0  0  0  0  0  0  0
   -1.3460   10.3070   -5.9780 C   0  0  1  0  0  0  0  0  0  0  0  0
    0.8490   11.3280   -6.6690 C   0  0  1  0  0  0  0  0  0  0  0  0
   -0.1010   10.1010   -6.8470 C   0  0  2  0  0  0  0  0  0  0  0  0
   -2.0290    8.9890   -5.7080 C   0  0  0  0  0  0  0  0  0  0  0  0
    0.4960   12.3350   -7.5390 O   0  0  0  0  0  0  0  0  0  0  0  0
   -2.1340    8.1460   -6.9890 C   0  0  0  0  0  0  0  0  0  0  0  0
   -0.5270    9.7390   -8.2590 C   0  0  0  0  0  0  0  0  0  0  0  0
   -1.8340    8.9230   -8.2790 C   0  0  0  0  0  0  0  0  0  0  0  0
  2  1  1  6
  2  3  1  0
  2  4  1  0
  4  5  1  0
  4  6  1  1
  3  7  1  0
  5  8  1  1
  5  9  1  0
  6 10  1  0
  7 10  1  0
  9 11  1  0
 11 12  1  0
 13 12  1  0
 13 14  1  1
 13 15  1  0
 13 16  1  0
 15 17  1  0
 16 18  1  0
 17 18  1  0
 16 19  1  1
 17 20  1  6
 19 21  1  0
 18 22  1  6
 21 23  1  0
 22 23  1  0
M  END
