ucsf016-ucsf030
     RDKit          3D

 24 27  0  0  0  0  0  0  0  0999 V2000
   -3.4960   16.1980    0.4790 Cl  0  0  0  0  0  0  0  0  0  0  0  0
   -2.7740   15.1810   -0.7950 C   0  0  2  0  0  0  0  0  0  0  0  0
   -2.6900   13.8840   -0.0260 C   0  0  1  0  0  0  0  0  0  0  0  0
   -1.3220   15.5250   -1.3120 C   0  0  2  0  0  0  0  0  0  0  0  0
   -3.9010   14.8570   -1.7400 C   0  0  0  0  0  0  0  0  0  0  0  0
   -0.8990   15.4300   -2.7380 N   0  0  0  0  0  0  0  0  0  0  0  0
   -0.3130   14.8130   -0.5320 N   0  0  0  0  0  0  0  0  0  0  0  0
   -1.9050   14.0170    1.1920 N   0  0  0  0  0  0  0  0  0  0  0  0
   -4.1170   13.5810    0.2720 N   0  0  0  0  0  0  0  0  0  0  0  0
   -4.9080   14.3080   -0.7430 C   0  0  0  0  0  0  0  0  0  0  0  0
   -2.7350   14.7590    2.1460 N   0  0  0  0  0  0  0  0  0  0  0  0
    0.4490   15.8140   -3.1110 C   0  0  0  0  0  0  0  0  0  0  0  0
   -1.8890   15.8430   -3.7280 C   0  0  0  0  0  0  0  0  0  0  0  0
   -0.6450   14.7330    0.8900 C   0  0  0  0  0  0  0  0  0  0  0  0
   -2.0670   14.8680   -4.9000 C   0  0  0  0  0  0  0  0  0  0  0  0
   -3.2380   15.0970   -5.8530 C   0  0  0  0  0  0  0  0  0  0  0  0
   -3.3310   14.0070   -4.8550 C   0  0  0  0  0  0  0  0  0  0  0  0
   -0.8020   14.1700   -5.4600 C   0  0  0  0  0  0  0  0  0  0  0  0
    0.0550   13.2110   -4.6130 C   0  0  0  0  0  0  0  0  0  0  0  0
   -0.2700   11.7500   -4.9360 C   0  0  0  0  0  0  0  0  0  0  0  0
   -0.0800   13.3940   -3.1140 C   0  0  0  0  0  0  0  0  0  0  0  0
   -1.6080   11.2760   -4.3620 C   0  0  0  0  0  0  0  0  0  0  0  0
   -1.4960   13.1360   -2.6340 C   0  0  0  0  0  0  0  0  0  0  0  0
   -1.9020   11.7080   -2.9210 C   0  0  0  0  0  0  0  0  0  0  0  0
  2  1  1  1
  2  3  1  0
  2  4  1  0
  2  5  1  0
  4  6  1  6
  4  7  1  0
  3  8  1  0
  3  9  1  1
  5 10  1  0
  9 10  1  0
  8 11  1  0
  6 12  1  0
  6 13  1  0
  7 14  1  0
  8 14  1  0
 15 13  1  0
 15 16  1  0
 15 17  1  0
 16 17  1  0
 15 18  1  0
 18 19  1  0
 19 20  1  0
 19 21  1  0
 20 22  1  0
 21 23  1  0
 22 24  1  0
 23 24  1  0
M  END
