ucsf487-ucsf348
     RDKit          3D

 12 13  0  0  0  0  0  0  0  0999 V2000
   -7.5900   13.5090    2.6050 N   0  0  0  0  0  0  0  0  0  0  0  0
   -7.1020   14.5840    1.7450 C   0  0  2  0  0  0  0  0  0  0  0  0
   -7.8390   14.6230    0.3790 C   0  0  0  0  0  0  0  0  0  0  0  0
   -5.5650   14.5260    1.6030 C   0  0  0  0  0  0  0  0  0  0  0  0
   -4.9060   15.2230    0.4010 C   0  0  2  0  0  0  0  0  0  0  0  0
   -6.9400   14.3570   -0.7550 N   0  0  0  0  0  0  0  0  0  0  0  0
   -7.6900   14.6490   -1.9640 O   0  0  0  0  0  0  0  0  0  0  0  0
   -5.8120   15.2870   -0.8500 C   0  0  2  0  0  0  0  0  0  0  0  0
   -3.5230   14.6690    0.0900 C   0  0  0  0  0  0  0  0  0  0  0  0
   -5.1370   14.9080   -2.1950 C   0  0  0  0  0  0  0  0  0  0  0  0
   -2.8980   15.4250   -1.0750 C   0  0  0  0  0  0  0  0  0  0  0  0
   -3.6720   15.2850   -2.3820 C   0  0  0  0  0  0  0  0  0  0  0  0
  2  1  1  6
  2  3  1  0
  2  4  1  0
  5  4  1  1
  3  6  1  0
  6  7  1  0
  5  8  1  0
  6  8  1  0
  5  9  1  0
  8 10  1  6
  9 11  1  0
 10 12  1  0
 11 12  1  0
M  END
