ucsf365-ucsf224
     RDKit          3D

 19 20  0  0  0  0  0  0  0  0999 V2000
    0.7070   11.1580   -2.6130 O   0  0  0  0  0  0  0  0  0  0  0  0
    1.1320   12.2920   -3.1460 C   0  0  2  0  0  0  0  0  0  0  0  0
    2.0130   12.7760   -2.1720 O   0  0  0  0  0  0  0  0  0  0  0  0
   -0.0760   13.2700   -3.3210 C   0  0  2  0  0  0  0  0  0  0  0  0
   -1.2480   13.0340   -4.3330 C   0  0  2  0  0  0  0  0  0  0  0  0
    0.1950   14.8000   -3.5810 C   0  0  2  0  0  0  0  0  0  0  0  0
   -1.8730   11.6540   -4.5970 C   0  0  2  0  0  0  0  0  0  0  0  0
   -1.1060   13.7020   -5.6980 C   0  0  0  0  0  0  0  0  0  0  0  0
   -0.9760   15.0000   -4.5510 C   0  0  0  0  0  0  0  0  0  0  0  0
    1.3550   15.4860   -4.2680 C   0  0  0  0  0  0  0  0  0  0  0  0
   -1.0510   10.7740   -5.3500 O   0  0  0  0  0  0  0  0  0  0  0  0
   -3.2060   11.8390   -5.3470 C   0  0  0  0  0  0  0  0  0  0  0  0
   -2.5090   14.0430   -6.2140 C   0  0  0  0  0  0  0  0  0  0  0  0
   -1.6110   16.3420   -4.5490 C   0  0  2  0  0  0  0  0  0  0  0  0
    0.9270   16.8700   -4.8670 C   0  0  0  0  0  0  0  0  0  0  0  0
   -2.8580   16.4700   -5.8340 Cl  0  0  0  0  0  0  0  0  0  0  0  0
   -3.5880   13.3050   -5.4730 C   0  0  0  0  0  0  0  0  0  0  0  0
   -0.5180   17.3890   -4.6500 C   0  0  1  0  0  0  0  0  0  0  0  0
   -0.9740   18.5940   -5.8910 Cl  0  0  0  0  0  0  0  0  0  0  0  0
  2  1  1  1
  2  3  1  0
  4  2  1  6
  4  5  1  0
  4  6  1  0
  5  7  1  0
  5  8  1  6
  6  9  1  6
  6 10  1  0
  7 11  1  6
  7 12  1  0
  8 13  1  0
  9 14  1  0
 10 15  1  0
 14 16  1  6
 12 17  1  0
 13 17  1  0
 14 18  1  0
 15 18  1  0
 18 19  1  6
M  CHG  1   1  -1
M  END
