ucsf017-ucsf584
     RDKit          3D

 22 26  0  0  0  0  0  0  0  0999 V2000
   -1.5020   13.2280   -5.6960 C   0  0  0  0  0  0  0  0  0  0  0  0
   -2.2790   14.4230   -5.4700 O   0  0  0  0  0  0  0  0  0  0  0  0
   -2.0660   14.8450   -4.1060 C   0  0  0  0  0  0  0  0  0  0  0  0
   -0.5460   13.1130   -4.5270 C   0  0  1  0  0  0  0  0  0  0  0  0
   -1.4290   13.6520   -3.4100 C   0  0  1  0  0  0  0  0  0  0  0  0
   -0.1270   11.6670   -4.2400 C   0  0  0  0  0  0  0  0  0  0  0  0
    0.1250   11.4960   -2.7450 C   0  0  0  0  0  0  0  0  0  0  0  0
   -0.6550   13.7580   -2.1940 N   0  0  0  0  0  0  0  0  0  0  0  0
    0.4810   12.8380   -2.0950 C   0  0  0  0  0  0  0  0  0  0  0  0
   -1.1780   14.3430   -0.9700 C   0  0  2  0  0  0  0  0  0  0  0  0
   -0.4600   13.7210    0.1330 N   0  0  0  0  0  0  0  0  0  0  0  0
   -2.6650   14.6140   -0.5970 C   0  0  2  0  0  0  0  0  0  0  0  0
   -0.3850   14.5910    1.2750 C   0  0  0  0  0  0  0  0  0  0  0  0
   -2.7810   14.6800    0.8850 C   0  0  1  0  0  0  0  0  0  0  0  0
   -3.9540   13.8280   -0.8130 C   0  0  0  0  0  0  0  0  0  0  0  0
   -1.6370   15.3260    1.4660 N   0  0  0  0  0  0  0  0  0  0  0  0
   -4.0480   15.4030    0.9990 N   0  0  0  0  0  0  0  0  0  0  0  0
   -4.9180   14.5040    0.2490 C   0  0  0  0  0  0  0  0  0  0  0  0
   -5.4400   13.6290    1.2870 N   0  0  0  0  0  0  0  0  0  0  0  0
   -6.1500   15.1170   -0.2790 N   0  0  0  0  0  0  0  0  0  0  0  0
   -7.3350   14.6120    0.4440 C   0  0  0  0  0  0  0  0  0  0  0  0
   -6.7160   14.2090    1.7550 C   0  0  0  0  0  0  0  0  0  0  0  0
  1  2  1  0
  2  3  1  0
  4  1  1  6
  5  3  1  6
  4  5  1  0
  4  6  1  0
  6  7  1  0
  5  8  1  0
  7  9  1  0
  8  9  1  0
 10  8  1  6
 10 11  1  0
 10 12  1  0
 11 13  1  0
 12 14  1  0
 12 15  1  1
 13 16  1  0
 14 16  1  1
 14 17  1  0
 15 18  1  0
 18 17  1  0
 18 19  1  0
 18 20  1  0
 20 21  1  0
 19 22  1  0
 21 22  1  0
M  END
