ucsf371-ucsf274
     RDKit          3D

 26 28  0  0  0  0  0  0  0  0999 V2000
   -4.6460   15.4380    0.6050 C   0  0  0  0  0  0  0  0  0  0  0  0
   -3.9590   14.8760   -0.6190 C   0  0  1  0  0  0  0  0  0  0  0  0
   -4.6710   15.2290   -1.8580 N   0  0  0  0  0  0  0  0  0  0  0  0
   -2.2940   15.5320   -0.8260 S   0  0  0  0  0  0  0  0  0  0  0  0
   -3.7110   15.0750   -2.9870 C   0  0  0  0  0  0  0  0  0  0  0  0
   -2.3130   14.7140   -2.4590 C   0  0  1  0  0  0  0  0  0  0  0  0
   -1.1740   15.0990   -3.4260 C   0  0  1  0  0  0  0  0  0  0  0  0
   -1.5060   16.2690   -4.1510 O   0  0  0  0  0  0  0  0  0  0  0  0
    0.0250   15.3290   -2.7140 O   0  0  0  0  0  0  0  0  0  0  0  0
    1.0960   14.4820   -3.1430 C   0  0  0  0  0  0  0  0  0  0  0  0
    0.4670   13.0810   -3.3560 C   0  0  2  0  0  0  0  0  0  0  0  0
    1.0310   12.0750   -2.3130 C   0  0  2  0  0  0  0  0  0  0  0  0
    0.6110   12.6880   -4.8550 C   0  0  0  0  0  0  0  0  0  0  0  0
    0.4760   10.8570   -2.3580 O   0  0  0  0  0  0  0  0  0  0  0  0
    0.5440   12.5190   -1.0740 O   0  0  0  0  0  0  0  0  0  0  0  0
   -0.2670   11.5030   -5.2750 C   0  0  1  0  0  0  0  0  0  0  0  0
   -1.7950   11.7790   -5.1390 C   0  0  2  0  0  0  0  0  0  0  0  0
    0.1090   11.0820   -6.6440 N   0  0  0  0  0  0  0  0  0  0  0  0
   -2.1580   11.9610   -3.7790 O   0  0  0  0  0  0  0  0  0  0  0  0
   -2.6210   10.7060   -5.6880 N   0  0  0  0  0  0  0  0  0  0  0  0
   -0.4800    9.7440   -6.8190 C   0  0  1  0  0  0  0  0  0  0  0  0
   -1.8260    9.5130   -6.0350 C   0  0  2  0  0  0  0  0  0  0  0  0
   -0.6080    9.4510   -8.3070 C   0  0  0  0  0  0  0  0  0  0  0  0
   -1.0230    8.0040   -8.5660 C   0  0  0  0  0  0  0  0  0  0  0  0
   -2.7640    8.5510   -6.7900 C   0  0  0  0  0  0  0  0  0  0  0  0
   -1.9920    7.4570   -7.5130 C   0  0  0  0  0  0  0  0  0  0  0  0
  2  1  1  1
  2  3  1  0
  2  4  1  0
  3  5  1  0
  4  6  1  0
  6  5  1  6
  6  7  1  0
  7  8  1  1
  7  9  1  0
  9 10  1  0
 11 10  1  6
 11 12  1  0
 11 13  1  0
 12 14  1  6
 12 15  1  0
 16 13  1  6
 16 17  1  0
 16 18  1  0
 17 19  1  1
 17 20  1  0
 18 21  1  0
 20 22  1  0
 21 22  1  0
 21 23  1  6
 23 24  1  0
 22 25  1  6
 24 26  1  0
 25 26  1  0
M  CHG  1  14  -1
M  END
