ucsf385-ucsf173
     RDKit          3D

 21 23  0  0  0  0  0  0  0  0999 V2000
   -3.8640   14.8100   -1.1780 N   0  0  0  0  0  0  0  0  0  0  0  0
   -2.6340   15.1540   -0.4390 C   0  0  1  0  0  0  0  0  0  0  0  0
   -2.8950   15.1210    1.0730 C   0  0  0  0  0  0  0  0  0  0  0  0
   -1.4730   14.2010   -0.7000 C   0  0  1  0  0  0  0  0  0  0  0  0
   -1.0440   13.9580   -2.1390 C   0  0  2  0  0  0  0  0  0  0  0  0
   -0.2880   14.6160    0.1740 C   0  0  0  0  0  0  0  0  0  0  0  0
   -2.0040   14.2950    1.9290 N   0  0  0  0  0  0  0  0  0  0  0  0
    0.3680   13.7820   -2.0860 O   0  0  0  0  0  0  0  0  0  0  0  0
   -1.3240   15.0210   -2.8530 O   0  0  0  0  0  0  0  0  0  0  0  0
   -0.5710   14.1480    1.5700 C   0  0  0  0  0  0  0  0  0  0  0  0
    0.8440   12.9240   -3.0760 C   0  0  1  0  0  0  0  0  0  0  0  0
   -0.0280   11.7960   -3.1200 O   0  0  0  0  0  0  0  0  0  0  0  0
    0.7150   13.7770   -4.3150 C   0  0  0  0  0  0  0  0  0  0  0  0
   -0.7450   14.0500   -4.7360 C   0  0  0  0  0  0  0  0  0  0  0  0
    1.3690   15.1570   -4.0370 C   0  0  0  0  0  0  0  0  0  0  0  0
   -0.7360   15.5380   -5.0480 C   0  0  2  0  0  0  0  0  0  0  0  0
    0.2580   16.1920   -4.1220 C   0  0  2  0  0  0  0  0  0  0  0  0
   -2.0420   16.3130   -5.1010 C   0  0  0  0  0  0  0  0  0  0  0  0
    0.6530   17.5240   -4.7450 C   0  0  0  0  0  0  0  0  0  0  0  0
   -1.7370   17.6590   -5.7530 C   0  0  0  0  0  0  0  0  0  0  0  0
   -0.5770   18.3860   -5.0720 C   0  0  0  0  0  0  0  0  0  0  0  0
  2  1  1  6
  2  3  1  0
  2  4  1  0
  4  5  1  0
  4  6  1  1
  3  7  1  0
  5  8  1  0
  5  9  1  6
  6 10  1  0
  7 10  1  0
  8 11  1  0
 11 12  1  6
 11 13  1  0
 13 14  1  0
 13 15  1  0
 16 14  1  1
 17 15  1  6
 16 17  1  0
 16 18  1  0
 17 19  1  0
 18 20  1  0
 19 21  1  0
 20 21  1  0
M  CHG  1   9  -1
M  END
