ucsf392-ucsf340
     RDKit          3D

 26 28  0  0  0  0  0  0  0  0999 V2000
   -5.2840   15.6400   -0.9880 C   0  0  0  0  0  0  0  0  0  0  0  0
   -4.0130   14.8760   -0.6120 C   0  0  1  0  0  0  0  0  0  0  0  0
   -2.8840   15.3500   -1.5750 C   0  0  0  0  0  0  0  0  0  0  0  0
   -3.6990   14.8820    0.9120 C   0  0  2  0  0  0  0  0  0  0  0  0
   -4.7220   15.4740    1.7260 N   0  0  0  0  0  0  0  0  0  0  0  0
   -2.5440   15.6300    1.2270 N   0  0  0  0  0  0  0  0  0  0  0  0
   -1.6360   15.7380   -0.9430 N   0  0  0  0  0  0  0  0  0  0  0  0
   -1.5630   15.1370    0.3430 C   0  0  1  0  0  0  0  0  0  0  0  0
   -0.2110   14.9550    0.9520 C   0  0  0  0  0  0  0  0  0  0  0  0
    0.1590   13.6440    0.4540 C   0  0  0  0  0  0  0  0  0  0  0  0
    0.7850   13.6510   -0.9250 C   0  0  0  0  0  0  0  0  0  0  0  0
    0.7280   12.2890   -1.3060 O   0  0  0  0  0  0  0  0  0  0  0  0
    0.9370   11.9960   -2.6780 C   0  0  2  0  0  0  0  0  0  0  0  0
    0.2520   13.1170   -3.5040 C   0  0  0  0  0  0  0  0  0  0  0  0
    0.3640   10.8370   -2.9300 O   0  0  0  0  0  0  0  0  0  0  0  0
    0.7330   14.5870   -3.3550 C   0  0  0  0  0  0  0  0  0  0  0  0
    0.3280   15.4890   -4.5080 C   0  0  2  0  0  0  0  0  0  0  0  0
    1.0710   16.8150   -4.6760 C   0  0  0  0  0  0  0  0  0  0  0  0
   -1.1040   15.9640   -4.4640 C   0  0  1  0  0  0  0  0  0  0  0  0
    0.0800   17.8590   -4.9980 N   0  0  0  0  0  0  0  0  0  0  0  0
   -0.9570   17.0280   -5.5270 C   0  0  2  0  0  0  0  0  0  0  0  0
   -2.1470   14.9090   -4.7820 C   0  0  0  0  0  0  0  0  0  0  0  0
    0.6550   18.6910   -6.0330 C   0  0  0  0  0  0  0  0  0  0  0  0
   -3.4650   15.5410   -5.1230 C   0  0  0  0  0  0  0  0  0  0  0  0
   -2.2580   17.6210   -6.0560 C   0  0  0  0  0  0  0  0  0  0  0  0
   -3.3230   16.5220   -6.2720 C   0  0  0  0  0  0  0  0  0  0  0  0
  2  1  1  1
  2  3  1  0
  2  4  1  0
  4  5  1  1
  4  6  1  0
  3  7  1  0
  6  8  1  0
  7  8  1  0
  8  9  1  1
  9 10  1  0
 10 11  1  0
 11 12  1  0
 12 13  1  0
 13 14  1  0
 13 15  1  6
 14 16  1  0
 17 16  1  1
 17 18  1  0
 17 19  1  0
 18 20  1  0
 19 21  1  0
 20 21  1  0
 19 22  1  6
 20 23  1  0
 22 24  1  0
 21 25  1  1
 24 26  1  0
 25 26  1  0
M  CHG  1  15  -1
M  END
