ucsf353-ucsf405
     RDKit          3D

 12 12  0  0  0  0  0  0  0  0999 V2000
   14.7190    6.0850   11.5570 N   0  0  0  0  0  0  0  0  0  0  0  0
   15.1300    6.2320   10.1660 C   0  0  2  0  0  0  0  0  0  0  0  0
   14.6700    7.4940    9.7610 O   0  0  0  0  0  0  0  0  0  0  0  0
   14.6560    5.0420    9.3090 C   0  0  2  0  0  0  0  0  0  0  0  0
   14.6540    3.7200   10.1130 C   0  0  0  0  0  0  0  0  0  0  0  0
   15.3820    4.9490    7.9600 C   0  0  0  0  0  0  0  0  0  0  0  0
   14.3190    2.5070    9.2530 C   0  0  0  0  0  0  0  0  0  0  0  0
   15.1210    3.6720    7.1620 C   0  0  1  0  0  0  0  0  0  0  0  0
   15.9160    3.5480    5.8540 C   0  0  0  0  0  0  0  0  0  0  0  0
   15.1890    2.4090    8.0090 C   0  0  2  0  0  0  0  0  0  0  0  0
   14.7280    1.2940    7.2210 O   0  0  0  0  0  0  0  0  0  0  0  0
   15.0690    3.4070    4.8700 O   0  0  0  0  0  0  0  0  0  0  0  0
  2  1  1  1
  2  3  1  0
  2  4  1  0
  4  5  1  1
  4  6  1  0
  5  7  1  0
  6  8  1  0
  8  9  1  6
  7 10  1  0
  8 10  1  0
 10 11  1  6
  9 12  1  0
M  CHG  1  12  -1
M  END
