ucsf516-ucsf123
     RDKit          3D

 25 28  0  0  0  0  0  0  0  0999 V2000
   -1.4730   17.7780   -4.2040 N   0  0  0  0  0  0  0  0  0  0  0  0
   -1.1140   16.6790   -5.3550 S   0  0  0  0  0  0  0  0  0  0  0  0
    0.1030   17.2900   -6.1960 O   0  0  0  0  0  0  0  0  0  0  0  0
   -2.4040   16.7170   -6.3360 O   0  0  0  0  0  0  0  0  0  0  0  0
   -0.6940   14.9160   -4.9240 C   0  0  1  0  0  0  0  0  0  0  0  0
   -0.1350   14.4020   -3.4860 C   0  0  2  0  0  0  0  0  0  0  0  0
   -2.0880   14.3630   -4.7590 C   0  0  0  0  0  0  0  0  0  0  0  0
    1.4740   14.2400   -3.2640 C   0  0  1  0  0  0  0  0  0  0  0  0
   -0.1320   12.8440   -3.2980 C   0  0  0  0  0  0  0  0  0  0  0  0
   -1.1750   14.9980   -2.6020 N   0  0  0  0  0  0  0  0  0  0  0  0
   -2.4340   14.9470   -3.3920 C   0  0  0  0  0  0  0  0  0  0  0  0
    2.0070   14.6780   -2.0240 O   0  0  0  0  0  0  0  0  0  0  0  0
    1.8270   12.9590   -3.1590 O   0  0  0  0  0  0  0  0  0  0  0  0
    0.7090   11.9510   -4.2710 C   0  0  0  0  0  0  0  0  0  0  0  0
   -1.1880   11.7090   -3.4350 C   0  0  0  0  0  0  0  0  0  0  0  0
   -1.3470   14.4530   -1.2800 C   0  0  1  0  0  0  0  0  0  0  0  0
    0.0300   10.7750   -3.5550 C   0  0  0  0  0  0  0  0  0  0  0  0
   -0.2560   15.0660   -0.5220 N   0  0  0  0  0  0  0  0  0  0  0  0
   -2.6700   14.4200   -0.4750 C   0  0  1  0  0  0  0  0  0  0  0  0
   -0.2390   14.7860    0.8730 C   0  0  0  0  0  0  0  0  0  0  0  0
   -2.5890   14.6460    1.0220 C   0  0  1  0  0  0  0  0  0  0  0  0
   -3.8140   15.2860   -0.9460 C   0  0  0  0  0  0  0  0  0  0  0  0
   -1.4260   15.3230    1.4630 N   0  0  0  0  0  0  0  0  0  0  0  0
   -3.7510   15.3980    1.4490 N   0  0  0  0  0  0  0  0  0  0  0  0
   -4.6280   15.5710    0.2900 C   0  0  0  0  0  0  0  0  0  0  0  0
  1  2  1  0
  2  3  1  0
  2  4  1  0
  5  2  1  1
  5  6  1  0
  5  7  1  0
  6  8  1  0
  6  9  1  6
  6 10  1  0
  7 11  1  0
 10 11  1  0
  8 12  1  1
  8 13  1  0
  9 14  1  0
  9 15  1  0
 16 10  1  6
 14 17  1  0
 15 17  1  0
 16 18  1  0
 16 19  1  0
 18 20  1  0
 19 21  1  0
 19 22  1  6
 20 23  1  0
 21 23  1  6
 21 24  1  0
 22 25  1  0
 24 25  1  0
M  CHG  1  13  -1
M  END
