ucsf109-ucsf396
     RDKit          3D

 15 17  0  0  0  0  0  0  0  0999 V2000
   -3.9390   15.0530    1.5680 N   0  0  0  0  0  0  0  0  0  0  0  0
   -2.7010   14.4440    1.2180 C   0  0  0  0  0  0  0  0  0  0  0  0
   -2.3890   14.9560   -0.0810 N   0  0  0  0  0  0  0  0  0  0  0  0
   -4.9510   14.5810    0.6390 C   0  0  1  0  0  0  0  0  0  0  0  0
   -6.2930   14.9740    1.0460 N   0  0  0  0  0  0  0  0  0  0  0  0
   -4.6300   15.1750   -0.7250 C   0  0  2  0  0  0  0  0  0  0  0  0
   -7.3230   14.6450    0.0980 C   0  0  1  0  0  0  0  0  0  0  0  0
   -5.8060   14.9530   -1.6950 C   0  0  2  0  0  0  0  0  0  0  0  0
   -3.3920   14.6480   -1.4460 C   0  0  0  0  0  0  0  0  0  0  0  0
   -6.7660   14.7180    2.4080 N   0  0  0  0  0  0  0  0  0  0  0  0
   -6.7830   14.0580   -1.1030 N   0  0  0  0  0  0  0  0  0  0  0  0
   -5.1710   14.4870   -3.0030 C   0  0  0  0  0  0  0  0  0  0  0  0
   -3.7130   14.9190   -2.9000 C   0  0  0  0  0  0  0  0  0  0  0  0
   -8.1160   13.6450    0.7800 N   0  0  0  0  0  0  0  0  0  0  0  0
   -7.9540   13.8960    2.2220 C   0  0  0  0  0  0  0  0  0  0  0  0
  1  2  1  0
  2  3  1  0
  4  1  1  1
  4  5  1  0
  4  6  1  0
  5  7  1  0
  6  8  1  0
  6  9  1  6
  5 10  1  0
  7 11  1  6
  8 11  1  0
  8 12  1  6
  9 13  1  0
 12 13  1  0
  7 14  1  0
 10 15  1  0
 14 15  1  0
M  END
