ucsf114-ucsf303
     RDKit          3D

 32 35  0  0  0  0  0  0  0  0999 V2000
    0.7860   18.1550   -4.4440 C   0  0  0  0  0  0  0  0  0  0  0  0
   -0.2500   17.6590   -5.4430 C   0  0  0  0  0  0  0  0  0  0  0  0
   -1.5680   18.4190   -5.3090 C   0  0  0  0  0  0  0  0  0  0  0  0
   -0.5170   16.2830   -5.1710 O   0  0  0  0  0  0  0  0  0  0  0  0
    0.6940   15.5090   -5.0870 C   0  0  0  0  0  0  0  0  0  0  0  0
    0.4660   14.3260   -4.1520 C   0  0  0  0  0  0  0  0  0  0  0  0
    0.1930   14.7250   -2.7590 N   0  0  0  0  0  0  0  0  0  0  0  0
   -1.0310   14.1380   -2.2290 C   0  0  1  0  0  0  0  0  0  0  0  0
    1.3890   14.6290   -1.9330 C   0  0  2  0  0  0  0  0  0  0  0  0
    2.2920   13.1120   -2.2450 S   0  0  0  0  0  0  0  0  0  0  0  0
   -1.3100   14.4180   -0.7590 C   0  0  1  0  0  0  0  0  0  0  0  0
    1.1530   14.8630   -0.5170 N   0  0  0  0  0  0  0  0  0  0  0  0
   -2.2410   14.7390   -2.9400 C   0  0  1  0  0  0  0  0  0  0  0  0
   -3.2970   13.8230   -2.9950 O   0  0  0  0  0  0  0  0  0  0  0  0
   -0.0150   14.2420    0.0630 C   0  0  1  0  0  0  0  0  0  0  0  0
   -1.9310   15.7680   -0.7290 N   0  0  0  0  0  0  0  0  0  0  0  0
   -2.6310   15.8890   -2.0410 C   0  0  0  0  0  0  0  0  0  0  0  0
   -0.1120   14.7250    1.3880 O   0  0  0  0  0  0  0  0  0  0  0  0
   -4.6630   14.1750   -2.2340 S   0  0  1  0  0  0  0  0  0  0  0  0
   -5.1560   15.6120   -2.7080 O   0  0  0  0  0  0  0  0  0  0  0  0
   -5.6890   12.9760   -2.5980 N   0  0  0  0  0  0  0  0  0  0  0  0
   -4.2180   14.2840   -0.5180 C   0  0  0  0  0  0  0  0  0  0  0  0
   -5.2860   11.6240   -2.7510 C   0  0  2  0  0  0  0  0  0  0  0  0
   -2.8430   13.7470   -0.1680 C   0  0  0  0  0  0  0  0  0  0  0  0
   -4.4910   15.6730    0.0230 C   0  0  0  0  0  0  0  0  0  0  0  0
   -5.9270   10.7640   -1.7750 N   0  0  0  0  0  0  0  0  0  0  0  0
   -3.5480   11.2840   -2.6000 S   0  0  0  0  0  0  0  0  0  0  0  0
   -2.5900   13.8710    1.3130 C   0  0  0  0  0  0  0  0  0  0  0  0
   -4.2350   15.7560    1.5020 C   0  0  0  0  0  0  0  0  0  0  0  0
   -3.9750    9.5460   -2.5470 C   0  0  0  0  0  0  0  0  0  0  0  0
   -5.3820    9.4140   -2.0900 N   0  0  0  0  0  0  0  0  0  0  0  0
   -2.8900   15.2130    1.8490 C   0  0  0  0  0  0  0  0  0  0  0  0
  1  2  1  0
  2  3  1  0
  2  4  1  0
  4  5  1  0
  5  6  1  0
  6  7  1  0
  8  7  1  6
  7  9  1  0
  9 10  1  1
  8 11  1  0
  9 12  1  0
  8 13  1  0
 13 14  1  1
 11 15  1  0
 12 15  1  0
 11 16  1  6
 13 17  1  0
 16 17  1  0
 15 18  1  1
 19 14  1  0
 19 20  1  6
 19 21  1  0
 19 22  1  0
 23 21  1  1
 22 24  1  0
 22 25  1  0
 23 26  1  0
 23 27  1  0
 24 28  1  0
 25 29  1  0
 27 30  1  0
 26 31  1  0
 30 31  1  0
 28 32  1  0
 29 32  1  0
M  END
