ucsf348-ucsf243
     RDKit          3D

 17 18  0  0  0  0  0  0  0  0999 V2000
   -6.5890   14.8320    2.2590 N   0  0  0  0  0  0  0  0  0  0  0  0
   -5.8670   14.9090    1.0130 C   0  0  1  0  0  0  0  0  0  0  0  0
   -4.6520   14.2890    1.1520 N   0  0  0  0  0  0  0  0  0  0  0  0
   -6.7490   14.3670    0.0540 N   0  0  0  0  0  0  0  0  0  0  0  0
   -6.2020   14.5060   -1.2790 C   0  0  1  0  0  0  0  0  0  0  0  0
   -3.8580   14.1810   -0.0500 C   0  0  1  0  0  0  0  0  0  0  0  0
   -6.6630   15.6880   -1.8780 O   0  0  0  0  0  0  0  0  0  0  0  0
   -4.6860   14.2440   -1.3530 C   0  0  2  0  0  0  0  0  0  0  0  0
   -2.6860   15.2090    0.0190 C   0  0  1  0  0  0  0  0  0  0  0  0
   -2.0040   15.0480    1.3510 C   0  0  0  0  0  0  0  0  0  0  0  0
   -1.7590   15.2220   -1.2710 C   0  0  1  0  0  0  0  0  0  0  0  0
   -4.0250   15.0810   -2.4240 C   0  0  0  0  0  0  0  0  0  0  0  0
   -0.3740   14.4860   -1.2490 C   0  0  1  0  0  0  0  0  0  0  0  0
   -2.5480   14.7990   -2.5200 C   0  0  1  0  0  0  0  0  0  0  0  0
   -2.0210   15.4210   -3.7180 O   0  0  0  0  0  0  0  0  0  0  0  0
   -0.0700   13.9700   -2.5420 O   0  0  0  0  0  0  0  0  0  0  0  0
    0.6060   15.3380   -1.1040 O   0  0  0  0  0  0  0  0  0  0  0  0
  2  1  1  1
  2  3  1  0
  2  4  1  0
  4  5  1  0
  6  3  1  1
  5  7  1  1
  5  8  1  0
  6  8  1  0
  6  9  1  0
  9 10  1  1
  9 11  1  0
  8 12  1  6
 11 13  1  1
 11 14  1  0
 12 14  1  0
 14 15  1  6
 13 16  1  6
 13 17  1  0
M  CHG  1  17  -1
M  END
