ucsf243-ucsf367
     RDKit          3D

 23 24  0  0  0  0  0  0  0  0999 V2000
   -4.1150   15.6630    0.9190 C   0  0  0  0  0  0  0  0  0  0  0  0
   -3.6350   14.9890   -0.3630 C   0  0  1  0  0  0  0  0  0  0  0  0
   -4.5380   15.3100   -1.5550 C   0  0  0  0  0  0  0  0  0  0  0  0
   -2.1910   15.3870   -0.6460 C   0  0  0  0  0  0  0  0  0  0  0  0
   -1.5430   14.6660   -1.8470 C   0  0  2  0  0  0  0  0  0  0  0  0
   -3.8250   15.3020   -2.9150 C   0  0  0  0  0  0  0  0  0  0  0  0
   -0.1770   15.3770   -2.1450 C   0  0  2  0  0  0  0  0  0  0  0  0
   -2.5580   14.4630   -3.0070 C   0  0  1  0  0  0  0  0  0  0  0  0
   -1.9880   14.6560   -4.3050 O   0  0  0  0  0  0  0  0  0  0  0  0
    0.3220   14.9660   -3.4080 O   0  0  0  0  0  0  0  0  0  0  0  0
    0.6910   14.9740   -1.2260 O   0  0  0  0  0  0  0  0  0  0  0  0
    1.5960   14.3600   -3.2210 C   0  0  0  0  0  0  0  0  0  0  0  0
    1.4160   13.1510   -2.4980 O   0  0  0  0  0  0  0  0  0  0  0  0
    1.3550   12.0430   -3.3790 C   0  0  1  0  0  0  0  0  0  0  0  0
    0.7170   11.0270   -2.7910 O   0  0  0  0  0  0  0  0  0  0  0  0
    0.6440   12.4620   -4.7200 C   0  0  0  0  0  0  0  0  0  0  0  0
    0.6880   11.4700   -5.7690 O   0  0  0  0  0  0  0  0  0  0  0  0
   -0.5650   10.9160   -6.1740 C   0  0  0  0  0  0  0  0  0  0  0  0
   -0.4150    9.4210   -6.4900 C   0  0  0  0  0  0  0  0  0  0  0  0
   -1.6010   11.1660   -5.0650 C   0  0  0  0  0  0  0  0  0  0  0  0
   -1.6970    8.8020   -7.0150 C   0  0  0  0  0  0  0  0  0  0  0  0
   -2.7300   10.1430   -5.0910 C   0  0  0  0  0  0  0  0  0  0  0  0
   -2.9290    9.5150   -6.4680 C   0  0  0  0  0  0  0  0  0  0  0  0
  2  1  1  1
  2  3  1  0
  2  4  1  0
  5  4  1  1
  3  6  1  0
  5  7  1  0
  5  8  1  0
  6  8  1  0
  8  9  1  6
  7 10  1  0
  7 11  1  1
 10 12  1  0
 12 13  1  0
 13 14  1  0
 14 15  1  1
 14 16  1  0
 16 17  1  0
 17 18  1  0
 18 19  1  0
 18 20  1  0
 19 21  1  0
 20 22  1  0
 21 23  1  0
 22 23  1  0
M  CHG  2  11  -1  15  -1
M  END
