ucsf345-ucsf264
     RDKit          3D

 29 31  0  0  0  0  0  0  0  0999 V2000
   -6.7950   14.6730    1.4700 N   0  0  0  0  0  0  0  0  0  0  0  0
   -6.9720   14.8770    0.0390 C   0  0  2  0  0  0  0  0  0  0  0  0
   -7.5830   13.7270   -0.4570 O   0  0  0  0  0  0  0  0  0  0  0  0
   -5.6490   15.2090   -0.7270 C   0  0  2  0  0  0  0  0  0  0  0  0
   -5.6250   14.4380   -2.0050 N   0  0  0  0  0  0  0  0  0  0  0  0
   -4.3990   15.0260    0.1780 C   0  0  0  0  0  0  0  0  0  0  0  0
   -4.3650   14.5720   -2.7580 C   0  0  0  0  0  0  0  0  0  0  0  0
   -3.2030   14.5270   -0.5230 N   0  0  0  0  0  0  0  0  0  0  0  0
   -3.1500   14.9960   -1.9170 C   0  0  1  0  0  0  0  0  0  0  0  0
   -1.7930   14.5830   -2.5380 C   0  0  0  0  0  0  0  0  0  0  0  0
   -0.5650   14.6430   -1.6070 C   0  0  0  0  0  0  0  0  0  0  0  0
    0.0760   13.2830   -1.3240 C   0  0  0  0  0  0  0  0  0  0  0  0
    0.9670   12.8990   -2.3740 O   0  0  0  0  0  0  0  0  0  0  0  0
    0.3400   12.1600   -3.4110 C   0  0  2  0  0  0  0  0  0  0  0  0
    0.4940   10.7780   -3.1290 O   0  0  0  0  0  0  0  0  0  0  0  0
    0.9220   12.5430   -4.8070 C   0  0  0  0  0  0  0  0  0  0  0  0
    0.1650   12.0120   -5.9830 N   0  0  0  0  0  0  0  0  0  0  0  0
    1.0650   11.7790   -7.1100 N   0  0  0  0  0  0  0  0  0  0  0  0
   -0.5580   10.7330   -5.7790 C   0  0  2  0  0  0  0  0  0  0  0  0
    0.2590   10.9620   -8.0290 C   0  0  2  0  0  0  0  0  0  0  0  0
   -0.3650    9.9520   -7.0930 C   0  0  2  0  0  0  0  0  0  0  0  0
   -2.0450   10.9530   -5.4690 C   0  0  0  0  0  0  0  0  0  0  0  0
    0.9190   10.2970   -9.2500 C   0  0  0  0  0  0  0  0  0  0  0  0
   -1.6360    9.3170   -7.6540 C   0  0  0  0  0  0  0  0  0  0  0  0
   -2.8380    9.6390   -5.4600 C   0  0  0  0  0  0  0  0  0  0  0  0
    1.5950    9.1710   -8.9250 F   0  0  0  0  0  0  0  0  0  0  0  0
   -0.0200    9.9410  -10.1470 F   0  0  0  0  0  0  0  0  0  0  0  0
    1.7270   11.1250   -9.9280 F   0  0  0  0  0  0  0  0  0  0  0  0
   -2.4210    8.6370   -6.5450 C   0  0  0  0  0  0  0  0  0  0  0  0
  2  1  1  1
  2  3  1  0
  2  4  1  0
  4  5  1  0
  4  6  1  1
  5  7  1  0
  6  8  1  0
  7  9  1  0
  8  9  1  0
  9 10  1  6
 10 11  1  0
 11 12  1  0
 12 13  1  0
 13 14  1  0
 14 15  1  1
 14 16  1  0
 16 17  1  0
 17 18  1  0
 17 19  1  0
 18 20  1  0
 19 21  1  0
 20 21  1  0
 19 22  1  6
 20 23  1  6
 21 24  1  6
 22 25  1  0
 23 26  1  0
 23 27  1  0
 23 28  1  0
 24 29  1  0
 25 29  1  0
M  END
