ucsf248-ucsf123
     RDKit          3D

 27 29  0  0  0  0  0  0  0  0999 V2000
   -8.3760   12.4930    2.4970 N   0  0  0  0  0  0  0  0  0  0  0  0
   -8.5650   14.0400    1.9560 S   0  0  0  0  0  0  0  0  0  0  0  0
   -8.3720   15.0690    3.1790 O   0  0  0  0  0  0  0  0  0  0  0  0
  -10.0180   14.3250    1.3570 O   0  0  0  0  0  0  0  0  0  0  0  0
   -7.3830   14.7200    0.7680 C   0  0  1  0  0  0  0  0  0  0  0  0
   -6.0610   14.8840    1.4110 N   0  0  0  0  0  0  0  0  0  0  0  0
   -7.1300   14.0170   -0.4900 N   0  0  0  0  0  0  0  0  0  0  0  0
   -5.1100   14.5380    0.3590 C   0  0  1  0  0  0  0  0  0  0  0  0
   -5.9360   14.7770   -0.8890 C   0  0  1  0  0  0  0  0  0  0  0  0
   -3.7890   15.2850    0.3290 C   0  0  0  0  0  0  0  0  0  0  0  0
   -5.2300   14.3160   -2.1710 C   0  0  0  0  0  0  0  0  0  0  0  0
   -3.1730   15.1840   -1.0580 C   0  0  0  0  0  0  0  0  0  0  0  0
   -3.7630   13.9970   -1.8160 C   0  0  2  0  0  0  0  0  0  0  0  0
   -2.8760   13.4070   -2.9530 C   0  0  0  0  0  0  0  0  0  0  0  0
   -1.6780   14.2610   -3.4610 C   0  0  1  0  0  0  0  0  0  0  0  0
   -0.2530   13.6050   -3.4470 C   0  0  2  0  0  0  0  0  0  0  0  0
   -1.8830   14.9840   -4.7870 C   0  0  0  0  0  0  0  0  0  0  0  0
    0.0640   12.7650   -2.1470 C   0  0  2  0  0  0  0  0  0  0  0  0
   -0.9790   16.1950   -4.7800 C   0  0  2  0  0  0  0  0  0  0  0  0
    0.8070   14.7420   -3.6980 C   0  0  0  0  0  0  0  0  0  0  0  0
   -1.4940   17.5590   -5.8020 S   0  0  0  0  0  0  0  0  0  0  0  0
    1.4280   12.9280   -1.8320 O   0  0  0  0  0  0  0  0  0  0  0  0
    0.0440   11.4600   -2.3620 O   0  0  0  0  0  0  0  0  0  0  0  0
    0.4820   15.7920   -4.7940 C   0  0  0  0  0  0  0  0  0  0  0  0
   -1.9300   18.9570   -5.0750 N   0  0  0  0  0  0  0  0  0  0  0  0
   -0.2660   17.8720   -6.7590 O   0  0  0  0  0  0  0  0  0  0  0  0
   -2.6690   17.0390   -6.7410 O   0  0  0  0  0  0  0  0  0  0  0  0
  1  2  1  0
  2  3  1  0
  2  4  1  0
  5  2  1  1
  5  6  1  0
  5  7  1  0
  6  8  1  0
  7  9  1  0
  8  9  1  0
  8 10  1  6
  9 11  1  6
 10 12  1  0
 11 13  1  0
 12 13  1  0
 13 14  1  6
 15 14  1  6
 15 16  1  0
 15 17  1  0
 16 18  1  0
 17 19  1  0
 16 20  1  1
 19 21  1  6
 18 22  1  6
 18 23  1  0
 19 24  1  0
 20 24  1  0
 21 25  1  0
 21 26  1  0
 21 27  1  0
M  CHG  1  23  -1
M  END
