ucsf151-ucsf424
     RDKit          3D

 22 24  0  0  0  0  0  0  0  0999 V2000
    0.5650   13.0830   -2.1720 O   0  0  0  0  0  0  0  0  0  0  0  0
   -0.0960   14.3110   -2.3730 C   0  0  1  0  0  0  0  0  0  0  0  0
    0.7980   15.1630   -3.0700 O   0  0  0  0  0  0  0  0  0  0  0  0
    0.7610   12.2150   -3.2810 C   0  0  1  0  0  0  0  0  0  0  0  0
   -0.0750   11.0900   -3.0630 O   0  0  0  0  0  0  0  0  0  0  0  0
    0.4800   12.7820   -4.6910 C   0  0  0  0  0  0  0  0  0  0  0  0
   -1.4940   14.2350   -3.0530 C   0  0  1  0  0  0  0  0  0  0  0  0
   -1.8490   15.4430   -3.9130 C   0  0  0  0  0  0  0  0  0  0  0  0
   -1.7970   12.9450   -3.8420 C   0  0  0  0  0  0  0  0  0  0  0  0
    0.3560   11.6010   -5.6630 C   0  0  2  0  0  0  0  0  0  0  0  0
   -2.2030   15.1010   -5.3380 C   0  0  2  0  0  0  0  0  0  0  0  0
   -3.1180   12.9320   -4.4920 N   0  0  0  0  0  0  0  0  0  0  0  0
    1.2710   11.6610   -6.8410 N   0  0  0  0  0  0  0  0  0  0  0  0
   -0.9430   11.0870   -6.2600 C   0  0  1  0  0  0  0  0  0  0  0  0
   -2.6230   16.3020   -5.9940 O   0  0  0  0  0  0  0  0  0  0  0  0
   -3.2780   14.0230   -5.4560 C   0  0  0  0  0  0  0  0  0  0  0  0
    0.7380   10.6810   -7.8060 O   0  0  0  0  0  0  0  0  0  0  0  0
   -0.3110   10.0150   -7.1090 C   0  0  2  0  0  0  0  0  0  0  0  0
   -1.9090   10.3700   -5.3050 C   0  0  0  0  0  0  0  0  0  0  0  0
   -1.2920    9.2480   -7.9590 C   0  0  0  0  0  0  0  0  0  0  0  0
   -2.9480    9.5300   -6.0530 C   0  0  0  0  0  0  0  0  0  0  0  0
   -2.3290    8.5650   -7.0720 C   0  0  0  0  0  0  0  0  0  0  0  0
  1  2  1  0
  2  3  1  6
  1  4  1  0
  4  5  1  1
  4  6  1  0
  2  7  1  0
  7  8  1  6
  7  9  1  0
 10  6  1  6
  8 11  1  0
  9 12  1  0
 10 13  1  0
 10 14  1  0
 11 15  1  1
 11 16  1  0
 12 16  1  0
 13 17  1  0
 14 18  1  0
 17 18  1  0
 14 19  1  1
 18 20  1  6
 19 21  1  0
 20 22  1  0
 21 22  1  0
M  END
