ucsf519-ucsf303
     RDKit          3D

 22 23  0  0  0  0  0  0  0  0999 V2000
   -0.7420   15.8730   -4.6720 C   0  0  0  0  0  0  0  0  0  0  0  0
   -0.9040   14.5720   -3.8660 C   0  0  2  0  0  0  0  0  0  0  0  0
   -0.5620   13.2270   -5.1080 S   0  0  0  0  0  0  0  0  0  0  0  0
   -2.2200   14.3120   -2.9910 C   0  0  2  0  0  0  0  0  0  0  0  0
    0.6530   12.1340   -4.2350 C   0  0  0  0  0  0  0  0  0  0  0  0
   -3.5720   14.2510   -3.6930 N   0  0  0  0  0  0  0  0  0  0  0  0
   -2.4550   15.0510   -1.7320 N   0  0  0  0  0  0  0  0  0  0  0  0
    0.3890   11.7740   -2.7370 C   0  0  2  0  0  0  0  0  0  0  0  0
   -3.9580   15.6540   -3.6760 O   0  0  0  0  0  0  0  0  0  0  0  0
   -4.7050   13.5780   -2.9910 N   0  0  0  0  0  0  0  0  0  0  0  0
   -3.8230   15.2660   -1.2530 C   0  0  0  0  0  0  0  0  0  0  0  0
   -1.7110   14.5890   -0.5750 C   0  0  1  0  0  0  0  0  0  0  0  0
    1.4460   12.3600   -2.0050 O   0  0  0  0  0  0  0  0  0  0  0  0
    0.5580   10.4740   -2.4660 O   0  0  0  0  0  0  0  0  0  0  0  0
   -0.3510   14.9170   -0.6020 O   0  0  0  0  0  0  0  0  0  0  0  0
   -3.7470   15.3560    0.2600 C   0  0  0  0  0  0  0  0  0  0  0  0
   -2.3700   15.0260    0.6290 N   0  0  0  0  0  0  0  0  0  0  0  0
   -4.4040   12.4340   -2.1160 C   0  0  1  0  0  0  0  0  0  0  0  0
   -5.6270   11.6220   -1.9850 N   0  0  0  0  0  0  0  0  0  0  0  0
   -3.1230   11.3710   -2.8080 S   0  0  0  0  0  0  0  0  0  0  0  0
   -4.1710    9.9180   -2.7220 C   0  0  0  0  0  0  0  0  0  0  0  0
   -5.3050   10.2070   -1.8420 N   0  0  0  0  0  0  0  0  0  0  0  0
  2  1  1  6
  2  3  1  0
  2  4  1  0
  3  5  1  0
  4  6  1  6
  4  7  1  0
  5  8  1  0
  6  9  1  0
  6 10  1  0
  7 11  1  0
  7 12  1  0
  8 13  1  1
  8 14  1  0
 12 15  1  6
 11 16  1  0
 12 17  1  0
 16 17  1  0
 18 10  1  6
 18 19  1  0
 18 20  1  0
 20 21  1  0
 19 22  1  0
 21 22  1  0
M  CHG  1  14  -1
M  END
