ucsf516-ucsf264
     RDKit          3D

 35 40  0  0  0  0  0  0  0  0999 V2000
    1.4380   12.8590   -3.5170 O   0  0  0  0  0  0  0  0  0  0  0  0
    1.0240   12.1860   -4.5740 C   0  0  1  0  0  0  0  0  0  0  0  0
    0.6060   10.9600   -3.9920 O   0  0  0  0  0  0  0  0  0  0  0  0
   -0.2480   12.8180   -5.2770 C   0  0  1  0  0  0  0  0  0  0  0  0
   -0.4540   14.3150   -4.8480 C   0  0  2  0  0  0  0  0  0  0  0  0
   -0.4360   12.3940   -6.6650 N   0  0  0  0  0  0  0  0  0  0  0  0
   -0.2460   14.3510   -3.3450 C   0  0  2  0  0  0  0  0  0  0  0  0
   -1.8640   14.8800   -5.0230 C   0  0  0  0  0  0  0  0  0  0  0  0
    0.8090   12.0850   -7.3500 N   0  0  0  0  0  0  0  0  0  0  0  0
   -1.3170   11.2340   -6.7630 C   0  0  1  0  0  0  0  0  0  0  0  0
    0.0440   12.9030   -3.0750 C   0  0  0  0  0  0  0  0  0  0  0  0
   -1.4260   14.9780   -2.6620 N   0  0  0  0  0  0  0  0  0  0  0  0
   -2.5020   14.7420   -3.6480 C   0  0  0  0  0  0  0  0  0  0  0  0
    0.8330   10.6690   -7.7300 C   0  0  1  0  0  0  0  0  0  0  0  0
   -0.3750   10.0780   -6.9960 C   0  0  2  0  0  0  0  0  0  0  0  0
   -2.2300   10.7980   -5.6110 C   0  0  0  0  0  0  0  0  0  0  0  0
    0.9500   10.2910   -9.2140 C   0  0  0  0  0  0  0  0  0  0  0  0
    1.3990   12.3940   -2.5140 C   0  0  0  0  0  0  0  0  0  0  0  0
   -0.5360   12.1680   -1.8480 C   0  0  0  0  0  0  0  0  0  0  0  0
   -1.6500   14.3940   -1.3320 C   0  0  1  0  0  0  0  0  0  0  0  0
   -1.1120    8.9150   -7.6450 C   0  0  0  0  0  0  0  0  0  0  0  0
   -3.0130    9.5380   -6.0180 C   0  0  0  0  0  0  0  0  0  0  0  0
    1.5490    9.0850   -9.3670 F   0  0  0  0  0  0  0  0  0  0  0  0
   -0.2520   10.2120   -9.8270 F   0  0  0  0  0  0  0  0  0  0  0  0
    1.6560   11.1710   -9.9470 F   0  0  0  0  0  0  0  0  0  0  0  0
    0.5160   11.1430   -2.2620 C   0  0  0  0  0  0  0  0  0  0  0  0
   -0.4260   14.7900   -0.6230 N   0  0  0  0  0  0  0  0  0  0  0  0
   -2.8790   14.9040   -0.5330 C   0  0  2  0  0  0  0  0  0  0  0  0
   -2.1800    8.4110   -6.6680 C   0  0  0  0  0  0  0  0  0  0  0  0
   -0.3930   14.6450    0.8150 C   0  0  0  0  0  0  0  0  0  0  0  0
   -2.7470   14.6200    0.9350 C   0  0  1  0  0  0  0  0  0  0  0  0
   -4.2530   14.3470   -0.7190 C   0  0  0  0  0  0  0  0  0  0  0  0
   -1.5570   15.1810    1.4770 N   0  0  0  0  0  0  0  0  0  0  0  0
   -3.9160   15.2780    1.4770 N   0  0  0  0  0  0  0  0  0  0  0  0
   -4.9280   15.1320    0.4070 C   0  0  0  0  0  0  0  0  0  0  0  0
  2  1  1  1
  2  3  1  0
  2  4  1  0
  4  5  1  0
  4  6  1  6
  5  7  1  0
  5  8  1  1
  6  9  1  0
  6 10  1  0
  7 11  1  1
  7 12  1  0
  8 13  1  0
 12 13  1  0
  9 14  1  0
 10 15  1  0
 14 15  1  0
 10 16  1  1
 14 17  1  6
 11 18  1  0
 11 19  1  0
 20 12  1  6
 15 21  1  6
 16 22  1  0
 17 23  1  0
 17 24  1  0
 17 25  1  0
 18 26  1  0
 19 26  1  0
 20 27  1  0
 20 28  1  0
 21 29  1  0
 22 29  1  0
 27 30  1  0
 28 31  1  0
 28 32  1  6
 30 33  1  0
 31 33  1  1
 31 34  1  0
 32 35  1  0
 34 35  1  0
M  CHG  1   1  -1
M  END
