ucsf016-ucsf170
     RDKit          3D

 29 33  0  0  0  0  0  0  0  0999 V2000
   -5.7710   12.5420    1.2980 C   0  0  0  0  0  0  0  0  0  0  0  0
   -4.2720   13.4910    0.9940 S   0  0  0  0  0  0  0  0  0  0  0  0
   -3.7140   12.7890   -0.6260 C   0  0  2  0  0  0  0  0  0  0  0  0
   -2.2300   13.0850   -0.8600 C   0  0  0  0  0  0  0  0  0  0  0  0
   -4.5600   13.2110   -1.8490 C   0  0  0  0  0  0  0  0  0  0  0  0
   -1.7690   12.2920   -2.0950 C   0  0  2  0  0  0  0  0  0  0  0  0
   -3.9070   12.8700   -3.2190 C   0  0  0  0  0  0  0  0  0  0  0  0
   -0.2190   12.0640   -2.1260 C   0  0  1  0  0  0  0  0  0  0  0  0
   -2.3870   13.1000   -3.2520 C   0  0  2  0  0  0  0  0  0  0  0  0
   -1.8560   12.7460   -4.5470 O   0  0  0  0  0  0  0  0  0  0  0  0
    0.3370   12.6080   -0.9550 O   0  0  0  0  0  0  0  0  0  0  0  0
    0.1010   10.7870   -1.9360 O   0  0  0  0  0  0  0  0  0  0  0  0
   -1.3660   13.8910   -5.2690 C   0  0  1  0  0  0  0  0  0  0  0  0
   -2.2420   15.1190   -4.9440 C   0  0  0  0  0  0  0  0  0  0  0  0
    0.1400   14.0950   -4.9990 C   0  0  0  0  0  0  0  0  0  0  0  0
   -3.7360   14.8410   -4.8790 C   0  0  0  0  0  0  0  0  0  0  0  0
   -3.2070   15.6750   -5.9930 C   0  0  0  0  0  0  0  0  0  0  0  0
    0.4530   14.8720   -3.7130 C   0  0  0  0  0  0  0  0  0  0  0  0
   -1.7000   16.1120   -3.9240 C   0  0  0  0  0  0  0  0  0  0  0  0
   -0.6940   15.5090   -3.0490 N   0  0  0  0  0  0  0  0  0  0  0  0
   -1.0700   15.1650   -1.6690 C   0  0  1  0  0  0  0  0  0  0  0  0
    0.0700   15.5040   -0.8250 N   0  0  0  0  0  0  0  0  0  0  0  0
   -2.3510   15.7260   -1.0400 C   0  0  2  0  0  0  0  0  0  0  0  0
   -0.0530   15.1090    0.5650 C   0  0  0  0  0  0  0  0  0  0  0  0
   -2.4400   15.2290    0.3770 C   0  0  1  0  0  0  0  0  0  0  0  0
   -3.7350   15.4300   -1.5490 C   0  0  0  0  0  0  0  0  0  0  0  0
   -1.2990   15.5860    1.1500 N   0  0  0  0  0  0  0  0  0  0  0  0
   -3.6530   15.8980    0.8180 N   0  0  0  0  0  0  0  0  0  0  0  0
   -4.5960   15.7420   -0.3120 C   0  0  0  0  0  0  0  0  0  0  0  0
  1  2  1  0
  3  2  1  1
  3  4  1  0
  3  5  1  0
  6  4  1  1
  5  7  1  0
  6  8  1  0
  6  9  1  0
  7  9  1  0
  9 10  1  6
  8 11  1  1
  8 12  1  0
 13 10  1  1
 13 14  1  0
 13 15  1  0
 14 16  1  0
 14 17  1  0
 16 17  1  0
 15 18  1  0
 14 19  1  0
 18 20  1  0
 19 20  1  0
 21 20  1  6
 21 22  1  0
 21 23  1  0
 22 24  1  0
 23 25  1  0
 23 26  1  6
 24 27  1  0
 25 27  1  1
 25 28  1  0
 26 29  1  0
 28 29  1  0
M  CHG  1  12  -1
M  END
