ucsf380-ucsf365
     RDKit          3D

 26 28  0  0  0  0  0  0  0  0999 V2000
   -0.1900   15.0780   -1.0430 O   0  0  0  0  0  0  0  0  0  0  0  0
   -0.2650   14.3130   -2.1250 C   0  0  1  0  0  0  0  0  0  0  0  0
    0.6230   13.1900   -1.9590 O   0  0  0  0  0  0  0  0  0  0  0  0
   -1.7790   13.7850   -2.3090 C   0  0  0  0  0  0  0  0  0  0  0  0
    1.5480   12.9100   -3.0410 C   0  0  1  0  0  0  0  0  0  0  0  0
   -2.8980   14.2680   -1.3020 C   0  0  0  0  0  0  0  0  0  0  0  0
   -1.8530   12.2220   -2.4440 C   0  0  0  0  0  0  0  0  0  0  0  0
    1.2400   11.7510   -3.5840 O   0  0  0  0  0  0  0  0  0  0  0  0
    1.5000   13.9910   -4.1980 C   0  0  0  0  0  0  0  0  0  0  0  0
   -2.3830   14.6840    0.1120 C   0  0  0  0  0  0  0  0  0  0  0  0
   -3.8760   15.3060   -1.8930 C   0  0  0  0  0  0  0  0  0  0  0  0
   -3.2960   11.7500   -2.6500 C   0  0  0  0  0  0  0  0  0  0  0  0
   -0.8520   11.5340   -3.4000 C   0  0  0  0  0  0  0  0  0  0  0  0
   -3.4190   15.4220    0.9590 C   0  0  0  0  0  0  0  0  0  0  0  0
   -5.0390   15.6100   -0.9500 C   0  0  0  0  0  0  0  0  0  0  0  0
   -3.3280   10.2940   -3.0580 C   0  0  0  0  0  0  0  0  0  0  0  0
   -1.3930   10.7640   -4.6260 C   0  0  0  0  0  0  0  0  0  0  0  0
    0.2370   14.1710   -5.1320 C   0  0  1  0  0  0  0  0  0  0  0  0
   -4.8110   15.1080    0.4670 C   0  0  0  0  0  0  0  0  0  0  0  0
   -2.7190   10.0570   -4.4280 C   0  0  0  0  0  0  0  0  0  0  0  0
   -0.8280   13.0590   -5.1030 C   0  0  2  0  0  0  0  0  0  0  0  0
   -0.3410   15.5960   -4.9330 C   0  0  0  0  0  0  0  0  0  0  0  0
   -0.2810   11.9160   -5.7820 O   0  0  0  0  0  0  0  0  0  0  0  0
   -2.1510   13.3770   -5.8240 C   0  0  0  0  0  0  0  0  0  0  0  0
   -1.8540   15.6790   -4.6790 C   0  0  0  0  0  0  0  0  0  0  0  0
   -2.7350   14.7570   -5.5170 C   0  0  0  0  0  0  0  0  0  0  0  0
  2  1  1  1
  2  3  1  0
  2  4  1  0
  3  5  1  0
  4  6  1  0
  4  7  1  0
  5  8  1  6
  5  9  1  0
  6 10  1  0
  6 11  1  0
  7 12  1  0
  7 13  1  0
 10 14  1  0
 11 15  1  0
 12 16  1  0
 13 17  1  0
 18  9  1  1
 14 19  1  0
 15 19  1  0
 16 20  1  0
 17 20  1  0
 18 21  1  0
 18 22  1  0
 21 23  1  6
 21 24  1  0
 22 25  1  0
 24 26  1  0
 25 26  1  0
M  CHG  2   1  -1   8  -1
M  END
