ucsf110-ucsf114
     RDKit          3D

 17 18  0  0  0  0  0  0  0  0999 V2000
   -0.3320   14.5590   -3.5870 C   0  0  0  0  0  0  0  0  0  0  0  0
    0.1390   15.8890   -4.1930 C   0  0  0  0  0  0  0  0  0  0  0  0
   -0.7880   16.4580   -5.1230 O   0  0  0  0  0  0  0  0  0  0  0  0
   -1.3830   14.6340   -2.5430 N   0  0  0  0  0  0  0  0  0  0  0  0
   -2.6320   15.2580   -2.9480 C   0  0  0  0  0  0  0  0  0  0  0  0
   -1.0130   15.2990   -1.2800 C   0  0  1  0  0  0  0  0  0  0  0  0
   -0.3860   17.7180   -5.6420 C   0  0  0  0  0  0  0  0  0  0  0  0
   -3.4290   15.2370   -1.6580 C   0  0  0  0  0  0  0  0  0  0  0  0
   -2.3730   15.5550   -0.5980 C   0  0  1  0  0  0  0  0  0  0  0  0
   -0.0480   14.5030   -0.5190 N   0  0  0  0  0  0  0  0  0  0  0  0
    0.8250   18.2090   -4.8720 C   0  0  0  0  0  0  0  0  0  0  0  0
   -1.5750   18.6580   -5.4760 C   0  0  0  0  0  0  0  0  0  0  0  0
    1.4810   14.2680   -1.2270 S   0  0  0  0  0  0  0  0  0  0  0  0
   -2.5290   14.7190    0.6550 C   0  0  2  0  0  0  0  0  0  0  0  0
   -0.1290   14.6310    0.9590 C   0  0  0  0  0  0  0  0  0  0  0  0
   -3.6980   15.1290    1.4120 N   0  0  0  0  0  0  0  0  0  0  0  0
   -1.4340   15.0260    1.5180 N   0  0  0  0  0  0  0  0  0  0  0  0
  1  2  1  0
  2  3  1  0
  1  4  1  0
  4  5  1  0
  6  4  1  6
  3  7  1  0
  5  8  1  0
  6  9  1  0
  9  8  1  6
  6 10  1  0
  7 11  1  0
  7 12  1  0
 10 13  1  0
  9 14  1  0
 10 15  1  0
 14 16  1  1
 14 17  1  0
 15 17  1  0
M  END
