ucsf493-ucsf339
     RDKit          3D

 29 32  0  0  0  0  0  0  0  0999 V2000
   -4.3170   15.3070   -6.1560 C   0  0  0  0  0  0  0  0  0  0  0  0
   -3.4920   16.4650   -6.2050 O   0  0  0  0  0  0  0  0  0  0  0  0
   -2.5510   16.5210   -5.1300 C   0  0  1  0  0  0  0  0  0  0  0  0
   -1.7640   15.2060   -5.0230 C   0  0  0  0  0  0  0  0  0  0  0  0
   -1.7040   17.7790   -5.3570 C   0  0  0  0  0  0  0  0  0  0  0  0
   -0.4630   15.3080   -4.2280 C   0  0  2  0  0  0  0  0  0  0  0  0
   -0.2040   17.5480   -5.5280 C   0  0  0  0  0  0  0  0  0  0  0  0
    0.4110   16.5170   -4.5870 C   0  0  2  0  0  0  0  0  0  0  0  0
    0.5070   14.1110   -4.0930 C   0  0  1  0  0  0  0  0  0  0  0  0
    0.1330   12.6410   -4.3980 C   0  0  0  0  0  0  0  0  0  0  0  0
    1.6170   15.9610   -5.1680 N   0  0  0  0  0  0  0  0  0  0  0  0
    1.6250   14.4970   -5.0070 C   0  0  0  0  0  0  0  0  0  0  0  0
    0.0430   11.7650   -3.1360 C   0  0  1  0  0  0  0  0  0  0  0  0
    0.3140   10.4100   -3.3860 O   0  0  0  0  0  0  0  0  0  0  0  0
    0.9980   12.2760   -2.2130 O   0  0  0  0  0  0  0  0  0  0  0  0
    0.5450   13.4720   -1.5790 C   0  0  1  0  0  0  0  0  0  0  0  0
    1.2190   14.5010   -2.0850 O   0  0  0  0  0  0  0  0  0  0  0  0
   -0.9920   13.5820   -1.9160 C   0  0  1  0  0  0  0  0  0  0  0  0
   -1.8550   14.3620   -0.9540 C   0  0  0  0  0  0  0  0  0  0  0  0
   -1.3450   14.1210   -3.3000 C   0  0  0  0  0  0  0  0  0  0  0  0
   -3.1840   14.8460   -1.5950 C   0  0  1  0  0  0  0  0  0  0  0  0
   -2.6640   13.7220   -3.7820 N   0  0  0  0  0  0  0  0  0  0  0  0
   -3.6660   13.9860   -2.7710 C   0  0  0  0  0  0  0  0  0  0  0  0
   -4.2110   14.8390   -0.4690 C   0  0  0  0  0  0  0  0  0  0  0  0
   -3.5820   14.9090    0.9100 C   0  0  0  0  0  0  0  0  0  0  0  0
   -5.1410   13.6050   -0.4800 C   0  0  0  0  0  0  0  0  0  0  0  0
   -4.6530   15.4880    1.7590 C   0  0  0  0  0  0  0  0  0  0  0  0
   -5.7780   13.3640    0.8880 C   0  0  0  0  0  0  0  0  0  0  0  0
   -5.9760   14.6900    1.6050 C   0  0  0  0  0  0  0  0  0  0  0  0
  1  2  1  0
  3  2  1  6
  3  4  1  0
  3  5  1  0
  6  4  1  6
  5  7  1  0
  6  8  1  0
  8  7  1  6
  6  9  1  0
  9 10  1  6
  8 11  1  0
  9 12  1  0
 11 12  1  0
 10 13  1  0
 13 14  1  6
 13 15  1  0
 15 16  1  0
 16 17  1  6
 16 18  1  0
 18 19  1  1
 18 20  1  0
 19 21  1  0
 20 22  1  0
 21 23  1  0
 22 23  1  0
 21 24  1  1
 24 25  1  0
 24 26  1  0
 25 27  1  0
 26 28  1  0
 27 29  1  0
 28 29  1  0
M  CHG  1  17  -1
M  END
