ucsf333-ucsf017
     RDKit          3D

 28 32  0  0  0  0  0  0  0  0999 V2000
   -6.2350   14.9910   -1.5720 Cl  0  0  0  0  0  0  0  0  0  0  0  0
   -4.5280   15.5110   -1.4380 C   0  0  2  0  0  0  0  0  0  0  0  0
   -3.7510   15.2350   -2.7230 C   0  0  0  0  0  0  0  0  0  0  0  0
   -3.8380   14.8510   -0.2660 C   0  0  0  0  0  0  0  0  0  0  0  0
   -2.3570   15.8940   -2.7370 C   0  0  2  0  0  0  0  0  0  0  0  0
   -2.2800   14.7920   -0.3900 C   0  0  1  0  0  0  0  0  0  0  0  0
   -1.5760   15.4280   -3.8890 N   0  0  0  0  0  0  0  0  0  0  0  0
   -1.6120   15.7430   -1.3950 C   0  0  1  0  0  0  0  0  0  0  0  0
   -1.7980   15.1780    0.9930 N   0  0  0  0  0  0  0  0  0  0  0  0
   -1.7020   13.3760   -0.5410 C   0  0  1  0  0  0  0  0  0  0  0  0
   -0.1480   15.5910   -3.6450 C   0  0  1  0  0  0  0  0  0  0  0  0
    0.1180   15.4230   -1.8440 S   0  0  0  0  0  0  0  0  0  0  0  0
   -1.3570   12.7450   -1.8300 N   0  0  0  0  0  0  0  0  0  0  0  0
   -0.4570   13.4460    0.2440 N   0  0  0  0  0  0  0  0  0  0  0  0
   -0.5020   14.5560    1.1530 C   0  0  0  0  0  0  0  0  0  0  0  0
    0.7520   14.5920   -4.4020 C   0  0  0  0  0  0  0  0  0  0  0  0
   -1.7590   13.1990   -3.1850 C   0  0  2  0  0  0  0  0  0  0  0  0
   -0.0020   12.2830   -2.0050 C   0  0  0  0  0  0  0  0  0  0  0  0
    2.0860   14.3060   -3.7130 C   0  0  0  0  0  0  0  0  0  0  0  0
   -3.1430   13.6080   -3.7090 C   0  0  0  0  0  0  0  0  0  0  0  0
   -1.6330   12.1320   -4.2950 C   0  0  1  0  0  0  0  0  0  0  0  0
   -0.0790   10.9530   -2.7420 C   0  0  0  0  0  0  0  0  0  0  0  0
    2.4800   12.8460   -3.4250 C   0  0  1  0  0  0  0  0  0  0  0  0
   -1.7770   13.0280   -5.5030 C   0  0  0  0  0  0  0  0  0  0  0  0
   -2.9390   13.8140   -5.1430 O   0  0  0  0  0  0  0  0  0  0  0  0
   -0.4730   11.1550   -4.2100 C   0  0  0  0  0  0  0  0  0  0  0  0
    2.3970   12.5930   -2.1500 O   0  0  0  0  0  0  0  0  0  0  0  0
    1.5200   11.9710   -3.9340 O   0  0  0  0  0  0  0  0  0  0  0  0
  2  1  1  6
  2  3  1  0
  2  4  1  0
  5  3  1  1
  6  4  1  1
  5  7  1  0
  5  8  1  0
  6  8  1  0
  6  9  1  0
  6 10  1  0
  7 11  1  0
  8 12  1  6
 11 12  1  0
 10 13  1  6
 10 14  1  0
  9 15  1  0
 14 15  1  0
 11 16  1  6
 13 17  1  0
 13 18  1  0
 16 19  1  0
 17 20  1  1
 17 21  1  0
 18 22  1  0
 19 23  1  0
 21 24  1  6
 20 25  1  0
 24 25  1  0
 21 26  1  0
 22 26  1  0
 23 27  1  1
 23 28  1  0
M  CHG  1  27  -1
M  END
