ucsf151-ucsf338
     RDKit          3D

 22 23  0  0  0  0  0  0  0  0999 V2000
    0.4750   12.9380   -2.2680 O   0  0  0  0  0  0  0  0  0  0  0  0
   -0.1630   14.0880   -2.4260 C   0  0  1  0  0  0  0  0  0  0  0  0
    0.9020   15.0150   -2.3960 O   0  0  0  0  0  0  0  0  0  0  0  0
   -0.9320   14.1440   -3.7960 C   0  0  2  0  0  0  0  0  0  0  0  0
   -2.4240   14.5960   -3.7740 C   0  0  1  0  0  0  0  0  0  0  0  0
   -0.9350   12.7690   -4.5180 C   0  0  0  0  0  0  0  0  0  0  0  0
   -2.8230   15.7310   -2.8460 C   0  0  0  0  0  0  0  0  0  0  0  0
   -2.9640   14.7990   -5.1800 C   0  0  1  0  0  0  0  0  0  0  0  0
   -2.2350   12.4280   -5.1440 N   0  0  0  0  0  0  0  0  0  0  0  0
   -2.4750   16.0020   -5.7960 O   0  0  0  0  0  0  0  0  0  0  0  0
   -4.1730   15.5550   -2.3820 O   0  0  0  0  0  0  0  0  0  0  0  0
   -2.7010   13.5360   -5.9990 C   0  0  0  0  0  0  0  0  0  0  0  0
   -4.2580   15.5670   -0.9650 C   0  0  1  0  0  0  0  0  0  0  0  0
   -5.1270   14.4740   -0.3200 C   0  0  2  0  0  0  0  0  0  0  0  0
   -2.7860   15.4310   -0.5250 C   0  0  0  0  0  0  0  0  0  0  0  0
   -6.6210   14.3990   -0.7420 C   0  0  1  0  0  0  0  0  0  0  0  0
   -2.5960   15.2420    0.9620 C   0  0  0  0  0  0  0  0  0  0  0  0
   -5.0190   14.6550    1.2090 C   0  0  0  0  0  0  0  0  0  0  0  0
   -7.5390   14.3890    0.3830 N   0  0  0  0  0  0  0  0  0  0  0  0
   -6.9820   15.4940   -1.5510 O   0  0  0  0  0  0  0  0  0  0  0  0
   -3.8840   15.5760    1.6610 C   0  0  0  0  0  0  0  0  0  0  0  0
   -8.8860   14.1520   -0.1090 O   0  0  0  0  0  0  0  0  0  0  0  0
  2  1  1  6
  2  3  1  0
  2  4  1  0
  4  5  1  0
  4  6  1  1
  5  7  1  1
  5  8  1  0
  6  9  1  0
  8 10  1  6
  7 11  1  0
  8 12  1  0
  9 12  1  0
 13 11  1  6
 13 14  1  0
 13 15  1  0
 14 16  1  0
 15 17  1  0
 14 18  1  1
 16 19  1  0
 16 20  1  6
 17 21  1  0
 18 21  1  0
 19 22  1  0
M  CHG  1   1  -1
M  END
