ucsf487-ucsf224
     RDKit          3D

 25 27  0  0  0  0  0  0  0  0999 V2000
   -7.5810   13.6890    2.8320 N   0  0  0  0  0  0  0  0  0  0  0  0
   -7.2880   14.4960    1.6450 C   0  0  2  0  0  0  0  0  0  0  0  0
   -7.9110   13.9380    0.3590 C   0  0  0  0  0  0  0  0  0  0  0  0
   -5.7780   14.4970    1.4790 C   0  0  0  0  0  0  0  0  0  0  0  0
   -5.2610   14.6050    0.0650 C   0  0  1  0  0  0  0  0  0  0  0  0
   -7.6370   14.7980   -0.7990 N   0  0  0  0  0  0  0  0  0  0  0  0
   -6.2280   15.2160   -0.9360 C   0  0  2  0  0  0  0  0  0  0  0  0
   -3.9050   15.3030    0.0030 C   0  0  0  0  0  0  0  0  0  0  0  0
   -5.7110   14.7950   -2.3100 C   0  0  0  0  0  0  0  0  0  0  0  0
   -3.3970   15.2500   -1.4300 C   0  0  0  0  0  0  0  0  0  0  0  0
   -4.2520   14.2950   -2.2610 C   0  0  2  0  0  0  0  0  0  0  0  0
   -3.6350   14.1050   -3.6470 C   0  0  0  0  0  0  0  0  0  0  0  0
   -3.7980   15.3380   -4.5070 C   0  0  0  0  0  0  0  0  0  0  0  0
   -2.6940   15.6140   -5.4950 C   0  0  0  0  0  0  0  0  0  0  0  0
   -1.3300   15.5890   -4.7870 C   0  0  1  0  0  0  0  0  0  0  0  0
   -0.6340   14.2220   -4.9750 C   0  0  0  0  0  0  0  0  0  0  0  0
   -0.4660   16.7880   -5.2280 C   0  0  1  0  0  0  0  0  0  0  0  0
   -1.3310   18.3500   -5.0580 Cl  0  0  0  0  0  0  0  0  0  0  0  0
    0.8610   14.2460   -4.6910 C   0  0  2  0  0  0  0  0  0  0  0  0
    0.8830   16.8300   -4.5560 C   0  0  0  0  0  0  0  0  0  0  0  0
    1.4450   12.9000   -4.1580 C   0  0  0  0  0  0  0  0  0  0  0  0
    1.2650   15.5000   -3.8850 C   0  0  0  0  0  0  0  0  0  0  0  0
    1.2720   12.4090   -2.6870 C   0  0  2  0  0  0  0  0  0  0  0  0
    0.5190   11.3270   -2.5850 O   0  0  0  0  0  0  0  0  0  0  0  0
    0.5740   13.3220   -1.8870 O   0  0  0  0  0  0  0  0  0  0  0  0
  2  1  1  1
  2  3  1  0
  2  4  1  0
  5  4  1  1
  3  6  1  0
  5  7  1  0
  6  7  1  0
  5  8  1  0
  7  9  1  6
  8 10  1  0
  9 11  1  0
 10 11  1  0
 11 12  1  6
 12 13  1  0
 13 14  1  0
 15 14  1  6
 15 16  1  0
 15 17  1  0
 17 18  1  1
 16 19  1  0
 17 20  1  0
 19 21  1  1
 19 22  1  0
 20 22  1  0
 21 23  1  0
 23 24  1  6
 23 25  1  0
M  CHG  1  24  -1
M  END
