ucsf110-ucsf337
     RDKit          3D

 19 21  0  0  0  0  0  0  0  0999 V2000
    0.1890   14.8790   -2.9770 C   0  0  0  0  0  0  0  0  0  0  0  0
   -0.8910   15.6650   -2.3870 N   0  0  0  0  0  0  0  0  0  0  0  0
   -2.1980   15.2970   -2.9470 C   0  0  0  0  0  0  0  0  0  0  0  0
   -0.9730   15.6050   -0.9140 C   0  0  1  0  0  0  0  0  0  0  0  0
   -2.9070   14.5900   -1.8170 C   0  0  0  0  0  0  0  0  0  0  0  0
   -2.4380   15.3480   -0.5930 C   0  0  1  0  0  0  0  0  0  0  0  0
   -0.1270   14.5610   -0.4160 N   0  0  0  0  0  0  0  0  0  0  0  0
   -2.5210   14.5200    0.6870 C   0  0  2  0  0  0  0  0  0  0  0  0
   -0.1240   14.5690    1.0290 C   0  0  0  0  0  0  0  0  0  0  0  0
   -3.8110   14.4860    1.3750 N   0  0  0  0  0  0  0  0  0  0  0  0
   -1.4380   14.8340    1.5700 N   0  0  0  0  0  0  0  0  0  0  0  0
   -5.0470   14.9630    0.7270 C   0  0  2  0  0  0  0  0  0  0  0  0
   -6.2510   14.0240    0.3420 C   0  0  1  0  0  0  0  0  0  0  0  0
   -4.6540   15.9850   -0.3360 C   0  0  0  0  0  0  0  0  0  0  0  0
   -7.5330   14.4580    1.0710 C   0  0  0  0  0  0  0  0  0  0  0  0
   -5.0950   15.7250   -1.7510 C   0  0  0  0  0  0  0  0  0  0  0  0
   -6.6290   13.9840   -1.0920 N   0  0  0  0  0  0  0  0  0  0  0  0
   -5.5680   14.3370   -1.9780 C   0  0  1  0  0  0  0  0  0  0  0  0
   -6.1180   14.2360   -3.3020 N   0  0  0  0  0  0  0  0  0  0  0  0
  1  2  1  0
  2  3  1  0
  2  4  1  0
  3  5  1  0
  4  6  1  0
  6  5  1  6
  4  7  1  6
  6  8  1  0
  7  9  1  0
  8 10  1  1
  8 11  1  0
  9 11  1  0
 12 10  1  6
 12 13  1  0
 12 14  1  0
 13 15  1  1
 14 16  1  0
 13 17  1  0
 16 18  1  0
 17 18  1  0
 18 19  1  6
M  END
