ucsf380-ucsf247
     RDKit          3D

 20 21  0  0  0  0  0  0  0  0999 V2000
    0.8750   15.1480   -1.2400 O   0  0  0  0  0  0  0  0  0  0  0  0
    0.3120   14.1360   -1.8160 C   0  0  0  0  0  0  0  0  0  0  0  0
    0.3810   13.1030   -0.8560 O   0  0  0  0  0  0  0  0  0  0  0  0
   -1.1210   14.3890   -2.4710 C   0  0  2  0  0  0  0  0  0  0  0  0
    1.2570   13.8760   -2.8290 O   0  0  0  0  0  0  0  0  0  0  0  0
   -0.8800   15.5480   -3.4770 C   0  0  0  0  0  0  0  0  0  0  0  0
   -2.2060   15.0650   -1.4610 C   0  0  2  0  0  0  0  0  0  0  0  0
   -1.6210   13.1970   -3.4150 C   0  0  0  0  0  0  0  0  0  0  0  0
   -2.4030   14.5940    0.0100 C   0  0  0  0  0  0  0  0  0  0  0  0
   -3.5150   15.4760   -2.2210 C   0  0  2  0  0  0  0  0  0  0  0  0
   -2.3570   11.9870   -2.8110 C   0  0  0  0  0  0  0  0  0  0  0  0
   -0.5360   12.6450   -4.3530 C   0  0  0  0  0  0  0  0  0  0  0  0
   -3.6740   15.1810    0.6500 C   0  0  0  0  0  0  0  0  0  0  0  0
   -4.8530   15.5900   -1.4700 C   0  0  0  0  0  0  0  0  0  0  0  0
   -3.0000   11.0830   -3.8770 C   0  0  0  0  0  0  0  0  0  0  0  0
   -1.1730   11.8490   -5.4880 C   0  0  0  0  0  0  0  0  0  0  0  0
   -3.7660   14.6830   -3.3680 O   0  0  0  0  0  0  0  0  0  0  0  0
   -4.8880   14.8150   -0.1940 C   0  0  2  0  0  0  0  0  0  0  0  0
   -2.0410   10.6900   -4.9970 C   0  0  0  0  0  0  0  0  0  0  0  0
   -6.1530   14.9650    0.4700 O   0  0  0  0  0  0  0  0  0  0  0  0
  2  1  1  0
  2  3  1  0
  2  4  1  0
  2  5  1  0
  4  6  1  6
  4  7  1  0
  4  8  1  0
  7  9  1  1
  7 10  1  0
  8 11  1  0
  8 12  1  0
  9 13  1  0
 10 14  1  0
 11 15  1  0
 12 16  1  0
 10 17  1  6
 13 18  1  0
 14 18  1  0
 15 19  1  0
 16 19  1  0
 18 20  1  1
M  CHG  1   1  -1
M  END
