ucsf138-ucsf387
     RDKit          3D

 22 23  0  0  0  0  0  0  0  0999 V2000
    0.9380   12.8560   -2.2900 O   0  0  0  0  0  0  0  0  0  0  0  0
    1.2600   12.1520   -3.3530 C   0  0  1  0  0  0  0  0  0  0  0  0
    0.6420   10.9370   -2.9460 O   0  0  0  0  0  0  0  0  0  0  0  0
    0.5470   12.6860   -4.6710 C   0  0  2  0  0  0  0  0  0  0  0  0
    1.2110   12.6330   -6.0460 N   0  0  0  0  0  0  0  0  0  0  0  0
   -0.0260   14.1430   -4.4480 C   0  0  2  0  0  0  0  0  0  0  0  0
    1.1210   11.4320   -6.8550 C   0  0  1  0  0  0  0  0  0  0  0  0
   -1.3720   14.1780   -5.1850 C   0  0  0  0  0  0  0  0  0  0  0  0
    0.8890   15.3360   -4.8390 C   0  0  0  0  0  0  0  0  0  0  0  0
    0.2550   10.6300   -6.1380 O   0  0  0  0  0  0  0  0  0  0  0  0
    0.5110   11.4500   -8.1470 N   0  0  0  0  0  0  0  0  0  0  0  0
   -2.1260   15.4920   -5.1380 C   0  0  1  0  0  0  0  0  0  0  0  0
    0.1480   16.6670   -5.0640 C   0  0  2  0  0  0  0  0  0  0  0  0
    0.9520   18.0820   -4.3660 Cl  0  0  0  0  0  0  0  0  0  0  0  0
   -3.6500   15.2360   -4.2810 Cl  0  0  0  0  0  0  0  0  0  0  0  0
    0.8860   10.4760   -9.1850 C   0  0  0  0  0  0  0  0  0  0  0  0
   -1.2980   16.6420   -4.5910 C   0  0  0  0  0  0  0  0  0  0  0  0
   -0.1290   10.2810  -10.3020 C   0  0  0  0  0  0  0  0  0  0  0  0
    1.2290    9.0980   -8.5720 C   0  0  0  0  0  0  0  0  0  0  0  0
    0.3000    9.1690  -11.2770 C   0  0  0  0  0  0  0  0  0  0  0  0
    1.8680    8.1230   -9.5760 C   0  0  0  0  0  0  0  0  0  0  0  0
    1.6840    8.5700  -11.0210 C   0  0  0  0  0  0  0  0  0  0  0  0
  2  1  1  1
  2  3  1  0
  2  4  1  0
  4  5  1  6
  4  6  1  0
  5  7  1  0
  6  8  1  6
  6  9  1  0
  7 10  1  1
  7 11  1  0
  8 12  1  0
  9 13  1  0
 13 14  1  1
 12 15  1  1
 11 16  1  0
 12 17  1  0
 13 17  1  0
 16 18  1  0
 16 19  1  0
 18 20  1  0
 19 21  1  0
 20 22  1  0
 21 22  1  0
M  CHG  1   1  -1
M  END
