ucsf387-ucsf493
     RDKit          3D

 17 18  0  0  0  0  0  0  0  0999 V2000
   -0.0230   18.0330   -6.1580 Cl  0  0  0  0  0  0  0  0  0  0  0  0
   -0.7760   16.4990   -5.4940 C   0  0  1  0  0  0  0  0  0  0  0  0
   -2.2080   16.6390   -5.6010 C   0  0  0  0  0  0  0  0  0  0  0  0
    0.0660   15.4700   -5.0620 C   0  0  2  0  0  0  0  0  0  0  0  0
    0.0420   14.4500   -3.6700 S   0  0  0  0  0  0  0  0  0  0  0  0
   -2.4810   15.5980   -4.4950 C   0  0  1  0  0  0  0  0  0  0  0  0
    0.1450   16.5820   -4.1010 N   0  0  0  0  0  0  0  0  0  0  0  0
   -3.8420   15.0140   -4.6160 C   0  0  0  0  0  0  0  0  0  0  0  0
    0.8310   12.7080   -3.7580 C   0  0  0  0  0  0  0  0  0  0  0  0
   -1.4620   14.6290   -4.8990 C   0  0  0  0  0  0  0  0  0  0  0  0
   -0.7720   13.9610   -2.0750 C   0  0  0  0  0  0  0  0  0  0  0  0
    1.7810   15.3500   -3.8620 C   0  0  0  0  0  0  0  0  0  0  0  0
    1.4180   16.6410   -4.3110 C   0  0  0  0  0  0  0  0  0  0  0  0
    0.3530   11.7940   -2.7480 C   0  0  1  0  0  0  0  0  0  0  0  0
   -4.4120   15.3150   -5.9830 C   0  0  0  0  0  0  0  0  0  0  0  0
    0.5760   10.4850   -2.5050 O   0  0  0  0  0  0  0  0  0  0  0  0
    0.6420   12.3810   -1.4850 O   0  0  0  0  0  0  0  0  0  0  0  0
  2  1  1  6
  2  3  1  0
  2  4  1  0
  4  5  1  0
  3  6  1  0
  4  7  1  1
  6  8  1  6
  5  9  1  0
  5 10  1  0
  6 10  1  0
  5 11  1  0
  5 12  1  0
  7 13  1  0
 12 13  1  0
  9 14  1  0
  8 15  1  0
 14 16  1  1
 14 17  1  0
M  CHG  1  16  -1
M  END
