ucsf519-ucsf258
     RDKit          3D

 15 15  0  0  0  0  0  0  0  0999 V2000
    0.0830   15.9920   -4.6130 C   0  0  0  0  0  0  0  0  0  0  0  0
   -0.7240   14.8310   -4.0130 C   0  0  2  0  0  0  0  0  0  0  0  0
   -0.4620   13.3540   -5.1160 S   0  0  0  0  0  0  0  0  0  0  0  0
   -2.2150   15.1660   -3.6520 C   0  0  1  0  0  0  0  0  0  0  0  0
    0.6480   12.1860   -4.1870 C   0  0  0  0  0  0  0  0  0  0  0  0
   -3.1090   14.3300   -4.3800 O   0  0  0  0  0  0  0  0  0  0  0  0
   -2.5610   15.1860   -2.2130 N   0  0  0  0  0  0  0  0  0  0  0  0
    0.4210   11.7530   -2.7010 C   0  0  2  0  0  0  0  0  0  0  0  0
   -3.9520   15.0540   -1.8150 C   0  0  0  0  0  0  0  0  0  0  0  0
   -1.7660   14.5190   -1.2150 C   0  0  1  0  0  0  0  0  0  0  0  0
    1.4430   12.3180   -1.9180 O   0  0  0  0  0  0  0  0  0  0  0  0
    0.5090   10.4440   -2.4630 O   0  0  0  0  0  0  0  0  0  0  0  0
   -0.4530   14.9680   -1.0670 O   0  0  0  0  0  0  0  0  0  0  0  0
   -3.8660   15.1230   -0.2950 C   0  0  0  0  0  0  0  0  0  0  0  0
   -2.4870   14.7330    0.0430 N   0  0  0  0  0  0  0  0  0  0  0  0
  2  1  1  6
  2  3  1  0
  2  4  1  0
  3  5  1  0
  4  6  1  6
  4  7  1  0
  5  8  1  0
  7  9  1  0
  7 10  1  0
  8 11  1  1
  8 12  1  0
 10 13  1  1
  9 14  1  0
 10 15  1  0
 14 15  1  0
M  CHG  1  12  -1
M  END
