ucsf243-ucsf345
     RDKit          3D

 14 14  0  0  0  0  0  0  0  0999 V2000
   -3.7480   15.6100    1.1390 C   0  0  0  0  0  0  0  0  0  0  0  0
   -3.5410   15.3140   -0.3440 C   0  0  2  0  0  0  0  0  0  0  0  0
   -4.6580   14.5550   -1.0540 C   0  0  1  0  0  0  0  0  0  0  0  0
   -2.1970   14.5820   -0.5160 C   0  0  0  0  0  0  0  0  0  0  0  0
   -6.0840   15.0000   -0.5530 C   0  0  2  0  0  0  0  0  0  0  0  0
   -1.8330   14.2550   -1.9750 C   0  0  2  0  0  0  0  0  0  0  0  0
   -4.3490   14.6650   -2.5880 C   0  0  0  0  0  0  0  0  0  0  0  0
   -0.3190   14.5890   -2.2160 C   0  0  2  0  0  0  0  0  0  0  0  0
   -6.3120   14.7270    0.8570 N   0  0  0  0  0  0  0  0  0  0  0  0
   -7.1650   14.3810   -1.1940 O   0  0  0  0  0  0  0  0  0  0  0  0
   -2.8470   14.8770   -2.9760 C   0  0  2  0  0  0  0  0  0  0  0  0
   -2.6130   14.3730   -4.2970 O   0  0  0  0  0  0  0  0  0  0  0  0
    0.1320   14.0070   -3.4200 O   0  0  0  0  0  0  0  0  0  0  0  0
    0.4150   13.9340   -1.3410 O   0  0  0  0  0  0  0  0  0  0  0  0
  2  1  1  1
  2  3  1  0
  2  4  1  0
  3  5  1  0
  6  4  1  1
  3  7  1  6
  6  8  1  0
  5  9  1  1
  5 10  1  0
  6 11  1  0
  7 11  1  0
 11 12  1  6
  8 13  1  6
  8 14  1  0
M  CHG  1  14  -1
M  END
