ucsf337-ucsf190
     RDKit          3D

 26 28  0  0  0  0  0  0  0  0999 V2000
   -7.3040   14.5860    0.9510 C   0  0  0  0  0  0  0  0  0  0  0  0
   -6.2140   14.0960   -0.0130 C   0  0  1  0  0  0  0  0  0  0  0  0
   -6.6930   14.3570   -1.3940 N   0  0  0  0  0  0  0  0  0  0  0  0
   -4.7720   14.6020    0.3070 C   0  0  2  0  0  0  0  0  0  0  0  0
   -4.5640   15.4160    2.0590 Br  0  0  0  0  0  0  0  0  0  0  0  0
   -4.2820   15.7250   -0.5420 C   0  0  0  0  0  0  0  0  0  0  0  0
   -5.9360   15.2570   -2.2620 C   0  0  2  0  0  0  0  0  0  0  0  0
   -6.2390   14.7070   -3.5650 N   0  0  0  0  0  0  0  0  0  0  0  0
   -4.4400   15.3490   -1.9660 C   0  0  0  0  0  0  0  0  0  0  0  0
   -5.0830   14.3350   -4.3760 C   0  0  0  0  0  0  0  0  0  0  0  0
   -3.9310   13.8290   -3.5060 C   0  0  0  0  0  0  0  0  0  0  0  0
   -2.5170   13.9880   -4.0890 C   0  0  2  0  0  0  0  0  0  0  0  0
   -1.8320   15.3730   -3.9730 C   0  0  0  0  0  0  0  0  0  0  0  0
   -2.4550   13.4640   -5.5080 C   0  0  0  0  0  0  0  0  0  0  0  0
   -0.6880   15.5370   -4.9920 C   0  0  2  0  0  0  0  0  0  0  0  0
   -1.0140   13.0840   -5.7700 C   0  0  0  0  0  0  0  0  0  0  0  0
   -0.0370   14.1900   -5.3420 C   0  0  2  0  0  0  0  0  0  0  0  0
    0.4800   16.5510   -4.7660 C   0  0  1  0  0  0  0  0  0  0  0  0
    0.0150   17.7940   -4.2810 O   0  0  0  0  0  0  0  0  0  0  0  0
    0.8170   13.8300   -4.1170 C   0  0  1  0  0  0  0  0  0  0  0  0
    1.6090   16.0930   -3.9500 N   0  0  0  0  0  0  0  0  0  0  0  0
    1.1240   12.3340   -3.9000 C   0  0  0  0  0  0  0  0  0  0  0  0
    2.0120   14.7070   -4.0580 N   0  0  0  0  0  0  0  0  0  0  0  0
    1.0910   11.7740   -2.4570 C   0  0  2  0  0  0  0  0  0  0  0  0
    0.5670   10.5400   -2.4080 O   0  0  0  0  0  0  0  0  0  0  0  0
    0.1660   12.4430   -1.6220 O   0  0  0  0  0  0  0  0  0  0  0  0
  2  1  1  1
  2  3  1  0
  2  4  1  0
  4  5  1  1
  4  6  1  0
  3  7  1  0
  7  8  1  6
  6  9  1  0
  7  9  1  0
  8 10  1  0
 10 11  1  0
 12 11  1  6
 12 13  1  0
 12 14  1  0
 15 13  1  1
 14 16  1  0
 15 17  1  0
 17 16  1  1
 15 18  1  0
 18 19  1  1
 17 20  1  0
 18 21  1  0
 20 22  1  6
 20 23  1  0
 21 23  1  0
 22 24  1  0
 24 25  1  6
 24 26  1  0
M  CHG  1  25  -1
M  END
