ucsf030-ucsf371
     RDKit          3D

 25 28  0  0  0  0  0  0  0  0999 V2000
   -4.3190   13.1210   -1.0350 Cl  0  0  0  0  0  0  0  0  0  0  0  0
   -2.8390   13.5540   -0.0680 C   0  0  2  0  0  0  0  0  0  0  0  0
   -2.8760   15.0310    0.3520 C   0  0  2  0  0  0  0  0  0  0  0  0
   -1.4800   13.3150   -0.8520 C   0  0  1  0  0  0  0  0  0  0  0  0
   -3.4880   15.7810   -0.7130 N   0  0  0  0  0  0  0  0  0  0  0  0
   -0.3000   13.6000   -0.0280 N   0  0  0  0  0  0  0  0  0  0  0  0
   -1.5470   15.5740    0.5890 N   0  0  0  0  0  0  0  0  0  0  0  0
   -1.1730   12.0930   -1.6770 N   0  0  0  0  0  0  0  0  0  0  0  0
   -0.5870   14.5680    1.0170 C   0  0  0  0  0  0  0  0  0  0  0  0
    0.2940   11.9950   -1.9250 C   0  0  0  0  0  0  0  0  0  0  0  0
   -1.8450   11.8890   -2.9860 C   0  0  0  0  0  0  0  0  0  0  0  0
   -3.0150   15.2850   -1.9770 C   0  0  1  0  0  0  0  0  0  0  0  0
    0.7140   12.1230   -3.3860 C   0  0  0  0  0  0  0  0  0  0  0  0
   -1.7080   10.4690   -3.6000 C   0  0  0  0  0  0  0  0  0  0  0  0
   -3.3430   11.4970   -2.7100 C   0  0  0  0  0  0  0  0  0  0  0  0
   -1.5800   13.0210   -3.9690 C   0  0  0  0  0  0  0  0  0  0  0  0
   -3.9570   15.6890   -2.9980 N   0  0  0  0  0  0  0  0  0  0  0  0
   -1.3860   15.9360   -2.3490 S   0  0  0  0  0  0  0  0  0  0  0  0
   -0.0690   13.2060   -4.1220 C   0  0  0  0  0  0  0  0  0  0  0  0
   -3.1790   15.6280   -4.2600 C   0  0  0  0  0  0  0  0  0  0  0  0
   -1.8770   16.4100   -4.0320 C   0  0  2  0  0  0  0  0  0  0  0  0
   -2.9090   10.0280   -2.7420 C   0  0  0  0  0  0  0  0  0  0  0  0
   -0.7830   16.2290   -5.0810 C   0  0  2  0  0  0  0  0  0  0  0  0
   -0.8200   14.8790   -5.4950 O   0  0  0  0  0  0  0  0  0  0  0  0
    0.4200   16.3210   -4.5730 O   0  0  0  0  0  0  0  0  0  0  0  0
  2  1  1  6
  2  3  1  0
  2  4  1  0
  3  5  1  6
  4  6  1  0
  3  7  1  0
  4  8  1  1
  6  9  1  0
  7  9  1  0
  8 10  1  0
 11  8  1  0
 12  5  1  1
 10 13  1  0
 11 14  1  0
 11 15  1  0
 11 16  1  0
 12 17  1  0
 12 18  1  0
 13 19  1  0
 16 19  1  0
 17 20  1  0
 18 21  1  0
 21 20  1  6
 14 22  1  0
 15 22  1  0
 21 23  1  0
 23 24  1  1
 23 25  1  0
M  CHG  1  25  -1
M  END
