ucsf006-ucsf109
     RDKit          3D

 28 32  0  0  0  0  0  0  0  0999 V2000
   -1.7360   15.3950   -3.4810 C   0  0  0  0  0  0  0  0  0  0  0  0
   -0.6940   15.1680   -2.4670 N   0  0  0  0  0  0  0  0  0  0  0  0
    0.5530   14.6810   -3.1100 C   0  0  0  0  0  0  0  0  0  0  0  0
   -1.1620   14.4850   -1.2640 C   0  0  2  0  0  0  0  0  0  0  0  0
    0.5050   14.4460   -4.6270 C   0  0  0  0  0  0  0  0  0  0  0  0
   -2.0320   15.2490   -0.3400 C   0  0  2  0  0  0  0  0  0  0  0  0
    0.0070   14.1550   -0.4470 N   0  0  0  0  0  0  0  0  0  0  0  0
    1.0390   13.0400   -5.0400 C   0  0  2  0  0  0  0  0  0  0  0  0
   -2.4930   14.3460    0.7790 C   0  0  1  0  0  0  0  0  0  0  0  0
   -0.0790   14.3150    1.0060 C   0  0  0  0  0  0  0  0  0  0  0  0
   -3.2820   15.9090   -0.6640 C   0  0  0  0  0  0  0  0  0  0  0  0
   -0.0980   12.2640   -5.4080 O   0  0  0  0  0  0  0  0  0  0  0  0
    1.5190   12.4190   -3.9780 O   0  0  0  0  0  0  0  0  0  0  0  0
   -1.3780   14.2550    1.6600 N   0  0  0  0  0  0  0  0  0  0  0  0
   -3.6970   15.0560    1.2760 N   0  0  0  0  0  0  0  0  0  0  0  0
   -3.3450   16.3270    0.7860 C   0  0  0  0  0  0  0  0  0  0  0  0
   -5.0180   14.8820    0.6940 C   0  0  2  0  0  0  0  0  0  0  0  0
   -5.9650   13.8740    1.1750 N   0  0  0  0  0  0  0  0  0  0  0  0
   -4.7980   14.9490   -0.8120 C   0  0  2  0  0  0  0  0  0  0  0  0
   -7.1160   13.6600    0.2970 C   0  0  2  0  0  0  0  0  0  0  0  0
   -6.0740   14.8580   -1.6200 C   0  0  2  0  0  0  0  0  0  0  0  0
   -3.8500   13.9460   -1.4770 C   0  0  0  0  0  0  0  0  0  0  0  0
   -6.5830   14.5110    2.3750 N   0  0  0  0  0  0  0  0  0  0  0  0
   -6.9990   13.8510   -1.1240 N   0  0  0  0  0  0  0  0  0  0  0  0
   -5.5690   14.3990   -3.0100 C   0  0  0  0  0  0  0  0  0  0  0  0
   -4.0500   14.3320   -2.9200 C   0  0  0  0  0  0  0  0  0  0  0  0
   -8.2420   14.4150    0.7920 N   0  0  0  0  0  0  0  0  0  0  0  0
   -8.0210   14.4030    2.2180 C   0  0  0  0  0  0  0  0  0  0  0  0
  1  2  1  0
  2  3  1  0
  4  2  1  6
  3  5  1  0
  4  6  1  0
  4  7  1  0
  5  8  1  0
  6  9  1  0
  7 10  1  0
  6 11  1  6
  8 12  1  1
  8 13  1  0
  9 14  1  1
 10 14  1  0
  9 15  1  0
 11 16  1  0
 15 16  1  0
 17 15  1  1
 17 18  1  0
 17 19  1  0
 18 20  1  0
 19 21  1  0
 19 22  1  6
 18 23  1  0
 20 24  1  6
 21 24  1  0
 21 25  1  6
 22 26  1  0
 25 26  1  0
 20 27  1  0
 23 28  1  0
 27 28  1  0
M  CHG  1  13  -1
M  END
