ucsf303-ucsf338
     RDKit          3D

 19 20  0  0  0  0  0  0  0  0999 V2000
   -2.4700   14.0690   -3.2640 O   0  0  0  0  0  0  0  0  0  0  0  0
   -3.8710   14.2620   -2.5160 S   0  0  0  0  0  0  0  0  0  0  0  0
   -4.4230   15.6850   -2.9370 O   0  0  0  0  0  0  0  0  0  0  0  0
   -4.9580   13.0860   -2.8350 N   0  0  0  0  0  0  0  0  0  0  0  0
   -3.5740   14.3550   -0.7730 C   0  0  1  0  0  0  0  0  0  0  0  0
   -4.8670   11.9270   -2.0060 C   0  0  1  0  0  0  0  0  0  0  0  0
   -2.0710   14.4850   -0.4530 C   0  0  0  0  0  0  0  0  0  0  0  0
   -4.5330   15.4000   -0.1200 C   0  0  1  0  0  0  0  0  0  0  0  0
   -6.0800   15.2100   -0.4710 C   0  0  2  0  0  0  0  0  0  0  0  0
   -5.8790   10.9410   -2.3690 N   0  0  0  0  0  0  0  0  0  0  0  0
   -3.2590   11.1920   -2.3240 S   0  0  0  0  0  0  0  0  0  0  0  0
   -1.7960   14.8220    1.0060 C   0  0  0  0  0  0  0  0  0  0  0  0
   -4.2090   15.5430    1.3740 C   0  0  0  0  0  0  0  0  0  0  0  0
   -6.8790   14.6050    0.6160 N   0  0  0  0  0  0  0  0  0  0  0  0
   -6.3440   14.3910   -1.5830 O   0  0  0  0  0  0  0  0  0  0  0  0
   -3.9560    9.5420   -2.3380 C   0  0  0  0  0  0  0  0  0  0  0  0
   -5.3760    9.6320   -1.9660 N   0  0  0  0  0  0  0  0  0  0  0  0
   -3.0600   14.6490    1.8080 C   0  0  0  0  0  0  0  0  0  0  0  0
   -8.2440   14.4390    0.0960 O   0  0  0  0  0  0  0  0  0  0  0  0
  2  1  1  0
  2  3  1  0
  2  4  1  0
  5  2  1  6
  6  4  1  6
  5  7  1  0
  5  8  1  0
  8  9  1  0
  6 10  1  0
  6 11  1  0
  7 12  1  0
  8 13  1  1
  9 14  1  0
  9 15  1  6
 11 16  1  0
 10 17  1  0
 16 17  1  0
 12 18  1  0
 13 18  1  0
 14 19  1  0
M  END
