ucsf337-ucsf247
     RDKit          3D

 16 16  0  0  0  0  0  0  0  0999 V2000
   -7.1720   14.3810    0.7940 C   0  0  0  0  0  0  0  0  0  0  0  0
   -6.3670   15.1000   -0.2970 C   0  0  2  0  0  0  0  0  0  0  0  0
   -6.3350   14.1870   -1.4630 N   0  0  0  0  0  0  0  0  0  0  0  0
   -4.9850   15.6480    0.1650 C   0  0  1  0  0  0  0  0  0  0  0  0
   -4.4860   15.3810    2.0180 Br  0  0  0  0  0  0  0  0  0  0  0  0
   -3.8300   15.1050   -0.6020 C   0  0  0  0  0  0  0  0  0  0  0  0
   -5.2790   14.3810   -2.4580 C   0  0  1  0  0  0  0  0  0  0  0  0
   -5.9860   14.7220   -3.6850 N   0  0  0  0  0  0  0  0  0  0  0  0
   -4.1750   15.3450   -2.0400 C   0  0  2  0  0  0  0  0  0  0  0  0
   -2.9050   15.3840   -2.9000 C   0  0  1  0  0  0  0  0  0  0  0  0
   -1.9430   14.3950   -2.4590 N   0  0  0  0  0  0  0  0  0  0  0  0
   -3.2740   15.0890   -4.2260 O   0  0  0  0  0  0  0  0  0  0  0  0
   -0.7280   14.4020   -3.3120 C   0  0  0  0  0  0  0  0  0  0  0  0
    0.6160   14.2570   -2.5340 C   0  0  1  0  0  0  0  0  0  0  0  0
    0.6390   13.1420   -1.8390 O   0  0  0  0  0  0  0  0  0  0  0  0
    1.6610   14.0490   -3.4750 O   0  0  0  0  0  0  0  0  0  0  0  0
  2  1  1  1
  2  3  1  0
  2  4  1  0
  4  5  1  1
  4  6  1  0
  3  7  1  0
  7  8  1  6
  9  6  1  1
  7  9  1  0
  9 10  1  0
 10 11  1  0
 10 12  1  6
 11 13  1  0
 13 14  1  0
 14 15  1  1
 14 16  1  0
M  CHG  1  15  -1
M  END
