ucsf371-ucsf260
     RDKit          3D

 24 26  0  0  0  0  0  0  0  0999 V2000
   -5.1920   14.9280    0.4590 C   0  0  0  0  0  0  0  0  0  0  0  0
   -4.4100   15.2260   -0.8180 C   0  0  2  0  0  0  0  0  0  0  0  0
   -4.9000   14.5150   -2.0120 N   0  0  0  0  0  0  0  0  0  0  0  0
   -2.6840   14.8030   -0.5960 S   0  0  0  0  0  0  0  0  0  0  0  0
   -3.7320   14.1820   -2.8990 C   0  0  0  0  0  0  0  0  0  0  0  0
   -2.5080   14.9400   -2.4050 C   0  0  2  0  0  0  0  0  0  0  0  0
   -1.0860   14.6040   -2.9810 C   0  0  1  0  0  0  0  0  0  0  0  0
   -1.0420   14.9920   -4.3630 O   0  0  0  0  0  0  0  0  0  0  0  0
   -0.1460   15.2890   -2.3550 O   0  0  0  0  0  0  0  0  0  0  0  0
   -1.2280   13.8600   -5.2090 C   0  0  0  0  0  0  0  0  0  0  0  0
    0.0450   12.9560   -5.4140 C   0  0  1  0  0  0  0  0  0  0  0  0
    1.1380   13.1900   -4.3080 C   0  0  0  0  0  0  0  0  0  0  0  0
   -0.2880   11.5210   -5.4520 N   0  0  0  0  0  0  0  0  0  0  0  0
    0.9860   12.4920   -2.9110 C   0  0  1  0  0  0  0  0  0  0  0  0
   -1.4720   11.1590   -4.6750 C   0  0  0  0  0  0  0  0  0  0  0  0
   -0.5660   10.9970   -6.7730 C   0  0  2  0  0  0  0  0  0  0  0  0
    0.8980   11.1810   -2.9880 O   0  0  0  0  0  0  0  0  0  0  0  0
    2.1420   12.7330   -2.1510 O   0  0  0  0  0  0  0  0  0  0  0  0
   -2.2060   10.1300   -5.4250 N   0  0  0  0  0  0  0  0  0  0  0  0
   -1.1820    9.6770   -6.3640 C   0  0  1  0  0  0  0  0  0  0  0  0
    0.6660   10.8490   -7.6630 C   0  0  0  0  0  0  0  0  0  0  0  0
   -1.6830    8.8650   -7.5370 C   0  0  0  0  0  0  0  0  0  0  0  0
    0.7360    9.4460   -8.2550 C   0  0  0  0  0  0  0  0  0  0  0  0
   -0.6410    8.8840   -8.6590 C   0  0  0  0  0  0  0  0  0  0  0  0
  2  1  1  1
  2  3  1  0
  2  4  1  0
  3  5  1  0
  4  6  1  0
  6  5  1  6
  6  7  1  0
  7  8  1  0
  7  9  1  1
  8 10  1  0
 11 10  1  1
 11 12  1  0
 11 13  1  0
 12 14  1  0
 13 15  1  0
 13 16  1  0
 14 17  1  6
 14 18  1  0
 15 19  1  0
 16 20  1  0
 19 20  1  0
 16 21  1  6
 20 22  1  6
 21 23  1  0
 22 24  1  0
 23 24  1  0
M  CHG  2   9  -1  17  -1
M  END
