ucsf151-ucsf030
     RDKit          3D

 25 27  0  0  0  0  0  0  0  0999 V2000
    0.1330   10.5850   -2.1250 O   0  0  0  0  0  0  0  0  0  0  0  0
   -0.7910   11.5390   -2.0800 C   0  0  1  0  0  0  0  0  0  0  0  0
   -0.1720   12.3230   -1.0830 O   0  0  0  0  0  0  0  0  0  0  0  0
   -0.9480   12.3860   -3.3960 C   0  0  2  0  0  0  0  0  0  0  0  0
   -2.4750   12.6580   -3.7020 C   0  0  0  0  0  0  0  0  0  0  0  0
   -0.0930   11.9150   -4.6240 C   0  0  1  0  0  0  0  0  0  0  0  0
   -2.8350   13.2440   -5.0740 C   0  0  1  0  0  0  0  0  0  0  0  0
   -0.8870   11.8620   -5.8750 N   0  0  0  0  0  0  0  0  0  0  0  0
    1.1710   12.7790   -4.8370 C   0  0  0  0  0  0  0  0  0  0  0  0
   -3.3050   14.6020   -5.0240 O   0  0  0  0  0  0  0  0  0  0  0  0
   -1.6710   13.0850   -6.0500 C   0  0  0  0  0  0  0  0  0  0  0  0
    1.2830   14.2040   -4.2120 C   0  0  2  0  0  0  0  0  0  0  0  0
    0.8800   14.3060   -2.7120 C   0  0  0  0  0  0  0  0  0  0  0  0
    0.6680   15.3460   -5.0130 C   0  0  0  0  0  0  0  0  0  0  0  0
   -0.5770   14.3540   -2.4500 N   0  0  0  0  0  0  0  0  0  0  0  0
   -0.4590   16.0340   -4.2740 C   0  0  0  0  0  0  0  0  0  0  0  0
   -1.0320   14.5140   -1.0410 C   0  0  1  0  0  0  0  0  0  0  0  0
   -1.3370   15.0480   -3.5040 C   0  0  0  0  0  0  0  0  0  0  0  0
   -2.5400   14.2250   -0.7420 C   0  0  2  0  0  0  0  0  0  0  0  0
   -0.1620   13.7960   -0.1060 N   0  0  0  0  0  0  0  0  0  0  0  0
   -3.7340   15.2800   -1.5900 Cl  0  0  0  0  0  0  0  0  0  0  0  0
   -2.7040   14.3560    0.7890 C   0  0  2  0  0  0  0  0  0  0  0  0
   -0.3040   14.2890    1.2540 C   0  0  0  0  0  0  0  0  0  0  0  0
   -3.8270   15.1440    1.2730 N   0  0  0  0  0  0  0  0  0  0  0  0
   -1.5670   14.9890    1.4240 N   0  0  0  0  0  0  0  0  0  0  0  0
  2  1  1  6
  2  3  1  0
  2  4  1  0
  4  5  1  6
  4  6  1  0
  5  7  1  0
  6  8  1  0
  6  9  1  6
  7 10  1  1
  7 11  1  0
  8 11  1  0
 12  9  1  6
 12 13  1  0
 12 14  1  0
 13 15  1  0
 14 16  1  0
 17 15  1  6
 15 18  1  0
 16 18  1  0
 17 19  1  0
 17 20  1  0
 19 21  1  6
 19 22  1  0
 20 23  1  0
 22 24  1  6
 22 25  1  0
 23 25  1  0
M  CHG  1   1  -1
M  END
