ucsf493-ucsf262
     RDKit          3D

 17 19  0  0  0  0  0  0  0  0999 V2000
   -4.5530   15.1470   -5.6890 C   0  0  0  0  0  0  0  0  0  0  0  0
   -3.7190   16.0980   -5.0320 O   0  0  0  0  0  0  0  0  0  0  0  0
   -2.4670   16.1710   -5.6620 C   0  0  2  0  0  0  0  0  0  0  0  0
   -1.7500   14.8570   -5.3100 C   0  0  0  0  0  0  0  0  0  0  0  0
   -1.7450   17.4860   -5.2810 C   0  0  0  0  0  0  0  0  0  0  0  0
   -0.4500   15.0820   -4.6040 C   0  0  2  0  0  0  0  0  0  0  0  0
   -0.1950   17.5280   -5.2690 C   0  0  0  0  0  0  0  0  0  0  0  0
    0.4850   16.1730   -5.1230 C   0  0  1  0  0  0  0  0  0  0  0  0
    0.6000   14.0320   -4.6080 C   0  0  2  0  0  0  0  0  0  0  0  0
    0.3000   12.5690   -4.3610 C   0  0  0  0  0  0  0  0  0  0  0  0
    1.6150   16.0660   -4.1730 N   0  0  0  0  0  0  0  0  0  0  0  0
    1.2260   14.8180   -3.4640 C   0  0  2  0  0  0  0  0  0  0  0  0
    0.5390   12.2190   -2.8950 C   0  0  1  0  0  0  0  0  0  0  0  0
    2.0580   14.0330   -2.3900 C   0  0  1  0  0  0  0  0  0  0  0  0
    0.4560   10.8140   -2.7320 O   0  0  0  0  0  0  0  0  0  0  0  0
    1.8370   12.5980   -2.4730 O   0  0  0  0  0  0  0  0  0  0  0  0
    3.3440   14.2650   -2.5400 O   0  0  0  0  0  0  0  0  0  0  0  0
  1  2  1  0
  3  2  1  1
  3  4  1  0
  3  5  1  0
  6  4  1  6
  5  7  1  0
  6  8  1  0
  8  7  1  1
  6  9  1  0
  9 10  1  1
  8 11  1  0
  9 12  1  0
 12 11  1  6
 10 13  1  0
 12 14  1  0
 13 15  1  6
 13 16  1  0
 14 16  1  0
 14 17  1  6
M  CHG  1  17  -1
M  END
