ucsf013-ucsf006
     RDKit          3D

 26 29  0  0  0  0  0  0  0  0999 V2000
   -4.9570   15.1010    2.0750 N   0  0  0  0  0  0  0  0  0  0  0  0
   -5.6380   14.2010    1.2030 C   0  0  1  0  0  0  0  0  0  0  0  0
   -7.0260   14.5680    1.4930 N   0  0  0  0  0  0  0  0  0  0  0  0
   -5.1260   14.1180   -0.2740 C   0  0  1  0  0  0  0  0  0  0  0  0
   -6.3250   14.2870   -1.2610 C   0  0  1  0  0  0  0  0  0  0  0  0
   -7.9740   14.4390    0.4290 C   0  0  0  0  0  0  0  0  0  0  0  0
   -3.7920   14.8490   -0.6680 C   0  0  2  0  0  0  0  0  0  0  0  0
   -7.3880   15.1020   -0.6970 N   0  0  0  0  0  0  0  0  0  0  0  0
   -6.0640   14.7840   -2.6910 C   0  0  0  0  0  0  0  0  0  0  0  0
   -3.8780   15.5680   -2.0070 C   0  0  0  0  0  0  0  0  0  0  0  0
   -2.3770   14.2140   -0.5540 C   0  0  1  0  0  0  0  0  0  0  0  0
   -3.5710   15.9800    0.3350 C   0  0  0  0  0  0  0  0  0  0  0  0
   -4.6100   14.8010   -3.0620 C   0  0  0  0  0  0  0  0  0  0  0  0
   -1.0810   14.6620   -1.2750 C   0  0  1  0  0  0  0  0  0  0  0  0
   -2.1430   14.3130    0.9810 C   0  0  2  0  0  0  0  0  0  0  0  0
   -2.8880   15.4330    1.4690 N   0  0  0  0  0  0  0  0  0  0  0  0
   -1.0920   15.1930   -2.6510 N   0  0  0  0  0  0  0  0  0  0  0  0
   -0.8170   14.4410    1.5420 N   0  0  0  0  0  0  0  0  0  0  0  0
   -0.3770   15.5780   -0.4560 N   0  0  0  0  0  0  0  0  0  0  0  0
   -2.0080   14.4600   -3.5430 C   0  0  0  0  0  0  0  0  0  0  0  0
    0.2890   15.2780   -3.2590 C   0  0  0  0  0  0  0  0  0  0  0  0
    0.1850   14.9650    0.6690 C   0  0  0  0  0  0  0  0  0  0  0  0
    0.4940   14.4800   -4.5680 C   0  0  0  0  0  0  0  0  0  0  0  0
    0.4560   12.9520   -4.3460 C   0  0  1  0  0  0  0  0  0  0  0  0
    0.0920   12.3290   -5.5640 O   0  0  0  0  0  0  0  0  0  0  0  0
    1.6590   12.4710   -4.1310 O   0  0  0  0  0  0  0  0  0  0  0  0
  2  1  1  1
  2  3  1  0
  4  2  1  1
  4  5  1  0
  3  6  1  0
  4  7  1  0
  5  8  1  0
  6  8  1  0
  5  9  1  6
  7 10  1  6
  7 11  1  0
  7 12  1  0
  9 13  1  0
 10 13  1  0
 11 14  1  6
 11 15  1  0
 12 16  1  0
 15 16  1  6
 14 17  1  6
 15 18  1  0
 14 19  1  0
 17 20  1  0
 17 21  1  0
 18 22  1  0
 19 22  1  0
 21 23  1  0
 23 24  1  0
 24 25  1  6
 24 26  1  0
M  CHG  1  26  -1
M  END
