ucsf016-ucsf213
     RDKit          3D

 26 30  0  0  0  0  0  0  0  0999 V2000
    0.5240   10.6150   -2.3440 O   0  0  0  0  0  0  0  0  0  0  0  0
    1.0840   11.8230   -2.4540 C   0  0  2  0  0  0  0  0  0  0  0  0
    0.4340   12.5170   -1.4210 O   0  0  0  0  0  0  0  0  0  0  0  0
    0.9050   12.4520   -3.8670 C   0  0  0  0  0  0  0  0  0  0  0  0
   -0.5060   12.7220   -4.3830 C   0  0  2  0  0  0  0  0  0  0  0  0
   -0.7550   13.5340   -5.6450 C   0  0  0  0  0  0  0  0  0  0  0  0
   -1.3650   13.2820   -3.2670 C   0  0  0  0  0  0  0  0  0  0  0  0
   -1.7740   14.5640   -5.1830 C   0  0  2  0  0  0  0  0  0  0  0  0
   -0.9630   14.6470   -2.8890 N   0  0  0  0  0  0  0  0  0  0  0  0
   -3.1810   14.0510   -4.8550 C   0  0  0  0  0  0  0  0  0  0  0  0
   -2.9900   14.8900   -6.0690 C   0  0  0  0  0  0  0  0  0  0  0  0
   -1.0710   15.5610   -4.1380 C   0  0  2  0  0  0  0  0  0  0  0  0
   -1.2530   14.8110   -1.4280 C   0  0  1  0  0  0  0  0  0  0  0  0
   -0.0890   15.2260   -0.6690 N   0  0  0  0  0  0  0  0  0  0  0  0
   -2.4240   15.5900   -0.9030 C   0  0  2  0  0  0  0  0  0  0  0  0
   -2.1360   16.6900   -4.1940 C   0  0  0  0  0  0  0  0  0  0  0  0
    0.3480   16.0240   -4.6550 C   0  0  0  0  0  0  0  0  0  0  0  0
   -0.0640   14.7240    0.6760 C   0  0  0  0  0  0  0  0  0  0  0  0
   -2.3910   15.5340    0.6190 C   0  0  2  0  0  0  0  0  0  0  0  0
   -3.8280   15.1560   -1.3190 C   0  0  0  0  0  0  0  0  0  0  0  0
    0.5200   17.3290   -5.4380 C   0  0  0  0  0  0  0  0  0  0  0  0
   -1.8820   17.8320   -5.1880 C   0  0  0  0  0  0  0  0  0  0  0  0
   -1.4060   14.6690    1.2450 N   0  0  0  0  0  0  0  0  0  0  0  0
   -3.7060   15.0450    1.0280 N   0  0  0  0  0  0  0  0  0  0  0  0
   -4.6290   15.3580   -0.0550 C   0  0  0  0  0  0  0  0  0  0  0  0
   -0.5000   18.3690   -5.0870 C   0  0  0  0  0  0  0  0  0  0  0  0
  2  1  1  6
  2  3  1  0
  2  4  1  0
  5  4  1  1
  5  6  1  0
  5  7  1  0
  8  6  1  6
  7  9  1  0
  8 10  1  0
  8 11  1  0
 10 11  1  0
  8 12  1  0
 12  9  1  0
 13  9  1  6
 13 14  1  0
 13 15  1  0
 12 16  1  1
 12 17  1  0
 14 18  1  0
 15 19  1  0
 15 20  1  6
 17 21  1  0
 16 22  1  0
 18 23  1  0
 19 23  1  6
 19 24  1  0
 20 25  1  0
 24 25  1  0
 21 26  1  0
 22 26  1  0
M  CHG  1   1  -1
M  END
