ucsf340-ucsf190
     RDKit          3D

 19 21  0  0  0  0  0  0  0  0999 V2000
    0.1850   18.4630   -5.8790 C   0  0  0  0  0  0  0  0  0  0  0  0
   -0.0160   17.4470   -4.9620 N   0  0  0  0  0  0  0  0  0  0  0  0
    0.9400   16.6500   -4.5820 C   0  0  0  0  0  0  0  0  0  0  0  0
   -1.1570   16.5560   -5.2900 C   0  0  1  0  0  0  0  0  0  0  0  0
    0.2930   15.6670   -3.6640 C   0  0  1  0  0  0  0  0  0  0  0  0
   -1.2680   15.0450   -4.4070 S   0  0  0  0  0  0  0  0  0  0  0  0
   -2.1300   17.3840   -5.9150 C   0  0  0  0  0  0  0  0  0  0  0  0
    1.3110   14.7590   -3.2680 C   0  0  0  0  0  0  0  0  0  0  0  0
   -2.8570   16.0080   -4.4110 C   0  0  0  0  0  0  0  0  0  0  0  0
   -3.3520   16.5980   -6.5900 C   0  0  0  0  0  0  0  0  0  0  0  0
   -0.5580   13.7340   -5.4890 C   0  0  0  0  0  0  0  0  0  0  0  0
   -2.2730   13.4930   -4.2990 C   0  0  0  0  0  0  0  0  0  0  0  0
    0.7470   13.3500   -3.4970 C   0  0  0  0  0  0  0  0  0  0  0  0
   -3.6010   15.5460   -5.5090 C   0  0  0  0  0  0  0  0  0  0  0  0
   -1.5800   13.1320   -6.2740 C   0  0  0  0  0  0  0  0  0  0  0  0
   -1.9580   12.4120   -5.1280 C   0  0  0  0  0  0  0  0  0  0  0  0
    1.0630   12.3440   -2.3710 C   0  0  1  0  0  0  0  0  0  0  0  0
    0.5820   12.8320   -1.1570 O   0  0  0  0  0  0  0  0  0  0  0  0
    0.5870   11.0790   -2.6200 O   0  0  0  0  0  0  0  0  0  0  0  0
  1  2  1  0
  2  3  1  0
  2  4  1  0
  3  5  1  0
  4  6  1  0
  5  6  1  0
  4  7  1  1
  5  8  1  6
  6  9  1  0
  7 10  1  0
  6 11  1  0
  6 12  1  0
  8 13  1  0
  9 14  1  0
 10 14  1  0
 11 15  1  0
 12 16  1  0
 15 16  1  0
 13 17  1  0
 17 18  1  1
 17 19  1  0
M  CHG  1  19  -1
M  END
