ucsf135-ucsf357
     RDKit          3D

 24 26  0  0  0  0  0  0  0  0999 V2000
    1.8270   11.6630   -7.0710 O   0  0  0  0  0  0  0  0  0  0  0  0
    0.5330   11.7330   -6.5810 C   0  0  2  0  0  0  0  0  0  0  0  0
    0.6400   11.9650   -5.1550 N   0  0  0  0  0  0  0  0  0  0  0  0
   -0.2130   10.3840   -6.7810 C   0  0  1  0  0  0  0  0  0  0  0  0
   -0.7290   11.3310   -4.4610 S   0  0  2  0  0  0  0  0  0  0  0  0
   -1.4420   10.4600   -5.8550 C   0  0  2  0  0  0  0  0  0  0  0  0
   -0.6620   10.0660   -8.1980 C   0  0  0  0  0  0  0  0  0  0  0  0
   -1.7770   12.4740   -4.0860 O   0  0  0  0  0  0  0  0  0  0  0  0
   -0.3860   10.3220   -3.2740 O   0  0  0  0  0  0  0  0  0  0  0  0
   -2.0690    9.1020   -5.6150 C   0  0  0  0  0  0  0  0  0  0  0  0
   -1.8500    9.0900   -8.1840 C   0  0  0  0  0  0  0  0  0  0  0  0
   -1.6430   13.7490   -4.7130 C   0  0  0  0  0  0  0  0  0  0  0  0
   -2.0160    8.2630   -6.8900 C   0  0  0  0  0  0  0  0  0  0  0  0
   -1.3480   14.7690   -3.7670 O   0  0  0  0  0  0  0  0  0  0  0  0
   -1.9770   14.5510   -2.5040 C   0  0  2  0  0  0  0  0  0  0  0  0
   -3.4380   14.9620   -2.4410 C   0  0  0  0  0  0  0  0  0  0  0  0
   -1.2170   15.3060   -1.4010 C   0  0  2  0  0  0  0  0  0  0  0  0
    0.1630   14.9240   -1.3760 O   0  0  0  0  0  0  0  0  0  0  0  0
   -4.0580   14.5290   -1.1060 C   0  0  2  0  0  0  0  0  0  0  0  0
   -1.8350   15.1130    0.0010 C   0  0  0  0  0  0  0  0  0  0  0  0
   -5.6020   14.6140   -1.0900 C   0  0  2  0  0  0  0  0  0  0  0  0
   -3.3690   15.2510    0.0660 C   0  0  0  0  0  0  0  0  0  0  0  0
   -6.0130   15.3230   -2.1080 O   0  0  0  0  0  0  0  0  0  0  0  0
   -6.0570   15.3490    0.0110 O   0  0  0  0  0  0  0  0  0  0  0  0
  2  1  1  1
  2  3  1  0
  2  4  1  0
  3  5  1  0
  4  6  1  0
  5  6  1  0
  4  7  1  6
  5  8  1  0
  5  9  1  1
  6 10  1  1
  7 11  1  0
  8 12  1  0
 10 13  1  0
 11 13  1  0
 12 14  1  0
 15 14  1  6
 15 16  1  0
 15 17  1  0
 17 18  1  1
 19 16  1  6
 17 20  1  0
 19 21  1  0
 19 22  1  0
 20 22  1  0
 21 23  1  6
 21 24  1  0
M  CHG  1  23  -1
M  END
