ucsf028-ucsf016
     RDKit          3D

 25 29  0  0  0  0  0  0  0  0999 V2000
   -3.4580   15.2110    1.8440 N   0  0  0  0  0  0  0  0  0  0  0  0
   -3.6710   15.2740    0.4260 C   0  0  1  0  0  0  0  0  0  0  0  0
   -2.3940   15.6910   -0.3250 C   0  0  2  0  0  0  0  0  0  0  0  0
   -4.1940   14.0070    0.0210 N   0  0  0  0  0  0  0  0  0  0  0  0
   -4.3620   13.9470   -1.4150 C   0  0  0  0  0  0  0  0  0  0  0  0
   -2.3650   15.1880   -1.7780 C   0  0  2  0  0  0  0  0  0  0  0  0
   -1.0980   15.3370    0.2280 N   0  0  0  0  0  0  0  0  0  0  0  0
   -3.0510   13.9260   -2.0510 N   0  0  0  0  0  0  0  0  0  0  0  0
   -0.8760   15.3270   -2.2160 C   0  0  1  0  0  0  0  0  0  0  0  0
   -0.2520   15.8070   -0.8690 C   0  0  0  0  0  0  0  0  0  0  0  0
   -2.2160   12.8170   -1.5870 C   0  0  0  0  0  0  0  0  0  0  0  0
   -0.0990   14.0490   -2.6680 C   0  0  0  0  0  0  0  0  0  0  0  0
   -0.9500   16.2650   -3.4450 C   0  0  0  0  0  0  0  0  0  0  0  0
   -1.0180   12.4850   -2.4870 C   0  0  2  0  0  0  0  0  0  0  0  0
   -1.4740   15.4330   -4.6110 C   0  0  0  0  0  0  0  0  0  0  0  0
    0.5790   14.1410   -4.0520 C   0  0  0  0  0  0  0  0  0  0  0  0
   -1.3840   11.9530   -3.8490 C   0  0  0  0  0  0  0  0  0  0  0  0
   -0.1320   11.5340   -1.8800 O   0  0  0  0  0  0  0  0  0  0  0  0
   -2.8710   14.8350   -4.4620 C   0  0  0  0  0  0  0  0  0  0  0  0
   -2.6470   15.9140   -5.4620 C   0  0  0  0  0  0  0  0  0  0  0  0
   -0.4040   14.5170   -5.1560 C   0  0  0  0  0  0  0  0  0  0  0  0
    0.1230   10.5150   -2.9000 N   0  0  0  0  0  0  0  0  0  0  0  0
   -0.1670   11.1530   -4.1840 C   0  0  1  0  0  0  0  0  0  0  0  0
   -0.4820   10.2460   -5.2230 O   0  0  0  0  0  0  0  0  0  0  0  0
   -0.2600   10.8040   -6.5130 C   0  0  0  0  0  0  0  0  0  0  0  0
  2  1  1  1
  2  3  1  0
  2  4  1  0
  4  5  1  0
  3  6  1  0
  3  7  1  1
  5  8  1  0
  6  8  1  1
  6  9  1  0
  7 10  1  0
  9 10  1  1
  8 11  1  0
  9 12  1  0
  9 13  1  0
 14 11  1  1
 15 13  1  0
 12 16  1  0
 14 17  1  0
 14 18  1  0
 15 19  1  0
 15 20  1  0
 19 20  1  0
 15 21  1  0
 16 21  1  0
 18 22  1  0
 17 23  1  0
 22 23  1  0
 23 24  1  6
 24 25  1  0
M  END
