ucsf511-ucsf169
     RDKit          3D

 20 23  0  0  0  0  0  0  0  0999 V2000
    0.3490   13.1380   -1.5050 O   0  0  0  0  0  0  0  0  0  0  0  0
    0.8130   12.4410   -2.6880 C   0  0  2  0  0  0  0  0  0  0  0  0
    0.2910   13.3000   -3.8740 C   0  0  0  0  0  0  0  0  0  0  0  0
    0.0880   14.4800   -1.9530 C   0  0  2  0  0  0  0  0  0  0  0  0
    0.2750   11.2370   -2.6920 O   0  0  0  0  0  0  0  0  0  0  0  0
   -1.2600   15.1100   -1.4680 C   0  0  1  0  0  0  0  0  0  0  0  0
    0.4500   14.6660   -3.3700 N   0  0  0  0  0  0  0  0  0  0  0  0
   -2.1450   15.6750   -2.6100 C   0  0  1  0  0  0  0  0  0  0  0  0
   -0.2420   15.8040   -3.9900 C   0  0  1  0  0  0  0  0  0  0  0  0
   -2.1110   14.4080   -0.5270 O   0  0  0  0  0  0  0  0  0  0  0  0
    0.2520   16.4210   -5.1760 O   0  0  0  0  0  0  0  0  0  0  0  0
   -1.7120   15.5670   -4.0100 N   0  0  0  0  0  0  0  0  0  0  0  0
   -3.4740   14.4970   -0.9490 C   0  0  2  0  0  0  0  0  0  0  0  0
   -3.5600   15.3220   -2.1860 C   0  0  2  0  0  0  0  0  0  0  0  0
    0.8410   17.7070   -4.9990 C   0  0  0  0  0  0  0  0  0  0  0  0
   -2.2120   16.8780   -4.5720 O   0  0  0  0  0  0  0  0  0  0  0  0
   -4.6580   14.7560   -3.0270 C   0  0  0  0  0  0  0  0  0  0  0  0
   -4.4650   15.1210    0.0100 C   0  0  0  0  0  0  0  0  0  0  0  0
   -5.9380   14.9790   -2.1950 C   0  0  0  0  0  0  0  0  0  0  0  0
   -5.7170   15.5810   -0.7780 C   0  0  0  0  0  0  0  0  0  0  0  0
  1  2  1  0
  2  3  1  0
  4  1  1  6
  2  5  1  6
  4  6  1  0
  3  7  1  0
  4  7  1  0
  6  8  1  0
  7  9  1  0
  6 10  1  6
  9 11  1  6
  8 12  1  6
  9 12  1  0
 10 13  1  0
  8 14  1  0
 13 14  1  0
 11 15  1  0
 12 16  1  0
 14 17  1  6
 13 18  1  1
 17 19  1  0
 18 20  1  0
 19 20  1  0
M  CHG  1   5  -1
M  END
