ucsf030-ucsf123
     RDKit          3D

 24 26  0  0  0  0  0  0  0  0999 V2000
   -4.6110   14.7200   -0.9830 Cl  0  0  0  0  0  0  0  0  0  0  0  0
   -2.9190   15.0660   -0.3610 C   0  0  1  0  0  0  0  0  0  0  0  0
   -2.9590   14.8620    1.1320 C   0  0  2  0  0  0  0  0  0  0  0  0
   -1.8750   14.1010   -0.9640 C   0  0  2  0  0  0  0  0  0  0  0  0
   -4.0000   15.5330    1.8630 N   0  0  0  0  0  0  0  0  0  0  0  0
   -0.5830   14.3800   -0.2800 N   0  0  0  0  0  0  0  0  0  0  0  0
   -1.6730   15.1560    1.6880 N   0  0  0  0  0  0  0  0  0  0  0  0
   -1.5710   14.1430   -2.3770 N   0  0  0  0  0  0  0  0  0  0  0  0
   -0.5990   14.3390    1.1710 C   0  0  0  0  0  0  0  0  0  0  0  0
   -2.6820   14.2000   -3.4420 C   0  0  0  0  0  0  0  0  0  0  0  0
   -0.5170   15.1670   -2.5880 C   0  0  0  0  0  0  0  0  0  0  0  0
   -2.1610   14.3720   -4.8780 C   0  0  0  0  0  0  0  0  0  0  0  0
   -3.8430   13.1840   -3.2360 C   0  0  0  0  0  0  0  0  0  0  0  0
   -3.7140   15.3260   -3.2730 C   0  0  0  0  0  0  0  0  0  0  0  0
    0.0320   15.0060   -3.9850 C   0  0  1  0  0  0  0  0  0  0  0  0
    0.5510   13.4810   -3.9750 C   0  0  1  0  0  0  0  0  0  0  0  0
   -1.2480   15.5330   -4.6680 C   0  0  1  0  0  0  0  0  0  0  0  0
   -4.8340   14.3150   -3.5640 C   0  0  0  0  0  0  0  0  0  0  0  0
   -1.4170   17.0670   -5.5970 S   0  0  0  0  0  0  0  0  0  0  0  0
    1.3810   13.2730   -2.8320 O   0  0  0  0  0  0  0  0  0  0  0  0
   -0.3640   12.5720   -3.6660 O   0  0  0  0  0  0  0  0  0  0  0  0
   -1.7000   18.4680   -4.7970 N   0  0  0  0  0  0  0  0  0  0  0  0
   -0.0780   17.3030   -6.4210 O   0  0  0  0  0  0  0  0  0  0  0  0
   -2.6130   16.8690   -6.6440 O   0  0  0  0  0  0  0  0  0  0  0  0
  2  1  1  6
  2  3  1  0
  2  4  1  0
  3  5  1  1
  4  6  1  0
  3  7  1  0
  4  8  1  6
  6  9  1  0
  7  9  1  0
 10  8  1  0
  8 11  1  0
 10 12  1  0
 10 13  1  0
 10 14  1  0
 15 11  1  1
 15 16  1  0
 12 17  1  0
 15 17  1  0
 13 18  1  0
 14 18  1  0
 17 19  1  6
 16 20  1  1
 16 21  1  0
 19 22  1  0
 19 23  1  0
 19 24  1  0
M  CHG  1  21  -1
M  END
