ucsf493-ucsf260
     RDKit          3D

 25 28  0  0  0  0  0  0  0  0999 V2000
   -4.4090   15.1670   -5.5150 C   0  0  0  0  0  0  0  0  0  0  0  0
   -3.6520   16.1580   -4.8170 O   0  0  0  0  0  0  0  0  0  0  0  0
   -2.3420   16.2100   -5.3090 C   0  0  2  0  0  0  0  0  0  0  0  0
   -1.5310   15.3050   -4.4060 C   0  0  0  0  0  0  0  0  0  0  0  0
   -1.7400   17.6280   -5.4730 C   0  0  0  0  0  0  0  0  0  0  0  0
   -0.2140   15.1450   -5.0770 C   0  0  1  0  0  0  0  0  0  0  0  0
   -0.2660   17.7510   -5.0400 C   0  0  0  0  0  0  0  0  0  0  0  0
    0.5600   16.4590   -5.1570 C   0  0  1  0  0  0  0  0  0  0  0  0
    0.8460   14.1830   -4.6940 C   0  0  2  0  0  0  0  0  0  0  0  0
    0.5490   12.6590   -4.6010 C   0  0  2  0  0  0  0  0  0  0  0  0
    1.5480   16.3660   -4.0820 N   0  0  0  0  0  0  0  0  0  0  0  0
    1.7610   14.9270   -3.7640 C   0  0  0  0  0  0  0  0  0  0  0  0
    0.2670   12.1700   -3.0360 C   0  0  1  0  0  0  0  0  0  0  0  0
    1.9320   12.0480   -4.9820 C   0  0  0  0  0  0  0  0  0  0  0  0
   -0.5970   12.2830   -5.5370 N   0  0  0  0  0  0  0  0  0  0  0  0
    0.5840   10.7990   -2.8510 O   0  0  0  0  0  0  0  0  0  0  0  0
    1.0560   12.7110   -2.1330 O   0  0  0  0  0  0  0  0  0  0  0  0
   -1.8680   12.0030   -4.8500 C   0  0  0  0  0  0  0  0  0  0  0  0
   -0.4500   11.1820   -6.4060 C   0  0  1  0  0  0  0  0  0  0  0  0
   -2.5310   10.8510   -5.5050 N   0  0  0  0  0  0  0  0  0  0  0  0
   -1.8410   10.7170   -6.7710 C   0  0  2  0  0  0  0  0  0  0  0  0
    0.3350   11.2850   -7.7160 C   0  0  0  0  0  0  0  0  0  0  0  0
   -1.8330    9.2930   -7.3530 C   0  0  0  0  0  0  0  0  0  0  0  0
    0.4210    9.9800   -8.5340 C   0  0  0  0  0  0  0  0  0  0  0  0
   -0.8100    9.0570   -8.4920 C   0  0  0  0  0  0  0  0  0  0  0  0
  1  2  1  0
  3  2  1  1
  3  4  1  0
  3  5  1  0
  6  4  1  1
  5  7  1  0
  6  8  1  0
  8  7  1  1
  6  9  1  0
  9 10  1  0
  8 11  1  0
  9 12  1  1
 11 12  1  0
 10 13  1  0
 10 14  1  6
 10 15  1  0
 13 16  1  6
 13 17  1  0
 15 18  1  0
 15 19  1  0
 18 20  1  0
 19 21  1  0
 20 21  1  0
 19 22  1  6
 21 23  1  1
 22 24  1  0
 23 25  1  0
 24 25  1  0
M  CHG  1  17  -1
M  END
