ucsf274-ucsf016
     RDKit          3D

 33 38  0  0  0  0  0  0  0  0999 V2000
   -1.1350   12.1300   -7.0500 C   0  0  0  0  0  0  0  0  0  0  0  0
   -1.0620   11.7390   -5.5840 C   0  0  2  0  0  0  0  0  0  0  0  0
   -0.0370   10.6930   -5.4920 N   0  0  0  0  0  0  0  0  0  0  0  0
   -2.4820   11.2410   -5.0460 C   0  0  2  0  0  0  0  0  0  0  0  0
   -0.9100   13.0470   -4.7690 C   0  0  2  0  0  0  0  0  0  0  0  0
   -2.7060   11.6270   -3.7060 O   0  0  0  0  0  0  0  0  0  0  0  0
   -2.6720    9.8150   -5.0290 N   0  0  0  0  0  0  0  0  0  0  0  0
   -0.4930    9.4490   -6.1680 C   0  0  1  0  0  0  0  0  0  0  0  0
   -1.1100   14.1970   -5.6130 C   0  0  0  0  0  0  0  0  0  0  0  0
   -0.2030   13.4480   -3.4690 C   0  0  2  0  0  0  0  0  0  0  0  0
   -2.0180    9.3580   -6.2420 C   0  0  1  0  0  0  0  0  0  0  0  0
    0.0470    9.2590   -7.6000 C   0  0  0  0  0  0  0  0  0  0  0  0
   -2.1870   14.9030   -4.9120 C   0  0  0  0  0  0  0  0  0  0  0  0
   -0.8480   14.6320   -2.8360 N   0  0  0  0  0  0  0  0  0  0  0  0
    1.3130   13.4010   -3.3960 C   0  0  0  0  0  0  0  0  0  0  0  0
   -0.4350    7.9550   -8.2600 C   0  0  0  0  0  0  0  0  0  0  0  0
   -2.4780    7.9850   -6.7110 C   0  0  0  0  0  0  0  0  0  0  0  0
   -3.5740   14.2870   -4.9250 C   0  0  0  0  0  0  0  0  0  0  0  0
   -3.2970   15.5210   -5.7300 C   0  0  0  0  0  0  0  0  0  0  0  0
   -1.7190   15.5110   -3.6350 C   0  0  0  0  0  0  0  0  0  0  0  0
   -1.1010   14.4090   -1.4120 C   0  0  1  0  0  0  0  0  0  0  0  0
    1.6340   12.3940   -2.3270 C   0  0  2  0  0  0  0  0  0  0  0  0
   -1.9320    7.6650   -8.0990 C   0  0  0  0  0  0  0  0  0  0  0  0
   -0.1380   15.2040   -0.6720 N   0  0  0  0  0  0  0  0  0  0  0  0
   -2.5260   14.3730   -0.8110 C   0  0  1  0  0  0  0  0  0  0  0  0
    1.0320   11.2520   -2.6220 O   0  0  0  0  0  0  0  0  0  0  0  0
    0.8550   12.7310   -1.1970 O   0  0  0  0  0  0  0  0  0  0  0  0
   -0.1030   14.7950    0.6990 C   0  0  0  0  0  0  0  0  0  0  0  0
   -2.5130   14.5740    0.7170 C   0  0  1  0  0  0  0  0  0  0  0  0
   -3.6780   15.2330   -1.3230 C   0  0  0  0  0  0  0  0  0  0  0  0
   -1.3490   15.1810    1.3140 N   0  0  0  0  0  0  0  0  0  0  0  0
   -3.5490   15.5460    1.0350 N   0  0  0  0  0  0  0  0  0  0  0  0
   -4.4960   15.4950   -0.0750 C   0  0  0  0  0  0  0  0  0  0  0  0
  2  1  1  6
  2  3  1  0
  2  4  1  0
  2  5  1  0
  4  6  1  1
  4  7  1  0
  3  8  1  0
  5  9  1  6
  5 10  1  0
  7 11  1  0
  8 11  1  0
  8 12  1  6
 13  9  1  0
 10 14  1  0
 10 15  1  6
 12 16  1  0
 11 17  1  1
 13 18  1  0
 13 19  1  0
 18 19  1  0
 13 20  1  0
 14 20  1  0
 21 14  1  6
 15 22  1  0
 16 23  1  0
 17 23  1  0
 21 24  1  0
 21 25  1  0
 22 26  1  6
 22 27  1  0
 24 28  1  0
 25 29  1  0
 25 30  1  6
 28 31  1  0
 29 31  1  6
 29 32  1  0
 30 33  1  0
 32 33  1  0
M  CHG  1  26  -1
M  END
