ucsf333-ucsf412
     RDKit          3D

 21 23  0  0  0  0  0  0  0  0999 V2000
   -6.6310   15.3310   -2.0860 Cl  0  0  0  0  0  0  0  0  0  0  0  0
   -4.9160   15.2220   -1.6080 C   0  0  2  0  0  0  0  0  0  0  0  0
   -4.1140   14.5850   -2.7420 C   0  0  0  0  0  0  0  0  0  0  0  0
   -4.6450   14.4810   -0.2700 C   0  0  2  0  0  0  0  0  0  0  0  0
   -2.7540   15.1350   -2.4770 C   0  0  2  0  0  0  0  0  0  0  0  0
   -3.2560   13.7490   -0.4280 C   0  0  0  0  0  0  0  0  0  0  0  0
   -5.8070   13.4860   -0.0060 C   0  0  0  0  0  0  0  0  0  0  0  0
   -4.5500   15.4210    0.9460 C   0  0  0  0  0  0  0  0  0  0  0  0
   -1.7340   15.0080   -3.5170 N   0  0  0  0  0  0  0  0  0  0  0  0
   -2.2700   14.6920   -1.0740 C   0  0  1  0  0  0  0  0  0  0  0  0
   -7.0960   14.0670    0.6140 C   0  0  2  0  0  0  0  0  0  0  0  0
   -5.3990   14.8960    2.0970 C   0  0  0  0  0  0  0  0  0  0  0  0
   -7.8000   14.9380   -0.2420 O   0  0  0  0  0  0  0  0  0  0  0  0
   -0.8110   13.9670   -3.0970 C   0  0  2  0  0  0  0  0  0  0  0  0
   -0.5440   14.2100   -1.2960 S   0  0  0  0  0  0  0  0  0  0  0  0
   -6.8210   14.7920    1.8180 N   0  0  0  0  0  0  0  0  0  0  0  0
    0.5600   13.8690   -3.7830 C   0  0  0  0  0  0  0  0  0  0  0  0
    1.1220   12.4570   -3.5810 C   0  0  0  0  0  0  0  0  0  0  0  0
    0.3270   11.6770   -2.5000 C   0  0  2  0  0  0  0  0  0  0  0  0
    0.7460   12.0210   -1.3100 O   0  0  0  0  0  0  0  0  0  0  0  0
    0.5900   10.2960   -2.5260 O   0  0  0  0  0  0  0  0  0  0  0  0
  2  1  1  6
  2  3  1  0
  2  4  1  0
  5  3  1  6
  4  6  1  6
  4  7  1  0
  4  8  1  0
  5  9  1  0
  5 10  1  0
 10  6  1  6
  7 11  1  0
  8 12  1  0
 11 13  1  6
  9 14  1  0
 10 15  1  0
 14 15  1  0
 11 16  1  0
 12 16  1  0
 14 17  1  6
 17 18  1  0
 18 19  1  0
 19 20  1  1
 19 21  1  0
M  CHG  1  20  -1
M  END
