ucsf274-ucsf367
     RDKit          3D

 17 18  0  0  0  0  0  0  0  0999 V2000
    0.5300   11.1910   -2.5650 O   0  0  0  0  0  0  0  0  0  0  0  0
    1.0830   12.3800   -2.4530 C   0  0  2  0  0  0  0  0  0  0  0  0
    0.6600   12.7300   -1.1520 O   0  0  0  0  0  0  0  0  0  0  0  0
    0.4500   13.4470   -3.3790 C   0  0  0  0  0  0  0  0  0  0  0  0
    0.3250   13.1030   -4.8700 C   0  0  0  0  0  0  0  0  0  0  0  0
   -0.1910   11.6890   -5.1840 C   0  0  1  0  0  0  0  0  0  0  0  0
   -1.6220   11.4410   -4.5480 C   0  0  1  0  0  0  0  0  0  0  0  0
   -0.1490   11.4160   -6.6320 N   0  0  0  0  0  0  0  0  0  0  0  0
   -2.3310   12.6390   -4.2650 O   0  0  0  0  0  0  0  0  0  0  0  0
    1.2580   11.4610   -6.9820 O   0  0  0  0  0  0  0  0  0  0  0  0
   -2.5750   10.5520   -5.2450 N   0  0  0  0  0  0  0  0  0  0  0  0
   -0.5730   10.0190   -6.7280 C   0  0  1  0  0  0  0  0  0  0  0  0
   -2.0790    9.9100   -6.4810 C   0  0  1  0  0  0  0  0  0  0  0  0
   -0.2090    9.3930   -8.0840 C   0  0  0  0  0  0  0  0  0  0  0  0
   -0.6650    7.9330   -8.2050 C   0  0  0  0  0  0  0  0  0  0  0  0
   -2.4780    8.4240   -6.4700 C   0  0  0  0  0  0  0  0  0  0  0  0
   -2.1100    7.7040   -7.7720 C   0  0  0  0  0  0  0  0  0  0  0  0
  2  1  1  6
  2  3  1  0
  2  4  1  0
  4  5  1  0
  6  5  1  6
  6  7  1  0
  6  8  1  0
  7  9  1  6
  8 10  1  0
  7 11  1  0
  8 12  1  0
 11 13  1  0
 12 13  1  0
 12 14  1  6
 14 15  1  0
 13 16  1  1
 15 17  1  0
 16 17  1  0
M  CHG  1   1  -1
M  END
