ucsf004-ucsf339
     RDKit          3D

 19 21  0  0  0  0  0  0  0  0999 V2000
   -2.0850   12.2660   -4.4150 F   0  0  0  0  0  0  0  0  0  0  0  0
   -1.7920   13.5410   -4.8030 C   0  0  2  0  0  0  0  0  0  0  0  0
   -0.3760   13.5630   -5.3680 C   0  0  0  0  0  0  0  0  0  0  0  0
   -2.0980   14.5330   -3.6470 C   0  0  0  0  0  0  0  0  0  0  0  0
   -1.0050   14.7920   -2.6560 N   0  0  0  0  0  0  0  0  0  0  0  0
    0.4420   14.5970   -4.6460 C   0  0  0  0  0  0  0  0  0  0  0  0
    0.3030   14.2970   -3.1480 C   0  0  1  0  0  0  0  0  0  0  0  0
   -1.3290   14.4240   -1.2630 C   0  0  1  0  0  0  0  0  0  0  0  0
    1.5890   14.4330   -2.2630 C   0  0  2  0  0  0  0  0  0  0  0  0
   -0.1430   14.6430   -0.3930 N   0  0  0  0  0  0  0  0  0  0  0  0
   -2.4560   15.2710   -0.6790 C   0  0  2  0  0  0  0  0  0  0  0  0
    2.6980   14.6680   -2.9180 O   0  0  0  0  0  0  0  0  0  0  0  0
    1.8340   13.1380   -1.7590 O   0  0  0  0  0  0  0  0  0  0  0  0
   -0.3280   14.4240    1.0280 C   0  0  0  0  0  0  0  0  0  0  0  0
   -2.6860   14.7650    0.7160 C   0  0  1  0  0  0  0  0  0  0  0  0
   -3.8690   15.2000   -1.2110 C   0  0  0  0  0  0  0  0  0  0  0  0
   -1.5520   15.0000    1.5460 N   0  0  0  0  0  0  0  0  0  0  0  0
   -3.7970   15.5510    1.1840 N   0  0  0  0  0  0  0  0  0  0  0  0
   -4.6960   15.5810    0.0140 C   0  0  0  0  0  0  0  0  0  0  0  0
  2  1  1  1
  2  3  1  0
  2  4  1  0
  4  5  1  0
  3  6  1  0
  5  7  1  0
  7  6  1  6
  8  5  1  6
  7  9  1  0
  8 10  1  0
  8 11  1  0
  9 12  1  6
  9 13  1  0
 10 14  1  0
 11 15  1  0
 11 16  1  6
 14 17  1  0
 15 17  1  1
 15 18  1  0
 16 19  1  0
 18 19  1  0
M  CHG  1  12  -1
M  END
