ucsf337-ucsf258
     RDKit          3D

 18 19  0  0  0  0  0  0  0  0999 V2000
   -7.4930   14.6920    0.9430 C   0  0  0  0  0  0  0  0  0  0  0  0
   -6.2960   14.3220    0.0560 C   0  0  1  0  0  0  0  0  0  0  0  0
   -6.2520   15.1430   -1.1590 N   0  0  0  0  0  0  0  0  0  0  0  0
   -4.9240   14.3270    0.8060 C   0  0  2  0  0  0  0  0  0  0  0  0
   -4.6680   15.6050    2.2310 Br  0  0  0  0  0  0  0  0  0  0  0  0
   -3.7140   14.6760    0.0120 C   0  0  0  0  0  0  0  0  0  0  0  0
   -5.6770   14.4420   -2.2970 C   0  0  1  0  0  0  0  0  0  0  0  0
   -6.3280   14.9350   -3.4830 N   0  0  0  0  0  0  0  0  0  0  0  0
   -4.1350   14.2470   -2.3820 C   0  0  2  0  0  0  0  0  0  0  0  0
   -3.4340   13.7740   -1.1410 C   0  0  1  0  0  0  0  0  0  0  0  0
   -1.9340   13.7270   -1.3310 C   0  0  2  0  0  0  0  0  0  0  0  0
   -3.3670   15.4840   -2.7930 C   0  0  0  0  0  0  0  0  0  0  0  0
   -1.3910   14.8980   -0.7830 O   0  0  0  0  0  0  0  0  0  0  0  0
   -1.5560   13.8230   -2.7810 C   0  0  1  0  0  0  0  0  0  0  0  0
   -1.9810   15.1880   -3.2070 N   0  0  0  0  0  0  0  0  0  0  0  0
   -0.0200   13.5810   -2.9920 C   0  0  2  0  0  0  0  0  0  0  0  0
    0.5970   13.5220   -1.8260 O   0  0  0  0  0  0  0  0  0  0  0  0
    0.5100   14.7060   -3.6710 O   0  0  0  0  0  0  0  0  0  0  0  0
  2  1  1  1
  2  3  1  0
  2  4  1  0
  4  5  1  1
  4  6  1  0
  3  7  1  0
  7  8  1  6
  7  9  1  0
 10  6  1  1
  9 10  1  0
 10 11  1  0
  9 12  1  1
 11 13  1  1
 11 14  1  0
 12 15  1  0
 14 15  1  1
 14 16  1  0
 16 17  1  1
 16 18  1  0
M  CHG  1  17  -1
M  END
