ucsf412-ucsf337
     RDKit          3D

 13 14  0  0  0  0  0  0  0  0999 V2000
   -8.3230   13.9560   -0.4680 O   0  0  0  0  0  0  0  0  0  0  0  0
   -7.4240   14.8800    0.0610 C   0  0  1  0  0  0  0  0  0  0  0  0
   -7.6130   14.8550    1.5070 N   0  0  0  0  0  0  0  0  0  0  0  0
   -6.0070   14.5600   -0.4180 C   0  0  2  0  0  0  0  0  0  0  0  0
   -4.9990   15.2940    0.4200 C   0  0  1  0  0  0  0  0  0  0  0  0
   -6.4690   14.3890    2.3060 C   0  0  0  0  0  0  0  0  0  0  0  0
   -5.8240   14.9750   -1.8760 C   0  0  0  0  0  0  0  0  0  0  0  0
   -5.1060   14.9470    1.9050 C   0  0  0  0  0  0  0  0  0  0  0  0
   -3.5960   15.2850   -0.1110 C   0  0  1  0  0  0  0  0  0  0  0  0
   -4.4970   14.5110   -2.4640 C   0  0  1  0  0  0  0  0  0  0  0  0
   -4.3250   15.0610   -3.8000 N   0  0  0  0  0  0  0  0  0  0  0  0
   -2.4730   14.4100    1.2070 Br  0  0  0  0  0  0  0  0  0  0  0  0
   -3.2960   14.7640   -1.5380 C   0  0  0  0  0  0  0  0  0  0  0  0
  2  1  1  6
  2  3  1  0
  2  4  1  0
  4  5  1  0
  3  6  1  0
  4  7  1  6
  5  8  1  1
  6  8  1  0
  5  9  1  0
  7 10  1  0
 10 11  1  6
  9 12  1  1
  9 13  1  0
 10 13  1  0
M  END
