ucsf124-ucsf396
     RDKit          3D

 27 29  0  0  0  0  0  0  0  0999 V2000
    0.7220   11.0440   -2.4130 O   0  0  0  0  0  0  0  0  0  0  0  0
    0.3860   12.2550   -2.8290 C   0  0  1  0  0  0  0  0  0  0  0  0
    1.1180   13.2120   -2.0430 O   0  0  0  0  0  0  0  0  0  0  0  0
    0.7300   12.4310   -4.3670 C   0  0  0  0  0  0  0  0  0  0  0  0
    0.3690   14.4120   -1.8020 C   0  0  0  0  0  0  0  0  0  0  0  0
    0.1670   11.4470   -5.3190 N   0  0  0  0  0  0  0  0  0  0  0  0
   -0.2710   14.3690   -0.4110 C   0  0  0  0  0  0  0  0  0  0  0  0
   -1.2750   11.3850   -5.3200 C   0  0  2  0  0  0  0  0  0  0  0  0
    0.4670   11.7500   -6.6890 C   0  0  1  0  0  0  0  0  0  0  0  0
   -1.7460   10.7990   -4.1350 O   0  0  0  0  0  0  0  0  0  0  0  0
    1.8240   11.6690   -6.9960 O   0  0  0  0  0  0  0  0  0  0  0  0
   -1.6950   13.7900   -0.3890 C   0  0  0  0  0  0  0  0  0  0  0  0
   -1.5980   10.5420   -6.5730 C   0  0  1  0  0  0  0  0  0  0  0  0
   -0.4090   10.7720   -7.5050 C   0  0  2  0  0  0  0  0  0  0  0  0
   -2.7440   14.7640   -0.7510 N   0  0  0  0  0  0  0  0  0  0  0  0
   -1.9730    9.0730   -6.4110 C   0  0  0  0  0  0  0  0  0  0  0  0
    0.2240    9.4420   -7.9500 C   0  0  0  0  0  0  0  0  0  0  0  0
   -3.4580   15.2620    0.4110 C   0  0  2  0  0  0  0  0  0  0  0  0
   -2.0260    8.2900   -7.7220 C   0  0  0  0  0  0  0  0  0  0  0  0
   -0.8140    8.5470   -8.6240 C   0  0  0  0  0  0  0  0  0  0  0  0
   -2.9850   14.5350    1.5320 O   0  0  0  0  0  0  0  0  0  0  0  0
   -4.9970   15.1770    0.3430 C   0  0  1  0  0  0  0  0  0  0  0  0
   -5.5780   14.5960   -0.9380 C   0  0  0  0  0  0  0  0  0  0  0  0
   -5.6170   14.5430    1.6070 C   0  0  0  0  0  0  0  0  0  0  0  0
   -7.0310   14.8320   -0.9500 N   0  0  0  0  0  0  0  0  0  0  0  0
   -7.1440   14.4170    1.5760 C   0  0  0  0  0  0  0  0  0  0  0  0
   -7.7280   14.2060    0.1780 C   0  0  0  0  0  0  0  0  0  0  0  0
  2  1  1  1
  2  3  1  0
  2  4  1  0
  3  5  1  0
  4  6  1  0
  5  7  1  0
  6  8  1  0
  6  9  1  0
  8 10  1  1
  9 11  1  1
  7 12  1  0
  8 13  1  0
  9 14  1  0
 13 14  1  0
 12 15  1  0
 13 16  1  1
 14 17  1  1
 15 18  1  0
 16 19  1  0
 17 20  1  0
 19 20  1  0
 18 21  1  1
 18 22  1  0
 22 23  1  6
 22 24  1  0
 23 25  1  0
 24 26  1  0
 25 27  1  0
 26 27  1  0
M  CHG  1   1  -1
M  END
