ucsf584-ucsf396
     RDKit          3D

 14 15  0  0  0  0  0  0  0  0999 V2000
   -4.3920   15.9840    0.3230 N   0  0  0  0  0  0  0  0  0  0  0  0
   -4.5930   15.2830    1.5510 C   0  0  2  0  0  0  0  0  0  0  0  0
   -3.3770   14.6670    1.8470 O   0  0  0  0  0  0  0  0  0  0  0  0
   -5.7070   14.3540    1.3900 N   0  0  0  0  0  0  0  0  0  0  0  0
   -6.9700   14.5610    2.1350 C   0  0  0  0  0  0  0  0  0  0  0  0
   -6.1260   14.0020    0.0420 C   0  0  1  0  0  0  0  0  0  0  0  0
   -8.0640   14.6970    1.0710 C   0  0  0  0  0  0  0  0  0  0  0  0
   -7.3480   14.7700   -0.2160 N   0  0  0  0  0  0  0  0  0  0  0  0
   -5.0480   14.0400   -1.0660 C   0  0  0  0  0  0  0  0  0  0  0  0
   -3.6260   14.0780   -0.4600 C   0  0  0  0  0  0  0  0  0  0  0  0
   -5.1530   15.1950   -2.0660 C   0  0  0  0  0  0  0  0  0  0  0  0
   -2.5330   13.9490   -1.5100 C   0  0  0  0  0  0  0  0  0  0  0  0
   -4.0290   15.0270   -3.1030 C   0  0  0  0  0  0  0  0  0  0  0  0
   -2.6660   14.9520   -2.5600 N   0  0  0  0  0  0  0  0  0  0  0  0
  2  1  1  6
  2  3  1  0
  2  4  1  0
  4  5  1  0
  4  6  1  0
  5  7  1  0
  6  8  1  0
  7  8  1  0
  6  9  1  6
  9 10  1  0
  9 11  1  0
 10 12  1  0
 11 13  1  0
 12 14  1  0
 13 14  1  0
M  END
