ucsf109-ucsf012
     RDKit          3D

 25 29  0  0  0  0  0  0  0  0999 V2000
   -3.9850   14.5490    0.9810 N   0  0  0  0  0  0  0  0  0  0  0  0
   -5.0380   15.2000    0.2360 C   0  0  2  0  0  0  0  0  0  0  0  0
   -6.3340   15.0300    0.9830 N   0  0  0  0  0  0  0  0  0  0  0  0
   -2.6550   14.3900    0.4550 C   0  0  1  0  0  0  0  0  0  0  0  0
   -5.4420   14.7690   -1.2080 C   0  0  2  0  0  0  0  0  0  0  0  0
   -2.1370   14.5760   -0.9980 C   0  0  1  0  0  0  0  0  0  0  0  0
   -1.6660   14.9290    1.3540 N   0  0  0  0  0  0  0  0  0  0  0  0
   -7.3760   14.7880    0.0190 C   0  0  1  0  0  0  0  0  0  0  0  0
   -6.7670   14.1020   -1.0780 N   0  0  0  0  0  0  0  0  0  0  0  0
   -4.4410   13.9730   -2.0660 C   0  0  1  0  0  0  0  0  0  0  0  0
   -3.0100   14.5590   -2.3330 C   0  0  1  0  0  0  0  0  0  0  0  0
   -6.5200   14.0300    2.0550 N   0  0  0  0  0  0  0  0  0  0  0  0
   -0.3240   14.4850    1.0620 C   0  0  0  0  0  0  0  0  0  0  0  0
   -0.9590   15.5580   -0.9760 C   0  0  0  0  0  0  0  0  0  0  0  0
   -3.1670   15.9020   -2.9650 C   0  0  0  0  0  0  0  0  0  0  0  0
   -4.4100   12.6340   -1.3410 C   0  0  0  0  0  0  0  0  0  0  0  0
   -2.0910   13.7960   -3.3900 C   0  0  0  0  0  0  0  0  0  0  0  0
   -8.3170   13.8900    0.6290 N   0  0  0  0  0  0  0  0  0  0  0  0
   -7.9680   13.9160    2.0420 C   0  0  0  0  0  0  0  0  0  0  0  0
    0.1370   14.9750   -0.2270 N   0  0  0  0  0  0  0  0  0  0  0  0
   -1.3990   12.4840   -3.0520 C   0  0  2  0  0  0  0  0  0  0  0  0
   -0.0350   12.5610   -2.4070 C   0  0  0  0  0  0  0  0  0  0  0  0
   -1.1790   11.8580   -4.3210 O   0  0  0  0  0  0  0  0  0  0  0  0
   -0.1260   10.9300   -4.1570 C   0  0  0  0  0  0  0  0  0  0  0  0
    0.6630   11.3500   -2.9290 C   0  0  0  0  0  0  0  0  0  0  0  0
  2  1  1  1
  2  3  1  0
  4  1  1  6
  2  5  1  0
  4  6  1  0
  4  7  1  0
  3  8  1  0
  5  9  1  1
  8  9  1  6
  5 10  1  0
  6 11  1  0
 10 11  1  0
  3 12  1  0
  7 13  1  0
  6 14  1  1
 11 15  1  6
 10 16  1  1
 11 17  1  0
  8 18  1  0
 12 19  1  0
 18 19  1  0
 13 20  1  0
 14 20  1  0
 21 17  1  6
 21 22  1  0
 21 23  1  0
 23 24  1  0
 22 25  1  0
 24 25  1  0
M  END
