ucsf340-ucsf147
     RDKit          3D

 27 30  0  0  0  0  0  0  0  0999 V2000
    0.4870   18.5550   -6.3810 C   0  0  0  0  0  0  0  0  0  0  0  0
    0.0500   18.1800   -5.0400 N   0  0  0  0  0  0  0  0  0  0  0  0
    0.9670   17.1640   -4.4550 C   0  0  0  0  0  0  0  0  0  0  0  0
   -1.2510   17.5150   -4.9920 C   0  0  2  0  0  0  0  0  0  0  0  0
    0.1310   16.1800   -3.5940 C   0  0  1  0  0  0  0  0  0  0  0  0
   -1.0150   16.0610   -4.6230 C   0  0  1  0  0  0  0  0  0  0  0  0
   -2.1290   17.6810   -6.2280 C   0  0  0  0  0  0  0  0  0  0  0  0
    0.9450   14.9080   -3.0590 C   0  0  2  0  0  0  0  0  0  0  0  0
   -2.3890   15.6090   -4.2070 C   0  0  0  0  0  0  0  0  0  0  0  0
   -3.2250   16.5950   -6.3980 C   0  0  0  0  0  0  0  0  0  0  0  0
    0.6540   13.3100   -3.3550 C   0  0  1  0  0  0  0  0  0  0  0  0
    0.9570   15.0220   -1.7290 O   0  0  0  0  0  0  0  0  0  0  0  0
   -3.3180   15.4750   -5.4060 C   0  0  0  0  0  0  0  0  0  0  0  0
    0.9840   12.2220   -2.2210 C   0  0  1  0  0  0  0  0  0  0  0  0
   -0.7820   13.0290   -3.8900 C   0  0  2  0  0  0  0  0  0  0  0  0
    0.3900   12.5760   -0.9980 O   0  0  0  0  0  0  0  0  0  0  0  0
    0.4120   11.0080   -2.3720 O   0  0  0  0  0  0  0  0  0  0  0  0
   -0.6320   12.7430   -5.3730 C   0  0  0  0  0  0  0  0  0  0  0  0
   -1.9130   14.0420   -3.9430 C   0  0  1  0  0  0  0  0  0  0  0  0
   -1.9160   13.0260   -5.9630 O   0  0  0  0  0  0  0  0  0  0  0  0
   -2.8260   13.2910   -4.8380 N   0  0  0  0  0  0  0  0  0  0  0  0
   -2.6740   14.5670   -2.6410 C   0  0  0  0  0  0  0  0  0  0  0  0
   -2.2980   13.9290   -1.3010 C   0  0  0  0  0  0  0  0  0  0  0  0
   -4.2150   14.6540   -2.7390 C   0  0  0  0  0  0  0  0  0  0  0  0
   -2.9160   14.7140   -0.1300 C   0  0  0  0  0  0  0  0  0  0  0  0
   -4.8480   15.4380   -1.5910 C   0  0  0  0  0  0  0  0  0  0  0  0
   -4.4280   14.9280   -0.2280 C   0  0  0  0  0  0  0  0  0  0  0  0
  1  2  1  0
  2  3  1  0
  2  4  1  0
  5  3  1  6
  4  6  1  0
  5  6  1  0
  4  7  1  6
  5  8  1  0
  6  9  1  1
  7 10  1  0
  8 11  1  0
  8 12  1  1
  9 13  1  0
 10 13  1  0
 11 14  1  1
 11 15  1  0
 14 16  1  1
 14 17  1  0
 15 18  1  6
 15 19  1  0
 18 20  1  0
 19 21  1  0
 20 21  1  0
 19 22  1  1
 22 23  1  0
 22 24  1  0
 23 25  1  0
 24 26  1  0
 25 27  1  0
 26 27  1  0
M  CHG  2  12  -1  17  -1
M  END
