ucsf392-ucsf339
     RDKit          3D

 23 25  0  0  0  0  0  0  0  0999 V2000
   -3.3580   15.7380   -2.2280 C   0  0  0  0  0  0  0  0  0  0  0  0
   -2.4550   15.8290   -1.0070 C   0  0  2  0  0  0  0  0  0  0  0  0
   -1.0130   15.5540   -1.4100 C   0  0  0  0  0  0  0  0  0  0  0  0
   -2.8740   14.9550    0.1770 C   0  0  1  0  0  0  0  0  0  0  0  0
   -1.9780   15.2790    1.2730 N   0  0  0  0  0  0  0  0  0  0  0  0
   -0.4220   14.6290   -0.4690 N   0  0  0  0  0  0  0  0  0  0  0  0
   -4.3710   15.1670    0.5310 C   0  0  1  0  0  0  0  0  0  0  0  0
   -0.5950   15.0570    0.9040 C   0  0  2  0  0  0  0  0  0  0  0  0
   -5.2240   15.0760   -0.7520 C   0  0  0  0  0  0  0  0  0  0  0  0
   -4.8790   14.1860    1.5950 C   0  0  0  0  0  0  0  0  0  0  0  0
   -0.1270   13.9300    1.7740 C   0  0  0  0  0  0  0  0  0  0  0  0
   -5.7270   13.0740    1.0050 C   0  0  0  0  0  0  0  0  0  0  0  0
   -5.1470   13.6830   -1.4260 C   0  0  1  0  0  0  0  0  0  0  0  0
   -4.0130   13.3940   -2.4780 C   0  0  2  0  0  0  0  0  0  0  0  0
   -5.1690   12.5960   -0.3320 C   0  0  0  0  0  0  0  0  0  0  0  0
   -2.5860   13.1720   -1.9070 C   0  0  0  0  0  0  0  0  0  0  0  0
   -4.0030   14.4150   -3.6460 C   0  0  0  0  0  0  0  0  0  0  0  0
   -1.5850   12.8250   -3.0320 C   0  0  2  0  0  0  0  0  0  0  0  0
   -2.9740   14.1430   -4.6630 N   0  0  0  0  0  0  0  0  0  0  0  0
   -0.1160   12.4850   -2.5750 C   0  0  1  0  0  0  0  0  0  0  0  0
   -1.6270   13.9850   -4.0550 C   0  0  0  0  0  0  0  0  0  0  0  0
    0.7620   13.2770   -3.1600 O   0  0  0  0  0  0  0  0  0  0  0  0
    0.0790   12.7650   -1.1940 O   0  0  0  0  0  0  0  0  0  0  0  0
  2  1  1  6
  2  3  1  0
  2  4  1  0
  4  5  1  1
  3  6  1  0
  4  7  1  0
  5  8  1  0
  6  8  1  0
  7  9  1  6
  7 10  1  0
  8 11  1  1
 10 12  1  0
 13  9  1  1
 13 14  1  0
 12 15  1  0
 13 15  1  0
 14 16  1  1
 14 17  1  0
 18 16  1  1
 17 19  1  0
 18 20  1  0
 18 21  1  0
 19 21  1  0
 20 22  1  6
 20 23  1  0
M  CHG  1  22  -1
M  END
