ucsf109-ucsf365
     RDKit          3D

 25 28  0  0  0  0  0  0  0  0999 V2000
   -3.8570   15.1870    1.6200 N   0  0  0  0  0  0  0  0  0  0  0  0
   -4.7410   14.2290    0.9700 C   0  0  2  0  0  0  0  0  0  0  0  0
   -4.3820   14.0200   -0.5330 C   0  0  1  0  0  0  0  0  0  0  0  0
   -6.1160   14.6740    1.2400 N   0  0  0  0  0  0  0  0  0  0  0  0
   -7.0810   14.1710    0.3270 C   0  0  2  0  0  0  0  0  0  0  0  0
   -5.6350   13.8040   -1.4040 C   0  0  1  0  0  0  0  0  0  0  0  0
   -3.5460   15.0820   -1.3020 C   0  0  0  0  0  0  0  0  0  0  0  0
   -6.7470   14.1220    2.4300 N   0  0  0  0  0  0  0  0  0  0  0  0
   -6.8070   14.5630   -0.9980 N   0  0  0  0  0  0  0  0  0  0  0  0
   -5.1380   14.0640   -2.8060 C   0  0  0  0  0  0  0  0  0  0  0  0
   -4.3010   15.2980   -2.6360 C   0  0  2  0  0  0  0  0  0  0  0  0
   -8.3250   14.7120    0.8390 N   0  0  0  0  0  0  0  0  0  0  0  0
   -8.1140   14.6150    2.2940 C   0  0  0  0  0  0  0  0  0  0  0  0
   -3.5610   15.5890   -3.9580 C   0  0  0  0  0  0  0  0  0  0  0  0
   -2.4340   14.6480   -4.3250 C   0  0  1  0  0  0  0  0  0  0  0  0
   -2.8080   13.4710   -5.2400 C   0  0  0  0  0  0  0  0  0  0  0  0
   -1.2160   15.3640   -4.8980 C   0  0  0  0  0  0  0  0  0  0  0  0
   -1.8000   12.3800   -4.9180 C   0  0  1  0  0  0  0  0  0  0  0  0
   -0.1570   14.3140   -5.1980 C   0  0  0  0  0  0  0  0  0  0  0  0
   -1.4940   11.5560   -6.0280 O   0  0  0  0  0  0  0  0  0  0  0  0
   -0.5490   13.0850   -4.3750 C   0  0  2  0  0  0  0  0  0  0  0  0
    0.5840   12.1600   -3.9760 C   0  0  0  0  0  0  0  0  0  0  0  0
    0.4930   11.8400   -2.4790 C   0  0  1  0  0  0  0  0  0  0  0  0
    0.6070   10.5380   -2.2510 O   0  0  0  0  0  0  0  0  0  0  0  0
    1.6570   12.4090   -1.9420 O   0  0  0  0  0  0  0  0  0  0  0  0
  2  1  1  6
  2  3  1  0
  2  4  1  0
  4  5  1  0
  3  6  1  0
  3  7  1  6
  4  8  1  0
  5  9  1  6
  6  9  1  0
  6 10  1  6
  7 11  1  0
 10 11  1  0
  5 12  1  0
  8 13  1  0
 12 13  1  0
 11 14  1  6
 15 14  1  6
 15 16  1  0
 15 17  1  0
 16 18  1  0
 17 19  1  0
 18 20  1  6
 18 21  1  0
 19 21  1  0
 21 22  1  6
 22 23  1  0
 23 24  1  6
 23 25  1  0
M  CHG  1  24  -1
M  END
