ucsf348-ucsf422
     RDKit          3D

 28 31  0  0  0  0  0  0  0  0999 V2000
   -6.8630   14.3920    2.3010 N   0  0  0  0  0  0  0  0  0  0  0  0
   -6.0230   14.7410    1.2140 C   0  0  1  0  0  0  0  0  0  0  0  0
   -5.0020   13.7880    1.1790 N   0  0  0  0  0  0  0  0  0  0  0  0
   -6.7620   14.6240    0.0120 N   0  0  0  0  0  0  0  0  0  0  0  0
   -5.9190   15.0730   -1.0930 C   0  0  2  0  0  0  0  0  0  0  0  0
   -3.9490   14.2320    0.2650 C   0  0  1  0  0  0  0  0  0  0  0  0
   -5.9670   14.1480   -2.1820 O   0  0  0  0  0  0  0  0  0  0  0  0
   -4.4370   15.2960   -0.7010 C   0  0  1  0  0  0  0  0  0  0  0  0
   -2.7010   14.7480    0.9700 C   0  0  0  0  0  0  0  0  0  0  0  0
   -5.6190   14.8950   -3.3440 C   0  0  0  0  0  0  0  0  0  0  0  0
   -1.6710   15.2970   -0.0210 C   0  0  0  0  0  0  0  0  0  0  0  0
   -3.4850   15.2960   -1.8880 C   0  0  0  0  0  0  0  0  0  0  0  0
   -4.6130   14.3070   -4.3630 C   0  0  0  0  0  0  0  0  0  0  0  0
   -2.0140   15.1290   -1.5100 C   0  0  0  0  0  0  0  0  0  0  0  0
   -3.9880   15.3680   -5.1590 O   0  0  0  0  0  0  0  0  0  0  0  0
   -2.6400   15.7050   -4.7270 C   0  0  2  0  0  0  0  0  0  0  0  0
   -2.0990   17.0070   -5.3730 C   0  0  0  0  0  0  0  0  0  0  0  0
   -1.6970   14.5290   -5.0010 C   0  0  0  0  0  0  0  0  0  0  0  0
   -0.3140   14.8710   -4.4890 C   0  0  1  0  0  0  0  0  0  0  0  0
   -0.6490   17.3470   -4.9690 C   0  0  0  0  0  0  0  0  0  0  0  0
    0.8380   13.9690   -4.8180 C   0  0  2  0  0  0  0  0  0  0  0  0
    0.2800   16.1440   -5.0650 C   0  0  1  0  0  0  0  0  0  0  0  0
    0.7420   12.4850   -4.4370 C   0  0  0  0  0  0  0  0  0  0  0  0
    1.9060   14.7950   -4.1030 C   0  0  0  0  0  0  0  0  0  0  0  0
    1.5480   16.2240   -4.3410 N   0  0  0  0  0  0  0  0  0  0  0  0
    1.1420   12.1130   -2.9910 C   0  0  2  0  0  0  0  0  0  0  0  0
    0.4510   11.0650   -2.5860 O   0  0  0  0  0  0  0  0  0  0  0  0
    0.6780   13.0910   -2.0920 O   0  0  0  0  0  0  0  0  0  0  0  0
  2  1  1  1
  2  3  1  0
  2  4  1  0
  4  5  1  0
  3  6  1  0
  5  7  1  6
  5  8  1  0
  6  8  1  0
  6  9  1  1
  7 10  1  0
  9 11  1  0
  8 12  1  6
 10 13  1  0
 11 14  1  0
 12 14  1  0
 13 15  1  0
 16 15  1  6
 16 17  1  0
 16 18  1  0
 19 18  1  6
 17 20  1  0
 19 21  1  0
 19 22  1  0
 22 20  1  1
 21 23  1  1
 21 24  1  0
 22 25  1  0
 24 25  1  0
 23 26  1  0
 26 27  1  1
 26 28  1  0
M  CHG  1  27  -1
M  END
