ucsf520-ucsf264
     RDKit          3D

 34 38  0  0  0  0  0  0  0  0999 V2000
   -4.3200   15.5520    0.9840 N   0  0  0  0  0  0  0  0  0  0  0  0
   -3.4950   14.8560    0.0190 C   0  0  2  0  0  0  0  0  0  0  0  0
   -1.9850   14.9710    0.2830 C   0  0  2  0  0  0  0  0  0  0  0  0
   -3.8630   15.3250   -1.2840 N   0  0  0  0  0  0  0  0  0  0  0  0
   -3.1860   14.7310   -2.4160 C   0  0  0  0  0  0  0  0  0  0  0  0
   -1.0900   14.8200   -1.0070 C   0  0  2  0  0  0  0  0  0  0  0  0
   -1.4460   14.0180    1.2620 N   0  0  0  0  0  0  0  0  0  0  0  0
   -1.7440   14.6250   -2.3260 N   0  0  0  0  0  0  0  0  0  0  0  0
   -0.2570   13.6770   -0.6220 N   0  0  0  0  0  0  0  0  0  0  0  0
   -0.0950   13.9740    0.7920 C   0  0  0  0  0  0  0  0  0  0  0  0
   -1.0540   14.5370   -3.7010 C   0  0  2  0  0  0  0  0  0  0  0  0
    0.2420   13.7270   -3.8890 C   0  0  0  0  0  0  0  0  0  0  0  0
   -0.8880   15.7560   -4.6230 C   0  0  1  0  0  0  0  0  0  0  0  0
   -0.0290   12.2600   -4.2240 C   0  0  2  0  0  0  0  0  0  0  0  0
   -1.6410   16.9590   -4.4010 O   0  0  0  0  0  0  0  0  0  0  0  0
    0.5780   16.1540   -4.7800 C   0  0  0  0  0  0  0  0  0  0  0  0
    0.4660   11.5850   -2.8760 C   0  0  2  0  0  0  0  0  0  0  0  0
    0.4550   17.4810   -5.4700 C   0  0  0  0  0  0  0  0  0  0  0  0
   -0.8310   18.0370   -4.8960 C   0  0  0  0  0  0  0  0  0  0  0  0
   -0.0990   11.7420   -5.6750 N   0  0  0  0  0  0  0  0  0  0  0  0
    1.6750   11.9670   -2.5640 O   0  0  0  0  0  0  0  0  0  0  0  0
    0.4800   10.1770   -2.8130 O   0  0  0  0  0  0  0  0  0  0  0  0
    0.9660   11.7930   -6.7240 N   0  0  0  0  0  0  0  0  0  0  0  0
   -0.7040   10.4370   -5.6910 C   0  0  2  0  0  0  0  0  0  0  0  0
    0.8630   10.5550   -7.5860 C   0  0  1  0  0  0  0  0  0  0  0  0
   -0.2940    9.7600   -6.9770 C   0  0  2  0  0  0  0  0  0  0  0  0
   -2.2150   10.6440   -5.5430 C   0  0  0  0  0  0  0  0  0  0  0  0
    0.9290   10.5020   -9.1350 C   0  0  0  0  0  0  0  0  0  0  0  0
   -1.4820    9.3280   -7.8100 C   0  0  0  0  0  0  0  0  0  0  0  0
   -3.0120    9.3670   -5.7750 C   0  0  0  0  0  0  0  0  0  0  0  0
    1.4480    9.2890   -9.4610 F   0  0  0  0  0  0  0  0  0  0  0  0
   -0.2880   10.5240   -9.7180 F   0  0  0  0  0  0  0  0  0  0  0  0
    1.6720   11.3620   -9.8230 F   0  0  0  0  0  0  0  0  0  0  0  0
   -2.5360    8.5810   -6.9990 C   0  0  0  0  0  0  0  0  0  0  0  0
  2  1  1  1
  2  3  1  0
  2  4  1  0
  4  5  1  0
  3  6  1  0
  3  7  1  1
  5  8  1  0
  6  8  1  0
  6  9  1  1
  7 10  1  0
  9 10  1  0
  8 11  1  0
 11 12  1  1
 11 13  1  0
 14 12  1  6
 13 15  1  0
 13 16  1  1
 14 17  1  0
 16 18  1  0
 15 19  1  0
 18 19  1  0
 14 20  1  0
 17 21  1  6
 17 22  1  0
 20 23  1  0
 20 24  1  0
 23 25  1  0
 24 26  1  0
 25 26  1  0
 24 27  1  6
 25 28  1  6
 26 29  1  6
 27 30  1  0
 28 31  1  0
 28 32  1  0
 28 33  1  0
 29 34  1  0
 30 34  1  0
M  CHG  1  21  -1
M  END
