ucsf424-ucsf519
     RDKit          3D

 24 26  0  0  0  0  0  0  0  0999 V2000
    1.4620   11.9500   -2.6300 O   0  0  0  0  0  0  0  0  0  0  0  0
    0.4740   11.4180   -3.3230 C   0  0  1  0  0  0  0  0  0  0  0  0
   -0.3820   10.9770   -2.2800 O   0  0  0  0  0  0  0  0  0  0  0  0
   -0.2310   12.4420   -4.2810 C   0  0  1  0  0  0  0  0  0  0  0  0
    0.3680   14.2070   -4.0630 S   0  0  0  0  0  0  0  0  0  0  0  0
   -0.1920   12.1400   -5.8480 C   0  0  1  0  0  0  0  0  0  0  0  0
   -1.0700   15.2620   -4.4920 C   0  0  2  0  0  0  0  0  0  0  0  0
    1.1010   11.8150   -6.5370 N   0  0  0  0  0  0  0  0  0  0  0  0
   -1.1170   10.9850   -6.2660 C   0  0  1  0  0  0  0  0  0  0  0  0
   -0.6200   16.7050   -4.7310 C   0  0  0  0  0  0  0  0  0  0  0  0
   -2.4890   15.1400   -3.8000 C   0  0  1  0  0  0  0  0  0  0  0  0
    0.9260   10.5710   -7.3100 O   0  0  0  0  0  0  0  0  0  0  0  0
   -0.4640   10.3540   -7.4740 C   0  0  1  0  0  0  0  0  0  0  0  0
   -1.5870    9.9470   -5.2390 C   0  0  0  0  0  0  0  0  0  0  0  0
   -3.2180   14.0250   -4.2700 O   0  0  0  0  0  0  0  0  0  0  0  0
   -0.7700    8.8710   -7.6140 C   0  0  0  0  0  0  0  0  0  0  0  0
   -2.6260    9.0210   -5.8570 C   0  0  0  0  0  0  0  0  0  0  0  0
   -2.5720   15.2710   -2.3020 N   0  0  0  0  0  0  0  0  0  0  0  0
   -2.2290    8.5660   -7.2620 C   0  0  0  0  0  0  0  0  0  0  0  0
   -3.9260   15.1250   -1.7720 C   0  0  0  0  0  0  0  0  0  0  0  0
   -1.7710   14.4400   -1.4270 C   0  0  1  0  0  0  0  0  0  0  0  0
   -0.4620   14.9470   -1.3230 O   0  0  0  0  0  0  0  0  0  0  0  0
   -3.7170   15.1020   -0.2690 C   0  0  0  0  0  0  0  0  0  0  0  0
   -2.3400   14.5780   -0.0790 N   0  0  0  0  0  0  0  0  0  0  0  0
  2  1  1  1
  2  3  1  0
  2  4  1  0
  4  5  1  6
  4  6  1  0
  5  7  1  0
  6  8  1  1
  6  9  1  0
  7 10  1  1
  7 11  1  0
  8 12  1  0
  9 13  1  0
 12 13  1  0
  9 14  1  1
 11 15  1  1
 13 16  1  1
 14 17  1  0
 11 18  1  0
 16 19  1  0
 17 19  1  0
 18 20  1  0
 18 21  1  0
 21 22  1  1
 20 23  1  0
 21 24  1  0
 23 24  1  0
M  CHG  1   1  -1
M  END
