ucsf278-ucsf523
     RDKit          3D

 23 26  0  0  0  0  0  0  0  0999 V2000
   -2.5860   10.2870   -5.6560 O   0  0  0  0  0  0  0  0  0  0  0  0
   -1.5660   11.0790   -6.2420 C   0  0  0  0  0  0  0  0  0  0  0  0
   -0.5730   11.5270   -5.1620 C   0  0  2  0  0  0  0  0  0  0  0  0
   -1.2520   12.2180   -3.9820 C   0  0  0  0  0  0  0  0  0  0  0  0
    0.3930   12.5170   -5.6100 N   0  0  0  0  0  0  0  0  0  0  0  0
   -0.1360   13.0250   -3.3020 C   0  0  1  0  0  0  0  0  0  0  0  0
    1.0040   12.9490   -4.3600 C   0  0  2  0  0  0  0  0  0  0  0  0
   -0.6310   14.4430   -2.8720 C   0  0  2  0  0  0  0  0  0  0  0  0
    1.8450   14.1780   -4.5250 C   0  0  0  0  0  0  0  0  0  0  0  0
    0.4790   15.5190   -2.9610 C   0  0  0  0  0  0  0  0  0  0  0  0
    1.8710   15.0130   -3.2890 C   0  0  0  0  0  0  0  0  0  0  0  0
   -1.2910   14.5730   -1.4370 C   0  0  2  0  0  0  0  0  0  0  0  0
   -0.4890   13.9030   -0.4210 N   0  0  0  0  0  0  0  0  0  0  0  0
   -2.8250   14.3540   -1.1510 C   0  0  1  0  0  0  0  0  0  0  0  0
   -0.6580   14.6500    0.7890 C   0  0  2  0  0  0  0  0  0  0  0  0
   -2.8870   13.9460    0.3660 C   0  0  1  0  0  0  0  0  0  0  0  0
   -3.7370   15.4950   -1.4860 N   0  0  0  0  0  0  0  0  0  0  0  0
   -0.0180   13.8670    1.7650 N   0  0  0  0  0  0  0  0  0  0  0  0
   -2.0160   14.7280    1.2010 N   0  0  0  0  0  0  0  0  0  0  0  0
   -4.1820   13.9580    1.0250 N   0  0  0  0  0  0  0  0  0  0  0  0
   -5.0220   15.4800   -0.7160 C   0  0  0  0  0  0  0  0  0  0  0  0
   -4.8800   15.1760    0.8070 C   0  0  1  0  0  0  0  0  0  0  0  0
   -6.0980   15.0080    1.5060 O   0  0  0  0  0  0  0  0  0  0  0  0
  1  2  1  0
  3  2  1  6
  3  4  1  0
  3  5  1  0
  6  4  1  6
  5  7  1  0
  6  7  1  0
  6  8  1  0
  7  9  1  6
  8 10  1  1
  9 11  1  0
 10 11  1  0
  8 12  1  0
 12 13  1  1
 12 14  1  0
 13 15  1  0
 14 16  1  0
 14 17  1  1
 15 18  1  1
 15 19  1  0
 16 19  1  1
 16 20  1  0
 17 21  1  0
 20 22  1  0
 21 22  1  0
 22 23  1  6
M  END
