ucsf135-ucsf404
     RDKit          3D

 25 28  0  0  0  0  0  0  0  0999 V2000
    1.8270   11.7260   -7.0770 O   0  0  0  0  0  0  0  0  0  0  0  0
    0.5380   11.7740   -6.5870 C   0  0  2  0  0  0  0  0  0  0  0  0
    0.6230   12.0270   -5.1610 N   0  0  0  0  0  0  0  0  0  0  0  0
   -0.2820   10.4570   -6.8060 C   0  0  1  0  0  0  0  0  0  0  0  0
   -0.6640   11.2920   -4.4390 S   0  0  2  0  0  0  0  0  0  0  0  0
   -1.4430   10.4480   -5.8060 C   0  0  2  0  0  0  0  0  0  0  0  0
   -0.7530   10.1030   -8.2000 C   0  0  0  0  0  0  0  0  0  0  0  0
   -1.7070   12.3540   -3.8840 O   0  0  0  0  0  0  0  0  0  0  0  0
   -0.2410   10.1970   -3.3590 O   0  0  0  0  0  0  0  0  0  0  0  0
   -2.0290    9.0720   -5.5990 C   0  0  0  0  0  0  0  0  0  0  0  0
   -1.8760    9.0550   -8.1880 C   0  0  0  0  0  0  0  0  0  0  0  0
   -3.0340   11.9600   -3.6470 C   0  0  0  0  0  0  0  0  0  0  0  0
   -2.0380    8.2430   -6.8860 C   0  0  0  0  0  0  0  0  0  0  0  0
   -3.5590   12.6880   -2.4190 C   0  0  0  0  0  0  0  0  0  0  0  0
   -2.9090   14.0710   -2.1620 C   0  0  1  0  0  0  0  0  0  0  0  0
   -3.8590   15.1670   -2.7060 C   0  0  0  0  0  0  0  0  0  0  0  0
   -2.6220   14.2300   -0.6760 C   0  0  0  0  0  0  0  0  0  0  0  0
   -3.9240   14.0720    0.0320 C   0  0  2  0  0  0  0  0  0  0  0  0
   -5.0920   15.3760   -1.8210 C   0  0  1  0  0  0  0  0  0  0  0  0
   -6.5700   14.6170   -2.4810 Cl  0  0  0  0  0  0  0  0  0  0  0  0
   -4.8950   15.1680   -0.3190 C   0  0  1  0  0  0  0  0  0  0  0  0
   -3.9290   14.0790    1.8050 S   0  0  0  0  0  0  0  0  0  0  0  0
   -5.5510   14.8440    1.8520 C   0  0  1  0  0  0  0  0  0  0  0  0
   -6.0520   14.9210    0.5200 N   0  0  0  0  0  0  0  0  0  0  0  0
   -6.5970   14.1610    2.5220 N   0  0  0  0  0  0  0  0  0  0  0  0
  2  1  1  1
  2  3  1  0
  2  4  1  0
  3  5  1  0
  4  6  1  0
  5  6  1  0
  4  7  1  6
  5  8  1  0
  5  9  1  1
  6 10  1  1
  7 11  1  0
  8 12  1  0
 10 13  1  0
 11 13  1  0
 12 14  1  0
 15 14  1  1
 15 16  1  0
 15 17  1  0
 18 17  1  6
 16 19  1  0
 19 20  1  6
 18 21  1  0
 19 21  1  0
 18 22  1  0
 22 23  1  0
 21 24  1  1
 23 24  1  0
 23 25  1  1
M  END
