ucsf241-ucsf340
     RDKit          3D

 25 28  0  0  0  0  0  0  0  0999 V2000
    0.7010   18.5020   -5.8880 C   0  0  0  0  0  0  0  0  0  0  0  0
    0.2950   17.1310   -5.6430 N   0  0  0  0  0  0  0  0  0  0  0  0
    0.9490   16.5020   -4.4770 C   0  0  0  0  0  0  0  0  0  0  0  0
   -1.1040   16.8090   -5.5230 C   0  0  1  0  0  0  0  0  0  0  0  0
   -0.1800   15.8770   -3.5890 C   0  0  1  0  0  0  0  0  0  0  0  0
   -1.4160   16.6040   -4.1050 C   0  0  2  0  0  0  0  0  0  0  0  0
   -2.2030   17.5760   -6.2200 C   0  0  0  0  0  0  0  0  0  0  0  0
   -0.3530   14.3330   -3.6580 C   0  0  1  0  0  0  0  0  0  0  0  0
   -2.7730   15.8970   -4.0070 C   0  0  0  0  0  0  0  0  0  0  0  0
   -3.3440   16.5800   -6.4620 C   0  0  0  0  0  0  0  0  0  0  0  0
    0.7940   13.3450   -3.2710 C   0  0  0  0  0  0  0  0  0  0  0  0
   -1.5150   13.8370   -2.7560 C   0  0  0  0  0  0  0  0  0  0  0  0
   -3.3940   15.5040   -5.3720 C   0  0  0  0  0  0  0  0  0  0  0  0
    0.3090   12.1460   -2.4290 C   0  0  2  0  0  0  0  0  0  0  0  0
   -1.3700   13.9470   -1.2090 C   0  0  2  0  0  0  0  0  0  0  0  0
    0.6440   12.3640   -1.1020 O   0  0  0  0  0  0  0  0  0  0  0  0
    0.8520   11.0060   -2.7160 O   0  0  0  0  0  0  0  0  0  0  0  0
   -2.6520   14.3990   -0.4960 C   0  0  2  0  0  0  0  0  0  0  0  0
   -0.1930   14.7930   -0.6550 C   0  0  0  0  0  0  0  0  0  0  0  0
   -3.7540   15.2030   -1.1430 C   0  0  0  0  0  0  0  0  0  0  0  0
   -2.3510   15.3190    0.6540 C   0  0  1  0  0  0  0  0  0  0  0  0
   -0.1010   14.6240    0.8680 C   0  0  0  0  0  0  0  0  0  0  0  0
   -4.5760   15.5550    0.0980 C   0  0  0  0  0  0  0  0  0  0  0  0
   -3.6640   15.4230    1.2460 N   0  0  0  0  0  0  0  0  0  0  0  0
   -1.3910   14.7620    1.5520 N   0  0  0  0  0  0  0  0  0  0  0  0
  1  2  1  0
  2  3  1  0
  2  4  1  0
  5  3  1  6
  4  6  1  0
  5  6  1  0
  4  7  1  1
  5  8  1  0
  6  9  1  6
  7 10  1  0
  8 11  1  1
  8 12  1  0
  9 13  1  0
 10 13  1  0
 11 14  1  0
 15 12  1  6
 14 16  1  1
 14 17  1  0
 15 18  1  0
 15 19  1  0
 18 20  1  6
 18 21  1  0
 19 22  1  0
 20 23  1  0
 21 24  1  1
 23 24  1  0
 21 25  1  0
 22 25  1  0
M  CHG  1  17  -1
M  END
