ucsf337-ucsf114
     RDKit          3D

 25 27  0  0  0  0  0  0  0  0999 V2000
   -7.4880   14.3550    0.8160 C   0  0  0  0  0  0  0  0  0  0  0  0
   -6.4190   14.8580   -0.1600 C   0  0  2  0  0  0  0  0  0  0  0  0
   -6.4330   14.1290   -1.4360 N   0  0  0  0  0  0  0  0  0  0  0  0
   -4.9780   14.9110    0.3540 C   0  0  2  0  0  0  0  0  0  0  0  0
   -4.5680   15.5680    2.1350 Br  0  0  0  0  0  0  0  0  0  0  0  0
   -4.1420   15.6920   -0.6260 C   0  0  0  0  0  0  0  0  0  0  0  0
   -5.3940   14.6170   -2.3420 C   0  0  2  0  0  0  0  0  0  0  0  0
   -5.5430   13.9420   -3.5960 N   0  0  0  0  0  0  0  0  0  0  0  0
   -3.9210   14.7200   -1.7550 C   0  0  2  0  0  0  0  0  0  0  0  0
   -3.2770   13.6640   -0.8990 N   0  0  0  0  0  0  0  0  0  0  0  0
   -2.7870   14.9410   -2.8230 C   0  0  0  0  0  0  0  0  0  0  0  0
   -1.5390   14.3220   -2.1420 C   0  0  2  0  0  0  0  0  0  0  0  0
   -2.0200   14.4200   -0.7070 C   0  0  2  0  0  0  0  0  0  0  0  0
   -0.1920   14.8490   -2.4410 N   0  0  0  0  0  0  0  0  0  0  0  0
   -0.9100   14.0260    0.2970 C   0  0  2  0  0  0  0  0  0  0  0  0
    0.2320   14.4400   -3.7970 C   0  0  0  0  0  0  0  0  0  0  0  0
   -0.7430   15.0030    1.3300 O   0  0  0  0  0  0  0  0  0  0  0  0
    0.3750   13.7230   -0.3290 N   0  0  0  0  0  0  0  0  0  0  0  0
    0.7940   14.6330   -1.3590 C   0  0  1  0  0  0  0  0  0  0  0  0
    0.5310   15.5270   -4.8500 C   0  0  0  0  0  0  0  0  0  0  0  0
    2.4720   14.1640   -1.8540 S   0  0  0  0  0  0  0  0  0  0  0  0
   -0.6230   16.3600   -5.0520 O   0  0  0  0  0  0  0  0  0  0  0  0
   -0.2990   17.6940   -5.4470 C   0  0  0  0  0  0  0  0  0  0  0  0
    0.8020   18.1580   -4.5110 C   0  0  0  0  0  0  0  0  0  0  0  0
   -1.5420   18.5750   -5.3400 C   0  0  0  0  0  0  0  0  0  0  0  0
  2  1  1  1
  2  3  1  0
  2  4  1  0
  4  5  1  1
  4  6  1  0
  3  7  1  0
  7  8  1  6
  9  6  1  1
  7  9  1  0
  9 10  1  0
  9 11  1  0
 12 11  1  6
 13 10  1  6
 12 13  1  0
 12 14  1  0
 13 15  1  0
 14 16  1  0
 15 17  1  1
 15 18  1  0
 14 19  1  0
 18 19  1  0
 16 20  1  0
 19 21  1  6
 20 22  1  0
 22 23  1  0
 23 24  1  0
 23 25  1  0
M  END
