ucsf371-ucsf320
     RDKit          3D

 10 10  0  0  0  0  0  0  0  0999 V2000
   -4.7050   15.0330    0.9560 C   0  0  0  0  0  0  0  0  0  0  0  0
   -4.2700   15.4920   -0.4320 C   0  0  2  0  0  0  0  0  0  0  0  0
   -4.7140   14.5470   -1.4500 N   0  0  0  0  0  0  0  0  0  0  0  0
   -2.4770   15.6120   -0.5350 S   0  0  0  0  0  0  0  0  0  0  0  0
   -6.1440   14.8610   -1.6370 O   0  0  0  0  0  0  0  0  0  0  0  0
   -3.9280   14.9080   -2.6830 C   0  0  0  0  0  0  0  0  0  0  0  0
   -2.5130   15.4910   -2.3740 C   0  0  2  0  0  0  0  0  0  0  0  0
   -1.3690   14.6800   -3.0660 C   0  0  1  0  0  0  0  0  0  0  0  0
   -1.2710   14.9890   -4.4470 O   0  0  0  0  0  0  0  0  0  0  0  0
   -0.1860   15.0410   -2.6120 O   0  0  0  0  0  0  0  0  0  0  0  0
  2  1  1  1
  2  3  1  0
  2  4  1  0
  3  5  1  0
  3  6  1  0
  4  7  1  0
  7  6  1  1
  7  8  1  0
  8  9  1  6
  8 10  1  0
M  CHG  1  10  -1
M  END
