ucsf039-ucsf337
     RDKit          3D

 25 28  0  0  0  0  0  0  0  0999 V2000
   -4.2330   14.4750    0.9880 N   0  0  0  0  0  0  0  0  0  0  0  0
   -3.1400   13.9840    0.1700 C   0  0  2  0  0  0  0  0  0  0  0  0
   -1.9560   14.8810    0.4100 C   0  0  2  0  0  0  0  0  0  0  0  0
   -5.2440   14.5670    0.0090 C   0  0  1  0  0  0  0  0  0  0  0  0
   -3.6040   14.0380   -1.2130 N   0  0  0  0  0  0  0  0  0  0  0  0
   -6.7270   14.1080    0.0350 C   0  0  1  0  0  0  0  0  0  0  0  0
   -4.9710   15.8560   -0.7080 C   0  0  0  0  0  0  0  0  0  0  0  0
   -7.6960   14.7280    1.0410 C   0  0  0  0  0  0  0  0  0  0  0  0
   -2.7630   14.6750   -2.2230 C   0  0  0  0  0  0  0  0  0  0  0  0
   -0.8800   14.7740   -0.7210 C   0  0  2  0  0  0  0  0  0  0  0  0
   -1.3000   14.5040    1.6370 N   0  0  0  0  0  0  0  0  0  0  0  0
   -5.4760   15.6750   -2.0980 C   0  0  0  0  0  0  0  0  0  0  0  0
   -7.2700   14.2870   -1.3240 N   0  0  0  0  0  0  0  0  0  0  0  0
   -1.3670   14.3210   -2.0370 N   0  0  0  0  0  0  0  0  0  0  0  0
    0.0110   13.8020   -0.1340 N   0  0  0  0  0  0  0  0  0  0  0  0
    0.0310   14.2230    1.2540 C   0  0  0  0  0  0  0  0  0  0  0  0
   -6.2130   14.3930   -2.3160 C   0  0  1  0  0  0  0  0  0  0  0  0
   -0.4570   14.4820   -3.2280 C   0  0  0  0  0  0  0  0  0  0  0  0
   -6.8250   14.4770   -3.6130 N   0  0  0  0  0  0  0  0  0  0  0  0
   -0.1580   15.8900   -3.8490 C   0  0  1  0  0  0  0  0  0  0  0  0
    1.0870   15.9690   -4.7200 C   0  0  0  0  0  0  0  0  0  0  0  0
   -1.2580   16.4960   -4.6480 N   0  0  0  0  0  0  0  0  0  0  0  0
   -0.7810   17.8150   -5.0750 C   0  0  1  0  0  0  0  0  0  0  0  0
    0.9720   17.6350   -5.4470 S   0  0  0  0  0  0  0  0  0  0  0  0
   -1.5370   18.3340   -6.2920 C   0  0  0  0  0  0  0  0  0  0  0  0
  2  1  1  1
  2  3  1  0
  4  1  1  1
  2  5  1  0
  4  6  1  0
  4  7  1  0
  6  8  1  1
  5  9  1  0
  3 10  1  0
  3 11  1  1
  7 12  1  0
  6 13  1  0
  9 14  1  0
 10 14  1  0
 10 15  1  1
 11 16  1  0
 15 16  1  0
 12 17  1  0
 13 17  1  0
 14 18  1  0
 17 19  1  6
 20 18  1  6
 20 21  1  0
 20 22  1  0
 22 23  1  0
 21 24  1  0
 23 24  1  0
 23 25  1  6
M  END
