ucsf213-ucsf170
     RDKit          3D

 23 25  0  0  0  0  0  0  0  0999 V2000
    0.6090   11.1080   -2.4990 O   0  0  0  0  0  0  0  0  0  0  0  0
    1.1950   12.3000   -2.5810 C   0  0  2  0  0  0  0  0  0  0  0  0
    0.3740   13.2090   -1.8440 O   0  0  0  0  0  0  0  0  0  0  0  0
    1.3860   12.6190   -4.1270 C   0  0  0  0  0  0  0  0  0  0  0  0
    0.0930   14.4470   -2.4790 C   0  0  0  0  0  0  0  0  0  0  0  0
    0.9900   13.9780   -4.7980 C   0  0  2  0  0  0  0  0  0  0  0  0
    1.4040   15.3440   -4.1590 C   0  0  0  0  0  0  0  0  0  0  0  0
   -0.8140   14.0990   -5.1050 S   0  0  0  0  0  0  0  0  0  0  0  0
   -1.3270   14.9470   -2.1720 C   0  0  2  0  0  0  0  0  0  0  0  0
    0.2130   16.3510   -4.1470 C   0  0  2  0  0  0  0  0  0  0  0  0
   -0.7070   15.9100   -5.2250 C   0  0  2  0  0  0  0  0  0  0  0  0
   -1.5660   14.6790   -0.6870 C   0  0  0  0  0  0  0  0  0  0  0  0
   -2.4260   14.2900   -3.0520 C   0  0  2  0  0  0  0  0  0  0  0  0
   -2.2940   14.5930   -4.4230 O   0  0  0  0  0  0  0  0  0  0  0  0
    0.5000   17.8280   -4.4540 C   0  0  0  0  0  0  0  0  0  0  0  0
   -2.0450   16.6550   -5.2510 C   0  0  0  0  0  0  0  0  0  0  0  0
   -3.0390   14.7030   -0.3200 C   0  0  1  0  0  0  0  0  0  0  0  0
   -3.8210   14.7710   -2.7030 C   0  0  0  0  0  0  0  0  0  0  0  0
   -3.4200   15.4120    1.3150 S   0  0  0  0  0  0  0  0  0  0  0  0
   -0.2410   18.3210   -5.7120 C   0  0  0  0  0  0  0  0  0  0  0  0
   -1.7520   18.0970   -5.6410 C   0  0  0  0  0  0  0  0  0  0  0  0
   -3.8010   15.4910   -1.3780 C   0  0  0  0  0  0  0  0  0  0  0  0
   -5.1710   14.9860    1.3690 C   0  0  0  0  0  0  0  0  0  0  0  0
  2  1  1  6
  2  3  1  0
  2  4  1  0
  3  5  1  0
  6  4  1  1
  6  7  1  0
  6  8  1  0
  9  5  1  6
 10  7  1  6
  8 11  1  0
 10 11  1  0
  9 12  1  0
  9 13  1  0
 13 14  1  6
 10 15  1  0
 11 16  1  1
 12 17  1  0
 13 18  1  0
 17 19  1  1
 15 20  1  0
 16 21  1  0
 20 21  1  0
 17 22  1  0
 18 22  1  0
 19 23  1  0
M  CHG  1   1  -1
M  END
