ucsf274-ucsf520
     RDKit          3D

 31 35  0  0  0  0  0  0  0  0999 V2000
    0.7070   11.6020   -2.6260 O   0  0  0  0  0  0  0  0  0  0  0  0
    1.0880   12.8240   -3.0010 C   0  0  2  0  0  0  0  0  0  0  0  0
    1.8180   13.2820   -1.8810 O   0  0  0  0  0  0  0  0  0  0  0  0
   -0.1710   13.8560   -3.4130 C   0  0  1  0  0  0  0  0  0  0  0  0
   -0.6280   13.2000   -4.8010 C   0  0  0  0  0  0  0  0  0  0  0  0
   -1.2990   14.0680   -2.3200 N   0  0  0  0  0  0  0  0  0  0  0  0
    0.4310   15.3200   -3.7490 C   0  0  2  0  0  0  0  0  0  0  0  0
   -0.5600   11.6740   -5.0640 C   0  0  1  0  0  0  0  0  0  0  0  0
   -2.6450   14.5730   -2.6910 C   0  0  0  0  0  0  0  0  0  0  0  0
   -0.8350   14.7020   -1.0320 C   0  0  1  0  0  0  0  0  0  0  0  0
   -0.4290   16.4510   -3.1840 C   0  0  0  0  0  0  0  0  0  0  0  0
    0.6680   15.8660   -5.1710 C   0  0  0  0  0  0  0  0  0  0  0  0
   -1.8170   10.8970   -4.6000 C   0  0  1  0  0  0  0  0  0  0  0  0
   -0.1160   11.3480   -6.4740 N   0  0  0  0  0  0  0  0  0  0  0  0
   -3.5720   14.4010   -1.5520 N   0  0  0  0  0  0  0  0  0  0  0  0
   -1.8400   15.4660   -0.1080 C   0  0  1  0  0  0  0  0  0  0  0  0
   -0.2450   13.7790   -0.0910 N   0  0  0  0  0  0  0  0  0  0  0  0
   -1.1930   16.9800   -4.2670 O   0  0  0  0  0  0  0  0  0  0  0  0
   -0.2060   17.1170   -5.2720 C   0  0  0  0  0  0  0  0  0  0  0  0
   -2.4730   11.5390   -3.5410 O   0  0  0  0  0  0  0  0  0  0  0  0
   -2.8240   10.6660   -5.5980 N   0  0  0  0  0  0  0  0  0  0  0  0
   -0.9080   10.3530   -7.2540 C   0  0  2  0  0  0  0  0  0  0  0  0
   -3.3150   15.3630   -0.5250 C   0  0  2  0  0  0  0  0  0  0  0  0
   -1.5560   15.0320    1.2780 N   0  0  0  0  0  0  0  0  0  0  0  0
   -0.2430   14.4540    1.1730 C   0  0  0  0  0  0  0  0  0  0  0  0
   -4.2360   15.0540    0.5720 N   0  0  0  0  0  0  0  0  0  0  0  0
   -2.2870    9.8790   -6.6960 C   0  0  1  0  0  0  0  0  0  0  0  0
    0.0060    9.1510   -7.5690 C   0  0  0  0  0  0  0  0  0  0  0  0
   -0.7160    8.0870   -8.3850 C   0  0  0  0  0  0  0  0  0  0  0  0
   -2.2870    8.3780   -6.3850 C   0  0  0  0  0  0  0  0  0  0  0  0
   -1.9360    7.5600   -7.6340 C   0  0  0  0  0  0  0  0  0  0  0  0
  2  1  1  1
  2  3  1  0
  2  4  1  0
  4  5  1  6
  4  6  1  0
  4  7  1  0
  8  5  1  6
  6  9  1  0
  6 10  1  0
  7 11  1  6
  7 12  1  0
  8 13  1  0
  8 14  1  0
  9 15  1  0
 10 16  1  0
 10 17  1  1
 11 18  1  0
 12 19  1  0
 18 19  1  0
 13 20  1  1
 13 21  1  0
 14 22  1  0
 15 23  1  0
 16 23  1  0
 16 24  1  1
 17 25  1  0
 24 25  1  0
 23 26  1  1
 21 27  1  0
 22 27  1  0
 22 28  1  1
 28 29  1  0
 27 30  1  1
 29 31  1  0
 30 31  1  0
M  CHG  1   1  -1
M  END
