ucsf243-ucsf006
     RDKit          3D

 24 26  0  0  0  0  0  0  0  0999 V2000
   -4.7740   13.5820   -0.0680 C   0  0  0  0  0  0  0  0  0  0  0  0
   -3.9970   14.3480   -1.1460 C   0  0  2  0  0  0  0  0  0  0  0  0
   -4.9710   14.8030   -2.2440 C   0  0  0  0  0  0  0  0  0  0  0  0
   -2.7840   13.5070   -1.6720 C   0  0  0  0  0  0  0  0  0  0  0  0
   -1.9630   14.1780   -2.8120 C   0  0  2  0  0  0  0  0  0  0  0  0
   -4.3520   14.5940   -3.6110 C   0  0  0  0  0  0  0  0  0  0  0  0
   -0.6540   14.9180   -2.3330 C   0  0  1  0  0  0  0  0  0  0  0  0
   -2.9100   15.0890   -3.6340 C   0  0  2  0  0  0  0  0  0  0  0  0
   -2.4510   15.1050   -4.9930 O   0  0  0  0  0  0  0  0  0  0  0  0
    0.4040   14.1480   -2.9510 O   0  0  0  0  0  0  0  0  0  0  0  0
   -0.6400   16.1400   -2.8310 O   0  0  0  0  0  0  0  0  0  0  0  0
   -0.6140   15.0600   -0.7470 C   0  0  1  0  0  0  0  0  0  0  0  0
    0.6940   14.2800   -4.3610 C   0  0  0  0  0  0  0  0  0  0  0  0
   -1.8840   15.5390   -0.0420 C   0  0  2  0  0  0  0  0  0  0  0  0
   -0.1040   13.8520   -0.0490 N   0  0  0  0  0  0  0  0  0  0  0  0
    1.2750   12.9070   -4.8430 C   0  0  2  0  0  0  0  0  0  0  0  0
   -2.3470   14.4790    0.9040 C   0  0  1  0  0  0  0  0  0  0  0  0
   -0.0830   14.0050    1.3810 C   0  0  0  0  0  0  0  0  0  0  0  0
   -3.2050   15.7860   -0.7020 C   0  0  0  0  0  0  0  0  0  0  0  0
    0.1800   12.0920   -5.2870 O   0  0  0  0  0  0  0  0  0  0  0  0
    1.8260   12.2810   -3.8130 O   0  0  0  0  0  0  0  0  0  0  0  0
   -1.4070   14.1660    1.8990 N   0  0  0  0  0  0  0  0  0  0  0  0
   -3.5830   15.0090    1.5090 N   0  0  0  0  0  0  0  0  0  0  0  0
   -4.0490   16.0210    0.5490 C   0  0  0  0  0  0  0  0  0  0  0  0
  2  1  1  1
  2  3  1  0
  2  4  1  0
  5  4  1  1
  3  6  1  0
  5  7  1  0
  5  8  1  0
  6  8  1  0
  8  9  1  6
  7 10  1  0
  7 11  1  6
  7 12  1  0
 10 13  1  0
 12 14  1  0
 12 15  1  1
 13 16  1  0
 14 17  1  0
 15 18  1  0
 14 19  1  6
 16 20  1  1
 16 21  1  0
 17 22  1  1
 18 22  1  0
 17 23  1  0
 19 24  1  0
 23 24  1  0
M  CHG  2  11  -1  21  -1
M  END
