ucsf442-ucsf404
     RDKit          3D

 13 14  0  0  0  0  0  0  0  0999 V2000
   -0.5490   14.0530    0.9200 O   0  0  0  0  0  0  0  0  0  0  0  0
   -1.6320   14.8580    0.5590 C   0  0  1  0  0  0  0  0  0  0  0  0
   -1.9030   14.6980   -0.8630 N   0  0  0  0  0  0  0  0  0  0  0  0
   -2.7860   14.6180    1.3830 N   0  0  0  0  0  0  0  0  0  0  0  0
   -4.0780   15.1600    0.9720 C   0  0  1  0  0  0  0  0  0  0  0  0
   -3.2050   15.1140   -1.4030 C   0  0  1  0  0  0  0  0  0  0  0  0
   -3.4000   14.5440   -2.6870 O   0  0  0  0  0  0  0  0  0  0  0  0
   -4.4550   14.9370   -0.5030 C   0  0  2  0  0  0  0  0  0  0  0  0
   -5.1360   14.3830    1.6860 N   0  0  0  0  0  0  0  0  0  0  0  0
   -5.8470   15.8540   -1.1370 Cl  0  0  0  0  0  0  0  0  0  0  0  0
   -5.9610   15.0740    2.6640 N   0  0  0  0  0  0  0  0  0  0  0  0
   -5.0060   13.5930   -0.4950 N   0  0  0  0  0  0  0  0  0  0  0  0
   -5.9050   13.7130    0.6420 C   0  0  0  0  0  0  0  0  0  0  0  0
  2  1  1  1
  2  3  1  0
  2  4  1  0
  5  4  1  6
  3  6  1  0
  6  7  1  6
  5  8  1  0
  6  8  1  0
  5  9  1  0
  8 10  1  6
  9 11  1  0
  8 12  1  0
  9 13  1  0
 12 13  1  0
M  END
