ucsf247-ucsf260
     RDKit          3D

 26 28  0  0  0  0  0  0  0  0999 V2000
    0.6780   13.4720   -1.5760 O   0  0  0  0  0  0  0  0  0  0  0  0
    0.0550   13.6500   -2.7430 C   0  0  2  0  0  0  0  0  0  0  0  0
    0.9500   13.5060   -3.9250 N   0  0  0  0  0  0  0  0  0  0  0  0
   -0.8130   14.9590   -2.7330 C   0  0  0  0  0  0  0  0  0  0  0  0
   -2.2100   14.6050   -2.9030 N   0  0  0  0  0  0  0  0  0  0  0  0
    1.7600   12.2820   -3.7330 C   0  0  0  0  0  0  0  0  0  0  0  0
    0.2840   13.5300   -5.2800 C   0  0  0  0  0  0  0  0  0  0  0  0
   -3.2020   15.4520   -2.3910 C   0  0  1  0  0  0  0  0  0  0  0  0
    1.1330   11.4120   -2.9150 O   0  0  0  0  0  0  0  0  0  0  0  0
   -0.6450   12.4130   -5.7180 N   0  0  0  0  0  0  0  0  0  0  0  0
   -4.0740   15.6870   -3.4670 O   0  0  0  0  0  0  0  0  0  0  0  0
   -3.9580   15.1280   -1.1030 C   0  0  2  0  0  0  0  0  0  0  0  0
   -1.6790   12.0700   -4.7630 C   0  0  0  0  0  0  0  0  0  0  0  0
   -0.0620   11.1270   -6.0530 C   0  0  1  0  0  0  0  0  0  0  0  0
   -5.4300   15.5060   -1.1160 C   0  0  0  0  0  0  0  0  0  0  0  0
   -3.2990   15.5220    0.2060 C   0  0  0  0  0  0  0  0  0  0  0  0
   -2.3640   10.9230   -5.3810 N   0  0  0  0  0  0  0  0  0  0  0  0
   -1.2240   10.1280   -5.9170 C   0  0  1  0  0  0  0  0  0  0  0  0
    0.5370   11.1800   -7.4750 C   0  0  0  0  0  0  0  0  0  0  0  0
   -6.1800   14.6090   -0.1570 C   0  0  2  0  0  0  0  0  0  0  0  0
   -4.0570   14.9540    1.4020 C   0  0  0  0  0  0  0  0  0  0  0  0
   -1.5410    9.3760   -7.1990 C   0  0  0  0  0  0  0  0  0  0  0  0
    0.7770    9.8170   -8.1320 C   0  0  0  0  0  0  0  0  0  0  0  0
   -7.5460   15.0160   -0.1010 O   0  0  0  0  0  0  0  0  0  0  0  0
   -5.5720   14.6260    1.2460 C   0  0  0  0  0  0  0  0  0  0  0  0
   -0.3140    8.7840   -7.8770 C   0  0  0  0  0  0  0  0  0  0  0  0
  2  1  1  1
  2  3  1  0
  2  4  1  0
  4  5  1  0
  3  6  1  0
  3  7  1  0
  5  8  1  0
  6  9  1  0
  7 10  1  0
  8 11  1  6
  8 12  1  0
 10 13  1  0
 10 14  1  0
 12 15  1  6
 12 16  1  0
 13 17  1  0
 14 18  1  0
 17 18  1  0
 14 19  1  6
 15 20  1  0
 16 21  1  0
 18 22  1  6
 19 23  1  0
 20 24  1  1
 20 25  1  0
 21 25  1  0
 22 26  1  0
 23 26  1  0
M  CHG  2   1  -1   9  -1
M  END
