ucsf523-ucsf278
     RDKit          3D

 24 27  0  0  0  0  0  0  0  0999 V2000
    0.2400   14.1000    1.8420 N   0  0  0  0  0  0  0  0  0  0  0  0
   -0.6740   14.7460    1.0070 C   0  0  2  0  0  0  0  0  0  0  0  0
   -1.9190   14.3650    1.5240 N   0  0  0  0  0  0  0  0  0  0  0  0
   -0.4740   14.3390   -0.3210 N   0  0  0  0  0  0  0  0  0  0  0  0
   -1.5870   14.5760   -1.2200 C   0  0  1  0  0  0  0  0  0  0  0  0
   -2.9910   14.9050    0.7840 C   0  0  1  0  0  0  0  0  0  0  0  0
   -1.3740   13.8100   -2.3500 O   0  0  0  0  0  0  0  0  0  0  0  0
   -3.0080   14.3670   -0.6470 C   0  0  1  0  0  0  0  0  0  0  0  0
   -4.1500   14.4500    1.4530 N   0  0  0  0  0  0  0  0  0  0  0  0
   -5.2060   15.1800    0.8460 C   0  0  2  0  0  0  0  0  0  0  0  0
   -4.1090   14.9480   -1.4810 N   0  0  0  0  0  0  0  0  0  0  0  0
    0.0160   13.5630   -2.4770 C   0  0  1  0  0  0  0  0  0  0  0  0
   -6.3560   14.8200    1.5780 O   0  0  0  0  0  0  0  0  0  0  0  0
   -5.3750   15.0320   -0.6990 C   0  0  0  0  0  0  0  0  0  0  0  0
    0.1930   12.7520   -3.7290 C   0  0  1  0  0  0  0  0  0  0  0  0
    0.7420   14.9330   -2.5190 C   0  0  0  0  0  0  0  0  0  0  0  0
   -1.0630   12.0280   -4.1860 C   0  0  0  0  0  0  0  0  0  0  0  0
    0.4490   13.6290   -4.9170 C   0  0  2  0  0  0  0  0  0  0  0  0
    2.0060   14.8710   -3.3570 C   0  0  0  0  0  0  0  0  0  0  0  0
   -0.9470   12.0540   -5.7080 C   0  0  1  0  0  0  0  0  0  0  0  0
    0.3640   12.6790   -6.0140 N   0  0  0  0  0  0  0  0  0  0  0  0
    1.7430   14.3850   -4.7690 C   0  0  0  0  0  0  0  0  0  0  0  0
   -1.0960   10.6690   -6.3250 C   0  0  0  0  0  0  0  0  0  0  0  0
   -2.1680   10.0030   -5.6560 O   0  0  0  0  0  0  0  0  0  0  0  0
  2  1  1  1
  2  3  1  0
  2  4  1  0
  4  5  1  0
  6  3  1  1
  5  7  1  6
  5  8  1  0
  6  8  1  0
  6  9  1  0
  9 10  1  0
  8 11  1  6
 12  7  1  6
 10 13  1  1
 10 14  1  0
 11 14  1  0
 12 15  1  0
 12 16  1  0
 15 17  1  6
 15 18  1  0
 16 19  1  0
 17 20  1  0
 18 21  1  0
 20 21  1  0
 18 22  1  1
 19 22  1  0
 20 23  1  1
 23 24  1  0
M  END
