ucsf110-ucsf109
     RDKit          3D

 23 27  0  0  0  0  0  0  0  0999 V2000
    0.0380   14.3020   -3.2620 C   0  0  0  0  0  0  0  0  0  0  0  0
   -0.5230   15.1270   -2.2110 N   0  0  0  0  0  0  0  0  0  0  0  0
   -1.7890   15.7560   -2.5930 C   0  0  0  0  0  0  0  0  0  0  0  0
   -0.7450   14.4310   -0.9340 C   0  0  2  0  0  0  0  0  0  0  0  0
   -2.4890   15.9350   -1.2520 C   0  0  0  0  0  0  0  0  0  0  0  0
   -2.2620   14.5850   -0.6670 C   0  0  2  0  0  0  0  0  0  0  0  0
    0.0550   15.0240    0.0970 N   0  0  0  0  0  0  0  0  0  0  0  0
   -2.6540   14.3060    0.7910 C   0  0  2  0  0  0  0  0  0  0  0  0
   -0.3610   14.4120    1.3250 C   0  0  0  0  0  0  0  0  0  0  0  0
   -3.9130   14.8720    1.2370 N   0  0  0  0  0  0  0  0  0  0  0  0
   -1.6590   14.9330    1.6270 N   0  0  0  0  0  0  0  0  0  0  0  0
   -5.0650   14.3750    0.5070 C   0  0  1  0  0  0  0  0  0  0  0  0
   -6.3240   14.9330    1.0020 N   0  0  0  0  0  0  0  0  0  0  0  0
   -4.8800   14.9160   -0.9180 C   0  0  2  0  0  0  0  0  0  0  0  0
   -7.5150   14.6940    0.2200 C   0  0  1  0  0  0  0  0  0  0  0  0
   -6.2030   14.9490   -1.6870 C   0  0  2  0  0  0  0  0  0  0  0  0
   -3.9780   14.0740   -1.8120 C   0  0  0  0  0  0  0  0  0  0  0  0
   -6.7360   14.6970    2.3880 N   0  0  0  0  0  0  0  0  0  0  0  0
   -7.2430   14.1550   -1.0730 N   0  0  0  0  0  0  0  0  0  0  0  0
   -5.8710   14.4810   -3.1140 C   0  0  0  0  0  0  0  0  0  0  0  0
   -4.3580   14.5700   -3.1830 C   0  0  0  0  0  0  0  0  0  0  0  0
   -8.2410   13.6750    0.9370 N   0  0  0  0  0  0  0  0  0  0  0  0
   -7.6460   13.5690    2.2650 C   0  0  0  0  0  0  0  0  0  0  0  0
  1  2  1  0
  2  3  1  0
  2  4  1  0
  3  5  1  0
  4  6  1  0
  6  5  1  1
  4  7  1  1
  6  8  1  0
  7  9  1  0
  8 10  1  1
  8 11  1  0
  9 11  1  0
 12 10  1  1
 12 13  1  0
 12 14  1  0
 13 15  1  0
 14 16  1  0
 14 17  1  6
 13 18  1  0
 15 19  1  6
 16 19  1  0
 16 20  1  6
 17 21  1  0
 20 21  1  0
 15 22  1  0
 18 23  1  0
 22 23  1  0
M  END
