ucsf124-ucsf396
     RDKit          3D

 27 29  0  0  0  0  0  0  0  0999 V2000
    0.7230   11.0500   -2.4030 O   0  0  0  0  0  0  0  0  0  0  0  0
    0.3890   12.2580   -2.8260 C   0  0  1  0  0  0  0  0  0  0  0  0
    1.1190   13.2190   -2.0430 O   0  0  0  0  0  0  0  0  0  0  0  0
    0.7360   12.4260   -4.3650 C   0  0  0  0  0  0  0  0  0  0  0  0
    0.3660   14.4160   -1.7990 C   0  0  0  0  0  0  0  0  0  0  0  0
    0.1610   11.4500   -5.3200 N   0  0  0  0  0  0  0  0  0  0  0  0
   -0.2710   14.3710   -0.4080 C   0  0  0  0  0  0  0  0  0  0  0  0
   -1.2820   11.3930   -5.3240 C   0  0  2  0  0  0  0  0  0  0  0  0
    0.4640   11.7530   -6.6880 C   0  0  1  0  0  0  0  0  0  0  0  0
   -1.7590   10.8140   -4.1380 O   0  0  0  0  0  0  0  0  0  0  0  0
    1.8220   11.6700   -6.9950 O   0  0  0  0  0  0  0  0  0  0  0  0
   -1.6960   13.7900   -0.3850 C   0  0  0  0  0  0  0  0  0  0  0  0
   -1.6040   10.5450   -6.5740 C   0  0  1  0  0  0  0  0  0  0  0  0
   -0.4120   10.7740   -7.5050 C   0  0  2  0  0  0  0  0  0  0  0  0
   -2.7450   14.7610   -0.7490 N   0  0  0  0  0  0  0  0  0  0  0  0
   -1.9720    9.0720   -6.4120 C   0  0  0  0  0  0  0  0  0  0  0  0
    0.2240    9.4460   -7.9420 C   0  0  0  0  0  0  0  0  0  0  0  0
   -3.4600   15.2580    0.4140 C   0  0  2  0  0  0  0  0  0  0  0  0
   -2.0220    8.2890   -7.7230 C   0  0  0  0  0  0  0  0  0  0  0  0
   -0.8070    8.5450   -8.6200 C   0  0  0  0  0  0  0  0  0  0  0  0
   -2.9840   14.5330    1.5350 O   0  0  0  0  0  0  0  0  0  0  0  0
   -4.9970   15.1740    0.3490 C   0  0  1  0  0  0  0  0  0  0  0  0
   -5.5830   14.5990   -0.9370 C   0  0  0  0  0  0  0  0  0  0  0  0
   -5.6190   14.5400    1.6120 C   0  0  0  0  0  0  0  0  0  0  0  0
   -7.0350   14.8340   -0.9450 N   0  0  0  0  0  0  0  0  0  0  0  0
   -7.1440   14.4040    1.5800 C   0  0  0  0  0  0  0  0  0  0  0  0
   -7.7320   14.2020    0.1790 C   0  0  0  0  0  0  0  0  0  0  0  0
  2  1  1  1
  2  3  1  0
  2  4  1  0
  3  5  1  0
  4  6  1  0
  5  7  1  0
  6  8  1  0
  6  9  1  0
  8 10  1  1
  9 11  1  1
  7 12  1  0
  8 13  1  0
  9 14  1  0
 13 14  1  0
 12 15  1  0
 13 16  1  1
 14 17  1  1
 15 18  1  0
 16 19  1  0
 17 20  1  0
 19 20  1  0
 18 21  1  1
 18 22  1  0
 22 23  1  6
 22 24  1  0
 23 25  1  0
 24 26  1  0
 25 27  1  0
 26 27  1  0
M  CHG  1   1  -1
M  END
