ucsf340-ucsf135
     RDKit          3D

 26 29  0  0  0  0  0  0  0  0999 V2000
    0.5910   18.5790   -6.1480 C   0  0  0  0  0  0  0  0  0  0  0  0
    0.0990   17.2700   -5.7620 N   0  0  0  0  0  0  0  0  0  0  0  0
    0.9770   16.6010   -4.8190 C   0  0  0  0  0  0  0  0  0  0  0  0
   -1.2190   17.2530   -5.1480 C   0  0  2  0  0  0  0  0  0  0  0  0
    0.1700   15.4100   -4.3370 C   0  0  2  0  0  0  0  0  0  0  0  0
   -1.2680   15.8690   -4.4560 C   0  0  2  0  0  0  0  0  0  0  0  0
   -2.3230   17.5460   -6.1570 C   0  0  0  0  0  0  0  0  0  0  0  0
    0.4340   14.9460   -2.9180 C   0  0  0  0  0  0  0  0  0  0  0  0
   -2.1890   14.8210   -5.0270 C   0  0  0  0  0  0  0  0  0  0  0  0
   -3.4140   16.4600   -6.3340 C   0  0  0  0  0  0  0  0  0  0  0  0
    1.3720   13.7580   -2.8290 C   0  0  0  0  0  0  0  0  0  0  0  0
   -3.5320   15.4420   -5.2380 C   0  0  0  0  0  0  0  0  0  0  0  0
    0.6960   12.4060   -2.8650 C   0  0  2  0  0  0  0  0  0  0  0  0
    0.9870   11.8050   -1.6140 O   0  0  0  0  0  0  0  0  0  0  0  0
    1.1920   11.7120   -4.0140 O   0  0  0  0  0  0  0  0  0  0  0  0
    0.2790   12.0210   -5.1060 N   0  0  0  0  0  0  0  0  0  0  0  0
    0.6990   11.4880   -6.4320 C   0  0  2  0  0  0  0  0  0  0  0  0
   -1.1520   11.2810   -4.6790 S   0  0  1  0  0  0  0  0  0  0  0  0
    0.5560   12.4430   -7.4270 O   0  0  0  0  0  0  0  0  0  0  0  0
   -2.3710   12.0650   -5.3590 O   0  0  0  0  0  0  0  0  0  0  0  0
   -0.9720    9.7730   -5.5810 C   0  0  2  0  0  0  0  0  0  0  0  0
   -0.0940   10.1800   -6.8000 C   0  0  1  0  0  0  0  0  0  0  0  0
   -2.3000    9.1020   -5.9120 C   0  0  0  0  0  0  0  0  0  0  0  0
   -0.9330   10.2390   -8.0690 C   0  0  0  0  0  0  0  0  0  0  0  0
   -2.1520    8.1720   -7.1030 C   0  0  0  0  0  0  0  0  0  0  0  0
   -1.6070    8.8830   -8.3460 C   0  0  0  0  0  0  0  0  0  0  0  0
  1  2  1  0
  2  3  1  0
  2  4  1  0
  3  5  1  0
  4  6  1  0
  5  6  1  0
  4  7  1  6
  5  8  1  1
  6  9  1  6
  7 10  1  0
  8 11  1  0
  9 12  1  0
 10 12  1  0
 11 13  1  0
 13 14  1  1
 13 15  1  0
 15 16  1  0
 16 17  1  0
 16 18  1  0
 17 19  1  6
 18 20  1  6
 18 21  1  0
 17 22  1  0
 21 22  1  0
 21 23  1  6
 22 24  1  6
 23 25  1  0
 24 26  1  0
 25 26  1  0
M  END
