ucsf493-ucsf173
     RDKit          3D

 15 16  0  0  0  0  0  0  0  0999 V2000
   -4.3450   15.1160   -5.7720 C   0  0  0  0  0  0  0  0  0  0  0  0
   -3.5550   16.2920   -5.8750 O   0  0  0  0  0  0  0  0  0  0  0  0
   -2.4210   16.3220   -5.0020 C   0  0  1  0  0  0  0  0  0  0  0  0
   -1.7610   14.9260   -4.9100 C   0  0  0  0  0  0  0  0  0  0  0  0
   -1.5670   17.5010   -5.5310 C   0  0  0  0  0  0  0  0  0  0  0  0
   -0.2300   14.9070   -4.9650 C   0  0  1  0  0  0  0  0  0  0  0  0
   -0.0540   17.4260   -5.3620 C   0  0  0  0  0  0  0  0  0  0  0  0
    0.4140   16.2170   -4.5840 C   0  0  2  0  0  0  0  0  0  0  0  0
    0.5120   14.0270   -3.9340 C   0  0  1  0  0  0  0  0  0  0  0  0
    0.3290   12.4900   -4.0250 C   0  0  0  0  0  0  0  0  0  0  0  0
    1.8110   15.8720   -4.7510 N   0  0  0  0  0  0  0  0  0  0  0  0
    1.9490   14.5110   -4.1500 C   0  0  0  0  0  0  0  0  0  0  0  0
   -0.0930   11.7880   -2.6860 C   0  0  1  0  0  0  0  0  0  0  0  0
    0.4870   10.4920   -2.6210 O   0  0  0  0  0  0  0  0  0  0  0  0
    0.4470   12.3210   -1.6030 O   0  0  0  0  0  0  0  0  0  0  0  0
  1  2  1  0
  3  2  1  6
  3  4  1  0
  3  5  1  0
  6  4  1  1
  5  7  1  0
  6  8  1  0
  8  7  1  6
  6  9  1  0
  9 10  1  6
  8 11  1  0
  9 12  1  0
 11 12  1  0
 10 13  1  0
 13 14  1  6
 13 15  1  0
M  CHG  1  15  -1
M  END
