ucsf392-ucsf520
     RDKit          3D

 19 21  0  0  0  0  0  0  0  0999 V2000
   -5.2280   15.5310   -1.6390 C   0  0  0  0  0  0  0  0  0  0  0  0
   -3.7450   15.5030   -1.2620 C   0  0  2  0  0  0  0  0  0  0  0  0
   -2.8920   14.5740   -2.2420 C   0  0  1  0  0  0  0  0  0  0  0  0
   -3.6470   15.0040    0.1810 C   0  0  2  0  0  0  0  0  0  0  0  0
   -4.3150   15.7250    1.2880 N   0  0  0  0  0  0  0  0  0  0  0  0
   -2.4040   15.1730   -3.5900 C   0  0  0  0  0  0  0  0  0  0  0  0
   -2.1900   14.7490    0.4380 C   0  0  2  0  0  0  0  0  0  0  0  0
   -1.7700   13.7640   -1.7350 N   0  0  0  0  0  0  0  0  0  0  0  0
   -1.1530   15.8410    0.1630 C   0  0  0  0  0  0  0  0  0  0  0  0
   -1.1420   16.0480   -3.6100 C   0  0  2  0  0  0  0  0  0  0  0  0
   -1.7790   13.5790   -0.3400 C   0  0  1  0  0  0  0  0  0  0  0  0
   -2.0080   14.2210    1.7740 C   0  0  0  0  0  0  0  0  0  0  0  0
    0.2690   15.3100    0.0030 C   0  0  0  0  0  0  0  0  0  0  0  0
   -1.5510   17.3380   -4.1590 O   0  0  0  0  0  0  0  0  0  0  0  0
    0.0040   15.5570   -4.5080 C   0  0  0  0  0  0  0  0  0  0  0  0
   -0.4630   13.3800    0.2110 N   0  0  0  0  0  0  0  0  0  0  0  0
   -0.5500   13.7970    1.6390 C   0  0  0  0  0  0  0  0  0  0  0  0
    0.5910   16.8420   -5.0290 C   0  0  0  0  0  0  0  0  0  0  0  0
   -0.6410   17.6930   -5.2090 C   0  0  0  0  0  0  0  0  0  0  0  0
  2  1  1  6
  2  3  1  0
  2  4  1  0
  4  5  1  1
  3  6  1  6
  4  7  1  0
  3  8  1  0
  7  9  1  1
 10  6  1  6
  7 11  1  0
 11  8  1  6
  7 12  1  0
  9 13  1  0
 10 14  1  0
 10 15  1  0
 11 16  1  0
 12 17  1  0
 16 17  1  0
 15 18  1  0
 14 19  1  0
 18 19  1  0
M  END
