ucsf404-ucsf190
     RDKit          3D

 27 30  0  0  0  0  0  0  0  0999 V2000
   -7.5170   14.7420   -2.3190 Cl  0  0  0  0  0  0  0  0  0  0  0  0
   -5.8090   15.0180   -1.8750 C   0  0  1  0  0  0  0  0  0  0  0  0
   -5.5740   15.2900   -0.4090 C   0  0  1  0  0  0  0  0  0  0  0  0
   -4.9360   13.8700   -2.2910 C   0  0  0  0  0  0  0  0  0  0  0  0
   -6.6000   14.8430    0.5330 N   0  0  0  0  0  0  0  0  0  0  0  0
   -4.2750   14.6490    0.0640 C   0  0  2  0  0  0  0  0  0  0  0  0
   -3.5210   14.3380   -2.2340 C   0  0  1  0  0  0  0  0  0  0  0  0
   -3.2870   15.1660   -3.4660 C   0  0  0  0  0  0  0  0  0  0  0  0
   -5.8860   14.5440    1.7210 C   0  0  1  0  0  0  0  0  0  0  0  0
   -4.2850   15.3890    1.6720 S   0  0  0  0  0  0  0  0  0  0  0  0
   -3.1840   14.9980   -0.8990 C   0  0  0  0  0  0  0  0  0  0  0  0
   -6.6780   14.9210    2.8410 N   0  0  0  0  0  0  0  0  0  0  0  0
   -2.1560   14.8240   -4.3630 C   0  0  2  0  0  0  0  0  0  0  0  0
   -1.5400   15.9620   -5.0540 C   0  0  0  0  0  0  0  0  0  0  0  0
   -2.3210   13.6490   -5.2940 C   0  0  0  0  0  0  0  0  0  0  0  0
   -0.0690   15.6020   -5.1940 C   0  0  2  0  0  0  0  0  0  0  0  0
   -0.9460   13.0190   -5.4040 C   0  0  0  0  0  0  0  0  0  0  0  0
    0.2360   14.0340   -5.3700 C   0  0  2  0  0  0  0  0  0  0  0  0
    0.7340   16.3350   -4.1250 C   0  0  2  0  0  0  0  0  0  0  0  0
    0.7800   17.7250   -4.4170 O   0  0  0  0  0  0  0  0  0  0  0  0
    1.4810   13.5170   -4.5560 C   0  0  2  0  0  0  0  0  0  0  0  0
    2.0560   15.8040   -4.0550 N   0  0  0  0  0  0  0  0  0  0  0  0
    1.4470   12.0730   -3.9520 C   0  0  0  0  0  0  0  0  0  0  0  0
    2.0340   14.4630   -3.5660 N   0  0  0  0  0  0  0  0  0  0  0  0
    0.4590   11.7280   -2.7780 C   0  0  1  0  0  0  0  0  0  0  0  0
    0.6020   10.4470   -2.4500 O   0  0  0  0  0  0  0  0  0  0  0  0
    0.8490   12.3570   -1.5750 O   0  0  0  0  0  0  0  0  0  0  0  0
  2  1  1  1
  2  3  1  0
  2  4  1  0
  3  5  1  1
  3  6  1  0
  4  7  1  0
  7  8  1  6
  5  9  1  0
  6 10  1  0
  9 10  1  0
  6 11  1  6
  7 11  1  0
  9 12  1  1
 13  8  1  6
 13 14  1  0
 13 15  1  0
 16 14  1  1
 15 17  1  0
 16 18  1  0
 18 17  1  1
 16 19  1  0
 19 20  1  6
 18 21  1  0
 19 22  1  0
 21 23  1  1
 21 24  1  0
 22 24  1  0
 23 25  1  0
 25 26  1  1
 25 27  1  0
M  CHG  1  26  -1
M  END
