ucsf345-ucsf004
     RDKit          3D

 21 23  0  0  0  0  0  0  0  0999 V2000
   -6.1120   14.6650    1.6750 N   0  0  0  0  0  0  0  0  0  0  0  0
   -6.1540   14.8690    0.2430 C   0  0  2  0  0  0  0  0  0  0  0  0
   -7.5250   14.7250   -0.0850 O   0  0  0  0  0  0  0  0  0  0  0  0
   -5.3220   13.8780   -0.6140 C   0  0  1  0  0  0  0  0  0  0  0  0
   -5.5100   14.2760   -2.0250 N   0  0  0  0  0  0  0  0  0  0  0  0
   -3.8240   13.6940   -0.2100 C   0  0  0  0  0  0  0  0  0  0  0  0
   -4.3580   14.8350   -2.6870 C   0  0  0  0  0  0  0  0  0  0  0  0
   -2.7760   14.7620   -0.7220 C   0  0  1  0  0  0  0  0  0  0  0  0
   -3.4700   15.6480   -1.7680 C   0  0  0  0  0  0  0  0  0  0  0  0
   -2.3440   15.5770    0.5220 C   0  0  0  0  0  0  0  0  0  0  0  0
   -1.3860   14.1400   -1.1800 C   0  0  1  0  0  0  0  0  0  0  0  0
   -0.9890   14.2030   -2.6080 N   0  0  0  0  0  0  0  0  0  0  0  0
   -0.2250   14.5450   -0.3850 N   0  0  0  0  0  0  0  0  0  0  0  0
   -1.6140   14.7940    1.5130 N   0  0  0  0  0  0  0  0  0  0  0  0
   -2.0740   14.1170   -3.5890 C   0  0  0  0  0  0  0  0  0  0  0  0
    0.1250   15.0650   -3.0470 C   0  0  0  0  0  0  0  0  0  0  0  0
   -0.3160   14.4120    1.0500 C   0  0  0  0  0  0  0  0  0  0  0  0
   -1.6020   13.5280   -4.9210 C   0  0  2  0  0  0  0  0  0  0  0  0
    0.4110   14.9940   -4.5620 C   0  0  0  0  0  0  0  0  0  0  0  0
   -1.9090   12.1950   -4.9000 F   0  0  0  0  0  0  0  0  0  0  0  0
   -0.0990   13.6770   -5.1430 C   0  0  0  0  0  0  0  0  0  0  0  0
  2  1  1  1
  2  3  1  0
  2  4  1  0
  4  5  1  0
  4  6  1  1
  5  7  1  0
  8  6  1  1
  7  9  1  0
  8  9  1  0
  8 10  1  0
  8 11  1  0
 11 12  1  6
 11 13  1  0
 10 14  1  0
 12 15  1  0
 12 16  1  0
 13 17  1  0
 14 17  1  0
 15 18  1  0
 16 19  1  0
 18 20  1  1
 18 21  1  0
 19 21  1  0
M  END
