ucsf109-ucsf247
     RDKit          3D

 21 23  0  0  0  0  0  0  0  0999 V2000
   -3.7660   15.3910    1.6870 N   0  0  0  0  0  0  0  0  0  0  0  0
   -4.5420   14.5920    0.7420 C   0  0  2  0  0  0  0  0  0  0  0  0
   -4.1970   14.6580   -0.8040 C   0  0  2  0  0  0  0  0  0  0  0  0
   -5.9860   14.8000    1.0520 N   0  0  0  0  0  0  0  0  0  0  0  0
   -2.9120   15.4930   -1.2460 C   0  0  1  0  0  0  0  0  0  0  0  0
   -6.8500   14.0220    0.2190 C   0  0  2  0  0  0  0  0  0  0  0  0
   -5.4840   14.9630   -1.5970 C   0  0  2  0  0  0  0  0  0  0  0  0
   -3.9070   13.2960   -1.4230 C   0  0  0  0  0  0  0  0  0  0  0  0
   -6.5120   14.4660    2.3880 N   0  0  0  0  0  0  0  0  0  0  0  0
   -1.6880   14.7020   -1.3910 N   0  0  0  0  0  0  0  0  0  0  0  0
   -3.1650   16.0380   -2.5370 O   0  0  0  0  0  0  0  0  0  0  0  0
   -6.8010   14.4160   -1.1800 N   0  0  0  0  0  0  0  0  0  0  0  0
   -5.0310   14.7420   -3.0390 C   0  0  0  0  0  0  0  0  0  0  0  0
   -3.9790   13.6280   -2.9190 C   0  0  0  0  0  0  0  0  0  0  0  0
   -8.1770   14.3600    0.7470 N   0  0  0  0  0  0  0  0  0  0  0  0
   -7.9560   14.5330    2.1790 C   0  0  0  0  0  0  0  0  0  0  0  0
   -0.9070   14.8990   -2.6470 C   0  0  0  0  0  0  0  0  0  0  0  0
   -7.7590   15.5040   -1.1980 O   0  0  0  0  0  0  0  0  0  0  0  0
    0.2050   13.8120   -2.8870 C   0  0  2  0  0  0  0  0  0  0  0  0
    0.5780   13.2350   -1.7620 O   0  0  0  0  0  0  0  0  0  0  0  0
    1.4070   14.4370   -3.3150 O   0  0  0  0  0  0  0  0  0  0  0  0
  2  1  1  1
  2  3  1  0
  2  4  1  0
  3  5  1  0
  4  6  1  0
  3  7  1  0
  3  8  1  6
  4  9  1  0
  5 10  1  0
  5 11  1  6
  6 12  1  0
  7 12  1  0
  7 13  1  6
  8 14  1  0
 13 14  1  0
  6 15  1  1
  9 16  1  0
 15 16  1  0
 10 17  1  0
 12 18  1  0
 17 19  1  0
 19 20  1  1
 19 21  1  0
M  CHG  1  20  -1
M  END
