ucsf387-ucsf442
     RDKit          3D

 24 26  0  0  0  0  0  0  0  0999 V2000
    0.9370   18.1140   -4.1890 Cl  0  0  0  0  0  0  0  0  0  0  0  0
    0.3810   16.7690   -5.2110 C   0  0  2  0  0  0  0  0  0  0  0  0
   -1.1570   16.7840   -5.1510 C   0  0  0  0  0  0  0  0  0  0  0  0
    1.1270   15.4550   -4.8550 C   0  0  0  0  0  0  0  0  0  0  0  0
    0.3570   14.4320   -4.0160 C   0  0  2  0  0  0  0  0  0  0  0  0
   -1.8080   15.5780   -4.4600 C   0  0  1  0  0  0  0  0  0  0  0  0
   -3.3010   15.3640   -4.7610 C   0  0  0  0  0  0  0  0  0  0  0  0
    1.0180   13.0510   -3.7400 C   0  0  0  0  0  0  0  0  0  0  0  0
   -1.0190   14.2870   -4.6370 C   0  0  0  0  0  0  0  0  0  0  0  0
    0.2360   12.2130   -2.6870 C   0  0  1  0  0  0  0  0  0  0  0  0
   -4.1130   15.0270   -3.5000 C   0  0  0  0  0  0  0  0  0  0  0  0
    0.5580   10.9450   -2.6970 O   0  0  0  0  0  0  0  0  0  0  0  0
    0.6860   12.5890   -1.3990 O   0  0  0  0  0  0  0  0  0  0  0  0
   -3.2640   14.4600   -2.5070 O   0  0  0  0  0  0  0  0  0  0  0  0
   -2.8880   15.3400   -1.4440 C   0  0  1  0  0  0  0  0  0  0  0  0
   -3.9700   15.4420   -0.3520 C   0  0  2  0  0  0  0  0  0  0  0  0
   -1.6570   14.7930   -0.8680 N   0  0  0  0  0  0  0  0  0  0  0  0
   -1.3200   15.3220    0.4300 C   0  0  2  0  0  0  0  0  0  0  0  0
   -3.5370   14.5410    0.7590 C   0  0  1  0  0  0  0  0  0  0  0  0
   -5.3690   15.0360   -0.5740 N   0  0  0  0  0  0  0  0  0  0  0  0
   -0.1820   14.6370    0.8370 O   0  0  0  0  0  0  0  0  0  0  0  0
   -2.3400   15.0090    1.3840 N   0  0  0  0  0  0  0  0  0  0  0  0
   -4.6650   14.7230    1.6410 N   0  0  0  0  0  0  0  0  0  0  0  0
   -5.8000   14.5420    0.7300 C   0  0  0  0  0  0  0  0  0  0  0  0
  2  1  1  1
  2  3  1  0
  2  4  1  0
  4  5  1  0
  3  6  1  0
  6  7  1  6
  5  8  1  6
  5  9  1  0
  6  9  1  0
  8 10  1  0
  7 11  1  0
 10 12  1  6
 10 13  1  0
 11 14  1  0
 15 14  1  6
 15 16  1  0
 15 17  1  0
 17 18  1  0
 16 19  1  0
 16 20  1  6
 18 21  1  1
 18 22  1  0
 19 22  1  1
 19 23  1  0
 20 24  1  0
 23 24  1  0
M  CHG  1  12  -1
M  END
