ucsf422-ucsf004
     RDKit          3D

 29 33  0  0  0  0  0  0  0  0999 V2000
    0.6510   11.0700   -2.7800 O   0  0  0  0  0  0  0  0  0  0  0  0
    1.0150   12.3490   -3.1020 C   0  0  1  0  0  0  0  0  0  0  0  0
    2.2760   12.5730   -2.5310 O   0  0  0  0  0  0  0  0  0  0  0  0
    1.1430   12.7180   -4.5660 C   0  0  0  0  0  0  0  0  0  0  0  0
    1.0890   14.2000   -4.8560 C   0  0  2  0  0  0  0  0  0  0  0  0
    1.7490   15.1370   -3.9460 C   0  0  0  0  0  0  0  0  0  0  0  0
   -0.1080   14.8580   -5.2640 C   0  0  2  0  0  0  0  0  0  0  0  0
    1.1360   16.4390   -4.1550 N   0  0  0  0  0  0  0  0  0  0  0  0
    0.3690   16.3190   -5.3740 C   0  0  2  0  0  0  0  0  0  0  0  0
   -1.5690   14.6830   -4.3110 S   0  0  0  0  0  0  0  0  0  0  0  0
   -1.7530   12.5980   -5.0040 F   0  0  0  0  0  0  0  0  0  0  0  0
   -0.7330   17.3200   -5.3080 C   0  0  0  0  0  0  0  0  0  0  0  0
   -2.4740   15.4670   -5.6040 C   0  0  1  0  0  0  0  0  0  0  0  0
   -1.0810   14.9370   -2.6400 C   0  0  0  0  0  0  0  0  0  0  0  0
   -2.8010   14.3020   -3.2460 C   0  0  0  0  0  0  0  0  0  0  0  0
   -4.3460   15.0150   -5.6340 Br  0  0  0  0  0  0  0  0  0  0  0  0
   -2.1620   16.9220   -5.5920 C   0  0  0  0  0  0  0  0  0  0  0  0
   -0.7160   13.8330   -1.9230 N   0  0  0  0  0  0  0  0  0  0  0  0
   -2.5700   12.9390   -2.7580 C   0  0  0  0  0  0  0  0  0  0  0  0
   -1.0930   12.6780   -2.7540 C   0  0  0  0  0  0  0  0  0  0  0  0
   -0.9820   13.5420   -0.6110 C   0  0  1  0  0  0  0  0  0  0  0  0
   -0.0820   13.7800    0.4340 N   0  0  0  0  0  0  0  0  0  0  0  0
   -2.4400   13.8950   -0.0840 C   0  0  1  0  0  0  0  0  0  0  0  0
   -0.1440   15.1940    0.6860 C   0  0  0  0  0  0  0  0  0  0  0  0
   -2.3580   14.5670    1.2370 C   0  0  1  0  0  0  0  0  0  0  0  0
   -3.3280   14.8510   -0.9180 C   0  0  0  0  0  0  0  0  0  0  0  0
   -1.3410   15.5390    1.2700 N   0  0  0  0  0  0  0  0  0  0  0  0
   -3.6150   15.2480    1.4280 N   0  0  0  0  0  0  0  0  0  0  0  0
   -4.2730   15.3820    0.1720 C   0  0  0  0  0  0  0  0  0  0  0  0
  2  1  1  6
  2  3  1  0
  2  4  1  0
  5  4  1  1
  5  6  1  0
  5  7  1  0
  6  8  1  0
  7  9  1  0
  8  9  1  0
  7 10  1  1
 10 11  1  0
  9 12  1  1
 10 13  1  0
 10 14  1  0
 10 15  1  0
 13 16  1  1
 12 17  1  0
 13 17  1  0
 14 18  1  0
 15 19  1  0
 18 20  1  0
 19 20  1  0
 21 18  1  6
 21 22  1  0
 21 23  1  0
 22 24  1  0
 23 25  1  0
 23 26  1  6
 24 27  1  0
 25 27  1  6
 25 28  1  0
 26 29  1  0
 28 29  1  0
M  CHG  1   1  -1
M  END
