ucsf173-ucsf338
     RDKit          3D

 25 27  0  0  0  0  0  0  0  0999 V2000
    0.2850   12.8400   -1.3840 O   0  0  0  0  0  0  0  0  0  0  0  0
    0.6910   12.5160   -2.6030 C   0  0  1  0  0  0  0  0  0  0  0  0
   -0.0780   11.3430   -2.7960 O   0  0  0  0  0  0  0  0  0  0  0  0
    0.3070   13.5590   -3.7240 C   0  0  1  0  0  0  0  0  0  0  0  0
   -1.1850   14.0180   -3.9260 C   0  0  1  0  0  0  0  0  0  0  0  0
    1.1210   14.8920   -3.6520 C   0  0  0  0  0  0  0  0  0  0  0  0
   -1.9560   14.3520   -2.6360 C   0  0  0  0  0  0  0  0  0  0  0  0
   -0.9680   15.2930   -4.7710 C   0  0  2  0  0  0  0  0  0  0  0  0
    0.1290   16.0130   -4.0120 C   0  0  2  0  0  0  0  0  0  0  0  0
   -3.2170   13.5050   -2.4430 C   0  0  0  0  0  0  0  0  0  0  0  0
   -2.1750   16.2240   -5.0020 C   0  0  0  0  0  0  0  0  0  0  0  0
    0.6780   17.1870   -4.8190 C   0  0  0  0  0  0  0  0  0  0  0  0
   -4.3570   14.3730   -2.3400 O   0  0  0  0  0  0  0  0  0  0  0  0
   -1.7480   17.5480   -5.6570 C   0  0  0  0  0  0  0  0  0  0  0  0
   -0.4450   18.1710   -5.1350 C   0  0  0  0  0  0  0  0  0  0  0  0
   -4.2610   15.3350   -1.2870 C   0  0  1  0  0  0  0  0  0  0  0  0
   -5.2830   15.0540   -0.1700 C   0  0  1  0  0  0  0  0  0  0  0  0
   -2.8440   15.3520   -0.6860 C   0  0  0  0  0  0  0  0  0  0  0  0
   -6.6390   14.4550   -0.6070 C   0  0  1  0  0  0  0  0  0  0  0  0
   -2.8220   15.9080    0.7200 C   0  0  0  0  0  0  0  0  0  0  0  0
   -4.6770   14.2560    0.9860 C   0  0  0  0  0  0  0  0  0  0  0  0
   -7.7170   14.5860    0.3690 N   0  0  0  0  0  0  0  0  0  0  0  0
   -7.0660   15.0180   -1.8340 O   0  0  0  0  0  0  0  0  0  0  0  0
   -3.5400   15.0070    1.6800 C   0  0  0  0  0  0  0  0  0  0  0  0
   -8.9270   14.0160   -0.1880 O   0  0  0  0  0  0  0  0  0  0  0  0
  2  1  1  1
  2  3  1  0
  2  4  1  0
  4  5  1  0
  4  6  1  1
  5  7  1  1
  5  8  1  0
  9  6  1  6
  8  9  1  0
  7 10  1  0
  8 11  1  1
  9 12  1  0
 10 13  1  0
 11 14  1  0
 12 15  1  0
 14 15  1  0
 16 13  1  6
 16 17  1  0
 16 18  1  0
 17 19  1  0
 18 20  1  0
 17 21  1  1
 19 22  1  0
 19 23  1  6
 20 24  1  0
 21 24  1  0
 22 25  1  0
M  CHG  1   1  -1
M  END
