ucsf170-ucsf520
     RDKit          3D

 21 23  0  0  0  0  0  0  0  0999 V2000
   -5.2250   14.8930    1.1700 C   0  0  0  0  0  0  0  0  0  0  0  0
   -3.4830   15.3360    1.3010 S   0  0  0  0  0  0  0  0  0  0  0  0
   -2.9990   15.4310   -0.4910 C   0  0  1  0  0  0  0  0  0  0  0  0
   -1.5440   14.9020   -0.8380 C   0  0  1  0  0  0  0  0  0  0  0  0
   -4.1390   14.7760   -1.2920 C   0  0  0  0  0  0  0  0  0  0  0  0
   -1.3190   15.1220   -2.3770 C   0  0  1  0  0  0  0  0  0  0  0  0
   -3.7080   14.2850   -2.6630 C   0  0  0  0  0  0  0  0  0  0  0  0
   -0.5450   15.7100   -0.0490 C   0  0  0  0  0  0  0  0  0  0  0  0
   -1.3080   13.5400   -0.2410 N   0  0  0  0  0  0  0  0  0  0  0  0
   -0.1200   14.6210   -3.2170 C   0  0  1  0  0  0  0  0  0  0  0  0
   -2.5990   15.1330   -3.2560 C   0  0  2  0  0  0  0  0  0  0  0  0
   -0.6560   15.1220    1.2620 N   0  0  0  0  0  0  0  0  0  0  0  0
   -0.3770   13.7940    0.8530 C   0  0  0  0  0  0  0  0  0  0  0  0
   -2.3560   14.6570   -4.5850 O   0  0  0  0  0  0  0  0  0  0  0  0
    1.1060   14.8510   -2.5120 O   0  0  0  0  0  0  0  0  0  0  0  0
   -0.0240   13.3090   -3.2910 O   0  0  0  0  0  0  0  0  0  0  0  0
   -0.1380   15.2780   -4.6070 C   0  0  1  0  0  0  0  0  0  0  0  0
   -1.1890   16.2580   -4.7820 O   0  0  0  0  0  0  0  0  0  0  0  0
    1.1440   15.9480   -5.0330 C   0  0  0  0  0  0  0  0  0  0  0  0
    0.7560   17.3600   -5.4060 C   0  0  0  0  0  0  0  0  0  0  0  0
   -0.5820   17.5430   -4.7570 C   0  0  0  0  0  0  0  0  0  0  0  0
  1  2  1  0
  3  2  1  1
  3  4  1  0
  3  5  1  0
  4  6  1  0
  5  7  1  0
  4  8  1  1
  4  9  1  0
  6 10  1  0
  6 11  1  6
  7 11  1  0
  8 12  1  0
  9 13  1  0
 12 13  1  0
 11 14  1  6
 10 15  1  1
 10 16  1  0
 10 17  1  0
 17 18  1  0
 17 19  1  1
 19 20  1  0
 18 21  1  0
 20 21  1  0
M  CHG  1  16  -1
M  END
