ucsf333-ucsf224
     RDKit          3D

 23 25  0  0  0  0  0  0  0  0999 V2000
   -6.5820   15.0250   -1.5660 Cl  0  0  0  0  0  0  0  0  0  0  0  0
   -4.9140   15.4680   -1.1160 C   0  0  2  0  0  0  0  0  0  0  0  0
   -3.8980   14.9060   -2.1010 C   0  0  0  0  0  0  0  0  0  0  0  0
   -4.6070   15.0250    0.3150 C   0  0  0  0  0  0  0  0  0  0  0  0
   -2.5120   15.4150   -1.6800 C   0  0  2  0  0  0  0  0  0  0  0  0
   -3.2050   15.4390    0.7470 C   0  0  0  0  0  0  0  0  0  0  0  0
   -1.4310   14.9280   -2.4970 N   0  0  0  0  0  0  0  0  0  0  0  0
   -2.1710   15.0240   -0.2640 C   0  0  2  0  0  0  0  0  0  0  0  0
   -0.1660   15.3620   -1.8620 C   0  0  1  0  0  0  0  0  0  0  0  0
   -0.5010   15.6550   -0.0920 S   0  0  0  0  0  0  0  0  0  0  0  0
    0.9230   14.3370   -2.0530 C   0  0  0  0  0  0  0  0  0  0  0  0
    0.3610   13.3210   -3.0330 C   0  0  2  0  0  0  0  0  0  0  0  0
    1.0610   11.9630   -3.0650 C   0  0  2  0  0  0  0  0  0  0  0  0
    0.1490   14.2840   -4.2500 C   0  0  2  0  0  0  0  0  0  0  0  0
    2.3370   12.1280   -3.2630 O   0  0  0  0  0  0  0  0  0  0  0  0
    0.5520   11.1850   -4.1070 O   0  0  0  0  0  0  0  0  0  0  0  0
   -1.0960   14.2280   -5.0910 C   0  0  0  0  0  0  0  0  0  0  0  0
    1.2380   15.1350   -4.8560 C   0  0  0  0  0  0  0  0  0  0  0  0
   -1.6610   15.6460   -5.3200 C   0  0  1  0  0  0  0  0  0  0  0  0
    0.8000   16.6070   -4.8480 C   0  0  0  0  0  0  0  0  0  0  0  0
   -2.9640   15.9220   -4.1410 Cl  0  0  0  0  0  0  0  0  0  0  0  0
   -0.6160   16.8170   -5.4230 C   0  0  2  0  0  0  0  0  0  0  0  0
   -1.2820   18.3890   -4.9030 Cl  0  0  0  0  0  0  0  0  0  0  0  0
  2  1  1  6
  2  3  1  0
  2  4  1  0
  5  3  1  6
  4  6  1  0
  5  7  1  0
  5  8  1  0
  8  6  1  1
  7  9  1  0
  8 10  1  0
  9 10  1  0
  9 11  1  1
 12 11  1  1
 12 13  1  0
 12 14  1  0
 13 15  1  6
 13 16  1  0
 14 17  1  6
 14 18  1  0
 17 19  1  0
 18 20  1  0
 19 21  1  1
 19 22  1  0
 20 22  1  0
 22 23  1  1
M  CHG  1  15  -1
M  END
