ucsf114-ucsf110
     RDKit          3D

 18 19  0  0  0  0  0  0  0  0999 V2000
    0.8210   18.1670   -4.6150 C   0  0  0  0  0  0  0  0  0  0  0  0
   -0.2820   17.6210   -5.5000 C   0  0  0  0  0  0  0  0  0  0  0  0
   -1.5450   18.4710   -5.4060 C   0  0  0  0  0  0  0  0  0  0  0  0
   -0.6250   16.3050   -5.0650 O   0  0  0  0  0  0  0  0  0  0  0  0
    0.4540   15.5740   -4.4600 C   0  0  0  0  0  0  0  0  0  0  0  0
    0.0590   14.2170   -3.8270 C   0  0  0  0  0  0  0  0  0  0  0  0
   -0.2690   14.2260   -2.4000 N   0  0  0  0  0  0  0  0  0  0  0  0
   -1.4240   14.9950   -1.9250 C   0  0  2  0  0  0  0  0  0  0  0  0
    0.7420   13.8950   -1.3900 C   0  0  1  0  0  0  0  0  0  0  0  0
    2.4850   14.1360   -1.8730 S   0  0  0  0  0  0  0  0  0  0  0  0
   -1.9030   14.6190   -0.4720 C   0  0  1  0  0  0  0  0  0  0  0  0
    0.5810   14.6960   -0.1860 N   0  0  0  0  0  0  0  0  0  0  0  0
   -2.7710   15.0820   -2.6310 C   0  0  0  0  0  0  0  0  0  0  0  0
   -2.8930   13.5810   -0.1900 N   0  0  0  0  0  0  0  0  0  0  0  0
   -0.6640   14.3720    0.4640 C   0  0  1  0  0  0  0  0  0  0  0  0
   -2.7980   15.7280   -0.3080 N   0  0  0  0  0  0  0  0  0  0  0  0
   -3.6970   15.4660   -1.4530 C   0  0  0  0  0  0  0  0  0  0  0  0
   -0.8220   15.1020    1.6560 O   0  0  0  0  0  0  0  0  0  0  0  0
  1  2  1  0
  2  3  1  0
  2  4  1  0
  4  5  1  0
  5  6  1  0
  6  7  1  0
  7  8  1  0
  7  9  1  0
  9 10  1  6
  8 11  1  0
  9 12  1  0
  8 13  1  6
 11 14  1  6
 11 15  1  0
 12 15  1  0
 11 16  1  0
 13 17  1  0
 16 17  1  0
 15 18  1  1
M  END
