ucsf039-ucsf243
     RDKit          3D

 20 22  0  0  0  0  0  0  0  0999 V2000
   -4.4970   15.3290    0.6910 N   0  0  0  0  0  0  0  0  0  0  0  0
   -3.3210   15.5120   -0.1590 C   0  0  1  0  0  0  0  0  0  0  0  0
   -2.1530   14.5510    0.1910 C   0  0  1  0  0  0  0  0  0  0  0  0
   -3.8440   15.4250   -1.5110 N   0  0  0  0  0  0  0  0  0  0  0  0
   -2.9470   14.7120   -2.4190 C   0  0  1  0  0  0  0  0  0  0  0  0
   -1.1190   14.5860   -0.9440 C   0  0  1  0  0  0  0  0  0  0  0  0
   -1.3820   14.9370    1.4050 N   0  0  0  0  0  0  0  0  0  0  0  0
   -3.3150   14.9010   -3.7690 O   0  0  0  0  0  0  0  0  0  0  0  0
   -1.6030   15.1200   -2.1680 N   0  0  0  0  0  0  0  0  0  0  0  0
   -0.0940   15.4210   -0.3680 N   0  0  0  0  0  0  0  0  0  0  0  0
   -0.0270   14.8040    0.9150 C   0  0  0  0  0  0  0  0  0  0  0  0
   -0.6540   14.9250   -3.2730 C   0  0  2  0  0  0  0  0  0  0  0  0
    0.6340   14.1010   -2.8540 C   0  0  0  0  0  0  0  0  0  0  0  0
   -0.3440   16.2860   -3.9950 C   0  0  1  0  0  0  0  0  0  0  0  0
    1.0340   14.4740   -1.6470 O   0  0  0  0  0  0  0  0  0  0  0  0
    1.0720   16.4290   -4.5270 C   0  0  0  0  0  0  0  0  0  0  0  0
   -1.2550   16.6600   -5.1150 N   0  0  0  0  0  0  0  0  0  0  0  0
   -0.6640   17.7690   -5.8670 C   0  0  2  0  0  0  0  0  0  0  0  0
    0.9820   18.1070   -5.2010 S   0  0  0  0  0  0  0  0  0  0  0  0
   -1.5350   19.0160   -5.9050 C   0  0  0  0  0  0  0  0  0  0  0  0
  2  1  1  1
  2  3  1  0
  2  4  1  0
  4  5  1  0
  3  6  1  0
  3  7  1  1
  5  8  1  6
  5  9  1  0
  6  9  1  0
  6 10  1  1
  7 11  1  0
 10 11  1  0
  9 12  1  0
 12 13  1  1
 12 14  1  0
 13 15  1  0
 14 16  1  6
 14 17  1  0
 17 18  1  0
 16 19  1  0
 18 19  1  0
 18 20  1  1
M  CHG  1  15  -1
M  END
