ucsf170-ucsf385
     RDKit          3D

 20 22  0  0  0  0  0  0  0  0999 V2000
   -5.4000   15.1200    0.3330 C   0  0  0  0  0  0  0  0  0  0  0  0
   -4.4330   13.6090    0.1650 S   0  0  0  0  0  0  0  0  0  0  0  0
   -3.9570   13.5800   -1.6250 C   0  0  2  0  0  0  0  0  0  0  0  0
   -2.6330   12.8130   -1.8500 C   0  0  0  0  0  0  0  0  0  0  0  0
   -4.0920   14.9130   -2.3660 C   0  0  0  0  0  0  0  0  0  0  0  0
   -1.6140   13.2430   -2.9420 C   0  0  2  0  0  0  0  0  0  0  0  0
   -3.5310   14.8050   -3.7770 C   0  0  0  0  0  0  0  0  0  0  0  0
   -0.2900   13.7410   -2.3930 C   0  0  1  0  0  0  0  0  0  0  0  0
   -2.0350   14.5220   -3.7360 C   0  0  1  0  0  0  0  0  0  0  0  0
   -1.4060   15.6280   -3.0570 O   0  0  0  0  0  0  0  0  0  0  0  0
    0.2560   12.8380   -1.4290 O   0  0  0  0  0  0  0  0  0  0  0  0
    0.6660   13.9540   -3.2600 O   0  0  0  0  0  0  0  0  0  0  0  0
   -1.0770   14.9090   -1.8520 C   0  0  2  0  0  0  0  0  0  0  0  0
   -0.8510   15.6570   -0.5460 C   0  0  1  0  0  0  0  0  0  0  0  0
   -2.1410   15.7080    0.3130 C   0  0  1  0  0  0  0  0  0  0  0  0
    0.2810   14.9730    0.2250 C   0  0  0  0  0  0  0  0  0  0  0  0
   -3.3460   15.9500   -0.4750 N   0  0  0  0  0  0  0  0  0  0  0  0
   -0.2220   13.7400    0.9400 C   0  0  0  0  0  0  0  0  0  0  0  0
   -2.3620   14.4700    1.1940 C   0  0  0  0  0  0  0  0  0  0  0  0
   -1.1870   14.0830    1.9240 N   0  0  0  0  0  0  0  0  0  0  0  0
  1  2  1  0
  3  2  1  1
  3  4  1  0
  3  5  1  0
  6  4  1  1
  5  7  1  0
  6  8  1  0
  6  9  1  0
  9  7  1  1
  9 10  1  0
  8 11  1  1
  8 12  1  0
  8 13  1  0
 13 10  1  6
 13 14  1  0
 14 15  1  0
 14 16  1  1
 15 17  1  6
 16 18  1  0
 15 19  1  0
 18 20  1  0
 19 20  1  0
M  CHG  1  12  -1
M  END
