ucsf147-ucsf170
     RDKit          3D

 19 20  0  0  0  0  0  0  0  0999 V2000
    1.3700   12.9190   -5.2790 C   0  0  0  0  0  0  0  0  0  0  0  0
    0.1790   13.8600   -5.1410 C   0  0  1  0  0  0  0  0  0  0  0  0
   -0.9400   13.3110   -5.8630 O   0  0  0  0  0  0  0  0  0  0  0  0
   -0.3270   14.2730   -3.7650 C   0  0  2  0  0  0  0  0  0  0  0  0
    0.7010   14.1560   -2.6480 C   0  0  0  0  0  0  0  0  0  0  0  0
   -2.1020   13.3190   -4.9720 N   0  0  0  0  0  0  0  0  0  0  0  0
   -1.5180   13.3330   -3.6040 C   0  0  2  0  0  0  0  0  0  0  0  0
    0.6410   13.0380   -1.8120 O   0  0  0  0  0  0  0  0  0  0  0  0
    0.6510   15.2500   -1.7820 O   0  0  0  0  0  0  0  0  0  0  0  0
    1.9810   14.1540   -3.1850 O   0  0  0  0  0  0  0  0  0  0  0  0
   -2.7000   13.7270   -2.6690 C   0  0  1  0  0  0  0  0  0  0  0  0
   -2.1740   14.3480   -1.3440 C   0  0  0  0  0  0  0  0  0  0  0  0
   -3.7320   14.6540   -3.3160 C   0  0  2  0  0  0  0  0  0  0  0  0
   -3.0640   15.6870   -4.0420 O   0  0  0  0  0  0  0  0  0  0  0  0
   -3.2680   14.9830   -0.4740 C   0  0  2  0  0  0  0  0  0  0  0  0
   -4.8440   15.1280   -2.3710 C   0  0  0  0  0  0  0  0  0  0  0  0
   -3.0580   14.6700    1.3160 S   0  0  0  0  0  0  0  0  0  0  0  0
   -4.6620   14.6560   -0.9410 C   0  0  0  0  0  0  0  0  0  0  0  0
   -4.5880   15.5070    1.7370 C   0  0  0  0  0  0  0  0  0  0  0  0
  2  1  1  1
  2  3  1  0
  2  4  1  0
  4  5  1  1
  3  6  1  0
  4  7  1  0
  7  6  1  6
  5  8  1  0
  5  9  1  0
  5 10  1  0
  7 11  1  0
 11 12  1  1
 11 13  1  0
 13 14  1  1
 12 15  1  0
 13 16  1  0
 15 17  1  1
 15 18  1  0
 16 18  1  0
 17 19  1  0
M  CHG  2   9  -1  10  -1
M  END
