ucsf385-ucsf584
     RDKit          3D

 21 23  0  0  0  0  0  0  0  0999 V2000
   -3.3910   13.2550   -0.9500 N   0  0  0  0  0  0  0  0  0  0  0  0
   -2.5230   14.3300   -0.4100 C   0  0  1  0  0  0  0  0  0  0  0  0
   -2.6380   14.3530    1.1450 C   0  0  0  0  0  0  0  0  0  0  0  0
   -1.0420   14.1540   -1.0130 C   0  0  1  0  0  0  0  0  0  0  0  0
   -3.2460   15.6330   -0.8170 C   0  0  2  0  0  0  0  0  0  0  0  0
   -0.7680   14.9170   -2.3340 C   0  0  1  0  0  0  0  0  0  0  0  0
    0.1020   14.4440   -0.0130 C   0  0  0  0  0  0  0  0  0  0  0  0
   -1.5070   14.9700    1.7530 N   0  0  0  0  0  0  0  0  0  0  0  0
   -4.5720   15.6920   -0.0330 C   0  0  0  0  0  0  0  0  0  0  0  0
   -3.5270   15.7550   -2.2550 N   0  0  0  0  0  0  0  0  0  0  0  0
    0.5450   14.6280   -2.7590 O   0  0  0  0  0  0  0  0  0  0  0  0
   -1.4490   14.3940   -3.3290 O   0  0  0  0  0  0  0  0  0  0  0  0
   -0.3150   14.2380    1.4320 C   0  0  0  0  0  0  0  0  0  0  0  0
   -4.3700   14.7100   -2.8040 C   0  0  0  0  0  0  0  0  0  0  0  0
   -5.8730   15.3870   -0.8150 C   0  0  2  0  0  0  0  0  0  0  0  0
   -7.0560   14.9420    0.1010 C   0  0  0  0  0  0  0  0  0  0  0  0
   -5.6250   14.4260   -1.9800 C   0  0  0  0  0  0  0  0  0  0  0  0
   -6.6910   14.8010    1.5170 N   0  0  0  0  0  0  0  0  0  0  0  0
   -7.8000   13.7530   -0.1530 N   0  0  0  0  0  0  0  0  0  0  0  0
   -8.7250   13.7300    0.9810 C   0  0  0  0  0  0  0  0  0  0  0  0
   -7.9320   14.3350    2.1350 C   0  0  0  0  0  0  0  0  0  0  0  0
  2  1  1  6
  2  3  1  0
  2  4  1  0
  2  5  1  0
  4  6  1  0
  4  7  1  1
  3  8  1  0
  5  9  1  1
  5 10  1  0
  6 11  1  6
  6 12  1  0
  7 13  1  0
  8 13  1  0
 10 14  1  0
  9 15  1  0
 15 16  1  1
 14 17  1  0
 15 17  1  0
 16 18  1  0
 16 19  1  0
 19 20  1  0
 18 21  1  0
 20 21  1  0
M  CHG  1  12  -1
M  END
