ucsf006-ucsf364
     RDKit          3D

 23 25  0  0  0  0  0  0  0  0999 V2000
   -2.2840   14.8800   -3.3740 C   0  0  0  0  0  0  0  0  0  0  0  0
   -1.1040   14.6480   -2.5220 N   0  0  0  0  0  0  0  0  0  0  0  0
    0.0270   13.8770   -3.1120 C   0  0  1  0  0  0  0  0  0  0  0  0
   -1.3470   14.5060   -1.1060 C   0  0  2  0  0  0  0  0  0  0  0  0
    0.9990   14.8380   -3.8390 C   0  0  0  0  0  0  0  0  0  0  0  0
    0.7300   13.2550   -2.1580 O   0  0  0  0  0  0  0  0  0  0  0  0
   -2.5140   15.2950   -0.5340 C   0  0  2  0  0  0  0  0  0  0  0  0
   -0.1470   14.8290   -0.3570 N   0  0  0  0  0  0  0  0  0  0  0  0
   -0.3240   12.7880   -4.2280 C   0  0  1  0  0  0  0  0  0  0  0  0
    0.9940   14.6190   -5.3510 C   0  0  0  0  0  0  0  0  0  0  0  0
   -2.5930   14.8290    0.8730 C   0  0  1  0  0  0  0  0  0  0  0  0
   -0.2150   14.6000    1.0620 C   0  0  0  0  0  0  0  0  0  0  0  0
   -3.9310   14.9880   -0.9710 C   0  0  0  0  0  0  0  0  0  0  0  0
    0.8950   12.3870   -5.0730 C   0  0  0  0  0  0  0  0  0  0  0  0
   -1.0640   11.4750   -3.8790 C   0  0  0  0  0  0  0  0  0  0  0  0
   -0.2500   14.0330   -5.7780 O   0  0  0  0  0  0  0  0  0  0  0  0
   -1.4360   15.1430    1.6220 N   0  0  0  0  0  0  0  0  0  0  0  0
   -3.7880   15.4400    1.4150 N   0  0  0  0  0  0  0  0  0  0  0  0
   -4.7330   15.3750    0.2690 C   0  0  0  0  0  0  0  0  0  0  0  0
   -1.5730   10.8250   -5.1720 C   0  0  0  0  0  0  0  0  0  0  0  0
    0.4640   11.8440   -6.4180 C   0  0  1  0  0  0  0  0  0  0  0  0
    1.5920   11.4670   -7.1940 O   0  0  0  0  0  0  0  0  0  0  0  0
   -0.5190   10.6790   -6.2860 C   0  0  0  0  0  0  0  0  0  0  0  0
  1  2  1  0
  2  3  1  0
  4  2  1  6
  3  5  1  0
  3  6  1  1
  4  7  1  0
  4  8  1  0
  3  9  1  0
  5 10  1  0
  7 11  1  0
  8 12  1  0
  7 13  1  6
  9 14  1  1
  9 15  1  0
 10 16  1  0
 11 17  1  1
 12 17  1  0
 11 18  1  0
 13 19  1  0
 18 19  1  0
 15 20  1  0
 14 21  1  0
 21 22  1  1
 20 23  1  0
 21 23  1  0
M  CHG  1   6  -1
M  END
