ucsf004-ucsf123
     RDKit          3D

 23 25  0  0  0  0  0  0  0  0999 V2000
   -1.9850   11.9560   -4.6090 F   0  0  0  0  0  0  0  0  0  0  0  0
   -2.5230   13.2090   -4.5800 C   0  0  2  0  0  0  0  0  0  0  0  0
   -1.7220   14.0960   -5.5190 C   0  0  0  0  0  0  0  0  0  0  0  0
   -2.5380   13.7290   -3.1110 C   0  0  0  0  0  0  0  0  0  0  0  0
   -1.2110   13.9060   -2.4650 N   0  0  0  0  0  0  0  0  0  0  0  0
   -1.1680   15.1590   -4.6180 C   0  0  2  0  0  0  0  0  0  0  0  0
   -1.0910   16.8390   -5.3260 S   0  0  0  0  0  0  0  0  0  0  0  0
   -0.3090   14.3490   -3.5350 C   0  0  0  0  0  0  0  0  0  0  0  0
   -1.2300   14.6140   -1.1720 C   0  0  2  0  0  0  0  0  0  0  0  0
   -1.3110   18.1580   -4.3820 N   0  0  0  0  0  0  0  0  0  0  0  0
    0.2630   17.0260   -6.1510 O   0  0  0  0  0  0  0  0  0  0  0  0
   -2.3210   16.9120   -6.3870 O   0  0  0  0  0  0  0  0  0  0  0  0
    1.2230   13.9710   -3.4610 C   0  0  1  0  0  0  0  0  0  0  0  0
   -0.2440   13.9760   -0.2980 N   0  0  0  0  0  0  0  0  0  0  0  0
   -2.6000   14.4000   -0.4920 C   0  0  1  0  0  0  0  0  0  0  0  0
    1.6810   14.1040   -2.1160 O   0  0  0  0  0  0  0  0  0  0  0  0
    1.3610   12.6550   -3.5810 O   0  0  0  0  0  0  0  0  0  0  0  0
   -0.1670   14.6000    1.0090 C   0  0  0  0  0  0  0  0  0  0  0  0
   -2.5370   14.5780    1.0180 C   0  0  1  0  0  0  0  0  0  0  0  0
   -3.6610   15.3830   -0.9510 C   0  0  0  0  0  0  0  0  0  0  0  0
   -1.3700   15.3050    1.3620 N   0  0  0  0  0  0  0  0  0  0  0  0
   -3.6520   15.4050    1.4370 N   0  0  0  0  0  0  0  0  0  0  0  0
   -4.5280   15.5430    0.2710 C   0  0  0  0  0  0  0  0  0  0  0  0
  2  1  1  1
  2  3  1  0
  2  4  1  0
  4  5  1  0
  3  6  1  0
  6  7  1  6
  5  8  1  0
  6  8  1  0
  9  5  1  6
  7 10  1  0
  7 11  1  0
  7 12  1  0
  8 13  1  0
  9 14  1  0
  9 15  1  0
 13 16  1  1
 13 17  1  0
 14 18  1  0
 15 19  1  0
 15 20  1  6
 18 21  1  0
 19 21  1  6
 19 22  1  0
 20 23  1  0
 22 23  1  0
M  CHG  1  17  -1
M  END
