ucsf337-ucsf213
     RDKit          3D

 24 26  0  0  0  0  0  0  0  0999 V2000
   -7.3370   14.6190    0.6620 C   0  0  0  0  0  0  0  0  0  0  0  0
   -6.1230   14.1430   -0.1510 C   0  0  1  0  0  0  0  0  0  0  0  0
   -6.2990   14.6450   -1.5370 N   0  0  0  0  0  0  0  0  0  0  0  0
   -4.6980   14.3680    0.4810 C   0  0  2  0  0  0  0  0  0  0  0  0
   -4.6010   15.4800    2.0440 Br  0  0  0  0  0  0  0  0  0  0  0  0
   -3.6000   14.9620   -0.3880 C   0  0  0  0  0  0  0  0  0  0  0  0
   -5.0590   14.4700   -2.2480 C   0  0  1  0  0  0  0  0  0  0  0  0
   -5.2810   14.5620   -3.6680 N   0  0  0  0  0  0  0  0  0  0  0  0
   -4.1240   15.5000   -1.6910 C   0  0  0  0  0  0  0  0  0  0  0  0
   -4.0220   14.4360   -4.4220 C   0  0  0  0  0  0  0  0  0  0  0  0
   -3.5620   15.8290   -4.8370 C   0  0  0  0  0  0  0  0  0  0  0  0
   -2.2360   16.1810   -5.4940 C   0  0  2  0  0  0  0  0  0  0  0  0
   -1.0390   15.2980   -5.0950 C   0  0  1  0  0  0  0  0  0  0  0  0
   -2.0090   17.7130   -5.6480 C   0  0  0  0  0  0  0  0  0  0  0  0
    0.3540   15.9720   -5.1250 C   0  0  2  0  0  0  0  0  0  0  0  0
   -1.1590   14.6400   -3.4240 S   0  0  0  0  0  0  0  0  0  0  0  0
   -0.5780   18.1970   -5.8380 C   0  0  0  0  0  0  0  0  0  0  0  0
    0.5780   14.1740   -3.3480 C   0  0  2  0  0  0  0  0  0  0  0  0
    1.3170   15.1380   -4.2770 C   0  0  0  0  0  0  0  0  0  0  0  0
    0.3860   17.4910   -4.9130 C   0  0  0  0  0  0  0  0  0  0  0  0
    0.8250   12.6970   -3.6730 C   0  0  0  0  0  0  0  0  0  0  0  0
    1.1240   11.9230   -2.3830 C   0  0  2  0  0  0  0  0  0  0  0  0
    0.4800   10.7530   -2.3450 O   0  0  0  0  0  0  0  0  0  0  0  0
    0.5520   12.5850   -1.2790 O   0  0  0  0  0  0  0  0  0  0  0  0
  2  1  1  1
  2  3  1  0
  2  4  1  0
  4  5  1  1
  4  6  1  0
  3  7  1  0
  7  8  1  6
  6  9  1  0
  7  9  1  0
  8 10  1  0
 10 11  1  0
 12 11  1  1
 12 13  1  0
 12 14  1  0
 13 15  1  0
 13 16  1  1
 14 17  1  0
 16 18  1  0
 15 19  1  1
 18 19  1  0
 15 20  1  0
 17 20  1  0
 18 21  1  6
 21 22  1  0
 22 23  1  6
 22 24  1  0
M  CHG  1  23  -1
M  END
