ucsf005-ucsf348
     RDKit          3D

 19 21  0  0  0  0  0  0  0  0999 V2000
   -1.7250   15.2270   -3.5400 C   0  0  0  0  0  0  0  0  0  0  0  0
   -2.3750   14.6490   -2.3770 N   0  0  0  0  0  0  0  0  0  0  0  0
   -3.8170   14.4190   -2.5180 C   0  0  0  0  0  0  0  0  0  0  0  0
   -2.0580   15.2610   -1.0940 C   0  0  1  0  0  0  0  0  0  0  0  0
   -4.4500   14.5470   -1.1120 C   0  0  1  0  0  0  0  0  0  0  0  0
   -3.3870   15.3840   -0.3180 C   0  0  1  0  0  0  0  0  0  0  0  0
   -1.1330   14.3870   -0.4020 N   0  0  0  0  0  0  0  0  0  0  0  0
   -3.0970   15.0030    1.1320 C   0  0  2  0  0  0  0  0  0  0  0  0
   -0.6840   14.9880    0.7940 C   0  0  2  0  0  0  0  0  0  0  0  0
   -5.9590   14.8950   -1.2820 C   0  0  2  0  0  0  0  0  0  0  0  0
   -4.5100   13.2630   -0.2840 C   0  0  0  0  0  0  0  0  0  0  0  0
   -3.9930   15.6340    2.0850 N   0  0  0  0  0  0  0  0  0  0  0  0
   -0.1020   13.9190    1.5120 N   0  0  0  0  0  0  0  0  0  0  0  0
   -6.2190   16.1440   -1.8530 O   0  0  0  0  0  0  0  0  0  0  0  0
   -1.7890   15.3810    1.5800 N   0  0  0  0  0  0  0  0  0  0  0  0
   -6.7730   14.7430   -0.0900 N   0  0  0  0  0  0  0  0  0  0  0  0
   -5.1150   13.5580    1.0320 N   0  0  0  0  0  0  0  0  0  0  0  0
   -5.9660   14.7050    1.0600 C   0  0  2  0  0  0  0  0  0  0  0  0
   -6.8360   14.4650    2.1610 N   0  0  0  0  0  0  0  0  0  0  0  0
  1  2  1  0
  2  3  1  0
  2  4  1  0
  5  3  1  6
  4  6  1  0
  5  6  1  0
  4  7  1  1
  6  8  1  1
  7  9  1  0
  5 10  1  0
  5 11  1  0
  8 12  1  1
  9 13  1  1
 10 14  1  1
  8 15  1  0
  9 15  1  0
 10 16  1  0
 11 17  1  0
 16 18  1  0
 17 18  1  0
 18 19  1  1
M  END
