ucsf336-ucsf190
     RDKit          3D

 23 25  0  0  0  0  0  0  0  0999 V2000
    2.5570   12.2880   -3.7300 O   0  0  0  0  0  0  0  0  0  0  0  0
    1.3300   12.7030   -3.5720 C   0  0  2  0  0  0  0  0  0  0  0  0
    1.3200   13.0450   -2.1890 O   0  0  0  0  0  0  0  0  0  0  0  0
    0.2030   11.6140   -3.8840 C   0  0  2  0  0  0  0  0  0  0  0  0
    1.0240   13.9660   -4.4110 C   0  0  1  0  0  0  0  0  0  0  0  0
    0.3100   10.4080   -3.1560 O   0  0  0  0  0  0  0  0  0  0  0  0
    0.2390   11.3060   -5.3240 N   0  0  0  0  0  0  0  0  0  0  0  0
   -0.4850   14.2600   -4.4160 C   0  0  1  0  0  0  0  0  0  0  0  0
    1.9320   15.1120   -4.1220 N   0  0  0  0  0  0  0  0  0  0  0  0
   -0.5650   10.1650   -5.7610 C   0  0  0  0  0  0  0  0  0  0  0  0
   -0.8720   15.7420   -4.2740 C   0  0  1  0  0  0  0  0  0  0  0  0
    1.4760   16.2310   -4.9330 N   0  0  0  0  0  0  0  0  0  0  0  0
   -1.2440   13.4900   -5.4960 C   0  0  0  0  0  0  0  0  0  0  0  0
   -0.4650    9.9680   -7.2790 C   0  0  0  0  0  0  0  0  0  0  0  0
   -2.0360   10.3530   -5.3760 C   0  0  0  0  0  0  0  0  0  0  0  0
    0.2850   16.7650   -4.3350 C   0  0  1  0  0  0  0  0  0  0  0  0
   -2.0900   16.2080   -5.1010 C   0  0  0  0  0  0  0  0  0  0  0  0
   -2.7500   13.7470   -5.4950 C   0  0  0  0  0  0  0  0  0  0  0  0
   -0.0520   17.9280   -5.0540 O   0  0  0  0  0  0  0  0  0  0  0  0
   -1.2890    8.7770   -7.7580 C   0  0  0  0  0  0  0  0  0  0  0  0
   -2.8860    9.1590   -5.8070 C   0  0  0  0  0  0  0  0  0  0  0  0
   -3.2070   15.1820   -5.2310 C   0  0  0  0  0  0  0  0  0  0  0  0
   -2.7440    8.8690   -7.3010 C   0  0  0  0  0  0  0  0  0  0  0  0
  2  1  1  6
  2  3  1  0
  2  4  1  0
  2  5  1  0
  4  6  1  1
  4  7  1  0
  5  8  1  0
  5  9  1  1
  7 10  1  0
  8 11  1  0
  9 12  1  0
  8 13  1  6
 10 14  1  0
 10 15  1  0
 11 16  1  0
 12 16  1  0
 11 17  1  6
 13 18  1  0
 16 19  1  6
 14 20  1  0
 15 21  1  0
 17 22  1  0
 18 22  1  0
 20 23  1  0
 21 23  1  0
M  CHG  1   1  -1
M  END
