ucsf339-ucsf213
     RDKit          3D

 26 29  0  0  0  0  0  0  0  0999 V2000
    0.9950   14.4410   -3.0550 O   0  0  0  0  0  0  0  0  0  0  0  0
    0.0660   13.4800   -2.7020 C   0  0  1  0  0  0  0  0  0  0  0  0
    0.4470   12.6870   -1.6260 O   0  0  0  0  0  0  0  0  0  0  0  0
    0.8330   14.6240   -4.4330 C   0  0  2  0  0  0  0  0  0  0  0  0
   -1.3160   14.0940   -2.5600 C   0  0  1  0  0  0  0  0  0  0  0  0
    1.2950   16.0180   -4.6610 C   0  0  0  0  0  0  0  0  0  0  0  0
   -0.9470   14.5560   -4.9140 S   0  0  0  0  0  0  0  0  0  0  0  0
    0.6230   11.4340   -2.2780 C   0  0  0  0  0  0  0  0  0  0  0  0
   -1.8280   14.4660   -1.2070 C   0  0  0  0  0  0  0  0  0  0  0  0
   -1.5770   15.3110   -3.4050 C   0  0  0  0  0  0  0  0  0  0  0  0
    0.3280   16.8300   -5.4730 C   0  0  1  0  0  0  0  0  0  0  0  0
   -1.0890   16.3280   -5.3190 C   0  0  2  0  0  0  0  0  0  0  0  0
    0.5130   10.5710   -1.3300 O   0  0  0  0  0  0  0  0  0  0  0  0
   -3.3180   14.3410   -1.4810 C   0  0  2  0  0  0  0  0  0  0  0  0
   -3.0040   15.3350   -3.7410 N   0  0  0  0  0  0  0  0  0  0  0  0
    0.4440   18.3040   -5.2320 C   0  0  0  0  0  0  0  0  0  0  0  0
   -1.8740   17.2780   -4.4970 C   0  0  0  0  0  0  0  0  0  0  0  0
   -3.7850   15.3770   -2.5050 C   0  0  0  0  0  0  0  0  0  0  0  0
   -4.1850   14.3170   -0.2430 C   0  0  0  0  0  0  0  0  0  0  0  0
   -0.6950   18.9150   -6.0250 C   0  0  0  0  0  0  0  0  0  0  0  0
   -2.0080   18.5300   -5.3790 C   0  0  0  0  0  0  0  0  0  0  0  0
   -4.0560   15.5810    0.5810 C   0  0  0  0  0  0  0  0  0  0  0  0
   -5.6460   13.9990   -0.5440 C   0  0  0  0  0  0  0  0  0  0  0  0
   -4.5490   15.2470    1.9640 C   0  0  0  0  0  0  0  0  0  0  0  0
   -6.5670   14.2850    0.6340 C   0  0  0  0  0  0  0  0  0  0  0  0
   -5.8290   14.3960    1.9660 C   0  0  0  0  0  0  0  0  0  0  0  0
  2  1  1  1
  2  3  1  0
  4  1  1  1
  2  5  1  0
  4  6  1  0
  4  7  1  0
  3  8  1  0
  5  9  1  1
  5 10  1  0
 11  6  1  1
  7 12  1  0
 11 12  1  0
  8 13  1  0
  9 14  1  0
 10 15  1  0
 11 16  1  0
 12 17  1  1
 14 18  1  0
 15 18  1  0
 14 19  1  1
 16 20  1  0
 17 21  1  0
 20 21  1  0
 19 22  1  0
 19 23  1  0
 22 24  1  0
 23 25  1  0
 24 26  1  0
 25 26  1  0
M  CHG  1  13  -1
M  END
