ucsf422-ucsf170
     RDKit          3D

 24 26  0  0  0  0  0  0  0  0999 V2000
    0.2690   10.5540   -2.6620 O   0  0  0  0  0  0  0  0  0  0  0  0
    0.8580   11.7490   -2.7320 C   0  0  2  0  0  0  0  0  0  0  0  0
    0.4440   12.5350   -1.6220 O   0  0  0  0  0  0  0  0  0  0  0  0
    0.5160   12.5110   -4.0680 C   0  0  0  0  0  0  0  0  0  0  0  0
    0.4570   13.9310   -1.8740 C   0  0  0  0  0  0  0  0  0  0  0  0
    0.5700   14.0700   -4.0910 C   0  0  1  0  0  0  0  0  0  0  0  0
    1.9140   14.7600   -3.9620 C   0  0  0  0  0  0  0  0  0  0  0  0
   -0.0620   14.7960   -5.2840 C   0  0  2  0  0  0  0  0  0  0  0  0
   -0.9020   14.5790   -1.6160 C   0  0  2  0  0  0  0  0  0  0  0  0
    1.5240   16.1870   -4.1190 N   0  0  0  0  0  0  0  0  0  0  0  0
    0.5730   16.2160   -5.2330 C   0  0  2  0  0  0  0  0  0  0  0  0
   -1.6020   14.6730   -5.3090 C   0  0  0  0  0  0  0  0  0  0  0  0
   -1.6880   13.8630   -0.5370 C   0  0  0  0  0  0  0  0  0  0  0  0
   -1.8070   14.7680   -2.8510 C   0  0  1  0  0  0  0  0  0  0  0  0
   -1.7120   13.6190   -3.6990 O   0  0  0  0  0  0  0  0  0  0  0  0
   -0.3470   17.4350   -5.1370 C   0  0  0  0  0  0  0  0  0  0  0  0
   -2.4390   15.9510   -5.2660 C   0  0  2  0  0  0  0  0  0  0  0  0
   -2.8250   14.7290   -0.0440 C   0  0  2  0  0  0  0  0  0  0  0  0
   -3.3140   14.9870   -2.5870 C   0  0  0  0  0  0  0  0  0  0  0  0
   -4.0120   15.6060   -6.3970 Br  0  0  0  0  0  0  0  0  0  0  0  0
   -3.6590   14.0250    1.4180 S   0  0  0  0  0  0  0  0  0  0  0  0
   -1.7640   17.2600   -5.6750 C   0  0  0  0  0  0  0  0  0  0  0  0
   -3.8020   15.1770   -1.1360 C   0  0  0  0  0  0  0  0  0  0  0  0
   -5.0510   15.1650    1.5720 C   0  0  0  0  0  0  0  0  0  0  0  0
  2  1  1  6
  2  3  1  0
  2  4  1  0
  3  5  1  0
  6  4  1  6
  6  7  1  0
  6  8  1  0
  9  5  1  6
  7 10  1  0
  8 11  1  0
 10 11  1  0
  8 12  1  1
  9 13  1  0
  9 14  1  0
 14 15  1  6
 11 16  1  1
 12 17  1  0
 13 18  1  0
 14 19  1  0
 17 20  1  6
 18 21  1  1
 16 22  1  0
 17 22  1  0
 18 23  1  0
 19 23  1  0
 21 24  1  0
M  CHG  1   1  -1
M  END
