ucsf367-ucsf380
     RDKit          3D

 26 28  0  0  0  0  0  0  0  0999 V2000
    0.7260   10.8390   -2.9310 O   0  0  0  0  0  0  0  0  0  0  0  0
    0.4410   12.0960   -3.2860 C   0  0  1  0  0  0  0  0  0  0  0  0
    1.0590   12.9390   -2.2790 O   0  0  0  0  0  0  0  0  0  0  0  0
    0.9690   12.4090   -4.7590 C   0  0  0  0  0  0  0  0  0  0  0  0
    0.8700   11.3510   -5.7670 O   0  0  0  0  0  0  0  0  0  0  0  0
    0.2900   13.9290   -1.5210 C   0  0  1  0  0  0  0  0  0  0  0  0
    0.8540   15.1290   -1.5560 O   0  0  0  0  0  0  0  0  0  0  0  0
   -1.1700   14.0980   -2.1670 C   0  0  0  0  0  0  0  0  0  0  0  0
   -0.4270   10.7990   -6.0740 C   0  0  0  0  0  0  0  0  0  0  0  0
   -0.2380    9.6130   -7.0350 C   0  0  0  0  0  0  0  0  0  0  0  0
   -1.1140   10.2800   -4.8180 C   0  0  0  0  0  0  0  0  0  0  0  0
   -2.3480   14.2730   -1.1420 C   0  0  0  0  0  0  0  0  0  0  0  0
   -1.5610   13.1010   -3.2980 C   0  0  0  0  0  0  0  0  0  0  0  0
   -1.5420    8.9700   -7.5060 C   0  0  0  0  0  0  0  0  0  0  0  0
   -2.2900    9.3420   -5.1330 C   0  0  0  0  0  0  0  0  0  0  0  0
   -2.1990   15.4210   -0.1130 C   0  0  0  0  0  0  0  0  0  0  0  0
   -3.7310   14.3090   -1.8110 C   0  0  0  0  0  0  0  0  0  0  0  0
   -2.8710   12.3380   -3.0200 C   0  0  0  0  0  0  0  0  0  0  0  0
   -1.5310   13.7010   -4.7000 C   0  0  0  0  0  0  0  0  0  0  0  0
   -2.7150    9.2860   -6.5970 C   0  0  0  0  0  0  0  0  0  0  0  0
   -3.4590   15.6900    0.7260 C   0  0  0  0  0  0  0  0  0  0  0  0
   -4.4040   15.6270   -1.5770 C   0  0  0  0  0  0  0  0  0  0  0  0
   -3.2560   11.3760   -4.1350 C   0  0  0  0  0  0  0  0  0  0  0  0
   -1.7650   12.6750   -5.7870 C   0  0  0  0  0  0  0  0  0  0  0  0
   -4.7080   15.8310   -0.1170 C   0  0  0  0  0  0  0  0  0  0  0  0
   -3.0600   11.9090   -5.5600 C   0  0  0  0  0  0  0  0  0  0  0  0
  2  1  1  1
  2  3  1  0
  2  4  1  0
  4  5  1  0
  3  6  1  0
  6  7  1  6
  6  8  1  0
  5  9  1  0
  9 10  1  0
  9 11  1  0
  8 12  1  0
  8 13  1  0
 10 14  1  0
 11 15  1  0
 12 16  1  0
 12 17  1  0
 13 18  1  0
 13 19  1  0
 14 20  1  0
 15 20  1  0
 16 21  1  0
 17 22  1  0
 18 23  1  0
 19 24  1  0
 21 25  1  0
 22 25  1  0
 23 26  1  0
 24 26  1  0
M  CHG  2   1  -1   7  -1
M  END
