ucsf190-ucsf520
     RDKit          3D

 26 29  0  0  0  0  0  0  0  0999 V2000
    0.8060   11.0590   -2.6830 O   0  0  0  0  0  0  0  0  0  0  0  0
    1.6230   12.0650   -2.9620 C   0  0  2  0  0  0  0  0  0  0  0  0
    1.1160   13.0610   -2.1330 O   0  0  0  0  0  0  0  0  0  0  0  0
    1.5350   12.4910   -4.4500 C   0  0  0  0  0  0  0  0  0  0  0  0
    1.0470   13.9220   -4.7080 C   0  0  1  0  0  0  0  0  0  0  0  0
   -0.4650   14.2170   -4.4110 C   0  0  1  0  0  0  0  0  0  0  0  0
    1.9310   14.8860   -4.0160 N   0  0  0  0  0  0  0  0  0  0  0  0
   -0.8410   14.0130   -2.8640 C   0  0  0  0  0  0  0  0  0  0  0  0
   -0.6690   15.6860   -4.8760 C   0  0  2  0  0  0  0  0  0  0  0  0
    1.6770   16.1950   -4.6010 N   0  0  0  0  0  0  0  0  0  0  0  0
   -1.4090   13.2590   -5.2180 C   0  0  0  0  0  0  0  0  0  0  0  0
    0.3530   16.6250   -4.2140 C   0  0  1  0  0  0  0  0  0  0  0  0
   -2.1520   16.1110   -4.8240 C   0  0  0  0  0  0  0  0  0  0  0  0
   -2.8760   13.6450   -5.2170 C   0  0  0  0  0  0  0  0  0  0  0  0
   -1.7290   14.7420   -1.9060 N   0  0  0  0  0  0  0  0  0  0  0  0
    0.1690   17.9540   -4.6800 O   0  0  0  0  0  0  0  0  0  0  0  0
   -3.1050   15.1310   -5.5260 C   0  0  0  0  0  0  0  0  0  0  0  0
   -3.1800   14.5970   -2.1620 C   0  0  0  0  0  0  0  0  0  0  0  0
   -1.4410   14.3260   -0.5560 C   0  0  2  0  0  0  0  0  0  0  0  0
   -4.0520   15.1050   -1.0690 N   0  0  0  0  0  0  0  0  0  0  0  0
   -2.2530   14.9390    0.5740 C   0  0  1  0  0  0  0  0  0  0  0  0
   -0.1370   14.7280   -0.0890 N   0  0  0  0  0  0  0  0  0  0  0  0
   -3.7130   14.6510    0.2550 C   0  0  1  0  0  0  0  0  0  0  0  0
   -1.6110   14.2940    1.7130 N   0  0  0  0  0  0  0  0  0  0  0  0
   -0.2070   14.2460    1.2860 C   0  0  0  0  0  0  0  0  0  0  0  0
   -4.6290   15.3200    1.1650 N   0  0  0  0  0  0  0  0  0  0  0  0
  2  1  1  6
  2  3  1  0
  2  4  1  0
  5  4  1  1
  5  6  1  0
  5  7  1  0
  6  8  1  1
  6  9  1  0
  7 10  1  0
  6 11  1  0
  9 12  1  0
 10 12  1  0
  9 13  1  1
 11 14  1  0
  8 15  1  0
 12 16  1  6
 13 17  1  0
 14 17  1  0
 15 18  1  0
 15 19  1  0
 18 20  1  0
 19 21  1  0
 19 22  1  1
 20 23  1  0
 21 23  1  0
 21 24  1  1
 22 25  1  0
 24 25  1  0
 23 26  1  1
M  CHG  1   1  -1
M  END
