ucsf190-ucsf371
     RDKit          3D

 24 26  0  0  0  0  0  0  0  0999 V2000
    0.5750   10.3500   -2.4040 O   0  0  0  0  0  0  0  0  0  0  0  0
    1.0450   11.5900   -2.3860 C   0  0  2  0  0  0  0  0  0  0  0  0
   -0.0020   12.2580   -1.7420 O   0  0  0  0  0  0  0  0  0  0  0  0
    1.4580   12.1450   -3.7640 C   0  0  0  0  0  0  0  0  0  0  0  0
    1.1260   13.5850   -3.8350 C   0  0  2  0  0  0  0  0  0  0  0  0
   -0.2340   13.8460   -4.4510 C   0  0  1  0  0  0  0  0  0  0  0  0
    2.1830   14.4110   -4.4120 N   0  0  0  0  0  0  0  0  0  0  0  0
   -0.3070   15.1390   -5.1570 C   0  0  2  0  0  0  0  0  0  0  0  0
    1.8750   15.7820   -4.0590 N   0  0  0  0  0  0  0  0  0  0  0  0
   -1.0010   12.8760   -5.3850 C   0  0  0  0  0  0  0  0  0  0  0  0
    0.7660   16.2360   -4.8860 C   0  0  2  0  0  0  0  0  0  0  0  0
   -1.6970   15.3220   -4.6690 C   0  0  1  0  0  0  0  0  0  0  0  0
   -2.4170   13.3860   -5.8860 C   0  0  0  0  0  0  0  0  0  0  0  0
    0.2360   17.4320   -4.3260 O   0  0  0  0  0  0  0  0  0  0  0  0
   -1.7830   16.4410   -3.8770 O   0  0  0  0  0  0  0  0  0  0  0  0
   -2.7930   14.8580   -5.5820 C   0  0  0  0  0  0  0  0  0  0  0  0
   -1.2310   15.9850   -2.6140 C   0  0  2  0  0  0  0  0  0  0  0  0
   -0.5300   14.8820   -2.7030 O   0  0  0  0  0  0  0  0  0  0  0  0
   -2.5060   15.7410   -1.7740 C   0  0  1  0  0  0  0  0  0  0  0  0
   -3.6110   15.0030   -2.5610 C   0  0  0  0  0  0  0  0  0  0  0  0
   -2.5650   14.8570   -0.1900 S   0  0  0  0  0  0  0  0  0  0  0  0
   -4.3230   15.2360   -0.3210 C   0  0  1  0  0  0  0  0  0  0  0  0
   -4.7630   14.7590   -1.6490 N   0  0  0  0  0  0  0  0  0  0  0  0
   -5.1130   14.6060    0.8110 C   0  0  0  0  0  0  0  0  0  0  0  0
  2  1  1  6
  2  3  1  0
  2  4  1  0
  5  4  1  6
  5  6  1  0
  5  7  1  0
  6  8  1  0
  7  9  1  0
  6 10  1  6
  8 11  1  1
  9 11  1  0
  8 12  1  0
 10 13  1  0
 11 14  1  1
 12 15  1  6
 12 16  1  0
 13 16  1  0
 15 17  1  0
 17 18  1  6
 17 19  1  0
 19 20  1  6
 19 21  1  0
 21 22  1  0
 20 23  1  0
 22 23  1  0
 22 24  1  1
M  CHG  2   1  -1  18  -1
M  END
