ucsf411-ucsf274
     RDKit          3D

 26 29  0  0  0  0  0  0  0  0999 V2000
    0.6440   10.6040   -2.3890 O   0  0  0  0  0  0  0  0  0  0  0  0
    0.3000   11.8800   -2.5720 C   0  0  1  0  0  0  0  0  0  0  0  0
    0.6200   12.5120   -1.3250 O   0  0  0  0  0  0  0  0  0  0  0  0
    1.1010   12.5950   -3.7760 C   0  0  0  0  0  0  0  0  0  0  0  0
    0.2510   13.2600   -4.8420 N   0  0  0  0  0  0  0  0  0  0  0  0
   -0.5640   14.3350   -4.1940 C   0  0  1  0  0  0  0  0  0  0  0  0
   -0.6160   12.2940   -5.6000 C   0  0  2  0  0  0  0  0  0  0  0  0
   -0.3710   15.8710   -4.5420 C   0  0  2  0  0  0  0  0  0  0  0  0
   -2.0550   14.0560   -4.1500 C   0  0  0  0  0  0  0  0  0  0  0  0
   -2.0210   11.7850   -4.9540 C   0  0  2  0  0  0  0  0  0  0  0  0
    0.2370   11.2590   -6.2540 N   0  0  0  0  0  0  0  0  0  0  0  0
   -2.1510   11.9790   -3.5640 O   0  0  0  0  0  0  0  0  0  0  0  0
   -1.7020   16.6230   -4.9900 C   0  0  2  0  0  0  0  0  0  0  0  0
   -2.7220   14.3470   -5.4800 C   0  0  0  0  0  0  0  0  0  0  0  0
    0.9190   16.3860   -5.1850 C   0  0  0  0  0  0  0  0  0  0  0  0
   -2.3760   10.3760   -5.1020 N   0  0  0  0  0  0  0  0  0  0  0  0
   -0.3990    9.9460   -6.5600 C   0  0  1  0  0  0  0  0  0  0  0  0
   -2.8030   15.8280   -5.7040 C   0  0  0  0  0  0  0  0  0  0  0  0
   -1.5750   18.0570   -5.5350 C   0  0  0  0  0  0  0  0  0  0  0  0
    0.9470   17.8880   -5.4630 C   0  0  0  0  0  0  0  0  0  0  0  0
   -1.9310    9.9130   -6.4120 C   0  0  1  0  0  0  0  0  0  0  0  0
    0.0270    9.4360   -7.9450 C   0  0  0  0  0  0  0  0  0  0  0  0
   -0.2680   18.4080   -6.2020 C   0  0  0  0  0  0  0  0  0  0  0  0
   -0.5050    8.0330   -8.2500 C   0  0  0  0  0  0  0  0  0  0  0  0
   -2.4500    8.4900   -6.6200 C   0  0  0  0  0  0  0  0  0  0  0  0
   -1.9970    7.8750   -7.9490 C   0  0  0  0  0  0  0  0  0  0  0  0
  2  1  1  1
  2  3  1  0
  2  4  1  0
  4  5  1  0
  6  5  1  6
  7  5  1  1
  6  8  1  0
  6  9  1  0
  7 10  1  0
  7 11  1  0
 10 12  1  1
  8 13  1  0
  9 14  1  0
  8 15  1  6
 10 16  1  0
 11 17  1  0
 13 18  1  6
 14 18  1  0
 13 19  1  0
 15 20  1  0
 16 21  1  0
 17 21  1  0
 17 22  1  6
 19 23  1  0
 20 23  1  0
 22 24  1  0
 21 25  1  1
 24 26  1  0
 25 26  1  0
M  CHG  1   1  -1
M  END
