ucsf385-ucsf523
     RDKit          3D

 15 16  0  0  0  0  0  0  0  0999 V2000
   -3.0770   13.8070   -1.7670 N   0  0  0  0  0  0  0  0  0  0  0  0
   -2.6830   14.7760   -0.7510 C   0  0  1  0  0  0  0  0  0  0  0  0
   -2.7650   14.1280    0.7000 C   0  0  1  0  0  0  0  0  0  0  0  0
   -1.2040   15.2690   -0.9240 C   0  0  2  0  0  0  0  0  0  0  0  0
   -3.6690   15.8330   -1.0410 N   0  0  0  0  0  0  0  0  0  0  0  0
   -0.7680   15.4260   -2.4180 C   0  0  1  0  0  0  0  0  0  0  0  0
   -0.2410   14.2980   -0.1660 C   0  0  0  0  0  0  0  0  0  0  0  0
   -1.8530   14.6790    1.6850 N   0  0  0  0  0  0  0  0  0  0  0  0
   -4.1310   13.9970    1.2440 N   0  0  0  0  0  0  0  0  0  0  0  0
   -4.9850   15.5820   -0.4370 C   0  0  0  0  0  0  0  0  0  0  0  0
    0.2240   14.4640   -2.7200 O   0  0  0  0  0  0  0  0  0  0  0  0
   -1.7380   15.0580   -3.2280 O   0  0  0  0  0  0  0  0  0  0  0  0
   -0.4960   14.2470    1.3430 C   0  0  0  0  0  0  0  0  0  0  0  0
   -4.8760   15.2150    1.0520 C   0  0  1  0  0  0  0  0  0  0  0  0
   -6.1230   14.9560    1.6660 O   0  0  0  0  0  0  0  0  0  0  0  0
  2  1  1  6
  2  3  1  0
  2  4  1  0
  2  5  1  0
  4  6  1  0
  4  7  1  6
  3  8  1  1
  3  9  1  0
  5 10  1  0
  6 11  1  1
  6 12  1  0
  7 13  1  0
  8 13  1  0
  9 14  1  0
 10 14  1  0
 14 15  1  6
M  CHG  1  12  -1
M  END
