ucsf138-ucsf151
     RDKit          3D

 23 24  0  0  0  0  0  0  0  0999 V2000
    0.8300   12.9410   -2.3840 O   0  0  0  0  0  0  0  0  0  0  0  0
    0.3490   11.8560   -3.1430 C   0  0  2  0  0  0  0  0  0  0  0  0
    0.7230   10.5870   -2.6140 O   0  0  0  0  0  0  0  0  0  0  0  0
    0.3370   14.1540   -2.9460 C   0  0  2  0  0  0  0  0  0  0  0  0
    0.8260   12.0890   -4.6080 C   0  0  0  0  0  0  0  0  0  0  0  0
    0.5250   15.2140   -2.0360 O   0  0  0  0  0  0  0  0  0  0  0  0
   -1.1460   14.0050   -3.4220 C   0  0  1  0  0  0  0  0  0  0  0  0
    0.1740   11.1970   -5.5850 N   0  0  0  0  0  0  0  0  0  0  0  0
   -1.7000   15.3810   -3.8080 C   0  0  0  0  0  0  0  0  0  0  0  0
   -1.3800   13.0300   -4.6090 C   0  0  0  0  0  0  0  0  0  0  0  0
    0.4300   11.4390   -6.9600 C   0  0  1  0  0  0  0  0  0  0  0  0
   -2.2100   15.3470   -5.2230 C   0  0  2  0  0  0  0  0  0  0  0  0
   -2.7830   12.9510   -5.0490 N   0  0  0  0  0  0  0  0  0  0  0  0
    1.7780   11.5740   -7.1570 O   0  0  0  0  0  0  0  0  0  0  0  0
   -0.2130   10.3550   -7.6860 N   0  0  0  0  0  0  0  0  0  0  0  0
   -2.6860   16.6180   -5.6500 O   0  0  0  0  0  0  0  0  0  0  0  0
   -3.2900   14.2790   -5.3740 C   0  0  0  0  0  0  0  0  0  0  0  0
    0.3540    9.6480   -8.8610 C   0  0  0  0  0  0  0  0  0  0  0  0
    0.6740   10.5300  -10.0810 C   0  0  0  0  0  0  0  0  0  0  0  0
    1.3990    8.5690   -8.5910 C   0  0  0  0  0  0  0  0  0  0  0  0
    0.7880    9.7180  -11.3750 C   0  0  0  0  0  0  0  0  0  0  0  0
    2.0830    8.0950   -9.8800 C   0  0  0  0  0  0  0  0  0  0  0  0
    1.2250    8.2750  -11.1290 C   0  0  0  0  0  0  0  0  0  0  0  0
  1  2  1  0
  2  3  1  1
  1  4  1  0
  2  5  1  0
  4  6  1  1
  4  7  1  0
  5  8  1  0
  7  9  1  6
  7 10  1  0
  8 11  1  0
  9 12  1  0
 10 13  1  0
 11 14  1  1
 11 15  1  0
 12 16  1  1
 12 17  1  0
 13 17  1  0
 15 18  1  0
 18 19  1  0
 18 20  1  0
 19 21  1  0
 20 22  1  0
 21 23  1  0
 22 23  1  0
M  END
