ucsf392-ucsf348
     RDKit          3D

 14 15  0  0  0  0  0  0  0  0999 V2000
   -0.1100   14.0820    1.1030 C   0  0  0  0  0  0  0  0  0  0  0  0
   -1.1470   15.0810    0.6780 C   0  0  2  0  0  0  0  0  0  0  0  0
   -2.2370   15.0020    1.6090 N   0  0  0  0  0  0  0  0  0  0  0  0
   -1.6080   14.7730   -0.6750 N   0  0  0  0  0  0  0  0  0  0  0  0
   -3.4460   15.6400    1.1740 C   0  0  2  0  0  0  0  0  0  0  0  0
   -2.9300   14.1040   -0.7170 C   0  0  0  0  0  0  0  0  0  0  0  0
   -4.3490   15.8070    2.2900 N   0  0  0  0  0  0  0  0  0  0  0  0
   -4.0950   14.8370    0.0290 C   0  0  2  0  0  0  0  0  0  0  0  0
   -4.8730   15.7610   -0.9030 C   0  0  0  0  0  0  0  0  0  0  0  0
   -4.9820   13.8850    0.7370 N   0  0  0  0  0  0  0  0  0  0  0  0
   -6.3880   14.1080    0.9200 C   0  0  1  0  0  0  0  0  0  0  0  0
   -6.2160   15.1820   -1.2850 C   0  0  0  0  0  0  0  0  0  0  0  0
   -6.6690   14.7560    2.1570 N   0  0  0  0  0  0  0  0  0  0  0  0
   -7.0220   14.8090   -0.1420 N   0  0  0  0  0  0  0  0  0  0  0  0
  2  1  1  1
  2  3  1  0
  2  4  1  0
  3  5  1  0
  4  6  1  0
  5  7  1  1
  5  8  1  0
  8  6  1  6
  8  9  1  0
  8 10  1  0
 10 11  1  0
  9 12  1  0
 11 13  1  1
 11 14  1  0
 12 14  1  0
M  END
