ucsf411-ucsf016
     RDKit          3D

 26 30  0  0  0  0  0  0  0  0999 V2000
    0.7440   10.6140   -2.4870 O   0  0  0  0  0  0  0  0  0  0  0  0
    0.5830   11.9930   -2.4520 C   0  0  1  0  0  0  0  0  0  0  0  0
    0.6470   12.5280   -1.2140 O   0  0  0  0  0  0  0  0  0  0  0  0
    1.5010   12.7380   -3.4380 C   0  0  0  0  0  0  0  0  0  0  0  0
    1.1090   13.9260   -3.3850 O   0  0  0  0  0  0  0  0  0  0  0  0
   -0.6620   14.4790   -2.9750 S   0  0  0  0  0  0  0  0  0  0  0  0
   -0.5340   15.8240   -4.1940 C   0  0  1  0  0  0  0  0  0  0  0  0
   -1.5940   13.8280   -4.4530 C   0  0  0  0  0  0  0  0  0  0  0  0
    0.1000   14.3890   -1.3810 N   0  0  0  0  0  0  0  0  0  0  0  0
   -2.0010   14.7050   -1.4600 C   0  0  1  0  0  0  0  0  0  0  0  0
   -1.6110   16.3650   -4.9190 C   0  0  1  0  0  0  0  0  0  0  0  0
   -2.7350   14.4660   -5.1370 C   0  0  2  0  0  0  0  0  0  0  0  0
    0.6330   16.7510   -4.0390 C   0  0  0  0  0  0  0  0  0  0  0  0
    0.0730   15.0980   -0.3230 C   0  0  0  0  0  0  0  0  0  0  0  0
   -1.8450   15.5120   -0.2190 C   0  0  2  0  0  0  0  0  0  0  0  0
   -3.2270   15.3630   -1.8210 C   0  0  0  0  0  0  0  0  0  0  0  0
   -3.0230   15.8100   -4.7770 C   0  0  1  0  0  0  0  0  0  0  0  0
   -1.6240   17.8560   -5.2050 C   0  0  0  0  0  0  0  0  0  0  0  0
    0.8550   17.7630   -5.0900 C   0  0  0  0  0  0  0  0  0  0  0  0
   -0.9010   14.8770    0.6910 N   0  0  0  0  0  0  0  0  0  0  0  0
   -3.0930   15.6560    0.4620 N   0  0  0  0  0  0  0  0  0  0  0  0
   -4.0790   15.4040   -0.5300 C   0  0  0  0  0  0  0  0  0  0  0  0
   -3.9710   13.7160   -4.9410 C   0  0  0  0  0  0  0  0  0  0  0  0
   -0.3450   18.2630   -5.8020 C   0  0  0  0  0  0  0  0  0  0  0  0
   -4.4570   14.2700   -3.5860 C   0  0  0  0  0  0  0  0  0  0  0  0
   -3.5040   15.4480   -3.3810 C   0  0  0  0  0  0  0  0  0  0  0  0
  2  1  1  1
  2  3  1  0
  2  4  1  0
  4  5  1  0
  5  6  1  0
  6  7  1  0
  6  8  1  0
  6  9  1  0
  6 10  1  0
  7 11  1  0
 12  8  1  1
  7 13  1  1
  9 14  1  0
 10 15  1  0
 10 16  1  6
 11 17  1  0
 12 17  1  0
 11 18  1  1
 13 19  1  0
 14 20  1  0
 15 20  1  1
 15 21  1  0
 16 22  1  0
 21 22  1  0
 12 23  1  0
 18 24  1  0
 19 24  1  0
 23 25  1  0
 17 26  1  1
 25 26  1  0
M  CHG  1   1  -1
M  END
