ucsf412-ucsf584
     RDKit          3D

 11 12  0  0  0  0  0  0  0  0999 V2000
   -8.1600   15.1710   -0.4960 O   0  0  0  0  0  0  0  0  0  0  0  0
   -7.0380   14.5620    0.0910 C   0  0  2  0  0  0  0  0  0  0  0  0
   -7.2120   14.7090    1.5230 N   0  0  0  0  0  0  0  0  0  0  0  0
   -5.7490   15.1400   -0.5070 C   0  0  1  0  0  0  0  0  0  0  0  0
   -4.5710   14.5980    0.2900 C   0  0  2  0  0  0  0  0  0  0  0  0
   -6.0280   14.5340    2.3770 C   0  0  0  0  0  0  0  0  0  0  0  0
   -5.6070   14.8480   -2.0160 C   0  0  0  0  0  0  0  0  0  0  0  0
   -4.6780   14.9090    1.7710 C   0  0  0  0  0  0  0  0  0  0  0  0
   -3.3090   15.1770   -0.2900 C   0  0  0  0  0  0  0  0  0  0  0  0
   -4.2040   15.0620   -2.6210 C   0  0  0  0  0  0  0  0  0  0  0  0
   -3.0580   14.6810   -1.7050 C   0  0  0  0  0  0  0  0  0  0  0  0
  2  1  1  6
  2  3  1  0
  2  4  1  0
  4  5  1  0
  3  6  1  0
  4  7  1  6
  5  8  1  1
  6  8  1  0
  5  9  1  0
  7 10  1  0
  9 11  1  0
 10 11  1  0
M  END
