ucsf520-ucsf320
     RDKit          3D

 25 28  0  0  0  0  0  0  0  0999 V2000
   -4.2170   14.6010    0.9370 N   0  0  0  0  0  0  0  0  0  0  0  0
   -3.2930   13.7210    0.2180 C   0  0  2  0  0  0  0  0  0  0  0  0
   -1.8050   14.0750    0.4030 C   0  0  1  0  0  0  0  0  0  0  0  0
   -3.6690   13.7090   -1.1770 N   0  0  0  0  0  0  0  0  0  0  0  0
   -2.5630   13.2560   -2.0580 C   0  0  0  0  0  0  0  0  0  0  0  0
   -1.1120   14.7010   -0.7970 C   0  0  2  0  0  0  0  0  0  0  0  0
   -1.3630   15.0770    1.3700 N   0  0  0  0  0  0  0  0  0  0  0  0
   -1.4410   14.1980   -2.0750 N   0  0  0  0  0  0  0  0  0  0  0  0
    0.1680   14.3750   -0.2460 N   0  0  0  0  0  0  0  0  0  0  0  0
    0.0660   14.8220    1.1190 C   0  0  0  0  0  0  0  0  0  0  0  0
   -1.3800   15.1480   -3.2000 C   0  0  2  0  0  0  0  0  0  0  0  0
   -2.7870   15.7340   -3.5350 C   0  0  2  0  0  0  0  0  0  0  0  0
   -0.5440   14.9060   -4.4790 C   0  0  1  0  0  0  0  0  0  0  0  0
   -2.7140   17.0520   -3.4460 O   0  0  0  0  0  0  0  0  0  0  0  0
   -1.1490   15.8190   -5.4410 O   0  0  0  0  0  0  0  0  0  0  0  0
    0.9440   15.2510   -4.5460 C   0  0  0  0  0  0  0  0  0  0  0  0
   -3.8220   15.0960   -2.5430 C   0  0  1  0  0  0  0  0  0  0  0  0
    0.9560   16.7200   -4.9560 C   0  0  0  0  0  0  0  0  0  0  0  0
   -0.4900   17.0640   -5.2410 C   0  0  0  0  0  0  0  0  0  0  0  0
   -3.8500   15.6550   -1.1110 C   0  0  0  0  0  0  0  0  0  0  0  0
   -5.1820   14.6840   -3.1910 C   0  0  0  0  0  0  0  0  0  0  0  0
   -5.2170   15.9080   -0.4790 C   0  0  0  0  0  0  0  0  0  0  0  0
   -6.4540   15.0400   -2.4210 C   0  0  0  0  0  0  0  0  0  0  0  0
   -6.2640   14.9070   -0.9310 C   0  0  2  0  0  0  0  0  0  0  0  0
   -7.5040   15.0930   -0.2550 O   0  0  0  0  0  0  0  0  0  0  0  0
  2  1  1  1
  2  3  1  0
  2  4  1  0
  4  5  1  0
  3  6  1  0
  3  7  1  1
  5  8  1  0
  6  8  1  0
  6  9  1  1
  7 10  1  0
  9 10  1  0
 11  8  1  6
 11 12  1  0
 11 13  1  0
 12 14  1  1
 13 15  1  0
 13 16  1  1
 12 17  1  0
 16 18  1  0
 15 19  1  0
 18 19  1  0
 17 20  1  1
 17 21  1  0
 20 22  1  0
 21 23  1  0
 22 24  1  0
 23 24  1  0
 24 25  1  1
M  CHG  1  14  -1
M  END
