ucsf523-ucsf172
     RDKit          3D

 18 19  0  0  0  0  0  0  0  0999 V2000
    0.1170   15.0950    0.9070 N   0  0  0  0  0  0  0  0  0  0  0  0
   -0.8120   14.0390    0.7850 C   0  0  1  0  0  0  0  0  0  0  0  0
   -2.0310   14.3500    1.4500 N   0  0  0  0  0  0  0  0  0  0  0  0
   -0.9410   13.6950   -0.5730 N   0  0  0  0  0  0  0  0  0  0  0  0
   -1.6830   14.6230   -1.3990 C   0  0  1  0  0  0  0  0  0  0  0  0
   -3.0350   15.1380    0.7670 C   0  0  1  0  0  0  0  0  0  0  0  0
   -1.6100   14.0770   -2.7740 N   0  0  0  0  0  0  0  0  0  0  0  0
   -3.0920   15.0490   -0.8140 C   0  0  2  0  0  0  0  0  0  0  0  0
   -4.3090   14.8780    1.5150 N   0  0  0  0  0  0  0  0  0  0  0  0
   -0.2460   13.7540   -3.1010 O   0  0  0  0  0  0  0  0  0  0  0  0
   -2.0020   15.0320   -3.7580 O   0  0  0  0  0  0  0  0  0  0  0  0
   -5.4050   14.3830    0.6140 C   0  0  1  0  0  0  0  0  0  0  0  0
   -4.3230   14.5400   -1.4720 N   0  0  0  0  0  0  0  0  0  0  0  0
   -6.8030   14.1830    1.3070 C   0  0  0  0  0  0  0  0  0  0  0  0
   -5.4470   15.0820   -0.7490 C   0  0  0  0  0  0  0  0  0  0  0  0
   -7.1570   14.9020    2.6000 C   0  0  0  0  0  0  0  0  0  0  0  0
   -6.8320   12.8110    1.6930 O   0  0  0  0  0  0  0  0  0  0  0  0
   -7.8500   14.3720    0.3520 O   0  0  0  0  0  0  0  0  0  0  0  0
  2  1  1  6
  2  3  1  0
  2  4  1  0
  4  5  1  0
  6  3  1  1
  5  7  1  6
  5  8  1  0
  6  8  1  0
  6  9  1  0
  7 10  1  0
  7 11  1  0
  9 12  1  0
  8 13  1  1
 12 14  1  1
 12 15  1  0
 13 15  1  0
 14 16  1  0
 14 17  1  0
 14 18  1  0
M  CHG  1  11  -1
M  END
