ucsf424-ucsf241
     RDKit          3D

 24 27  0  0  0  0  0  0  0  0999 V2000
    1.6180   12.1560   -3.0180 O   0  0  0  0  0  0  0  0  0  0  0  0
    0.6620   12.8970   -3.5260 C   0  0  2  0  0  0  0  0  0  0  0  0
   -0.4860   12.1840   -3.0920 O   0  0  0  0  0  0  0  0  0  0  0  0
    0.6470   12.9070   -5.0680 C   0  0  0  0  0  0  0  0  0  0  0  0
    0.6790   14.3280   -2.9630 C   0  0  0  0  0  0  0  0  0  0  0  0
   -0.6910   14.9190   -2.5750 C   0  0  0  0  0  0  0  0  0  0  0  0
    0.4580   11.7030   -6.0070 C   0  0  2  0  0  0  0  0  0  0  0  0
    0.1930   11.9180   -7.4150 N   0  0  0  0  0  0  0  0  0  0  0  0
   -0.4130   10.4600   -5.7520 C   0  0  2  0  0  0  0  0  0  0  0  0
   -1.1510   14.5030   -1.1680 C   0  0  2  0  0  0  0  0  0  0  0  0
    0.5680   10.6090   -7.9300 O   0  0  0  0  0  0  0  0  0  0  0  0
   -0.1250    9.6920   -7.0670 C   0  0  2  0  0  0  0  0  0  0  0  0
   -1.9320   10.5860   -5.5330 C   0  0  0  0  0  0  0  0  0  0  0  0
   -2.3160   15.2940   -0.5600 C   0  0  1  0  0  0  0  0  0  0  0  0
    0.0480   14.5110   -0.1780 C   0  0  0  0  0  0  0  0  0  0  0  0
   -1.3430    9.1610   -7.7980 C   0  0  0  0  0  0  0  0  0  0  0  0
   -2.7270    9.2910   -5.6660 C   0  0  0  0  0  0  0  0  0  0  0  0
   -3.7160   15.1360   -1.1210 C   0  0  0  0  0  0  0  0  0  0  0  0
   -2.5660   14.7290    0.8070 C   0  0  2  0  0  0  0  0  0  0  0  0
   -0.3170   14.3120    1.3020 C   0  0  0  0  0  0  0  0  0  0  0  0
   -2.3220    8.4540   -6.8740 C   0  0  0  0  0  0  0  0  0  0  0  0
   -4.6040   15.4280    0.0910 C   0  0  0  0  0  0  0  0  0  0  0  0
   -3.7430   15.3880    1.2890 N   0  0  0  0  0  0  0  0  0  0  0  0
   -1.5100   15.0290    1.6920 N   0  0  0  0  0  0  0  0  0  0  0  0
  2  1  1  6
  2  3  1  0
  2  4  1  0
  2  5  1  0
  5  6  1  0
  7  4  1  1
  7  8  1  0
  7  9  1  0
 10  6  1  6
  8 11  1  0
  9 12  1  0
 11 12  1  0
  9 13  1  6
 10 14  1  0
 10 15  1  0
 12 16  1  6
 13 17  1  0
 14 18  1  6
 14 19  1  0
 15 20  1  0
 16 21  1  0
 17 21  1  0
 18 22  1  0
 19 23  1  1
 22 23  1  0
 19 24  1  0
 20 24  1  0
M  CHG  1   1  -1
M  END
