ucsf172-ucsf124
     RDKit          3D

 30 32  0  0  0  0  0  0  0  0999 V2000
   -8.2630   14.9640    2.4510 C   0  0  0  0  0  0  0  0  0  0  0  0
   -7.1060   14.4130    1.2590 S   0  0  0  0  0  0  0  0  0  0  0  0
   -7.0950   12.8270    1.4490 O   0  0  0  0  0  0  0  0  0  0  0  0
   -7.8210   14.6230   -0.1640 O   0  0  0  0  0  0  0  0  0  0  0  0
   -5.5640   14.9280    1.2660 N   0  0  0  0  0  0  0  0  0  0  0  0
   -4.6000   14.6800    0.1990 C   0  0  2  0  0  0  0  0  0  0  0  0
   -3.1520   14.8960    0.5880 C   0  0  0  0  0  0  0  0  0  0  0  0
   -4.9630   15.4690   -1.0670 C   0  0  0  0  0  0  0  0  0  0  0  0
   -2.1790   14.4130   -0.4800 C   0  0  0  0  0  0  0  0  0  0  0  0
   -3.9540   15.2810   -2.2070 C   0  0  0  0  0  0  0  0  0  0  0  0
   -2.7380   14.3490   -1.9340 C   0  0  1  0  0  0  0  0  0  0  0  0
   -1.6400   14.6270   -3.0210 C   0  0  1  0  0  0  0  0  0  0  0  0
   -0.6150   13.6850   -2.7330 O   0  0  0  0  0  0  0  0  0  0  0  0
   -2.1500   14.4580   -4.2320 O   0  0  0  0  0  0  0  0  0  0  0  0
    0.5860   14.2770   -2.2700 C   0  0  0  0  0  0  0  0  0  0  0  0
    1.5760   13.2700   -2.1990 O   0  0  0  0  0  0  0  0  0  0  0  0
    1.4860   12.2080   -3.1460 C   0  0  1  0  0  0  0  0  0  0  0  0
    0.7740   11.2640   -2.5170 O   0  0  0  0  0  0  0  0  0  0  0  0
    0.8040   12.5910   -4.5260 C   0  0  0  0  0  0  0  0  0  0  0  0
    0.3700   11.4280   -5.3200 N   0  0  0  0  0  0  0  0  0  0  0  0
   -0.9080   10.7620   -5.0820 C   0  0  1  0  0  0  0  0  0  0  0  0
    0.7960   11.2810   -6.6960 C   0  0  2  0  0  0  0  0  0  0  0  0
   -1.8810   11.6070   -4.5040 O   0  0  0  0  0  0  0  0  0  0  0  0
    0.4380   12.3800   -7.4420 O   0  0  0  0  0  0  0  0  0  0  0  0
   -1.3620   10.3750   -6.4860 C   0  0  1  0  0  0  0  0  0  0  0  0
   -0.0170   10.0580   -7.1210 C   0  0  1  0  0  0  0  0  0  0  0  0
   -2.3410    9.2090   -6.6210 C   0  0  0  0  0  0  0  0  0  0  0  0
   -0.1330    9.7090   -8.5940 C   0  0  0  0  0  0  0  0  0  0  0  0
   -1.8270    8.0920   -7.5510 C   0  0  0  0  0  0  0  0  0  0  0  0
   -1.1580    8.5900   -8.8360 C   0  0  0  0  0  0  0  0  0  0  0  0
  1  2  1  0
  2  3  1  0
  2  4  1  0
  2  5  1  0
  6  5  1  1
  6  7  1  0
  6  8  1  0
  7  9  1  0
  8 10  1  0
 11  9  1  1
 10 11  1  0
 11 12  1  0
 12 13  1  0
 12 14  1  6
 13 15  1  0
 15 16  1  0
 16 17  1  0
 17 18  1  1
 17 19  1  0
 19 20  1  0
 20 21  1  0
 20 22  1  0
 21 23  1  6
 22 24  1  6
 21 25  1  0
 22 26  1  0
 25 26  1  0
 25 27  1  1
 26 28  1  6
 27 29  1  0
 28 30  1  0
 29 30  1  0
M  CHG  2  14  -1  18  -1
M  END
