ucsf213-ucsf523
     RDKit          3D

 26 29  0  0  0  0  0  0  0  0999 V2000
    0.5480   10.7760   -2.3670 O   0  0  0  0  0  0  0  0  0  0  0  0
    0.5670   12.1120   -2.2960 C   0  0  1  0  0  0  0  0  0  0  0  0
    1.8620   12.4190   -1.9010 O   0  0  0  0  0  0  0  0  0  0  0  0
    0.5450   12.8440   -3.6470 C   0  0  0  0  0  0  0  0  0  0  0  0
   -0.7020   13.7230   -3.8320 C   0  0  1  0  0  0  0  0  0  0  0  0
   -0.7560   15.2110   -3.3850 C   0  0  1  0  0  0  0  0  0  0  0  0
   -0.9330   13.9770   -5.5950 S   0  0  0  0  0  0  0  0  0  0  0  0
   -0.6190   15.3480   -1.9860 O   0  0  0  0  0  0  0  0  0  0  0  0
    0.2250   15.9850   -4.2610 C   0  0  1  0  0  0  0  0  0  0  0  0
   -0.6290   15.7790   -5.4350 C   0  0  2  0  0  0  0  0  0  0  0  0
    0.4900   17.5180   -4.2600 C   0  0  0  0  0  0  0  0  0  0  0  0
   -1.9090   16.6340   -5.4180 C   0  0  0  0  0  0  0  0  0  0  0  0
   -1.2920   14.2840   -1.3290 C   0  0  1  0  0  0  0  0  0  0  0  0
   -0.0420   18.1850   -5.5420 C   0  0  0  0  0  0  0  0  0  0  0  0
   -1.5610   18.0910   -5.6180 C   0  0  0  0  0  0  0  0  0  0  0  0
   -0.5180   13.9110   -0.1850 N   0  0  0  0  0  0  0  0  0  0  0  0
   -2.8220   14.4310   -0.9120 C   0  0  1  0  0  0  0  0  0  0  0  0
   -0.6490   14.7960    0.9090 C   0  0  2  0  0  0  0  0  0  0  0  0
   -2.8630   14.1190    0.5940 C   0  0  1  0  0  0  0  0  0  0  0  0
   -3.6660   15.5930   -1.3250 N   0  0  0  0  0  0  0  0  0  0  0  0
    0.0180   14.1010    1.9420 N   0  0  0  0  0  0  0  0  0  0  0  0
   -2.0070   14.9910    1.3520 N   0  0  0  0  0  0  0  0  0  0  0  0
   -4.1770   14.1080    1.1790 N   0  0  0  0  0  0  0  0  0  0  0  0
   -4.9930   15.5420   -0.6600 C   0  0  0  0  0  0  0  0  0  0  0  0
   -4.9090   15.2820    0.8730 C   0  0  1  0  0  0  0  0  0  0  0  0
   -6.1570   14.9930    1.4700 O   0  0  0  0  0  0  0  0  0  0  0  0
  2  1  1  6
  2  3  1  0
  2  4  1  0
  5  4  1  6
  5  6  1  0
  5  7  1  0
  6  8  1  1
  6  9  1  0
  7 10  1  0
  9 10  1  0
  9 11  1  1
 10 12  1  1
 13  8  1  1
 11 14  1  0
 12 15  1  0
 14 15  1  0
 13 16  1  0
 13 17  1  0
 16 18  1  0
 17 19  1  0
 17 20  1  1
 18 21  1  1
 18 22  1  0
 19 22  1  1
 19 23  1  0
 20 24  1  0
 23 25  1  0
 24 25  1  0
 25 26  1  6
M  CHG  1   1  -1
M  END
