ucsf336-ucsf169
     RDKit          3D

 21 22  0  0  0  0  0  0  0  0999 V2000
    2.0010   13.5080   -4.4420 O   0  0  0  0  0  0  0  0  0  0  0  0
    0.8710   13.3470   -3.7850 C   0  0  2  0  0  0  0  0  0  0  0  0
    1.3170   13.2090   -2.4450 O   0  0  0  0  0  0  0  0  0  0  0  0
    0.0950   12.0080   -4.1910 C   0  0  2  0  0  0  0  0  0  0  0  0
   -0.0460   14.6300   -3.9090 C   0  0  2  0  0  0  0  0  0  0  0  0
    0.2620   10.9120   -3.2940 O   0  0  0  0  0  0  0  0  0  0  0  0
    0.1410   11.5320   -5.5760 N   0  0  0  0  0  0  0  0  0  0  0  0
   -1.4920   14.3690   -4.4040 C   0  0  0  0  0  0  0  0  0  0  0  0
    0.5640   15.7590   -4.7860 C   0  0  0  0  0  0  0  0  0  0  0  0
   -0.6280   10.3150   -5.8620 C   0  0  0  0  0  0  0  0  0  0  0  0
   -0.2630   17.0650   -4.7580 C   0  0  1  0  0  0  0  0  0  0  0  0
   -2.3750   15.6320   -4.3630 C   0  0  0  0  0  0  0  0  0  0  0  0
    0.0390   18.0820   -5.7030 O   0  0  0  0  0  0  0  0  0  0  0  0
   -0.3570    9.9410   -7.3290 C   0  0  0  0  0  0  0  0  0  0  0  0
   -2.1400   10.4740   -5.6250 C   0  0  0  0  0  0  0  0  0  0  0  0
   -1.7370   16.8500   -5.0440 C   0  0  1  0  0  0  0  0  0  0  0  0
    1.3690   18.4580   -5.7340 C   0  0  0  0  0  0  0  0  0  0  0  0
   -2.3870   18.0930   -4.7900 O   0  0  0  0  0  0  0  0  0  0  0  0
   -1.5460    9.2410   -7.9910 C   0  0  0  0  0  0  0  0  0  0  0  0
   -2.9380    9.1960   -5.8850 C   0  0  0  0  0  0  0  0  0  0  0  0
   -2.3790    8.3850   -7.0390 C   0  0  0  0  0  0  0  0  0  0  0  0
  2  1  1  6
  2  3  1  0
  2  4  1  0
  2  5  1  0
  4  6  1  1
  4  7  1  0
  5  8  1  6
  5  9  1  0
  7 10  1  0
  9 11  1  0
  8 12  1  0
 11 13  1  6
 10 14  1  0
 10 15  1  0
 11 16  1  0
 12 16  1  0
 13 17  1  0
 16 18  1  1
 14 19  1  0
 15 20  1  0
 19 21  1  0
 20 21  1  0
M  CHG  1   1  -1
M  END
