ucsf516-ucsf114
     RDKit          3D

 28 32  0  0  0  0  0  0  0  0999 V2000
    0.8870   18.2090   -5.5020 C   0  0  0  0  0  0  0  0  0  0  0  0
   -0.3570   17.9480   -4.6670 C   0  0  0  0  0  0  0  0  0  0  0  0
   -1.6250   18.3360   -5.4270 C   0  0  0  0  0  0  0  0  0  0  0  0
   -0.4460   16.5620   -4.3180 O   0  0  0  0  0  0  0  0  0  0  0  0
    0.8010   16.0150   -3.8300 C   0  0  0  0  0  0  0  0  0  0  0  0
    0.6930   15.2160   -2.4470 C   0  0  0  0  0  0  0  0  0  0  0  0
   -0.3360   15.5270   -1.3650 N   0  0  0  0  0  0  0  0  0  0  0  0
   -0.1220   15.2160    0.0270 C   0  0  2  0  0  0  0  0  0  0  0  0
   -1.5790   14.8790   -1.8590 C   0  0  2  0  0  0  0  0  0  0  0  0
    0.2660   13.4970   -0.0020 S   0  0  0  0  0  0  0  0  0  0  0  0
   -1.4600   15.1760   -3.2770 N   0  0  0  0  0  0  0  0  0  0  0  0
   -1.3170   15.4030    0.8730 N   0  0  0  0  0  0  0  0  0  0  0  0
   -2.8080   15.0270   -0.9480 C   0  0  2  0  0  0  0  0  0  0  0  0
   -2.0130   13.4140   -1.8880 C   0  0  0  0  0  0  0  0  0  0  0  0
   -0.2710   14.4820   -3.8560 C   0  0  1  0  0  0  0  0  0  0  0  0
   -2.5850   15.0540   -4.2130 C   0  0  0  0  0  0  0  0  0  0  0  0
   -2.4470   15.9180    0.1480 C   0  0  1  0  0  0  0  0  0  0  0  0
   -3.3600   13.9760    0.0090 C   0  0  0  0  0  0  0  0  0  0  0  0
   -3.4490   13.6080   -2.4900 C   0  0  0  0  0  0  0  0  0  0  0  0
   -3.9020   15.0100   -1.9910 C   0  0  0  0  0  0  0  0  0  0  0  0
    0.1290   13.1810   -3.1290 C   0  0  0  0  0  0  0  0  0  0  0  0
   -0.6220   14.2550   -5.3000 C   0  0  0  0  0  0  0  0  0  0  0  0
   -2.1180   14.0800   -5.2790 C   0  0  0  0  0  0  0  0  0  0  0  0
   -3.6330   16.0690    0.9940 N   0  0  0  0  0  0  0  0  0  0  0  0
   -4.3920   14.8520    0.7200 C   0  0  0  0  0  0  0  0  0  0  0  0
    1.2300   12.2670   -3.7360 C   0  0  0  0  0  0  0  0  0  0  0  0
   -0.7990   11.9310   -3.1450 C   0  0  0  0  0  0  0  0  0  0  0  0
    0.4600   11.0810   -3.0980 C   0  0  0  0  0  0  0  0  0  0  0  0
  1  2  1  0
  2  3  1  0
  2  4  1  0
  4  5  1  0
  5  6  1  0
  6  7  1  0
  7  8  1  0
  9  7  1  0
  8 10  1  6
  9 11  1  6
  8 12  1  0
  9 13  1  0
  9 14  1  0
 11 15  1  0
 11 16  1  0
 17 12  1  1
 13 17  1  0
 13 18  1  1
 14 19  1  0
 13 20  1  0
 19 20  1  0
 15 21  1  1
 15 22  1  0
 16 23  1  0
 22 23  1  0
 17 24  1  0
 18 25  1  0
 24 25  1  0
 21 26  1  0
 21 27  1  0
 26 28  1  0
 27 28  1  0
M  END
