ucsf403-ucsf005
     RDKit          3D

 26 28  0  0  0  0  0  0  0  0999 V2000
    0.8120    9.2790   -7.9530 Cl  0  0  0  0  0  0  0  0  0  0  0  0
   -0.7070    9.8910   -7.2150 C   0  0  2  0  0  0  0  0  0  0  0  0
   -0.6030   11.1870   -6.3540 C   0  0  2  0  0  0  0  0  0  0  0  0
   -1.3780    8.7250   -6.4920 C   0  0  0  0  0  0  0  0  0  0  0  0
    0.5610   11.1830   -5.5510 O   0  0  0  0  0  0  0  0  0  0  0  0
   -1.9020   11.5570   -5.5730 C   0  0  2  0  0  0  0  0  0  0  0  0
   -2.7620    9.1170   -6.0270 C   0  0  0  0  0  0  0  0  0  0  0  0
   -1.7770   12.5290   -4.3670 C   0  0  0  0  0  0  0  0  0  0  0  0
    0.9510   12.4200   -4.9170 C   0  0  0  0  0  0  0  0  0  0  0  0
   -2.6800   10.3050   -5.0710 C   0  0  0  0  0  0  0  0  0  0  0  0
    1.3740   12.1800   -3.4330 C   0  0  1  0  0  0  0  0  0  0  0  0
   -1.8250   14.0490   -4.6130 C   0  0  0  0  0  0  0  0  0  0  0  0
    0.9050   13.0640   -2.6030 O   0  0  0  0  0  0  0  0  0  0  0  0
    0.7450   10.9920   -2.9770 O   0  0  0  0  0  0  0  0  0  0  0  0
   -1.2330   14.9050   -3.4760 C   0  0  0  0  0  0  0  0  0  0  0  0
   -2.2050   15.3830   -2.4650 N   0  0  0  0  0  0  0  0  0  0  0  0
   -3.6040   15.1440   -2.8010 C   0  0  0  0  0  0  0  0  0  0  0  0
   -2.1000   14.7040   -1.1880 C   0  0  2  0  0  0  0  0  0  0  0  0
   -4.3530   15.2180   -1.5200 N   0  0  0  0  0  0  0  0  0  0  0  0
   -3.2690   15.3640   -0.5090 C   0  0  1  0  0  0  0  0  0  0  0  0
   -0.8830   14.9500   -0.4490 N   0  0  0  0  0  0  0  0  0  0  0  0
   -3.4160   14.6960    0.8590 C   0  0  2  0  0  0  0  0  0  0  0  0
   -1.0040   14.2340    0.7770 C   0  0  1  0  0  0  0  0  0  0  0  0
   -4.3120   15.4350    1.7250 N   0  0  0  0  0  0  0  0  0  0  0  0
    0.0740   14.6520    1.5770 N   0  0  0  0  0  0  0  0  0  0  0  0
   -2.1610   14.6130    1.5710 N   0  0  0  0  0  0  0  0  0  0  0  0
  2  1  1  1
  2  3  1  0
  2  4  1  0
  3  5  1  1
  3  6  1  0
  4  7  1  0
  6  8  1  1
  5  9  1  0
  6 10  1  0
  7 10  1  0
  9 11  1  0
  8 12  1  0
 11 13  1  1
 11 14  1  0
 12 15  1  0
 15 16  1  0
 16 17  1  0
 16 18  1  0
 17 19  1  0
 18 20  1  0
 20 19  1  6
 18 21  1  1
 20 22  1  0
 21 23  1  0
 22 24  1  1
 23 25  1  1
 22 26  1  0
 23 26  1  0
M  CHG  1  13  -1
M  END
