ucsf114-ucsf584
     RDKit          3D

 21 23  0  0  0  0  0  0  0  0999 V2000
    0.8040   18.1240   -4.6400 C   0  0  0  0  0  0  0  0  0  0  0  0
   -0.3390   17.6880   -5.5540 C   0  0  0  0  0  0  0  0  0  0  0  0
   -1.5200   18.6430   -5.4710 C   0  0  0  0  0  0  0  0  0  0  0  0
   -0.8300   16.4100   -5.1450 O   0  0  0  0  0  0  0  0  0  0  0  0
    0.0350   15.6450   -4.2960 C   0  0  0  0  0  0  0  0  0  0  0  0
   -0.6910   14.4070   -3.7050 C   0  0  0  0  0  0  0  0  0  0  0  0
   -0.8340   14.3710   -2.2120 N   0  0  0  0  0  0  0  0  0  0  0  0
   -2.0840   15.0190   -1.6540 C   0  0  2  0  0  0  0  0  0  0  0  0
    0.3750   14.8650   -1.4940 C   0  0  2  0  0  0  0  0  0  0  0  0
    1.9460   13.9980   -1.8170 S   0  0  0  0  0  0  0  0  0  0  0  0
   -2.2980   14.6670   -0.2200 C   0  0  1  0  0  0  0  0  0  0  0  0
    0.2470   15.0390   -0.0440 N   0  0  0  0  0  0  0  0  0  0  0  0
   -3.5840   14.7270   -2.0470 C   0  0  0  0  0  0  0  0  0  0  0  0
   -0.9930   14.6230    0.6090 C   0  0  1  0  0  0  0  0  0  0  0  0
   -3.4060   15.5650    0.1650 N   0  0  0  0  0  0  0  0  0  0  0  0
   -4.4180   14.9520   -0.6850 C   0  0  0  0  0  0  0  0  0  0  0  0
   -1.2340   15.3650    1.7600 O   0  0  0  0  0  0  0  0  0  0  0  0
   -4.8140   13.8140    0.1760 N   0  0  0  0  0  0  0  0  0  0  0  0
   -5.6890   15.6980   -0.7560 N   0  0  0  0  0  0  0  0  0  0  0  0
   -6.7880   14.8630   -0.2130 C   0  0  0  0  0  0  0  0  0  0  0  0
   -6.0540   14.1990    0.9090 C   0  0  0  0  0  0  0  0  0  0  0  0
  1  2  1  0
  2  3  1  0
  2  4  1  0
  4  5  1  0
  5  6  1  0
  6  7  1  0
  7  8  1  0
  7  9  1  0
  9 10  1  1
  8 11  1  0
  9 12  1  0
  8 13  1  6
 11 14  1  0
 12 14  1  0
 11 15  1  1
 13 16  1  0
 16 15  1  0
 14 17  1  1
 16 18  1  0
 16 19  1  0
 19 20  1  0
 18 21  1  0
 20 21  1  0
M  END
