ucsf367-ucsf584
     RDKit          3D

 25 27  0  0  0  0  0  0  0  0999 V2000
    0.7040   10.8160   -3.0700 O   0  0  0  0  0  0  0  0  0  0  0  0
    0.4860   12.1030   -3.3040 C   0  0  1  0  0  0  0  0  0  0  0  0
    1.2210   12.8710   -2.3260 O   0  0  0  0  0  0  0  0  0  0  0  0
    1.0450   12.5100   -4.7170 C   0  0  0  0  0  0  0  0  0  0  0  0
    0.7990   11.5440   -5.7840 O   0  0  0  0  0  0  0  0  0  0  0  0
    0.9890   14.2870   -2.3550 C   0  0  0  0  0  0  0  0  0  0  0  0
   -0.2810   14.5950   -1.5570 C   0  0  0  0  0  0  0  0  0  0  0  0
   -0.3850   10.7460   -5.6690 C   0  0  0  0  0  0  0  0  0  0  0  0
   -1.5640   14.7360   -2.4140 C   0  0  0  0  0  0  0  0  0  0  0  0
   -0.4650    9.8070   -6.8850 C   0  0  0  0  0  0  0  0  0  0  0  0
   -1.6410   11.5900   -5.6660 C   0  0  0  0  0  0  0  0  0  0  0  0
   -1.5760    8.7640   -6.7510 C   0  0  0  0  0  0  0  0  0  0  0  0
   -2.8960   10.7400   -5.9050 C   0  0  0  0  0  0  0  0  0  0  0  0
   -2.8430   15.1570   -1.7630 N   0  0  0  0  0  0  0  0  0  0  0  0
   -2.6660    9.2290   -5.8060 C   0  0  0  0  0  0  0  0  0  0  0  0
   -2.9440   14.8700   -0.3130 C   0  0  0  0  0  0  0  0  0  0  0  0
   -4.0270   14.8820   -2.6180 C   0  0  0  0  0  0  0  0  0  0  0  0
   -4.2890   14.3060    0.0920 C   0  0  0  0  0  0  0  0  0  0  0  0
   -5.4230   15.0080   -1.9800 C   0  0  0  0  0  0  0  0  0  0  0  0
   -5.4010   15.1820   -0.4680 C   0  0  0  0  0  0  0  0  0  0  0  0
   -6.7720   14.8770    0.2030 C   0  0  0  0  0  0  0  0  0  0  0  0
   -6.6780   14.7260    1.6510 N   0  0  0  0  0  0  0  0  0  0  0  0
   -7.4980   13.6790   -0.1210 N   0  0  0  0  0  0  0  0  0  0  0  0
   -8.6420   13.7780    0.8030 C   0  0  0  0  0  0  0  0  0  0  0  0
   -8.0480   14.4240    2.0500 C   0  0  0  0  0  0  0  0  0  0  0  0
  2  1  1  1
  2  3  1  0
  2  4  1  0
  4  5  1  0
  3  6  1  0
  6  7  1  0
  5  8  1  0
  7  9  1  0
  8 10  1  0
  8 11  1  0
 10 12  1  0
 11 13  1  0
  9 14  1  0
 12 15  1  0
 13 15  1  0
 14 16  1  0
 14 17  1  0
 16 18  1  0
 17 19  1  0
 18 20  1  0
 19 20  1  0
 20 21  1  0
 21 22  1  0
 21 23  1  0
 23 24  1  0
 22 25  1  0
 24 25  1  0
M  CHG  1   1  -1
M  END
