ucsf487-ucsf005
     RDKit          3D

 19 21  0  0  0  0  0  0  0  0999 V2000
   -8.1930   13.9120    2.8150 N   0  0  0  0  0  0  0  0  0  0  0  0
   -7.5360   13.8680    1.5060 C   0  0  1  0  0  0  0  0  0  0  0  0
   -8.2040   14.6750    0.3750 C   0  0  0  0  0  0  0  0  0  0  0  0
   -6.1660   14.3800    1.7910 C   0  0  0  0  0  0  0  0  0  0  0  0
   -5.3330   14.7150    0.5920 C   0  0  2  0  0  0  0  0  0  0  0  0
   -7.3680   14.8770   -0.8370 N   0  0  0  0  0  0  0  0  0  0  0  0
   -5.9670   14.3770   -0.7640 C   0  0  1  0  0  0  0  0  0  0  0  0
   -4.0350   14.0220    0.9520 C   0  0  0  0  0  0  0  0  0  0  0  0
   -5.2180   14.9510   -2.0160 C   0  0  0  0  0  0  0  0  0  0  0  0
   -2.9360   14.8630    0.4940 C   0  0  2  0  0  0  0  0  0  0  0  0
   -3.4690   16.1650    0.8160 N   0  0  0  0  0  0  0  0  0  0  0  0
   -3.6980   15.3580   -1.9940 C   0  0  1  0  0  0  0  0  0  0  0  0
   -2.7710   14.5550   -1.0270 C   0  0  1  0  0  0  0  0  0  0  0  0
   -1.8090   14.7750    1.3940 N   0  0  0  0  0  0  0  0  0  0  0  0
   -3.1350   15.3150   -3.4390 C   0  0  0  0  0  0  0  0  0  0  0  0
   -0.6260   14.1550    0.9200 C   0  0  2  0  0  0  0  0  0  0  0  0
   -1.2730   14.5170   -1.3330 C   0  0  0  0  0  0  0  0  0  0  0  0
    0.3250   15.1720    0.7770 N   0  0  0  0  0  0  0  0  0  0  0  0
   -0.7390   13.5810   -0.3740 N   0  0  0  0  0  0  0  0  0  0  0  0
  2  1  1  1
  2  3  1  0
  2  4  1  0
  5  4  1  1
  3  6  1  0
  5  7  1  0
  6  7  1  0
  5  8  1  0
  7  9  1  6
  8 10  1  0
 10 11  1  6
  9 12  1  0
 10 13  1  0
 12 13  1  0
 10 14  1  0
 12 15  1  6
 14 16  1  0
 13 17  1  6
 16 18  1  6
 16 19  1  0
 17 19  1  0
M  END
