ucsf248-ucsf333
     RDKit          3D

 23 25  0  0  0  0  0  0  0  0999 V2000
   -8.6030   12.8390    2.9510 N   0  0  0  0  0  0  0  0  0  0  0  0
   -8.2270   14.2810    2.2310 S   0  0  0  0  0  0  0  0  0  0  0  0
   -7.9010   15.3870    3.3380 O   0  0  0  0  0  0  0  0  0  0  0  0
   -9.4570   14.8230    1.3680 O   0  0  0  0  0  0  0  0  0  0  0  0
   -6.7700   14.2430    1.1430 C   0  0  2  0  0  0  0  0  0  0  0  0
   -5.6310   14.9950    1.6550 N   0  0  0  0  0  0  0  0  0  0  0  0
   -7.0760   14.8310   -0.1350 N   0  0  0  0  0  0  0  0  0  0  0  0
   -4.8210   15.4470    0.5120 C   0  0  2  0  0  0  0  0  0  0  0  0
   -5.8340   15.4370   -0.6400 C   0  0  1  0  0  0  0  0  0  0  0  0
   -3.4370   14.7730    0.2360 C   0  0  0  0  0  0  0  0  0  0  0  0
   -5.2840   14.7810   -1.8620 C   0  0  1  0  0  0  0  0  0  0  0  0
   -6.5370   14.8200   -3.1230 Cl  0  0  0  0  0  0  0  0  0  0  0  0
   -2.8900   14.8880   -1.2330 C   0  0  2  0  0  0  0  0  0  0  0  0
   -3.9490   15.4140   -2.1860 C   0  0  0  0  0  0  0  0  0  0  0  0
   -2.5380   13.5390   -1.8490 C   0  0  0  0  0  0  0  0  0  0  0  0
   -1.2050   15.7180   -1.3840 S   0  0  0  0  0  0  0  0  0  0  0  0
   -0.5570   14.3560   -2.3950 C   0  0  1  0  0  0  0  0  0  0  0  0
   -1.7190   13.7830   -3.0150 N   0  0  0  0  0  0  0  0  0  0  0  0
    0.6650   14.3500   -3.3260 C   0  0  0  0  0  0  0  0  0  0  0  0
    1.1280   12.9070   -3.5730 C   0  0  0  0  0  0  0  0  0  0  0  0
    0.3890   11.8880   -2.6730 C   0  0  2  0  0  0  0  0  0  0  0  0
    0.9620   11.7610   -1.5040 O   0  0  0  0  0  0  0  0  0  0  0  0
    0.4550   10.5810   -3.1800 O   0  0  0  0  0  0  0  0  0  0  0  0
  1  2  1  0
  2  3  1  0
  2  4  1  0
  5  2  1  1
  5  6  1  0
  5  7  1  0
  6  8  1  0
  9  7  1  1
  8  9  1  0
  8 10  1  6
  9 11  1  0
 11 12  1  6
 13 10  1  1
 11 14  1  0
 13 14  1  0
 13 15  1  0
 13 16  1  0
 16 17  1  0
 15 18  1  0
 17 18  1  0
 17 19  1  6
 19 20  1  0
 20 21  1  0
 21 22  1  1
 21 23  1  0
M  CHG  1  22  -1
M  END
