ucsf006-ucsf172
     RDKit          3D

 21 22  0  0  0  0  0  0  0  0999 V2000
   -2.1740   15.2670   -3.4080 C   0  0  0  0  0  0  0  0  0  0  0  0
   -1.0670   14.7370   -2.6070 N   0  0  0  0  0  0  0  0  0  0  0  0
    0.2450   14.9170   -3.2800 C   0  0  0  0  0  0  0  0  0  0  0  0
   -1.0780   15.2090   -1.2210 C   0  0  1  0  0  0  0  0  0  0  0  0
    0.2600   14.4940   -4.7710 C   0  0  0  0  0  0  0  0  0  0  0  0
   -2.4020   15.4710   -0.4910 C   0  0  2  0  0  0  0  0  0  0  0  0
   -0.1910   14.3860   -0.4070 N   0  0  0  0  0  0  0  0  0  0  0  0
    0.8850   13.0910   -4.9800 C   0  0  2  0  0  0  0  0  0  0  0  0
   -2.3910   14.7950    0.8300 C   0  0  1  0  0  0  0  0  0  0  0  0
   -0.0150   14.7600    0.9800 C   0  0  0  0  0  0  0  0  0  0  0  0
   -3.7890   15.0880   -0.9720 C   0  0  0  0  0  0  0  0  0  0  0  0
   -0.1620   12.1750   -5.2280 O   0  0  0  0  0  0  0  0  0  0  0  0
    1.4100   12.6310   -3.8580 O   0  0  0  0  0  0  0  0  0  0  0  0
   -1.2660   15.1130    1.6100 N   0  0  0  0  0  0  0  0  0  0  0  0
   -3.6430   15.1340    1.4170 N   0  0  0  0  0  0  0  0  0  0  0  0
   -4.4920   14.6650    0.3360 C   0  0  1  0  0  0  0  0  0  0  0  0
   -5.7780   15.2380    0.4960 N   0  0  0  0  0  0  0  0  0  0  0  0
   -7.0720   14.4280    1.0670 S   0  0  0  0  0  0  0  0  0  0  0  0
   -8.0260   15.0360    2.4150 C   0  0  0  0  0  0  0  0  0  0  0  0
   -6.5780   13.0140    1.6210 O   0  0  0  0  0  0  0  0  0  0  0  0
   -8.1280   14.1360   -0.0950 O   0  0  0  0  0  0  0  0  0  0  0  0
  1  2  1  0
  2  3  1  0
  4  2  1  6
  3  5  1  0
  4  6  1  0
  4  7  1  0
  5  8  1  0
  6  9  1  0
  7 10  1  0
  6 11  1  6
  8 12  1  1
  8 13  1  0
  9 14  1  1
 10 14  1  0
  9 15  1  0
 11 16  1  0
 15 16  1  0
 16 17  1  1
 17 18  1  0
 18 19  1  0
 18 20  1  0
 18 21  1  0
M  CHG  1  13  -1
M  END
