ucsf260-ucsf333
     RDKit          3D

 24 27  0  0  0  0  0  0  0  0999 V2000
    1.1740   11.4520   -2.6120 O   0  0  0  0  0  0  0  0  0  0  0  0
    1.7310   12.6060   -2.9340 C   0  0  1  0  0  0  0  0  0  0  0  0
    3.0960   12.3830   -2.8330 O   0  0  0  0  0  0  0  0  0  0  0  0
    1.3670   12.9050   -4.3860 C   0  0  0  0  0  0  0  0  0  0  0  0
   -0.1560   12.8230   -4.4140 C   0  0  2  0  0  0  0  0  0  0  0  0
   -0.8190   12.3870   -5.6840 N   0  0  0  0  0  0  0  0  0  0  0  0
   -0.7350   13.9350   -3.4430 C   0  0  1  0  0  0  0  0  0  0  0  0
   -2.2190   12.1240   -5.3840 C   0  0  0  0  0  0  0  0  0  0  0  0
   -0.2430   11.1300   -6.2100 C   0  0  1  0  0  0  0  0  0  0  0  0
   -2.0360   14.5680   -3.7530 N   0  0  0  0  0  0  0  0  0  0  0  0
   -0.8500   13.2980   -1.7030 S   0  0  0  0  0  0  0  0  0  0  0  0
   -2.5500   10.7350   -5.6840 N   0  0  0  0  0  0  0  0  0  0  0  0
   -1.3250   10.0450   -6.0660 C   0  0  1  0  0  0  0  0  0  0  0  0
    0.3710   11.1690   -7.6080 C   0  0  0  0  0  0  0  0  0  0  0  0
   -2.7400   14.9470   -2.5100 C   0  0  2  0  0  0  0  0  0  0  0  0
   -1.8250   14.7130   -1.2790 C   0  0  1  0  0  0  0  0  0  0  0  0
   -1.5770    9.2050   -7.3210 C   0  0  0  0  0  0  0  0  0  0  0  0
    0.7200    9.7990   -8.2090 C   0  0  0  0  0  0  0  0  0  0  0  0
   -4.0830   14.2430   -2.3830 C   0  0  0  0  0  0  0  0  0  0  0  0
   -2.5940   14.6720    0.0500 C   0  0  0  0  0  0  0  0  0  0  0  0
   -0.2880    8.6870   -7.9310 C   0  0  0  0  0  0  0  0  0  0  0  0
   -4.8500   14.6160   -1.1020 C   0  0  1  0  0  0  0  0  0  0  0  0
   -3.9850   15.3130   -0.0580 C   0  0  0  0  0  0  0  0  0  0  0  0
   -6.3040   15.5730   -1.4800 Cl  0  0  0  0  0  0  0  0  0  0  0  0
  2  1  1  6
  2  3  1  0
  2  4  1  0
  5  4  1  6
  5  6  1  0
  5  7  1  0
  6  8  1  0
  6  9  1  0
  7 10  1  6
  7 11  1  0
  8 12  1  0
  9 13  1  0
 12 13  1  0
  9 14  1  6
 10 15  1  0
 11 16  1  0
 15 16  1  0
 13 17  1  6
 14 18  1  0
 15 19  1  1
 16 20  1  1
 17 21  1  0
 18 21  1  0
 19 22  1  0
 20 23  1  0
 22 23  1  0
 22 24  1  6
M  CHG  1   1  -1
M  END
