ucsf339-ucsf110
     RDKit          3D

 21 23  0  0  0  0  0  0  0  0999 V2000
    1.6460   14.0720   -2.9490 O   0  0  0  0  0  0  0  0  0  0  0  0
    0.5400   13.4420   -2.5740 C   0  0  1  0  0  0  0  0  0  0  0  0
    0.8870   13.0860   -1.2490 O   0  0  0  0  0  0  0  0  0  0  0  0
   -0.6550   14.4680   -2.6540 C   0  0  2  0  0  0  0  0  0  0  0  0
   -1.5490   14.6720   -1.3440 C   0  0  2  0  0  0  0  0  0  0  0  0
   -1.5220   14.1590   -3.9160 C   0  0  0  0  0  0  0  0  0  0  0  0
   -3.0430   14.6100   -1.8210 C   0  0  2  0  0  0  0  0  0  0  0  0
   -2.6120   15.1070   -4.2010 N   0  0  0  0  0  0  0  0  0  0  0  0
   -1.1330   15.9850   -0.7530 N   0  0  0  0  0  0  0  0  0  0  0  0
   -1.3540   13.6400   -0.2130 C   0  0  0  0  0  0  0  0  0  0  0  0
   -3.2670   15.5630   -2.9910 C   0  0  0  0  0  0  0  0  0  0  0  0
   -4.1250   14.6260   -0.6960 C   0  0  0  0  0  0  0  0  0  0  0  0
   -1.8450   14.1150    1.1650 C   0  0  2  0  0  0  0  0  0  0  0  0
   -0.5000   15.8360    0.5320 C   0  0  0  0  0  0  0  0  0  0  0  0
   -3.2780   14.0440    1.3550 N   0  0  0  0  0  0  0  0  0  0  0  0
   -4.1730   15.8300    0.2340 C   0  0  0  0  0  0  0  0  0  0  0  0
   -5.5630   14.3360   -1.1310 C   0  0  0  0  0  0  0  0  0  0  0  0
   -1.5650   15.4690    1.4020 N   0  0  0  0  0  0  0  0  0  0  0  0
   -4.6300   15.3690    1.5980 C   0  0  0  0  0  0  0  0  0  0  0  0
   -6.5180   14.4430    0.0710 C   0  0  0  0  0  0  0  0  0  0  0  0
   -5.8590   14.4540    1.4640 C   0  0  0  0  0  0  0  0  0  0  0  0
  2  1  1  1
  2  3  1  0
  2  4  1  0
  4  5  1  0
  4  6  1  6
  5  7  1  0
  6  8  1  0
  5  9  1  0
  5 10  1  1
  7 11  1  0
  8 11  1  0
  7 12  1  1
 10 13  1  0
  9 14  1  0
 13 15  1  6
 12 16  1  0
 12 17  1  0
 13 18  1  0
 14 18  1  0
 16 19  1  0
 17 20  1  0
 19 21  1  0
 20 21  1  0
M  CHG  1   1  -1
M  END
