ucsf336-ucsf348
     RDKit          3D

 26 28  0  0  0  0  0  0  0  0999 V2000
    1.2610   13.7060   -4.0850 O   0  0  0  0  0  0  0  0  0  0  0  0
    1.3930   12.6190   -3.3360 C   0  0  1  0  0  0  0  0  0  0  0  0
    1.1520   12.9380   -1.9520 O   0  0  0  0  0  0  0  0  0  0  0  0
    0.2830   11.5460   -3.7890 C   0  0  1  0  0  0  0  0  0  0  0  0
   -0.8510   11.7430   -2.9720 O   0  0  0  0  0  0  0  0  0  0  0  0
   -0.0540   11.6250   -5.2150 N   0  0  0  0  0  0  0  0  0  0  0  0
    0.5900   14.2240   -1.6960 C   0  0  0  0  0  0  0  0  0  0  0  0
   -0.2350   14.2300   -0.3880 C   0  0  0  0  0  0  0  0  0  0  0  0
   -0.6450   10.4050   -5.7430 C   0  0  0  0  0  0  0  0  0  0  0  0
   -0.4390   10.2450   -7.2530 C   0  0  0  0  0  0  0  0  0  0  0  0
   -2.1430   10.4030   -5.4150 C   0  0  0  0  0  0  0  0  0  0  0  0
   -1.7890   14.1640   -0.4920 C   0  0  1  0  0  0  0  0  0  0  0  0
   -1.0920    8.9600   -7.7570 C   0  0  0  0  0  0  0  0  0  0  0  0
   -2.7950    9.1070   -5.8800 C   0  0  0  0  0  0  0  0  0  0  0  0
   -2.4850   14.8220    0.7080 C   0  0  0  0  0  0  0  0  0  0  0  0
   -2.2650   14.6070   -1.8860 C   0  0  0  0  0  0  0  0  0  0  0  0
   -2.5670    8.8620   -7.3680 C   0  0  0  0  0  0  0  0  0  0  0  0
   -3.9840   15.1380    0.5950 C   0  0  1  0  0  0  0  0  0  0  0  0
   -3.6800   15.1700   -2.0500 C   0  0  0  0  0  0  0  0  0  0  0  0
   -4.5570   15.4270   -0.8050 C   0  0  1  0  0  0  0  0  0  0  0  0
   -4.8340   14.0870    1.1780 N   0  0  0  0  0  0  0  0  0  0  0  0
   -6.0970   14.6840    1.4090 C   0  0  2  0  0  0  0  0  0  0  0  0
   -5.8710   14.6350   -0.9460 C   0  0  2  0  0  0  0  0  0  0  0  0
   -6.8350   13.7630    2.1840 N   0  0  0  0  0  0  0  0  0  0  0  0
   -6.5190   14.9710   -2.1640 O   0  0  0  0  0  0  0  0  0  0  0  0
   -6.7960   14.8110    0.1730 N   0  0  0  0  0  0  0  0  0  0  0  0
  2  1  1  6
  2  3  1  0
  2  4  1  0
  4  5  1  1
  4  6  1  0
  3  7  1  0
  7  8  1  0
  6  9  1  0
  9 10  1  0
  9 11  1  0
 12  8  1  6
 10 13  1  0
 11 14  1  0
 12 15  1  0
 12 16  1  0
 13 17  1  0
 14 17  1  0
 18 15  1  6
 16 19  1  0
 18 20  1  0
 20 19  1  6
 18 21  1  0
 21 22  1  0
 20 23  1  0
 22 24  1  1
 23 25  1  6
 22 26  1  0
 23 26  1  0
M  CHG  1   1  -1
M  END
