ucsf124-ucsf511
     RDKit          3D

 28 32  0  0  0  0  0  0  0  0999 V2000
    0.7180   10.7240   -2.2760 O   0  0  0  0  0  0  0  0  0  0  0  0
    0.3670   11.9110   -2.7860 C   0  0  1  0  0  0  0  0  0  0  0  0
    0.9200   12.9390   -1.9410 O   0  0  0  0  0  0  0  0  0  0  0  0
    1.0400   12.0840   -4.2040 C   0  0  0  0  0  0  0  0  0  0  0  0
    0.2170   11.6710   -5.3620 N   0  0  0  0  0  0  0  0  0  0  0  0
    0.1480   14.1530   -1.9290 C   0  0  2  0  0  0  0  0  0  0  0  0
   -0.9120   10.7930   -5.0670 C   0  0  1  0  0  0  0  0  0  0  0  0
    1.0370   10.9460   -6.3100 C   0  0  2  0  0  0  0  0  0  0  0  0
   -1.3560   13.9150   -1.6430 C   0  0  2  0  0  0  0  0  0  0  0  0
    0.4120   14.9120   -3.1890 N   0  0  0  0  0  0  0  0  0  0  0  0
   -2.0280   11.4350   -4.4960 O   0  0  0  0  0  0  0  0  0  0  0  0
    1.5250   11.8680   -7.2400 O   0  0  0  0  0  0  0  0  0  0  0  0
   -1.2480   10.2840   -6.4580 C   0  0  1  0  0  0  0  0  0  0  0  0
    0.1450    9.8670   -6.9270 C   0  0  1  0  0  0  0  0  0  0  0  0
   -2.2460   13.9320   -2.9000 C   0  0  2  0  0  0  0  0  0  0  0  0
   -0.4900   14.6130   -4.2860 C   0  0  0  0  0  0  0  0  0  0  0  0
   -1.9740   14.8700   -0.7340 O   0  0  0  0  0  0  0  0  0  0  0  0
   -2.2520    9.1460   -6.5960 C   0  0  0  0  0  0  0  0  0  0  0  0
    0.1550    9.6370   -8.4270 C   0  0  0  0  0  0  0  0  0  0  0  0
   -1.8360   14.9550   -3.8830 N   0  0  0  0  0  0  0  0  0  0  0  0
   -3.3370   14.4770   -0.8020 C   0  0  2  0  0  0  0  0  0  0  0  0
   -3.6210   14.2100   -2.2880 C   0  0  1  0  0  0  0  0  0  0  0  0
   -1.7650    8.1180   -7.6240 C   0  0  0  0  0  0  0  0  0  0  0  0
   -1.0210    8.7310   -8.8200 C   0  0  0  0  0  0  0  0  0  0  0  0
   -4.5480   15.2050   -2.9100 C   0  0  0  0  0  0  0  0  0  0  0  0
   -4.2860   15.4400   -0.0790 C   0  0  0  0  0  0  0  0  0  0  0  0
   -5.8620   15.2280   -2.1450 C   0  0  0  0  0  0  0  0  0  0  0  0
   -5.6640   15.7060   -0.7220 C   0  0  0  0  0  0  0  0  0  0  0  0
  2  1  1  1
  2  3  1  0
  2  4  1  0
  4  5  1  0
  6  3  1  6
  5  7  1  0
  5  8  1  0
  6  9  1  0
  6 10  1  0
  7 11  1  6
  8 12  1  6
  7 13  1  0
  8 14  1  0
 13 14  1  0
  9 15  1  0
 10 16  1  0
  9 17  1  1
 13 18  1  1
 14 19  1  6
 15 20  1  6
 16 20  1  0
 17 21  1  0
 15 22  1  0
 21 22  1  0
 18 23  1  0
 19 24  1  0
 23 24  1  0
 22 25  1  6
 21 26  1  6
 25 27  1  0
 26 28  1  0
 27 28  1  0
M  CHG  1   1  -1
M  END
