ucsf340-ucsf511
     RDKit          3D

 28 32  0  0  0  0  0  0  0  0999 V2000
    1.0360   18.2210   -5.5110 C   0  0  0  0  0  0  0  0  0  0  0  0
    0.3540   16.9500   -5.5130 N   0  0  0  0  0  0  0  0  0  0  0  0
    1.0440   15.8660   -4.7730 C   0  0  0  0  0  0  0  0  0  0  0  0
   -1.0260   16.9170   -5.0300 C   0  0  2  0  0  0  0  0  0  0  0  0
   -0.0200   14.7800   -4.8610 C   0  0  2  0  0  0  0  0  0  0  0  0
   -1.1380   15.6150   -4.1940 C   0  0  2  0  0  0  0  0  0  0  0  0
   -2.1790   17.2380   -5.9880 C   0  0  0  0  0  0  0  0  0  0  0  0
    0.2950   13.2500   -4.5770 C   0  0  0  0  0  0  0  0  0  0  0  0
   -2.5860   15.1110   -4.1610 C   0  0  0  0  0  0  0  0  0  0  0  0
   -3.2380   16.1570   -6.3000 C   0  0  0  0  0  0  0  0  0  0  0  0
    0.9170   12.6710   -3.2450 C   0  0  0  0  0  0  0  0  0  0  0  0
   -3.1160   14.8660   -5.5360 C   0  0  0  0  0  0  0  0  0  0  0  0
   -0.0010   11.7490   -2.3190 C   0  0  2  0  0  0  0  0  0  0  0  0
   -0.0640   12.3300   -1.0020 O   0  0  0  0  0  0  0  0  0  0  0  0
    0.5290   10.5350   -2.1680 O   0  0  0  0  0  0  0  0  0  0  0  0
   -0.0280   13.7520   -0.9120 C   0  0  2  0  0  0  0  0  0  0  0  0
   -1.4110   14.3840   -0.8240 C   0  0  1  0  0  0  0  0  0  0  0  0
    0.4600   14.3270   -2.1720 N   0  0  0  0  0  0  0  0  0  0  0  0
   -2.2890   13.8280   -1.9430 C   0  0  2  0  0  0  0  0  0  0  0  0
   -0.2370   13.6630   -3.2450 C   0  0  0  0  0  0  0  0  0  0  0  0
   -2.2440   14.4110    0.3610 O   0  0  0  0  0  0  0  0  0  0  0  0
   -1.6780   13.9610   -3.2670 N   0  0  0  0  0  0  0  0  0  0  0  0
   -3.5800   14.2910   -0.1610 C   0  0  2  0  0  0  0  0  0  0  0  0
   -3.4860   14.6890   -1.6290 C   0  0  2  0  0  0  0  0  0  0  0  0
   -4.8000   14.5170   -2.3890 C   0  0  0  0  0  0  0  0  0  0  0  0
   -4.6520   15.1220    0.5160 C   0  0  0  0  0  0  0  0  0  0  0  0
   -5.9810   15.1620   -1.6320 C   0  0  0  0  0  0  0  0  0  0  0  0
   -5.9900   14.7770   -0.1550 C   0  0  0  0  0  0  0  0  0  0  0  0
  1  2  1  0
  2  3  1  0
  2  4  1  0
  3  5  1  0
  4  6  1  0
  5  6  1  0
  4  7  1  6
  5  8  1  1
  6  9  1  6
  7 10  1  0
  8 11  1  0
  9 12  1  0
 10 12  1  0
 11 13  1  0
 13 14  1  0
 13 15  1  1
 16 14  1  6
 16 17  1  0
 16 18  1  0
 17 19  1  0
 18 20  1  0
 17 21  1  1
 19 22  1  6
 20 22  1  0
 21 23  1  0
 19 24  1  0
 23 24  1  0
 24 25  1  6
 23 26  1  1
 25 27  1  0
 26 28  1  0
 27 28  1  0
M  CHG  1  15  -1
M  END
