ucsf248-ucsf135
     RDKit          3D

 27 30  0  0  0  0  0  0  0  0999 V2000
   -7.9800   12.5660    2.9020 N   0  0  0  0  0  0  0  0  0  0  0  0
   -8.4400   13.9960    2.2210 S   0  0  0  0  0  0  0  0  0  0  0  0
   -8.4560   15.1400    3.3420 O   0  0  0  0  0  0  0  0  0  0  0  0
   -9.8950   13.9700    1.5590 O   0  0  0  0  0  0  0  0  0  0  0  0
   -7.3350   14.6850    0.9680 C   0  0  1  0  0  0  0  0  0  0  0  0
   -5.9680   14.9090    1.4910 N   0  0  0  0  0  0  0  0  0  0  0  0
   -7.1860   14.0020   -0.3100 N   0  0  0  0  0  0  0  0  0  0  0  0
   -5.1060   14.5360    0.3780 C   0  0  1  0  0  0  0  0  0  0  0  0
   -6.0620   14.8270   -0.7660 C   0  0  1  0  0  0  0  0  0  0  0  0
   -3.7950   15.2920    0.2720 C   0  0  0  0  0  0  0  0  0  0  0  0
   -5.4850   14.5470   -2.1530 C   0  0  0  0  0  0  0  0  0  0  0  0
   -3.2860   15.3200   -1.1760 C   0  0  0  0  0  0  0  0  0  0  0  0
   -3.9550   14.3200   -2.1040 C   0  0  2  0  0  0  0  0  0  0  0  0
   -3.3030   14.2330   -3.5080 C   0  0  0  0  0  0  0  0  0  0  0  0
   -1.8980   13.6090   -3.6030 C   0  0  0  0  0  0  0  0  0  0  0  0
   -1.9750   12.1960   -3.7630 O   0  0  0  0  0  0  0  0  0  0  0  0
   -0.7680   11.3310   -4.3730 S   0  0  2  0  0  0  0  0  0  0  0  0
   -0.2550   10.2340   -3.3370 O   0  0  0  0  0  0  0  0  0  0  0  0
    0.4420   12.1740   -5.1310 N   0  0  0  0  0  0  0  0  0  0  0  0
   -1.4670   10.4530   -5.7650 C   0  0  1  0  0  0  0  0  0  0  0  0
    0.4320   11.8560   -6.5580 C   0  0  2  0  0  0  0  0  0  0  0  0
   -0.2880   10.4820   -6.7450 C   0  0  2  0  0  0  0  0  0  0  0  0
   -1.9780    9.0390   -5.5820 C   0  0  0  0  0  0  0  0  0  0  0  0
    1.7640   11.7860   -6.9900 O   0  0  0  0  0  0  0  0  0  0  0  0
   -2.4620    8.4990   -6.9320 C   0  0  0  0  0  0  0  0  0  0  0  0
   -0.8220   10.1550   -8.1300 C   0  0  0  0  0  0  0  0  0  0  0  0
   -1.4860    8.7640   -8.1020 C   0  0  0  0  0  0  0  0  0  0  0  0
  1  2  1  0
  2  3  1  0
  2  4  1  0
  5  2  1  1
  5  6  1  0
  5  7  1  0
  6  8  1  0
  7  9  1  0
  8  9  1  0
  8 10  1  6
  9 11  1  6
 10 12  1  0
 11 13  1  0
 12 13  1  0
 13 14  1  6
 14 15  1  0
 15 16  1  0
 17 16  1  0
 17 18  1  1
 17 19  1  0
 17 20  1  0
 19 21  1  0
 20 22  1  0
 21 22  1  0
 20 23  1  1
 21 24  1  1
 23 25  1  0
 22 26  1  6
 25 27  1  0
 26 27  1  0
M  END
