ucsf005-ucsf039
     RDKit          3D

 18 20  0  0  0  0  0  0  0  0999 V2000
   -1.0620   14.6720   -3.4270 C   0  0  0  0  0  0  0  0  0  0  0  0
   -2.0470   15.0960   -2.4350 N   0  0  0  0  0  0  0  0  0  0  0  0
   -3.4480   15.2350   -2.8060 C   0  0  0  0  0  0  0  0  0  0  0  0
   -0.4890   15.6770   -4.4980 C   0  0  2  0  0  0  0  0  0  0  0  0
   -2.0830   14.5450   -1.0900 C   0  0  2  0  0  0  0  0  0  0  0  0
    0.7140   16.4530   -3.9520 C   0  0  0  0  0  0  0  0  0  0  0  0
   -1.4770   16.6410   -5.0450 N   0  0  0  0  0  0  0  0  0  0  0  0
   -4.1990   15.3170   -1.5320 N   0  0  0  0  0  0  0  0  0  0  0  0
   -3.0850   15.5540   -0.5770 C   0  0  1  0  0  0  0  0  0  0  0  0
   -0.8130   14.5680   -0.3840 N   0  0  0  0  0  0  0  0  0  0  0  0
   -0.8960   17.9770   -5.1960 C   0  0  1  0  0  0  0  0  0  0  0  0
    0.8870   17.8420   -5.0790 S   0  0  0  0  0  0  0  0  0  0  0  0
   -1.2870   18.5980   -6.5300 C   0  0  0  0  0  0  0  0  0  0  0  0
   -3.3410   15.3920    0.9210 C   0  0  1  0  0  0  0  0  0  0  0  0
   -0.9470   14.8320    1.0110 C   0  0  2  0  0  0  0  0  0  0  0  0
   -4.6240   14.8130    1.2750 N   0  0  0  0  0  0  0  0  0  0  0  0
   -0.0410   14.0130    1.7410 N   0  0  0  0  0  0  0  0  0  0  0  0
   -2.2700   14.6370    1.5360 N   0  0  0  0  0  0  0  0  0  0  0  0
  1  2  1  0
  2  3  1  0
  4  1  1  1
  2  5  1  0
  4  6  1  0
  4  7  1  0
  3  8  1  0
  5  9  1  0
  9  8  1  6
  5 10  1  1
  7 11  1  0
  6 12  1  0
 11 12  1  0
 11 13  1  6
  9 14  1  0
 10 15  1  0
 14 16  1  6
 15 17  1  1
 14 18  1  0
 15 18  1  0
M  END
