ucsf404-ucsf278
     RDKit          3D

 23 26  0  0  0  0  0  0  0  0999 V2000
   -6.4450   15.5630   -2.0480 Cl  0  0  0  0  0  0  0  0  0  0  0  0
   -5.3750   14.1870   -1.6550 C   0  0  2  0  0  0  0  0  0  0  0  0
   -5.2480   13.9340   -0.1370 C   0  0  2  0  0  0  0  0  0  0  0  0
   -4.0390   14.2300   -2.4210 C   0  0  0  0  0  0  0  0  0  0  0  0
   -6.2910   14.5740    0.6780 N   0  0  0  0  0  0  0  0  0  0  0  0
   -3.8790   14.2660    0.4840 C   0  0  2  0  0  0  0  0  0  0  0  0
   -2.8350   14.8740   -1.7030 C   0  0  2  0  0  0  0  0  0  0  0  0
   -1.5430   14.0360   -1.7530 C   0  0  0  0  0  0  0  0  0  0  0  0
   -5.8660   14.3030    1.9990 C   0  0  1  0  0  0  0  0  0  0  0  0
   -4.2400   15.0130    2.0700 S   0  0  0  0  0  0  0  0  0  0  0  0
   -3.1100   15.2770   -0.2670 C   0  0  0  0  0  0  0  0  0  0  0  0
   -6.7780   14.9250    2.8890 N   0  0  0  0  0  0  0  0  0  0  0  0
   -0.5950   14.4530   -2.8980 C   0  0  2  0  0  0  0  0  0  0  0  0
   -0.1850   13.2310   -3.6850 C   0  0  1  0  0  0  0  0  0  0  0  0
    0.6590   15.2330   -2.5020 C   0  0  0  0  0  0  0  0  0  0  0  0
   -1.2590   12.3180   -4.2210 C   0  0  0  0  0  0  0  0  0  0  0  0
    0.5200   13.6250   -4.9480 C   0  0  2  0  0  0  0  0  0  0  0  0
    1.9400   14.6840   -3.1430 C   0  0  0  0  0  0  0  0  0  0  0  0
   -0.4240   11.4930   -5.1920 C   0  0  2  0  0  0  0  0  0  0  0  0
    0.7120   12.3460   -5.6380 N   0  0  0  0  0  0  0  0  0  0  0  0
    1.8030   14.3580   -4.6170 C   0  0  0  0  0  0  0  0  0  0  0  0
   -1.2460   10.9200   -6.3420 C   0  0  0  0  0  0  0  0  0  0  0  0
   -2.4100   10.2850   -5.8140 O   0  0  0  0  0  0  0  0  0  0  0  0
  2  1  1  1
  2  3  1  0
  2  4  1  0
  3  5  1  1
  3  6  1  0
  4  7  1  0
  7  8  1  1
  5  9  1  0
  6 10  1  0
  9 10  1  0
  6 11  1  6
  7 11  1  0
  9 12  1  1
 13  8  1  1
 13 14  1  0
 13 15  1  0
 14 16  1  6
 14 17  1  0
 15 18  1  0
 16 19  1  0
 17 20  1  0
 19 20  1  0
 17 21  1  1
 18 21  1  0
 19 22  1  6
 22 23  1  0
M  END
