ucsf520-ucsf170
     RDKit          3D

 20 22  0  0  0  0  0  0  0  0999 V2000
   -4.4480   15.0830    0.4560 N   0  0  0  0  0  0  0  0  0  0  0  0
   -4.1740   15.7120    1.9410 S   0  0  0  0  0  0  0  0  0  0  0  0
   -3.4570   15.3810   -0.5580 C   0  0  2  0  0  0  0  0  0  0  0  0
   -3.7420   14.6620   -1.7830 N   0  0  0  0  0  0  0  0  0  0  0  0
   -1.9610   15.3140   -0.1520 C   0  0  2  0  0  0  0  0  0  0  0  0
   -2.6210   14.9270   -2.6800 C   0  0  2  0  0  0  0  0  0  0  0  0
   -1.3570   14.0980   -0.8300 C   0  0  1  0  0  0  0  0  0  0  0  0
   -1.5120   15.1770    1.2380 N   0  0  0  0  0  0  0  0  0  0  0  0
   -2.9820   14.5710   -4.0010 O   0  0  0  0  0  0  0  0  0  0  0  0
   -1.4570   14.1600   -2.2800 N   0  0  0  0  0  0  0  0  0  0  0  0
   -0.0160   14.0930   -0.2540 N   0  0  0  0  0  0  0  0  0  0  0  0
   -0.1790   14.6100    1.0930 C   0  0  0  0  0  0  0  0  0  0  0  0
   -0.2010   14.4080   -2.9930 C   0  0  1  0  0  0  0  0  0  0  0  0
    0.8940   14.2300   -2.1100 O   0  0  0  0  0  0  0  0  0  0  0  0
    0.1010   13.4940   -3.8840 O   0  0  0  0  0  0  0  0  0  0  0  0
   -0.0710   15.8420   -3.6840 C   0  0  2  0  0  0  0  0  0  0  0  0
   -1.2890   16.5000   -4.1440 O   0  0  0  0  0  0  0  0  0  0  0  0
    0.8410   15.8740   -4.8940 C   0  0  0  0  0  0  0  0  0  0  0  0
    0.6160   17.2800   -5.3790 C   0  0  0  0  0  0  0  0  0  0  0  0
   -0.8420   17.5270   -5.0390 C   0  0  0  0  0  0  0  0  0  0  0  0
  1  2  1  0
  3  1  1  1
  3  4  1  0
  3  5  1  0
  4  6  1  0
  5  7  1  0
  5  8  1  1
  6  9  1  6
  6 10  1  0
  7 10  1  0
  7 11  1  6
  8 12  1  0
 11 12  1  0
 10 13  1  0
 13 14  1  1
 13 15  1  0
 13 16  1  0
 16 17  1  0
 16 18  1  6
 18 19  1  0
 17 20  1  0
 19 20  1  0
M  CHG  1  15  -1
M  END
