ucsf387-ucsf173
     RDKit          3D

 16 17  0  0  0  0  0  0  0  0999 V2000
    0.6450   17.8700   -3.7140 Cl  0  0  0  0  0  0  0  0  0  0  0  0
    0.1390   16.5310   -4.8100 C   0  0  2  0  0  0  0  0  0  0  0  0
    1.3090   15.5810   -5.0130 C   0  0  0  0  0  0  0  0  0  0  0  0
   -0.3530   17.4840   -5.9450 C   0  0  0  0  0  0  0  0  0  0  0  0
   -0.9090   15.5980   -4.1990 C   0  0  2  0  0  0  0  0  0  0  0  0
    0.8050   14.1160   -4.8600 C   0  0  2  0  0  0  0  0  0  0  0  0
   -0.7100   14.2430   -4.8850 C   0  0  0  0  0  0  0  0  0  0  0  0
   -2.1720   16.3300   -4.4340 C   0  0  1  0  0  0  0  0  0  0  0  0
   -1.8740   17.5660   -6.2580 C   0  0  0  0  0  0  0  0  0  0  0  0
   -3.4670   15.7260   -3.3320 Cl  0  0  0  0  0  0  0  0  0  0  0  0
    1.3700   13.2110   -3.7200 C   0  0  0  0  0  0  0  0  0  0  0  0
   -1.7460   17.7870   -4.5280 C   0  0  0  0  0  0  0  0  0  0  0  0
   -2.6530   16.3170   -5.8100 C   0  0  0  0  0  0  0  0  0  0  0  0
    0.3620   12.5240   -2.7380 C   0  0  1  0  0  0  0  0  0  0  0  0
    0.5420   11.2190   -2.7290 O   0  0  0  0  0  0  0  0  0  0  0  0
    0.6910   12.8060   -1.3880 O   0  0  0  0  0  0  0  0  0  0  0  0
  2  1  1  1
  2  3  1  0
  2  4  1  0
  2  5  1  0
  3  6  1  0
  5  7  1  6
  6  7  1  0
  5  8  1  0
  4  9  1  0
  8 10  1  0
  6 11  1  1
  8 12  1  1
  8 13  1  0
  9 13  1  0
 11 14  1  0
 14 15  1  1
 14 16  1  0
M  CHG  1  15  -1
M  END
