ucsf172-ucsf584
     RDKit          3D

 18 19  0  0  0  0  0  0  0  0999 V2000
   -8.1710   14.5400    3.0520 C   0  0  0  0  0  0  0  0  0  0  0  0
   -7.1090   13.7770    1.8020 S   0  0  0  0  0  0  0  0  0  0  0  0
   -6.8780   12.1550    2.5760 O   0  0  0  0  0  0  0  0  0  0  0  0
   -8.0610   13.2750    0.5960 O   0  0  0  0  0  0  0  0  0  0  0  0
   -5.9510   14.3700    1.6680 N   0  0  0  0  0  0  0  0  0  0  0  0
   -5.5840   15.0750   -0.3390 S   0  0  0  0  0  0  0  0  0  0  0  0
   -3.8320   15.1880    0.0410 C   0  0  0  0  0  0  0  0  0  0  0  0
   -4.8270   13.8040   -1.3840 C   0  0  0  0  0  0  0  0  0  0  0  0
   -7.1320   15.3640   -0.8360 N   0  0  0  0  0  0  0  0  0  0  0  0
   -6.9450   15.5780   -0.6430 N   0  0  0  0  0  0  0  0  0  0  0  0
   -2.7370   14.7880   -0.8860 C   0  0  0  0  0  0  0  0  0  0  0  0
   -4.1240   14.2090   -2.5120 C   0  0  0  0  0  0  0  0  0  0  0  0
   -7.9770   14.4500   -0.7180 C   0  0  0  0  0  0  0  0  0  0  0  0
   -8.2790   15.3080    0.0330 C   0  0  0  0  0  0  0  0  0  0  0  0
   -2.9160   14.9850   -2.3030 C   0  0  0  0  0  0  0  0  0  0  0  0
   -1.6620   14.6840   -3.0850 C   0  0  1  0  0  0  0  0  0  0  0  0
   -1.1710   13.4170   -2.9280 O   0  0  0  0  0  0  0  0  0  0  0  0
   -2.0560   14.8370   -4.4460 O   0  0  0  0  0  0  0  0  0  0  0  0
  1  2  1  0
  2  3  1  0
  2  4  1  0
  2  5  1  0
  5  6  1  0
  6  7  1  0
  6  8  1  0
  6  9  1  0
  6 10  1  0
  7 11  1  0
  8 12  1  0
 10 13  1  0
  9 14  1  0
 13 14  1  0
 11 15  1  0
 12 15  1  0
 15 16  1  0
 16 17  1  6
 16 18  1  0
M  CHG  1  18  -1
M  END
