ucsf303-ucsf411
     RDKit          3D

 31 34  0  0  0  0  0  0  0  0999 V2000
   -2.7640   13.5580   -3.0210 O   0  0  0  0  0  0  0  0  0  0  0  0
   -4.0590   14.2470   -2.3830 S   0  0  1  0  0  0  0  0  0  0  0  0
   -4.2580   15.5320   -3.3100 O   0  0  0  0  0  0  0  0  0  0  0  0
   -5.2360   13.1400   -2.4700 N   0  0  0  0  0  0  0  0  0  0  0  0
   -3.4830   14.6400   -0.7650 C   0  0  0  0  0  0  0  0  0  0  0  0
   -3.8550   15.3600   -4.6760 C   0  0  0  0  0  0  0  0  0  0  0  0
   -5.0660   11.9190   -1.7880 C   0  0  1  0  0  0  0  0  0  0  0  0
   -2.0680   15.1860   -0.6100 C   0  0  0  0  0  0  0  0  0  0  0  0
   -4.5130   15.4580    0.0150 C   0  0  0  0  0  0  0  0  0  0  0  0
   -6.0350   10.9380   -2.2190 N   0  0  0  0  0  0  0  0  0  0  0  0
   -3.4430   11.2810   -2.2470 S   0  0  0  0  0  0  0  0  0  0  0  0
   -1.6550   15.0180    0.8480 C   0  0  0  0  0  0  0  0  0  0  0  0
   -4.0320   15.6170    1.4360 C   0  0  0  0  0  0  0  0  0  0  0  0
   -2.3970   15.0400   -4.6150 C   0  0  2  0  0  0  0  0  0  0  0  0
   -4.0610    9.6020   -2.3450 C   0  0  0  0  0  0  0  0  0  0  0  0
   -5.4880    9.5940   -1.9780 N   0  0  0  0  0  0  0  0  0  0  0  0
   -2.8850   14.6480    1.6700 C   0  0  0  0  0  0  0  0  0  0  0  0
   -1.4780   16.2770   -4.5000 C   0  0  1  0  0  0  0  0  0  0  0  0
   -2.0080   13.9220   -5.5790 C   0  0  0  0  0  0  0  0  0  0  0  0
   -0.0520   15.7940   -4.2200 C   0  0  1  0  0  0  0  0  0  0  0  0
   -0.5270   13.6060   -5.4270 C   0  0  0  0  0  0  0  0  0  0  0  0
   -1.5750   17.4200   -5.5190 C   0  0  0  0  0  0  0  0  0  0  0  0
    0.0410   14.2450   -4.1670 C   0  0  1  0  0  0  0  0  0  0  0  0
   -0.5130   18.4740   -5.2680 C   0  0  0  0  0  0  0  0  0  0  0  0
    0.9810   16.4240   -5.1450 C   0  0  0  0  0  0  0  0  0  0  0  0
    1.3820   13.8240   -3.9540 O   0  0  0  0  0  0  0  0  0  0  0  0
    0.9160   17.9470   -5.2810 C   0  0  0  0  0  0  0  0  0  0  0  0
    1.5110   12.4170   -3.6180 C   0  0  0  0  0  0  0  0  0  0  0  0
    0.4220   11.8950   -2.6120 C   0  0  1  0  0  0  0  0  0  0  0  0
    0.6120   10.6060   -2.3220 O   0  0  0  0  0  0  0  0  0  0  0  0
    0.6010   12.4910   -1.3390 O   0  0  0  0  0  0  0  0  0  0  0  0
  2  1  1  6
  2  3  1  0
  2  4  1  0
  2  5  1  0
  3  6  1  0
  7  4  1  6
  5  8  1  0
  5  9  1  0
  7 10  1  0
  7 11  1  0
  8 12  1  0
  9 13  1  0
 14  6  1  6
 11 15  1  0
 10 16  1  0
 15 16  1  0
 12 17  1  0
 13 17  1  0
 14 18  1  0
 14 19  1  0
 18 20  1  0
 19 21  1  0
 18 22  1  6
 20 23  1  0
 21 23  1  0
 22 24  1  0
 20 25  1  6
 23 26  1  6
 24 27  1  0
 25 27  1  0
 26 28  1  0
 28 29  1  0
 29 30  1  1
 29 31  1  0
M  CHG  1  30  -1
M  END
