ucsf169-ucsf173
     RDKit          3D

 17 18  0  0  0  0  0  0  0  0999 V2000
    1.1730   18.2180   -4.4380 C   0  0  0  0  0  0  0  0  0  0  0  0
   -0.1580   18.2390   -3.9650 O   0  0  0  0  0  0  0  0  0  0  0  0
   -0.4570   16.9540   -3.4060 C   0  0  0  0  0  0  0  0  0  0  0  0
   -0.4380   15.8950   -4.4650 C   0  0  2  0  0  0  0  0  0  0  0  0
   -0.4230   14.4750   -3.8030 C   0  0  2  0  0  0  0  0  0  0  0  0
    0.6980   16.3450   -5.3930 C   0  0  0  0  0  0  0  0  0  0  0  0
   -1.8080   15.9880   -5.1310 C   0  0  2  0  0  0  0  0  0  0  0  0
    0.5290   13.3100   -4.2080 C   0  0  0  0  0  0  0  0  0  0  0  0
   -2.0900   17.4230   -5.5770 C   0  0  1  0  0  0  0  0  0  0  0  0
   -2.7090   15.3620   -4.0860 C   0  0  0  0  0  0  0  0  0  0  0  0
   -1.9150   14.0980   -3.7550 C   0  0  0  0  0  0  0  0  0  0  0  0
    0.4500   17.7200   -6.0580 C   0  0  0  0  0  0  0  0  0  0  0  0
    1.0740   12.4110   -3.0560 C   0  0  1  0  0  0  0  0  0  0  0  0
   -2.1350   18.2970   -4.4700 O   0  0  0  0  0  0  0  0  0  0  0  0
   -0.9970   18.0650   -6.4170 C   0  0  0  0  0  0  0  0  0  0  0  0
    0.9390   13.0550   -1.8160 O   0  0  0  0  0  0  0  0  0  0  0  0
    0.2810   11.3800   -2.8570 O   0  0  0  0  0  0  0  0  0  0  0  0
  1  2  1  0
  2  3  1  0
  4  3  1  1
  4  5  1  0
  4  6  1  0
  4  7  1  0
  5  8  1  6
  7  9  1  0
  7 10  1  1
  5 11  1  0
 10 11  1  0
  6 12  1  0
  8 13  1  0
  9 14  1  1
  9 15  1  0
 12 15  1  0
 13 16  1  1
 13 17  1  0
M  CHG  1  17  -1
M  END
