ucsf241-ucsf371
     RDKit          3D

 12 13  0  0  0  0  0  0  0  0999 V2000
   -2.4290   15.6070   -3.0000 C   0  0  2  0  0  0  0  0  0  0  0  0
   -2.0480   14.6890   -4.0160 O   0  0  0  0  0  0  0  0  0  0  0  0
   -1.2630   16.1820   -2.7980 O   0  0  0  0  0  0  0  0  0  0  0  0
   -2.9730   14.8360   -1.7500 C   0  0  2  0  0  0  0  0  0  0  0  0
   -4.0950   15.4390   -0.8470 C   0  0  0  0  0  0  0  0  0  0  0  0
   -1.9070   14.4630   -0.7470 C   0  0  2  0  0  0  0  0  0  0  0  0
   -2.5710   14.5780    0.6190 C   0  0  2  0  0  0  0  0  0  0  0  0
   -3.5210   15.6540    0.5130 N   0  0  0  0  0  0  0  0  0  0  0  0
   -0.6530   15.3050   -0.7920 C   0  0  0  0  0  0  0  0  0  0  0  0
    0.3410   14.7150    0.1780 C   0  0  0  0  0  0  0  0  0  0  0  0
   -1.6450   14.8770    1.6700 N   0  0  0  0  0  0  0  0  0  0  0  0
   -0.3450   14.2350    1.4460 C   0  0  0  0  0  0  0  0  0  0  0  0
  1  2  1  6
  1  3  1  0
  1  4  1  0
  4  5  1  1
  4  6  1  0
  6  7  1  0
  5  8  1  0
  7  8  1  6
  6  9  1  1
  9 10  1  0
  7 11  1  0
 10 12  1  0
 11 12  1  0
M  CHG  1   3  -1
M  END
