ucsf411-ucsf365
     RDKit          3D

 16 17  0  0  0  0  0  0  0  0999 V2000
    0.5970   10.5720   -2.3130 O   0  0  0  0  0  0  0  0  0  0  0  0
    0.3180   11.8560   -2.5520 C   0  0  1  0  0  0  0  0  0  0  0  0
    0.5220   12.4600   -1.2920 O   0  0  0  0  0  0  0  0  0  0  0  0
    1.2800   12.5010   -3.6210 C   0  0  0  0  0  0  0  0  0  0  0  0
    1.0040   13.8950   -3.9260 O   0  0  0  0  0  0  0  0  0  0  0  0
    0.0980   14.1260   -5.0190 C   0  0  2  0  0  0  0  0  0  0  0  0
   -0.1040   15.6740   -5.1420 C   0  0  1  0  0  0  0  0  0  0  0  0
   -1.2360   13.3970   -4.7660 C   0  0  2  0  0  0  0  0  0  0  0  0
   -1.1370   11.9740   -4.8940 O   0  0  0  0  0  0  0  0  0  0  0  0
   -1.5470   16.2330   -4.9710 C   0  0  2  0  0  0  0  0  0  0  0  0
   -2.3720   13.8980   -5.6600 C   0  0  0  0  0  0  0  0  0  0  0  0
    0.8170   16.5020   -4.2410 C   0  0  0  0  0  0  0  0  0  0  0  0
   -2.6990   15.3860   -5.5100 C   0  0  0  0  0  0  0  0  0  0  0  0
   -1.6020   17.6730   -5.5150 C   0  0  0  0  0  0  0  0  0  0  0  0
    0.7050   18.0070   -4.5540 C   0  0  0  0  0  0  0  0  0  0  0  0
   -0.2150   18.2760   -5.7340 C   0  0  0  0  0  0  0  0  0  0  0  0
  2  1  1  1
  2  3  1  0
  2  4  1  0
  4  5  1  0
  6  5  1  1
  6  7  1  0
  6  8  1  0
  8  9  1  6
  7 10  1  0
  8 11  1  0
  7 12  1  1
 10 13  1  6
 11 13  1  0
 10 14  1  0
 12 15  1  0
 14 16  1  0
 15 16  1  0
M  CHG  1   1  -1
M  END
