ucsf012-ucsf380
     RDKit          3D

 21 23  0  0  0  0  0  0  0  0999 V2000
   -3.0960   15.3330   -4.0230 C   0  0  0  0  0  0  0  0  0  0  0  0
   -2.8080   14.6590   -2.6800 C   0  0  2  0  0  0  0  0  0  0  0  0
   -3.6560   15.2970   -1.5310 C   0  0  1  0  0  0  0  0  0  0  0  0
   -1.4660   14.7430   -2.0980 N   0  0  0  0  0  0  0  0  0  0  0  0
   -5.1530   15.1050   -1.6390 C   0  0  0  0  0  0  0  0  0  0  0  0
   -0.3050   14.0150   -2.5740 C   0  0  1  0  0  0  0  0  0  0  0  0
   -3.0290   14.6290   -0.3200 C   0  0  1  0  0  0  0  0  0  0  0  0
   -1.6030   14.3350   -0.7610 C   0  0  2  0  0  0  0  0  0  0  0  0
    1.1350   14.4480   -2.0350 C   0  0  2  0  0  0  0  0  0  0  0  0
   -2.9280   15.2780    1.0400 C   0  0  1  0  0  0  0  0  0  0  0  0
   -0.6630   14.9300    0.1150 N   0  0  0  0  0  0  0  0  0  0  0  0
   -0.5290   12.6770   -3.3310 C   0  0  2  0  0  0  0  0  0  0  0  0
   -4.1980   15.4310    1.7010 N   0  0  0  0  0  0  0  0  0  0  0  0
    1.9610   15.0710   -2.8460 O   0  0  0  0  0  0  0  0  0  0  0  0
    1.8360   13.2350   -1.8290 O   0  0  0  0  0  0  0  0  0  0  0  0
   -2.0780   14.5130    1.9150 N   0  0  0  0  0  0  0  0  0  0  0  0
   -0.7370   14.3190    1.3780 C   0  0  0  0  0  0  0  0  0  0  0  0
    0.3960   11.5780   -2.8640 C   0  0  0  0  0  0  0  0  0  0  0  0
   -0.5190   12.5180   -4.7460 O   0  0  0  0  0  0  0  0  0  0  0  0
   -0.5560   11.0930   -4.9310 C   0  0  0  0  0  0  0  0  0  0  0  0
   -0.2540   10.4520   -3.5880 C   0  0  0  0  0  0  0  0  0  0  0  0
  2  1  1  6
  2  3  1  0
  2  4  1  0
  3  5  1  6
  6  4  1  1
  3  7  1  0
  4  8  1  0
  7  8  1  0
  6  9  1  0
  7 10  1  1
  8 11  1  1
  6 12  1  0
 10 13  1  1
  9 14  1  6
  9 15  1  0
 10 16  1  0
 11 17  1  0
 16 17  1  0
 12 18  1  1
 12 19  1  0
 19 20  1  0
 18 21  1  0
 20 21  1  0
M  CHG  1  14  -1
M  END
