ucsf424-ucsf213
     RDKit          3D

 22 25  0  0  0  0  0  0  0  0999 V2000
    1.4960   12.1580   -2.4700 O   0  0  0  0  0  0  0  0  0  0  0  0
    0.5500   11.5950   -3.1850 C   0  0  1  0  0  0  0  0  0  0  0  0
   -0.4580   11.4170   -2.2150 O   0  0  0  0  0  0  0  0  0  0  0  0
    0.0100   12.5300   -4.3170 C   0  0  2  0  0  0  0  0  0  0  0  0
   -0.0330   11.9760   -5.8090 C   0  0  1  0  0  0  0  0  0  0  0  0
    0.2520   14.0240   -3.9380 C   0  0  1  0  0  0  0  0  0  0  0  0
    1.1980   11.7350   -6.5860 N   0  0  0  0  0  0  0  0  0  0  0  0
   -0.6260   10.5580   -5.8020 C   0  0  2  0  0  0  0  0  0  0  0  0
    0.9850   15.0420   -4.8580 C   0  0  0  0  0  0  0  0  0  0  0  0
   -1.3860   14.7950   -3.5270 S   0  0  0  0  0  0  0  0  0  0  0  0
    0.7780   10.8120   -7.6530 O   0  0  0  0  0  0  0  0  0  0  0  0
   -0.1370    9.8740   -7.0570 C   0  0  2  0  0  0  0  0  0  0  0  0
   -2.1310   10.4640   -5.6300 C   0  0  0  0  0  0  0  0  0  0  0  0
    0.1550   16.3150   -4.7030 C   0  0  2  0  0  0  0  0  0  0  0  0
   -1.2370   15.7860   -4.9890 C   0  0  2  0  0  0  0  0  0  0  0  0
   -1.2520    9.4770   -8.0210 C   0  0  0  0  0  0  0  0  0  0  0  0
   -2.6940    9.0910   -5.9530 C   0  0  0  0  0  0  0  0  0  0  0  0
    0.5380   17.5540   -5.5050 C   0  0  0  0  0  0  0  0  0  0  0  0
   -2.3490   16.7910   -5.2500 C   0  0  0  0  0  0  0  0  0  0  0  0
   -2.3260    8.6160   -7.3620 C   0  0  0  0  0  0  0  0  0  0  0  0
   -0.5830   18.5840   -5.4640 C   0  0  0  0  0  0  0  0  0  0  0  0
   -1.8930   18.0490   -5.9960 C   0  0  0  0  0  0  0  0  0  0  0  0
  2  1  1  1
  2  3  1  0
  4  2  1  1
  4  5  1  0
  4  6  1  0
  5  7  1  1
  5  8  1  0
  6  9  1  6
  6 10  1  0
  7 11  1  0
  8 12  1  0
 11 12  1  0
  8 13  1  6
 14  9  1  6
 10 15  1  0
 14 15  1  0
 12 16  1  6
 13 17  1  0
 14 18  1  0
 15 19  1  1
 16 20  1  0
 17 20  1  0
 18 21  1  0
 19 22  1  0
 21 22  1  0
M  CHG  1   1  -1
M  END
