ucsf170-ucsf224
     RDKit          3D

 19 20  0  0  0  0  0  0  0  0999 V2000
   -5.4080   14.7950    1.2060 C   0  0  0  0  0  0  0  0  0  0  0  0
   -3.8690   15.7290    1.0750 S   0  0  0  0  0  0  0  0  0  0  0  0
   -3.2060   15.0690   -0.5020 C   0  0  1  0  0  0  0  0  0  0  0  0
   -1.8300   14.4240   -0.3170 C   0  0  0  0  0  0  0  0  0  0  0  0
   -4.1940   14.1980   -1.2650 C   0  0  0  0  0  0  0  0  0  0  0  0
   -1.1540   14.2560   -1.6770 C   0  0  1  0  0  0  0  0  0  0  0  0
   -3.5130   13.6100   -2.5050 C   0  0  0  0  0  0  0  0  0  0  0  0
   -0.0250   13.1610   -1.6970 C   0  0  2  0  0  0  0  0  0  0  0  0
   -2.2290   14.3790   -2.8080 C   0  0  2  0  0  0  0  0  0  0  0  0
   -1.7550   14.0190   -4.0830 O   0  0  0  0  0  0  0  0  0  0  0  0
    1.0780   13.6710   -2.4160 O   0  0  0  0  0  0  0  0  0  0  0  0
   -0.2750   12.0230   -2.3320 O   0  0  0  0  0  0  0  0  0  0  0  0
   -0.8480   15.0520   -4.2580 C   0  0  1  0  0  0  0  0  0  0  0  0
    0.4520   14.6430   -4.8960 C   0  0  0  0  0  0  0  0  0  0  0  0
   -1.5060   16.2330   -4.9210 C   0  0  0  0  0  0  0  0  0  0  0  0
   -0.5320   17.4080   -4.9490 C   0  0  2  0  0  0  0  0  0  0  0  0
    1.3900   15.7500   -4.4850 C   0  0  0  0  0  0  0  0  0  0  0  0
   -1.1260   18.5830   -6.1550 Cl  0  0  0  0  0  0  0  0  0  0  0  0
    0.9570   17.0670   -5.1370 C   0  0  0  0  0  0  0  0  0  0  0  0
  1  2  1  0
  3  2  1  1
  3  4  1  0
  3  5  1  0
  6  4  1  1
  5  7  1  0
  6  8  1  0
  6  9  1  0
  7  9  1  0
  9 10  1  6
  8 11  1  6
  8 12  1  0
 13 10  1  6
 13 14  1  0
 13 15  1  0
 15 16  1  0
 14 17  1  0
 16 18  1  6
 16 19  1  0
 17 19  1  0
M  CHG  1  12  -1
M  END
