ucsf412-ucsf339
     RDKit          3D

 19 21  0  0  0  0  0  0  0  0999 V2000
   -7.6010   15.1780   -0.5090 O   0  0  0  0  0  0  0  0  0  0  0  0
   -6.3010   14.9960    0.0350 C   0  0  1  0  0  0  0  0  0  0  0  0
   -6.4260   14.6870    1.3500 N   0  0  0  0  0  0  0  0  0  0  0  0
   -5.3520   14.2850   -0.8570 C   0  0  2  0  0  0  0  0  0  0  0  0
   -3.6260   14.1700   -0.4320 S   0  0  0  0  0  0  0  0  0  0  0  0
   -5.8770   13.4360    1.3490 C   0  0  0  0  0  0  0  0  0  0  0  0
   -5.7940   14.8260   -2.1440 C   0  0  0  0  0  0  0  0  0  0  0  0
   -4.3680   13.3930    1.1610 C   0  0  0  0  0  0  0  0  0  0  0  0
   -4.0350   15.7450   -1.3350 C   0  0  0  0  0  0  0  0  0  0  0  0
   -4.8680   14.6230   -3.2940 C   0  0  0  0  0  0  0  0  0  0  0  0
   -1.7450   14.2400   -0.5690 C   0  0  0  0  0  0  0  0  0  0  0  0
   -2.8950   13.0100   -1.6040 C   0  0  0  0  0  0  0  0  0  0  0  0
   -3.8220   15.5310   -2.6460 C   0  0  0  0  0  0  0  0  0  0  0  0
   -1.0710   13.8320   -1.8060 C   0  0  2  0  0  0  0  0  0  0  0  0
   -2.8050   13.6140   -2.9330 N   0  0  0  0  0  0  0  0  0  0  0  0
    0.4400   14.1590   -1.8810 C   0  0  2  0  0  0  0  0  0  0  0  0
   -1.5760   14.2040   -3.1280 C   0  0  0  0  0  0  0  0  0  0  0  0
    0.9160   14.0790   -3.1560 O   0  0  0  0  0  0  0  0  0  0  0  0
    1.0890   13.2000   -1.1040 O   0  0  0  0  0  0  0  0  0  0  0  0
  2  1  1  6
  2  3  1  0
  2  4  1  0
  4  5  1  0
  3  6  1  0
  4  7  1  6
  5  8  1  0
  6  8  1  0
  5  9  1  0
  7 10  1  0
  5 11  1  0
  5 12  1  0
  9 13  1  0
 10 13  1  0
 14 11  1  1
 12 15  1  0
 14 16  1  0
 14 17  1  0
 15 17  1  0
 16 18  1  6
 16 19  1  0
M  CHG  1  18  -1
M  END
