ucsf403-ucsf345
     RDKit          3D

 24 25  0  0  0  0  0  0  0  0999 V2000
    0.6910    9.1270   -7.7970 Cl  0  0  0  0  0  0  0  0  0  0  0  0
   -0.7310    9.7950   -6.9020 C   0  0  2  0  0  0  0  0  0  0  0  0
   -0.3670   10.5780   -5.6150 C   0  0  1  0  0  0  0  0  0  0  0  0
   -1.6940    8.6650   -6.5710 C   0  0  0  0  0  0  0  0  0  0  0  0
    0.6550   11.5530   -5.9300 O   0  0  0  0  0  0  0  0  0  0  0  0
   -1.6300   11.2720   -5.0160 C   0  0  1  0  0  0  0  0  0  0  0  0
   -2.8930    9.1690   -5.7770 C   0  0  0  0  0  0  0  0  0  0  0  0
   -1.5370   12.8130   -5.1360 C   0  0  0  0  0  0  0  0  0  0  0  0
    1.0300   12.5630   -4.9580 C   0  0  0  0  0  0  0  0  0  0  0  0
   -2.9120   10.6960   -5.6550 C   0  0  0  0  0  0  0  0  0  0  0  0
    1.3180   12.1580   -3.4740 C   0  0  1  0  0  0  0  0  0  0  0  0
   -2.6170   13.5950   -4.3780 C   0  0  0  0  0  0  0  0  0  0  0  0
    0.7760   12.9790   -2.6140 O   0  0  0  0  0  0  0  0  0  0  0  0
    0.6200   10.9610   -3.1610 O   0  0  0  0  0  0  0  0  0  0  0  0
   -2.1470   14.1510   -3.0160 C   0  0  0  0  0  0  0  0  0  0  0  0
   -3.3030   14.2760   -1.9990 C   0  0  2  0  0  0  0  0  0  0  0  0
   -4.4910   15.0000   -2.6450 C   0  0  0  0  0  0  0  0  0  0  0  0
   -3.0070   14.8780   -0.6900 N   0  0  0  0  0  0  0  0  0  0  0  0
   -5.7400   14.8480   -1.8990 N   0  0  0  0  0  0  0  0  0  0  0  0
   -4.1960   14.7980    0.1920 C   0  0  0  0  0  0  0  0  0  0  0  0
   -5.5500   15.2050   -0.4540 C   0  0  2  0  0  0  0  0  0  0  0  0
   -6.8260   14.7900    0.3660 C   0  0  2  0  0  0  0  0  0  0  0  0
   -6.7760   14.7440    1.8290 N   0  0  0  0  0  0  0  0  0  0  0  0
   -7.2810   13.5320   -0.0700 O   0  0  0  0  0  0  0  0  0  0  0  0
  2  1  1  1
  2  3  1  0
  2  4  1  0
  3  5  1  6
  3  6  1  0
  4  7  1  0
  6  8  1  6
  5  9  1  0
  6 10  1  0
  7 10  1  0
  9 11  1  0
  8 12  1  0
 11 13  1  1
 11 14  1  0
 12 15  1  0
 16 15  1  6
 16 17  1  0
 16 18  1  0
 17 19  1  0
 18 20  1  0
 19 21  1  0
 21 20  1  1
 21 22  1  0
 22 23  1  1
 22 24  1  0
M  CHG  1  13  -1
M  END
