ucsf213-ucsf345
     RDKit          3D

 23 25  0  0  0  0  0  0  0  0999 V2000
    0.4230   10.6760   -2.2940 O   0  0  0  0  0  0  0  0  0  0  0  0
    1.0230   11.8680   -2.3820 C   0  0  2  0  0  0  0  0  0  0  0  0
    0.2780   12.5730   -1.4140 O   0  0  0  0  0  0  0  0  0  0  0  0
    0.8910   12.4530   -3.8180 C   0  0  0  0  0  0  0  0  0  0  0  0
    0.3210   13.8710   -3.9310 C   0  0  1  0  0  0  0  0  0  0  0  0
    1.0880   14.9930   -4.6140 C   0  0  0  0  0  0  0  0  0  0  0  0
   -1.2740   14.0250   -4.7780 S   0  0  0  0  0  0  0  0  0  0  0  0
    0.2070   16.2380   -4.3630 C   0  0  2  0  0  0  0  0  0  0  0  0
   -1.3030   15.8070   -4.3190 C   0  0  2  0  0  0  0  0  0  0  0  0
   -1.9170   15.9300   -2.8740 C   0  0  0  0  0  0  0  0  0  0  0  0
    0.5240   17.4120   -5.2840 C   0  0  0  0  0  0  0  0  0  0  0  0
   -2.2990   16.5360   -5.2970 C   0  0  0  0  0  0  0  0  0  0  0  0
   -0.6010   18.4260   -5.3310 C   0  0  0  0  0  0  0  0  0  0  0  0
   -1.8820   17.8770   -5.9060 C   0  0  0  0  0  0  0  0  0  0  0  0
   -2.8740   14.9400   -2.1260 C   0  0  2  0  0  0  0  0  0  0  0  0
   -4.2590   14.8780   -2.8440 C   0  0  0  0  0  0  0  0  0  0  0  0
   -2.9240   15.2050   -0.6700 N   0  0  0  0  0  0  0  0  0  0  0  0
   -5.4190   14.4400   -2.0420 N   0  0  0  0  0  0  0  0  0  0  0  0
   -4.1680   14.8890    0.0540 C   0  0  0  0  0  0  0  0  0  0  0  0
   -5.4370   15.1960   -0.7660 C   0  0  2  0  0  0  0  0  0  0  0  0
   -6.7670   14.8700    0.0010 C   0  0  2  0  0  0  0  0  0  0  0  0
   -6.6190   14.6970    1.4390 N   0  0  0  0  0  0  0  0  0  0  0  0
   -7.3150   13.6630   -0.4640 O   0  0  0  0  0  0  0  0  0  0  0  0
  2  1  1  6
  2  3  1  0
  2  4  1  0
  5  4  1  6
  5  6  1  0
  5  7  1  0
  8  6  1  6
  7  9  1  0
  8  9  1  0
  9 10  1  1
  8 11  1  0
  9 12  1  0
 11 13  1  0
 12 14  1  0
 13 14  1  0
 15 10  1  6
 15 16  1  0
 15 17  1  0
 16 18  1  0
 17 19  1  0
 18 20  1  0
 20 19  1  1
 20 21  1  0
 21 22  1  1
 21 23  1  0
M  CHG  1   1  -1
M  END
