ucsf487-ucsf396
     RDKit          3D

 14 15  0  0  0  0  0  0  0  0999 V2000
   -6.9480   13.4180    2.4780 N   0  0  0  0  0  0  0  0  0  0  0  0
   -6.6700   14.5360    1.5730 C   0  0  2  0  0  0  0  0  0  0  0  0
   -7.7840   14.5950    0.4860 C   0  0  0  0  0  0  0  0  0  0  0  0
   -5.2320   14.4910    0.9190 C   0  0  2  0  0  0  0  0  0  0  0  0
   -4.0590   15.1920    1.6630 C   0  0  2  0  0  0  0  0  0  0  0  0
   -5.1650   15.3380   -0.3590 C   0  0  2  0  0  0  0  0  0  0  0  0
   -7.3370   14.2260   -0.8580 N   0  0  0  0  0  0  0  0  0  0  0  0
   -3.3940   16.0730    0.7630 N   0  0  0  0  0  0  0  0  0  0  0  0
   -3.0060   14.3340    2.0220 O   0  0  0  0  0  0  0  0  0  0  0  0
   -6.2930   15.1050   -1.3760 C   0  0  2  0  0  0  0  0  0  0  0  0
   -3.7180   15.4250   -0.8630 C   0  0  0  0  0  0  0  0  0  0  0  0
   -5.7930   14.5750   -2.7360 C   0  0  0  0  0  0  0  0  0  0  0  0
   -3.3910   14.5260   -1.9770 C   0  0  0  0  0  0  0  0  0  0  0  0
   -4.3260   14.8240   -3.1030 C   0  0  0  0  0  0  0  0  0  0  0  0
  2  1  1  6
  2  3  1  0
  2  4  1  0
  4  5  1  1
  4  6  1  0
  3  7  1  0
  5  8  1  6
  5  9  1  0
  6 10  1  0
  7 10  1  0
  6 11  1  6
 10 12  1  6
 11 13  1  0
 12 14  1  0
 13 14  1  0
M  END
