ucsf396-ucsf385
     RDKit          3D

 17 18  0  0  0  0  0  0  0  0999 V2000
   -3.9420   15.3270   -0.5520 C   0  0  0  0  0  0  0  0  0  0  0  0
   -3.2670   15.3960    0.6720 O   0  0  0  0  0  0  0  0  0  0  0  0
   -2.5690   14.2140    0.8970 C   0  0  1  0  0  0  0  0  0  0  0  0
   -5.4010   15.3440   -0.2000 C   0  0  1  0  0  0  0  0  0  0  0  0
   -6.2440   14.6740   -1.2680 C   0  0  0  0  0  0  0  0  0  0  0  0
   -5.6510   14.7340    1.1870 C   0  0  0  0  0  0  0  0  0  0  0  0
   -7.6690   14.7120   -0.9380 N   0  0  0  0  0  0  0  0  0  0  0  0
   -7.1370   14.4400    1.4830 C   0  0  0  0  0  0  0  0  0  0  0  0
   -2.0530   13.5980   -0.3940 C   0  0  0  0  0  0  0  0  0  0  0  0
   -1.5060   14.5750    1.7780 N   0  0  0  0  0  0  0  0  0  0  0  0
   -7.9850   14.0000    0.2830 C   0  0  0  0  0  0  0  0  0  0  0  0
   -1.0270   14.5020   -1.0320 C   0  0  2  0  0  0  0  0  0  0  0  0
   -0.1700   14.2140    1.3380 C   0  0  0  0  0  0  0  0  0  0  0  0
   -0.7280   14.0990   -2.4930 C   0  0  2  0  0  0  0  0  0  0  0  0
    0.1940   14.5440   -0.1070 C   0  0  0  0  0  0  0  0  0  0  0  0
    0.4840   14.7160   -2.8740 O   0  0  0  0  0  0  0  0  0  0  0  0
   -1.5770   14.6830   -3.3080 O   0  0  0  0  0  0  0  0  0  0  0  0
  1  2  1  0
  3  2  1  6
  4  1  1  6
  4  5  1  0
  4  6  1  0
  5  7  1  0
  6  8  1  0
  3  9  1  0
  3 10  1  0
  7 11  1  0
  8 11  1  0
 12  9  1  1
 10 13  1  0
 12 14  1  0
 12 15  1  0
 13 15  1  0
 14 16  1  6
 14 17  1  0
M  CHG  1  17  -1
M  END
