ucsf385-ucsf005
     RDKit          3D

 15 17  0  0  0  0  0  0  0  0999 V2000
   -3.6240   12.7620   -0.8520 N   0  0  0  0  0  0  0  0  0  0  0  0
   -2.8170   14.5710   -0.7950 S   0  0  0  0  0  0  0  0  0  0  0  0
   -2.3850   15.1760    0.9180 C   0  0  1  0  0  0  0  0  0  0  0  0
   -1.1830   14.6170   -0.7280 C   0  0  2  0  0  0  0  0  0  0  0  0
   -2.3810   14.7910   -2.4480 N   0  0  0  0  0  0  0  0  0  0  0  0
   -4.0540   15.9140   -1.5710 N   0  0  0  0  0  0  0  0  0  0  0  0
   -0.5430   14.7150   -2.1350 C   0  0  2  0  0  0  0  0  0  0  0  0
   -1.5660   13.9980   -2.8130 O   0  0  0  0  0  0  0  0  0  0  0  0
   -3.6200   15.3560    1.6500 N   0  0  0  0  0  0  0  0  0  0  0  0
   -0.4550   13.5640   -0.0670 C   0  0  0  0  0  0  0  0  0  0  0  0
   -1.7450   14.2100    1.7310 N   0  0  0  0  0  0  0  0  0  0  0  0
   -3.3230   15.1330   -3.4130 C   0  0  0  0  0  0  0  0  0  0  0  0
   -4.4760   15.0960   -2.5470 C   0  0  0  0  0  0  0  0  0  0  0  0
    0.6610   14.1340   -2.2730 O   0  0  0  0  0  0  0  0  0  0  0  0
   -0.3090   14.0500    1.3920 C   0  0  0  0  0  0  0  0  0  0  0  0
  1  2  1  0
  2  3  1  0
  2  4  1  0
  2  5  1  0
  2  6  1  0
  4  7  1  0
  5  8  1  0
  7  8  1  0
  3  9  1  1
  4 10  1  6
  3 11  1  0
  5 12  1  0
  6 13  1  0
 12 13  1  0
  7 14  1  1
 10 15  1  0
 11 15  1  0
M  END
