ucsf138-ucsf135
     RDKit          3D

 24 27  0  0  0  0  0  0  0  0999 V2000
    1.8260   11.9930   -2.8210 O   0  0  0  0  0  0  0  0  0  0  0  0
    1.3750   12.8470   -3.7080 C   0  0  2  0  0  0  0  0  0  0  0  0
   -0.0070   12.6150   -3.9540 O   0  0  0  0  0  0  0  0  0  0  0  0
    2.1830   12.9010   -5.0550 C   0  0  0  0  0  0  0  0  0  0  0  0
    2.3390   11.6460   -5.8610 N   0  0  0  0  0  0  0  0  0  0  0  0
   -0.2550   11.3670   -4.6490 N   0  0  0  0  0  0  0  0  0  0  0  0
    1.3560   11.5240   -6.9190 C   0  0  1  0  0  0  0  0  0  0  0  0
   -0.3820   11.5990   -6.1060 C   0  0  2  0  0  0  0  0  0  0  0  0
   -1.7500   10.8600   -4.0620 S   0  0  1  0  0  0  0  0  0  0  0  0
    0.4150   12.4660   -6.8180 O   0  0  0  0  0  0  0  0  0  0  0  0
    1.8530   11.1460   -8.2460 N   0  0  0  0  0  0  0  0  0  0  0  0
   -2.5470   12.2470   -3.8820 O   0  0  0  0  0  0  0  0  0  0  0  0
   -2.4050   10.2010   -5.5800 C   0  0  1  0  0  0  0  0  0  0  0  0
   -1.6670   11.0030   -6.7060 C   0  0  2  0  0  0  0  0  0  0  0  0
    1.0610   10.0690   -8.9210 C   0  0  0  0  0  0  0  0  0  0  0  0
   -2.2290    8.6950   -5.5880 C   0  0  0  0  0  0  0  0  0  0  0  0
   -1.3140   10.2010   -7.9660 C   0  0  0  0  0  0  0  0  0  0  0  0
    0.4420   10.5350  -10.2510 C   0  0  0  0  0  0  0  0  0  0  0  0
    1.9420    8.8530   -9.2540 C   0  0  0  0  0  0  0  0  0  0  0  0
   -2.2200    8.0460   -6.9700 C   0  0  0  0  0  0  0  0  0  0  0  0
   -2.2150    8.9990   -8.1620 C   0  0  0  0  0  0  0  0  0  0  0  0
    0.8820    9.6910  -11.4610 C   0  0  0  0  0  0  0  0  0  0  0  0
    1.2090    7.7200   -9.9120 C   0  0  0  0  0  0  0  0  0  0  0  0
    0.7000    8.1820  -11.2610 C   0  0  0  0  0  0  0  0  0  0  0  0
  2  1  1  1
  2  3  1  0
  2  4  1  0
  4  5  1  0
  3  6  1  0
  5  7  1  0
  6  8  1  0
  6  9  1  0
  7 10  1  0
  8 10  1  1
  7 11  1  6
  9 12  1  6
  9 13  1  0
  8 14  1  0
 13 14  1  0
 11 15  1  0
 13 16  1  6
 14 17  1  6
 15 18  1  0
 15 19  1  0
 16 20  1  0
 17 21  1  0
 20 21  1  0
 18 22  1  0
 19 23  1  0
 22 24  1  0
 23 24  1  0
M  CHG  1   1  -1
M  END
