ucsf364-ucsf380
     RDKit          3D

 24 26  0  0  0  0  0  0  0  0999 V2000
    1.9680   14.0280   -4.5540 C   0  0  0  0  0  0  0  0  0  0  0  0
    1.2830   12.6730   -4.5380 C   0  0  2  0  0  0  0  0  0  0  0  0
    1.0040   12.3740   -6.0110 C   0  0  1  0  0  0  0  0  0  0  0  0
   -0.0540   12.6200   -3.9220 C   0  0  2  0  0  0  0  0  0  0  0  0
    2.2370   12.1500   -6.6250 O   0  0  0  0  0  0  0  0  0  0  0  0
   -0.6270   13.5640   -2.3360 S   0  0  0  0  0  0  0  0  0  0  0  0
   -0.3320   11.2060   -3.8240 C   0  0  0  0  0  0  0  0  0  0  0  0
    0.1260   11.2280   -6.3580 C   0  0  0  0  0  0  0  0  0  0  0  0
   -0.3640   14.7780   -2.7910 O   0  0  0  0  0  0  0  0  0  0  0  0
   -0.5340   11.6060   -1.3450 O   0  0  0  0  0  0  0  0  0  0  0  0
   -0.5010   10.5100   -5.1770 C   0  0  0  0  0  0  0  0  0  0  0  0
   -2.1750   14.2450   -1.2220 C   0  0  0  0  0  0  0  0  0  0  0  0
   -2.1050   13.3440   -3.5550 C   0  0  0  0  0  0  0  0  0  0  0  0
    0.0110   15.7500   -3.0260 O   0  0  0  0  0  0  0  0  0  0  0  0
   -1.7770   14.5500    0.1410 C   0  0  0  0  0  0  0  0  0  0  0  0
   -3.1830   14.9780   -1.9410 C   0  0  0  0  0  0  0  0  0  0  0  0
   -1.7940   12.7790   -4.8720 C   0  0  0  0  0  0  0  0  0  0  0  0
   -3.2420   12.7880   -2.9970 C   0  0  0  0  0  0  0  0  0  0  0  0
   -3.0370   14.7000    0.9080 C   0  0  0  0  0  0  0  0  0  0  0  0
   -4.4550   15.2080   -1.0450 C   0  0  0  0  0  0  0  0  0  0  0  0
   -3.2270   11.2870   -2.9520 C   0  0  0  0  0  0  0  0  0  0  0  0
   -2.7050   11.6290   -5.3700 C   0  0  0  0  0  0  0  0  0  0  0  0
   -4.0370   15.6870    0.3420 C   0  0  0  0  0  0  0  0  0  0  0  0
   -3.1110   10.7010   -4.2800 C   0  0  0  0  0  0  0  0  0  0  0  0
  2  1  1  6
  2  3  1  0
  2  4  1  0
  3  5  1  6
  4  6  1  1
  4  7  1  0
  3  8  1  0
  6  9  1  0
  6 10  1  0
  7 11  1  0
  8 11  1  0
  6 12  1  0
  6 13  1  0
  9 14  1  0
 12 15  1  0
 12 16  1  0
 13 17  1  0
 13 18  1  0
 15 19  1  0
 16 20  1  0
 18 21  1  0
 17 22  1  0
 19 23  1  0
 20 23  1  0
 21 24  1  0
 22 24  1  0
M  CHG  2  10  -1  14  -1
M  END
