ucsf247-ucsf523
     RDKit          3D

 19 21  0  0  0  0  0  0  0  0999 V2000
    0.8630   12.9460   -1.8550 O   0  0  0  0  0  0  0  0  0  0  0  0
    0.5730   14.1100   -2.4110 C   0  0  1  0  0  0  0  0  0  0  0  0
    1.2420   13.9730   -3.6560 O   0  0  0  0  0  0  0  0  0  0  0  0
   -0.9730   14.2270   -2.6660 C   0  0  0  0  0  0  0  0  0  0  0  0
   -1.7290   15.4160   -2.1420 N   0  0  0  0  0  0  0  0  0  0  0  0
   -3.1730   15.3260   -2.3710 C   0  0  1  0  0  0  0  0  0  0  0  0
   -1.6810   15.6280   -0.6810 C   0  0  1  0  0  0  0  0  0  0  0  0
   -3.5090   14.9050   -3.6710 O   0  0  0  0  0  0  0  0  0  0  0  0
   -3.6770   14.4160   -1.2790 C   0  0  1  0  0  0  0  0  0  0  0  0
   -2.8820   14.9010   -0.0140 C   0  0  2  0  0  0  0  0  0  0  0  0
   -0.4400   15.0060   -0.2230 N   0  0  0  0  0  0  0  0  0  0  0  0
   -5.2040   14.2060   -1.2350 C   0  0  0  0  0  0  0  0  0  0  0  0
   -3.7780   15.6310    1.0050 C   0  0  0  0  0  0  0  0  0  0  0  0
   -0.7770   13.8830    0.5530 C   0  0  2  0  0  0  0  0  0  0  0  0
   -2.1920   13.8610    0.8040 N   0  0  0  0  0  0  0  0  0  0  0  0
   -0.0920   14.0740    1.7900 N   0  0  0  0  0  0  0  0  0  0  0  0
   -5.9040   15.1110   -0.2330 C   0  0  2  0  0  0  0  0  0  0  0  0
   -5.1760   15.0110    1.1000 C   0  0  0  0  0  0  0  0  0  0  0  0
   -7.2880   14.7600   -0.1200 O   0  0  0  0  0  0  0  0  0  0  0  0
  2  1  1  1
  2  3  1  0
  2  4  1  0
  4  5  1  0
  5  6  1  0
  5  7  1  0
  6  8  1  6
  6  9  1  0
  7 10  1  0
  9 10  1  0
  7 11  1  1
  9 12  1  1
 10 13  1  1
 11 14  1  0
 10 15  1  0
 14 15  1  0
 14 16  1  1
 12 17  1  0
 13 18  1  0
 17 18  1  0
 17 19  1  1
M  CHG  1   1  -1
M  END
