ucsf404-ucsf487
     RDKit          3D

 11 12  0  0  0  0  0  0  0  0999 V2000
   -6.5750   15.2740   -2.4490 Cl  0  0  0  0  0  0  0  0  0  0  0  0
   -5.0040   15.3400   -1.5820 C   0  0  1  0  0  0  0  0  0  0  0  0
   -5.1040   14.2670   -0.4890 C   0  0  2  0  0  0  0  0  0  0  0  0
   -3.8470   15.1520   -2.5600 C   0  0  0  0  0  0  0  0  0  0  0  0
   -6.0490   14.6230    0.5690 N   0  0  0  0  0  0  0  0  0  0  0  0
   -3.7760   13.7900    0.1220 C   0  0  2  0  0  0  0  0  0  0  0  0
   -2.5530   14.6110   -1.9380 C   0  0  0  0  0  0  0  0  0  0  0  0
   -5.3610   15.0280    1.7410 C   0  0  2  0  0  0  0  0  0  0  0  0
   -3.9380   13.9820    1.9080 S   0  0  0  0  0  0  0  0  0  0  0  0
   -2.5600   14.4950   -0.4140 C   0  0  0  0  0  0  0  0  0  0  0  0
   -6.3880   14.8590    2.7180 N   0  0  0  0  0  0  0  0  0  0  0  0
  2  1  1  6
  2  3  1  0
  2  4  1  0
  3  5  1  1
  3  6  1  0
  4  7  1  0
  5  8  1  0
  6  9  1  0
  8  9  1  0
  6 10  1  6
  7 10  1  0
  8 11  1  1
M  END
