ucsf493-ucsf264
     RDKit          3D

 28 31  0  0  0  0  0  0  0  0999 V2000
   -4.3760   15.1360   -5.8500 C   0  0  0  0  0  0  0  0  0  0  0  0
   -3.5900   16.3180   -5.9170 O   0  0  0  0  0  0  0  0  0  0  0  0
   -2.4660   16.3240   -5.0330 C   0  0  1  0  0  0  0  0  0  0  0  0
   -1.7630   14.9380   -5.0090 C   0  0  0  0  0  0  0  0  0  0  0  0
   -1.6280   17.5500   -5.4720 C   0  0  0  0  0  0  0  0  0  0  0  0
   -0.3240   15.0000   -4.5110 C   0  0  2  0  0  0  0  0  0  0  0  0
   -0.2060   17.5660   -4.9350 C   0  0  0  0  0  0  0  0  0  0  0  0
    0.4290   16.1950   -5.0840 C   0  0  1  0  0  0  0  0  0  0  0  0
    0.7680   13.9800   -4.8810 C   0  0  2  0  0  0  0  0  0  0  0  0
    0.7440   12.4280   -4.6900 C   0  0  1  0  0  0  0  0  0  0  0  0
    1.7480   16.0950   -4.4790 N   0  0  0  0  0  0  0  0  0  0  0  0
    1.9380   14.6530   -4.2060 C   0  0  0  0  0  0  0  0  0  0  0  0
    0.2220   12.0600   -3.2210 C   0  0  1  0  0  0  0  0  0  0  0  0
    0.4610   11.6000   -5.9190 N   0  0  0  0  0  0  0  0  0  0  0  0
    0.3880   10.6820   -2.9430 O   0  0  0  0  0  0  0  0  0  0  0  0
    0.9130   12.6260   -2.2530 O   0  0  0  0  0  0  0  0  0  0  0  0
    1.1560   11.7920   -7.1680 N   0  0  0  0  0  0  0  0  0  0  0  0
   -0.8480   11.1450   -6.3570 C   0  0  1  0  0  0  0  0  0  0  0  0
    0.9430   10.4740   -7.8280 C   0  0  1  0  0  0  0  0  0  0  0  0
   -0.3320    9.9600   -7.1510 C   0  0  2  0  0  0  0  0  0  0  0  0
   -1.8630   10.6780   -5.3280 C   0  0  0  0  0  0  0  0  0  0  0  0
    1.0440   10.3170   -9.3500 C   0  0  0  0  0  0  0  0  0  0  0  0
   -1.4630    9.2930   -7.9050 C   0  0  0  0  0  0  0  0  0  0  0  0
   -2.9010    9.6390   -5.8250 C   0  0  0  0  0  0  0  0  0  0  0  0
    1.6610    9.1670   -9.6830 F   0  0  0  0  0  0  0  0  0  0  0  0
   -0.1800   10.2860   -9.9270 F   0  0  0  0  0  0  0  0  0  0  0  0
    1.6900   11.3130   -9.9760 F   0  0  0  0  0  0  0  0  0  0  0  0
   -2.4100    8.6570   -6.8900 C   0  0  0  0  0  0  0  0  0  0  0  0
  1  2  1  0
  3  2  1  6
  3  4  1  0
  3  5  1  0
  6  4  1  6
  5  7  1  0
  6  8  1  0
  8  7  1  1
  6  9  1  0
  9 10  1  0
  8 11  1  0
  9 12  1  1
 11 12  1  0
 10 13  1  0
 10 14  1  6
 13 15  1  1
 13 16  1  0
 14 17  1  0
 14 18  1  0
 17 19  1  0
 18 20  1  0
 19 20  1  0
 18 21  1  1
 19 22  1  6
 20 23  1  6
 21 24  1  0
 22 25  1  0
 22 26  1  0
 22 27  1  0
 23 28  1  0
 24 28  1  0
M  CHG  1  16  -1
M  END
