ucsf241-ucsf213
     RDKit          3D

 23 26  0  0  0  0  0  0  0  0999 V2000
    0.4940   10.6170   -2.5540 O   0  0  0  0  0  0  0  0  0  0  0  0
    1.1040   11.8110   -2.5870 C   0  0  2  0  0  0  0  0  0  0  0  0
    0.7010   12.4840   -1.4030 O   0  0  0  0  0  0  0  0  0  0  0  0
    0.7880   12.6050   -3.9030 C   0  0  0  0  0  0  0  0  0  0  0  0
    0.9380   13.8720   -1.2720 C   0  0  0  0  0  0  0  0  0  0  0  0
    0.1890   14.0210   -3.7870 C   0  0  1  0  0  0  0  0  0  0  0  0
   -0.3290   14.2430   -0.5330 C   0  0  2  0  0  0  0  0  0  0  0  0
    1.0680   15.2100   -4.2750 C   0  0  0  0  0  0  0  0  0  0  0  0
   -1.3650   14.1630   -4.7790 S   0  0  0  0  0  0  0  0  0  0  0  0
   -1.2300   15.2420   -1.2370 C   0  0  0  0  0  0  0  0  0  0  0  0
   -0.2040   14.5530    0.9640 C   0  0  0  0  0  0  0  0  0  0  0  0
    0.1720   16.1880   -5.0600 C   0  0  1  0  0  0  0  0  0  0  0  0
   -1.2680   15.9410   -4.6250 C   0  0  1  0  0  0  0  0  0  0  0  0
   -2.5360   14.8650   -0.6210 C   0  0  2  0  0  0  0  0  0  0  0  0
   -1.5250   14.6830    1.6200 N   0  0  0  0  0  0  0  0  0  0  0  0
    0.4630   17.6840   -4.9620 C   0  0  0  0  0  0  0  0  0  0  0  0
   -2.3230   16.7160   -5.4060 C   0  0  0  0  0  0  0  0  0  0  0  0
   -3.8310   15.4000   -1.1450 C   0  0  0  0  0  0  0  0  0  0  0  0
   -2.5140   15.3460    0.8090 C   0  0  2  0  0  0  0  0  0  0  0  0
   -0.4270   18.3810   -5.9850 C   0  0  0  0  0  0  0  0  0  0  0  0
   -1.9100   18.1780   -5.7010 C   0  0  0  0  0  0  0  0  0  0  0  0
   -4.6420   15.5370    0.1420 C   0  0  0  0  0  0  0  0  0  0  0  0
   -3.8310   14.9810    1.2320 N   0  0  0  0  0  0  0  0  0  0  0  0
  2  1  1  6
  2  3  1  0
  2  4  1  0
  3  5  1  0
  6  4  1  6
  7  5  1  6
  6  8  1  0
  6  9  1  0
  7 10  1  0
  7 11  1  0
 12  8  1  1
  9 13  1  0
 12 13  1  0
 14 10  1  6
 11 15  1  0
 12 16  1  0
 13 17  1  6
 14 18  1  0
 14 19  1  0
 19 15  1  1
 16 20  1  0
 17 21  1  0
 20 21  1  0
 18 22  1  0
 19 23  1  0
 22 23  1  0
M  CHG  1   1  -1
M  END
