ucsf274-ucsf006
     RDKit          3D

 30 33  0  0  0  0  0  0  0  0999 V2000
    0.5310   10.4820   -2.0480 O   0  0  0  0  0  0  0  0  0  0  0  0
    0.7540   11.7170   -2.4740 C   0  0  2  0  0  0  0  0  0  0  0  0
    0.7420   12.4290   -1.2670 O   0  0  0  0  0  0  0  0  0  0  0  0
   -0.4640   12.1850   -3.2750 C   0  0  0  0  0  0  0  0  0  0  0  0
   -0.2470   13.0030   -4.5740 C   0  0  2  0  0  0  0  0  0  0  0  0
    0.6880   14.2410   -4.5020 C   0  0  0  0  0  0  0  0  0  0  0  0
   -1.4820   13.7500   -4.6740 O   0  0  0  0  0  0  0  0  0  0  0  0
   -0.6360   12.1720   -5.8390 C   0  0  2  0  0  0  0  0  0  0  0  0
    0.3840   15.1950   -3.3120 C   0  0  0  0  0  0  0  0  0  0  0  0
   -2.1390   11.7600   -5.7780 C   0  0  2  0  0  0  0  0  0  0  0  0
    0.2820   11.0500   -6.2000 N   0  0  0  0  0  0  0  0  0  0  0  0
   -2.8830   12.5520   -4.8930 O   0  0  0  0  0  0  0  0  0  0  0  0
   -0.9680   14.9790   -2.6830 N   0  0  0  0  0  0  0  0  0  0  0  0
   -2.4090   10.4350   -5.2460 N   0  0  0  0  0  0  0  0  0  0  0  0
   -0.3670    9.7990   -6.6800 C   0  0  1  0  0  0  0  0  0  0  0  0
   -2.0630   15.4940   -3.4950 C   0  0  0  0  0  0  0  0  0  0  0  0
   -1.6720    9.3760   -5.9360 C   0  0  2  0  0  0  0  0  0  0  0  0
   -0.4390    9.6140   -8.1970 C   0  0  0  0  0  0  0  0  0  0  0  0
   -1.0600   15.3250   -1.2550 C   0  0  1  0  0  0  0  0  0  0  0  0
   -0.8850    8.2260   -8.6520 C   0  0  0  0  0  0  0  0  0  0  0  0
   -2.5940    8.4720   -6.7610 C   0  0  0  0  0  0  0  0  0  0  0  0
   -2.4080   15.5220   -0.5320 C   0  0  2  0  0  0  0  0  0  0  0  0
   -0.2560   14.3420   -0.5090 N   0  0  0  0  0  0  0  0  0  0  0  0
   -1.8780    7.5360   -7.7160 C   0  0  0  0  0  0  0  0  0  0  0  0
   -2.4380   14.7520    0.7530 C   0  0  1  0  0  0  0  0  0  0  0  0
   -0.0600   14.6740    0.8900 C   0  0  0  0  0  0  0  0  0  0  0  0
   -3.7830   15.1950   -1.0490 C   0  0  0  0  0  0  0  0  0  0  0  0
   -1.3020   15.0280    1.5530 N   0  0  0  0  0  0  0  0  0  0  0  0
   -3.6480   15.2720    1.3620 N   0  0  0  0  0  0  0  0  0  0  0  0
   -4.6020   15.3620    0.2420 C   0  0  0  0  0  0  0  0  0  0  0  0
  2  1  1  1
  2  3  1  0
  2  4  1  0
  4  5  1  0
  5  6  1  0
  5  7  1  1
  5  8  1  0
  6  9  1  0
  8 10  1  0
  8 11  1  1
 10 12  1  1
  9 13  1  0
 10 14  1  0
 11 15  1  0
 13 16  1  0
 14 17  1  0
 15 17  1  0
 15 18  1  6
 19 13  1  6
 18 20  1  0
 17 21  1  6
 19 22  1  0
 19 23  1  0
 20 24  1  0
 21 24  1  0
 22 25  1  0
 23 26  1  0
 22 27  1  6
 25 28  1  1
 26 28  1  0
 25 29  1  0
 27 30  1  0
 29 30  1  0
M  CHG  1   1  -1
M  END
