ucsf110-ucsf247
     RDKit          3D

 24 26  0  0  0  0  0  0  0  0999 V2000
   -0.7830   13.7410   -2.1160 C   0  0  2  0  0  0  0  0  0  0  0  0
    0.5550   12.8400   -2.2370 C   0  0  1  0  0  0  0  0  0  0  0  0
    0.4270   11.6460   -1.6610 O   0  0  0  0  0  0  0  0  0  0  0  0
   -1.9770   13.4060   -2.9480 N   0  0  0  0  0  0  0  0  0  0  0  0
   -0.7070   15.1820   -2.0310 N   0  0  0  0  0  0  0  0  0  0  0  0
    0.9700   12.5600   -3.5640 O   0  0  0  0  0  0  0  0  0  0  0  0
   -3.1140   14.3330   -2.8230 C   0  0  1  0  0  0  0  0  0  0  0  0
   -1.8980   15.7540   -2.6710 C   0  0  0  0  0  0  0  0  0  0  0  0
   -0.9100   15.6220   -0.6860 C   0  0  1  0  0  0  0  0  0  0  0  0
   -3.5890   14.5690   -4.1340 O   0  0  0  0  0  0  0  0  0  0  0  0
   -3.0210   15.6180   -1.6130 C   0  0  0  0  0  0  0  0  0  0  0  0
   -2.2700   15.0880   -0.4160 C   0  0  2  0  0  0  0  0  0  0  0  0
    0.0230   15.3210    0.3700 N   0  0  0  0  0  0  0  0  0  0  0  0
   -4.3280   13.8290   -1.9490 C   0  0  2  0  0  0  0  0  0  0  0  0
   -2.4930   15.5060    0.9900 C   0  0  1  0  0  0  0  0  0  0  0  0
   -0.4440   14.3080    1.3060 C   0  0  0  0  0  0  0  0  0  0  0  0
   -5.4690   14.8490   -1.6810 C   0  0  0  0  0  0  0  0  0  0  0  0
   -3.9120   13.1380   -0.6260 C   0  0  0  0  0  0  0  0  0  0  0  0
   -3.8720   15.5910    1.4730 N   0  0  0  0  0  0  0  0  0  0  0  0
   -1.7950   14.5730    1.8070 N   0  0  0  0  0  0  0  0  0  0  0  0
   -6.4470   14.3940   -0.5930 C   0  0  2  0  0  0  0  0  0  0  0  0
   -4.3030   13.8720    0.6600 C   0  0  0  0  0  0  0  0  0  0  0  0
   -7.5370   15.3070   -0.4700 O   0  0  0  0  0  0  0  0  0  0  0  0
   -5.7970   14.1440    0.7660 C   0  0  0  0  0  0  0  0  0  0  0  0
  1  2  1  0
  2  3  1  1
  1  4  1  6
  1  5  1  0
  2  6  1  0
  4  7  1  0
  5  8  1  0
  5  9  1  0
  7 10  1  6
  8 11  1  0
  9 12  1  0
 12 11  1  6
  9 13  1  1
  7 14  1  0
 12 15  1  0
 13 16  1  0
 14 17  1  1
 14 18  1  0
 15 19  1  1
 15 20  1  0
 16 20  1  0
 17 21  1  0
 18 22  1  0
 21 23  1  1
 21 24  1  0
 22 24  1  0
M  CHG  1   3  -1
M  END
