ucsf357-ucsf493
     RDKit          3D

 26 28  0  0  0  0  0  0  0  0999 V2000
   -6.2760   15.1990   -1.8030 O   0  0  0  0  0  0  0  0  0  0  0  0
   -5.7590   14.4570   -0.8600 C   0  0  2  0  0  0  0  0  0  0  0  0
   -6.0830   15.1780    0.3040 O   0  0  0  0  0  0  0  0  0  0  0  0
   -4.2210   14.3810   -1.0240 C   0  0  1  0  0  0  0  0  0  0  0  0
   -3.8490   14.9300   -2.3770 C   0  0  0  0  0  0  0  0  0  0  0  0
   -3.3660   15.0100    0.0770 C   0  0  0  0  0  0  0  0  0  0  0  0
   -2.3830   14.8310   -2.7280 C   0  0  2  0  0  0  0  0  0  0  0  0
   -1.8880   14.6480   -0.0900 C   0  0  0  0  0  0  0  0  0  0  0  0
   -2.0770   14.0070   -3.8540 O   0  0  0  0  0  0  0  0  0  0  0  0
   -1.3820   14.5300   -1.5490 C   0  0  2  0  0  0  0  0  0  0  0  0
   -0.2130   15.3510   -1.6440 O   0  0  0  0  0  0  0  0  0  0  0  0
   -1.4550   14.8040   -4.8380 C   0  0  1  0  0  0  0  0  0  0  0  0
   -2.3820   15.9060   -5.4480 C   0  0  1  0  0  0  0  0  0  0  0  0
   -0.2350   15.2890   -4.0670 C   0  0  2  0  0  0  0  0  0  0  0  0
   -3.6860   15.9710   -4.9090 O   0  0  0  0  0  0  0  0  0  0  0  0
    0.4960   16.5090   -4.6190 C   0  0  2  0  0  0  0  0  0  0  0  0
   -1.7980   17.3450   -5.4000 C   0  0  0  0  0  0  0  0  0  0  0  0
    0.8910   14.2810   -3.7080 C   0  0  1  0  0  0  0  0  0  0  0  0
   -4.5880   15.0980   -5.5770 C   0  0  0  0  0  0  0  0  0  0  0  0
    0.7820   12.7510   -3.9820 C   0  0  0  0  0  0  0  0  0  0  0  0
   -0.2780   17.4650   -5.5200 C   0  0  0  0  0  0  0  0  0  0  0  0
    1.6070   15.9030   -5.2800 N   0  0  0  0  0  0  0  0  0  0  0  0
    2.1060   14.9110   -4.3010 C   0  0  0  0  0  0  0  0  0  0  0  0
    0.2190   11.9210   -2.7920 C   0  0  1  0  0  0  0  0  0  0  0  0
    0.6250   10.5630   -2.7460 O   0  0  0  0  0  0  0  0  0  0  0  0
    0.6850   12.3220   -1.6150 O   0  0  0  0  0  0  0  0  0  0  0  0
  2  1  1  6
  2  3  1  0
  2  4  1  0
  4  5  1  6
  4  6  1  0
  5  7  1  0
  6  8  1  0
  7  9  1  6
  7 10  1  0
  8 10  1  0
 10 11  1  1
 12  9  1  1
 12 13  1  0
 12 14  1  0
 13 15  1  1
 14 16  1  0
 13 17  1  0
 14 18  1  6
 15 19  1  0
 18 20  1  6
 16 21  1  6
 17 21  1  0
 16 22  1  0
 18 23  1  0
 22 23  1  0
 20 24  1  0
 24 25  1  6
 24 26  1  0
M  CHG  2   1  -1  26  -1
M  END
