ucsf340-ucsf403
     RDKit          3D

 24 26  0  0  0  0  0  0  0  0999 V2000
    0.4860   18.3470   -6.3080 C   0  0  0  0  0  0  0  0  0  0  0  0
    0.1220   17.5300   -5.1610 N   0  0  0  0  0  0  0  0  0  0  0  0
    1.0630   16.4250   -4.8550 C   0  0  0  0  0  0  0  0  0  0  0  0
   -1.2450   17.0050   -5.0920 C   0  0  2  0  0  0  0  0  0  0  0  0
    0.3120   15.0780   -4.8650 C   0  0  2  0  0  0  0  0  0  0  0  0
   -1.1520   15.4900   -5.0300 C   0  0  1  0  0  0  0  0  0  0  0  0
   -2.2900   17.3440   -6.0930 C   0  0  0  0  0  0  0  0  0  0  0  0
    0.6030   14.1250   -3.6760 C   0  0  0  0  0  0  0  0  0  0  0  0
   -2.1850   15.0140   -4.0660 C   0  0  0  0  0  0  0  0  0  0  0  0
   -3.3600   16.2220   -6.0550 C   0  0  0  0  0  0  0  0  0  0  0  0
    0.1190   12.6160   -3.7880 C   0  0  2  0  0  0  0  0  0  0  0  0
   -3.4950   15.4800   -4.6790 C   0  0  0  0  0  0  0  0  0  0  0  0
    0.7510   11.7690   -2.5970 C   0  0  1  0  0  0  0  0  0  0  0  0
    0.3460   11.9820   -5.1330 O   0  0  0  0  0  0  0  0  0  0  0  0
    0.5000   12.4020   -1.3530 O   0  0  0  0  0  0  0  0  0  0  0  0
    0.1830   10.5780   -2.4140 O   0  0  0  0  0  0  0  0  0  0  0  0
   -0.4560   10.7670   -5.3480 C   0  0  0  0  0  0  0  0  0  0  0  0
   -1.8770   11.1250   -4.8940 C   0  0  1  0  0  0  0  0  0  0  0  0
   -0.6350   10.2650   -6.8250 C   0  0  1  0  0  0  0  0  0  0  0  0
    0.8640   10.0030   -7.7940 Cl  0  0  0  0  0  0  0  0  0  0  0  0
   -2.2790   12.8040   -5.3450 Cl  0  0  0  0  0  0  0  0  0  0  0  0
   -2.9870   10.2210   -5.4440 C   0  0  0  0  0  0  0  0  0  0  0  0
   -1.3840    8.9190   -6.8830 C   0  0  0  0  0  0  0  0  0  0  0  0
   -2.5150    8.8350   -5.8750 C   0  0  0  0  0  0  0  0  0  0  0  0
  1  2  1  0
  2  3  1  0
  2  4  1  0
  3  5  1  0
  4  6  1  0
  5  6  1  0
  4  7  1  6
  5  8  1  1
  6  9  1  1
  7 10  1  0
 11  8  1  6
  9 12  1  0
 10 12  1  0
 11 13  1  0
 11 14  1  0
 13 15  1  1
 13 16  1  0
 14 17  1  0
 17 18  1  0
 17 19  1  0
 19 20  1  1
 18 21  1  6
 18 22  1  0
 19 23  1  0
 22 24  1  0
 23 24  1  0
M  CHG  1  16  -1
M  END
