ucsf169-ucsf115
     RDKit          3D

 28 32  0  0  0  0  0  0  0  0999 V2000
    1.1460   18.5020   -5.6280 C   0  0  0  0  0  0  0  0  0  0  0  0
    0.1020   18.4580   -4.6600 O   0  0  0  0  0  0  0  0  0  0  0  0
   -0.1650   17.1240   -4.2240 C   0  0  1  0  0  0  0  0  0  0  0  0
   -1.6790   16.9410   -4.2560 C   0  0  1  0  0  0  0  0  0  0  0  0
    0.5500   16.1750   -5.1730 C   0  0  0  0  0  0  0  0  0  0  0  0
   -2.2550   18.1470   -4.7710 O   0  0  0  0  0  0  0  0  0  0  0  0
   -2.1720   15.7530   -5.0670 C   0  0  0  0  0  0  0  0  0  0  0  0
    0.1620   14.7140   -5.0470 C   0  0  1  0  0  0  0  0  0  0  0  0
    1.2950   13.9390   -4.3170 C   0  0  0  0  0  0  0  0  0  0  0  0
   -1.3700   14.4670   -4.7280 C   0  0  1  0  0  0  0  0  0  0  0  0
    1.0290   13.3120   -2.9690 C   0  0  2  0  0  0  0  0  0  0  0  0
   -1.7560   14.1000   -3.2870 C   0  0  2  0  0  0  0  0  0  0  0  0
    2.1890   12.6910   -2.4420 O   0  0  0  0  0  0  0  0  0  0  0  0
   -1.1650   15.1460   -2.4120 N   0  0  0  0  0  0  0  0  0  0  0  0
   -1.3260   12.6990   -2.8210 C   0  0  2  0  0  0  0  0  0  0  0  0
    0.0240   12.2800   -3.2290 C   0  0  2  0  0  0  0  0  0  0  0  0
    0.0370   10.9920   -2.4920 C   0  0  0  0  0  0  0  0  0  0  0  0
   -2.0290   11.6220   -3.4500 O   0  0  0  0  0  0  0  0  0  0  0  0
   -1.4480   15.2530   -0.9890 C   0  0  2  0  0  0  0  0  0  0  0  0
   -1.2670   10.4680   -3.0540 C   0  0  0  0  0  0  0  0  0  0  0  0
   -0.7540   14.1340   -0.3790 N   0  0  0  0  0  0  0  0  0  0  0  0
   -2.9010   15.3670   -0.4760 C   0  0  2  0  0  0  0  0  0  0  0  0
   -0.5680   14.3630    1.0370 C   0  0  0  0  0  0  0  0  0  0  0  0
   -2.9350   14.5620    0.7870 C   0  0  1  0  0  0  0  0  0  0  0  0
   -4.1220   14.8500   -1.0920 N   0  0  0  0  0  0  0  0  0  0  0  0
   -1.8130   14.8150    1.6420 N   0  0  0  0  0  0  0  0  0  0  0  0
   -4.1920   15.0610    1.2650 N   0  0  0  0  0  0  0  0  0  0  0  0
   -5.0260   14.8360    0.0760 C   0  0  0  0  0  0  0  0  0  0  0  0
  1  2  1  0
  3  2  1  6
  3  4  1  0
  3  5  1  0
  4  6  1  6
  4  7  1  0
  8  5  1  1
  8  9  1  0
 10  7  1  1
  8 10  1  0
  9 11  1  0
 10 12  1  0
 11 13  1  6
 12 14  1  1
 12 15  1  0
 11 16  1  0
 15 16  1  0
 16 17  1  1
 15 18  1  6
 19 14  1  6
 17 20  1  0
 18 20  1  0
 19 21  1  0
 19 22  1  0
 21 23  1  0
 22 24  1  0
 22 25  1  6
 23 26  1  0
 24 26  1  1
 24 27  1  0
 25 28  1  0
 27 28  1  0
M  END
