ucsf264-ucsf345
     RDKit          3D

 29 31  0  0  0  0  0  0  0  0999 V2000
    1.2030   12.8150   -2.6020 O   0  0  0  0  0  0  0  0  0  0  0  0
    1.0560   12.2210   -3.7770 C   0  0  1  0  0  0  0  0  0  0  0  0
    0.6190   10.9650   -3.2790 O   0  0  0  0  0  0  0  0  0  0  0  0
   -0.1080   12.8080   -4.7190 C   0  0  1  0  0  0  0  0  0  0  0  0
   -0.0830   14.3800   -4.7430 C   0  0  0  0  0  0  0  0  0  0  0  0
   -0.2530   12.2320   -6.1170 N   0  0  0  0  0  0  0  0  0  0  0  0
   -1.3580   15.0610   -4.1830 C   0  0  0  0  0  0  0  0  0  0  0  0
    0.9310   11.8450   -6.9150 N   0  0  0  0  0  0  0  0  0  0  0  0
   -1.3220   11.2630   -6.3130 C   0  0  1  0  0  0  0  0  0  0  0  0
   -1.7290   14.6260   -2.7370 C   0  0  0  0  0  0  0  0  0  0  0  0
    0.6060   10.6160   -7.6850 C   0  0  1  0  0  0  0  0  0  0  0  0
   -0.9000   10.4500   -7.5430 C   0  0  1  0  0  0  0  0  0  0  0  0
   -1.6550   10.3440   -5.1360 C   0  0  0  0  0  0  0  0  0  0  0  0
    0.9930   10.3670   -9.1660 C   0  0  0  0  0  0  0  0  0  0  0  0
   -1.2760    8.9620   -7.4630 C   0  0  0  0  0  0  0  0  0  0  0  0
   -2.8220    9.4280   -5.4990 C   0  0  0  0  0  0  0  0  0  0  0  0
   -3.0980   15.0110   -2.1010 C   0  0  1  0  0  0  0  0  0  0  0  0
    1.6530    9.1920   -9.2910 F   0  0  0  0  0  0  0  0  0  0  0  0
   -0.1350   10.1980   -9.9020 F   0  0  0  0  0  0  0  0  0  0  0  0
    1.6660   11.3040   -9.8330 F   0  0  0  0  0  0  0  0  0  0  0  0
   -2.6520    8.7380   -6.8500 C   0  0  0  0  0  0  0  0  0  0  0  0
   -4.3540   14.5560   -2.8820 C   0  0  0  0  0  0  0  0  0  0  0  0
   -3.1040   14.6390   -0.6650 N   0  0  0  0  0  0  0  0  0  0  0  0
   -5.5640   14.3990   -2.0690 N   0  0  0  0  0  0  0  0  0  0  0  0
   -4.2820   15.1600    0.0420 C   0  0  0  0  0  0  0  0  0  0  0  0
   -5.5610   15.2640   -0.8460 C   0  0  2  0  0  0  0  0  0  0  0  0
   -6.8700   14.9200   -0.0410 C   0  0  2  0  0  0  0  0  0  0  0  0
   -6.6460   14.6780    1.3710 N   0  0  0  0  0  0  0  0  0  0  0  0
   -7.4480   13.7480   -0.5520 O   0  0  0  0  0  0  0  0  0  0  0  0
  2  1  1  1
  2  3  1  0
  2  4  1  0
  4  5  1  6
  4  6  1  0
  5  7  1  0
  6  8  1  0
  6  9  1  0
  7 10  1  0
  8 11  1  0
  9 12  1  0
 11 12  1  0
  9 13  1  1
 11 14  1  6
 12 15  1  1
 13 16  1  0
 17 10  1  6
 14 18  1  0
 14 19  1  0
 14 20  1  0
 15 21  1  0
 16 21  1  0
 17 22  1  0
 17 23  1  0
 22 24  1  0
 23 25  1  0
 24 26  1  0
 26 25  1  1
 26 27  1  0
 27 28  1  1
 27 29  1  0
M  CHG  1   1  -1
M  END
