ucsf135-ucsf303
     RDKit          3D

 28 31  0  0  0  0  0  0  0  0999 V2000
    0.4430   12.4440   -7.3990 O   0  0  0  0  0  0  0  0  0  0  0  0
    0.8610   11.4320   -6.5810 C   0  0  1  0  0  0  0  0  0  0  0  0
    0.8020   11.9150   -5.1980 N   0  0  0  0  0  0  0  0  0  0  0  0
    0.0080   10.1210   -6.7760 C   0  0  1  0  0  0  0  0  0  0  0  0
   -0.4420   11.1770   -4.4000 S   0  0  2  0  0  0  0  0  0  0  0  0
   -0.8070    9.8060   -5.4910 C   0  0  1  0  0  0  0  0  0  0  0  0
   -0.8970   10.1490   -8.0090 C   0  0  0  0  0  0  0  0  0  0  0  0
   -1.7470   12.0670   -4.1600 O   0  0  0  0  0  0  0  0  0  0  0  0
    0.0580   10.5350   -3.0250 O   0  0  0  0  0  0  0  0  0  0  0  0
   -2.2580    9.4600   -5.7320 C   0  0  0  0  0  0  0  0  0  0  0  0
   -1.6710    8.8430   -8.1530 C   0  0  0  0  0  0  0  0  0  0  0  0
   -1.7200   13.1710   -3.2590 C   0  0  0  0  0  0  0  0  0  0  0  0
   -2.5000    8.5140   -6.9090 C   0  0  0  0  0  0  0  0  0  0  0  0
   -2.7420   14.1090   -3.5480 O   0  0  0  0  0  0  0  0  0  0  0  0
   -3.9590   14.3580   -2.5170 S   0  0  1  0  0  0  0  0  0  0  0  0
   -4.7190   15.6480   -3.0140 O   0  0  0  0  0  0  0  0  0  0  0  0
   -5.0850   13.1700   -2.4100 N   0  0  0  0  0  0  0  0  0  0  0  0
   -3.3230   14.9820   -0.9950 C   0  0  0  0  0  0  0  0  0  0  0  0
   -4.8510   11.9720   -1.6720 C   0  0  1  0  0  0  0  0  0  0  0  0
   -2.0300   14.2860   -0.4890 C   0  0  0  0  0  0  0  0  0  0  0  0
   -4.4800   15.1620   -0.0080 C   0  0  0  0  0  0  0  0  0  0  0  0
   -5.9570   11.0510   -1.9010 N   0  0  0  0  0  0  0  0  0  0  0  0
   -3.3460   11.2240   -2.2960 S   0  0  0  0  0  0  0  0  0  0  0  0
   -1.6760   14.6400    0.9520 C   0  0  0  0  0  0  0  0  0  0  0  0
   -3.9940   15.5660    1.3490 C   0  0  0  0  0  0  0  0  0  0  0  0
   -4.1240    9.6160   -2.4590 C   0  0  0  0  0  0  0  0  0  0  0  0
   -5.4750    9.6730   -1.8840 N   0  0  0  0  0  0  0  0  0  0  0  0
   -2.9410   14.5790    1.7750 C   0  0  0  0  0  0  0  0  0  0  0  0
  2  1  1  6
  2  3  1  0
  2  4  1  0
  3  5  1  0
  4  6  1  0
  5  6  1  0
  4  7  1  6
  5  8  1  0
  5  9  1  1
  6 10  1  6
  7 11  1  0
  8 12  1  0
 10 13  1  0
 11 13  1  0
 12 14  1  0
 15 14  1  0
 15 16  1  6
 15 17  1  0
 15 18  1  0
 19 17  1  6
 18 20  1  0
 18 21  1  0
 19 22  1  0
 19 23  1  0
 20 24  1  0
 21 25  1  0
 23 26  1  0
 22 27  1  0
 26 27  1  0
 24 28  1  0
 25 28  1  0
M  END
