ucsf135-ucsf274
     RDKit          3D

 16 18  0  0  0  0  0  0  0  0999 V2000
    1.8300   11.7960   -6.9200 O   0  0  0  0  0  0  0  0  0  0  0  0
    0.4360   11.7370   -6.7990 C   0  0  2  0  0  0  0  0  0  0  0  0
    0.0380   12.3680   -5.5430 N   0  0  0  0  0  0  0  0  0  0  0  0
   -0.0990   10.2620   -6.8520 C   0  0  1  0  0  0  0  0  0  0  0  0
    1.0170   13.2930   -5.0110 C   0  0  0  0  0  0  0  0  0  0  0  0
   -0.6720   11.3110   -4.5010 S   0  0  2  0  0  0  0  0  0  0  0  0
   -0.7580    9.8250   -5.5010 C   0  0  1  0  0  0  0  0  0  0  0  0
   -0.9940    9.9940   -8.0480 C   0  0  0  0  0  0  0  0  0  0  0  0
   -2.1650   11.7020   -4.1190 O   0  0  0  0  0  0  0  0  0  0  0  0
    0.2150   11.0780   -3.1840 O   0  0  0  0  0  0  0  0  0  0  0  0
    0.7600   13.5000   -3.5190 C   0  0  0  0  0  0  0  0  0  0  0  0
   -2.1970    9.3670   -5.7020 C   0  0  0  0  0  0  0  0  0  0  0  0
   -1.5800    8.5920   -8.0490 C   0  0  0  0  0  0  0  0  0  0  0  0
    0.9600   12.2130   -2.7080 C   0  0  1  0  0  0  0  0  0  0  0  0
   -2.3160    8.2630   -6.7480 C   0  0  0  0  0  0  0  0  0  0  0  0
    0.5970   12.5040   -1.3610 O   0  0  0  0  0  0  0  0  0  0  0  0
  2  1  1  1
  2  3  1  0
  2  4  1  0
  3  5  1  0
  3  6  1  0
  4  7  1  0
  6  7  1  0
  4  8  1  6
  6  9  1  1
  6 10  1  0
  5 11  1  0
  7 12  1  6
  8 13  1  0
 10 14  1  0
 11 14  1  0
 12 15  1  0
 13 15  1  0
 14 16  1  1
M  END
