ucsf147-ucsf412
     RDKit          3D

 21 23  0  0  0  0  0  0  0  0999 V2000
    1.4060   13.1860   -5.4810 C   0  0  0  0  0  0  0  0  0  0  0  0
   -0.0050   12.8980   -4.9980 C   0  0  2  0  0  0  0  0  0  0  0  0
   -0.9110   13.7220   -5.7520 O   0  0  0  0  0  0  0  0  0  0  0  0
   -0.3790   13.1270   -3.5420 C   0  0  1  0  0  0  0  0  0  0  0  0
    0.6140   13.8390   -2.5890 C   0  0  2  0  0  0  0  0  0  0  0  0
   -2.1600   13.8620   -5.0000 N   0  0  0  0  0  0  0  0  0  0  0  0
   -1.8800   13.5130   -3.5780 C   0  0  2  0  0  0  0  0  0  0  0  0
    0.7340   13.1450   -1.3730 O   0  0  0  0  0  0  0  0  0  0  0  0
    0.1660   15.0110   -2.1990 O   0  0  0  0  0  0  0  0  0  0  0  0
   -2.3700   14.6210   -2.6140 C   0  0  2  0  0  0  0  0  0  0  0  0
   -2.1370   14.2610   -1.1270 C   0  0  0  0  0  0  0  0  0  0  0  0
   -3.8480   15.0350   -2.7810 C   0  0  0  0  0  0  0  0  0  0  0  0
   -3.3620   13.6940   -0.4070 C   0  0  0  0  0  0  0  0  0  0  0  0
   -4.4030   15.6600   -1.5020 C   0  0  0  0  0  0  0  0  0  0  0  0
   -4.5530   14.6660   -0.3470 C   0  0  1  0  0  0  0  0  0  0  0  0
   -5.8930   13.9100   -0.4980 C   0  0  0  0  0  0  0  0  0  0  0  0
   -4.5200   15.3650    1.0470 C   0  0  0  0  0  0  0  0  0  0  0  0
   -7.0420   14.7350    0.0480 C   0  0  1  0  0  0  0  0  0  0  0  0
   -5.5960   14.8180    1.9930 C   0  0  0  0  0  0  0  0  0  0  0  0
   -8.3070   14.2610   -0.3500 O   0  0  0  0  0  0  0  0  0  0  0  0
   -6.9750   14.8170    1.4890 N   0  0  0  0  0  0  0  0  0  0  0  0
  2  1  1  1
  2  3  1  0
  2  4  1  0
  4  5  1  6
  3  6  1  0
  4  7  1  0
  7  6  1  6
  5  8  1  1
  5  9  1  0
  7 10  1  0
 10 11  1  1
 10 12  1  0
 11 13  1  0
 12 14  1  0
 15 13  1  1
 14 15  1  0
 15 16  1  0
 15 17  1  0
 16 18  1  0
 17 19  1  0
 18 20  1  1
 18 21  1  0
 19 21  1  0
M  CHG  1   9  -1
M  END
