ucsf338-ucsf017
     RDKit          3D

 25 28  0  0  0  0  0  0  0  0999 V2000
   -8.9840   14.2830   -0.0470 O   0  0  0  0  0  0  0  0  0  0  0  0
   -7.5700   14.3590    0.3130 N   0  0  0  0  0  0  0  0  0  0  0  0
   -6.8520   15.1550   -0.6880 C   0  0  2  0  0  0  0  0  0  0  0  0
   -6.9240   14.5260   -1.9500 O   0  0  0  0  0  0  0  0  0  0  0  0
   -5.3800   15.4710   -0.3140 C   0  0  2  0  0  0  0  0  0  0  0  0
   -4.3240   15.4320   -1.4280 C   0  0  2  0  0  0  0  0  0  0  0  0
   -4.9610   14.7020    0.9530 C   0  0  0  0  0  0  0  0  0  0  0  0
   -4.3550   14.2170   -2.1490 O   0  0  0  0  0  0  0  0  0  0  0  0
   -2.8970   15.7600   -0.9440 C   0  0  0  0  0  0  0  0  0  0  0  0
   -3.6490   15.2450    1.4660 C   0  0  0  0  0  0  0  0  0  0  0  0
   -2.5170   15.1560    0.4070 C   0  0  2  0  0  0  0  0  0  0  0  0
   -1.3140   15.7850    1.0030 N   0  0  0  0  0  0  0  0  0  0  0  0
   -2.2090   13.7730   -0.1170 C   0  0  0  0  0  0  0  0  0  0  0  0
   -0.0840   15.0590    0.8870 C   0  0  0  0  0  0  0  0  0  0  0  0
   -0.7890   13.6170   -0.6910 C   0  0  1  0  0  0  0  0  0  0  0  0
   -0.6440   13.1570   -2.0650 N   0  0  0  0  0  0  0  0  0  0  0  0
    0.0340   14.7600   -0.4860 N   0  0  0  0  0  0  0  0  0  0  0  0
   -0.9100   14.0460   -3.2030 C   0  0  2  0  0  0  0  0  0  0  0  0
    0.6630   12.5270   -2.1730 C   0  0  0  0  0  0  0  0  0  0  0  0
   -2.4040   14.1880   -3.5590 C   0  0  0  0  0  0  0  0  0  0  0  0
   -0.3260   13.4750   -4.4940 C   0  0  2  0  0  0  0  0  0  0  0  0
    0.7130   11.6020   -3.3560 C   0  0  0  0  0  0  0  0  0  0  0  0
   -1.2650   13.9860   -5.5350 C   0  0  0  0  0  0  0  0  0  0  0  0
   -2.5660   13.9500   -4.9680 O   0  0  0  0  0  0  0  0  0  0  0  0
   -0.2890   11.9590   -4.4230 C   0  0  0  0  0  0  0  0  0  0  0  0
  1  2  1  0
  2  3  1  0
  3  4  1  6
  3  5  1  0
  5  6  1  0
  5  7  1  1
  6  8  1  1
  6  9  1  0
  7 10  1  0
 11  9  1  6
 10 11  1  0
 11 12  1  0
 11 13  1  0
 12 14  1  0
 13 15  1  0
 15 16  1  6
 14 17  1  0
 15 17  1  0
 16 18  1  0
 16 19  1  0
 18 20  1  6
 18 21  1  0
 19 22  1  0
 21 23  1  6
 20 24  1  0
 23 24  1  0
 21 25  1  0
 22 25  1  0
M  END
