ucsf012-ucsf241
     RDKit          3D

 22 25  0  0  0  0  0  0  0  0999 V2000
   -2.5980   15.3320   -4.3590 C   0  0  0  0  0  0  0  0  0  0  0  0
   -2.2050   15.6100   -2.8990 C   0  0  1  0  0  0  0  0  0  0  0  0
   -2.9410   14.6820   -2.0830 C   0  0  2  0  0  0  0  0  0  0  0  0
   -0.7950   15.3470   -2.5800 N   0  0  0  0  0  0  0  0  0  0  0  0
   -4.3870   15.1050   -1.8840 C   0  0  0  0  0  0  0  0  0  0  0  0
   -0.2780   14.4000   -3.5210 C   0  0  0  0  0  0  0  0  0  0  0  0
   -2.1740   14.2770   -0.9470 C   0  0  1  0  0  0  0  0  0  0  0  0
   -0.8570   14.8690   -1.2260 C   0  0  2  0  0  0  0  0  0  0  0  0
   -3.0760   14.8150    0.5940 S   0  0  0  0  0  0  0  0  0  0  0  0
   -0.1200   15.4140   -0.2140 N   0  0  0  0  0  0  0  0  0  0  0  0
   -0.5410   12.9590   -3.2050 C   0  0  2  0  0  0  0  0  0  0  0  0
   -3.5660   16.5920    1.1400 N   0  0  0  0  0  0  0  0  0  0  0  0
   -1.5220   14.9600    1.2790 N   0  0  0  0  0  0  0  0  0  0  0  0
   -0.4340   14.3850    0.8370 C   0  0  0  0  0  0  0  0  0  0  0  0
    0.6060   12.1960   -2.6470 C   0  0  0  0  0  0  0  0  0  0  0  0
   -0.7320   12.2560   -4.4250 O   0  0  0  0  0  0  0  0  0  0  0  0
   -4.2100   13.3470    0.7150 C   0  0  0  0  0  0  0  0  0  0  0  0
   -4.1620   14.3130    1.0860 N   0  0  0  0  0  0  0  0  0  0  0  0
   -0.6380   10.8680   -4.1050 C   0  0  0  0  0  0  0  0  0  0  0  0
   -0.0340   10.8210   -2.6870 C   0  0  0  0  0  0  0  0  0  0  0  0
   -5.4500   14.8900    0.9010 C   0  0  0  0  0  0  0  0  0  0  0  0
   -5.4620   13.8290    0.0920 C   0  0  0  0  0  0  0  0  0  0  0  0
  2  1  1  6
  2  3  1  0
  2  4  1  0
  3  5  1  1
  4  6  1  0
  3  7  1  0
  4  8  1  0
  7  8  1  0
  7  9  1  1
  8 10  1  1
 11  6  1  6
  9 12  1  0
  9 13  1  0
 10 14  1  0
 13 14  1  0
 11 15  1  0
 11 16  1  0
  9 17  1  0
  9 18  1  0
 16 19  1  0
 15 20  1  0
 19 20  1  0
 18 21  1  0
 17 22  1  0
 21 22  1  0
M  END
