ucsf262-ucsf016
     RDKit          3D

 23 27  0  0  0  0  0  0  0  0999 V2000
   -3.1880   15.5000   -6.0360 Cl  0  0  0  0  0  0  0  0  0  0  0  0
   -1.9080   16.5680   -5.3670 C   0  0  1  0  0  0  0  0  0  0  0  0
   -1.0130   16.3500   -4.3350 C   0  0  1  0  0  0  0  0  0  0  0  0
   -1.6620   17.7980   -6.2480 C   0  0  0  0  0  0  0  0  0  0  0  0
   -1.0770   14.7690   -3.1990 S   0  0  0  0  0  0  0  0  0  0  0  0
    0.2920   17.0740   -4.1780 C   0  0  1  0  0  0  0  0  0  0  0  0
   -0.5640   18.6480   -5.7430 C   0  0  0  0  0  0  0  0  0  0  0  0
    0.7520   14.8990   -3.8650 C   0  0  1  0  0  0  0  0  0  0  0  0
    1.2280   16.1890   -3.7840 N   0  0  0  0  0  0  0  0  0  0  0  0
    0.6290   17.7530   -5.4720 C   0  0  0  0  0  0  0  0  0  0  0  0
   -1.4210   13.0270   -4.0650 C   0  0  0  0  0  0  0  0  0  0  0  0
   -2.4840   13.8330   -4.1460 C   0  0  0  0  0  0  0  0  0  0  0  0
   -0.3360   14.4520   -1.5380 N   0  0  0  0  0  0  0  0  0  0  0  0
   -2.0470   14.9020   -1.5290 C   0  0  1  0  0  0  0  0  0  0  0  0
    1.8200   14.0370   -3.2410 C   0  0  1  0  0  0  0  0  0  0  0  0
   -0.3700   13.3520   -0.8380 C   0  0  0  0  0  0  0  0  0  0  0  0
   -1.6170   14.9990   -0.1860 C   0  0  2  0  0  0  0  0  0  0  0  0
   -3.5120   15.3280   -1.6250 C   0  0  0  0  0  0  0  0  0  0  0  0
    2.6930   14.7280   -2.3840 O   0  0  0  0  0  0  0  0  0  0  0  0
    1.2210   13.0950   -2.3750 O   0  0  0  0  0  0  0  0  0  0  0  0
   -1.2920   13.6500    0.3150 N   0  0  0  0  0  0  0  0  0  0  0  0
   -2.8590   15.2220    0.5930 N   0  0  0  0  0  0  0  0  0  0  0  0
   -4.0140   15.2300   -0.1890 C   0  0  0  0  0  0  0  0  0  0  0  0
  2  1  1  6
  2  3  1  0
  2  4  1  0
  3  5  1  6
  3  6  1  0
  4  7  1  0
  5  8  1  0
  6  9  1  0
  8  9  1  1
  6 10  1  6
  7 10  1  0
  5 11  1  0
  5 12  1  0
 11 12  1  0
  5 13  1  0
  5 14  1  0
  8 15  1  0
 13 16  1  0
 14 17  1  0
 14 18  1  6
 15 19  1  1
 15 20  1  0
 16 21  1  0
 17 21  1  1
 17 22  1  0
 18 23  1  0
 22 23  1  0
M  CHG  1  19  -1
M  END
