ucsf039-ucsf442
     RDKit          3D

 22 25  0  0  0  0  0  0  0  0999 V2000
   -3.3600   15.2060    2.2350 N   0  0  0  0  0  0  0  0  0  0  0  0
   -3.1190   14.6570    0.9130 C   0  0  2  0  0  0  0  0  0  0  0  0
   -1.7330   14.8970    0.2920 C   0  0  2  0  0  0  0  0  0  0  0  0
   -4.2170   15.2030    0.0590 C   0  0  1  0  0  0  0  0  0  0  0  0
   -1.3560   16.2440    0.2540 O   0  0  0  0  0  0  0  0  0  0  0  0
   -4.2780   14.8070   -1.3250 N   0  0  0  0  0  0  0  0  0  0  0  0
   -1.4190   14.1920   -1.0600 C   0  0  1  0  0  0  0  0  0  0  0  0
   -0.6780   14.3840    1.1050 N   0  0  0  0  0  0  0  0  0  0  0  0
   -5.5310   15.0250    0.6700 N   0  0  0  0  0  0  0  0  0  0  0  0
   -3.2440   15.4060   -2.2010 C   0  0  0  0  0  0  0  0  0  0  0  0
   -2.0730   14.5230   -2.3200 N   0  0  0  0  0  0  0  0  0  0  0  0
   -0.0520   14.6120   -1.1630 N   0  0  0  0  0  0  0  0  0  0  0  0
    0.4140   14.4530    0.1710 C   0  0  0  0  0  0  0  0  0  0  0  0
   -5.6120   15.3340   -1.6290 N   0  0  0  0  0  0  0  0  0  0  0  0
   -6.4100   14.9450   -0.4700 C   0  0  0  0  0  0  0  0  0  0  0  0
   -1.1640   14.7140   -3.4900 C   0  0  0  0  0  0  0  0  0  0  0  0
   -0.7010   16.1520   -3.9050 C   0  0  1  0  0  0  0  0  0  0  0  0
    0.7880   16.2570   -4.2640 C   0  0  0  0  0  0  0  0  0  0  0  0
   -1.4410   16.7170   -5.0750 N   0  0  0  0  0  0  0  0  0  0  0  0
   -0.6100   17.7320   -5.7530 C   0  0  2  0  0  0  0  0  0  0  0  0
    0.8910   17.9720   -4.7890 S   0  0  0  0  0  0  0  0  0  0  0  0
   -1.3880   19.0220   -5.9720 C   0  0  0  0  0  0  0  0  0  0  0  0
  2  1  1  1
  2  3  1  0
  2  4  1  0
  3  5  1  6
  4  6  1  0
  3  7  1  0
  3  8  1  0
  4  9  1  1
  6 10  1  0
  7 11  1  0
 10 11  1  0
  7 12  1  6
  8 13  1  0
 12 13  1  0
  6 14  1  0
  9 15  1  0
 14 15  1  0
 11 16  1  0
 17 16  1  6
 17 18  1  0
 17 19  1  0
 19 20  1  0
 18 21  1  0
 20 21  1  0
 20 22  1  1
M  END
