ucsf224-ucsf012
     RDKit          3D

 29 32  0  0  0  0  0  0  0  0999 V2000
   -1.3730   17.9610   -6.1540 Cl  0  0  0  0  0  0  0  0  0  0  0  0
   -0.5920   17.0220   -4.8380 C   0  0  1  0  0  0  0  0  0  0  0  0
   -1.2700   15.6950   -4.3840 C   0  0  1  0  0  0  0  0  0  0  0  0
    0.9180   16.8620   -5.0490 C   0  0  0  0  0  0  0  0  0  0  0  0
   -2.7940   15.5470   -4.1240 C   0  0  0  0  0  0  0  0  0  0  0  0
   -0.6830   14.4050   -5.0230 C   0  0  0  0  0  0  0  0  0  0  0  0
    1.4480   15.6120   -4.3360 C   0  0  0  0  0  0  0  0  0  0  0  0
    0.8640   14.3790   -5.0200 C   0  0  1  0  0  0  0  0  0  0  0  0
   -2.9570   14.6570   -2.8400 C   0  0  2  0  0  0  0  0  0  0  0  0
    1.5940   13.0250   -4.6920 C   0  0  0  0  0  0  0  0  0  0  0  0
   -3.8600   15.2030   -1.6640 C   0  0  1  0  0  0  0  0  0  0  0  0
   -1.6160   14.8260   -2.2390 N   0  0  0  0  0  0  0  0  0  0  0  0
    2.0300   12.6240   -3.2460 C   0  0  2  0  0  0  0  0  0  0  0  0
   -5.2580   14.6130   -1.6000 C   0  0  0  0  0  0  0  0  0  0  0  0
   -0.4710   14.3010   -2.9770 C   0  0  0  0  0  0  0  0  0  0  0  0
   -2.9770   14.9580   -0.4190 C   0  0  2  0  0  0  0  0  0  0  0  0
   -1.6960   14.3460   -0.9050 C   0  0  2  0  0  0  0  0  0  0  0  0
    1.3550   11.5600   -2.8840 O   0  0  0  0  0  0  0  0  0  0  0  0
    1.6240   13.5280   -2.2500 O   0  0  0  0  0  0  0  0  0  0  0  0
   -3.2390   14.3040    0.8810 C   0  0  2  0  0  0  0  0  0  0  0  0
   -0.5680   14.7470   -0.1200 N   0  0  0  0  0  0  0  0  0  0  0  0
   -0.3460   12.8030   -3.2650 C   0  0  1  0  0  0  0  0  0  0  0  0
   -4.3250   14.9900    1.5240 N   0  0  0  0  0  0  0  0  0  0  0  0
   -2.0790   14.4740    1.7600 N   0  0  0  0  0  0  0  0  0  0  0  0
   -0.7170   14.2720    1.2320 C   0  0  0  0  0  0  0  0  0  0  0  0
   -0.2550   11.8970   -2.0720 C   0  0  0  0  0  0  0  0  0  0  0  0
   -1.3040   12.2010   -4.1410 O   0  0  0  0  0  0  0  0  0  0  0  0
   -0.8690   10.8360   -4.1390 C   0  0  0  0  0  0  0  0  0  0  0  0
   -0.4720   10.5410   -2.7040 C   0  0  0  0  0  0  0  0  0  0  0  0
  2  1  1  6
  2  3  1  0
  2  4  1  0
  3  5  1  6
  3  6  1  0
  4  7  1  0
  6  8  1  0
  7  8  1  0
  9  5  1  6
  8 10  1  1
  9 11  1  0
  9 12  1  0
 10 13  1  0
 11 14  1  1
 12 15  1  0
 11 16  1  0
 12 17  1  0
 16 17  1  0
 13 18  1  1
 13 19  1  0
 16 20  1  1
 17 21  1  1
 22 15  1  1
 20 23  1  1
 20 24  1  0
 21 25  1  0
 24 25  1  0
 22 26  1  0
 22 27  1  0
 27 28  1  0
 26 29  1  0
 28 29  1  0
M  CHG  1  18  -1
M  END
