ucsf151-ucsf345
     RDKit          3D

 18 19  0  0  0  0  0  0  0  0999 V2000
    0.5860   13.1580   -2.0420 O   0  0  0  0  0  0  0  0  0  0  0  0
   -0.0990   13.9660   -2.8330 C   0  0  2  0  0  0  0  0  0  0  0  0
    0.0200   15.1630   -2.0820 O   0  0  0  0  0  0  0  0  0  0  0  0
   -1.5980   13.4730   -2.9480 C   0  0  1  0  0  0  0  0  0  0  0  0
   -2.8690   14.4690   -2.9560 C   0  0  1  0  0  0  0  0  0  0  0  0
   -1.6900   12.5270   -4.1750 C   0  0  0  0  0  0  0  0  0  0  0  0
   -2.9650   15.2300   -4.3620 C   0  0  1  0  0  0  0  0  0  0  0  0
   -2.7370   12.8790   -5.1450 N   0  0  0  0  0  0  0  0  0  0  0  0
   -4.2490   13.7190   -2.8030 C   0  0  0  0  0  0  0  0  0  0  0  0
   -2.8320   15.2840   -1.6570 N   0  0  0  0  0  0  0  0  0  0  0  0
   -2.2120   16.4330   -4.5560 O   0  0  0  0  0  0  0  0  0  0  0  0
   -2.6210   14.2850   -5.5250 C   0  0  0  0  0  0  0  0  0  0  0  0
   -5.4640   14.5460   -2.4690 N   0  0  0  0  0  0  0  0  0  0  0  0
   -3.8690   14.9580   -0.6400 C   0  0  0  0  0  0  0  0  0  0  0  0
   -5.2940   15.2300   -1.1730 C   0  0  2  0  0  0  0  0  0  0  0  0
   -6.4950   14.9060   -0.2060 C   0  0  2  0  0  0  0  0  0  0  0  0
   -6.1600   14.7400    1.2030 N   0  0  0  0  0  0  0  0  0  0  0  0
   -7.2240   13.7630   -0.5710 O   0  0  0  0  0  0  0  0  0  0  0  0
  2  1  1  1
  2  3  1  0
  2  4  1  0
  4  5  1  0
  4  6  1  6
  5  7  1  0
  6  8  1  0
  5  9  1  1
  5 10  1  0
  7 11  1  1
  7 12  1  0
  8 12  1  0
  9 13  1  0
 10 14  1  0
 13 15  1  0
 15 14  1  1
 15 16  1  0
 16 17  1  1
 16 18  1  0
M  CHG  1   1  -1
M  END
