ucsf404-ucsf378
     RDKit          3D

 24 26  0  0  0  0  0  0  0  0999 V2000
   -6.7840   15.5660   -1.8650 Cl  0  0  0  0  0  0  0  0  0  0  0  0
   -5.2400   14.6820   -1.6970 C   0  0  2  0  0  0  0  0  0  0  0  0
   -5.1820   14.0300   -0.3050 C   0  0  2  0  0  0  0  0  0  0  0  0
   -4.0520   15.5730   -1.9300 C   0  0  0  0  0  0  0  0  0  0  0  0
   -6.2250   14.6210    0.5690 N   0  0  0  0  0  0  0  0  0  0  0  0
   -3.8140   14.0720    0.4630 C   0  0  2  0  0  0  0  0  0  0  0  0
   -2.7700   14.7670   -1.7680 C   0  0  2  0  0  0  0  0  0  0  0  0
   -2.8070   13.6240   -2.7850 C   0  0  0  0  0  0  0  0  0  0  0  0
   -5.6950   14.4420    1.8710 C   0  0  1  0  0  0  0  0  0  0  0  0
   -4.1270   15.2710    1.7720 S   0  0  0  0  0  0  0  0  0  0  0  0
   -2.5270   14.3470   -0.3120 C   0  0  0  0  0  0  0  0  0  0  0  0
   -6.5950   15.0030    2.8140 N   0  0  0  0  0  0  0  0  0  0  0  0
   -2.2230   14.0710   -4.1240 C   0  0  0  0  0  0  0  0  0  0  0  0
   -0.7470   14.4960   -3.9760 C   0  0  1  0  0  0  0  0  0  0  0  0
    0.2150   13.3660   -4.4300 C   0  0  2  0  0  0  0  0  0  0  0  0
   -0.4950   15.8500   -4.6760 C   0  0  0  0  0  0  0  0  0  0  0  0
   -0.1050   11.9890   -3.7710 C   0  0  0  0  0  0  0  0  0  0  0  0
    1.6440   13.9000   -4.4700 C   0  0  2  0  0  0  0  0  0  0  0  0
    0.9430   16.3210   -4.5160 C   0  0  0  0  0  0  0  0  0  0  0  0
    2.9410   12.8070   -3.9390 Cl  0  0  0  0  0  0  0  0  0  0  0  0
    0.4760   11.5030   -2.4240 C   0  0  1  0  0  0  0  0  0  0  0  0
    1.8030   15.2650   -3.8470 C   0  0  0  0  0  0  0  0  0  0  0  0
   -0.1450   11.9280   -1.3460 O   0  0  0  0  0  0  0  0  0  0  0  0
    0.3240   10.1160   -2.3380 O   0  0  0  0  0  0  0  0  0  0  0  0
  2  1  1  1
  2  3  1  0
  2  4  1  0
  3  5  1  1
  3  6  1  0
  4  7  1  0
  7  8  1  6
  5  9  1  0
  6 10  1  0
  9 10  1  0
  6 11  1  6
  7 11  1  0
  9 12  1  1
  8 13  1  0
 14 13  1  6
 14 15  1  0
 14 16  1  0
 15 17  1  1
 15 18  1  0
 16 19  1  0
 18 20  1  1
 17 21  1  0
 18 22  1  0
 19 22  1  0
 21 23  1  1
 21 24  1  0
M  CHG  1  23  -1
M  END
