ucsf523-ucsf336
     RDKit          3D

 27 29  0  0  0  0  0  0  0  0999 V2000
    0.1810   14.2130    1.7380 N   0  0  0  0  0  0  0  0  0  0  0  0
   -0.8240   13.9630    0.7840 C   0  0  1  0  0  0  0  0  0  0  0  0
   -1.9870   14.1040    1.5650 N   0  0  0  0  0  0  0  0  0  0  0  0
   -0.7510   14.9990   -0.1760 N   0  0  0  0  0  0  0  0  0  0  0  0
   -1.7110   14.7470   -1.2620 C   0  0  1  0  0  0  0  0  0  0  0  0
   -3.0480   14.6270    0.7630 C   0  0  1  0  0  0  0  0  0  0  0  0
   -1.0630   14.0010   -2.2530 O   0  0  0  0  0  0  0  0  0  0  0  0
   -3.0190   14.1650   -0.7130 C   0  0  1  0  0  0  0  0  0  0  0  0
   -4.2700   14.1250    1.2840 N   0  0  0  0  0  0  0  0  0  0  0  0
    0.2250   14.6020   -2.4560 C   0  0  0  0  0  0  0  0  0  0  0  0
   -5.1990   15.1160    0.8640 C   0  0  2  0  0  0  0  0  0  0  0  0
   -4.2550   14.5510   -1.4670 N   0  0  0  0  0  0  0  0  0  0  0  0
   -6.3890   14.7960    1.5480 O   0  0  0  0  0  0  0  0  0  0  0  0
    1.3450   13.8820   -1.7050 C   0  0  0  0  0  0  0  0  0  0  0  0
   -5.3170   15.2480   -0.6940 C   0  0  0  0  0  0  0  0  0  0  0  0
    1.7260   12.7800   -2.5160 O   0  0  0  0  0  0  0  0  0  0  0  0
    1.3540   13.0010   -3.8900 C   0  0  1  0  0  0  0  0  0  0  0  0
    2.3900   12.7120   -4.6490 O   0  0  0  0  0  0  0  0  0  0  0  0
    0.1480   11.9960   -4.2130 C   0  0  2  0  0  0  0  0  0  0  0  0
    0.2520   10.8360   -3.3760 O   0  0  0  0  0  0  0  0  0  0  0  0
    0.1600   11.5530   -5.6070 N   0  0  0  0  0  0  0  0  0  0  0  0
   -0.6070   10.3350   -5.8570 C   0  0  0  0  0  0  0  0  0  0  0  0
   -0.3640    9.9620   -7.3260 C   0  0  0  0  0  0  0  0  0  0  0  0
   -2.1170   10.4930   -5.5820 C   0  0  0  0  0  0  0  0  0  0  0  0
   -1.5340    9.2150   -7.9820 C   0  0  0  0  0  0  0  0  0  0  0  0
   -2.9570    9.2470   -5.8860 C   0  0  0  0  0  0  0  0  0  0  0  0
   -2.3800    8.4010   -7.0040 C   0  0  0  0  0  0  0  0  0  0  0  0
  2  1  1  1
  2  3  1  0
  2  4  1  0
  4  5  1  0
  6  3  1  1
  5  7  1  6
  5  8  1  0
  6  8  1  0
  6  9  1  0
  7 10  1  0
  9 11  1  0
  8 12  1  6
 11 13  1  6
 10 14  1  0
 11 15  1  0
 12 15  1  0
 14 16  1  0
 16 17  1  0
 17 18  1  6
 17 19  1  0
 19 20  1  1
 19 21  1  0
 21 22  1  0
 22 23  1  0
 22 24  1  0
 23 25  1  0
 24 26  1  0
 25 27  1  0
 26 27  1  0
M  CHG  1  18  -1
M  END
