ucsf005-ucsf396
     RDKit          3D

 20 22  0  0  0  0  0  0  0  0999 V2000
    0.6170   14.7840   -2.6040 C   0  0  0  0  0  0  0  0  0  0  0  0
   -0.3880   15.7820   -2.2610 N   0  0  0  0  0  0  0  0  0  0  0  0
   -1.5130   15.8110   -3.2000 C   0  0  0  0  0  0  0  0  0  0  0  0
   -0.9920   15.5780   -0.9530 C   0  0  1  0  0  0  0  0  0  0  0  0
   -2.7150   15.4430   -2.4390 N   0  0  0  0  0  0  0  0  0  0  0  0
   -2.1470   14.6790   -1.3080 C   0  0  2  0  0  0  0  0  0  0  0  0
   -0.0720   14.9920   -0.0240 N   0  0  0  0  0  0  0  0  0  0  0  0
   -2.9600   14.4590   -0.0180 C   0  0  2  0  0  0  0  0  0  0  0  0
   -0.7620   14.0590    0.8260 C   0  0  1  0  0  0  0  0  0  0  0  0
   -4.0340   15.3720    0.3020 N   0  0  0  0  0  0  0  0  0  0  0  0
   -0.0200   14.1500    2.0320 N   0  0  0  0  0  0  0  0  0  0  0  0
   -2.0740   14.5690    1.1360 N   0  0  0  0  0  0  0  0  0  0  0  0
   -5.1470   15.4150   -0.6070 C   0  0  1  0  0  0  0  0  0  0  0  0
   -4.6990   14.6560   -1.7460 N   0  0  0  0  0  0  0  0  0  0  0  0
   -6.4500   14.8020   -0.0450 C   0  0  1  0  0  0  0  0  0  0  0  0
   -6.9650   13.6170   -0.8730 C   0  0  0  0  0  0  0  0  0  0  0  0
   -6.3790   14.4080    1.4470 C   0  0  0  0  0  0  0  0  0  0  0  0
   -8.2030   13.0690   -0.3280 N   0  0  0  0  0  0  0  0  0  0  0  0
   -7.7650   14.0760    1.9700 C   0  0  0  0  0  0  0  0  0  0  0  0
   -8.7380   13.8400    0.8100 C   0  0  0  0  0  0  0  0  0  0  0  0
  1  2  1  0
  2  3  1  0
  2  4  1  0
  3  5  1  0
  4  6  1  0
  6  5  1  6
  4  7  1  1
  6  8  1  0
  7  9  1  0
  8 10  1  1
  9 11  1  1
  8 12  1  0
  9 12  1  0
 10 13  1  0
 13 14  1  6
 13 15  1  0
 15 16  1  6
 15 17  1  0
 16 18  1  0
 17 19  1  0
 18 20  1  0
 19 20  1  0
M  END
