ucsf411-ucsf039
     RDKit          3D

 27 30  0  0  0  0  0  0  0  0999 V2000
    0.5680   10.4590   -2.4050 O   0  0  0  0  0  0  0  0  0  0  0  0
    0.3060   11.7430   -2.6650 C   0  0  1  0  0  0  0  0  0  0  0  0
    0.6890   12.3120   -1.4270 O   0  0  0  0  0  0  0  0  0  0  0  0
    1.2030   12.3020   -3.8340 C   0  0  0  0  0  0  0  0  0  0  0  0
    0.9880   13.7220   -4.0870 O   0  0  0  0  0  0  0  0  0  0  0  0
    0.0030   14.0380   -5.0800 C   0  0  2  0  0  0  0  0  0  0  0  0
   -0.2980   15.5520   -5.0670 C   0  0  1  0  0  0  0  0  0  0  0  0
   -1.3200   13.3040   -4.7790 C   0  0  0  0  0  0  0  0  0  0  0  0
   -1.7740   16.0320   -5.0640 C   0  0  2  0  0  0  0  0  0  0  0  0
   -2.4640   13.6670   -5.7270 C   0  0  0  0  0  0  0  0  0  0  0  0
    0.3660   16.3880   -3.9840 C   0  0  2  0  0  0  0  0  0  0  0  0
   -0.1130   16.0250   -2.5310 C   0  0  0  0  0  0  0  0  0  0  0  0
   -2.8480   15.1380   -5.6900 C   0  0  0  0  0  0  0  0  0  0  0  0
   -1.7940   17.4420   -5.6600 C   0  0  0  0  0  0  0  0  0  0  0  0
    0.3490   17.8890   -4.4550 C   0  0  0  0  0  0  0  0  0  0  0  0
   -0.3780   17.9750   -5.8180 C   0  0  2  0  0  0  0  0  0  0  0  0
   -1.2830   15.1420   -2.2150 N   0  0  0  0  0  0  0  0  0  0  0  0
   -0.4380   19.3080   -6.5340 C   0  0  0  0  0  0  0  0  0  0  0  0
   -2.6590   15.5210   -2.4810 C   0  0  0  0  0  0  0  0  0  0  0  0
   -1.0540   14.3000   -1.0520 C   0  0  2  0  0  0  0  0  0  0  0  0
   -3.4470   15.8890   -1.3060 N   0  0  0  0  0  0  0  0  0  0  0  0
   -2.0140   14.4590    0.1340 C   0  0  2  0  0  0  0  0  0  0  0  0
    0.2800   14.5590   -0.4700 N   0  0  0  0  0  0  0  0  0  0  0  0
   -3.4420   14.8830   -0.2820 C   0  0  1  0  0  0  0  0  0  0  0  0
   -1.3140   15.4300    1.0000 N   0  0  0  0  0  0  0  0  0  0  0  0
    0.0280   14.8850    0.9240 C   0  0  0  0  0  0  0  0  0  0  0  0
   -4.1620   15.5320    0.8130 N   0  0  0  0  0  0  0  0  0  0  0  0
  2  1  1  1
  2  3  1  0
  2  4  1  0
  4  5  1  0
  6  5  1  1
  7  6  1  1
  6  8  1  0
  7  9  1  0
  8 10  1  0
  7 11  1  0
 11 12  1  1
  9 13  1  6
 10 13  1  0
  9 14  1  0
 11 15  1  0
 14 16  1  0
 15 16  1  0
 12 17  1  0
 16 18  1  1
 17 19  1  0
 17 20  1  0
 19 21  1  0
 20 22  1  0
 20 23  1  1
 21 24  1  0
 22 24  1  0
 22 25  1  1
 23 26  1  0
 25 26  1  0
 24 27  1  1
M  CHG  1   1  -1
M  END
