ucsf110-ucsf190
     RDKit          3D

 25 28  0  0  0  0  0  0  0  0999 V2000
   -0.4300   13.0800   -2.7550 C   0  0  0  0  0  0  0  0  0  0  0  0
   -1.5930   13.7880   -2.3060 N   0  0  0  0  0  0  0  0  0  0  0  0
   -2.0350   14.9740   -3.1010 C   0  0  1  0  0  0  0  0  0  0  0  0
   -1.2940   14.4370   -1.0570 C   0  0  1  0  0  0  0  0  0  0  0  0
   -2.7220   15.7400   -1.8340 C   0  0  0  0  0  0  0  0  0  0  0  0
   -2.6990   14.6620   -0.7270 C   0  0  2  0  0  0  0  0  0  0  0  0
   -0.5140   13.7890   -0.0430 N   0  0  0  0  0  0  0  0  0  0  0  0
   -0.6310   15.3270   -3.7650 C   0  0  1  0  0  0  0  0  0  0  0  0
   -3.0930   14.6770   -4.2450 C   0  0  0  0  0  0  0  0  0  0  0  0
   -2.7390   14.8570    0.7960 C   0  0  2  0  0  0  0  0  0  0  0  0
   -0.4210   14.5740    1.1620 C   0  0  0  0  0  0  0  0  0  0  0  0
   -0.3170   14.3430   -4.9000 C   0  0  1  0  0  0  0  0  0  0  0  0
   -0.0660   16.6170   -4.4210 C   0  0  1  0  0  0  0  0  0  0  0  0
   -2.7040   13.5560   -5.2220 C   0  0  0  0  0  0  0  0  0  0  0  0
   -3.8810   15.5690    1.3350 N   0  0  0  0  0  0  0  0  0  0  0  0
   -0.4530   17.8160   -3.7930 O   0  0  0  0  0  0  0  0  0  0  0  0
   -1.5370   15.5040    1.2280 N   0  0  0  0  0  0  0  0  0  0  0  0
    1.2220   14.1180   -4.9190 C   0  0  2  0  0  0  0  0  0  0  0  0
    1.4190   16.5370   -4.3440 N   0  0  0  0  0  0  0  0  0  0  0  0
   -1.2520   13.1360   -5.0620 C   0  0  0  0  0  0  0  0  0  0  0  0
    1.7440   12.6910   -4.5860 C   0  0  0  0  0  0  0  0  0  0  0  0
    1.9080   15.1710   -4.0910 N   0  0  0  0  0  0  0  0  0  0  0  0
    1.9250   12.2270   -3.1030 C   0  0  2  0  0  0  0  0  0  0  0  0
    1.0240   11.3030   -2.8030 O   0  0  0  0  0  0  0  0  0  0  0  0
    1.7240   13.2960   -2.1950 O   0  0  0  0  0  0  0  0  0  0  0  0
  1  2  1  0
  3  2  1  0
  2  4  1  0
  3  5  1  1
  4  6  1  0
  6  5  1  6
  4  7  1  1
  3  8  1  0
  3  9  1  0
  6 10  1  0
  7 11  1  0
  8 12  1  0
  8 13  1  6
  9 14  1  0
 10 15  1  6
 13 16  1  1
 10 17  1  0
 11 17  1  0
 12 18  1  0
 13 19  1  0
 12 20  1  1
 14 20  1  0
 18 21  1  1
 18 22  1  0
 19 22  1  0
 21 23  1  0
 23 24  1  1
 23 25  1  0
M  CHG  1  24  -1
M  END
