ucsf170-ucsf260
     RDKit          3D

 24 27  0  0  0  0  0  0  0  0999 V2000
   -4.7980   15.2770    1.3380 C   0  0  0  0  0  0  0  0  0  0  0  0
   -3.2320   14.4340    1.0870 S   0  0  0  0  0  0  0  0  0  0  0  0
   -2.9430   14.9100   -0.6550 C   0  0  1  0  0  0  0  0  0  0  0  0
   -1.5370   14.5020   -1.1670 C   0  0  0  0  0  0  0  0  0  0  0  0
   -4.0630   14.4740   -1.5840 C   0  0  0  0  0  0  0  0  0  0  0  0
   -1.6340   13.7710   -2.5140 C   0  0  2  0  0  0  0  0  0  0  0  0
   -3.7760   15.0500   -2.9670 C   0  0  0  0  0  0  0  0  0  0  0  0
   -0.3450   13.0730   -3.0320 C   0  0  2  0  0  0  0  0  0  0  0  0
   -2.4530   14.5390   -3.5610 C   0  0  1  0  0  0  0  0  0  0  0  0
   -1.7820   15.6440   -4.1510 O   0  0  0  0  0  0  0  0  0  0  0  0
    0.8030   13.4210   -2.2760 O   0  0  0  0  0  0  0  0  0  0  0  0
    0.0260   13.1680   -4.4640 N   0  0  0  0  0  0  0  0  0  0  0  0
    1.6920   12.5330   -2.9430 C   0  0  2  0  0  0  0  0  0  0  0  0
    1.4870   12.9370   -4.4230 C   0  0  0  0  0  0  0  0  0  0  0  0
   -0.7580   12.3580   -5.4370 N   0  0  0  0  0  0  0  0  0  0  0  0
    1.1740   11.3380   -2.7390 O   0  0  0  0  0  0  0  0  0  0  0  0
   -2.0510   11.8980   -4.8720 C   0  0  0  0  0  0  0  0  0  0  0  0
   -0.2420   11.1890   -6.2080 C   0  0  1  0  0  0  0  0  0  0  0  0
   -2.2040   10.4640   -5.1680 N   0  0  0  0  0  0  0  0  0  0  0  0
   -1.5010   10.3500   -6.4440 C   0  0  2  0  0  0  0  0  0  0  0  0
    0.6370   11.2100   -7.4650 C   0  0  0  0  0  0  0  0  0  0  0  0
   -1.1540    8.9220   -6.8350 C   0  0  0  0  0  0  0  0  0  0  0  0
    0.8170    9.8270   -8.1410 C   0  0  0  0  0  0  0  0  0  0  0  0
   -0.4340    8.9430   -8.1750 C   0  0  0  0  0  0  0  0  0  0  0  0
  1  2  1  0
  3  2  1  1
  3  4  1  0
  3  5  1  0
  6  4  1  1
  5  7  1  0
  6  8  1  0
  6  9  1  0
  7  9  1  0
  9 10  1  1
  8 11  1  1
  8 12  1  0
 11 13  1  0
 12 14  1  0
 13 14  1  0
 12 15  1  0
 13 16  1  6
 15 17  1  0
 15 18  1  0
 17 19  1  0
 18 20  1  0
 19 20  1  0
 18 21  1  6
 20 22  1  1
 21 23  1  0
 22 24  1  0
 23 24  1  0
M  CHG  1  16  -1
M  END
