ucsf123-ucsf404
     RDKit          3D

 25 27  0  0  0  0  0  0  0  0999 V2000
   -1.7640   18.7090   -4.8130 N   0  0  0  0  0  0  0  0  0  0  0  0
   -1.3670   17.4400   -5.7520 S   0  0  0  0  0  0  0  0  0  0  0  0
   -0.3040   17.9700   -6.8100 O   0  0  0  0  0  0  0  0  0  0  0  0
   -2.6270   16.9890   -6.6210 O   0  0  0  0  0  0  0  0  0  0  0  0
   -0.6250   15.9710   -5.0360 C   0  0  1  0  0  0  0  0  0  0  0  0
    0.4970   16.2820   -4.0530 C   0  0  0  0  0  0  0  0  0  0  0  0
   -1.6830   15.0430   -4.4430 C   0  0  0  0  0  0  0  0  0  0  0  0
    1.1060   14.9970   -3.5030 C   0  0  0  0  0  0  0  0  0  0  0  0
   -1.0980   13.8160   -3.7050 C   0  0  1  0  0  0  0  0  0  0  0  0
    0.0580   14.1550   -2.7380 C   0  0  1  0  0  0  0  0  0  0  0  0
   -2.2060   13.0360   -2.9990 C   0  0  0  0  0  0  0  0  0  0  0  0
    0.6210   12.8930   -1.9750 C   0  0  2  0  0  0  0  0  0  0  0  0
   -3.1600   13.7550   -2.0170 C   0  0  2  0  0  0  0  0  0  0  0  0
    1.9990   12.7710   -2.2100 O   0  0  0  0  0  0  0  0  0  0  0  0
    0.1660   11.7370   -2.4300 O   0  0  0  0  0  0  0  0  0  0  0  0
   -4.1790   14.6700   -2.7140 C   0  0  0  0  0  0  0  0  0  0  0  0
   -2.7110   14.4320   -0.7200 C   0  0  0  0  0  0  0  0  0  0  0  0
   -3.9790   14.4260    0.1320 C   0  0  2  0  0  0  0  0  0  0  0  0
   -5.4520   14.5130   -1.9000 C   0  0  2  0  0  0  0  0  0  0  0  0
   -6.9090   15.2040   -2.6310 Cl  0  0  0  0  0  0  0  0  0  0  0  0
   -5.2140   15.0710   -0.5190 C   0  0  1  0  0  0  0  0  0  0  0  0
   -4.0630   15.3550    1.6530 S   0  0  0  0  0  0  0  0  0  0  0  0
   -5.6950   14.5740    1.6500 C   0  0  2  0  0  0  0  0  0  0  0  0
   -6.3280   14.8680    0.4150 N   0  0  0  0  0  0  0  0  0  0  0  0
   -6.5180   15.0160    2.7250 N   0  0  0  0  0  0  0  0  0  0  0  0
  1  2  1  0
  2  3  1  0
  2  4  1  0
  5  2  1  1
  5  6  1  0
  5  7  1  0
  6  8  1  0
  7  9  1  0
 10  8  1  6
  9 10  1  0
  9 11  1  1
 10 12  1  0
 13 11  1  6
 12 14  1  6
 12 15  1  0
 13 16  1  0
 13 17  1  0
 18 17  1  6
 16 19  1  0
 19 20  1  6
 18 21  1  0
 19 21  1  0
 18 22  1  0
 22 23  1  0
 21 24  1  1
 23 24  1  0
 23 25  1  1
M  CHG  1  15  -1
M  END
