ucsf039-ucsf396
     RDKit          3D

 25 28  0  0  0  0  0  0  0  0999 V2000
   -4.0650   14.6700    0.7110 C   0  0  1  0  0  0  0  0  0  0  0  0
   -3.6150   13.4710    1.3250 N   0  0  0  0  0  0  0  0  0  0  0  0
   -3.7700   15.6840    1.6880 O   0  0  0  0  0  0  0  0  0  0  0  0
   -3.1180   14.8600   -0.4830 C   0  0  1  0  0  0  0  0  0  0  0  0
   -5.5770   14.5010    0.4660 C   0  0  2  0  0  0  0  0  0  0  0  0
   -3.6710   15.4680   -1.6750 N   0  0  0  0  0  0  0  0  0  0  0  0
   -1.8380   15.5300   -0.1170 C   0  0  2  0  0  0  0  0  0  0  0  0
   -6.1770   15.2860   -0.7320 C   0  0  0  0  0  0  0  0  0  0  0  0
   -6.3790   14.5080    1.7790 C   0  0  0  0  0  0  0  0  0  0  0  0
   -2.6780   15.3660   -2.7330 C   0  0  0  0  0  0  0  0  0  0  0  0
   -0.7980   15.2200   -1.1830 C   0  0  2  0  0  0  0  0  0  0  0  0
   -1.3220   15.0590    1.1840 N   0  0  0  0  0  0  0  0  0  0  0  0
   -7.6230   15.1630   -0.8560 N   0  0  0  0  0  0  0  0  0  0  0  0
   -7.8730   14.5560    1.5580 C   0  0  0  0  0  0  0  0  0  0  0  0
   -1.4410   14.6540   -2.3700 N   0  0  0  0  0  0  0  0  0  0  0  0
    0.0410   14.2420   -0.5050 N   0  0  0  0  0  0  0  0  0  0  0  0
    0.0140   14.6090    0.8910 C   0  0  0  0  0  0  0  0  0  0  0  0
   -8.2110   14.2460    0.1070 C   0  0  0  0  0  0  0  0  0  0  0  0
   -0.5430   14.7230   -3.5250 C   0  0  0  0  0  0  0  0  0  0  0  0
   -0.2970   16.1820   -3.9910 C   0  0  1  0  0  0  0  0  0  0  0  0
    1.0830   16.3470   -4.6060 C   0  0  0  0  0  0  0  0  0  0  0  0
   -1.2640   16.6750   -4.9880 N   0  0  0  0  0  0  0  0  0  0  0  0
   -0.8130   18.0260   -5.2860 C   0  0  1  0  0  0  0  0  0  0  0  0
    0.9830   17.9500   -5.4300 S   0  0  0  0  0  0  0  0  0  0  0  0
   -1.4370   18.5820   -6.5550 C   0  0  0  0  0  0  0  0  0  0  0  0
  1  2  1  1
  1  3  1  0
  1  4  1  0
  1  5  1  0
  4  6  1  6
  4  7  1  0
  5  8  1  6
  5  9  1  0
  6 10  1  0
  7 11  1  0
  7 12  1  1
  8 13  1  0
  9 14  1  0
 10 15  1  0
 11 15  1  0
 11 16  1  1
 12 17  1  0
 16 17  1  0
 13 18  1  0
 14 18  1  0
 15 19  1  0
 20 19  1  6
 20 21  1  0
 20 22  1  0
 22 23  1  0
 21 24  1  0
 23 24  1  0
 23 25  1  6
M  END
