ucsf013-ucsf274
     RDKit          3D

 29 32  0  0  0  0  0  0  0  0999 V2000
   -4.5260   15.2940    2.2420 N   0  0  0  0  0  0  0  0  0  0  0  0
   -5.2550   14.6650    1.1770 C   0  0  1  0  0  0  0  0  0  0  0  0
   -6.6420   14.7850    1.5850 N   0  0  0  0  0  0  0  0  0  0  0  0
   -4.8340   15.3010   -0.1420 C   0  0  2  0  0  0  0  0  0  0  0  0
   -5.9880   15.1850   -1.1540 C   0  0  2  0  0  0  0  0  0  0  0  0
   -7.6500   14.5880    0.5650 C   0  0  0  0  0  0  0  0  0  0  0  0
   -3.4510   14.7690   -0.5430 C   0  0  0  0  0  0  0  0  0  0  0  0
   -7.0250   14.2560   -0.6950 N   0  0  0  0  0  0  0  0  0  0  0  0
   -5.6070   14.8200   -2.5930 C   0  0  0  0  0  0  0  0  0  0  0  0
   -3.2530   14.2740   -1.9750 C   0  0  1  0  0  0  0  0  0  0  0  0
   -3.5180   12.7560   -2.0650 C   0  0  0  0  0  0  0  0  0  0  0  0
   -4.1440   15.0880   -2.8990 C   0  0  0  0  0  0  0  0  0  0  0  0
   -2.3390   11.9430   -2.5960 C   0  0  0  0  0  0  0  0  0  0  0  0
   -2.0970   12.3690   -3.9370 O   0  0  0  0  0  0  0  0  0  0  0  0
   -1.4410   11.4060   -4.7600 C   0  0  2  0  0  0  0  0  0  0  0  0
   -0.5610   12.1500   -5.8320 C   0  0  1  0  0  0  0  0  0  0  0  0
   -2.5110   10.5700   -5.3240 N   0  0  0  0  0  0  0  0  0  0  0  0
    0.4800   13.1220   -5.2520 C   0  0  0  0  0  0  0  0  0  0  0  0
   -2.0510    9.8710   -6.5300 C   0  0  1  0  0  0  0  0  0  0  0  0
    0.1100   11.1840   -6.7600 N   0  0  0  0  0  0  0  0  0  0  0  0
    0.4360   13.2970   -3.7210 C   0  0  0  0  0  0  0  0  0  0  0  0
   -0.5200    9.8590   -6.7110 C   0  0  2  0  0  0  0  0  0  0  0  0
   -2.5740    8.4250   -6.5060 C   0  0  0  0  0  0  0  0  0  0  0  0
    1.2560   12.3040   -2.8820 C   0  0  2  0  0  0  0  0  0  0  0  0
   -0.1480    9.1320   -8.0150 C   0  0  0  0  0  0  0  0  0  0  0  0
   -2.2110    7.6470   -7.7740 C   0  0  0  0  0  0  0  0  0  0  0  0
    0.5800   11.2400   -2.4950 O   0  0  0  0  0  0  0  0  0  0  0  0
    1.4850   12.9430   -1.6540 O   0  0  0  0  0  0  0  0  0  0  0  0
   -0.7220    7.7190   -8.0990 C   0  0  0  0  0  0  0  0  0  0  0  0
  2  1  1  1
  2  3  1  0
  2  4  1  0
  4  5  1  0
  3  6  1  0
  4  7  1  6
  5  8  1  0
  6  8  1  0
  5  9  1  6
  7 10  1  0
 10 11  1  1
  9 12  1  0
 10 12  1  0
 11 13  1  0
 13 14  1  0
 15 14  1  1
 15 16  1  0
 15 17  1  0
 16 18  1  1
 17 19  1  0
 16 20  1  0
 18 21  1  0
 19 22  1  0
 20 22  1  0
 19 23  1  1
 21 24  1  0
 22 25  1  6
 23 26  1  0
 24 27  1  1
 24 28  1  0
 25 29  1  0
 26 29  1  0
M  CHG  1  27  -1
M  END
