ucsf169-ucsf422
     RDKit          3D

 17 18  0  0  0  0  0  0  0  0999 V2000
    1.2270   18.5070   -5.6230 C   0  0  0  0  0  0  0  0  0  0  0  0
    0.2210   18.1020   -4.7260 O   0  0  0  0  0  0  0  0  0  0  0  0
   -0.2410   16.8020   -5.1010 C   0  0  2  0  0  0  0  0  0  0  0  0
   -1.7620   16.8400   -5.2990 C   0  0  2  0  0  0  0  0  0  0  0  0
    0.2890   15.7680   -4.0830 C   0  0  1  0  0  0  0  0  0  0  0  0
   -2.2420   18.0560   -4.7090 O   0  0  0  0  0  0  0  0  0  0  0  0
   -2.4340   15.5440   -4.8220 C   0  0  1  0  0  0  0  0  0  0  0  0
   -0.2350   14.3140   -4.2960 C   0  0  1  0  0  0  0  0  0  0  0  0
    1.7670   15.6990   -4.2960 N   0  0  0  0  0  0  0  0  0  0  0  0
   -0.4540   13.5790   -2.9330 C   0  0  0  0  0  0  0  0  0  0  0  0
   -4.0430   15.2370   -5.9060 Br  0  0  0  0  0  0  0  0  0  0  0  0
   -1.5850   14.2880   -5.0150 C   0  0  0  0  0  0  0  0  0  0  0  0
    0.9200   13.6980   -5.0690 C   0  0  0  0  0  0  0  0  0  0  0  0
    2.0660   14.2680   -4.2840 C   0  0  0  0  0  0  0  0  0  0  0  0
    0.5210   12.4650   -2.4840 C   0  0  1  0  0  0  0  0  0  0  0  0
    0.7080   12.7110   -1.1190 O   0  0  0  0  0  0  0  0  0  0  0  0
   -0.0850   11.2970   -2.4100 O   0  0  0  0  0  0  0  0  0  0  0  0
  1  2  1  0
  3  2  1  1
  3  4  1  0
  3  5  1  0
  4  6  1  1
  4  7  1  0
  5  8  1  0
  5  9  1  6
  8 10  1  1
  7 11  1  6
  7 12  1  0
  8 12  1  0
  8 13  1  0
  9 14  1  0
 13 14  1  0
 10 15  1  0
 15 16  1  1
 15 17  1  0
M  CHG  1  17  -1
M  END
