ucsf173-ucsf138
     RDKit          3D

 23 25  0  0  0  0  0  0  0  0999 V2000
    1.2130   12.8010   -2.4500 O   0  0  0  0  0  0  0  0  0  0  0  0
    0.3130   12.6780   -3.4160 C   0  0  2  0  0  0  0  0  0  0  0  0
   -0.8430   12.2870   -2.7000 O   0  0  0  0  0  0  0  0  0  0  0  0
    0.6530   11.5820   -4.4200 C   0  0  0  0  0  0  0  0  0  0  0  0
    0.1150   13.9520   -4.2230 C   0  0  0  0  0  0  0  0  0  0  0  0
   -0.2010   11.6310   -5.6300 N   0  0  0  0  0  0  0  0  0  0  0  0
   -1.3470   14.2650   -4.5990 C   0  0  0  0  0  0  0  0  0  0  0  0
    0.7450   15.2750   -3.7670 C   0  0  0  0  0  0  0  0  0  0  0  0
    0.4540   11.5490   -6.9080 C   0  0  1  0  0  0  0  0  0  0  0  0
   -1.3990   15.7770   -4.5330 C   0  0  1  0  0  0  0  0  0  0  0  0
    0.0570   16.1840   -4.7710 C   0  0  1  0  0  0  0  0  0  0  0  0
    1.8100   11.8570   -6.8170 O   0  0  0  0  0  0  0  0  0  0  0  0
    0.2460   10.2460   -7.5070 N   0  0  0  0  0  0  0  0  0  0  0  0
   -2.4120   16.4420   -5.4460 C   0  0  0  0  0  0  0  0  0  0  0  0
    0.3360   17.6770   -4.6430 C   0  0  0  0  0  0  0  0  0  0  0  0
   -1.8640   17.7520   -6.0180 C   0  0  0  0  0  0  0  0  0  0  0  0
   -0.8610   18.4900   -5.1360 C   0  0  0  0  0  0  0  0  0  0  0  0
    0.8540    9.9610   -8.8230 C   0  0  0  0  0  0  0  0  0  0  0  0
   -0.0830   10.1070  -10.0350 C   0  0  0  0  0  0  0  0  0  0  0  0
    1.4530    8.5420   -8.7380 C   0  0  0  0  0  0  0  0  0  0  0  0
    0.5830    9.6360  -11.3330 C   0  0  0  0  0  0  0  0  0  0  0  0
    2.1400    8.0940  -10.0240 C   0  0  0  0  0  0  0  0  0  0  0  0
    1.1870    8.2330  -11.2040 C   0  0  0  0  0  0  0  0  0  0  0  0
  2  1  1  1
  2  3  1  0
  2  4  1  0
  2  5  1  0
  4  6  1  0
  5  7  1  0
  5  8  1  0
  6  9  1  0
 10  7  1  6
 11  8  1  1
 10 11  1  0
  9 12  1  1
  9 13  1  0
 10 14  1  0
 11 15  1  0
 14 16  1  0
 15 17  1  0
 16 17  1  0
 13 18  1  0
 18 19  1  0
 18 20  1  0
 19 21  1  0
 20 22  1  0
 21 23  1  0
 22 23  1  0
M  CHG  1   1  -1
M  END
