ucsf115-ucsf403
     RDKit          3D

 28 31  0  0  0  0  0  0  0  0999 V2000
   -2.1280   12.8950   -3.7820 C   0  0  2  0  0  0  0  0  0  0  0  0
   -2.4410   14.2570   -3.2600 N   0  0  0  0  0  0  0  0  0  0  0  0
   -2.5500   14.2690   -1.7880 C   0  0  1  0  0  0  0  0  0  0  0  0
   -0.6870   12.6510   -3.3420 C   0  0  2  0  0  0  0  0  0  0  0  0
   -2.2150   12.6520   -5.3630 C   0  0  1  0  0  0  0  0  0  0  0  0
   -0.1950   11.6050   -4.2020 O   0  0  0  0  0  0  0  0  0  0  0  0
   -0.3690   12.2510   -1.9210 C   0  0  0  0  0  0  0  0  0  0  0  0
   -0.8750   11.9030   -5.7850 C   0  0  2  0  0  0  0  0  0  0  0  0
   -3.5030   11.8830   -5.7700 C   0  0  0  0  0  0  0  0  0  0  0  0
    0.0530   12.8370   -6.3430 O   0  0  0  0  0  0  0  0  0  0  0  0
    0.5080   11.0850   -2.2210 C   0  0  0  0  0  0  0  0  0  0  0  0
   -0.2320   10.4790   -3.3560 C   0  0  0  0  0  0  0  0  0  0  0  0
   -1.2870   14.7860   -1.2490 N   0  0  0  0  0  0  0  0  0  0  0  0
   -3.7120   15.0940   -1.2060 C   0  0  2  0  0  0  0  0  0  0  0  0
   -3.3200   10.7930   -6.8190 C   0  0  0  0  0  0  0  0  0  0  0  0
   -0.8390   10.4730   -6.4380 C   0  0  2  0  0  0  0  0  0  0  0  0
   -0.0090   10.3490   -8.0300 Cl  0  0  0  0  0  0  0  0  0  0  0  0
    1.4050   12.4460   -6.0180 C   0  0  0  0  0  0  0  0  0  0  0  0
   -1.1290   14.5620    0.1930 C   0  0  0  0  0  0  0  0  0  0  0  0
   -3.4880   15.2660    0.2970 C   0  0  2  0  0  0  0  0  0  0  0  0
   -5.0040   14.3620   -1.2640 N   0  0  0  0  0  0  0  0  0  0  0  0
   -2.2080    9.8140   -6.4900 C   0  0  0  0  0  0  0  0  0  0  0  0
    1.9220   13.0820   -4.7020 C   0  0  2  0  0  0  0  0  0  0  0  0
   -2.4130   14.4920    0.8830 N   0  0  0  0  0  0  0  0  0  0  0  0
   -4.7460   14.9660    0.9460 N   0  0  0  0  0  0  0  0  0  0  0  0
   -5.7210   14.8710   -0.1150 C   0  0  0  0  0  0  0  0  0  0  0  0
    3.2340   13.0160   -4.6430 O   0  0  0  0  0  0  0  0  0  0  0  0
    1.6020   12.2280   -3.6280 O   0  0  0  0  0  0  0  0  0  0  0  0
  1  2  1  6
  3  2  1  6
  1  4  1  0
  1  5  1  0
  4  6  1  0
  4  7  1  1
  5  8  1  0
  5  9  1  1
  8 10  1  6
  7 11  1  0
  6 12  1  0
 11 12  1  0
  3 13  1  0
  3 14  1  0
  9 15  1  0
  8 16  1  0
 16 17  1  6
 10 18  1  0
 13 19  1  0
 14 20  1  0
 14 21  1  1
 15 22  1  0
 16 22  1  0
 18 23  1  0
 19 24  1  0
 20 24  1  1
 20 25  1  0
 21 26  1  0
 25 26  1  0
 23 27  1  6
 23 28  1  0
M  CHG  1  27  -1
M  END
