ucsf387-ucsf371
     RDKit          3D

 20 21  0  0  0  0  0  0  0  0999 V2000
    0.9920   18.4100   -5.7060 Cl  0  0  0  0  0  0  0  0  0  0  0  0
    0.2680   17.0490   -4.7860 C   0  0  1  0  0  0  0  0  0  0  0  0
   -1.1910   16.8650   -5.2870 C   0  0  0  0  0  0  0  0  0  0  0  0
    1.2230   15.8300   -4.8850 C   0  0  0  0  0  0  0  0  0  0  0  0
    0.5550   14.4970   -4.5630 C   0  0  1  0  0  0  0  0  0  0  0  0
   -1.6570   15.4440   -5.0170 C   0  0  2  0  0  0  0  0  0  0  0  0
   -3.4460   15.3410   -4.8680 Cl  0  0  0  0  0  0  0  0  0  0  0  0
    1.3080   13.4180   -3.6890 C   0  0  0  0  0  0  0  0  0  0  0  0
   -0.7310   15.0380   -3.8750 C   0  0  1  0  0  0  0  0  0  0  0  0
    0.5070   12.4920   -2.7230 C   0  0  1  0  0  0  0  0  0  0  0  0
   -1.1520   14.4780   -2.4750 C   0  0  1  0  0  0  0  0  0  0  0  0
    0.7800   11.2190   -2.8020 O   0  0  0  0  0  0  0  0  0  0  0  0
    0.7760   12.7620   -1.3630 O   0  0  0  0  0  0  0  0  0  0  0  0
   -0.3270   15.0900   -1.6380 O   0  0  0  0  0  0  0  0  0  0  0  0
   -2.6090   14.6590   -1.9200 C   0  0  2  0  0  0  0  0  0  0  0  0
   -3.7110   15.2900   -2.7440 C   0  0  0  0  0  0  0  0  0  0  0  0
   -2.6820   15.7600   -0.4750 S   0  0  0  0  0  0  0  0  0  0  0  0
   -4.4870   15.6390   -0.5290 C   0  0  1  0  0  0  0  0  0  0  0  0
   -4.9240   15.2620   -1.8830 N   0  0  0  0  0  0  0  0  0  0  0  0
   -4.9750   14.6360    0.5020 C   0  0  0  0  0  0  0  0  0  0  0  0
  2  1  1  6
  2  3  1  0
  2  4  1  0
  4  5  1  0
  3  6  1  0
  6  7  1  1
  5  8  1  1
  9  5  1  6
  6  9  1  0
  8 10  1  0
  9 11  1  0
 10 12  1  6
 10 13  1  0
 11 14  1  1
 11 15  1  0
 15 16  1  6
 15 17  1  0
 17 18  1  0
 16 19  1  0
 18 19  1  0
 18 20  1  1
M  CHG  2  12  -1  14  -1
M  END
