ucsf523-ucsf005
     RDKit          3D

 13 14  0  0  0  0  0  0  0  0999 V2000
   -0.0390   13.7390    1.2610 N   0  0  0  0  0  0  0  0  0  0  0  0
   -0.4540   14.9540    0.6940 C   0  0  2  0  0  0  0  0  0  0  0  0
   -1.7670   15.1940    1.2140 N   0  0  0  0  0  0  0  0  0  0  0  0
   -0.4810   14.6790   -0.7060 N   0  0  0  0  0  0  0  0  0  0  0  0
   -1.6160   15.2720   -1.3680 C   0  0  1  0  0  0  0  0  0  0  0  0
   -2.7840   14.3630    0.5820 C   0  0  2  0  0  0  0  0  0  0  0  0
   -1.4390   15.1800   -2.7640 O   0  0  0  0  0  0  0  0  0  0  0  0
   -2.9510   14.6430   -0.9480 C   0  0  1  0  0  0  0  0  0  0  0  0
   -3.9270   14.4420    1.4550 N   0  0  0  0  0  0  0  0  0  0  0  0
   -4.9700   15.3010    1.0050 C   0  0  2  0  0  0  0  0  0  0  0  0
   -4.1290   15.4010   -1.4050 N   0  0  0  0  0  0  0  0  0  0  0  0
   -6.1050   14.9550    1.7660 O   0  0  0  0  0  0  0  0  0  0  0  0
   -5.2820   15.2360   -0.5190 C   0  0  0  0  0  0  0  0  0  0  0  0
  2  1  1  1
  2  3  1  0
  2  4  1  0
  4  5  1  0
  6  3  1  1
  5  7  1  6
  5  8  1  0
  6  8  1  0
  6  9  1  0
  9 10  1  0
  8 11  1  1
 10 12  1  1
 10 13  1  0
 11 13  1  0
M  END
