ucsf378-ucsf403
     RDKit          3D

 21 23  0  0  0  0  0  0  0  0999 V2000
   -2.3170   13.5490   -4.9850 C   0  0  0  0  0  0  0  0  0  0  0  0
   -1.1680   14.2910   -4.1600 C   0  0  1  0  0  0  0  0  0  0  0  0
    0.1400   13.5150   -4.2020 C   0  0  2  0  0  0  0  0  0  0  0  0
   -2.2230   12.2750   -6.0110 C   0  0  1  0  0  0  0  0  0  0  0  0
   -0.9440   15.7740   -4.6080 C   0  0  0  0  0  0  0  0  0  0  0  0
   -1.1180   11.2120   -6.0020 C   0  0  2  0  0  0  0  0  0  0  0  0
   -3.5000   11.3910   -5.9070 C   0  0  0  0  0  0  0  0  0  0  0  0
    0.0270   12.0940   -3.7160 C   0  0  2  0  0  0  0  0  0  0  0  0
    0.1450   11.7130   -6.0610 O   0  0  0  0  0  0  0  0  0  0  0  0
    1.3880   14.1750   -3.6260 C   0  0  1  0  0  0  0  0  0  0  0  0
    0.3580   16.4180   -4.1080 C   0  0  0  0  0  0  0  0  0  0  0  0
   -3.2430    9.8630   -5.8190 C   0  0  0  0  0  0  0  0  0  0  0  0
   -1.2060   10.2040   -7.1640 C   0  0  1  0  0  0  0  0  0  0  0  0
    2.8730   13.2090   -3.8770 Cl  0  0  0  0  0  0  0  0  0  0  0  0
    0.7370   11.6020   -2.3980 C   0  0  1  0  0  0  0  0  0  0  0  0
    0.2810    9.1900   -7.4050 Cl  0  0  0  0  0  0  0  0  0  0  0  0
    0.6220   11.3740   -4.8430 C   0  0  0  0  0  0  0  0  0  0  0  0
    1.5720   15.5320   -4.2550 C   0  0  0  0  0  0  0  0  0  0  0  0
   -2.3980    9.3060   -6.9700 C   0  0  0  0  0  0  0  0  0  0  0  0
    0.3250   12.2020   -1.3050 O   0  0  0  0  0  0  0  0  0  0  0  0
    0.3430   10.2590   -2.1740 O   0  0  0  0  0  0  0  0  0  0  0  0
  2  1  1  6
  2  3  1  0
  4  1  1  1
  2  5  1  0
  4  6  1  0
  4  7  1  0
  3  8  1  0
  6  9  1  6
  3 10  1  1
  5 11  1  0
  7 12  1  0
  6 13  1  0
 10 14  1  6
  8 15  1  0
 13 16  1  1
  8 17  1  6
  9 17  1  0
 10 18  1  0
 11 18  1  0
 12 19  1  0
 13 19  1  0
 15 20  1  1
 15 21  1  0
M  CHG  1  20  -1
M  END
