ucsf247-ucsf115
     RDKit          3D

 23 26  0  0  0  0  0  0  0  0999 V2000
    1.2700   14.4510   -1.9390 O   0  0  0  0  0  0  0  0  0  0  0  0
    0.5990   14.8780   -2.9810 C   0  0  1  0  0  0  0  0  0  0  0  0
    1.4600   14.4580   -4.0220 O   0  0  0  0  0  0  0  0  0  0  0  0
   -0.8470   14.2200   -3.0760 C   0  0  2  0  0  0  0  0  0  0  0  0
   -1.8310   14.7140   -2.0660 N   0  0  0  0  0  0  0  0  0  0  0  0
   -0.8100   12.6730   -2.9860 C   0  0  1  0  0  0  0  0  0  0  0  0
   -3.1260   15.2210   -2.4560 C   0  0  1  0  0  0  0  0  0  0  0  0
   -0.9920   11.9380   -4.2170 O   0  0  0  0  0  0  0  0  0  0  0  0
    0.4060   12.0690   -2.3340 C   0  0  0  0  0  0  0  0  0  0  0  0
   -2.0180   13.9320   -0.8670 C   0  0  2  0  0  0  0  0  0  0  0  0
   -3.8540   14.3490   -3.2760 O   0  0  0  0  0  0  0  0  0  0  0  0
   -3.8690   15.4740   -1.1230 C   0  0  2  0  0  0  0  0  0  0  0  0
   -3.0910   14.6620   -0.0360 C   0  0  1  0  0  0  0  0  0  0  0  0
    0.0570   10.6390   -2.5450 C   0  0  0  0  0  0  0  0  0  0  0  0
   -0.4280   10.6470   -3.9770 C   0  0  0  0  0  0  0  0  0  0  0  0
   -0.8260   13.8870   -0.0730 N   0  0  0  0  0  0  0  0  0  0  0  0
   -5.4110   15.3740   -1.2420 C   0  0  0  0  0  0  0  0  0  0  0  0
   -3.9870   13.8240    0.8650 C   0  0  0  0  0  0  0  0  0  0  0  0
   -0.9780   14.7800    1.0310 C   0  0  0  0  0  0  0  0  0  0  0  0
   -2.2520   15.4670    0.8760 N   0  0  0  0  0  0  0  0  0  0  0  0
   -6.1140   14.5130   -0.2240 C   0  0  1  0  0  0  0  0  0  0  0  0
   -5.3450   14.4760    1.0810 C   0  0  0  0  0  0  0  0  0  0  0  0
   -7.4400   15.0080   -0.0110 O   0  0  0  0  0  0  0  0  0  0  0  0
  2  1  1  1
  2  3  1  0
  2  4  1  0
  4  5  1  1
  4  6  1  0
  5  7  1  0
  6  8  1  0
  6  9  1  6
  5 10  1  0
  7 11  1  6
  7 12  1  0
 10 13  1  0
 12 13  1  0
  9 14  1  0
  8 15  1  0
 14 15  1  0
 10 16  1  1
 12 17  1  6
 13 18  1  1
 16 19  1  0
 13 20  1  0
 19 20  1  0
 17 21  1  0
 18 22  1  0
 21 22  1  0
 21 23  1  1
M  CHG  1   1  -1
M  END
