ucsf258-ucsf392
     RDKit          3D

 13 13  0  0  0  0  0  0  0  0999 V2000
    0.8160   13.4630   -1.3090 O   0  0  0  0  0  0  0  0  0  0  0  0
   -0.2150   13.4270   -2.1230 C   0  0  2  0  0  0  0  0  0  0  0  0
    0.3660   13.8700   -3.3420 O   0  0  0  0  0  0  0  0  0  0  0  0
   -1.3480   14.4270   -1.6830 C   0  0  1  0  0  0  0  0  0  0  0  0
   -2.5590   14.2880   -2.6540 C   0  0  2  0  0  0  0  0  0  0  0  0
   -1.6940   14.2840   -0.2070 N   0  0  0  0  0  0  0  0  0  0  0  0
   -2.1980   14.6060   -4.0130 O   0  0  0  0  0  0  0  0  0  0  0  0
   -0.5970   14.7470    0.6780 C   0  0  0  0  0  0  0  0  0  0  0  0
   -3.7280   15.1730   -2.2800 C   0  0  0  0  0  0  0  0  0  0  0  0
   -3.1060   14.4870    0.1840 C   0  0  1  0  0  0  0  0  0  0  0  0
   -3.2180   15.0120    1.5530 N   0  0  0  0  0  0  0  0  0  0  0  0
   -3.9540   15.3780   -0.7660 C   0  0  2  0  0  0  0  0  0  0  0  0
   -5.4520   15.2820   -0.5120 C   0  0  0  0  0  0  0  0  0  0  0  0
  2  1  1  1
  2  3  1  0
  2  4  1  0
  4  5  1  0
  4  6  1  1
  5  7  1  6
  6  8  1  0
  5  9  1  0
  6 10  1  0
 10 11  1  1
  9 12  1  0
 10 12  1  0
 12 13  1  6
M  CHG  1   1  -1
M  END
