ucsf387-ucsf135
     RDKit          3D

 23 25  0  0  0  0  0  0  0  0999 V2000
    0.5670   18.3340   -5.6750 Cl  0  0  0  0  0  0  0  0  0  0  0  0
    0.3670   17.3210   -4.2260 C   0  0  1  0  0  0  0  0  0  0  0  0
   -1.0890   16.9200   -4.0250 C   0  0  0  0  0  0  0  0  0  0  0  0
    1.2560   16.0970   -4.3960 C   0  0  0  0  0  0  0  0  0  0  0  0
    0.6040   14.7660   -4.0480 C   0  0  0  0  0  0  0  0  0  0  0  0
   -1.4920   15.8420   -5.0060 C   0  0  2  0  0  0  0  0  0  0  0  0
   -3.2410   15.4630   -4.9520 Cl  0  0  0  0  0  0  0  0  0  0  0  0
    1.6530   13.6540   -4.2030 C   0  0  0  0  0  0  0  0  0  0  0  0
   -0.6800   14.5470   -4.8580 C   0  0  0  0  0  0  0  0  0  0  0  0
    1.4880   12.4960   -3.2260 C   0  0  2  0  0  0  0  0  0  0  0  0
    0.9160   11.4600   -4.0090 O   0  0  0  0  0  0  0  0  0  0  0  0
    0.6770   12.8130   -2.0960 O   0  0  0  0  0  0  0  0  0  0  0  0
    0.1390   12.0660   -5.0890 N   0  0  0  0  0  0  0  0  0  0  0  0
    0.5280   11.6350   -6.4640 C   0  0  1  0  0  0  0  0  0  0  0  0
   -1.4090   11.4680   -4.8310 S   0  0  1  0  0  0  0  0  0  0  0  0
    1.8950   11.7270   -6.7680 O   0  0  0  0  0  0  0  0  0  0  0  0
   -2.4660   12.6330   -5.1430 O   0  0  0  0  0  0  0  0  0  0  0  0
   -1.5780   10.3800   -6.2010 C   0  0  1  0  0  0  0  0  0  0  0  0
   -0.1640   10.2690   -6.7570 C   0  0  1  0  0  0  0  0  0  0  0  0
   -2.1900    9.0280   -5.9360 C   0  0  0  0  0  0  0  0  0  0  0  0
   -0.3100    9.7680   -8.1890 C   0  0  0  0  0  0  0  0  0  0  0  0
   -2.3500    8.3270   -7.2800 C   0  0  0  0  0  0  0  0  0  0  0  0
   -1.1190    8.4490   -8.2100 C   0  0  0  0  0  0  0  0  0  0  0  0
  2  1  1  6
  2  3  1  0
  2  4  1  0
  4  5  1  0
  3  6  1  0
  6  7  1  1
  5  8  1  0
  5  9  1  0
  6  9  1  0
  8 10  1  0
 10 11  1  0
 10 12  1  1
 11 13  1  0
 13 14  1  0
 13 15  1  0
 14 16  1  1
 15 17  1  6
 15 18  1  0
 14 19  1  0
 18 19  1  0
 18 20  1  1
 19 21  1  6
 20 22  1  0
 21 23  1  0
 22 23  1  0
M  END
