ucsf337-ucsf520
     RDKit          3D

 24 27  0  0  0  0  0  0  0  0999 V2000
   -7.8850   14.5640    0.9720 C   0  0  0  0  0  0  0  0  0  0  0  0
   -6.6220   14.3520    0.1290 C   0  0  1  0  0  0  0  0  0  0  0  0
   -6.8980   14.7610   -1.2660 N   0  0  0  0  0  0  0  0  0  0  0  0
   -5.4080   15.0810    0.7430 C   0  0  1  0  0  0  0  0  0  0  0  0
   -4.2870   14.2710    0.9560 O   0  0  0  0  0  0  0  0  0  0  0  0
   -4.8510   16.0670   -0.2880 C   0  0  0  0  0  0  0  0  0  0  0  0
   -5.7370   14.5890   -2.1060 C   0  0  1  0  0  0  0  0  0  0  0  0
   -6.1890   14.8250   -3.4560 N   0  0  0  0  0  0  0  0  0  0  0  0
   -4.5650   15.4450   -1.6500 C   0  0  0  0  0  0  0  0  0  0  0  0
   -3.4200   14.6470   -0.1100 C   0  0  2  0  0  0  0  0  0  0  0  0
   -3.2240   13.5440   -1.0090 N   0  0  0  0  0  0  0  0  0  0  0  0
   -2.1080   15.2520    0.3850 C   0  0  2  0  0  0  0  0  0  0  0  0
   -2.7100   14.0390   -2.2650 C   0  0  0  0  0  0  0  0  0  0  0  0
   -1.0830   15.2090   -0.7530 C   0  0  2  0  0  0  0  0  0  0  0  0
   -1.4860   14.5950    1.5410 N   0  0  0  0  0  0  0  0  0  0  0  0
   -1.5650   14.9130   -2.1020 N   0  0  0  0  0  0  0  0  0  0  0  0
   -0.1880   14.1440   -0.3190 N   0  0  0  0  0  0  0  0  0  0  0  0
   -0.1320   14.3350    1.1140 C   0  0  0  0  0  0  0  0  0  0  0  0
   -0.5110   14.6160   -3.0750 C   0  0  0  0  0  0  0  0  0  0  0  0
   -0.6370   15.3940   -4.3940 C   0  0  1  0  0  0  0  0  0  0  0  0
   -1.3580   16.6360   -4.1880 O   0  0  0  0  0  0  0  0  0  0  0  0
    0.7430   15.7710   -4.9330 C   0  0  0  0  0  0  0  0  0  0  0  0
    0.5220   17.1600   -5.4800 C   0  0  0  0  0  0  0  0  0  0  0  0
   -0.4850   17.7180   -4.5150 C   0  0  0  0  0  0  0  0  0  0  0  0
  2  1  1  1
  2  3  1  0
  2  4  1  0
  4  5  1  6
  4  6  1  0
  3  7  1  0
  7  8  1  6
  6  9  1  0
  7  9  1  0
 10  5  1  1
 10 11  1  0
 10 12  1  0
 11 13  1  0
 12 14  1  0
 12 15  1  1
 13 16  1  0
 14 16  1  0
 14 17  1  1
 15 18  1  0
 17 18  1  0
 16 19  1  0
 20 19  1  1
 20 21  1  0
 20 22  1  0
 22 23  1  0
 21 24  1  0
 23 24  1  0
M  END
