ucsf511-ucsf411
     RDKit          3D

 28 32  0  0  0  0  0  0  0  0999 V2000
    0.6160   13.0190   -1.3130 O   0  0  0  0  0  0  0  0  0  0  0  0
    1.4800   12.5480   -2.3960 C   0  0  1  0  0  0  0  0  0  0  0  0
    0.8450   11.5330   -2.9740 O   0  0  0  0  0  0  0  0  0  0  0  0
   -0.7530   13.2200   -1.6900 C   0  0  1  0  0  0  0  0  0  0  0  0
    1.8160   13.6840   -3.4340 C   0  0  0  0  0  0  0  0  0  0  0  0
   -1.3930   14.4240   -0.9430 C   0  0  1  0  0  0  0  0  0  0  0  0
   -0.7820   13.4780   -3.1110 N   0  0  0  0  0  0  0  0  0  0  0  0
    1.0950   13.6020   -4.6980 O   0  0  0  0  0  0  0  0  0  0  0  0
   -2.2130   15.3080   -1.9040 C   0  0  1  0  0  0  0  0  0  0  0  0
   -0.4720   14.8530   -3.3830 C   0  0  0  0  0  0  0  0  0  0  0  0
   -2.3800   14.0200    0.0420 O   0  0  0  0  0  0  0  0  0  0  0  0
   -1.6190   15.6890   -3.1700 N   0  0  0  0  0  0  0  0  0  0  0  0
   -3.6760   14.2180   -0.5640 C   0  0  2  0  0  0  0  0  0  0  0  0
   -3.4160   14.4300   -2.0420 C   0  0  1  0  0  0  0  0  0  0  0  0
   -0.1690   14.2980   -4.6600 C   0  0  1  0  0  0  0  0  0  0  0  0
   -4.5860   14.9680   -2.8420 C   0  0  0  0  0  0  0  0  0  0  0  0
   -4.4330   15.3880    0.0360 C   0  0  0  0  0  0  0  0  0  0  0  0
   -0.1150   15.7930   -5.1070 C   0  0  1  0  0  0  0  0  0  0  0  0
   -1.1480   13.5180   -5.5220 C   0  0  0  0  0  0  0  0  0  0  0  0
   -5.9000   15.0020   -2.0540 C   0  0  0  0  0  0  0  0  0  0  0  0
   -5.7670   15.6460   -0.6790 C   0  0  0  0  0  0  0  0  0  0  0  0
   -1.4980   16.5170   -5.1200 C   0  0  2  0  0  0  0  0  0  0  0  0
   -2.5570   14.1230   -5.5050 C   0  0  0  0  0  0  0  0  0  0  0  0
    0.8320   16.6520   -4.2590 C   0  0  0  0  0  0  0  0  0  0  0  0
   -2.7010   15.6630   -5.5690 C   0  0  0  0  0  0  0  0  0  0  0  0
   -1.4000   17.8330   -5.9020 C   0  0  0  0  0  0  0  0  0  0  0  0
    0.7510   18.1310   -4.6270 C   0  0  0  0  0  0  0  0  0  0  0  0
    0.0340   18.3600   -5.9520 C   0  0  0  0  0  0  0  0  0  0  0  0
  1  2  1  0
  2  3  1  6
  4  1  1  1
  2  5  1  0
  4  6  1  0
  4  7  1  0
  5  8  1  0
  6  9  1  0
  7 10  1  0
  6 11  1  1
  9 12  1  6
 10 12  1  0
 11 13  1  0
  9 14  1  0
 13 14  1  0
 15  8  1  6
 14 16  1  1
 13 17  1  1
 15 18  1  0
 15 19  1  0
 16 20  1  0
 17 21  1  0
 20 21  1  0
 18 22  1  0
 19 23  1  0
 18 24  1  1
 22 25  1  6
 23 25  1  0
 22 26  1  0
 24 27  1  0
 26 28  1  0
 27 28  1  0
M  CHG  1   3  -1
M  END
