ucsf338-ucsf516
     RDKit          3D

 24 27  0  0  0  0  0  0  0  0999 V2000
   -8.7810   14.0640   -0.3070 O   0  0  0  0  0  0  0  0  0  0  0  0
   -7.6880   14.7750    0.3450 N   0  0  0  0  0  0  0  0  0  0  0  0
   -6.6550   15.0390   -0.6600 C   0  0  2  0  0  0  0  0  0  0  0  0
   -7.1120   14.5320   -1.8940 O   0  0  0  0  0  0  0  0  0  0  0  0
   -5.3060   14.3910   -0.2810 C   0  0  1  0  0  0  0  0  0  0  0  0
   -4.1350   14.6800   -1.2550 C   0  0  1  0  0  0  0  0  0  0  0  0
   -4.9660   14.5380    1.2090 C   0  0  0  0  0  0  0  0  0  0  0  0
   -4.3830   15.8960   -1.9510 O   0  0  0  0  0  0  0  0  0  0  0  0
   -2.7430   14.6560   -0.5760 C   0  0  2  0  0  0  0  0  0  0  0  0
   -3.7910   15.4070    1.6280 C   0  0  0  0  0  0  0  0  0  0  0  0
   -2.6880   15.5910    0.6010 C   0  0  1  0  0  0  0  0  0  0  0  0
   -1.5490   15.1490   -1.4280 C   0  0  2  0  0  0  0  0  0  0  0  0
   -1.5000   14.5700   -2.7620 N   0  0  0  0  0  0  0  0  0  0  0  0
   -0.2740   15.0290   -0.7360 N   0  0  0  0  0  0  0  0  0  0  0  0
   -1.3880   15.5360    1.2710 N   0  0  0  0  0  0  0  0  0  0  0  0
   -0.1940   14.4550   -3.4350 C   0  0  1  0  0  0  0  0  0  0  0  0
   -2.5440   14.9340   -3.7160 C   0  0  0  0  0  0  0  0  0  0  0  0
   -0.3870   14.6900    0.6640 C   0  0  0  0  0  0  0  0  0  0  0  0
    0.0890   12.9680   -3.5290 C   0  0  0  0  0  0  0  0  0  0  0  0
   -0.4510   15.0580   -4.8090 C   0  0  0  0  0  0  0  0  0  0  0  0
   -1.8970   14.6780   -5.0600 C   0  0  0  0  0  0  0  0  0  0  0  0
    1.4170   12.3170   -3.0920 C   0  0  0  0  0  0  0  0  0  0  0  0
   -0.5900   11.9980   -2.5280 C   0  0  0  0  0  0  0  0  0  0  0  0
    0.5370   11.0490   -2.9120 C   0  0  0  0  0  0  0  0  0  0  0  0
  1  2  1  0
  2  3  1  0
  3  4  1  6
  3  5  1  0
  5  6  1  0
  5  7  1  1
  6  8  1  1
  6  9  1  0
  7 10  1  0
  9 11  1  0
 11 10  1  1
  9 12  1  6
 12 13  1  6
 12 14  1  0
 11 15  1  0
 13 16  1  0
 13 17  1  0
 14 18  1  0
 15 18  1  0
 16 19  1  6
 16 20  1  0
 17 21  1  0
 20 21  1  0
 19 22  1  0
 19 23  1  0
 22 24  1  0
 23 24  1  0
M  END
