ucsf247-ucsf320
     RDKit          3D

 14 14  0  0  0  0  0  0  0  0999 V2000
    0.7470   13.2620   -1.8630 O   0  0  0  0  0  0  0  0  0  0  0  0
    0.5900   13.6930   -3.1000 C   0  0  2  0  0  0  0  0  0  0  0  0
    1.7660   14.4540   -3.3250 O   0  0  0  0  0  0  0  0  0  0  0  0
   -0.6330   14.6470   -3.1720 C   0  0  0  0  0  0  0  0  0  0  0  0
   -1.8500   13.9890   -2.6500 N   0  0  0  0  0  0  0  0  0  0  0  0
   -2.9870   14.8470   -2.4420 C   0  0  1  0  0  0  0  0  0  0  0  0
   -3.7480   14.7410   -3.6260 O   0  0  0  0  0  0  0  0  0  0  0  0
   -3.8520   14.4840   -1.2240 C   0  0  2  0  0  0  0  0  0  0  0  0
   -5.3530   14.5760   -1.4980 C   0  0  0  0  0  0  0  0  0  0  0  0
   -3.4510   15.3560   -0.0170 C   0  0  0  0  0  0  0  0  0  0  0  0
   -6.0800   15.1430   -0.2930 C   0  0  1  0  0  0  0  0  0  0  0  0
   -4.1130   14.9770    1.2880 C   0  0  0  0  0  0  0  0  0  0  0  0
   -7.4780   14.8690   -0.3680 O   0  0  0  0  0  0  0  0  0  0  0  0
   -5.5740   14.6450    1.0710 C   0  0  0  0  0  0  0  0  0  0  0  0
  2  1  1  1
  2  3  1  0
  2  4  1  0
  4  5  1  0
  5  6  1  0
  6  7  1  6
  6  8  1  0
  8  9  1  6
  8 10  1  0
  9 11  1  0
 10 12  1  0
 11 13  1  6
 11 14  1  0
 12 14  1  0
M  CHG  1   1  -1
M  END
