ucsf396-ucsf404
     RDKit          3D

 16 17  0  0  0  0  0  0  0  0999 V2000
   -2.2430   15.1950    0.6880 N   0  0  0  0  0  0  0  0  0  0  0  0
   -3.4590   14.9640    1.2540 C   0  0  2  0  0  0  0  0  0  0  0  0
   -3.0840   13.9420    2.1330 O   0  0  0  0  0  0  0  0  0  0  0  0
   -4.7860   14.3090    0.0090 S   0  0  0  0  0  0  0  0  0  0  0  0
   -6.1690   15.5380   -0.5690 C   0  0  0  0  0  0  0  0  0  0  0  0
   -6.2570   14.4160    1.0580 C   0  0  2  0  0  0  0  0  0  0  0  0
   -4.8380   13.9310   -1.8600 C   0  0  2  0  0  0  0  0  0  0  0  0
   -3.4070   14.7830   -0.9890 C   0  0  0  0  0  0  0  0  0  0  0  0
   -6.2300   14.9260    2.4250 N   0  0  0  0  0  0  0  0  0  0  0  0
   -6.4250   13.4060   -2.4500 Cl  0  0  0  0  0  0  0  0  0  0  0  0
   -7.4150   15.0990   -0.7280 N   0  0  0  0  0  0  0  0  0  0  0  0
   -7.3820   13.5680    0.8620 C   0  0  0  0  0  0  0  0  0  0  0  0
   -3.7600   13.9370   -2.8000 C   0  0  0  0  0  0  0  0  0  0  0  0
   -3.8130   15.7040   -1.8990 C   0  0  0  0  0  0  0  0  0  0  0  0
   -8.3300   14.3910    0.0880 C   0  0  0  0  0  0  0  0  0  0  0  0
   -3.3240   15.2690   -3.2290 C   0  0  0  0  0  0  0  0  0  0  0  0
  2  1  1  6
  2  3  1  0
  2  4  1  0
  4  5  1  0
  4  6  1  0
  4  7  1  0
  4  8  1  0
  6  9  1  1
  7 10  1  1
  5 11  1  0
  6 12  1  0
  7 13  1  0
  8 14  1  0
 11 15  1  0
 12 15  1  0
 13 16  1  0
 14 16  1  0
M  END
