ucsf153-ucsf325
     RDKit          3D

 16 17  0  0  0  0  0  0  0  0999 V2000
   16.5040    2.5920    8.6800 N   0  0  0  0  0  0  0  0  0  0  0  0
   16.1440    3.9070    8.1720 C   0  0  2  0  0  0  0  0  0  0  0  0
   17.1970    4.5470    8.0560 O   0  0  0  0  0  0  0  0  0  0  0  0
   14.8320    4.6160    9.5110 S   0  0  0  0  0  0  0  0  0  0  0  0
   14.5610    6.4610   10.0130 C   0  0  2  0  0  0  0  0  0  0  0  0
   15.9480    4.9870   10.8980 C   0  0  0  0  0  0  0  0  0  0  0  0
   13.1010    4.0860    9.0390 C   0  0  0  0  0  0  0  0  0  0  0  0
   14.3450    3.0880   10.0220 C   0  0  0  0  0  0  0  0  0  0  0  0
   15.1930    7.2810    9.1260 O   0  0  0  0  0  0  0  0  0  0  0  0
   14.7450    7.0090   11.2680 C   0  0  0  0  0  0  0  0  0  0  0  0
   15.4080    5.1630   12.1710 C   0  0  0  0  0  0  0  0  0  0  0  0
   13.1680    2.9560    8.1530 C   0  0  0  0  0  0  0  0  0  0  0  0
   14.3040    1.7680    9.9560 C   0  0  0  0  0  0  0  0  0  0  0  0
   14.6240    6.3510   12.5460 C   0  0  0  0  0  0  0  0  0  0  0  0
   13.9940    1.6770    8.3500 C   0  0  0  0  0  0  0  0  0  0  0  0
   15.1370    1.6530    7.6230 O   0  0  0  0  0  0  0  0  0  0  0  0
  2  1  1  1
  2  3  1  0
  2  4  1  0
  4  5  1  0
  4  6  1  0
  4  7  1  0
  4  8  1  0
  5  9  1  6
  5 10  1  0
  6 11  1  0
  7 12  1  0
  8 13  1  0
 10 14  1  0
 11 14  1  0
 12 15  1  0
 13 15  1  0
 15 16  1  0
M  END
