ucsf325
     RDKit          3D

 10 11  0  0  0  0  0  0  0  0999 V2000
   15.0570    1.8670    6.9960 O   0  0  0  0  0  0  0  0  0  0  0  0
   15.0050    2.7600    8.0810 C   0  0  0  0  0  0  0  0  0  0  0  0
   15.0440    2.2650    9.3740 C   0  0  0  0  0  0  0  0  0  0  0  0
   14.9890    3.1250   10.4520 C   0  0  0  0  0  0  0  0  0  0  0  0
   14.8980    4.5230   10.2470 C   0  0  0  0  0  0  0  0  0  0  0  0
   14.8200    5.6070   11.1380 O   0  0  0  0  0  0  0  0  0  0  0  0
   14.4400    6.7070   10.3590 C   0  0  0  0  0  0  0  0  0  0  0  0
   14.7530    6.3170    9.0650 O   0  0  0  0  0  0  0  0  0  0  0  0
   14.8500    5.0140    8.9910 C   0  0  0  0  0  0  0  0  0  0  0  0
   14.9080    4.1280    7.8850 C   0  0  0  0  0  0  0  0  0  0  0  0
  1  2  1  0
  2  3  1  0
  3  4  1  0
  4  5  1  0
  5  6  1  0
  6  7  1  0
  7  8  1  0
  5  9  1  0
  8  9  1  0
  2 10  1  0
  9 10  1  0
M  END
