ucsf017-ucsf340
     RDKit          3D

 33 38  0  0  0  0  0  0  0  0999 V2000
    0.4360   18.9500   -6.5740 C   0  0  0  0  0  0  0  0  0  0  0  0
    0.1100   17.6520   -6.0300 N   0  0  0  0  0  0  0  0  0  0  0  0
    1.0420   17.2410   -4.9910 C   0  0  0  0  0  0  0  0  0  0  0  0
   -1.1470   17.5200   -5.3620 C   0  0  2  0  0  0  0  0  0  0  0  0
    0.3590   16.2070   -4.1010 C   0  0  1  0  0  0  0  0  0  0  0  0
   -0.9860   16.1110   -4.8440 C   0  0  1  0  0  0  0  0  0  0  0  0
   -2.3540   17.6830   -6.2330 C   0  0  0  0  0  0  0  0  0  0  0  0
    1.2760   14.9690   -4.2400 C   0  0  0  0  0  0  0  0  0  0  0  0
   -2.2420   15.8090   -4.0590 C   0  0  0  0  0  0  0  0  0  0  0  0
   -3.3310   16.4760   -6.2600 C   0  0  0  0  0  0  0  0  0  0  0  0
    1.5150   14.0370   -3.0320 C   0  0  2  0  0  0  0  0  0  0  0  0
   -3.3330   15.5280   -5.0660 C   0  0  0  0  0  0  0  0  0  0  0  0
    2.3420   12.8310   -3.4080 C   0  0  1  0  0  0  0  0  0  0  0  0
    0.2090   13.3510   -2.6990 C   0  0  1  0  0  0  0  0  0  0  0  0
    2.6320   12.2980   -2.1900 O   0  0  0  0  0  0  0  0  0  0  0  0
    1.5460   11.9030   -3.8860 O   0  0  0  0  0  0  0  0  0  0  0  0
    0.0330   11.8410   -2.4620 C   0  0  0  0  0  0  0  0  0  0  0  0
   -0.8620   14.1910   -2.3750 N   0  0  0  0  0  0  0  0  0  0  0  0
   -1.6010   13.9350   -3.5970 C   0  0  2  0  0  0  0  0  0  0  0  0
   -0.7320   11.4800   -3.7200 C   0  0  0  0  0  0  0  0  0  0  0  0
   -1.4820   13.9810   -1.0840 C   0  0  1  0  0  0  0  0  0  0  0  0
   -3.0430   13.4970   -3.6050 C   0  0  0  0  0  0  0  0  0  0  0  0
   -0.9800   12.8190   -4.4660 C   0  0  1  0  0  0  0  0  0  0  0  0
   -0.3330   13.9500   -0.1590 N   0  0  0  0  0  0  0  0  0  0  0  0
   -2.4640   14.9960   -0.5070 C   0  0  2  0  0  0  0  0  0  0  0  0
   -2.0120   12.7390   -5.5720 C   0  0  0  0  0  0  0  0  0  0  0  0
   -3.2500   13.2460   -5.0210 O   0  0  0  0  0  0  0  0  0  0  0  0
   -0.3290   15.0040    0.8350 C   0  0  0  0  0  0  0  0  0  0  0  0
   -2.6370   14.6570    0.9350 C   0  0  1  0  0  0  0  0  0  0  0  0
   -3.9070   14.8940   -0.9540 C   0  0  0  0  0  0  0  0  0  0  0  0
   -1.4670   14.8530    1.6820 N   0  0  0  0  0  0  0  0  0  0  0  0
   -3.7590   15.4410    1.4130 N   0  0  0  0  0  0  0  0  0  0  0  0
   -4.6880   15.3990    0.2580 C   0  0  0  0  0  0  0  0  0  0  0  0
  1  2  1  0
  2  3  1  0
  2  4  1  0
  3  5  1  0
  4  6  1  0
  5  6  1  0
  4  7  1  6
  5  8  1  6
  6  9  1  1
  7 10  1  0
 11  8  1  6
  9 12  1  0
 10 12  1  0
 11 13  1  0
 11 14  1  0
 13 15  1  1
 13 16  1  0
 14 17  1  1
 14 18  1  0
 18 19  1  0
 17 20  1  0
 21 18  1  6
 19 22  1  1
 19 23  1  0
 23 20  1  1
 21 24  1  0
 21 25  1  0
 23 26  1  0
 22 27  1  0
 26 27  1  0
 24 28  1  0
 25 29  1  0
 25 30  1  6
 28 31  1  0
 29 31  1  1
 29 32  1  0
 30 33  1  0
 32 33  1  0
M  CHG  1  16  -1
M  END
