ucsf172
     RDKit          3D

 14 14  0  0  0  0  0  0  0  0999 V2000
   -8.0770   15.1140    2.4190 C   0  0  0  0  0  0  0  0  0  0  0  0
   -7.0180   14.5430    1.0590 S   0  0  1  0  0  0  0  0  0  0  0  0
   -6.7400   13.1100    1.1670 O   0  0  0  0  0  0  0  0  0  0  0  0
   -7.7260   14.5990   -0.2230 O   0  0  0  0  0  0  0  0  0  0  0  0
   -5.5740   15.4550    1.0090 N   0  0  0  0  0  0  0  0  0  0  0  0
   -4.5750   15.1750   -0.0050 C   0  0  0  0  0  0  0  0  0  0  0  0
   -4.8270   15.4820   -1.3310 C   0  0  0  0  0  0  0  0  0  0  0  0
   -3.8720   15.2150   -2.2980 C   0  0  0  0  0  0  0  0  0  0  0  0
   -2.6640   14.6400   -1.9380 C   0  0  0  0  0  0  0  0  0  0  0  0
   -2.4110   14.3330   -0.6110 C   0  0  0  0  0  0  0  0  0  0  0  0
   -3.3670   14.6010    0.3550 C   0  0  0  0  0  0  0  0  0  0  0  0
   -1.6100   14.3450   -3.0030 C   0  0  0  0  0  0  0  0  0  0  0  0
   -0.4890   13.8830   -2.6670 O   0  0  0  0  0  0  0  0  0  0  0  0
   -1.8640   14.5640   -4.2170 O   0  0  0  0  0  0  0  0  0  0  0  0
  2  1  1  1
  2  3  1  0
  2  4  1  0
  2  5  1  0
  5  6  1  0
  6  7  1  0
  7  8  1  0
  8  9  1  0
  9 10  1  0
  6 11  1  0
 10 11  1  0
  9 12  1  0
 12 13  1  0
 12 14  1  0
M  CHG  1  14  -1
M  END
