ucsf172-ucsf493
     RDKit          3D

 28 30  0  0  0  0  0  0  0  0999 V2000
   -8.2030   14.9080    2.2550 C   0  0  0  0  0  0  0  0  0  0  0  0
   -6.8610   14.4380    1.2280 S   0  0  0  0  0  0  0  0  0  0  0  0
   -6.6180   12.9220    1.6360 O   0  0  0  0  0  0  0  0  0  0  0  0
   -7.4580   14.4810   -0.2600 O   0  0  0  0  0  0  0  0  0  0  0  0
   -5.4210   15.2100    1.3950 N   0  0  0  0  0  0  0  0  0  0  0  0
   -4.3510   15.3420    0.3940 C   0  0  1  0  0  0  0  0  0  0  0  0
   -3.2420   14.3200    0.6690 C   0  0  0  0  0  0  0  0  0  0  0  0
   -4.8880   15.2530   -1.0410 C   0  0  0  0  0  0  0  0  0  0  0  0
   -2.1190   14.2740   -0.3610 C   0  0  0  0  0  0  0  0  0  0  0  0
   -3.7930   15.1390   -2.1110 C   0  0  0  0  0  0  0  0  0  0  0  0
   -2.6480   14.1290   -1.7990 C   0  0  1  0  0  0  0  0  0  0  0  0
   -1.5080   14.2270   -2.8680 C   0  0  1  0  0  0  0  0  0  0  0  0
   -0.4120   13.3620   -2.4730 O   0  0  0  0  0  0  0  0  0  0  0  0
   -1.9990   13.7520   -3.9920 O   0  0  0  0  0  0  0  0  0  0  0  0
   -0.2750   12.1880   -3.2790 C   0  0  1  0  0  0  0  0  0  0  0  0
    0.2130   12.5510   -4.6900 C   0  0  0  0  0  0  0  0  0  0  0  0
    0.7290   11.3440   -2.7140 O   0  0  0  0  0  0  0  0  0  0  0  0
    0.8440   13.9210   -4.9790 C   0  0  1  0  0  0  0  0  0  0  0  0
   -0.0550   15.1460   -5.2070 C   0  0  1  0  0  0  0  0  0  0  0  0
    1.9280   14.4610   -4.0660 C   0  0  0  0  0  0  0  0  0  0  0  0
   -1.5650   15.0530   -5.1990 C   0  0  0  0  0  0  0  0  0  0  0  0
    0.4600   16.2290   -4.3140 C   0  0  1  0  0  0  0  0  0  0  0  0
    1.8750   15.9130   -4.3480 N   0  0  0  0  0  0  0  0  0  0  0  0
   -2.2330   16.3850   -5.5460 C   0  0  1  0  0  0  0  0  0  0  0  0
    0.0550   17.5870   -4.8730 C   0  0  0  0  0  0  0  0  0  0  0  0
   -3.5150   16.3440   -4.9870 O   0  0  0  0  0  0  0  0  0  0  0  0
   -1.4550   17.6860   -5.1750 C   0  0  0  0  0  0  0  0  0  0  0  0
   -4.2860   15.3040   -5.6020 C   0  0  0  0  0  0  0  0  0  0  0  0
  1  2  1  0
  2  3  1  0
  2  4  1  0
  2  5  1  0
  6  5  1  1
  6  7  1  0
  6  8  1  0
  7  9  1  0
  8 10  1  0
 11  9  1  1
 10 11  1  0
 11 12  1  0
 12 13  1  0
 12 14  1  6
 13 15  1  0
 15 16  1  0
 15 17  1  1
 18 16  1  1
 18 19  1  0
 18 20  1  0
 19 21  1  1
 19 22  1  0
 20 23  1  0
 22 23  1  0
 21 24  1  0
 22 25  1  6
 24 26  1  1
 24 27  1  0
 25 27  1  0
 26 28  1  0
M  CHG  1  14  -1
M  END
