ucsf039-ucsf004
     RDKit          3D

 23 26  0  0  0  0  0  0  0  0999 V2000
   -4.1990   15.8040    0.6120 N   0  0  0  0  0  0  0  0  0  0  0  0
   -3.2830   14.7850    0.1620 C   0  0  2  0  0  0  0  0  0  0  0  0
   -1.8110   15.2680    0.1830 C   0  0  2  0  0  0  0  0  0  0  0  0
   -3.7190   14.3940   -1.1610 N   0  0  0  0  0  0  0  0  0  0  0  0
   -3.4930   15.4130   -2.1660 C   0  0  0  0  0  0  0  0  0  0  0  0
   -1.2250   15.5000   -1.2250 C   0  0  2  0  0  0  0  0  0  0  0  0
   -0.8990   14.3210    0.8360 N   0  0  0  0  0  0  0  0  0  0  0  0
   -2.1180   15.8540   -2.2780 N   0  0  0  0  0  0  0  0  0  0  0  0
   -0.3260   14.2990   -1.5760 C   0  0  1  0  0  0  0  0  0  0  0  0
    0.1820   14.0870   -0.1230 C   0  0  0  0  0  0  0  0  0  0  0  0
   -1.4570   15.6360   -3.5630 C   0  0  0  0  0  0  0  0  0  0  0  0
   -1.1680   13.1230   -2.1840 C   0  0  0  0  0  0  0  0  0  0  0  0
    0.8830   14.5900   -2.5290 C   0  0  0  0  0  0  0  0  0  0  0  0
   -0.7260   16.8120   -4.2470 C   0  0  1  0  0  0  0  0  0  0  0  0
   -1.4240   13.1610   -3.7070 C   0  0  2  0  0  0  0  0  0  0  0  0
    0.7620   14.3660   -4.0630 C   0  0  0  0  0  0  0  0  0  0  0  0
   -2.0550   12.0100   -4.0800 F   0  0  0  0  0  0  0  0  0  0  0  0
    0.7620   16.6980   -4.5650 C   0  0  0  0  0  0  0  0  0  0  0  0
   -1.3830   17.0150   -5.5500 N   0  0  0  0  0  0  0  0  0  0  0  0
   -0.1290   13.2230   -4.5010 C   0  0  0  0  0  0  0  0  0  0  0  0
   -0.6570   18.0700   -6.2500 C   0  0  2  0  0  0  0  0  0  0  0  0
    0.9950   18.2000   -5.5310 S   0  0  0  0  0  0  0  0  0  0  0  0
   -1.4290   19.3720   -6.2170 C   0  0  0  0  0  0  0  0  0  0  0  0
  2  1  1  6
  2  3  1  0
  2  4  1  0
  4  5  1  0
  3  6  1  0
  3  7  1  6
  5  8  1  0
  6  8  1  6
  6  9  1  0
  7 10  1  0
  9 10  1  1
  8 11  1  0
  9 12  1  0
  9 13  1  0
 14 11  1  6
 12 15  1  0
 13 16  1  0
 15 17  1  6
 14 18  1  0
 14 19  1  0
 15 20  1  0
 16 20  1  0
 19 21  1  0
 18 22  1  0
 21 22  1  0
 21 23  1  1
M  END
