ucsf493-ucsf012
     RDKit          3D

 32 36  0  0  0  0  0  0  0  0999 V2000
   -4.2970   14.7540   -3.9350 C   0  0  0  0  0  0  0  0  0  0  0  0
   -3.6650   15.5510   -4.9670 O   0  0  0  0  0  0  0  0  0  0  0  0
   -2.3090   15.8470   -4.6170 C   0  0  1  0  0  0  0  0  0  0  0  0
   -3.5610   14.7330   -2.5460 C   0  0  1  0  0  0  0  0  0  0  0  0
   -4.4440   14.5020   -1.2960 C   0  0  2  0  0  0  0  0  0  0  0  0
   -2.5830   13.6510   -2.3990 N   0  0  0  0  0  0  0  0  0  0  0  0
   -5.3380   15.6800   -0.9390 C   0  0  0  0  0  0  0  0  0  0  0  0
   -1.5350   13.6420   -3.3970 C   0  0  0  0  0  0  0  0  0  0  0  0
   -1.4090   14.6210   -4.7770 C   0  0  0  0  0  0  0  0  0  0  0  0
   -1.7070   17.0570   -5.3680 C   0  0  0  0  0  0  0  0  0  0  0  0
   -3.4540   13.9250   -0.2520 C   0  0  1  0  0  0  0  0  0  0  0  0
   -2.1480   13.6840   -1.0090 C   0  0  2  0  0  0  0  0  0  0  0  0
   -0.1360   14.9760   -4.0450 C   0  0  2  0  0  0  0  0  0  0  0  0
   -0.1450   17.1880   -5.2580 C   0  0  0  0  0  0  0  0  0  0  0  0
   -3.1830   14.5250    1.1290 C   0  0  2  0  0  0  0  0  0  0  0  0
   -1.0590   14.6220   -0.7330 N   0  0  0  0  0  0  0  0  0  0  0  0
   -1.1520   12.2760   -4.0180 C   0  0  1  0  0  0  0  0  0  0  0  0
   -4.2550   15.3570    1.6110 N   0  0  0  0  0  0  0  0  0  0  0  0
    0.6310   15.8760   -4.9720 C   0  0  1  0  0  0  0  0  0  0  0  0
    0.9030   14.0300   -3.3420 C   0  0  1  0  0  0  0  0  0  0  0  0
   -1.9570   15.2630    1.3280 N   0  0  0  0  0  0  0  0  0  0  0  0
   -0.7940   14.7390    0.6740 C   0  0  0  0  0  0  0  0  0  0  0  0
   -1.7620   11.0460   -3.3740 C   0  0  0  0  0  0  0  0  0  0  0  0
   -1.5850   12.1230   -5.3730 O   0  0  0  0  0  0  0  0  0  0  0  0
    0.9620   12.4780   -3.4790 C   0  0  0  0  0  0  0  0  0  0  0  0
    1.8700   16.0150   -4.2290 N   0  0  0  0  0  0  0  0  0  0  0  0
    2.2000   14.6250   -3.8690 C   0  0  0  0  0  0  0  0  0  0  0  0
   -1.2940   10.7600   -5.6810 C   0  0  0  0  0  0  0  0  0  0  0  0
   -1.2610   10.0130   -4.3590 C   0  0  0  0  0  0  0  0  0  0  0  0
    0.2050   11.6970   -2.3520 C   0  0  1  0  0  0  0  0  0  0  0  0
    0.5800   10.3370   -2.3160 O   0  0  0  0  0  0  0  0  0  0  0  0
    0.5730   12.1270   -1.1740 O   0  0  0  0  0  0  0  0  0  0  0  0
  1  2  1  0
  3  2  1  6
  4  1  1  6
  4  5  1  0
  4  6  1  0
  5  7  1  1
  6  8  1  0
  3  9  1  0
  3 10  1  0
  5 11  1  0
  6 12  1  0
 11 12  1  0
 13  9  1  6
 10 14  1  0
 11 15  1  1
 12 16  1  6
 17  8  1  1
 15 18  1  6
 13 19  1  0
 19 14  1  1
 13 20  1  0
 15 21  1  0
 16 22  1  0
 21 22  1  0
 17 23  1  0
 17 24  1  0
 20 25  1  6
 19 26  1  0
 20 27  1  0
 26 27  1  0
 24 28  1  0
 23 29  1  0
 28 29  1  0
 25 30  1  0
 30 31  1  1
 30 32  1  0
M  CHG  1  32  -1
M  END
