ucsf403-ucsf039
     RDKit          3D

 31 34  0  0  0  0  0  0  0  0999 V2000
    0.6880    8.9990   -7.8040 Cl  0  0  0  0  0  0  0  0  0  0  0  0
   -0.7540    9.6860   -6.9630 C   0  0  2  0  0  0  0  0  0  0  0  0
   -0.4130   10.4670   -5.6660 C   0  0  1  0  0  0  0  0  0  0  0  0
   -1.7300    8.5550   -6.6720 C   0  0  0  0  0  0  0  0  0  0  0  0
    0.5450   11.5010   -5.9850 O   0  0  0  0  0  0  0  0  0  0  0  0
   -1.6680   11.1020   -5.0140 C   0  0  1  0  0  0  0  0  0  0  0  0
   -2.9020    9.0270   -5.8220 C   0  0  0  0  0  0  0  0  0  0  0  0
   -1.6380   12.6430   -4.9430 C   0  0  0  0  0  0  0  0  0  0  0  0
    1.0680   12.3550   -4.9280 C   0  0  0  0  0  0  0  0  0  0  0  0
   -2.9510   10.5510   -5.6470 C   0  0  0  0  0  0  0  0  0  0  0  0
    0.7060   11.9730   -3.4480 C   0  0  2  0  0  0  0  0  0  0  0  0
   -1.2750   13.2590   -3.5800 C   0  0  0  0  0  0  0  0  0  0  0  0
    1.7350   12.2010   -2.6690 O   0  0  0  0  0  0  0  0  0  0  0  0
    0.4800   10.5900   -3.2530 O   0  0  0  0  0  0  0  0  0  0  0  0
   -1.5580   14.7730   -3.5440 C   0  0  1  0  0  0  0  0  0  0  0  0
   -1.8850   15.3410   -2.2080 N   0  0  0  0  0  0  0  0  0  0  0  0
   -0.6340   15.7220   -4.4240 C   0  0  2  0  0  0  0  0  0  0  0  0
   -3.3130   15.5490   -2.0220 C   0  0  0  0  0  0  0  0  0  0  0  0
   -1.3780   14.6590   -1.0190 C   0  0  2  0  0  0  0  0  0  0  0  0
    0.4920   16.4670   -3.6910 C   0  0  0  0  0  0  0  0  0  0  0  0
   -1.4400   16.6900   -5.2370 N   0  0  0  0  0  0  0  0  0  0  0  0
   -3.9740   14.5530   -1.1700 N   0  0  0  0  0  0  0  0  0  0  0  0
   -2.1030   15.2110    0.2030 C   0  0  1  0  0  0  0  0  0  0  0  0
   -0.0260   15.0270   -0.6690 N   0  0  0  0  0  0  0  0  0  0  0  0
   -0.8340   18.0230   -5.2350 C   0  0  1  0  0  0  0  0  0  0  0  0
    0.8950   17.8320   -4.8100 S   0  0  0  0  0  0  0  0  0  0  0  0
   -1.0110   18.7260   -6.5770 C   0  0  0  0  0  0  0  0  0  0  0  0
   -3.4770   14.5520    0.1950 C   0  0  1  0  0  0  0  0  0  0  0  0
   -1.2690   14.8890    1.3540 N   0  0  0  0  0  0  0  0  0  0  0  0
    0.0490   14.7180    0.7540 C   0  0  0  0  0  0  0  0  0  0  0  0
   -4.4640   15.2490    1.0180 N   0  0  0  0  0  0  0  0  0  0  0  0
  2  1  1  1
  2  3  1  0
  2  4  1  0
  3  5  1  6
  3  6  1  0
  4  7  1  0
  6  8  1  6
  5  9  1  0
  6 10  1  0
  7 10  1  0
  9 11  1  0
  8 12  1  0
 11 13  1  1
 11 14  1  0
 15 12  1  1
 15 16  1  0
 15 17  1  0
 16 18  1  0
 16 19  1  0
 17 20  1  1
 17 21  1  0
 18 22  1  0
 19 23  1  0
 19 24  1  1
 21 25  1  0
 20 26  1  0
 25 26  1  0
 25 27  1  6
 22 28  1  0
 23 28  1  0
 23 29  1  1
 24 30  1  0
 29 30  1  0
 28 31  1  1
M  CHG  1  13  -1
M  END
