ucsf123-ucsf339
     RDKit          3D

 26 28  0  0  0  0  0  0  0  0999 V2000
   -1.7670   18.6960   -4.7940 N   0  0  0  0  0  0  0  0  0  0  0  0
   -1.5100   17.3360   -5.9680 S   0  0  0  0  0  0  0  0  0  0  0  0
   -0.1680   17.8240   -6.6540 O   0  0  0  0  0  0  0  0  0  0  0  0
   -2.6650   17.1210   -6.6870 O   0  0  0  0  0  0  0  0  0  0  0  0
   -1.0100   16.0040   -4.7420 C   0  0  2  0  0  0  0  0  0  0  0  0
    0.3870   16.2150   -4.3020 C   0  0  0  0  0  0  0  0  0  0  0  0
   -1.3810   14.6110   -5.1260 C   0  0  0  0  0  0  0  0  0  0  0  0
    1.3120   15.0970   -4.3810 C   0  0  0  0  0  0  0  0  0  0  0  0
   -0.3290   13.5600   -5.1060 C   0  0  0  0  0  0  0  0  0  0  0  0
    0.7130   13.8150   -4.0360 C   0  0  2  0  0  0  0  0  0  0  0  0
    0.1530   13.4510   -2.4250 S   0  0  0  0  0  0  0  0  0  0  0  0
    0.5650   13.1700   -0.6520 O   0  0  0  0  0  0  0  0  0  0  0  0
    0.0370   11.2700   -1.8030 O   0  0  0  0  0  0  0  0  0  0  0  0
    1.8800   12.7570   -2.2880 O   0  0  0  0  0  0  0  0  0  0  0  0
   -1.1840   14.4940   -2.3010 C   0  0  2  0  0  0  0  0  0  0  0  0
   -2.2270   13.9490   -1.3560 C   0  0  0  0  0  0  0  0  0  0  0  0
   -1.8350   14.9810   -3.5320 C   0  0  0  0  0  0  0  0  0  0  0  0
   -3.3880   14.8170   -1.5810 C   0  0  1  0  0  0  0  0  0  0  0  0
   -3.2040   14.9780   -3.8010 N   0  0  0  0  0  0  0  0  0  0  0  0
   -4.0680   14.4100   -2.8280 C   0  0  0  0  0  0  0  0  0  0  0  0
   -4.2630   14.8040   -0.4080 C   0  0  0  0  0  0  0  0  0  0  0  0
   -3.5670   14.7720    0.8840 C   0  0  0  0  0  0  0  0  0  0  0  0
   -5.2870   13.6930   -0.4480 C   0  0  0  0  0  0  0  0  0  0  0  0
   -4.5860   15.4150    1.7310 C   0  0  0  0  0  0  0  0  0  0  0  0
   -6.4080   14.2170    0.4590 C   0  0  0  0  0  0  0  0  0  0  0  0
   -5.8120   14.5270    1.8300 C   0  0  0  0  0  0  0  0  0  0  0  0
  1  2  1  0
  2  3  1  0
  2  4  1  0
  5  2  1  6
  5  6  1  0
  5  7  1  0
  6  8  1  0
  7  9  1  0
  8 10  1  0
  9 10  1  0
 10 11  1  1
 11 12  1  0
 11 13  1  0
 11 14  1  0
 15 11  1  6
 15 16  1  0
 15 17  1  0
 16 18  1  0
 17 19  1  0
 18 20  1  0
 19 20  1  0
 18 21  1  1
 21 22  1  0
 21 23  1  0
 22 24  1  0
 23 25  1  0
 24 26  1  0
 25 26  1  0
M  CHG  2  13  -1  14  -1
M  END
