ucsf378-ucsf412
     RDKit          3D

 26 28  0  0  0  0  0  0  0  0999 V2000
   -2.4590   14.0140   -4.4880 Cl  0  0  0  0  0  0  0  0  0  0  0  0
   -0.7530   14.4520   -4.8210 C   0  0  2  0  0  0  0  0  0  0  0  0
    0.2780   13.3130   -4.5330 C   0  0  0  0  0  0  0  0  0  0  0  0
   -0.4530   15.8580   -4.3030 C   0  0  0  0  0  0  0  0  0  0  0  0
   -0.3160   12.0750   -3.7970 C   0  0  0  0  0  0  0  0  0  0  0  0
    1.5800   13.7990   -3.8690 C   0  0  1  0  0  0  0  0  0  0  0  0
    0.9640   16.2500   -4.5860 C   0  0  0  0  0  0  0  0  0  0  0  0
    2.9610   12.9000   -4.5650 Cl  0  0  0  0  0  0  0  0  0  0  0  0
    0.4360   11.5820   -2.5520 C   0  0  1  0  0  0  0  0  0  0  0  0
    1.9370   15.2680   -3.9600 C   0  0  0  0  0  0  0  0  0  0  0  0
    0.0660   12.2350   -1.3450 O   0  0  0  0  0  0  0  0  0  0  0  0
    0.1610   10.1990   -2.4120 O   0  0  0  0  0  0  0  0  0  0  0  0
    0.5230   13.5900   -1.2490 C   0  0  0  0  0  0  0  0  0  0  0  0
   -0.6060   14.4710   -0.7490 C   0  0  0  0  0  0  0  0  0  0  0  0
   -1.6360   14.6830   -1.8590 C   0  0  0  0  0  0  0  0  0  0  0  0
   -3.0770   14.6150   -1.3500 C   0  0  1  0  0  0  0  0  0  0  0  0
   -3.2270   15.3890   -0.0500 C   0  0  0  0  0  0  0  0  0  0  0  0
   -4.0900   15.0980   -2.4040 C   0  0  0  0  0  0  0  0  0  0  0  0
   -4.6680   15.5220    0.4090 C   0  0  1  0  0  0  0  0  0  0  0  0
   -5.5320   15.1040   -1.9090 C   0  0  0  0  0  0  0  0  0  0  0  0
   -5.6360   14.6900   -0.4410 C   0  0  2  0  0  0  0  0  0  0  0  0
   -4.7630   15.1470    1.8790 C   0  0  0  0  0  0  0  0  0  0  0  0
   -7.0860   14.8620    0.0350 C   0  0  1  0  0  0  0  0  0  0  0  0
   -6.0830   14.4800    2.2860 C   0  0  0  0  0  0  0  0  0  0  0  0
   -7.8990   13.8600   -0.5000 O   0  0  0  0  0  0  0  0  0  0  0  0
   -7.2670   14.7670    1.4720 N   0  0  0  0  0  0  0  0  0  0  0  0
  2  1  1  1
  2  3  1  0
  2  4  1  0
  3  5  1  0
  3  6  1  0
  4  7  1  0
  6  8  1  6
  5  9  1  0
  6 10  1  0
  7 10  1  0
  9 11  1  0
  9 12  1  1
 11 13  1  0
 13 14  1  0
 14 15  1  0
 16 15  1  6
 16 17  1  0
 16 18  1  0
 19 17  1  6
 18 20  1  0
 19 21  1  0
 21 20  1  6
 19 22  1  0
 21 23  1  0
 22 24  1  0
 23 25  1  6
 23 26  1  0
 24 26  1  0
M  END
