ucsf190-ucsf110
     RDKit          3D

 26 29  0  0  0  0  0  0  0  0999 V2000
    0.6160   10.4940   -2.6390 O   0  0  0  0  0  0  0  0  0  0  0  0
    0.4610   11.8050   -2.8170 C   0  0  1  0  0  0  0  0  0  0  0  0
    0.8790   12.3670   -1.5780 O   0  0  0  0  0  0  0  0  0  0  0  0
    1.3450   12.4210   -3.9980 C   0  0  0  0  0  0  0  0  0  0  0  0
    0.9320   13.7400   -4.7730 C   0  0  1  0  0  0  0  0  0  0  0  0
   -0.5920   14.0670   -4.6180 C   0  0  1  0  0  0  0  0  0  0  0  0
    1.8140   14.8760   -4.4380 N   0  0  0  0  0  0  0  0  0  0  0  0
   -1.0290   15.5800   -4.5140 C   0  0  1  0  0  0  0  0  0  0  0  0
    1.0810   15.8080   -3.5620 N   0  0  0  0  0  0  0  0  0  0  0  0
   -1.4190   13.2310   -5.5930 C   0  0  0  0  0  0  0  0  0  0  0  0
    0.3160   14.9110   -2.6850 C   0  0  0  0  0  0  0  0  0  0  0  0
    0.1520   16.5630   -4.3640 C   0  0  1  0  0  0  0  0  0  0  0  0
   -2.2300   16.0600   -5.3600 C   0  0  0  0  0  0  0  0  0  0  0  0
   -2.8910   13.5320   -5.4420 C   0  0  0  0  0  0  0  0  0  0  0  0
    0.6510   17.0410   -5.6070 O   0  0  0  0  0  0  0  0  0  0  0  0
   -3.2060   14.9700   -5.8470 C   0  0  0  0  0  0  0  0  0  0  0  0
   -0.8900   15.4510   -2.0150 N   0  0  0  0  0  0  0  0  0  0  0  0
   -2.1800   15.5470   -2.7530 C   0  0  0  0  0  0  0  0  0  0  0  0
   -1.2470   14.5940   -0.9530 C   0  0  2  0  0  0  0  0  0  0  0  0
   -3.2800   15.3320   -1.6910 C   0  0  0  0  0  0  0  0  0  0  0  0
   -2.4430   15.3240   -0.4300 C   0  0  1  0  0  0  0  0  0  0  0  0
   -0.1620   14.4750   -0.0430 N   0  0  0  0  0  0  0  0  0  0  0  0
   -2.8740   14.6410    0.8350 C   0  0  2  0  0  0  0  0  0  0  0  0
   -0.4940   14.9930    1.2150 C   0  0  0  0  0  0  0  0  0  0  0  0
   -3.8690   15.3780    1.6010 N   0  0  0  0  0  0  0  0  0  0  0  0
   -1.7580   14.4750    1.7180 N   0  0  0  0  0  0  0  0  0  0  0  0
  2  1  1  1
  2  3  1  0
  2  4  1  0
  5  4  1  1
  5  6  1  0
  5  7  1  0
  6  8  1  0
  7  9  1  0
  6 10  1  6
  9 11  1  0
  8 12  1  0
  9 12  1  0
  8 13  1  6
 10 14  1  0
 12 15  1  6
 13 16  1  0
 14 16  1  0
 11 17  1  0
 17 18  1  0
 17 19  1  0
 18 20  1  0
 19 21  1  0
 21 20  1  6
 19 22  1  1
 21 23  1  0
 22 24  1  0
 23 25  1  1
 23 26  1  0
 24 26  1  0
M  CHG  1   1  -1
M  END
