ucsf123-ucsf278
     RDKit          3D

 19 20  0  0  0  0  0  0  0  0999 V2000
   -1.9370   18.6930   -4.9390 N   0  0  0  0  0  0  0  0  0  0  0  0
   -1.4790   17.3660   -5.7480 S   0  0  0  0  0  0  0  0  0  0  0  0
   -0.4030   17.8510   -6.8080 O   0  0  0  0  0  0  0  0  0  0  0  0
   -2.7070   16.8800   -6.6480 O   0  0  0  0  0  0  0  0  0  0  0  0
   -0.7640   15.9170   -4.9900 C   0  0  1  0  0  0  0  0  0  0  0  0
    0.0130   16.1680   -3.7020 C   0  0  0  0  0  0  0  0  0  0  0  0
   -1.6600   14.6750   -4.8820 C   0  0  0  0  0  0  0  0  0  0  0  0
    0.2390   14.9410   -2.8120 C   0  0  1  0  0  0  0  0  0  0  0  0
   -1.0150   13.3330   -4.3670 C   0  0  2  0  0  0  0  0  0  0  0  0
   -1.0360   14.9670   -1.5120 Cl  0  0  0  0  0  0  0  0  0  0  0  0
    0.3170   13.5650   -3.5670 C   0  0  2  0  0  0  0  0  0  0  0  0
   -0.6260   12.5060   -5.6460 C   0  0  2  0  0  0  0  0  0  0  0  0
    0.7520   12.4350   -2.4950 C   0  0  1  0  0  0  0  0  0  0  0  0
   -1.0250   11.0130   -5.6570 C   0  0  0  0  0  0  0  0  0  0  0  0
    1.3020   13.6160   -4.7740 C   0  0  0  0  0  0  0  0  0  0  0  0
    0.8280   12.6860   -5.8260 N   0  0  0  0  0  0  0  0  0  0  0  0
    0.5480   12.8050   -1.1550 O   0  0  0  0  0  0  0  0  0  0  0  0
   -0.0120   11.3590   -2.5090 O   0  0  0  0  0  0  0  0  0  0  0  0
   -2.4370   10.8350   -5.4370 O   0  0  0  0  0  0  0  0  0  0  0  0
  1  2  1  0
  2  3  1  0
  2  4  1  0
  5  2  1  1
  5  6  1  0
  5  7  1  0
  6  8  1  0
  9  7  1  6
  8 10  1  1
  8 11  1  0
  9 11  1  0
  9 12  1  0
 11 13  1  0
 12 14  1  1
 11 15  1  6
 12 16  1  0
 15 16  1  0
 13 17  1  1
 13 18  1  0
 14 19  1  0
M  CHG  1  18  -1
M  END
