ucsf404-ucsf241
     RDKit          3D

 16 18  0  0  0  0  0  0  0  0999 V2000
   -6.7830   15.1270   -2.4630 Cl  0  0  0  0  0  0  0  0  0  0  0  0
   -5.2590   14.6160   -1.6890 C   0  0  2  0  0  0  0  0  0  0  0  0
   -5.1950   15.2270   -0.2900 C   0  0  1  0  0  0  0  0  0  0  0  0
   -4.0570   15.0050   -2.5540 C   0  0  0  0  0  0  0  0  0  0  0  0
   -6.3190   14.8050    0.5980 N   0  0  0  0  0  0  0  0  0  0  0  0
   -3.8840   14.9130    0.4250 C   0  0  1  0  0  0  0  0  0  0  0  0
   -2.8530   15.5620   -1.7890 C   0  0  0  0  0  0  0  0  0  0  0  0
   -5.7240   14.6080    1.8990 C   0  0  2  0  0  0  0  0  0  0  0  0
   -4.3110   13.5760    1.5670 S   0  0  0  0  0  0  0  0  0  0  0  0
   -2.5800   14.9480   -0.3980 C   0  0  2  0  0  0  0  0  0  0  0  0
   -6.7260   14.0130    2.7110 N   0  0  0  0  0  0  0  0  0  0  0  0
   -1.7630   13.6510   -0.6320 C   0  0  0  0  0  0  0  0  0  0  0  0
   -1.7380   15.7980    0.5220 C   0  0  0  0  0  0  0  0  0  0  0  0
   -0.2630   13.8970   -0.4220 C   0  0  0  0  0  0  0  0  0  0  0  0
   -1.2390   14.9290    1.5450 N   0  0  0  0  0  0  0  0  0  0  0  0
   -0.0440   14.3610    1.0110 C   0  0  0  0  0  0  0  0  0  0  0  0
  2  1  1  6
  2  3  1  0
  2  4  1  0
  3  5  1  1
  3  6  1  0
  4  7  1  0
  5  8  1  0
  6  9  1  6
  8  9  1  0
  6 10  1  0
 10  7  1  6
  8 11  1  1
 10 12  1  0
 10 13  1  0
 12 14  1  0
 13 15  1  0
 14 16  1  0
 15 16  1  0
M  END
