ucsf173-ucsf190
     RDKit          3D

 18 20  0  0  0  0  0  0  0  0999 V2000
    0.5450   12.5670   -0.9780 O   0  0  0  0  0  0  0  0  0  0  0  0
    0.7530   12.7270   -2.3060 C   0  0  1  0  0  0  0  0  0  0  0  0
    0.0340   11.7060   -2.9580 O   0  0  0  0  0  0  0  0  0  0  0  0
    0.4750   14.0900   -2.8240 C   0  0  2  0  0  0  0  0  0  0  0  0
   -0.8940   14.6360   -2.7440 C   0  0  0  0  0  0  0  0  0  0  0  0
    1.0700   14.6190   -3.9810 C   0  0  1  0  0  0  0  0  0  0  0  0
    1.3720   13.6200   -5.0270 C   0  0  0  0  0  0  0  0  0  0  0  0
   -1.5000   15.0900   -4.5070 S   0  0  0  0  0  0  0  0  0  0  0  0
    0.0830   15.8150   -4.2150 C   0  0  1  0  0  0  0  0  0  0  0  0
    0.2750   16.5860   -3.1650 O   0  0  0  0  0  0  0  0  0  0  0  0
   -1.8280   16.8560   -5.1710 C   0  0  0  0  0  0  0  0  0  0  0  0
    0.8410   16.6740   -5.0690 C   0  0  0  0  0  0  0  0  0  0  0  0
   -2.8680   13.8280   -4.6150 C   0  0  0  0  0  0  0  0  0  0  0  0
   -1.1520   13.9240   -5.8400 C   0  0  0  0  0  0  0  0  0  0  0  0
   -0.9040   17.5400   -5.9770 C   0  0  0  0  0  0  0  0  0  0  0  0
    0.1780   18.0800   -5.0920 C   0  0  0  0  0  0  0  0  0  0  0  0
   -2.6510   12.6140   -5.4650 C   0  0  0  0  0  0  0  0  0  0  0  0
   -1.2820   12.6080   -5.2950 C   0  0  0  0  0  0  0  0  0  0  0  0
  2  1  1  1
  2  3  1  0
  2  4  1  0
  4  5  1  6
  4  6  1  0
  6  7  1  6
  5  8  1  0
  6  9  1  0
  8  9  1  0
  9 10  1  1
  8 11  1  0
  9 12  1  0
  8 13  1  0
  8 14  1  0
 11 15  1  0
 12 16  1  0
 15 16  1  0
 13 17  1  0
 14 18  1  0
 17 18  1  0
M  CHG  1   1  -1
M  END
