ucsf258-ucsf224
     RDKit          3D

 19 21  0  0  0  0  0  0  0  0999 V2000
    1.0390   14.8590   -1.1640 O   0  0  0  0  0  0  0  0  0  0  0  0
   -0.0110   14.1070   -1.4740 C   0  0  2  0  0  0  0  0  0  0  0  0
    0.1660   13.7040   -2.8730 N   0  0  0  0  0  0  0  0  0  0  0  0
   -1.3500   14.9240   -1.1300 C   0  0  1  0  0  0  0  0  0  0  0  0
    1.0290   12.5250   -3.2060 C   0  0  0  0  0  0  0  0  0  0  0  0
   -2.5140   15.1160   -2.1730 C   0  0  1  0  0  0  0  0  0  0  0  0
   -1.9420   14.4130    0.1400 N   0  0  0  0  0  0  0  0  0  0  0  0
    0.2210   14.9530   -3.5930 C   0  0  2  0  0  0  0  0  0  0  0  0
   -2.2680   14.6730   -3.4830 O   0  0  0  0  0  0  0  0  0  0  0  0
    0.6180   11.3920   -2.6110 O   0  0  0  0  0  0  0  0  0  0  0  0
   -3.8860   14.6030   -1.7200 C   0  0  0  0  0  0  0  0  0  0  0  0
   -3.0280   15.2740    0.5620 C   0  0  0  0  0  0  0  0  0  0  0  0
   -1.1860   15.5170   -3.7740 C   0  0  2  0  0  0  0  0  0  0  0  0
    1.1150   15.2250   -4.8140 C   0  0  0  0  0  0  0  0  0  0  0  0
   -4.2420   15.2130   -0.3750 C   0  0  0  0  0  0  0  0  0  0  0  0
   -1.3990   16.0770   -5.1150 C   0  0  0  0  0  0  0  0  0  0  0  0
    0.9710   16.7300   -5.1720 C   0  0  0  0  0  0  0  0  0  0  0  0
   -0.4680   17.2460   -5.1110 C   0  0  1  0  0  0  0  0  0  0  0  0
   -0.8880   18.4580   -6.3550 Cl  0  0  0  0  0  0  0  0  0  0  0  0
  2  1  1  6
  2  3  1  0
  2  4  1  0
  3  5  1  0
  4  6  1  0
  4  7  1  1
  3  8  1  0
  6  9  1  0
  5 10  1  0
  6 11  1  1
  7 12  1  0
  8 13  1  0
  9 13  1  0
  8 14  1  6
 11 15  1  0
 12 15  1  0
 13 16  1  6
 14 17  1  0
 16 18  1  0
 17 18  1  0
 18 19  1  6
M  CHG  2   1  -1  10  -1
M  END
