ucsf262-ucsf367
     RDKit          3D

 23 25  0  0  0  0  0  0  0  0999 V2000
   -2.9200   15.3820   -5.6290 Cl  0  0  0  0  0  0  0  0  0  0  0  0
   -1.8810   16.7190   -5.0060 C   0  0  1  0  0  0  0  0  0  0  0  0
   -0.5250   16.2600   -4.4380 C   0  0  1  0  0  0  0  0  0  0  0  0
   -1.7140   17.8330   -6.0380 C   0  0  0  0  0  0  0  0  0  0  0  0
   -0.3050   14.8030   -4.0760 C   0  0  0  0  0  0  0  0  0  0  0  0
    0.6870   16.5770   -5.2450 C   0  0  2  0  0  0  0  0  0  0  0  0
   -0.5650   18.7370   -5.6510 C   0  0  0  0  0  0  0  0  0  0  0  0
    1.2340   14.7690   -3.8840 C   0  0  1  0  0  0  0  0  0  0  0  0
    1.6650   16.1480   -4.2720 N   0  0  0  0  0  0  0  0  0  0  0  0
    0.7890   18.0320   -5.7150 C   0  0  0  0  0  0  0  0  0  0  0  0
    1.7180   14.3010   -2.4470 C   0  0  2  0  0  0  0  0  0  0  0  0
    3.0510   14.4200   -2.4110 O   0  0  0  0  0  0  0  0  0  0  0  0
    1.3130   12.9050   -2.2790 O   0  0  0  0  0  0  0  0  0  0  0  0
    0.5460   12.2020   -3.3140 C   0  0  2  0  0  0  0  0  0  0  0  0
    0.6380   10.9040   -2.9860 O   0  0  0  0  0  0  0  0  0  0  0  0
    1.1610   12.4160   -4.7550 C   0  0  0  0  0  0  0  0  0  0  0  0
    0.7180   11.5370   -5.8330 O   0  0  0  0  0  0  0  0  0  0  0  0
   -0.3580   10.6430   -5.5690 C   0  0  0  0  0  0  0  0  0  0  0  0
   -0.4610    9.7290   -6.8000 C   0  0  0  0  0  0  0  0  0  0  0  0
   -1.6840   11.3740   -5.3280 C   0  0  0  0  0  0  0  0  0  0  0  0
   -1.5440    8.6900   -6.6130 C   0  0  0  0  0  0  0  0  0  0  0  0
   -2.8380   10.3880   -5.1770 C   0  0  0  0  0  0  0  0  0  0  0  0
   -2.8910    9.3460   -6.3020 C   0  0  0  0  0  0  0  0  0  0  0  0
  2  1  1  6
  2  3  1  0
  2  4  1  0
  3  5  1  6
  3  6  1  0
  4  7  1  0
  8  5  1  1
  6  9  1  0
  8  9  1  0
  6 10  1  1
  7 10  1  0
  8 11  1  0
 11 12  1  6
 11 13  1  0
 13 14  1  0
 14 15  1  1
 14 16  1  0
 16 17  1  0
 17 18  1  0
 18 19  1  0
 18 20  1  0
 19 21  1  0
 20 22  1  0
 21 23  1  0
 22 23  1  0
M  CHG  2  12  -1  15  -1
M  END
