ucsf039-ucsf411
     RDKit          3D

 27 30  0  0  0  0  0  0  0  0999 V2000
   -4.3030   15.5460    1.3070 N   0  0  0  0  0  0  0  0  0  0  0  0
   -3.6500   14.8610    0.2060 C   0  0  2  0  0  0  0  0  0  0  0  0
   -2.1970   14.4410    0.5310 C   0  0  1  0  0  0  0  0  0  0  0  0
   -3.7750   15.7700   -0.9130 N   0  0  0  0  0  0  0  0  0  0  0  0
   -3.0470   15.2880   -2.0810 C   0  0  0  0  0  0  0  0  0  0  0  0
   -1.3680   14.3010   -0.7260 C   0  0  1  0  0  0  0  0  0  0  0  0
   -1.3990   15.4410    1.2220 N   0  0  0  0  0  0  0  0  0  0  0  0
   -1.6410   15.2660   -1.7490 N   0  0  0  0  0  0  0  0  0  0  0  0
    0.0170   14.3330   -0.2700 N   0  0  0  0  0  0  0  0  0  0  0  0
   -0.0510   14.9300    1.0510 C   0  0  0  0  0  0  0  0  0  0  0  0
   -0.8290   14.8600   -2.8730 C   0  0  0  0  0  0  0  0  0  0  0  0
   -0.0450   15.8990   -3.7070 C   0  0  2  0  0  0  0  0  0  0  0  0
   -0.1200   17.3170   -3.3170 C   0  0  0  0  0  0  0  0  0  0  0  0
   -0.5150   15.9810   -5.1600 C   0  0  1  0  0  0  0  0  0  0  0  0
   -0.0890   17.3920   -5.7590 C   0  0  2  0  0  0  0  0  0  0  0  0
    0.9560   18.1220   -4.4730 S   0  0  0  0  0  0  0  0  0  0  0  0
    0.4700   14.8520   -5.5670 C   0  0  0  0  0  0  0  0  0  0  0  0
   -2.0280   15.6100   -5.3050 C   0  0  0  0  0  0  0  0  0  0  0  0
   -1.1780   18.4090   -6.1320 C   0  0  0  0  0  0  0  0  0  0  0  0
    0.2250   13.5240   -4.9660 C   0  0  1  0  0  0  0  0  0  0  0  0
   -2.2520   14.1120   -5.4940 C   0  0  0  0  0  0  0  0  0  0  0  0
    0.9890   13.5110   -3.7890 O   0  0  0  0  0  0  0  0  0  0  0  0
   -1.2670   13.2570   -4.6890 C   0  0  0  0  0  0  0  0  0  0  0  0
    1.3240   12.1850   -3.4320 C   0  0  0  0  0  0  0  0  0  0  0  0
    0.2840   11.5730   -2.4570 C   0  0  1  0  0  0  0  0  0  0  0  0
    0.5910   10.3250   -2.1590 O   0  0  0  0  0  0  0  0  0  0  0  0
    0.4100   12.2220   -1.2150 O   0  0  0  0  0  0  0  0  0  0  0  0
  2  1  1  1
  2  3  1  0
  2  4  1  0
  4  5  1  0
  3  6  1  0
  3  7  1  1
  5  8  1  0
  6  8  1  0
  6  9  1  1
  7 10  1  0
  9 10  1  0
  8 11  1  0
 12 11  1  1
 12 13  1  0
 12 14  1  0
 14 15  1  0
 13 16  1  0
 15 16  1  0
 14 17  1  6
 14 18  1  0
 15 19  1  1
 17 20  1  0
 18 21  1  0
 20 22  1  1
 20 23  1  0
 21 23  1  0
 22 24  1  0
 24 25  1  0
 25 26  1  1
 25 27  1  0
M  CHG  1  26  -1
M  END
