ucsf371-ucsf173
     RDKit          3D

 20 22  0  0  0  0  0  0  0  0999 V2000
   -5.4970   14.7770    0.7240 C   0  0  0  0  0  0  0  0  0  0  0  0
   -4.8460   15.4040   -0.4960 C   0  0  2  0  0  0  0  0  0  0  0  0
   -4.9380   14.5030   -1.6470 N   0  0  0  0  0  0  0  0  0  0  0  0
   -3.1150   15.6740   -0.1460 S   0  0  0  0  0  0  0  0  0  0  0  0
   -3.9210   14.9930   -2.6130 C   0  0  0  0  0  0  0  0  0  0  0  0
   -2.6540   15.4840   -1.8810 C   0  0  2  0  0  0  0  0  0  0  0  0
   -1.3200   14.8060   -2.1410 C   0  0  2  0  0  0  0  0  0  0  0  0
   -0.5330   15.1320   -1.1130 O   0  0  0  0  0  0  0  0  0  0  0  0
   -0.4580   15.0720   -3.3300 C   0  0  1  0  0  0  0  0  0  0  0  0
    0.9010   14.2960   -3.4500 C   0  0  1  0  0  0  0  0  0  0  0  0
   -0.8490   15.5590   -4.7150 C   0  0  2  0  0  0  0  0  0  0  0  0
    1.1020   12.7420   -3.3970 C   0  0  1  0  0  0  0  0  0  0  0  0
    0.5060   16.2620   -4.7050 C   0  0  1  0  0  0  0  0  0  0  0  0
    1.4360   15.0420   -4.7080 C   0  0  0  0  0  0  0  0  0  0  0  0
   -2.0580   16.5020   -4.8990 C   0  0  0  0  0  0  0  0  0  0  0  0
    1.3090   12.3500   -2.1580 O   0  0  0  0  0  0  0  0  0  0  0  0
   -0.0690   12.0520   -3.7760 O   0  0  0  0  0  0  0  0  0  0  0  0
   -1.8110   17.7240   -5.7980 C   0  0  0  0  0  0  0  0  0  0  0  0
    0.6840   17.4740   -5.6020 C   0  0  0  0  0  0  0  0  0  0  0  0
   -0.5030   18.4110   -5.4700 C   0  0  0  0  0  0  0  0  0  0  0  0
  2  1  1  1
  2  3  1  0
  2  4  1  0
  3  5  1  0
  4  6  1  0
  6  5  1  6
  6  7  1  0
  7  8  1  1
  9  7  1  6
  9 10  1  0
  9 11  1  0
 10 12  1  0
 11 13  1  0
 10 14  1  6
 13 14  1  6
 11 15  1  1
 12 16  1  1
 12 17  1  0
 15 18  1  0
 13 19  1  0
 18 20  1  0
 19 20  1  0
M  CHG  2   8  -1  16  -1
M  END
