ucsf348-ucsf123
     RDKit          3D

 24 26  0  0  0  0  0  0  0  0999 V2000
   -6.7320   14.7710    2.2020 N   0  0  0  0  0  0  0  0  0  0  0  0
   -5.9260   14.3730    1.0940 C   0  0  2  0  0  0  0  0  0  0  0  0
   -4.7060   15.0400    1.3370 N   0  0  0  0  0  0  0  0  0  0  0  0
   -6.4800   14.9170   -0.0950 N   0  0  0  0  0  0  0  0  0  0  0  0
   -5.6780   14.5120   -1.2410 C   0  0  1  0  0  0  0  0  0  0  0  0
   -3.6760   14.4760    0.4500 C   0  0  1  0  0  0  0  0  0  0  0  0
   -5.7190   15.5600   -2.1850 O   0  0  0  0  0  0  0  0  0  0  0  0
   -4.2590   13.9540   -0.8840 C   0  0  2  0  0  0  0  0  0  0  0  0
   -2.4030   15.2980    0.3000 C   0  0  0  0  0  0  0  0  0  0  0  0
   -2.1850   15.8040   -1.1470 C   0  0  0  0  0  0  0  0  0  0  0  0
   -3.2480   13.7780   -2.0880 C   0  0  0  0  0  0  0  0  0  0  0  0
   -2.0280   14.7510   -2.3060 C   0  0  2  0  0  0  0  0  0  0  0  0
   -0.5020   14.1820   -2.2170 C   0  0  1  0  0  0  0  0  0  0  0  0
   -2.3240   15.4000   -3.7390 C   0  0  0  0  0  0  0  0  0  0  0  0
   -0.1410   12.6340   -2.2940 C   0  0  1  0  0  0  0  0  0  0  0  0
   -1.1650   15.9670   -4.5870 C   0  0  1  0  0  0  0  0  0  0  0  0
    0.5350   14.9970   -3.0770 C   0  0  0  0  0  0  0  0  0  0  0  0
   -1.5930   17.3660   -5.6260 S   0  0  0  0  0  0  0  0  0  0  0  0
    1.0540   12.4350   -1.6050 O   0  0  0  0  0  0  0  0  0  0  0  0
   -0.8430   11.8490   -1.5240 O   0  0  0  0  0  0  0  0  0  0  0  0
    0.0470   16.2710   -3.7470 C   0  0  0  0  0  0  0  0  0  0  0  0
   -1.9630   18.8200   -5.0040 N   0  0  0  0  0  0  0  0  0  0  0  0
   -0.2930   17.5850   -6.5210 O   0  0  0  0  0  0  0  0  0  0  0  0
   -2.7310   16.8910   -6.6440 O   0  0  0  0  0  0  0  0  0  0  0  0
  2  1  1  1
  2  3  1  0
  2  4  1  0
  4  5  1  0
  3  6  1  0
  5  7  1  6
  5  8  1  0
  6  8  1  0
  6  9  1  6
  9 10  1  0
  8 11  1  6
 12 10  1  1
 11 12  1  0
 12 13  1  0
 12 14  1  0
 13 15  1  0
 14 16  1  0
 13 17  1  6
 16 18  1  1
 15 19  1  1
 15 20  1  0
 16 21  1  0
 17 21  1  0
 18 22  1  0
 18 23  1  0
 18 24  1  0
M  CHG  1  20  -1
M  END
