ucsf303-ucsf392
     RDKit          3D

 17 18  0  0  0  0  0  0  0  0999 V2000
   -2.5090   13.7960   -3.3680 O   0  0  0  0  0  0  0  0  0  0  0  0
   -3.7830   14.3620   -2.5850 S   0  0  0  0  0  0  0  0  0  0  0  0
   -4.2040   15.6380   -3.4060 O   0  0  0  0  0  0  0  0  0  0  0  0
   -5.0120   13.2780   -2.5510 N   0  0  0  0  0  0  0  0  0  0  0  0
   -3.2720   14.9690   -1.0060 C   0  0  2  0  0  0  0  0  0  0  0  0
   -4.8680   11.8590   -2.6520 C   0  0  2  0  0  0  0  0  0  0  0  0
   -1.9200   14.4670   -0.4740 C   0  0  0  0  0  0  0  0  0  0  0  0
   -4.4360   14.8620   -0.0430 C   0  0  2  0  0  0  0  0  0  0  0  0
   -5.6130   15.6250   -0.6500 C   0  0  0  0  0  0  0  0  0  0  0  0
   -5.6640   11.1780   -1.6400 N   0  0  0  0  0  0  0  0  0  0  0  0
   -3.2320   11.2070   -2.4750 S   0  0  0  0  0  0  0  0  0  0  0  0
   -1.6330   14.8440    0.9890 C   0  0  2  0  0  0  0  0  0  0  0  0
   -4.0780   15.3410    1.3440 C   0  0  0  0  0  0  0  0  0  0  0  0
   -0.3390   14.1780    1.4460 C   0  0  0  0  0  0  0  0  0  0  0  0
   -3.9910    9.5860   -2.3820 C   0  0  0  0  0  0  0  0  0  0  0  0
   -5.3560    9.7280   -1.8220 N   0  0  0  0  0  0  0  0  0  0  0  0
   -2.8690   14.6070    1.8590 C   0  0  0  0  0  0  0  0  0  0  0  0
  2  1  1  0
  2  3  1  0
  2  4  1  0
  5  2  1  6
  6  4  1  1
  5  7  1  0
  5  8  1  0
  8  9  1  6
  6 10  1  0
  6 11  1  0
  7 12  1  0
  8 13  1  0
 12 14  1  1
 11 15  1  0
 10 16  1  0
 15 16  1  0
 12 17  1  0
 13 17  1  0
M  END
