ucsf243-ucsf028
     RDKit          3D

 22 24  0  0  0  0  0  0  0  0999 V2000
   -3.9530   15.9970    0.7700 C   0  0  0  0  0  0  0  0  0  0  0  0
   -3.5320   15.0890   -0.3730 C   0  0  1  0  0  0  0  0  0  0  0  0
   -4.4600   15.4030   -1.5630 C   0  0  0  0  0  0  0  0  0  0  0  0
   -1.9580   14.8770   -0.6080 C   0  0  2  0  0  0  0  0  0  0  0  0
   -1.6500   14.4500   -2.1000 C   0  0  2  0  0  0  0  0  0  0  0  0
   -3.9650   14.9350   -2.9040 C   0  0  0  0  0  0  0  0  0  0  0  0
   -1.6210   13.8140    0.4400 C   0  0  0  0  0  0  0  0  0  0  0  0
   -1.0190   15.9350   -0.1850 N   0  0  0  0  0  0  0  0  0  0  0  0
   -0.1580   14.2950   -2.5910 C   0  0  1  0  0  0  0  0  0  0  0  0
   -2.5090   15.2600   -3.1130 C   0  0  2  0  0  0  0  0  0  0  0  0
   -0.7970   14.4660    1.4680 N   0  0  0  0  0  0  0  0  0  0  0  0
   -0.0130   15.2850    0.6080 C   0  0  0  0  0  0  0  0  0  0  0  0
   -2.2600   14.9500   -4.4910 O   0  0  0  0  0  0  0  0  0  0  0  0
    0.1180   15.3600   -3.4930 O   0  0  0  0  0  0  0  0  0  0  0  0
    0.7380   14.5950   -1.6700 O   0  0  0  0  0  0  0  0  0  0  0  0
    0.1970   13.0210   -3.3680 C   0  0  2  0  0  0  0  0  0  0  0  0
   -0.7600   12.5740   -4.4560 C   0  0  0  0  0  0  0  0  0  0  0  0
    0.3390   11.9190   -2.4670 O   0  0  0  0  0  0  0  0  0  0  0  0
    0.0080   10.6970   -3.1860 N   0  0  0  0  0  0  0  0  0  0  0  0
   -0.9570   11.1010   -4.1840 C   0  0  2  0  0  0  0  0  0  0  0  0
   -0.7530   10.2820   -5.3390 O   0  0  0  0  0  0  0  0  0  0  0  0
   -0.2210   10.9810   -6.4560 C   0  0  0  0  0  0  0  0  0  0  0  0
  2  1  1  1
  2  3  1  0
  2  4  1  0
  4  5  1  0
  3  6  1  0
  4  7  1  1
  4  8  1  0
  5  9  1  0
  5 10  1  6
  6 10  1  0
  7 11  1  0
  8 12  1  0
 11 12  1  0
 10 13  1  6
  9 14  1  6
  9 15  1  0
  9 16  1  0
 16 17  1  6
 16 18  1  0
 18 19  1  0
 17 20  1  0
 19 20  1  0
 20 21  1  6
 21 22  1  0
M  CHG  1  15  -1
M  END
