ucsf320-ucsf340
     RDKit          3D

 24 26  0  0  0  0  0  0  0  0999 V2000
   -0.5200   14.5160   -2.6920 N   0  0  0  0  0  0  0  0  0  0  0  0
   -1.7370   15.2450   -2.2410 C   0  0  1  0  0  0  0  0  0  0  0  0
   -2.1680   16.1110   -3.2490 O   0  0  0  0  0  0  0  0  0  0  0  0
   -0.6370   13.0310   -2.9580 C   0  0  0  0  0  0  0  0  0  0  0  0
    0.0520   15.1370   -3.9320 C   0  0  2  0  0  0  0  0  0  0  0  0
    0.4530   12.0590   -2.3760 C   0  0  1  0  0  0  0  0  0  0  0  0
   -3.0230   14.5400   -1.6880 C   0  0  1  0  0  0  0  0  0  0  0  0
    0.7240   16.5540   -3.9590 C   0  0  0  0  0  0  0  0  0  0  0  0
   -1.0120   15.3540   -5.0250 C   0  0  2  0  0  0  0  0  0  0  0  0
    0.6100   12.4470   -1.0430 O   0  0  0  0  0  0  0  0  0  0  0  0
   -0.0010   10.8110   -2.2280 O   0  0  0  0  0  0  0  0  0  0  0  0
   -3.3740   15.0770   -0.2740 C   0  0  0  0  0  0  0  0  0  0  0  0
   -4.2310   14.7550   -2.6360 C   0  0  0  0  0  0  0  0  0  0  0  0
    0.3030   17.0960   -5.2820 N   0  0  0  0  0  0  0  0  0  0  0  0
   -1.1100   16.8890   -5.1000 C   0  0  1  0  0  0  0  0  0  0  0  0
   -2.3450   14.6100   -4.9050 C   0  0  0  0  0  0  0  0  0  0  0  0
    0.7410   18.4410   -5.5710 C   0  0  0  0  0  0  0  0  0  0  0  0
   -4.7080   14.6070    0.3250 C   0  0  0  0  0  0  0  0  0  0  0  0
   -5.4620   15.3110   -1.9260 C   0  0  0  0  0  0  0  0  0  0  0  0
   -3.5170   15.5260   -5.1840 C   0  0  0  0  0  0  0  0  0  0  0  0
   -2.0820   17.4360   -6.1320 C   0  0  0  0  0  0  0  0  0  0  0  0
   -5.8310   14.5130   -0.6960 C   0  0  2  0  0  0  0  0  0  0  0  0
   -3.2600   16.4750   -6.3410 C   0  0  0  0  0  0  0  0  0  0  0  0
   -7.0540   15.0110   -0.1600 O   0  0  0  0  0  0  0  0  0  0  0  0
  1  2  1  0
  2  3  1  6
  1  4  1  0
  5  1  1  1
  4  6  1  0
  2  7  1  0
  5  8  1  0
  5  9  1  0
  6 10  1  1
  6 11  1  0
  7 12  1  1
  7 13  1  0
  8 14  1  0
  9 15  1  0
 14 15  1  0
  9 16  1  1
 14 17  1  0
 12 18  1  0
 13 19  1  0
 16 20  1  0
 15 21  1  6
 18 22  1  0
 19 22  1  0
 20 23  1  0
 21 23  1  0
 22 24  1  1
M  CHG  1  11  -1
M  END
