ucsf523-ucsf124
     RDKit          3D

 30 33  0  0  0  0  0  0  0  0999 V2000
    0.3200   15.0810    0.7170 N   0  0  0  0  0  0  0  0  0  0  0  0
   -0.6310   14.0610    0.9100 C   0  0  1  0  0  0  0  0  0  0  0  0
   -1.7500   14.7440    1.4490 N   0  0  0  0  0  0  0  0  0  0  0  0
   -0.9010   13.6210   -0.4210 N   0  0  0  0  0  0  0  0  0  0  0  0
   -1.5590   14.6450   -1.2160 C   0  0  1  0  0  0  0  0  0  0  0  0
   -2.9750   14.4170    0.7650 C   0  0  2  0  0  0  0  0  0  0  0  0
   -1.5480   14.3200   -2.5960 O   0  0  0  0  0  0  0  0  0  0  0  0
   -3.0180   14.9250   -0.6900 C   0  0  2  0  0  0  0  0  0  0  0  0
   -4.0690   14.9770    1.5050 N   0  0  0  0  0  0  0  0  0  0  0  0
   -0.4250   14.8550   -3.3280 C   0  0  0  0  0  0  0  0  0  0  0  0
   -5.2570   14.5160    0.8230 C   0  0  1  0  0  0  0  0  0  0  0  0
   -4.2320   14.5560   -1.4570 N   0  0  0  0  0  0  0  0  0  0  0  0
   -6.3230   14.9100    1.6770 O   0  0  0  0  0  0  0  0  0  0  0  0
    0.9030   14.5630   -2.6220 C   0  0  0  0  0  0  0  0  0  0  0  0
   -5.4090   15.0250   -0.6450 C   0  0  0  0  0  0  0  0  0  0  0  0
    0.8880   13.2310   -2.0810 O   0  0  0  0  0  0  0  0  0  0  0  0
    1.2640   12.2220   -3.0230 C   0  0  1  0  0  0  0  0  0  0  0  0
    0.7570   11.0780   -2.5550 O   0  0  0  0  0  0  0  0  0  0  0  0
    0.6100   12.4920   -4.4160 C   0  0  0  0  0  0  0  0  0  0  0  0
    0.3680   11.2390   -5.1940 N   0  0  0  0  0  0  0  0  0  0  0  0
   -1.0090   10.7540   -5.0950 C   0  0  1  0  0  0  0  0  0  0  0  0
    0.6950   11.4170   -6.6060 C   0  0  2  0  0  0  0  0  0  0  0  0
   -1.8580   11.7750   -4.5980 O   0  0  0  0  0  0  0  0  0  0  0  0
    0.5180   12.7790   -6.8280 O   0  0  0  0  0  0  0  0  0  0  0  0
   -1.4540   10.2860   -6.4810 C   0  0  1  0  0  0  0  0  0  0  0  0
   -0.2710   10.5460   -7.4240 C   0  0  2  0  0  0  0  0  0  0  0  0
   -2.0130    8.8650   -6.5300 C   0  0  0  0  0  0  0  0  0  0  0  0
    0.2820    9.2660   -8.0540 C   0  0  0  0  0  0  0  0  0  0  0  0
   -2.1340    8.3770   -7.9690 C   0  0  0  0  0  0  0  0  0  0  0  0
   -0.8280    8.4880   -8.7660 C   0  0  0  0  0  0  0  0  0  0  0  0
  2  1  1  6
  2  3  1  0
  2  4  1  0
  4  5  1  0
  6  3  1  1
  5  7  1  6
  5  8  1  0
  6  8  1  0
  6  9  1  0
  7 10  1  0
  9 11  1  0
  8 12  1  6
 11 13  1  1
 10 14  1  0
 11 15  1  0
 12 15  1  0
 14 16  1  0
 16 17  1  0
 17 18  1  1
 17 19  1  0
 19 20  1  0
 20 21  1  0
 20 22  1  0
 21 23  1  6
 22 24  1  6
 21 25  1  0
 22 26  1  0
 25 26  1  0
 25 27  1  1
 26 28  1  1
 27 29  1  0
 28 30  1  0
 29 30  1  0
M  CHG  1  18  -1
M  END
