ucsf004-ucsf115
     RDKit          3D

 23 26  0  0  0  0  0  0  0  0999 V2000
   -2.7610   11.7740   -4.8820 F   0  0  0  0  0  0  0  0  0  0  0  0
   -2.7060   13.1170   -4.6610 C   0  0  2  0  0  0  0  0  0  0  0  0
   -1.5520   13.6630   -5.5020 C   0  0  0  0  0  0  0  0  0  0  0  0
   -2.5950   13.3570   -3.1380 C   0  0  0  0  0  0  0  0  0  0  0  0
   -1.4050   14.1870   -2.8210 N   0  0  0  0  0  0  0  0  0  0  0  0
   -1.1650   15.0830   -5.0990 C   0  0  0  0  0  0  0  0  0  0  0  0
   -1.5960   15.3720   -3.6770 C   0  0  0  0  0  0  0  0  0  0  0  0
   -1.1640   14.6320   -1.4400 C   0  0  2  0  0  0  0  0  0  0  0  0
   -0.0390   15.4460   -1.7800 N   0  0  0  0  0  0  0  0  0  0  0  0
   -0.7180   13.5580   -0.5620 N   0  0  0  0  0  0  0  0  0  0  0  0
   -2.3790   15.3690   -0.7940 C   0  0  2  0  0  0  0  0  0  0  0  0
    0.7450   15.0100   -2.9620 C   0  0  0  0  0  0  0  0  0  0  0  0
   -0.4070   14.0170    0.7810 C   0  0  0  0  0  0  0  0  0  0  0  0
   -2.2070   15.5070    0.7200 C   0  0  2  0  0  0  0  0  0  0  0  0
   -3.8180   14.9140   -0.9350 C   0  0  0  0  0  0  0  0  0  0  0  0
   -1.6600   14.3710    1.3830 N   0  0  0  0  0  0  0  0  0  0  0  0
   -3.5280   15.7560    1.2840 N   0  0  0  0  0  0  0  0  0  0  0  0
   -4.5240   15.5970    0.2210 C   0  0  0  0  0  0  0  0  0  0  0  0
    0.8080   13.4920   -3.3370 C   0  0  2  0  0  0  0  0  0  0  0  0
   -0.4610   12.9550   -3.7630 O   0  0  0  0  0  0  0  0  0  0  0  0
    1.2270   12.5920   -2.1940 C   0  0  0  0  0  0  0  0  0  0  0  0
    0.3110   11.3800   -2.2700 C   0  0  0  0  0  0  0  0  0  0  0  0
   -0.3550   11.5420   -3.6040 C   0  0  0  0  0  0  0  0  0  0  0  0
  2  1  1  1
  2  3  1  0
  2  4  1  0
  4  5  1  0
  3  6  1  0
  5  7  1  0
  6  7  1  0
  8  5  1  0
  8  9  1  6
  8 10  1  0
  8 11  1  0
  9 12  1  0
 10 13  1  0
 11 14  1  0
 11 15  1  1
 13 16  1  0
 14 16  1  1
 14 17  1  0
 15 18  1  0
 17 18  1  0
 19 12  1  1
 19 20  1  0
 19 21  1  0
 21 22  1  0
 20 23  1  0
 22 23  1  0
M  END
