ucsf493-ucsf213
     RDKit          3D

 15 16  0  0  0  0  0  0  0  0999 V2000
   -4.3390   15.1390   -5.7340 C   0  0  0  0  0  0  0  0  0  0  0  0
   -3.5700   16.3290   -5.8170 O   0  0  0  0  0  0  0  0  0  0  0  0
   -2.4020   16.3440   -4.9850 C   0  0  1  0  0  0  0  0  0  0  0  0
   -1.7540   14.9410   -4.9210 C   0  0  0  0  0  0  0  0  0  0  0  0
   -1.5540   17.5130   -5.5500 C   0  0  0  0  0  0  0  0  0  0  0  0
   -0.2260   14.9130   -4.9860 C   0  0  1  0  0  0  0  0  0  0  0  0
   -0.0410   17.4360   -5.3920 C   0  0  0  0  0  0  0  0  0  0  0  0
    0.4270   16.2240   -4.6180 C   0  0  2  0  0  0  0  0  0  0  0  0
    0.5280   14.0320   -3.9650 C   0  0  1  0  0  0  0  0  0  0  0  0
    0.3440   12.4960   -4.0450 C   0  0  0  0  0  0  0  0  0  0  0  0
    1.8200   15.8700   -4.7960 N   0  0  0  0  0  0  0  0  0  0  0  0
    1.9650   14.5070   -4.2090 C   0  0  0  0  0  0  0  0  0  0  0  0
   -0.0750   11.7920   -2.7000 C   0  0  1  0  0  0  0  0  0  0  0  0
    0.5050   10.5000   -2.6330 O   0  0  0  0  0  0  0  0  0  0  0  0
    0.4610   12.3300   -1.6190 O   0  0  0  0  0  0  0  0  0  0  0  0
  1  2  1  0
  3  2  1  6
  3  4  1  0
  3  5  1  0
  6  4  1  1
  5  7  1  0
  6  8  1  0
  8  7  1  6
  6  9  1  0
  9 10  1  6
  8 11  1  0
  9 12  1  0
 11 12  1  0
 10 13  1  0
 13 14  1  6
 13 15  1  0
M  CHG  1  15  -1
M  END
