ucsf115-ucsf357
     RDKit          3D

 20 22  0  0  0  0  0  0  0  0999 V2000
   -1.7910   13.9760   -3.7650 C   0  0  0  0  0  0  0  0  0  0  0  0
   -1.5800   14.9140   -2.6590 N   0  0  0  0  0  0  0  0  0  0  0  0
   -1.8380   14.3020   -1.3320 C   0  0  1  0  0  0  0  0  0  0  0  0
   -0.6240   12.9910   -3.8510 C   0  0  2  0  0  0  0  0  0  0  0  0
   -1.0570   11.6630   -4.1940 O   0  0  0  0  0  0  0  0  0  0  0  0
    0.1040   12.8710   -2.5170 C   0  0  0  0  0  0  0  0  0  0  0  0
    0.6620   11.4930   -2.5890 C   0  0  0  0  0  0  0  0  0  0  0  0
   -0.3890   10.7280   -3.3500 C   0  0  0  0  0  0  0  0  0  0  0  0
   -0.8070   14.8070   -0.3440 N   0  0  0  0  0  0  0  0  0  0  0  0
   -3.2640   14.6040   -0.7190 C   0  0  1  0  0  0  0  0  0  0  0  0
   -4.5280   13.6390   -0.9390 C   0  0  2  0  0  0  0  0  0  0  0  0
    0.5480   14.6420   -0.8730 O   0  0  0  0  0  0  0  0  0  0  0  0
   -0.8620   14.1910    0.9890 C   0  0  0  0  0  0  0  0  0  0  0  0
   -3.0320   15.1040    0.6900 C   0  0  2  0  0  0  0  0  0  0  0  0
   -3.9450   15.8190   -1.1690 N   0  0  0  0  0  0  0  0  0  0  0  0
   -5.2150   14.0560   -2.0010 O   0  0  0  0  0  0  0  0  0  0  0  0
   -5.5290   13.8030    0.0610 O   0  0  0  0  0  0  0  0  0  0  0  0
   -2.2460   14.1960    1.5120 N   0  0  0  0  0  0  0  0  0  0  0  0
   -4.4080   15.1500    1.0970 N   0  0  0  0  0  0  0  0  0  0  0  0
   -4.9350   15.8490   -0.1040 C   0  0  0  0  0  0  0  0  0  0  0  0
  1  2  1  0
  3  2  1  6
  4  1  1  1
  4  5  1  0
  4  6  1  0
  6  7  1  0
  5  8  1  0
  7  8  1  0
  3  9  1  0
  3 10  1  0
 10 11  1  0
  9 12  1  0
  9 13  1  0
 10 14  1  0
 10 15  1  6
 11 16  1  6
 11 17  1  0
 13 18  1  0
 14 18  1  1
 14 19  1  0
 15 20  1  0
 19 20  1  0
M  CHG  1  16  -1
M  END
