ucsf442-ucsf243
     RDKit          3D

 15 16  0  0  0  0  0  0  0  0999 V2000
   -0.2170   13.8930    0.7700 O   0  0  0  0  0  0  0  0  0  0  0  0
   -1.2360   14.7670    0.2920 C   0  0  1  0  0  0  0  0  0  0  0  0
   -1.4610   14.6570   -1.2740 C   0  0  2  0  0  0  0  0  0  0  0  0
   -2.3880   14.5340    1.1380 N   0  0  0  0  0  0  0  0  0  0  0  0
   -1.9620   13.3520   -1.7410 O   0  0  0  0  0  0  0  0  0  0  0  0
   -0.1130   14.6460   -2.0840 C   0  0  1  0  0  0  0  0  0  0  0  0
   -3.4700   14.0610    0.3320 C   0  0  2  0  0  0  0  0  0  0  0  0
   -2.7110   15.5050   -1.5900 C   0  0  1  0  0  0  0  0  0  0  0  0
   -2.9080   15.5760   -3.0380 O   0  0  0  0  0  0  0  0  0  0  0  0
   -0.2470   15.3850   -3.2930 O   0  0  0  0  0  0  0  0  0  0  0  0
    0.8860   15.2330   -1.4930 O   0  0  0  0  0  0  0  0  0  0  0  0
   -3.9130   14.8180   -0.9130 C   0  0  2  0  0  0  0  0  0  0  0  0
   -4.6770   13.9930    1.1220 N   0  0  0  0  0  0  0  0  0  0  0  0
   -4.9960   15.7210   -0.4100 N   0  0  0  0  0  0  0  0  0  0  0  0
   -5.2660   15.2740    0.9520 C   0  0  0  0  0  0  0  0  0  0  0  0
  2  1  1  1
  2  3  1  0
  2  4  1  0
  3  5  1  1
  3  6  1  0
  7  4  1  1
  3  8  1  0
  8  9  1  6
  6 10  1  6
  6 11  1  0
  7 12  1  0
  8 12  1  0
  7 13  1  0
 12 14  1  1
 13 15  1  0
 14 15  1  0
M  CHG  1  11  -1
M  END
