ucsf224-ucsf278
     RDKit          3D

 19 20  0  0  0  0  0  0  0  0999 V2000
   -0.0340   18.5160   -5.7950 Cl  0  0  0  0  0  0  0  0  0  0  0  0
   -0.6520   17.2690   -4.7370 C   0  0  1  0  0  0  0  0  0  0  0  0
   -0.4560   15.9890   -5.2540 C   0  0  2  0  0  0  0  0  0  0  0  0
    0.2730   16.5450   -3.8190 C   0  0  0  0  0  0  0  0  0  0  0  0
   -2.1750   15.4000   -5.3730 Cl  0  0  0  0  0  0  0  0  0  0  0  0
    0.3900   15.1070   -4.5400 C   0  0  1  0  0  0  0  0  0  0  0  0
   -0.6570   15.3490   -3.3500 C   0  0  0  0  0  0  0  0  0  0  0  0
    0.6630   15.5590   -2.8310 Cl  0  0  0  0  0  0  0  0  0  0  0  0
   -0.2490   13.6160   -4.0070 S   0  0  0  0  0  0  0  0  0  0  0  0
    1.1740   12.4700   -3.4380 C   0  0  0  0  0  0  0  0  0  0  0  0
   -1.9240   12.7930   -4.1940 C   0  0  0  0  0  0  0  0  0  0  0  0
   -0.5260   12.8880   -5.6750 N   0  0  0  0  0  0  0  0  0  0  0  0
    0.6630   11.7830   -2.2610 C   0  0  1  0  0  0  0  0  0  0  0  0
   -0.8290   11.6130   -5.5850 C   0  0  1  0  0  0  0  0  0  0  0  0
   -1.4850   11.3730   -4.2880 C   0  0  0  0  0  0  0  0  0  0  0  0
    0.5890   10.3840   -2.2290 O   0  0  0  0  0  0  0  0  0  0  0  0
    0.5920   12.4460   -1.0820 O   0  0  0  0  0  0  0  0  0  0  0  0
   -1.3850   10.7970   -6.6880 C   0  0  0  0  0  0  0  0  0  0  0  0
   -2.4770   10.0390   -6.2010 O   0  0  0  0  0  0  0  0  0  0  0  0
  2  1  1  6
  2  3  1  0
  2  4  1  0
  3  5  1  1
  3  6  1  0
  4  7  1  0
  6  8  1  1
  6  9  1  0
  7  9  1  0
  9 10  1  0
  9 11  1  0
  9 12  1  0
 10 13  1  0
 12 14  1  0
 11 15  1  0
 14 15  1  0
 13 16  1  1
 13 17  1  0
 14 18  1  6
 18 19  1  0
M  CHG  1  16  -1
M  END
