ucsf338-ucsf380
     RDKit          3D

 21 22  0  0  0  0  0  0  0  0999 V2000
   -8.9040   14.3520   -0.2690 O   0  0  0  0  0  0  0  0  0  0  0  0
   -7.5990   14.5180    0.3820 N   0  0  0  0  0  0  0  0  0  0  0  0
   -6.6490   14.9920   -0.6560 C   0  0  2  0  0  0  0  0  0  0  0  0
   -7.0680   14.4350   -1.8790 O   0  0  0  0  0  0  0  0  0  0  0  0
   -5.2130   14.5950   -0.2440 C   0  0  1  0  0  0  0  0  0  0  0  0
   -4.0700   14.6580   -1.2940 C   0  0  1  0  0  0  0  0  0  0  0  0
   -4.7590   15.3580    1.0060 C   0  0  0  0  0  0  0  0  0  0  0  0
   -4.2590   15.6570   -2.2710 O   0  0  0  0  0  0  0  0  0  0  0  0
   -2.6080   14.3820   -0.7850 C   0  0  1  0  0  0  0  0  0  0  0  0
   -3.4210   14.8890    1.5280 C   0  0  0  0  0  0  0  0  0  0  0  0
   -1.3910   14.2010   -1.8030 C   0  0  1  0  0  0  0  0  0  0  0  0
   -2.3020   15.1180    0.5340 C   0  0  0  0  0  0  0  0  0  0  0  0
    0.0660   14.3540   -1.2100 C   0  0  2  0  0  0  0  0  0  0  0  0
   -1.4290   12.9740   -2.8320 C   0  0  0  0  0  0  0  0  0  0  0  0
    0.9050   14.9540   -2.0140 O   0  0  0  0  0  0  0  0  0  0  0  0
    0.7130   13.1010   -1.0170 O   0  0  0  0  0  0  0  0  0  0  0  0
   -2.6090   11.9840   -2.7200 C   0  0  0  0  0  0  0  0  0  0  0  0
   -1.0740   13.3370   -4.2990 C   0  0  0  0  0  0  0  0  0  0  0  0
   -3.0840   11.4880   -4.0880 C   0  0  0  0  0  0  0  0  0  0  0  0
   -0.8860   12.1380   -5.2250 C   0  0  0  0  0  0  0  0  0  0  0  0
   -1.9610   11.0750   -5.0340 C   0  0  0  0  0  0  0  0  0  0  0  0
  1  2  1  0
  2  3  1  0
  3  4  1  6
  3  5  1  0
  5  6  1  0
  5  7  1  1
  6  8  1  1
  6  9  1  0
  7 10  1  0
  9 11  1  0
  9 12  1  1
 10 12  1  0
 11 13  1  0
 11 14  1  1
 13 15  1  6
 13 16  1  0
 14 17  1  0
 14 18  1  0
 17 19  1  0
 18 20  1  0
 19 21  1  0
 20 21  1  0
M  CHG  1  15  -1
M  END
