ucsf258-ucsf340
     RDKit          3D

 22 24  0  0  0  0  0  0  0  0999 V2000
    0.4670   12.9870   -1.8240 O   0  0  0  0  0  0  0  0  0  0  0  0
   -0.3310   13.9120   -2.5530 C   0  0  2  0  0  0  0  0  0  0  0  0
    0.5140   15.0530   -2.8880 O   0  0  0  0  0  0  0  0  0  0  0  0
    0.5840   11.7110   -2.4940 C   0  0  0  0  0  0  0  0  0  0  0  0
    0.2190   10.7470   -1.6530 O   0  0  0  0  0  0  0  0  0  0  0  0
   -1.5710   14.2350   -1.6230 C   0  0  2  0  0  0  0  0  0  0  0  0
   -2.9120   14.2160   -2.4010 C   0  0  2  0  0  0  0  0  0  0  0  0
   -1.4400   15.3750   -0.6500 N   0  0  0  0  0  0  0  0  0  0  0  0
   -0.0310   16.2400   -3.4500 C   0  0  1  0  0  0  0  0  0  0  0  0
   -2.7390   14.3220   -3.8100 O   0  0  0  0  0  0  0  0  0  0  0  0
   -3.8050   15.3570   -1.9650 C   0  0  0  0  0  0  0  0  0  0  0  0
   -2.5710   15.3890    0.2780 C   0  0  0  0  0  0  0  0  0  0  0  0
    0.9370   16.8140   -4.5070 C   0  0  0  0  0  0  0  0  0  0  0  0
   -1.3480   16.1400   -4.2270 C   0  0  1  0  0  0  0  0  0  0  0  0
   -3.9210   15.4190   -0.4460 C   0  0  0  0  0  0  0  0  0  0  0  0
    0.1160   17.3220   -5.6160 N   0  0  0  0  0  0  0  0  0  0  0  0
   -1.2430   17.4170   -5.0610 C   0  0  1  0  0  0  0  0  0  0  0  0
   -1.5610   14.8640   -5.0810 C   0  0  0  0  0  0  0  0  0  0  0  0
    0.6360   18.5610   -6.1640 C   0  0  0  0  0  0  0  0  0  0  0  0
   -2.8750   14.9350   -5.8730 C   0  0  0  0  0  0  0  0  0  0  0  0
   -2.3360   17.4400   -6.0990 C   0  0  0  0  0  0  0  0  0  0  0  0
   -3.3820   16.3470   -5.7970 C   0  0  0  0  0  0  0  0  0  0  0  0
  2  1  1  1
  2  3  1  0
  1  4  1  0
  4  5  1  0
  2  6  1  0
  6  7  1  0
  6  8  1  6
  9  3  1  6
  7 10  1  6
  7 11  1  0
  8 12  1  0
  9 13  1  0
  9 14  1  0
 11 15  1  0
 12 15  1  0
 13 16  1  0
 14 17  1  0
 16 17  1  0
 14 18  1  6
 16 19  1  0
 18 20  1  0
 17 21  1  6
 20 22  1  0
 21 22  1  0
M  CHG  1   5  -1
M  END
