ucsf380-ucsf516
     RDKit          3D

 30 34  0  0  0  0  0  0  0  0999 V2000
    0.6750   13.2120   -1.7710 O   0  0  0  0  0  0  0  0  0  0  0  0
   -0.3910   12.4520   -1.7580 C   0  0  1  0  0  0  0  0  0  0  0  0
   -0.6230   12.5990   -0.4070 O   0  0  0  0  0  0  0  0  0  0  0  0
   -1.5790   13.0060   -2.6650 C   0  0  2  0  0  0  0  0  0  0  0  0
   -2.7780   13.8290   -1.9230 C   0  0  2  0  0  0  0  0  0  0  0  0
   -1.9440   11.9550   -3.7300 C   0  0  0  0  0  0  0  0  0  0  0  0
   -2.2330   14.7930   -0.8500 C   0  0  1  0  0  0  0  0  0  0  0  0
   -4.2000   13.3560   -1.6130 C   0  0  0  0  0  0  0  0  0  0  0  0
   -3.3320   11.3180   -3.6550 C   0  0  0  0  0  0  0  0  0  0  0  0
   -1.6220   12.4190   -5.1440 C   0  0  0  0  0  0  0  0  0  0  0  0
   -3.2570   15.9420   -0.6030 C   0  0  0  0  0  0  0  0  0  0  0  0
   -5.1570   14.5600   -1.5120 C   0  0  0  0  0  0  0  0  0  0  0  0
   -3.3700   10.0880   -4.5540 C   0  0  0  0  0  0  0  0  0  0  0  0
   -1.6010   11.2160   -6.0610 C   0  0  0  0  0  0  0  0  0  0  0  0
   -2.1720   14.1160    0.5750 C   0  0  0  0  0  0  0  0  0  0  0  0
   -0.7690   15.2310   -1.3180 C   0  0  1  0  0  0  0  0  0  0  0  0
   -4.7230   15.5810   -0.4780 C   0  0  0  0  0  0  0  0  0  0  0  0
   -2.8860   10.3820   -5.9770 C   0  0  0  0  0  0  0  0  0  0  0  0
   -0.4450   15.8690   -2.6360 N   0  0  0  0  0  0  0  0  0  0  0  0
   -0.1160   15.8770   -0.2490 N   0  0  0  0  0  0  0  0  0  0  0  0
   -1.3440   14.8790    1.4900 N   0  0  0  0  0  0  0  0  0  0  0  0
    0.5760   15.2330   -3.5580 C   0  0  1  0  0  0  0  0  0  0  0  0
   -1.6810   16.0490   -3.4590 C   0  0  0  0  0  0  0  0  0  0  0  0
   -0.0460   15.0040    0.8680 C   0  0  0  0  0  0  0  0  0  0  0  0
    0.8430   13.6980   -3.5670 C   0  0  0  0  0  0  0  0  0  0  0  0
    0.0850   15.5560   -4.9650 C   0  0  0  0  0  0  0  0  0  0  0  0
   -1.4180   15.4580   -4.8290 C   0  0  0  0  0  0  0  0  0  0  0  0
    1.6400   13.0470   -4.7340 C   0  0  0  0  0  0  0  0  0  0  0  0
    1.8260   12.8670   -2.6710 C   0  0  0  0  0  0  0  0  0  0  0  0
    1.8150   11.8320   -3.8080 C   0  0  0  0  0  0  0  0  0  0  0  0
  2  1  1  6
  2  3  1  0
  2  4  1  0
  4  5  1  0
  4  6  1  1
  5  7  1  0
  5  8  1  1
  6  9  1  0
  6 10  1  0
  7 11  1  1
  8 12  1  0
  9 13  1  0
 10 14  1  0
  7 15  1  0
  7 16  1  0
 11 17  1  0
 12 17  1  0
 13 18  1  0
 14 18  1  0
 16 19  1  6
 16 20  1  0
 15 21  1  0
 19 22  1  0
 19 23  1  0
 20 24  1  0
 21 24  1  0
 22 25  1  6
 22 26  1  0
 23 27  1  0
 26 27  1  0
 25 28  1  0
 25 29  1  0
 28 30  1  0
 29 30  1  0
M  CHG  1   1  -1
M  END
