ucsf190-ucsf337
     RDKit          3D

 26 28  0  0  0  0  0  0  0  0999 V2000
    0.5430   10.5250   -2.3830 O   0  0  0  0  0  0  0  0  0  0  0  0
    0.4100   11.8120   -2.7100 C   0  0  1  0  0  0  0  0  0  0  0  0
    0.7890   12.4390   -1.5040 O   0  0  0  0  0  0  0  0  0  0  0  0
    1.3920   12.2200   -3.8640 C   0  0  0  0  0  0  0  0  0  0  0  0
    1.3550   13.6450   -4.4650 C   0  0  1  0  0  0  0  0  0  0  0  0
    0.0330   14.1360   -5.0960 C   0  0  2  0  0  0  0  0  0  0  0  0
    1.9290   14.6850   -3.5810 N   0  0  0  0  0  0  0  0  0  0  0  0
   -0.5720   15.3500   -4.3490 C   0  0  1  0  0  0  0  0  0  0  0  0
    1.8030   15.9750   -4.2770 N   0  0  0  0  0  0  0  0  0  0  0  0
   -0.9770   13.0040   -5.3360 C   0  0  0  0  0  0  0  0  0  0  0  0
    0.4590   16.4900   -4.1890 C   0  0  1  0  0  0  0  0  0  0  0  0
   -1.8550   15.8540   -5.0250 C   0  0  0  0  0  0  0  0  0  0  0  0
   -2.3800   13.3890   -4.8900 C   0  0  0  0  0  0  0  0  0  0  0  0
    0.3180   17.5070   -5.1550 O   0  0  0  0  0  0  0  0  0  0  0  0
   -2.8140   14.7330   -5.4760 C   0  0  1  0  0  0  0  0  0  0  0  0
   -4.2160   15.1820   -5.0900 C   0  0  0  0  0  0  0  0  0  0  0  0
   -5.2540   14.1190   -4.7420 C   0  0  0  0  0  0  0  0  0  0  0  0
   -6.2180   14.6320   -3.7570 N   0  0  0  0  0  0  0  0  0  0  0  0
   -5.7320   15.0450   -2.4630 C   0  0  2  0  0  0  0  0  0  0  0  0
   -4.2160   15.0370   -2.2250 C   0  0  0  0  0  0  0  0  0  0  0  0
   -6.4830   14.2830   -1.4990 N   0  0  0  0  0  0  0  0  0  0  0  0
   -6.2830   14.8980   -0.1960 C   0  0  1  0  0  0  0  0  0  0  0  0
   -3.8190   15.2230   -0.7670 C   0  0  0  0  0  0  0  0  0  0  0  0
   -7.3690   14.4450    0.7970 C   0  0  0  0  0  0  0  0  0  0  0  0
   -4.8230   14.7210    0.2400 C   0  0  1  0  0  0  0  0  0  0  0  0
   -4.3620   15.6620    1.8430 Br  0  0  0  0  0  0  0  0  0  0  0  0
  2  1  1  1
  2  3  1  0
  2  4  1  0
  5  4  1  1
  5  6  1  0
  5  7  1  0
  6  8  1  0
  7  9  1  0
  6 10  1  1
  8 11  1  0
  9 11  1  0
  8 12  1  6
 10 13  1  0
 11 14  1  6
 12 15  1  0
 13 15  1  0
 15 16  1  1
 16 17  1  0
 17 18  1  0
 19 18  1  6
 19 20  1  0
 19 21  1  0
 21 22  1  0
 20 23  1  0
 22 24  1  1
 22 25  1  0
 23 25  1  0
 25 26  1  1
M  CHG  1   1  -1
M  END
