ucsf364-ucsf005
     RDKit          3D

 22 24  0  0  0  0  0  0  0  0999 V2000
    1.4970   13.8070   -4.7940 C   0  0  0  0  0  0  0  0  0  0  0  0
    0.9860   12.3740   -4.6500 C   0  0  2  0  0  0  0  0  0  0  0  0
    0.7120   11.7220   -6.0240 C   0  0  2  0  0  0  0  0  0  0  0  0
   -0.2360   12.1380   -3.6960 C   0  0  1  0  0  0  0  0  0  0  0  0
    1.8260   11.8700   -6.9040 O   0  0  0  0  0  0  0  0  0  0  0  0
   -0.3400   13.1340   -2.4910 C   0  0  2  0  0  0  0  0  0  0  0  0
   -1.6240   12.0550   -4.4030 C   0  0  0  0  0  0  0  0  0  0  0  0
   -0.5700   12.1470   -6.6630 C   0  0  0  0  0  0  0  0  0  0  0  0
   -0.7410   14.4120   -3.0820 O   0  0  0  0  0  0  0  0  0  0  0  0
    0.8880   13.2310   -1.9900 O   0  0  0  0  0  0  0  0  0  0  0  0
   -1.6670   11.5300   -5.8430 C   0  0  0  0  0  0  0  0  0  0  0  0
   -1.7110   15.2490   -2.3070 N   0  0  0  0  0  0  0  0  0  0  0  0
   -3.1010   15.0010   -2.7510 C   0  0  0  0  0  0  0  0  0  0  0  0
   -1.8180   14.7880   -0.9480 C   0  0  2  0  0  0  0  0  0  0  0  0
   -4.0050   15.0710   -1.5540 N   0  0  0  0  0  0  0  0  0  0  0  0
   -3.0480   15.5040   -0.5070 C   0  0  1  0  0  0  0  0  0  0  0  0
   -0.7100   14.9930   -0.0990 N   0  0  0  0  0  0  0  0  0  0  0  0
   -3.2870   15.2210    0.9930 C   0  0  1  0  0  0  0  0  0  0  0  0
   -1.0050   14.1750    0.9930 C   0  0  1  0  0  0  0  0  0  0  0  0
   -4.5060   14.4490    1.2110 N   0  0  0  0  0  0  0  0  0  0  0  0
    0.0500   14.3930    1.8910 N   0  0  0  0  0  0  0  0  0  0  0  0
   -2.2190   14.5180    1.7020 N   0  0  0  0  0  0  0  0  0  0  0  0
  2  1  1  6
  2  3  1  0
  2  4  1  0
  3  5  1  6
  4  6  1  0
  4  7  1  6
  3  8  1  0
  6  9  1  0
  6 10  1  6
  7 11  1  0
  8 11  1  0
  9 12  1  0
 12 13  1  0
 12 14  1  0
 13 15  1  0
 14 16  1  0
 16 15  1  6
 14 17  1  1
 16 18  1  0
 17 19  1  0
 18 20  1  6
 19 21  1  1
 18 22  1  0
 19 22  1  0
M  CHG  1  10  -1
M  END
