ucsf403-ucsf138
     RDKit          3D

 21 23  0  0  0  0  0  0  0  0999 V2000
    0.8040    9.8100   -7.4400 N   0  0  0  0  0  0  0  0  0  0  0  0
    1.1340   11.1600   -6.9620 C   0  0  2  0  0  0  0  0  0  0  0  0
    2.4330   11.3740   -6.5730 O   0  0  0  0  0  0  0  0  0  0  0  0
   -0.6550    9.8210   -7.2030 C   0  0  2  0  0  0  0  0  0  0  0  0
    1.1020    9.5650   -8.8490 C   0  0  0  0  0  0  0  0  0  0  0  0
    0.2860   11.2930   -5.8320 N   0  0  0  0  0  0  0  0  0  0  0  0
   -0.8540   11.2760   -6.7120 C   0  0  2  0  0  0  0  0  0  0  0  0
   -1.1050    8.7220   -6.2240 C   0  0  0  0  0  0  0  0  0  0  0  0
   -0.0830    9.9820   -9.6950 C   0  0  0  0  0  0  0  0  0  0  0  0
    1.6720    8.2370   -9.3960 C   0  0  0  0  0  0  0  0  0  0  0  0
    0.5780   12.4550   -4.9510 C   0  0  0  0  0  0  0  0  0  0  0  0
   -2.2760   11.5590   -6.2560 C   0  0  2  0  0  0  0  0  0  0  0  0
   -2.1960    9.1830   -5.2690 C   0  0  0  0  0  0  0  0  0  0  0  0
    0.3000   10.3270  -11.1070 C   0  0  0  0  0  0  0  0  0  0  0  0
    1.3230    7.9860  -10.8650 C   0  0  0  0  0  0  0  0  0  0  0  0
   -2.4450   12.9940   -5.2040 Cl  0  0  0  0  0  0  0  0  0  0  0  0
    1.1420   12.1840   -3.5000 C   0  0  1  0  0  0  0  0  0  0  0  0
   -3.0610   10.3240   -5.8290 C   0  0  0  0  0  0  0  0  0  0  0  0
    1.2430    9.2780  -11.6870 C   0  0  0  0  0  0  0  0  0  0  0  0
    0.6630   12.9800   -2.5790 O   0  0  0  0  0  0  0  0  0  0  0  0
    0.7300   10.9230   -3.0040 O   0  0  0  0  0  0  0  0  0  0  0  0
  1  2  1  0
  2  3  1  1
  1  4  1  0
  1  5  1  0
  2  6  1  0
  4  7  1  0
  7  6  1  1
  4  8  1  1
  5  9  1  0
  5 10  1  0
  6 11  1  0
  7 12  1  0
  8 13  1  0
  9 14  1  0
 10 15  1  0
 12 16  1  1
 11 17  1  0
 12 18  1  0
 13 18  1  0
 14 19  1  0
 15 19  1  0
 17 20  1  1
 17 21  1  0
M  CHG  1  20  -1
M  END
