ucsf584-ucsf262
     RDKit          3D

 26 29  0  0  0  0  0  0  0  0999 V2000
   -2.9910   16.1730   -4.8470 C   0  0  0  0  0  0  0  0  0  0  0  0
   -3.0820   14.6660   -4.8310 C   0  0  0  0  0  0  0  0  0  0  0  0
   -4.3430   14.2170   -4.1120 C   0  0  0  0  0  0  0  0  0  0  0  0
   -1.6300   16.7570   -5.2090 C   0  0  2  0  0  0  0  0  0  0  0  0
   -0.4000   16.3000   -4.4260 C   0  0  1  0  0  0  0  0  0  0  0  0
   -1.6010   18.2700   -5.3850 C   0  0  0  0  0  0  0  0  0  0  0  0
   -4.2950   14.2490   -2.5740 C   0  0  1  0  0  0  0  0  0  0  0  0
   -0.2150   14.8260   -4.0960 C   0  0  0  0  0  0  0  0  0  0  0  0
    0.8480   16.5900   -5.1780 C   0  0  2  0  0  0  0  0  0  0  0  0
   -0.3260   18.6290   -6.1490 C   0  0  0  0  0  0  0  0  0  0  0  0
   -3.1100   14.9590   -2.0670 N   0  0  0  0  0  0  0  0  0  0  0  0
   -5.5320   14.8430   -1.9260 C   0  0  0  0  0  0  0  0  0  0  0  0
    1.3060   14.7210   -3.8600 C   0  0  1  0  0  0  0  0  0  0  0  0
    1.8340   16.0520   -4.2680 N   0  0  0  0  0  0  0  0  0  0  0  0
    0.9570   18.0870   -5.5020 C   0  0  0  0  0  0  0  0  0  0  0  0
    1.7770   14.3940   -2.4090 C   0  0  2  0  0  0  0  0  0  0  0  0
   -2.9770   14.7060   -0.6250 C   0  0  0  0  0  0  0  0  0  0  0  0
   -5.4670   14.4430   -0.4550 C   0  0  2  0  0  0  0  0  0  0  0  0
    3.0970   14.3900   -2.3230 O   0  0  0  0  0  0  0  0  0  0  0  0
    1.4300   13.0460   -2.1110 O   0  0  0  0  0  0  0  0  0  0  0  0
   -6.7840   14.7630    0.2490 C   0  0  0  0  0  0  0  0  0  0  0  0
   -4.2270   15.1200    0.1570 C   0  0  0  0  0  0  0  0  0  0  0  0
   -6.6360   14.7500    1.6980 N   0  0  0  0  0  0  0  0  0  0  0  0
   -7.8370   13.7950    0.0590 N   0  0  0  0  0  0  0  0  0  0  0  0
   -8.8240   14.2330    1.0500 C   0  0  0  0  0  0  0  0  0  0  0  0
   -7.9890   14.6620    2.2420 C   0  0  0  0  0  0  0  0  0  0  0  0
  1  2  1  0
  2  3  1  0
  4  1  1  1
  4  5  1  0
  4  6  1  0
  7  3  1  6
  5  8  1  6
  5  9  1  0
  6 10  1  0
  7 11  1  0
  7 12  1  0
 13  8  1  1
  9 14  1  0
 13 14  1  0
  9 15  1  1
 10 15  1  0
 13 16  1  0
 11 17  1  0
 12 18  1  0
 16 19  1  6
 16 20  1  0
 18 21  1  1
 17 22  1  0
 18 22  1  0
 21 23  1  0
 21 24  1  0
 24 25  1  0
 23 26  1  0
 25 26  1  0
M  CHG  1  19  -1
M  END
