ucsf110-ucsf012
     RDKit          3D

 18 20  0  0  0  0  0  0  0  0999 V2000
   -0.2830   14.5660   -3.3310 C   0  0  0  0  0  0  0  0  0  0  0  0
   -1.4410   14.7680   -2.4620 N   0  0  0  0  0  0  0  0  0  0  0  0
   -2.8080   14.4400   -2.9140 C   0  0  2  0  0  0  0  0  0  0  0  0
    0.1270   13.1240   -3.7650 C   0  0  1  0  0  0  0  0  0  0  0  0
   -1.3580   14.3380   -1.0950 C   0  0  2  0  0  0  0  0  0  0  0  0
    0.7390   12.3020   -2.6210 C   0  0  0  0  0  0  0  0  0  0  0  0
   -0.9730   12.3460   -4.2590 O   0  0  0  0  0  0  0  0  0  0  0  0
   -3.4380   15.2360   -4.0530 C   0  0  0  0  0  0  0  0  0  0  0  0
   -3.6930   14.3050   -1.6160 C   0  0  1  0  0  0  0  0  0  0  0  0
   -2.7160   14.7860   -0.5710 C   0  0  1  0  0  0  0  0  0  0  0  0
   -0.2500   14.9040   -0.3680 N   0  0  0  0  0  0  0  0  0  0  0  0
   -0.6270   10.9800   -4.0440 C   0  0  0  0  0  0  0  0  0  0  0  0
    0.0440   10.9550   -2.6930 C   0  0  0  0  0  0  0  0  0  0  0  0
   -4.9850   15.1320   -1.5930 C   0  0  0  0  0  0  0  0  0  0  0  0
   -2.7620   14.4780    0.9090 C   0  0  2  0  0  0  0  0  0  0  0  0
   -0.3100   14.5640    1.0290 C   0  0  0  0  0  0  0  0  0  0  0  0
   -3.8550   15.1670    1.5470 N   0  0  0  0  0  0  0  0  0  0  0  0
   -1.5790   14.9680    1.5900 N   0  0  0  0  0  0  0  0  0  0  0  0
  1  2  1  0
  2  3  1  0
  4  1  1  1
  2  5  1  0
  4  6  1  0
  4  7  1  0
  3  8  1  6
  3  9  1  0
  5 10  1  0
  9 10  1  0
  5 11  1  1
  7 12  1  0
  6 13  1  0
 12 13  1  0
  9 14  1  6
 10 15  1  1
 11 16  1  0
 15 17  1  1
 15 18  1  0
 16 18  1  0
M  END
