ucsf243-ucsf519
     RDKit          3D

 18 18  0  0  0  0  0  0  0  0999 V2000
   -3.8740   15.1990    1.1840 C   0  0  0  0  0  0  0  0  0  0  0  0
   -3.3610   15.5140   -0.2190 C   0  0  2  0  0  0  0  0  0  0  0  0
   -4.4480   15.3530   -1.2860 C   0  0  0  0  0  0  0  0  0  0  0  0
   -2.1390   14.6950   -0.6160 C   0  0  0  0  0  0  0  0  0  0  0  0
   -1.4870   15.4020   -1.8200 C   0  0  1  0  0  0  0  0  0  0  0  0
   -3.9000   14.9510   -2.6650 C   0  0  0  0  0  0  0  0  0  0  0  0
   -0.0330   14.9110   -2.2340 C   0  0  2  0  0  0  0  0  0  0  0  0
   -2.5130   15.5110   -2.9980 C   0  0  2  0  0  0  0  0  0  0  0  0
   -2.0660   14.8170   -4.1720 O   0  0  0  0  0  0  0  0  0  0  0  0
    0.1840   14.6280   -3.6880 N   0  0  0  0  0  0  0  0  0  0  0  0
    0.2880   13.8700   -1.4740 O   0  0  0  0  0  0  0  0  0  0  0  0
    0.3200   15.8390   -4.5050 C   0  0  0  0  0  0  0  0  0  0  0  0
   -0.4860   13.2720   -4.4330 S   0  0  0  0  0  0  0  0  0  0  0  0
   -3.2620   14.7430   -5.0000 O   0  0  0  0  0  0  0  0  0  0  0  0
    0.8030   12.0220   -4.0580 C   0  0  0  0  0  0  0  0  0  0  0  0
    0.9020   11.6060   -2.5440 C   0  0  1  0  0  0  0  0  0  0  0  0
    0.0240   12.2440   -1.6480 O   0  0  0  0  0  0  0  0  0  0  0  0
    0.5010   10.3400   -2.3860 O   0  0  0  0  0  0  0  0  0  0  0  0
  2  1  1  1
  2  3  1  0
  2  4  1  0
  5  4  1  1
  3  6  1  0
  5  7  1  0
  5  8  1  0
  6  8  1  0
  8  9  1  6
  7 10  1  0
  7 11  1  1
 10 12  1  0
 10 13  1  0
  9 14  1  0
 13 15  1  0
 15 16  1  0
 16 17  1  1
 16 18  1  0
M  CHG  2  11  -1  18  -1
M  END
