ucsf241-ucsf396
     RDKit          3D

 18 20  0  0  0  0  0  0  0  0999 V2000
   -3.8320   12.8160   -1.0560 N   0  0  0  0  0  0  0  0  0  0  0  0
   -3.7220   13.9220   -0.1000 C   0  0  2  0  0  0  0  0  0  0  0  0
   -2.7950   13.5430    0.9490 O   0  0  0  0  0  0  0  0  0  0  0  0
   -5.1260   14.2770    0.4760 C   0  0  1  0  0  0  0  0  0  0  0  0
   -1.8310   14.6010    1.3270 N   0  0  0  0  0  0  0  0  0  0  0  0
   -6.1360   14.7170   -0.6300 C   0  0  0  0  0  0  0  0  0  0  0  0
   -5.7180   13.1250    1.2990 C   0  0  0  0  0  0  0  0  0  0  0  0
   -1.9540   15.7580    0.4760 C   0  0  1  0  0  0  0  0  0  0  0  0
   -0.4560   14.0750    1.3080 C   0  0  0  0  0  0  0  0  0  0  0  0
   -7.4470   14.0890   -0.4830 N   0  0  0  0  0  0  0  0  0  0  0  0
   -7.0300   13.5550    1.9400 C   0  0  0  0  0  0  0  0  0  0  0  0
   -1.6320   15.5260   -1.0050 C   0  0  2  0  0  0  0  0  0  0  0  0
   -3.3290   16.2420    0.5490 N   0  0  0  0  0  0  0  0  0  0  0  0
    0.1040   14.0050   -0.1180 C   0  0  0  0  0  0  0  0  0  0  0  0
   -7.9680   14.1440    0.8830 C   0  0  0  0  0  0  0  0  0  0  0  0
   -4.0130   15.7590   -0.6560 C   0  0  0  0  0  0  0  0  0  0  0  0
   -2.9610   15.5980   -1.7400 C   0  0  0  0  0  0  0  0  0  0  0  0
   -0.9370   14.1890   -1.2010 C   0  0  0  0  0  0  0  0  0  0  0  0
  2  1  1  6
  2  3  1  0
  2  4  1  0
  3  5  1  0
  4  6  1  6
  4  7  1  0
  5  8  1  0
  5  9  1  0
  6 10  1  0
  7 11  1  0
  8 12  1  0
  8 13  1  6
  9 14  1  0
 10 15  1  0
 11 15  1  0
 13 16  1  0
 12 17  1  6
 16 17  1  0
 12 18  1  0
 14 18  1  0
M  END
