ucsf516-ucsf338
     RDKit          3D

 23 26  0  0  0  0  0  0  0  0999 V2000
   -8.4740   14.2700    0.4800 O   0  0  0  0  0  0  0  0  0  0  0  0
   -7.1080   14.6490    0.8730 N   0  0  0  0  0  0  0  0  0  0  0  0
   -6.2500   14.2190   -0.2370 C   0  0  1  0  0  0  0  0  0  0  0  0
   -6.6870   14.9490   -1.3840 O   0  0  0  0  0  0  0  0  0  0  0  0
   -4.6800   14.3510   -0.0260 C   0  0  2  0  0  0  0  0  0  0  0  0
   -4.1510   15.1910    1.0940 N   0  0  0  0  0  0  0  0  0  0  0  0
   -3.9770   14.8940   -1.2820 C   0  0  1  0  0  0  0  0  0  0  0  0
   -4.8120   15.6790   -2.1080 O   0  0  0  0  0  0  0  0  0  0  0  0
   -2.7610   15.5460    0.7100 C   0  0  2  0  0  0  0  0  0  0  0  0
   -2.7190   15.6150   -0.8170 C   0  0  1  0  0  0  0  0  0  0  0  0
   -1.8220   14.5970    1.2790 N   0  0  0  0  0  0  0  0  0  0  0  0
   -1.4070   15.0770   -1.3980 C   0  0  1  0  0  0  0  0  0  0  0  0
   -1.0710   15.3130   -2.7940 N   0  0  0  0  0  0  0  0  0  0  0  0
   -0.2980   15.3470   -0.5140 N   0  0  0  0  0  0  0  0  0  0  0  0
   -0.4450   14.6470    0.7520 C   0  0  0  0  0  0  0  0  0  0  0  0
   -0.4380   14.2320   -3.5800 C   0  0  2  0  0  0  0  0  0  0  0  0
   -2.2550   15.6550   -3.5910 C   0  0  0  0  0  0  0  0  0  0  0  0
    0.9020   13.6210   -3.2130 C   0  0  0  0  0  0  0  0  0  0  0  0
   -0.4900   14.8260   -4.9670 C   0  0  0  0  0  0  0  0  0  0  0  0
   -1.9490   15.1970   -5.0160 C   0  0  0  0  0  0  0  0  0  0  0  0
    1.5480   12.5150   -4.1010 C   0  0  0  0  0  0  0  0  0  0  0  0
    0.8440   12.4470   -2.2170 C   0  0  0  0  0  0  0  0  0  0  0  0
    0.4520   11.6340   -3.4480 C   0  0  0  0  0  0  0  0  0  0  0  0
  1  2  1  0
  2  3  1  0
  3  4  1  6
  3  5  1  0
  5  6  1  1
  5  7  1  0
  7  8  1  1
  9  6  1  6
  7 10  1  0
  9 10  1  0
  9 11  1  0
 10 12  1  6
 12 13  1  6
 12 14  1  0
 11 15  1  0
 14 15  1  0
 13 16  1  0
 13 17  1  0
 16 18  1  1
 16 19  1  0
 17 20  1  0
 19 20  1  0
 18 21  1  0
 18 22  1  0
 21 23  1  0
 22 23  1  0
M  END
