ucsf028-ucsf135
     RDKit          3D

 28 32  0  0  0  0  0  0  0  0999 V2000
   -4.4240   14.7810    1.1690 N   0  0  0  0  0  0  0  0  0  0  0  0
   -3.6290   15.5250    0.2150 C   0  0  1  0  0  0  0  0  0  0  0  0
   -2.1020   15.3920    0.3880 C   0  0  2  0  0  0  0  0  0  0  0  0
   -4.1750   15.1420   -1.0870 N   0  0  0  0  0  0  0  0  0  0  0  0
   -3.3480   15.3220   -2.2840 C   0  0  0  0  0  0  0  0  0  0  0  0
   -1.5210   14.7910   -0.8390 C   0  0  1  0  0  0  0  0  0  0  0  0
   -1.4610   14.6200    1.4620 N   0  0  0  0  0  0  0  0  0  0  0  0
   -1.9360   15.5040   -2.0170 N   0  0  0  0  0  0  0  0  0  0  0  0
   -0.1300   14.9940   -0.4830 N   0  0  0  0  0  0  0  0  0  0  0  0
   -0.0960   14.5430    0.9190 C   0  0  0  0  0  0  0  0  0  0  0  0
   -1.0450   15.4920   -3.1840 C   0  0  0  0  0  0  0  0  0  0  0  0
   -0.7580   14.1110   -3.7810 C   0  0  2  0  0  0  0  0  0  0  0  0
   -1.9060   13.4410   -4.5540 C   0  0  0  0  0  0  0  0  0  0  0  0
   -0.4250   13.1740   -2.7310 O   0  0  0  0  0  0  0  0  0  0  0  0
   -0.9220   11.8650   -3.1590 N   0  0  0  0  0  0  0  0  0  0  0  0
   -1.2480   12.1010   -4.5720 C   0  0  1  0  0  0  0  0  0  0  0  0
   -1.4590   10.8710   -5.5450 C   0  0  2  0  0  0  0  0  0  0  0  0
   -0.2660   10.0860   -4.5840 S   0  0  2  0  0  0  0  0  0  0  0  0
   -0.5840   10.8910   -6.8640 C   0  0  1  0  0  0  0  0  0  0  0  0
   -2.7910   10.1130   -5.6660 C   0  0  0  0  0  0  0  0  0  0  0  0
   -0.8690   10.2720   -3.1140 O   0  0  0  0  0  0  0  0  0  0  0  0
    0.5900   11.8060   -6.3870 C   0  0  1  0  0  0  0  0  0  0  0  0
    0.7470   11.4490   -4.9560 N   0  0  0  0  0  0  0  0  0  0  0  0
   -2.6170    8.7660   -6.4380 C   0  0  0  0  0  0  0  0  0  0  0  0
   -0.2910    9.4780   -7.3800 C   0  0  0  0  0  0  0  0  0  0  0  0
   -1.3000   11.6070   -8.0360 C   0  0  0  0  0  0  0  0  0  0  0  0
    1.7910   11.6060   -7.0590 O   0  0  0  0  0  0  0  0  0  0  0  0
   -1.6150    8.7360   -7.6150 C   0  0  0  0  0  0  0  0  0  0  0  0
  2  1  1  1
  2  3  1  0
  2  4  1  0
  4  5  1  0
  3  6  1  0
  3  7  1  1
  5  8  1  0
  6  8  1  0
  6  9  1  1
  7 10  1  0
  9 10  1  0
  8 11  1  0
 12 11  1  1
 12 13  1  0
 12 14  1  0
 14 15  1  0
 16 13  1  1
 15 16  1  0
 16 17  1  0
 17 18  1  0
 17 19  1  0
 17 20  1  6
 18 21  1  1
 19 22  1  0
 18 23  1  0
 22 23  1  0
 20 24  1  0
 19 25  1  0
 19 26  1  6
 22 27  1  6
 24 28  1  0
 25 28  1  0
M  END
