ucsf147-ucsf392
     RDKit          3D

 23 25  0  0  0  0  0  0  0  0999 V2000
    1.3880   13.1580   -5.4770 C   0  0  0  0  0  0  0  0  0  0  0  0
   -0.0140   12.8970   -4.9550 C   0  0  2  0  0  0  0  0  0  0  0  0
   -0.9890   13.4140   -5.8770 O   0  0  0  0  0  0  0  0  0  0  0  0
   -0.3880   13.4110   -3.5570 C   0  0  1  0  0  0  0  0  0  0  0  0
    0.8170   13.9120   -2.6930 C   0  0  2  0  0  0  0  0  0  0  0  0
   -2.1480   13.8180   -5.0810 N   0  0  0  0  0  0  0  0  0  0  0  0
   -1.5350   14.4020   -3.8680 C   0  0  1  0  0  0  0  0  0  0  0  0
    0.8980   13.0740   -1.5530 O   0  0  0  0  0  0  0  0  0  0  0  0
    0.6700   15.1000   -2.1490 O   0  0  0  0  0  0  0  0  0  0  0  0
   -2.6300   14.5590   -2.7670 C   0  0  2  0  0  0  0  0  0  0  0  0
   -2.6960   13.3140   -1.8470 C   0  0  0  0  0  0  0  0  0  0  0  0
   -3.9980   14.8950   -3.3980 C   0  0  0  0  0  0  0  0  0  0  0  0
   -3.9790   13.2330   -1.0270 C   0  0  0  0  0  0  0  0  0  0  0  0
   -5.1240   15.0620   -2.3740 C   0  0  0  0  0  0  0  0  0  0  0  0
   -4.7520   14.5580   -0.9780 C   0  0  2  0  0  0  0  0  0  0  0  0
   -3.9360   15.5590   -0.1770 C   0  0  1  0  0  0  0  0  0  0  0  0
   -3.6140   14.9890    1.2110 C   0  0  2  0  0  0  0  0  0  0  0  0
   -2.6320   15.8530   -0.9080 C   0  0  0  0  0  0  0  0  0  0  0  0
   -4.2110   15.7580    2.2550 N   0  0  0  0  0  0  0  0  0  0  0  0
   -2.2320   14.8540    1.6400 N   0  0  0  0  0  0  0  0  0  0  0  0
   -1.5680   14.9590   -0.5550 N   0  0  0  0  0  0  0  0  0  0  0  0
   -1.2030   15.3330    0.7570 C   0  0  2  0  0  0  0  0  0  0  0  0
    0.0890   14.6670    1.1090 C   0  0  0  0  0  0  0  0  0  0  0  0
  2  1  1  6
  2  3  1  0
  2  4  1  0
  4  5  1  6
  3  6  1  0
  4  7  1  0
  7  6  1  6
  5  8  1  1
  5  9  1  0
  7 10  1  0
 10 11  1  6
 10 12  1  0
 11 13  1  0
 12 14  1  0
 15 13  1  6
 14 15  1  0
 15 16  1  0
 16 17  1  0
 16 18  1  6
 17 19  1  1
 17 20  1  0
 18 21  1  0
 20 22  1  0
 21 22  1  0
 22 23  1  1
M  CHG  1   9  -1
M  END
