ucsf170-ucsf387
     RDKit          3D

 18 19  0  0  0  0  0  0  0  0999 V2000
   -4.9860   15.0220    1.1720 C   0  0  0  0  0  0  0  0  0  0  0  0
   -3.1960   15.2310    1.2550 S   0  0  0  0  0  0  0  0  0  0  0  0
   -2.7430   15.4690   -0.5250 C   0  0  1  0  0  0  0  0  0  0  0  0
   -1.3300   14.9940   -0.8190 C   0  0  0  0  0  0  0  0  0  0  0  0
   -3.7910   14.8360   -1.4410 C   0  0  0  0  0  0  0  0  0  0  0  0
   -1.2780   13.7340   -1.7100 C   0  0  2  0  0  0  0  0  0  0  0  0
   -3.3490   14.6980   -2.9030 C   0  0  0  0  0  0  0  0  0  0  0  0
    0.1190   13.0140   -1.6980 C   0  0  2  0  0  0  0  0  0  0  0  0
   -1.9130   14.1320   -3.0910 C   0  0  1  0  0  0  0  0  0  0  0  0
    1.1070   13.7150   -2.3990 O   0  0  0  0  0  0  0  0  0  0  0  0
    0.0830   11.8270   -2.2920 O   0  0  0  0  0  0  0  0  0  0  0  0
   -1.0620   15.1450   -3.8970 C   0  0  1  0  0  0  0  0  0  0  0  0
    0.1460   14.6440   -4.6780 C   0  0  0  0  0  0  0  0  0  0  0  0
   -1.9080   15.9790   -4.8580 C   0  0  0  0  0  0  0  0  0  0  0  0
   -1.1490   17.2200   -5.2850 C   0  0  0  0  0  0  0  0  0  0  0  0
    1.0290   15.8590   -4.9590 C   0  0  0  0  0  0  0  0  0  0  0  0
    0.2940   17.2030   -4.7900 C   0  0  1  0  0  0  0  0  0  0  0  0
    1.1310   18.4650   -5.7080 Cl  0  0  0  0  0  0  0  0  0  0  0  0
  1  2  1  0
  3  2  1  1
  3  4  1  0
  3  5  1  0
  6  4  1  1
  5  7  1  0
  6  8  1  0
  6  9  1  0
  9  7  1  1
  8 10  1  6
  8 11  1  0
  9 12  1  0
 12 13  1  6
 12 14  1  0
 14 15  1  0
 13 16  1  0
 15 17  1  0
 16 17  1  0
 17 18  1  6
M  CHG  1  11  -1
M  END
