ucsf487-ucsf442
     RDKit          3D

 17 19  0  0  0  0  0  0  0  0999 V2000
   -7.7970   14.2910    3.0070 N   0  0  0  0  0  0  0  0  0  0  0  0
   -7.3590   13.9910    1.6460 C   0  0  1  0  0  0  0  0  0  0  0  0
   -8.1710   14.7280    0.5480 C   0  0  0  0  0  0  0  0  0  0  0  0
   -5.8790   14.3090    1.5620 C   0  0  0  0  0  0  0  0  0  0  0  0
   -5.2890   14.2010    0.1530 C   0  0  1  0  0  0  0  0  0  0  0  0
   -7.4230   15.1770   -0.6370 N   0  0  0  0  0  0  0  0  0  0  0  0
   -6.3090   14.3100   -0.9950 C   0  0  1  0  0  0  0  0  0  0  0  0
   -4.1320   15.2080    0.0630 C   0  0  2  0  0  0  0  0  0  0  0  0
   -5.5850   14.7760   -2.2520 C   0  0  0  0  0  0  0  0  0  0  0  0
   -3.3510   15.0590   -1.2440 C   0  0  2  0  0  0  0  0  0  0  0  0
   -3.2580   15.0420    1.3050 C   0  0  0  0  0  0  0  0  0  0  0  0
   -3.4460   16.2260   -1.9950 O   0  0  0  0  0  0  0  0  0  0  0  0
   -4.1710   14.2210   -2.1980 C   0  0  0  0  0  0  0  0  0  0  0  0
   -1.8850   15.4080    1.1150 N   0  0  0  0  0  0  0  0  0  0  0  0
   -1.9270   14.6770   -1.1630 N   0  0  0  0  0  0  0  0  0  0  0  0
   -1.2650   14.6150    0.1280 C   0  0  1  0  0  0  0  0  0  0  0  0
    0.0170   15.1330   -0.0540 O   0  0  0  0  0  0  0  0  0  0  0  0
  2  1  1  1
  2  3  1  0
  2  4  1  0
  5  4  1  1
  3  6  1  0
  5  7  1  0
  6  7  1  0
  5  8  1  0
  7  9  1  6
  8 10  1  0
  8 11  1  1
 10 12  1  6
  9 13  1  0
 10 13  1  0
 11 14  1  0
 10 15  1  0
 14 16  1  0
 15 16  1  0
 16 17  1  6
M  END
