ucsf114-ucsf378
     RDKit          3D

 29 31  0  0  0  0  0  0  0  0999 V2000
    0.8090   18.7440   -6.1060 C   0  0  0  0  0  0  0  0  0  0  0  0
   -0.2550   18.3040   -5.1270 C   0  0  0  0  0  0  0  0  0  0  0  0
   -1.6710   18.4480   -5.6860 C   0  0  0  0  0  0  0  0  0  0  0  0
    0.1000   16.9870   -4.8700 O   0  0  0  0  0  0  0  0  0  0  0  0
    0.5030   16.7920   -3.5210 C   0  0  0  0  0  0  0  0  0  0  0  0
   -0.5350   15.7780   -3.1220 C   0  0  2  0  0  0  0  0  0  0  0  0
   -0.3270   14.5520   -2.2670 N   0  0  0  0  0  0  0  0  0  0  0  0
   -0.7730   15.2350   -4.5210 C   0  0  1  0  0  0  0  0  0  0  0  0
   -1.6330   14.1080   -1.7950 C   0  0  1  0  0  0  0  0  0  0  0  0
    0.7050   14.3850   -1.2480 C   0  0  1  0  0  0  0  0  0  0  0  0
    0.5630   15.4150   -5.2560 C   0  0  0  0  0  0  0  0  0  0  0  0
   -1.0950   13.7700   -4.4560 C   0  0  1  0  0  0  0  0  0  0  0  0
    2.4600   14.3820   -1.6900 S   0  0  0  0  0  0  0  0  0  0  0  0
   -2.3810   13.3400   -5.6390 Cl  0  0  0  0  0  0  0  0  0  0  0  0
   -1.9860   14.3220   -0.3160 C   0  0  1  0  0  0  0  0  0  0  0  0
    0.3680   15.0560   -0.0330 N   0  0  0  0  0  0  0  0  0  0  0  0
   -2.8410   14.6890   -2.5560 C   0  0  0  0  0  0  0  0  0  0  0  0
    0.1880   12.9090   -4.5590 C   0  0  2  0  0  0  0  0  0  0  0  0
    1.6300   15.0430   -4.2620 C   0  0  0  0  0  0  0  0  0  0  0  0
   -0.1320   11.5770   -3.8380 C   0  0  0  0  0  0  0  0  0  0  0  0
   -0.7470   14.4140    0.6130 C   0  0  1  0  0  0  0  0  0  0  0  0
   -2.8920   15.4920   -0.3030 N   0  0  0  0  0  0  0  0  0  0  0  0
   -3.7370   15.2550   -1.4710 C   0  0  0  0  0  0  0  0  0  0  0  0
    1.4900   13.5690   -3.9830 C   0  0  2  0  0  0  0  0  0  0  0  0
   -1.0510   14.9900    1.8500 O   0  0  0  0  0  0  0  0  0  0  0  0
    2.9880   12.8610   -4.6450 Cl  0  0  0  0  0  0  0  0  0  0  0  0
    0.5030   11.3460   -2.4530 C   0  0  1  0  0  0  0  0  0  0  0  0
   -0.2450   11.6980   -1.4350 O   0  0  0  0  0  0  0  0  0  0  0  0
    0.5070    9.9570   -2.2990 O   0  0  0  0  0  0  0  0  0  0  0  0
  1  2  1  0
  2  3  1  0
  2  4  1  0
  4  5  1  0
  6  5  1  6
  6  7  1  0
  6  8  1  0
  7  9  1  0
  7 10  1  0
  8 11  1  6
  8 12  1  0
 10 13  1  6
 12 14  1  6
  9 15  1  0
 10 16  1  0
  9 17  1  6
 12 18  1  0
 11 19  1  0
 18 20  1  1
 15 21  1  0
 16 21  1  0
 15 22  1  6
 17 23  1  0
 22 23  1  0
 18 24  1  0
 19 24  1  0
 21 25  1  1
 24 26  1  6
 20 27  1  0
 27 28  1  1
 27 29  1  0
M  CHG  1  28  -1
M  END
