ucsf110-ucsf584
     RDKit          3D

 20 23  0  0  0  0  0  0  0  0999 V2000
   -0.1840   15.6920   -2.9950 C   0  0  0  0  0  0  0  0  0  0  0  0
   -1.4090   15.3120   -2.3300 N   0  0  0  0  0  0  0  0  0  0  0  0
   -1.7990   13.9410   -2.4850 C   0  0  0  0  0  0  0  0  0  0  0  0
   -1.5830   15.6040   -0.9200 C   0  0  1  0  0  0  0  0  0  0  0  0
   -3.1360   13.9320   -1.7590 C   0  0  1  0  0  0  0  0  0  0  0  0
   -2.9510   14.9010   -0.5510 C   0  0  1  0  0  0  0  0  0  0  0  0
   -0.3460   15.1790   -0.2750 N   0  0  0  0  0  0  0  0  0  0  0  0
   -2.8090   14.4130    0.8980 C   0  0  2  0  0  0  0  0  0  0  0  0
   -0.4240   14.4960    0.9820 C   0  0  0  0  0  0  0  0  0  0  0  0
   -4.2270   15.8170   -0.5760 C   0  0  0  0  0  0  0  0  0  0  0  0
   -4.2200   14.3380   -2.7540 C   0  0  0  0  0  0  0  0  0  0  0  0
   -3.8030   15.0360    1.7360 N   0  0  0  0  0  0  0  0  0  0  0  0
   -1.6430   14.8820    1.6040 N   0  0  0  0  0  0  0  0  0  0  0  0
   -5.6000   14.4030   -2.1720 C   0  0  0  0  0  0  0  0  0  0  0  0
   -5.6550   15.3120   -0.9710 C   0  0  1  0  0  0  0  0  0  0  0  0
   -6.7400   14.9380    0.0800 C   0  0  0  0  0  0  0  0  0  0  0  0
   -6.3640   14.7560    1.4560 N   0  0  0  0  0  0  0  0  0  0  0  0
   -7.5140   13.7500   -0.1660 N   0  0  0  0  0  0  0  0  0  0  0  0
   -8.4660   13.8330    0.9500 C   0  0  0  0  0  0  0  0  0  0  0  0
   -7.6060   14.3510    2.1020 C   0  0  0  0  0  0  0  0  0  0  0  0
  1  2  1  0
  2  3  1  0
  2  4  1  0
  5  3  1  6
  4  6  1  0
  5  6  1  0
  4  7  1  1
  6  8  1  0
  7  9  1  0
  6 10  1  1
  5 11  1  0
  8 12  1  1
  8 13  1  0
  9 13  1  0
 11 14  1  0
 10 15  1  0
 14 15  1  0
 15 16  1  1
 16 17  1  0
 16 18  1  0
 18 19  1  0
 17 20  1  0
 19 20  1  0
M  END
