ucsf005-ucsf424
     RDKit          3D

 28 31  0  0  0  0  0  0  0  0999 V2000
   -1.4140   14.9650   -3.2910 C   0  0  0  0  0  0  0  0  0  0  0  0
   -2.5160   15.5640   -2.5370 N   0  0  0  0  0  0  0  0  0  0  0  0
   -3.7700   14.8290   -2.7260 C   0  0  0  0  0  0  0  0  0  0  0  0
   -2.3280   15.6290   -1.0920 C   0  0  1  0  0  0  0  0  0  0  0  0
   -4.3680   14.5140   -1.4250 N   0  0  0  0  0  0  0  0  0  0  0  0
   -3.6800   15.3740   -0.4570 C   0  0  1  0  0  0  0  0  0  0  0  0
   -1.3050   14.8050   -0.5800 N   0  0  0  0  0  0  0  0  0  0  0  0
   -3.5100   14.7620    0.9590 C   0  0  2  0  0  0  0  0  0  0  0  0
   -1.0870   15.1810    0.7720 C   0  0  2  0  0  0  0  0  0  0  0  0
   -4.3300   15.5060    1.8940 N   0  0  0  0  0  0  0  0  0  0  0  0
    0.0290   14.3600    0.9850 N   0  0  0  0  0  0  0  0  0  0  0  0
   -2.1930   14.7530    1.5820 N   0  0  0  0  0  0  0  0  0  0  0  0
    0.3080   13.8140   -0.3470 C   0  0  0  0  0  0  0  0  0  0  0  0
    1.2710   14.6390   -1.1970 C   0  0  0  0  0  0  0  0  0  0  0  0
    1.7580   13.8310   -2.3830 C   0  0  0  0  0  0  0  0  0  0  0  0
    0.9480   12.6670   -2.4290 O   0  0  0  0  0  0  0  0  0  0  0  0
    0.8220   11.9980   -3.6660 C   0  0  1  0  0  0  0  0  0  0  0  0
    0.1520   10.7800   -3.3830 O   0  0  0  0  0  0  0  0  0  0  0  0
    0.0370   12.8510   -4.6630 C   0  0  0  0  0  0  0  0  0  0  0  0
   -0.0370   12.2550   -6.0740 C   0  0  1  0  0  0  0  0  0  0  0  0
    1.2440   11.7300   -6.5660 N   0  0  0  0  0  0  0  0  0  0  0  0
   -1.0830   11.1640   -6.3440 C   0  0  1  0  0  0  0  0  0  0  0  0
    0.9290   10.5880   -7.4430 O   0  0  0  0  0  0  0  0  0  0  0  0
   -0.4910   10.4450   -7.5390 C   0  0  1  0  0  0  0  0  0  0  0  0
   -1.3970   10.1820   -5.2100 C   0  0  0  0  0  0  0  0  0  0  0  0
   -0.8930    8.9790   -7.6090 C   0  0  0  0  0  0  0  0  0  0  0  0
   -2.4710    9.1770   -5.6250 C   0  0  0  0  0  0  0  0  0  0  0  0
   -2.3030    8.7250   -7.0770 C   0  0  0  0  0  0  0  0  0  0  0  0
  1  2  1  0
  2  3  1  0
  2  4  1  0
  3  5  1  0
  4  6  1  0
  6  5  1  6
  4  7  1  1
  6  8  1  0
  7  9  1  0
  8 10  1  1
  9 11  1  1
  8 12  1  0
  9 12  1  0
 11 13  1  0
 13 14  1  0
 14 15  1  0
 15 16  1  0
 16 17  1  0
 17 18  1  1
 17 19  1  0
 20 19  1  1
 20 21  1  0
 20 22  1  0
 21 23  1  0
 22 24  1  0
 23 24  1  0
 22 25  1  1
 24 26  1  1
 25 27  1  0
 26 28  1  0
 27 28  1  0
M  END
