ucsf170-ucsf213
     RDKit          3D

 22 24  0  0  0  0  0  0  0  0999 V2000
   -5.1490   14.9150    1.1900 C   0  0  0  0  0  0  0  0  0  0  0  0
   -3.4210   15.3740    1.4240 S   0  0  0  0  0  0  0  0  0  0  0  0
   -2.8660   15.5140   -0.3140 C   0  0  1  0  0  0  0  0  0  0  0  0
   -1.5130   14.8380   -0.4380 C   0  0  0  0  0  0  0  0  0  0  0  0
   -3.8840   14.9780   -1.3210 C   0  0  0  0  0  0  0  0  0  0  0  0
   -1.2490   14.1320   -1.7650 C   0  0  2  0  0  0  0  0  0  0  0  0
   -3.4270   15.1060   -2.7550 C   0  0  0  0  0  0  0  0  0  0  0  0
    0.2750   14.0600   -1.9300 C   0  0  0  0  0  0  0  0  0  0  0  0
   -1.9320   14.8390   -2.9520 C   0  0  2  0  0  0  0  0  0  0  0  0
   -1.8390   13.9850   -4.0820 O   0  0  0  0  0  0  0  0  0  0  0  0
    0.7730   12.8150   -1.4360 O   0  0  0  0  0  0  0  0  0  0  0  0
    0.5340   11.7140   -2.3400 C   0  0  0  0  0  0  0  0  0  0  0  0
   -0.8760   14.4210   -5.2820 S   0  0  2  0  0  0  0  0  0  0  0  0
    0.2200   10.6600   -1.6140 O   0  0  0  0  0  0  0  0  0  0  0  0
    0.7440   14.2220   -4.5880 C   0  0  0  0  0  0  0  0  0  0  0  0
   -0.9070   16.1920   -5.2590 C   0  0  2  0  0  0  0  0  0  0  0  0
    1.1520   15.6190   -4.0900 C   0  0  0  0  0  0  0  0  0  0  0  0
    0.5530   16.5770   -5.1200 C   0  0  2  0  0  0  0  0  0  0  0  0
   -1.8770   17.0200   -4.5030 C   0  0  0  0  0  0  0  0  0  0  0  0
    0.6080   18.0760   -4.9110 C   0  0  0  0  0  0  0  0  0  0  0  0
   -1.8760   18.3260   -5.3090 C   0  0  0  0  0  0  0  0  0  0  0  0
   -0.4790   18.6400   -5.8370 C   0  0  0  0  0  0  0  0  0  0  0  0
  1  2  1  0
  3  2  1  1
  3  4  1  0
  3  5  1  0
  4  6  1  0
  5  7  1  0
  6  8  1  6
  6  9  1  0
  7  9  1  0
  9 10  1  6
  8 11  1  0
 11 12  1  0
 13 10  1  1
 12 14  1  0
 13 15  1  0
 13 16  1  0
 15 17  1  0
 16 18  1  0
 18 17  1  1
 16 19  1  1
 18 20  1  0
 19 21  1  0
 20 22  1  0
 21 22  1  0
M  CHG  1  14  -1
M  END
