ucsf030-ucsf345
     RDKit          3D

 27 30  0  0  0  0  0  0  0  0999 V2000
   -3.3100   13.3720   -1.6530 Cl  0  0  0  0  0  0  0  0  0  0  0  0
   -2.1070   13.8930   -0.4110 C   0  0  2  0  0  0  0  0  0  0  0  0
   -2.7360   14.6340    0.7970 C   0  0  1  0  0  0  0  0  0  0  0  0
   -1.0450   14.9200   -0.9340 C   0  0  1  0  0  0  0  0  0  0  0  0
   -3.6180   13.9570    1.7610 N   0  0  0  0  0  0  0  0  0  0  0  0
    0.0510   14.9370    0.0280 N   0  0  0  0  0  0  0  0  0  0  0  0
   -1.6380   15.0540    1.6420 N   0  0  0  0  0  0  0  0  0  0  0  0
   -0.4720   14.8150   -2.2820 N   0  0  0  0  0  0  0  0  0  0  0  0
   -4.8350   13.2820    1.3090 C   0  0  0  0  0  0  0  0  0  0  0  0
   -0.3850   14.4010    1.2980 C   0  0  0  0  0  0  0  0  0  0  0  0
   -0.0060   13.5660   -2.8700 C   0  0  0  0  0  0  0  0  0  0  0  0
   -0.9620   15.8060   -3.2510 C   0  0  0  0  0  0  0  0  0  0  0  0
   -6.0000   14.1550    1.4640 N   0  0  0  0  0  0  0  0  0  0  0  0
    0.7600   13.8050   -4.1800 C   0  0  0  0  0  0  0  0  0  0  0  0
   -1.2950   15.2020   -4.6110 C   0  0  0  0  0  0  0  0  0  0  0  0
   -6.7270   14.4180    0.2220 C   0  0  2  0  0  0  0  0  0  0  0  0
    2.1810   14.3750   -3.8490 C   0  0  0  0  0  0  0  0  0  0  0  0
    1.4810   12.5940   -4.8430 C   0  0  0  0  0  0  0  0  0  0  0  0
   -0.0060   14.6580   -5.2050 C   0  0  0  0  0  0  0  0  0  0  0  0
   -7.6180   13.3670   -0.0800 O   0  0  0  0  0  0  0  0  0  0  0  0
   -5.6940   14.6140   -0.9150 C   0  0  1  0  0  0  0  0  0  0  0  0
    2.7890   12.9900   -4.1400 C   0  0  0  0  0  0  0  0  0  0  0  0
   -6.2470   14.6200   -2.2930 N   0  0  0  0  0  0  0  0  0  0  0  0
   -4.8150   15.8330   -0.6490 C   0  0  0  0  0  0  0  0  0  0  0  0
   -5.1210   14.5480   -3.2440 C   0  0  0  0  0  0  0  0  0  0  0  0
   -3.6090   15.8080   -1.4920 N   0  0  0  0  0  0  0  0  0  0  0  0
   -3.8250   15.3420   -2.8800 C   0  0  0  0  0  0  0  0  0  0  0  0
  2  1  1  6
  2  3  1  0
  2  4  1  0
  3  5  1  1
  4  6  1  0
  3  7  1  0
  4  8  1  6
  5  9  1  0
  6 10  1  0
  7 10  1  0
  8 11  1  0
  8 12  1  0
  9 13  1  0
 14 11  1  0
 12 15  1  0
 13 16  1  0
 14 17  1  0
 14 18  1  0
 14 19  1  0
 15 19  1  0
 16 20  1  6
 16 21  1  0
 17 22  1  0
 18 22  1  0
 21 23  1  0
 21 24  1  1
 23 25  1  0
 24 26  1  0
 25 27  1  0
 26 27  1  0
M  END
