ucsf213-ucsf422
     RDKit          3D

 14 15  0  0  0  0  0  0  0  0999 V2000
    0.7190   10.6570   -2.3850 O   0  0  0  0  0  0  0  0  0  0  0  0
    0.4060   11.9310   -2.5440 C   0  0  1  0  0  0  0  0  0  0  0  0
    0.6290   12.4500   -1.2580 O   0  0  0  0  0  0  0  0  0  0  0  0
    1.2770   12.7270   -3.5230 C   0  0  0  0  0  0  0  0  0  0  0  0
    0.8390   14.2120   -3.5880 C   0  0  1  0  0  0  0  0  0  0  0  0
    1.3220   15.0980   -4.7230 C   0  0  0  0  0  0  0  0  0  0  0  0
   -0.9700   14.4630   -3.4850 S   0  0  0  0  0  0  0  0  0  0  0  0
    0.2530   16.0940   -5.1760 C   0  0  1  0  0  0  0  0  0  0  0  0
   -1.1100   15.4140   -5.0150 C   0  0  2  0  0  0  0  0  0  0  0  0
    0.3910   17.5030   -4.5970 C   0  0  0  0  0  0  0  0  0  0  0  0
   -2.2810   16.3750   -5.0860 C   0  0  2  0  0  0  0  0  0  0  0  0
   -3.7840   15.4940   -6.0070 Br  0  0  0  0  0  0  0  0  0  0  0  0
   -0.7300   18.4090   -5.1000 C   0  0  0  0  0  0  0  0  0  0  0  0
   -1.8650   17.6690   -5.8040 C   0  0  0  0  0  0  0  0  0  0  0  0
  2  1  1  1
  2  3  1  0
  2  4  1  0
  5  4  1  6
  5  6  1  0
  5  7  1  0
  8  6  1  1
  9  7  1  1
  8  9  1  0
  8 10  1  0
  9 11  1  0
 11 12  1  6
 10 13  1  0
 11 14  1  0
 13 14  1  0
M  CHG  1   1  -1
M  END
