ucsf260-ucsf013
     RDKit          3D

 28 31  0  0  0  0  0  0  0  0999 V2000
    0.7200   11.2370   -2.9650 O   0  0  0  0  0  0  0  0  0  0  0  0
    1.5560   12.2390   -3.1860 C   0  0  2  0  0  0  0  0  0  0  0  0
    1.3550   13.2360   -2.1590 O   0  0  0  0  0  0  0  0  0  0  0  0
    1.4260   12.8300   -4.6390 C   0  0  0  0  0  0  0  0  0  0  0  0
    0.0480   13.3210   -5.1530 C   0  0  0  0  0  0  0  0  0  0  0  0
    0.0810   13.8800   -2.1740 C   0  0  0  0  0  0  0  0  0  0  0  0
   -1.0010   12.9550   -1.6140 C   0  0  0  0  0  0  0  0  0  0  0  0
   -0.8090   12.2810   -5.7910 N   0  0  0  0  0  0  0  0  0  0  0  0
   -2.3460   13.2760   -2.2740 C   0  0  0  0  0  0  0  0  0  0  0  0
   -1.9110   11.8710   -4.9620 C   0  0  0  0  0  0  0  0  0  0  0  0
   -0.1250   11.0520   -6.1550 C   0  0  1  0  0  0  0  0  0  0  0  0
   -2.4020   10.6270   -5.5380 N   0  0  0  0  0  0  0  0  0  0  0  0
   -1.2030    9.9530   -6.0640 C   0  0  1  0  0  0  0  0  0  0  0  0
    0.5260   11.1050   -7.5420 C   0  0  0  0  0  0  0  0  0  0  0  0
   -2.9160   14.6650   -1.9470 C   0  0  1  0  0  0  0  0  0  0  0  0
   -1.5030    9.1950   -7.3600 C   0  0  0  0  0  0  0  0  0  0  0  0
    0.8230    9.7490   -8.1990 C   0  0  0  0  0  0  0  0  0  0  0  0
   -3.9750   15.1400   -2.9390 C   0  0  0  0  0  0  0  0  0  0  0  0
   -3.4230   14.6170   -0.5090 C   0  0  0  0  0  0  0  0  0  0  0  0
   -0.2620    8.6780   -8.0720 C   0  0  0  0  0  0  0  0  0  0  0  0
   -4.7050   15.4050   -0.1920 C   0  0  2  0  0  0  0  0  0  0  0  0
   -5.3970   14.7310   -2.5590 C   0  0  0  0  0  0  0  0  0  0  0  0
   -5.0720   15.1230    1.2810 C   0  0  2  0  0  0  0  0  0  0  0  0
   -5.8680   15.1470   -1.1620 C   0  0  1  0  0  0  0  0  0  0  0  0
   -4.1960   14.1120    1.7910 N   0  0  0  0  0  0  0  0  0  0  0  0
   -6.7740   14.1230   -0.6520 N   0  0  0  0  0  0  0  0  0  0  0  0
   -6.4260   14.6720    1.6280 N   0  0  0  0  0  0  0  0  0  0  0  0
   -7.4040   14.5430    0.5590 C   0  0  0  0  0  0  0  0  0  0  0  0
  2  1  1  1
  2  3  1  0
  2  4  1  0
  4  5  1  0
  3  6  1  0
  6  7  1  0
  5  8  1  0
  7  9  1  0
  8 10  1  0
  8 11  1  0
 10 12  1  0
 11 13  1  0
 12 13  1  0
 11 14  1  6
 15  9  1  6
 13 16  1  6
 14 17  1  0
 15 18  1  0
 15 19  1  0
 16 20  1  0
 17 20  1  0
 21 19  1  6
 18 22  1  0
 21 23  1  0
 21 24  1  0
 24 22  1  6
 23 25  1  6
 24 26  1  0
 23 27  1  0
 26 28  1  0
 27 28  1  0
M  CHG  1   1  -1
M  END
