ucsf004-ucsf378
     RDKit          3D

 21 23  0  0  0  0  0  0  0  0999 V2000
   -1.7590   12.1160   -4.7120 F   0  0  0  0  0  0  0  0  0  0  0  0
   -1.1920   13.3590   -4.7680 C   0  0  2  0  0  0  0  0  0  0  0  0
    0.3370   13.3470   -4.4680 C   0  0  2  0  0  0  0  0  0  0  0  0
   -1.9340   14.2780   -3.7690 C   0  0  0  0  0  0  0  0  0  0  0  0
    1.3930   12.7390   -5.8450 Cl  0  0  0  0  0  0  0  0  0  0  0  0
    0.7960   12.3340   -3.3750 C   0  0  0  0  0  0  0  0  0  0  0  0
   -1.1290   14.9120   -2.6930 N   0  0  0  0  0  0  0  0  0  0  0  0
    0.8320   14.7850   -4.2680 C   0  0  0  0  0  0  0  0  0  0  0  0
   -0.1810   11.6110   -2.4240 C   0  0  2  0  0  0  0  0  0  0  0  0
    0.2210   15.4140   -3.0260 C   0  0  0  0  0  0  0  0  0  0  0  0
   -1.2890   14.4290   -1.3050 C   0  0  1  0  0  0  0  0  0  0  0  0
    0.1010   12.0140   -1.2100 O   0  0  0  0  0  0  0  0  0  0  0  0
    0.1460   10.2400   -2.3570 O   0  0  0  0  0  0  0  0  0  0  0  0
   -0.0590   14.4460   -0.5220 N   0  0  0  0  0  0  0  0  0  0  0  0
   -2.3220   15.2520   -0.5390 C   0  0  2  0  0  0  0  0  0  0  0  0
   -0.1850   15.1880    0.7220 C   0  0  0  0  0  0  0  0  0  0  0  0
   -2.4720   14.6340    0.8160 C   0  0  1  0  0  0  0  0  0  0  0  0
   -3.7630   15.1780   -0.9930 C   0  0  0  0  0  0  0  0  0  0  0  0
   -1.2600   14.6810    1.5410 N   0  0  0  0  0  0  0  0  0  0  0  0
   -3.5710   15.3580    1.4290 N   0  0  0  0  0  0  0  0  0  0  0  0
   -4.5140   15.5190    0.2960 C   0  0  0  0  0  0  0  0  0  0  0  0
  2  1  1  1
  2  3  1  0
  2  4  1  0
  3  5  1  0
  3  6  1  1
  4  7  1  0
  3  8  1  0
  6  9  1  0
  7 10  1  0
  8 10  1  0
 11  7  1  6
  9 12  1  1
  9 13  1  0
 11 14  1  0
 11 15  1  0
 14 16  1  0
 15 17  1  0
 15 18  1  6
 16 19  1  0
 17 19  1  1
 17 20  1  0
 18 21  1  0
 20 21  1  0
M  CHG  1  12  -1
M  END
