ucsf345-ucsf412
     RDKit          3D

 13 14  0  0  0  0  0  0  0  0999 V2000
   -7.8530   14.9480    1.0010 N   0  0  0  0  0  0  0  0  0  0  0  0
   -7.1910   15.0150   -0.2910 C   0  0  2  0  0  0  0  0  0  0  0  0
   -8.1100   14.3330   -1.1070 O   0  0  0  0  0  0  0  0  0  0  0  0
   -5.7210   14.4190   -0.4170 C   0  0  1  0  0  0  0  0  0  0  0  0
   -5.6040   14.1080   -1.8860 N   0  0  0  0  0  0  0  0  0  0  0  0
   -4.5070   15.2610    0.1210 C   0  0  2  0  0  0  0  0  0  0  0  0
   -5.7870   13.1670    0.4990 C   0  0  0  0  0  0  0  0  0  0  0  0
   -4.6080   14.9240   -2.5530 C   0  0  0  0  0  0  0  0  0  0  0  0
   -3.1850   14.8520   -0.4490 N   0  0  0  0  0  0  0  0  0  0  0  0
   -4.4750   15.2440    1.6570 C   0  0  0  0  0  0  0  0  0  0  0  0
   -6.2200   13.4630    1.8790 N   0  0  0  0  0  0  0  0  0  0  0  0
   -3.2150   14.7760   -1.9290 C   0  0  0  0  0  0  0  0  0  0  0  0
   -5.8310   14.8060    2.2480 C   0  0  0  0  0  0  0  0  0  0  0  0
  2  1  1  1
  2  3  1  0
  2  4  1  0
  4  5  1  0
  4  6  1  0
  4  7  1  1
  5  8  1  0
  6  9  1  0
  6 10  1  1
  7 11  1  0
  8 12  1  0
  9 12  1  0
 10 13  1  0
 11 13  1  0
M  END
