ucsf385-ucsf170
     RDKit          3D

 19 20  0  0  0  0  0  0  0  0999 V2000
   -2.9170   15.6950   -1.4600 N   0  0  0  0  0  0  0  0  0  0  0  0
   -1.9790   15.5240   -0.3540 C   0  0  1  0  0  0  0  0  0  0  0  0
   -2.5710   14.5570    0.7120 C   0  0  0  0  0  0  0  0  0  0  0  0
   -0.5180   15.1550   -0.7120 C   0  0  2  0  0  0  0  0  0  0  0  0
   -0.2420   13.7260   -1.2150 C   0  0  0  0  0  0  0  0  0  0  0  0
    0.1780   15.4060    0.5760 C   0  0  0  0  0  0  0  0  0  0  0  0
   -1.6940   14.2930    1.8450 N   0  0  0  0  0  0  0  0  0  0  0  0
   -0.4940   13.4120   -2.6930 C   0  0  1  0  0  0  0  0  0  0  0  0
   -0.2610   14.2820    1.5190 C   0  0  0  0  0  0  0  0  0  0  0  0
    0.2240   14.3720   -3.4310 O   0  0  0  0  0  0  0  0  0  0  0  0
    0.1140   12.2950   -3.0360 O   0  0  0  0  0  0  0  0  0  0  0  0
   -2.0000   13.4370   -3.0880 C   0  0  1  0  0  0  0  0  0  0  0  0
   -2.9380   13.2790   -1.8320 C   0  0  0  0  0  0  0  0  0  0  0  0
   -2.3390   14.7140   -3.8740 C   0  0  0  0  0  0  0  0  0  0  0  0
   -4.3870   13.8520   -1.9090 C   0  0  1  0  0  0  0  0  0  0  0  0
   -3.7990   14.7210   -4.2390 C   0  0  0  0  0  0  0  0  0  0  0  0
   -4.9350   14.6960   -0.3520 S   0  0  0  0  0  0  0  0  0  0  0  0
   -4.6590   14.8960   -3.0070 C   0  0  0  0  0  0  0  0  0  0  0  0
   -5.3580   13.2870    0.7120 C   0  0  0  0  0  0  0  0  0  0  0  0
  2  1  1  6
  2  3  1  0
  2  4  1  0
  4  5  1  1
  4  6  1  0
  3  7  1  0
  5  8  1  0
  6  9  1  0
  7  9  1  0
  8 10  1  6
  8 11  1  0
  8 12  1  0
 12 13  1  1
 12 14  1  0
 13 15  1  0
 14 16  1  0
 15 17  1  1
 15 18  1  0
 16 18  1  0
 17 19  1  0
M  CHG  1  11  -1
M  END
