ucsf348-ucsf385
     RDKit          3D

 21 23  0  0  0  0  0  0  0  0999 V2000
   -7.2040   13.7740    2.0520 N   0  0  0  0  0  0  0  0  0  0  0  0
   -6.8320   14.4180    0.8410 C   0  0  1  0  0  0  0  0  0  0  0  0
   -5.5610   14.9440    1.1190 N   0  0  0  0  0  0  0  0  0  0  0  0
   -6.7140   13.3850   -0.1260 N   0  0  0  0  0  0  0  0  0  0  0  0
   -6.2750   13.9600   -1.3740 C   0  0  2  0  0  0  0  0  0  0  0  0
   -4.9270   15.6440    0.0120 C   0  0  2  0  0  0  0  0  0  0  0  0
   -6.1480   12.9350   -2.3280 O   0  0  0  0  0  0  0  0  0  0  0  0
   -5.0220   14.8580   -1.3060 C   0  0  1  0  0  0  0  0  0  0  0  0
   -3.4890   16.0430    0.4110 C   0  0  0  0  0  0  0  0  0  0  0  0
   -2.4230   16.0060   -0.7000 C   0  0  0  0  0  0  0  0  0  0  0  0
   -3.5870   14.4850   -1.7390 C   0  0  1  0  0  0  0  0  0  0  0  0
   -3.0100   15.7670   -2.0930 C   0  0  0  0  0  0  0  0  0  0  0  0
   -2.4080   14.3200   -0.7690 C   0  0  2  0  0  0  0  0  0  0  0  0
   -0.8920   14.4500   -1.1200 C   0  0  2  0  0  0  0  0  0  0  0  0
   -2.7450   13.7890    0.6320 C   0  0  0  0  0  0  0  0  0  0  0  0
   -0.3960   14.4360   -2.5860 C   0  0  1  0  0  0  0  0  0  0  0  0
   -0.1260   13.5190   -0.2020 C   0  0  0  0  0  0  0  0  0  0  0  0
   -1.7120   14.1250    1.6510 N   0  0  0  0  0  0  0  0  0  0  0  0
    0.5330   13.3780   -2.7500 O   0  0  0  0  0  0  0  0  0  0  0  0
   -1.3300   14.0930   -3.4430 O   0  0  0  0  0  0  0  0  0  0  0  0
   -0.3150   13.9240    1.2510 C   0  0  0  0  0  0  0  0  0  0  0  0
  2  1  1  1
  2  3  1  0
  2  4  1  0
  4  5  1  0
  3  6  1  0
  5  7  1  6
  8  5  1  1
  6  8  1  0
  6  9  1  1
  9 10  1  0
  8 11  1  0
 10 12  1  0
 11 12  1  6
 11 13  1  0
 13 14  1  0
 13 15  1  6
 14 16  1  0
 14 17  1  1
 15 18  1  0
 16 19  1  1
 16 20  1  0
 17 21  1  0
 18 21  1  0
M  CHG  1  20  -1
M  END
