ucsf017-ucsf005
     RDKit          3D

 20 23  0  0  0  0  0  0  0  0999 V2000
   -2.6320   15.7830   -2.7510 C   0  0  0  0  0  0  0  0  0  0  0  0
   -3.4120   14.8910   -1.7970 C   0  0  1  0  0  0  0  0  0  0  0  0
   -2.4680   13.9830   -1.0460 C   0  0  2  0  0  0  0  0  0  0  0  0
   -4.0890   15.6420   -0.6380 C   0  0  0  0  0  0  0  0  0  0  0  0
   -2.9010   14.0890    0.3910 C   0  0  2  0  0  0  0  0  0  0  0  0
   -0.9670   14.2670   -1.1160 C   0  0  2  0  0  0  0  0  0  0  0  0
   -4.2340   14.6490    0.4050 N   0  0  0  0  0  0  0  0  0  0  0  0
   -0.3740   13.8060   -2.3790 N   0  0  0  0  0  0  0  0  0  0  0  0
   -0.2560   13.7710    0.0620 N   0  0  0  0  0  0  0  0  0  0  0  0
   -2.0830   14.9510    1.1640 N   0  0  0  0  0  0  0  0  0  0  0  0
   -2.9450   14.9680    2.3400 N   0  0  0  0  0  0  0  0  0  0  0  0
   -1.4050   13.4940   -3.4050 C   0  0  1  0  0  0  0  0  0  0  0  0
    0.6810   12.8000   -2.2110 C   0  0  0  0  0  0  0  0  0  0  0  0
   -0.7060   14.3940    1.3030 C   0  0  0  0  0  0  0  0  0  0  0  0
   -2.0550   14.6320   -4.2150 C   0  0  0  0  0  0  0  0  0  0  0  0
   -1.0190   12.5060   -4.5210 C   0  0  1  0  0  0  0  0  0  0  0  0
    0.2520   11.4210   -2.6970 C   0  0  0  0  0  0  0  0  0  0  0  0
   -0.7280   13.4530   -5.6590 C   0  0  0  0  0  0  0  0  0  0  0  0
   -1.8060   14.3840   -5.6050 O   0  0  0  0  0  0  0  0  0  0  0  0
    0.0780   11.5050   -4.1880 C   0  0  0  0  0  0  0  0  0  0  0  0
  2  1  1  6
  3  2  1  6
  2  4  1  0
  3  5  1  0
  3  6  1  0
  4  7  1  0
  5  7  1  6
  6  8  1  6
  6  9  1  0
  5 10  1  0
 10 11  1  0
  8 12  1  0
  8 13  1  0
  9 14  1  0
 10 14  1  0
 12 15  1  6
 12 16  1  0
 13 17  1  0
 16 18  1  6
 15 19  1  0
 18 19  1  0
 16 20  1  0
 17 20  1  0
M  END
