ucsf523-ucsf147
     RDKit          3D

 21 23  0  0  0  0  0  0  0  0999 V2000
    0.0330   13.7650    1.6290 N   0  0  0  0  0  0  0  0  0  0  0  0
   -0.6720   14.7330    0.8800 C   0  0  2  0  0  0  0  0  0  0  0  0
   -2.0670   14.5190    1.0220 N   0  0  0  0  0  0  0  0  0  0  0  0
   -0.2380   14.8040   -0.4620 N   0  0  0  0  0  0  0  0  0  0  0  0
   -0.9550   15.8210   -1.2030 C   0  0  1  0  0  0  0  0  0  0  0  0
   -2.8810   15.4220    0.2440 C   0  0  1  0  0  0  0  0  0  0  0  0
   -0.4140   15.9860   -2.4940 O   0  0  0  0  0  0  0  0  0  0  0  0
   -2.4390   15.5350   -1.2290 C   0  0  2  0  0  0  0  0  0  0  0  0
   -4.2280   15.0850    0.5180 N   0  0  0  0  0  0  0  0  0  0  0  0
   -4.6040   13.8750   -0.1290 C   0  0  1  0  0  0  0  0  0  0  0  0
   -2.7410   14.3090   -2.1660 C   0  0  1  0  0  0  0  0  0  0  0  0
   -6.0240   13.9660   -0.1730 O   0  0  0  0  0  0  0  0  0  0  0  0
   -3.9710   13.4920   -1.5330 C   0  0  0  0  0  0  0  0  0  0  0  0
   -3.1630   14.6930   -3.6060 N   0  0  0  0  0  0  0  0  0  0  0  0
   -1.3030   13.6400   -2.5890 C   0  0  1  0  0  0  0  0  0  0  0  0
   -0.4490   12.5880   -1.8470 C   0  0  1  0  0  0  0  0  0  0  0  0
   -1.3270   13.2810   -4.0860 C   0  0  1  0  0  0  0  0  0  0  0  0
   -2.1700   14.2780   -4.6420 O   0  0  0  0  0  0  0  0  0  0  0  0
    0.0450   13.3010   -4.7930 C   0  0  0  0  0  0  0  0  0  0  0  0
    0.6990   12.2290   -2.5640 O   0  0  0  0  0  0  0  0  0  0  0  0
    0.1300   13.0410   -0.7820 O   0  0  0  0  0  0  0  0  0  0  0  0
  2  1  1  6
  2  3  1  0
  2  4  1  0
  4  5  1  0
  6  3  1  6
  5  7  1  6
  8  5  1  1
  6  8  1  0
  6  9  1  0
  9 10  1  0
  8 11  1  0
 10 12  1  6
 10 13  1  0
 11 13  1  1
 11 14  1  0
 11 15  1  0
 15 16  1  1
 15 17  1  0
 14 18  1  0
 17 18  1  0
 17 19  1  6
 16 20  1  6
 16 21  1  0
M  CHG  1  21  -1
M  END
