ucsf004-ucsf584
     RDKit          3D

 20 23  0  0  0  0  0  0  0  0999 V2000
   -2.0010   12.3010   -4.4830 F   0  0  0  0  0  0  0  0  0  0  0  0
   -1.6980   13.5890   -4.8100 C   0  0  2  0  0  0  0  0  0  0  0  0
   -0.2070   13.6700   -5.1040 C   0  0  0  0  0  0  0  0  0  0  0  0
   -2.1820   14.5360   -3.6850 C   0  0  0  0  0  0  0  0  0  0  0  0
   -1.2070   15.0870   -2.6950 N   0  0  0  0  0  0  0  0  0  0  0  0
    0.3210   15.0420   -4.7300 C   0  0  0  0  0  0  0  0  0  0  0  0
    0.1620   15.2690   -3.2280 C   0  0  0  0  0  0  0  0  0  0  0  0
   -1.3850   14.5530   -1.3330 C   0  0  1  0  0  0  0  0  0  0  0  0
   -0.1700   14.7900   -0.5160 N   0  0  0  0  0  0  0  0  0  0  0  0
   -2.5890   15.1090   -0.5280 C   0  0  2  0  0  0  0  0  0  0  0  0
   -0.2280   14.4430    0.9090 C   0  0  0  0  0  0  0  0  0  0  0  0
   -2.5460   14.1510    0.6080 C   0  0  1  0  0  0  0  0  0  0  0  0
   -4.0750   15.1420   -0.9140 C   0  0  0  0  0  0  0  0  0  0  0  0
   -1.5430   14.6360    1.5020 N   0  0  0  0  0  0  0  0  0  0  0  0
   -3.8510   14.0190    1.2290 N   0  0  0  0  0  0  0  0  0  0  0  0
   -4.8310   14.5180    0.3090 C   0  0  0  0  0  0  0  0  0  0  0  0
   -5.5810   15.3490    1.1610 N   0  0  0  0  0  0  0  0  0  0  0  0
   -5.8330   13.4990   -0.0680 N   0  0  0  0  0  0  0  0  0  0  0  0
   -7.1580   13.9210    0.4570 C   0  0  0  0  0  0  0  0  0  0  0  0
   -6.7260   14.6070    1.7080 C   0  0  0  0  0  0  0  0  0  0  0  0
  2  1  1  1
  2  3  1  0
  2  4  1  0
  4  5  1  0
  3  6  1  0
  5  7  1  0
  6  7  1  0
  8  5  1  6
  8  9  1  0
  8 10  1  0
  9 11  1  0
 10 12  1  0
 10 13  1  6
 11 14  1  0
 12 14  1  1
 12 15  1  0
 13 16  1  0
 16 15  1  0
 16 17  1  0
 16 18  1  0
 18 19  1  0
 17 20  1  0
 19 20  1  0
M  END
