ucsf493-ucsf348
     RDKit          3D

 30 33  0  0  0  0  0  0  0  0999 V2000
   -3.7840   15.1110   -6.7630 C   0  0  0  0  0  0  0  0  0  0  0  0
   -3.8750   15.6400   -5.4370 N   0  0  0  0  0  0  0  0  0  0  0  0
   -4.6960   14.6040   -4.7500 C   0  0  0  0  0  0  0  0  0  0  0  0
   -2.5640   16.0260   -4.8050 C   0  0  1  0  0  0  0  0  0  0  0  0
   -4.3190   14.1820   -3.3490 C   0  0  0  0  0  0  0  0  0  0  0  0
   -1.6250   14.7970   -4.8480 C   0  0  0  0  0  0  0  0  0  0  0  0
   -1.8130   17.2960   -5.3490 C   0  0  0  0  0  0  0  0  0  0  0  0
   -5.5230   13.6370   -2.5850 C   0  0  0  0  0  0  0  0  0  0  0  0
   -0.4480   15.0240   -3.9160 C   0  0  2  0  0  0  0  0  0  0  0  0
   -0.2750   17.2360   -5.3520 C   0  0  0  0  0  0  0  0  0  0  0  0
   -6.3720   14.6870   -2.1420 O   0  0  0  0  0  0  0  0  0  0  0  0
    0.3440   16.2910   -4.2990 C   0  0  2  0  0  0  0  0  0  0  0  0
    0.6360   13.9330   -3.8250 C   0  0  1  0  0  0  0  0  0  0  0  0
    0.2670   12.4380   -3.9430 C   0  0  0  0  0  0  0  0  0  0  0  0
    1.6890   15.8450   -4.6840 N   0  0  0  0  0  0  0  0  0  0  0  0
    1.6200   14.3850   -4.8630 C   0  0  0  0  0  0  0  0  0  0  0  0
   -6.0490   15.2850   -0.8840 C   0  0  1  0  0  0  0  0  0  0  0  0
   -0.1250   11.7250   -2.6040 C   0  0  1  0  0  0  0  0  0  0  0  0
   -6.7030   14.5410    0.1750 N   0  0  0  0  0  0  0  0  0  0  0  0
   -4.5240   15.5200   -0.7380 C   0  0  1  0  0  0  0  0  0  0  0  0
    0.4630   10.4380   -2.5650 O   0  0  0  0  0  0  0  0  0  0  0  0
    0.4450   12.2520   -1.5380 O   0  0  0  0  0  0  0  0  0  0  0  0
   -6.0770   14.3950    1.4460 C   0  0  2  0  0  0  0  0  0  0  0  0
   -4.0240   15.5740    0.7050 C   0  0  1  0  0  0  0  0  0  0  0  0
   -3.5660   14.7050   -1.6040 C   0  0  0  0  0  0  0  0  0  0  0  0
   -7.0290   14.4950    2.5040 N   0  0  0  0  0  0  0  0  0  0  0  0
   -5.0470   15.3420    1.7280 N   0  0  0  0  0  0  0  0  0  0  0  0
   -2.7930   14.6890    0.9520 C   0  0  0  0  0  0  0  0  0  0  0  0
   -2.1100   15.1060   -1.4510 C   0  0  0  0  0  0  0  0  0  0  0  0
   -1.6480   15.0440   -0.0040 C   0  0  0  0  0  0  0  0  0  0  0  0
  1  2  1  0
  2  3  1  0
  4  2  1  6
  3  5  1  0
  4  6  1  0
  4  7  1  0
  5  8  1  0
  9  6  1  6
  7 10  1  0
  8 11  1  0
  9 12  1  0
 12 10  1  6
  9 13  1  0
 13 14  1  6
 12 15  1  0
 13 16  1  0
 15 16  1  0
 17 11  1  6
 14 18  1  0
 17 19  1  0
 17 20  1  0
 18 21  1  6
 18 22  1  0
 19 23  1  0
 20 24  1  0
 20 25  1  6
 23 26  1  1
 23 27  1  0
 24 27  1  0
 24 28  1  6
 25 29  1  0
 28 30  1  0
 29 30  1  0
M  CHG  1  22  -1
M  END
