ucsf511-ucsf385
     RDKit          3D

 23 26  0  0  0  0  0  0  0  0999 V2000
   -0.1780   13.4480   -2.5230 O   0  0  0  0  0  0  0  0  0  0  0  0
   -0.0170   14.7800   -2.0070 C   0  0  1  0  0  0  0  0  0  0  0  0
   -0.5560   15.6110   -2.8620 O   0  0  0  0  0  0  0  0  0  0  0  0
   -1.0610   13.4630   -3.6350 C   0  0  2  0  0  0  0  0  0  0  0  0
   -2.4680   13.7190   -3.0940 C   0  0  1  0  0  0  0  0  0  0  0  0
   -1.1230   12.2070   -4.4080 N   0  0  0  0  0  0  0  0  0  0  0  0
   -0.7010   14.8220   -0.5860 C   0  0  1  0  0  0  0  0  0  0  0  0
   -3.3980   12.8680   -3.9200 C   0  0  2  0  0  0  0  0  0  0  0  0
   -1.8340   12.4460   -5.6480 C   0  0  0  0  0  0  0  0  0  0  0  0
   -2.8300   13.3400   -1.7440 O   0  0  0  0  0  0  0  0  0  0  0  0
   -2.2570   14.9740   -0.2630 C   0  0  1  0  0  0  0  0  0  0  0  0
   -0.2090   13.6290    0.1820 C   0  0  0  0  0  0  0  0  0  0  0  0
   -3.1930   15.2510   -1.3620 N   0  0  0  0  0  0  0  0  0  0  0  0
   -3.1590   13.0280   -5.3560 N   0  0  0  0  0  0  0  0  0  0  0  0
   -4.2490   13.0040   -1.7800 C   0  0  2  0  0  0  0  0  0  0  0  0
   -4.7090   13.2330   -3.2350 C   0  0  1  0  0  0  0  0  0  0  0  0
   -0.4810   13.8810    1.6360 C   0  0  0  0  0  0  0  0  0  0  0  0
   -2.7180   13.9050    0.6850 C   0  0  0  0  0  0  0  0  0  0  0  0
   -5.2210   14.6600   -3.4400 C   0  0  0  0  0  0  0  0  0  0  0  0
   -5.0350   13.7970   -0.7190 C   0  0  0  0  0  0  0  0  0  0  0  0
   -1.9110   14.0440    1.9020 N   0  0  0  0  0  0  0  0  0  0  0  0
   -6.3940   14.9930   -2.5110 C   0  0  0  0  0  0  0  0  0  0  0  0
   -6.4180   14.1950   -1.2050 C   0  0  0  0  0  0  0  0  0  0  0  0
  1  2  1  0
  2  3  1  6
  4  1  1  1
  4  5  1  0
  4  6  1  0
  2  7  1  0
  5  8  1  0
  6  9  1  0
  5 10  1  1
  7 11  1  0
  7 12  1  6
 11 13  1  6
  8 14  1  6
  9 14  1  0
 10 15  1  0
  8 16  1  0
 15 16  1  0
 12 17  1  0
 11 18  1  0
 16 19  1  1
 15 20  1  1
 17 21  1  0
 18 21  1  0
 19 22  1  0
 20 23  1  0
 22 23  1  0
M  CHG  1   3  -1
M  END
