ucsf115-ucsf173
     RDKit          3D

 27 31  0  0  0  0  0  0  0  0999 V2000
   -2.1850   13.6410   -3.6400 C   0  0  0  0  0  0  0  0  0  0  0  0
   -1.7550   14.7120   -2.7100 N   0  0  0  0  0  0  0  0  0  0  0  0
   -1.9340   14.4070   -1.3100 C   0  0  1  0  0  0  0  0  0  0  0  0
   -1.6180   12.2780   -3.1810 C   0  0  1  0  0  0  0  0  0  0  0  0
   -1.8070   11.2480   -4.1950 O   0  0  0  0  0  0  0  0  0  0  0  0
   -0.1220   12.1450   -3.0520 C   0  0  2  0  0  0  0  0  0  0  0  0
   -0.0860   10.7160   -2.6690 C   0  0  0  0  0  0  0  0  0  0  0  0
   -0.7020   10.3330   -4.0010 C   0  0  0  0  0  0  0  0  0  0  0  0
   -0.6910   14.7870   -0.6200 N   0  0  0  0  0  0  0  0  0  0  0  0
   -3.1530   14.9100   -0.5450 C   0  0  2  0  0  0  0  0  0  0  0  0
    0.7910   13.1750   -2.4540 C   0  0  1  0  0  0  0  0  0  0  0  0
   -0.6580   14.5030    0.8120 C   0  0  0  0  0  0  0  0  0  0  0  0
   -3.0350   14.4700    0.8700 C   0  0  1  0  0  0  0  0  0  0  0  0
   -4.4890   14.3440   -0.8100 N   0  0  0  0  0  0  0  0  0  0  0  0
    1.9040   12.5990   -2.0870 O   0  0  0  0  0  0  0  0  0  0  0  0
    0.9550   14.1600   -3.6220 C   0  0  1  0  0  0  0  0  0  0  0  0
   -1.8460   15.0050    1.4850 N   0  0  0  0  0  0  0  0  0  0  0  0
   -4.1870   15.1710    1.3950 N   0  0  0  0  0  0  0  0  0  0  0  0
   -5.1740   14.9750    0.3210 C   0  0  0  0  0  0  0  0  0  0  0  0
   -0.3700   14.1740   -4.3980 C   0  0  0  0  0  0  0  0  0  0  0  0
    1.2300   15.6220   -3.3820 C   0  0  0  0  0  0  0  0  0  0  0  0
   -0.4390   15.5080   -5.1020 C   0  0  2  0  0  0  0  0  0  0  0  0
    0.7320   16.3340   -4.6320 C   0  0  1  0  0  0  0  0  0  0  0  0
   -1.8140   16.1880   -5.1400 C   0  0  0  0  0  0  0  0  0  0  0  0
    0.5300   17.8420   -4.4970 C   0  0  0  0  0  0  0  0  0  0  0  0
   -1.7190   17.5510   -5.7950 C   0  0  0  0  0  0  0  0  0  0  0  0
   -0.7320   18.4690   -5.1120 C   0  0  0  0  0  0  0  0  0  0  0  0
  1  2  1  0
  3  2  1  6
  4  1  1  6
  4  5  1  0
  4  6  1  0
  6  7  1  1
  5  8  1  0
  7  8  1  0
  3  9  1  0
  3 10  1  0
  6 11  1  0
  9 12  1  0
 10 13  1  0
 10 14  1  6
 11 15  1  6
 11 16  1  0
 12 17  1  0
 13 17  1  1
 13 18  1  0
 14 19  1  0
 18 19  1  0
 16 20  1  1
 16 21  1  0
 22 20  1  1
 23 21  1  1
 22 23  1  0
 22 24  1  0
 23 25  1  0
 24 26  1  0
 25 27  1  0
 26 27  1  0
M  CHG  1  15  -1
M  END
