ucsf017-ucsf110
     RDKit          3D

 23 27  0  0  0  0  0  0  0  0999 V2000
   -2.9860   14.9820    2.3300 N   0  0  0  0  0  0  0  0  0  0  0  0
   -2.1940   14.5570    1.2020 N   0  0  0  0  0  0  0  0  0  0  0  0
   -0.7490   14.8010    1.1000 C   0  0  0  0  0  0  0  0  0  0  0  0
   -2.7750   15.3560    0.2260 C   0  0  1  0  0  0  0  0  0  0  0  0
   -0.2720   14.4100   -0.2350 N   0  0  0  0  0  0  0  0  0  0  0  0
   -2.7020   14.6510   -1.0750 C   0  0  1  0  0  0  0  0  0  0  0  0
   -4.1920   15.4470    0.5750 N   0  0  0  0  0  0  0  0  0  0  0  0
   -1.1970   14.4040   -1.3760 C   0  0  2  0  0  0  0  0  0  0  0  0
   -3.7100   13.5730   -0.7430 C   0  0  0  0  0  0  0  0  0  0  0  0
   -4.8630   14.3910   -0.1570 C   0  0  0  0  0  0  0  0  0  0  0  0
   -3.2770   15.5710   -2.1370 C   0  0  0  0  0  0  0  0  0  0  0  0
   -0.8190   13.3910   -2.3560 N   0  0  0  0  0  0  0  0  0  0  0  0
   -0.9360   15.5990   -2.1790 N   0  0  0  0  0  0  0  0  0  0  0  0
   -2.0840   15.9370   -2.9860 C   0  0  0  0  0  0  0  0  0  0  0  0
    0.3070   15.7660   -2.8840 C   0  0  0  0  0  0  0  0  0  0  0  0
   -0.9400   13.6850   -3.7890 C   0  0  2  0  0  0  0  0  0  0  0  0
    0.4190   12.6160   -2.1430 C   0  0  0  0  0  0  0  0  0  0  0  0
   -2.1550   14.3500   -4.4490 C   0  0  0  0  0  0  0  0  0  0  0  0
   -1.0190   12.3920   -4.5820 C   0  0  1  0  0  0  0  0  0  0  0  0
    0.2060   11.2540   -2.7950 C   0  0  0  0  0  0  0  0  0  0  0  0
   -1.1070   12.9650   -5.9650 C   0  0  0  0  0  0  0  0  0  0  0  0
   -2.1370   13.9540   -5.8370 O   0  0  0  0  0  0  0  0  0  0  0  0
    0.1040   11.4210   -4.3000 C   0  0  0  0  0  0  0  0  0  0  0  0
  1  2  1  0
  2  3  1  0
  2  4  1  0
  3  5  1  0
  4  6  1  0
  4  7  1  1
  8  5  1  0
  6  8  1  0
  6  9  1  1
  7 10  1  0
  9 10  1  0
  6 11  1  0
  8 12  1  6
  8 13  1  0
 11 14  1  0
 13 14  1  0
 13 15  1  0
 12 16  1  0
 12 17  1  0
 16 18  1  1
 16 19  1  0
 17 20  1  0
 19 21  1  6
 18 22  1  0
 21 22  1  0
 19 23  1  0
 20 23  1  0
M  END
