ucsf030-ucsf340
     RDKit          3D

 32 36  0  0  0  0  0  0  0  0999 V2000
   -4.9040   14.5430   -0.5960 Cl  0  0  0  0  0  0  0  0  0  0  0  0
   -3.1960   15.1010   -0.4720 C   0  0  1  0  0  0  0  0  0  0  0  0
   -2.8850   15.3920    1.0160 C   0  0  1  0  0  0  0  0  0  0  0  0
   -2.2000   14.1060   -1.1620 C   0  0  1  0  0  0  0  0  0  0  0  0
   -4.0700   15.4930    1.8460 N   0  0  0  0  0  0  0  0  0  0  0  0
   -1.1250   13.5560   -0.2940 N   0  0  0  0  0  0  0  0  0  0  0  0
   -2.0270   14.4410    1.6510 N   0  0  0  0  0  0  0  0  0  0  0  0
   -3.0160   13.0390   -1.8220 N   0  0  0  0  0  0  0  0  0  0  0  0
   -0.8160   14.3220    0.8940 C   0  0  0  0  0  0  0  0  0  0  0  0
   -2.2020   12.0620   -2.5910 C   0  0  0  0  0  0  0  0  0  0  0  0
   -3.9830   13.5740   -2.7690 C   0  0  0  0  0  0  0  0  0  0  0  0
   -1.6530   12.6430   -3.9190 C   0  0  1  0  0  0  0  0  0  0  0  0
   -3.2570   14.5750   -3.6670 C   0  0  0  0  0  0  0  0  0  0  0  0
   -0.2050   12.1310   -4.2390 C   0  0  2  0  0  0  0  0  0  0  0  0
   -1.9960   11.9510   -5.2900 C   0  0  0  0  0  0  0  0  0  0  0  0
   -1.8040   14.1670   -3.9680 C   0  0  0  0  0  0  0  0  0  0  0  0
    0.9720   12.8680   -3.5870 C   0  0  1  0  0  0  0  0  0  0  0  0
   -0.5620   12.3090   -5.7340 C   0  0  0  0  0  0  0  0  0  0  0  0
    0.7580   14.4230   -3.4170 C   0  0  0  0  0  0  0  0  0  0  0  0
    1.1630   12.0420   -2.2920 C   0  0  1  0  0  0  0  0  0  0  0  0
    0.4920   12.6410   -1.2170 O   0  0  0  0  0  0  0  0  0  0  0  0
    0.5980   10.8260   -2.3220 O   0  0  0  0  0  0  0  0  0  0  0  0
    0.2870   15.2930   -4.6000 C   0  0  2  0  0  0  0  0  0  0  0  0
    1.0520   16.5510   -4.9570 C   0  0  0  0  0  0  0  0  0  0  0  0
   -1.1810   15.6960   -4.7050 C   0  0  1  0  0  0  0  0  0  0  0  0
    0.1690   17.2580   -5.8900 N   0  0  0  0  0  0  0  0  0  0  0  0
   -1.1230   17.1550   -5.2660 C   0  0  1  0  0  0  0  0  0  0  0  0
   -1.9990   14.6230   -5.4680 C   0  0  0  0  0  0  0  0  0  0  0  0
    0.6210   18.6030   -6.1710 C   0  0  0  0  0  0  0  0  0  0  0  0
   -3.2040   15.1220   -6.2350 C   0  0  0  0  0  0  0  0  0  0  0  0
   -2.2820   17.5340   -6.1340 C   0  0  0  0  0  0  0  0  0  0  0  0
   -3.4200   16.5460   -5.9160 C   0  0  0  0  0  0  0  0  0  0  0  0
  2  1  1  1
  2  3  1  0
  2  4  1  0
  3  5  1  1
  4  6  1  0
  3  7  1  0
  4  8  1  1
  6  9  1  0
  7  9  1  0
  8 10  1  0
  8 11  1  0
 12 10  1  1
 11 13  1  0
 12 14  1  0
 12 15  1  0
 12 16  1  0
 13 16  1  0
 14 17  1  0
 14 18  1  6
 15 18  1  0
 17 19  1  1
 17 20  1  0
 20 21  1  1
 20 22  1  0
 23 19  1  1
 23 24  1  0
 23 25  1  0
 24 26  1  0
 25 27  1  0
 26 27  1  0
 25 28  1  6
 26 29  1  0
 28 30  1  0
 27 31  1  6
 30 32  1  0
 31 32  1  0
M  CHG  1  22  -1
M  END
