ucsf378-ucsf404
     RDKit          3D

 25 27  0  0  0  0  0  0  0  0999 V2000
   -2.2990   13.8450   -4.7360 Cl  0  0  0  0  0  0  0  0  0  0  0  0
   -0.9170   14.6070   -3.9090 C   0  0  1  0  0  0  0  0  0  0  0  0
    0.2040   13.5830   -3.4340 C   0  0  1  0  0  0  0  0  0  0  0  0
   -0.5000   15.8520   -4.6900 C   0  0  0  0  0  0  0  0  0  0  0  0
   -0.1000   12.0940   -3.7460 C   0  0  0  0  0  0  0  0  0  0  0  0
    1.6470   14.0720   -3.6620 C   0  0  1  0  0  0  0  0  0  0  0  0
    0.8420   16.3230   -4.2430 C   0  0  0  0  0  0  0  0  0  0  0  0
    2.8400   12.8210   -4.0730 Cl  0  0  0  0  0  0  0  0  0  0  0  0
   -0.3620   11.2720   -2.4840 C   0  0  2  0  0  0  0  0  0  0  0  0
    1.7730   15.2080   -4.5960 C   0  0  0  0  0  0  0  0  0  0  0  0
    0.1990   11.9990   -1.3940 O   0  0  0  0  0  0  0  0  0  0  0  0
    0.3090   10.0450   -2.5510 O   0  0  0  0  0  0  0  0  0  0  0  0
   -0.5710   13.1110   -0.9740 C   0  0  0  0  0  0  0  0  0  0  0  0
   -1.9010   13.1880   -1.7310 C   0  0  0  0  0  0  0  0  0  0  0  0
   -2.5150   14.5830   -1.5510 C   0  0  1  0  0  0  0  0  0  0  0  0
   -3.9010   14.7430   -2.2470 C   0  0  0  0  0  0  0  0  0  0  0  0
   -2.5910   14.8430   -0.0410 C   0  0  0  0  0  0  0  0  0  0  0  0
   -3.8680   14.2350    0.4010 C   0  0  2  0  0  0  0  0  0  0  0  0
   -5.0220   15.4330   -1.4360 C   0  0  1  0  0  0  0  0  0  0  0  0
   -6.6530   15.0060   -2.0470 Cl  0  0  0  0  0  0  0  0  0  0  0  0
   -4.9320   15.2540    0.0860 C   0  0  1  0  0  0  0  0  0  0  0  0
   -4.0500   13.9480    2.1490 S   0  0  0  0  0  0  0  0  0  0  0  0
   -5.6560   14.7440    2.1600 C   0  0  1  0  0  0  0  0  0  0  0  0
   -6.1310   14.8270    0.8030 N   0  0  0  0  0  0  0  0  0  0  0  0
   -6.6480   13.9630    2.8040 N   0  0  0  0  0  0  0  0  0  0  0  0
  2  1  1  6
  2  3  1  0
  2  4  1  0
  3  5  1  6
  3  6  1  0
  4  7  1  0
  6  8  1  6
  5  9  1  0
  6 10  1  0
  7 10  1  0
  9 11  1  0
  9 12  1  6
 11 13  1  0
 13 14  1  0
 15 14  1  1
 15 16  1  0
 15 17  1  0
 18 17  1  1
 16 19  1  0
 19 20  1  6
 18 21  1  0
 19 21  1  0
 18 22  1  0
 22 23  1  0
 21 24  1  6
 23 24  1  0
 23 25  1  1
M  END
