ucsf135-ucsf124
     RDKit          3D

 14 15  0  0  0  0  0  0  0  0999 V2000
    0.6040   12.0840   -7.8840 O   0  0  0  0  0  0  0  0  0  0  0  0
    0.7470   11.4230   -6.6890 C   0  0  1  0  0  0  0  0  0  0  0  0
    0.2560   12.2460   -5.5910 N   0  0  0  0  0  0  0  0  0  0  0  0
   -0.0330   10.0720   -6.7590 C   0  0  1  0  0  0  0  0  0  0  0  0
   -0.6170   11.3420   -4.5290 S   0  0  2  0  0  0  0  0  0  0  0  0
   -0.7960    9.7960   -5.4170 C   0  0  1  0  0  0  0  0  0  0  0  0
   -0.9890   10.0180   -7.9500 C   0  0  0  0  0  0  0  0  0  0  0  0
   -2.0710   11.9430   -4.2610 O   0  0  0  0  0  0  0  0  0  0  0  0
    0.1620   11.0700   -3.1620 O   0  0  0  0  0  0  0  0  0  0  0  0
   -2.2330    9.3320   -5.6150 C   0  0  0  0  0  0  0  0  0  0  0  0
   -1.7100    8.6730   -8.0120 C   0  0  0  0  0  0  0  0  0  0  0  0
    0.9340   12.1810   -2.7290 C   0  0  0  0  0  0  0  0  0  0  0  0
   -2.3150    8.2400   -6.6760 C   0  0  0  0  0  0  0  0  0  0  0  0
    0.5540   12.6020   -1.4250 O   0  0  0  0  0  0  0  0  0  0  0  0
  2  1  1  6
  2  3  1  0
  2  4  1  0
  3  5  1  0
  4  6  1  0
  5  6  1  0
  4  7  1  6
  5  8  1  1
  5  9  1  0
  6 10  1  6
  7 11  1  0
  9 12  1  0
 10 13  1  0
 11 13  1  0
 12 14  1  0
M  END
