ucsf241-ucsf345
     RDKit          3D

 12 13  0  0  0  0  0  0  0  0999 V2000
   -6.6120   14.7990    1.6380 N   0  0  0  0  0  0  0  0  0  0  0  0
   -6.1140   14.8340    0.2700 C   0  0  2  0  0  0  0  0  0  0  0  0
   -6.9400   13.9410   -0.4450 O   0  0  0  0  0  0  0  0  0  0  0  0
   -4.5940   14.5060    0.1250 C   0  0  1  0  0  0  0  0  0  0  0  0
   -3.8260   15.0920   -1.0670 C   0  0  0  0  0  0  0  0  0  0  0  0
   -3.7560   15.0470    1.2200 N   0  0  0  0  0  0  0  0  0  0  0  0
   -2.4400   14.5800   -0.7090 C   0  0  2  0  0  0  0  0  0  0  0  0
   -2.4590   14.5480    0.8260 C   0  0  1  0  0  0  0  0  0  0  0  0
   -1.1920   15.2950   -1.2010 C   0  0  0  0  0  0  0  0  0  0  0  0
   -1.3940   15.3230    1.3710 N   0  0  0  0  0  0  0  0  0  0  0  0
    0.0070   14.6060   -0.5310 C   0  0  0  0  0  0  0  0  0  0  0  0
   -0.1210   14.7110    0.9830 C   0  0  0  0  0  0  0  0  0  0  0  0
  2  1  1  1
  2  3  1  0
  2  4  1  0
  4  5  1  6
  4  6  1  0
  7  5  1  1
  8  6  1  1
  7  8  1  0
  7  9  1  0
  8 10  1  0
  9 11  1  0
 10 12  1  0
 11 12  1  0
M  END
