ucsf333-ucsf012
     RDKit          3D

 27 30  0  0  0  0  0  0  0  0999 V2000
   -6.5290   15.1290   -1.9310 Cl  0  0  0  0  0  0  0  0  0  0  0  0
   -4.7590   15.4120   -1.8020 C   0  0  2  0  0  0  0  0  0  0  0  0
   -3.9260   15.2910   -3.1320 C   0  0  2  0  0  0  0  0  0  0  0  0
   -4.2420   14.5180   -0.6800 C   0  0  0  0  0  0  0  0  0  0  0  0
   -4.4540   14.3570   -4.2040 C   0  0  0  0  0  0  0  0  0  0  0  0
   -2.4590   15.0570   -2.8320 C   0  0  1  0  0  0  0  0  0  0  0  0
   -2.7590   14.7950   -0.3980 C   0  0  1  0  0  0  0  0  0  0  0  0
   -1.5250   15.5900   -3.8260 N   0  0  0  0  0  0  0  0  0  0  0  0
   -2.1800   15.6900   -1.4700 C   0  0  1  0  0  0  0  0  0  0  0  0
   -2.5670   15.4120    0.9720 C   0  0  1  0  0  0  0  0  0  0  0  0
   -1.9500   13.5370   -0.3820 C   0  0  0  0  0  0  0  0  0  0  0  0
   -3.7970   15.4760    1.7490 N   0  0  0  0  0  0  0  0  0  0  0  0
   -0.2050   15.4640   -3.1990 C   0  0  1  0  0  0  0  0  0  0  0  0
   -0.4100   16.0480   -1.4950 S   0  0  0  0  0  0  0  0  0  0  0  0
   -1.6230   14.7300    1.7790 N   0  0  0  0  0  0  0  0  0  0  0  0
   -0.5400   13.7450   -0.0730 N   0  0  0  0  0  0  0  0  0  0  0  0
    0.4280   14.0880   -3.1950 C   0  0  2  0  0  0  0  0  0  0  0  0
   -0.3410   14.4220    1.1770 C   0  0  0  0  0  0  0  0  0  0  0  0
    1.6130   13.9150   -4.1340 C   0  0  0  0  0  0  0  0  0  0  0  0
   -0.4740   12.8560   -3.2110 C   0  0  2  0  0  0  0  0  0  0  0  0
    2.2670   12.6000   -3.7530 C   0  0  1  0  0  0  0  0  0  0  0  0
   -0.0880   11.8210   -2.1750 C   0  0  0  0  0  0  0  0  0  0  0  0
   -0.5490   12.1750   -4.4810 O   0  0  0  0  0  0  0  0  0  0  0  0
    2.5140   12.6010   -2.4650 O   0  0  0  0  0  0  0  0  0  0  0  0
    1.2210   11.6500   -3.9290 O   0  0  0  0  0  0  0  0  0  0  0  0
   -0.7960   10.7900   -4.2350 C   0  0  0  0  0  0  0  0  0  0  0  0
   -0.3940   10.5030   -2.8100 C   0  0  0  0  0  0  0  0  0  0  0  0
  2  1  1  6
  2  3  1  0
  2  4  1  0
  3  5  1  6
  3  6  1  0
  7  4  1  6
  6  8  1  6
  6  9  1  0
  7  9  1  0
  7 10  1  0
  7 11  1  0
 10 12  1  1
 13  8  1  1
  9 14  1  1
 13 14  1  0
 10 15  1  0
 11 16  1  0
 13 17  1  0
 15 18  1  0
 16 18  1  0
 17 19  1  6
 17 20  1  0
 19 21  1  0
 20 22  1  1
 20 23  1  0
 21 24  1  1
 21 25  1  0
 23 26  1  0
 22 27  1  0
 26 27  1  0
M  CHG  1  24  -1
M  END
