ucsf412-ucsf387
     RDKit          3D

 25 27  0  0  0  0  0  0  0  0999 V2000
   -8.2520   14.3250   -0.8200 O   0  0  0  0  0  0  0  0  0  0  0  0
   -7.1570   14.9460   -0.1980 C   0  0  1  0  0  0  0  0  0  0  0  0
   -7.4330   14.8520    1.2200 N   0  0  0  0  0  0  0  0  0  0  0  0
   -5.8520   14.3270   -0.7230 C   0  0  2  0  0  0  0  0  0  0  0  0
   -4.5890   14.4520    0.1720 C   0  0  2  0  0  0  0  0  0  0  0  0
   -6.2530   14.6500    2.0330 C   0  0  0  0  0  0  0  0  0  0  0  0
   -5.5650   14.8800   -2.1090 C   0  0  0  0  0  0  0  0  0  0  0  0
   -4.9190   15.1630    1.4580 C   0  0  0  0  0  0  0  0  0  0  0  0
   -3.4100   15.1700   -0.4980 C   0  0  0  0  0  0  0  0  0  0  0  0
   -4.3300   14.1530   -2.5870 C   0  0  2  0  0  0  0  0  0  0  0  0
   -3.1060   14.7690   -1.9400 C   0  0  0  0  0  0  0  0  0  0  0  0
   -4.2700   13.9170   -4.1030 C   0  0  0  0  0  0  0  0  0  0  0  0
   -4.1300   15.1500   -4.9720 C   0  0  0  0  0  0  0  0  0  0  0  0
   -2.9260   15.2090   -5.8620 C   0  0  0  0  0  0  0  0  0  0  0  0
   -1.6670   15.3340   -5.0000 C   0  0  1  0  0  0  0  0  0  0  0  0
   -0.6960   14.1640   -5.0670 C   0  0  0  0  0  0  0  0  0  0  0  0
   -0.9400   16.6600   -5.2040 C   0  0  0  0  0  0  0  0  0  0  0  0
    0.3840   14.2650   -4.0100 C   0  0  1  0  0  0  0  0  0  0  0  0
    0.5890   16.6100   -5.1190 C   0  0  1  0  0  0  0  0  0  0  0  0
    1.0040   18.1870   -4.4290 Cl  0  0  0  0  0  0  0  0  0  0  0  0
    1.1810   12.9780   -3.6610 C   0  0  0  0  0  0  0  0  0  0  0  0
    1.2430   15.5130   -4.2510 C   0  0  0  0  0  0  0  0  0  0  0  0
    0.3730   12.1400   -2.6450 C   0  0  1  0  0  0  0  0  0  0  0  0
    0.7190   10.8710   -2.5290 O   0  0  0  0  0  0  0  0  0  0  0  0
    0.6790   12.6220   -1.3510 O   0  0  0  0  0  0  0  0  0  0  0  0
  2  1  1  6
  2  3  1  0
  2  4  1  0
  4  5  1  0
  3  6  1  0
  4  7  1  6
  5  8  1  1
  6  8  1  0
  5  9  1  0
  7 10  1  0
  9 11  1  0
 10 11  1  0
 10 12  1  6
 12 13  1  0
 13 14  1  0
 15 14  1  6
 15 16  1  0
 15 17  1  0
 16 18  1  0
 17 19  1  0
 19 20  1  1
 18 21  1  6
 18 22  1  0
 19 22  1  0
 21 23  1  0
 23 24  1  1
 23 25  1  0
M  CHG  1  24  -1
M  END
