ucsf424-ucsf378
     RDKit          3D

 21 23  0  0  0  0  0  0  0  0999 V2000
    0.9590   12.8740   -2.2400 O   0  0  0  0  0  0  0  0  0  0  0  0
    0.4870   12.1830   -3.2690 C   0  0  1  0  0  0  0  0  0  0  0  0
   -0.6580   11.4670   -2.7870 O   0  0  0  0  0  0  0  0  0  0  0  0
    0.2710   13.1000   -4.6030 C   0  0  2  0  0  0  0  0  0  0  0  0
   -0.0970   10.1410   -2.5110 O   0  0  0  0  0  0  0  0  0  0  0  0
    0.0350   12.2370   -5.9510 C   0  0  1  0  0  0  0  0  0  0  0  0
    1.6710   13.7840   -4.7300 C   0  0  2  0  0  0  0  0  0  0  0  0
   -0.8810   14.2280   -4.5290 C   0  0  1  0  0  0  0  0  0  0  0  0
   -2.3440   13.7890   -3.5380 Cl  0  0  0  0  0  0  0  0  0  0  0  0
    3.0350   12.7810   -4.1120 Cl  0  0  0  0  0  0  0  0  0  0  0  0
    1.2510   11.7420   -6.6170 N   0  0  0  0  0  0  0  0  0  0  0  0
   -1.0430   11.1530   -6.1640 C   0  0  1  0  0  0  0  0  0  0  0  0
    1.8480   15.1200   -4.0340 C   0  0  0  0  0  0  0  0  0  0  0  0
   -0.5190   15.6550   -4.0670 C   0  0  0  0  0  0  0  0  0  0  0  0
    0.8820   10.6040   -7.4520 O   0  0  0  0  0  0  0  0  0  0  0  0
   -0.5360   10.4620   -7.4320 C   0  0  1  0  0  0  0  0  0  0  0  0
   -1.3950   10.1010   -5.1220 C   0  0  0  0  0  0  0  0  0  0  0  0
    0.8470   16.1370   -4.4930 C   0  0  0  0  0  0  0  0  0  0  0  0
   -0.8700    8.9750   -7.5410 C   0  0  0  0  0  0  0  0  0  0  0  0
   -2.4930    9.1540   -5.6330 C   0  0  0  0  0  0  0  0  0  0  0  0
   -2.2870    8.6920   -7.0760 C   0  0  0  0  0  0  0  0  0  0  0  0
  2  1  1  1
  2  3  1  0
  4  2  1  1
  3  5  1  0
  4  6  1  0
  4  7  1  0
  4  8  1  0
  8  9  1  1
  7 10  1  1
  6 11  1  1
  6 12  1  0
  7 13  1  0
  8 14  1  0
 11 15  1  0
 12 16  1  0
 15 16  1  0
 12 17  1  1
 13 18  1  0
 14 18  1  0
 16 19  1  1
 17 20  1  0
 19 21  1  0
 20 21  1  0
M  CHG  1   1  -1
M  END
