ucsf403-ucsf333
     RDKit          3D

 24 26  0  0  0  0  0  0  0  0999 V2000
    0.9120    9.6080   -7.9360 Cl  0  0  0  0  0  0  0  0  0  0  0  0
   -0.5670    9.9980   -6.9770 C   0  0  2  0  0  0  0  0  0  0  0  0
   -0.4710   10.9230   -5.7300 C   0  0  1  0  0  0  0  0  0  0  0  0
   -1.2680    8.7120   -6.5360 C   0  0  0  0  0  0  0  0  0  0  0  0
    0.4430   12.0470   -5.8210 O   0  0  0  0  0  0  0  0  0  0  0  0
   -1.9310   11.3540   -5.5290 C   0  0  2  0  0  0  0  0  0  0  0  0
   -2.6720    8.9250   -5.9400 C   0  0  0  0  0  0  0  0  0  0  0  0
   -2.2450   12.7680   -4.4740 Cl  0  0  0  0  0  0  0  0  0  0  0  0
    1.0860   12.7150   -4.6430 C   0  0  2  0  0  0  0  0  0  0  0  0
   -2.8460   10.1960   -5.1070 C   0  0  0  0  0  0  0  0  0  0  0  0
    1.2680   11.9430   -3.2800 C   0  0  1  0  0  0  0  0  0  0  0  0
    0.4810   14.1290   -4.3480 C   0  0  0  0  0  0  0  0  0  0  0  0
    0.7210   12.5520   -2.2640 O   0  0  0  0  0  0  0  0  0  0  0  0
    0.5610   10.7210   -3.2310 O   0  0  0  0  0  0  0  0  0  0  0  0
   -0.5870   14.1870   -3.2180 C   0  0  2  0  0  0  0  0  0  0  0  0
   -1.6370   15.1210   -3.5950 N   0  0  0  0  0  0  0  0  0  0  0  0
   -0.0510   14.7630   -1.5520 S   0  0  0  0  0  0  0  0  0  0  0  0
   -2.4800   15.5290   -2.4810 C   0  0  2  0  0  0  0  0  0  0  0  0
   -1.7010   15.4480   -1.1460 C   0  0  1  0  0  0  0  0  0  0  0  0
   -3.8540   14.8680   -2.4120 C   0  0  0  0  0  0  0  0  0  0  0  0
   -2.4620   14.7050   -0.0300 C   0  0  0  0  0  0  0  0  0  0  0  0
   -4.5970   15.4810   -1.2280 C   0  0  2  0  0  0  0  0  0  0  0  0
   -3.9050   15.2180    0.1220 C   0  0  0  0  0  0  0  0  0  0  0  0
   -6.3350   15.0280   -1.2410 Cl  0  0  0  0  0  0  0  0  0  0  0  0
  2  1  1  1
  2  3  1  0
  2  4  1  0
  3  5  1  6
  3  6  1  0
  4  7  1  0
  6  8  1  1
  5  9  1  0
  6 10  1  0
  7 10  1  0
  9 11  1  0
  9 12  1  1
 11 13  1  1
 11 14  1  0
 15 12  1  6
 15 16  1  0
 15 17  1  0
 16 18  1  0
 17 19  1  0
 18 19  1  0
 18 20  1  1
 19 21  1  1
 20 22  1  0
 21 23  1  0
 22 23  1  0
 22 24  1  1
M  CHG  1  13  -1
M  END
