ucsf039-ucsf516
     RDKit          3D

 25 29  0  0  0  0  0  0  0  0999 V2000
   -4.3810   15.2890    1.0700 N   0  0  0  0  0  0  0  0  0  0  0  0
   -3.4840   15.3660   -0.0650 C   0  0  1  0  0  0  0  0  0  0  0  0
   -2.3210   14.3570   -0.0030 C   0  0  1  0  0  0  0  0  0  0  0  0
   -4.3560   15.0900   -1.1650 N   0  0  0  0  0  0  0  0  0  0  0  0
   -3.6480   15.3450   -2.3970 C   0  0  0  0  0  0  0  0  0  0  0  0
   -1.8070   13.9420   -1.4320 C   0  0  1  0  0  0  0  0  0  0  0  0
   -1.1490   14.8240    0.7900 N   0  0  0  0  0  0  0  0  0  0  0  0
   -2.5890   14.3940   -2.6230 N   0  0  0  0  0  0  0  0  0  0  0  0
   -0.4610   14.6780   -1.4800 C   0  0  1  0  0  0  0  0  0  0  0  0
    0.0220   14.5320   -0.0340 C   0  0  0  0  0  0  0  0  0  0  0  0
   -1.8430   14.6080   -3.9050 C   0  0  0  0  0  0  0  0  0  0  0  0
    0.2840   14.0500   -2.7090 C   0  0  2  0  0  0  0  0  0  0  0  0
   -0.6680   16.1260   -1.8850 C   0  0  0  0  0  0  0  0  0  0  0  0
   -1.1370   15.9530   -4.3580 C   0  0  1  0  0  0  0  0  0  0  0  0
    1.2190   12.9200   -2.3810 C   0  0  0  0  0  0  0  0  0  0  0  0
    1.0560   15.2110   -3.3070 C   0  0  0  0  0  0  0  0  0  0  0  0
    0.0660   16.3560   -3.1950 C   0  0  0  0  0  0  0  0  0  0  0  0
    0.2730   15.8400   -4.9790 C   0  0  0  0  0  0  0  0  0  0  0  0
   -1.8910   16.8020   -5.2950 N   0  0  0  0  0  0  0  0  0  0  0  0
    2.4600   12.7840   -3.3120 C   0  0  0  0  0  0  0  0  0  0  0  0
    0.7320   11.5220   -2.8540 C   0  0  0  0  0  0  0  0  0  0  0  0
   -1.0980   18.0240   -5.4490 C   0  0  1  0  0  0  0  0  0  0  0  0
    0.6430   17.5260   -5.5510 S   0  0  0  0  0  0  0  0  0  0  0  0
    1.8530   11.5160   -3.9130 C   0  0  0  0  0  0  0  0  0  0  0  0
   -1.5190   18.7850   -6.6930 C   0  0  0  0  0  0  0  0  0  0  0  0
  2  1  1  1
  2  3  1  0
  2  4  1  0
  4  5  1  0
  3  6  1  0
  3  7  1  1
  5  8  1  0
  6  8  1  6
  6  9  1  0
  7 10  1  0
  9 10  1  1
  8 11  1  0
  9 12  1  0
  9 13  1  0
 14 11  1  6
 12 15  1  1
 12 16  1  0
 13 17  1  0
 16 17  1  0
 14 18  1  0
 14 19  1  0
 15 20  1  0
 15 21  1  0
 19 22  1  0
 18 23  1  0
 22 23  1  0
 20 24  1  0
 21 24  1  0
 22 25  1  6
M  END
