ucsf411-ucsf135
     RDKit          3D

 26 29  0  0  0  0  0  0  0  0999 V2000
    1.1370   11.6610   -3.8040 O   0  0  0  0  0  0  0  0  0  0  0  0
    0.6890   12.6030   -2.8370 C   0  0  1  0  0  0  0  0  0  0  0  0
    0.9720   12.2620   -1.4920 O   0  0  0  0  0  0  0  0  0  0  0  0
    0.1400   11.7520   -4.8600 N   0  0  0  0  0  0  0  0  0  0  0  0
    1.3550   13.9060   -3.2450 C   0  0  0  0  0  0  0  0  0  0  0  0
    0.6310   11.4220   -6.2310 C   0  0  2  0  0  0  0  0  0  0  0  0
   -1.1020   10.7520   -4.3490 S   0  0  1  0  0  0  0  0  0  0  0  0
    1.3410   14.0750   -4.6600 O   0  0  0  0  0  0  0  0  0  0  0  0
    0.1640   12.4390   -7.0940 O   0  0  0  0  0  0  0  0  0  0  0  0
   -2.4400   11.5580   -4.7420 O   0  0  0  0  0  0  0  0  0  0  0  0
   -0.9880    9.5190   -5.6070 C   0  0  2  0  0  0  0  0  0  0  0  0
   -0.0580   10.1010   -6.7240 C   0  0  1  0  0  0  0  0  0  0  0  0
    0.0900   14.4590   -5.2370 C   0  0  2  0  0  0  0  0  0  0  0  0
   -2.3870    9.1440   -6.0620 C   0  0  0  0  0  0  0  0  0  0  0  0
   -0.8390   10.2470   -8.0270 C   0  0  0  0  0  0  0  0  0  0  0  0
   -0.0960   15.9740   -5.2530 C   0  0  1  0  0  0  0  0  0  0  0  0
   -1.1040   13.8520   -4.5240 C   0  0  0  0  0  0  0  0  0  0  0  0
   -2.3360    8.2790   -7.3030 C   0  0  0  0  0  0  0  0  0  0  0  0
   -1.5000    8.9170   -8.4180 C   0  0  0  0  0  0  0  0  0  0  0  0
   -1.5470   16.4870   -5.0750 C   0  0  2  0  0  0  0  0  0  0  0  0
   -2.3720   14.0930   -5.3360 C   0  0  0  0  0  0  0  0  0  0  0  0
    0.7760   16.7410   -4.2900 C   0  0  0  0  0  0  0  0  0  0  0  0
   -2.6900   15.5790   -5.5360 C   0  0  0  0  0  0  0  0  0  0  0  0
   -1.6110   17.8980   -5.6550 C   0  0  0  0  0  0  0  0  0  0  0  0
    0.7060   18.2180   -4.6370 C   0  0  0  0  0  0  0  0  0  0  0  0
   -0.2040   18.4850   -5.8410 C   0  0  0  0  0  0  0  0  0  0  0  0
  1  2  1  0
  2  3  1  1
  1  4  1  0
  2  5  1  0
  4  6  1  0
  4  7  1  0
  5  8  1  0
  6  9  1  6
  7 10  1  6
  7 11  1  0
  6 12  1  0
 11 12  1  0
 13  8  1  1
 11 14  1  6
 12 15  1  6
 13 16  1  0
 13 17  1  0
 14 18  1  0
 15 19  1  0
 18 19  1  0
 16 20  1  0
 17 21  1  0
 16 22  1  1
 20 23  1  6
 21 23  1  0
 20 24  1  0
 22 25  1  0
 24 26  1  0
 25 26  1  0
M  END
