ucsf371-ucsf147
     RDKit          3D

 15 16  0  0  0  0  0  0  0  0999 V2000
   -4.7030   14.7740    0.0640 C   0  0  0  0  0  0  0  0  0  0  0  0
   -4.7110   14.0910   -1.3090 C   0  0  1  0  0  0  0  0  0  0  0  0
   -4.3490   14.9780   -2.2270 N   0  0  0  0  0  0  0  0  0  0  0  0
   -3.2100   13.2190   -1.6190 S   0  0  0  0  0  0  0  0  0  0  0  0
   -2.9770   15.0730   -1.7530 C   0  0  0  0  0  0  0  0  0  0  0  0
   -2.0180   14.1940   -2.9990 S   0  0  0  0  0  0  0  0  0  0  0  0
   -0.3960   15.1140   -2.9890 C   0  0  0  0  0  0  0  0  0  0  0  0
   -2.5640   13.3180   -4.6400 N   0  0  0  0  0  0  0  0  0  0  0  0
   -1.1320   12.7290   -3.4270 C   0  0  0  0  0  0  0  0  0  0  0  0
   -0.4580   16.1720   -3.8300 O   0  0  0  0  0  0  0  0  0  0  0  0
    0.6280   14.2720   -3.3230 O   0  0  0  0  0  0  0  0  0  0  0  0
    0.0820   15.5190   -1.8150 O   0  0  0  0  0  0  0  0  0  0  0  0
   -0.4510   13.1440   -4.7230 C   0  0  2  0  0  0  0  0  0  0  0  0
   -1.4470   13.5130   -5.4980 O   0  0  0  0  0  0  0  0  0  0  0  0
    0.7310   12.3590   -5.1810 C   0  0  0  0  0  0  0  0  0  0  0  0
  2  1  1  1
  2  3  1  0
  2  4  1  0
  3  5  1  0
  4  6  1  0
  5  6  1  0
  6  7  1  0
  6  8  1  0
  6  9  1  0
  7 10  1  0
  7 11  1  0
  7 12  1  0
  9 13  1  0
  8 14  1  0
 13 14  1  0
 13 15  1  6
M  CHG  1  11  -1
M  END
