ucsf378-ucsf396
     RDKit          3D

 24 25  0  0  0  0  0  0  0  0999 V2000
   -2.3410   14.0380   -3.7680 Cl  0  0  0  0  0  0  0  0  0  0  0  0
   -0.8580   14.3730   -4.6960 C   0  0  2  0  0  0  0  0  0  0  0  0
    0.3060   13.3430   -4.4770 C   0  0  0  0  0  0  0  0  0  0  0  0
   -0.5290   15.8720   -4.6480 C   0  0  0  0  0  0  0  0  0  0  0  0
   -0.0530   11.8860   -4.0430 C   0  0  0  0  0  0  0  0  0  0  0  0
    1.5430   13.8940   -3.7330 C   0  0  1  0  0  0  0  0  0  0  0  0
    0.6490   16.2030   -3.7550 C   0  0  0  0  0  0  0  0  0  0  0  0
    2.9830   12.9090   -4.1330 Cl  0  0  0  0  0  0  0  0  0  0  0  0
   -0.2960   11.4450   -2.5720 C   0  0  2  0  0  0  0  0  0  0  0  0
    1.8260   15.3330   -4.0810 C   0  0  0  0  0  0  0  0  0  0  0  0
    0.2610   12.3150   -1.6020 O   0  0  0  0  0  0  0  0  0  0  0  0
    0.2840   10.1610   -2.4450 O   0  0  0  0  0  0  0  0  0  0  0  0
   -0.5150   13.4870   -1.3610 C   0  0  0  0  0  0  0  0  0  0  0  0
   -0.2270   14.1170    0.0000 C   0  0  0  0  0  0  0  0  0  0  0  0
   -1.4840   14.6430    0.6870 C   0  0  0  0  0  0  0  0  0  0  0  0
   -2.6240   14.7570   -0.2400 N   0  0  0  0  0  0  0  0  0  0  0  0
   -3.7600   15.2930    0.4790 C   0  0  2  0  0  0  0  0  0  0  0  0
   -3.3670   15.1820    1.8390 O   0  0  0  0  0  0  0  0  0  0  0  0
   -5.0910   14.5640    0.1650 C   0  0  2  0  0  0  0  0  0  0  0  0
   -5.8470   15.2520   -0.9800 C   0  0  0  0  0  0  0  0  0  0  0  0
   -5.9350   14.3940    1.4490 C   0  0  0  0  0  0  0  0  0  0  0  0
   -7.1220   14.5790   -1.1770 N   0  0  0  0  0  0  0  0  0  0  0  0
   -7.4630   14.4440    1.3380 C   0  0  0  0  0  0  0  0  0  0  0  0
   -8.0200   14.7940   -0.0450 C   0  0  0  0  0  0  0  0  0  0  0  0
  2  1  1  1
  2  3  1  0
  2  4  1  0
  3  5  1  0
  3  6  1  0
  4  7  1  0
  6  8  1  6
  5  9  1  0
  6 10  1  0
  7 10  1  0
  9 11  1  0
  9 12  1  6
 11 13  1  0
 13 14  1  0
 14 15  1  0
 15 16  1  0
 16 17  1  0
 17 18  1  1
 17 19  1  0
 19 20  1  6
 19 21  1  0
 20 22  1  0
 21 23  1  0
 22 24  1  0
 23 24  1  0
M  END
