ucsf357-ucsf523
     RDKit          3D

 16 17  0  0  0  0  0  0  0  0999 V2000
   -5.4840   13.2840   -1.8690 O   0  0  0  0  0  0  0  0  0  0  0  0
   -5.4040   14.5310   -1.5550 C   0  0  1  0  0  0  0  0  0  0  0  0
   -6.3680   14.6560   -0.5240 O   0  0  0  0  0  0  0  0  0  0  0  0
   -4.0110   15.0280   -1.0070 C   0  0  2  0  0  0  0  0  0  0  0  0
   -3.3030   15.6430   -2.2560 C   0  0  0  0  0  0  0  0  0  0  0  0
   -2.9190   14.1320   -0.2860 C   0  0  1  0  0  0  0  0  0  0  0  0
   -4.3800   16.0680    0.0430 C   0  0  0  0  0  0  0  0  0  0  0  0
   -2.0790   14.8480   -2.6530 C   0  0  1  0  0  0  0  0  0  0  0  0
   -1.5380   14.8680   -0.2140 C   0  0  1  0  0  0  0  0  0  0  0  0
   -4.8260   15.4360    1.3400 C   0  0  0  0  0  0  0  0  0  0  0  0
   -3.1930   13.7250    1.1620 C   0  0  0  0  0  0  0  0  0  0  0  0
   -1.6310   15.2290   -3.8880 F   0  0  0  0  0  0  0  0  0  0  0  0
   -0.5380   14.2020    0.6730 N   0  0  0  0  0  0  0  0  0  0  0  0
   -0.9920   15.1200   -1.6240 C   0  0  1  0  0  0  0  0  0  0  0  0
   -3.8060   14.7010    1.9960 N   0  0  0  0  0  0  0  0  0  0  0  0
    0.1760   14.3210   -1.8840 O   0  0  0  0  0  0  0  0  0  0  0  0
  2  1  1  1
  2  3  1  0
  2  4  1  0
  4  5  1  6
  4  6  1  0
  4  7  1  0
  5  8  1  0
  6  9  1  0
  7 10  1  0
  6 11  1  1
  8 12  1  6
  9 13  1  1
  8 14  1  0
  9 14  1  0
 10 15  1  0
 11 15  1  0
 14 16  1  6
M  CHG  1   1  -1
M  END
