ucsf519-ucsf004
     RDKit          3D

 26 28  0  0  0  0  0  0  0  0999 V2000
   -2.4970   13.2370   -6.0700 C   0  0  0  0  0  0  0  0  0  0  0  0
   -2.3740   12.9210   -4.6280 C   0  0  2  0  0  0  0  0  0  0  0  0
   -1.8910   11.1920   -4.3660 S   0  0  0  0  0  0  0  0  0  0  0  0
   -3.2890   13.5180   -3.6520 C   0  0  1  0  0  0  0  0  0  0  0  0
   -0.1320   10.9410   -4.1440 C   0  0  0  0  0  0  0  0  0  0  0  0
   -4.5380   12.8060   -3.8670 O   0  0  0  0  0  0  0  0  0  0  0  0
   -3.1610   13.6160   -2.3370 N   0  0  0  0  0  0  0  0  0  0  0  0
    0.2810   11.2530   -2.7190 C   0  0  2  0  0  0  0  0  0  0  0  0
   -4.2740   14.1340   -1.7840 C   0  0  0  0  0  0  0  0  0  0  0  0
   -1.7740   14.0690   -1.4030 S   0  0  0  0  0  0  0  0  0  0  0  0
    1.3880   12.1000   -2.6750 O   0  0  0  0  0  0  0  0  0  0  0  0
    0.5850   10.0520   -2.0570 O   0  0  0  0  0  0  0  0  0  0  0  0
   -0.1630   13.5220   -0.4530 O   0  0  0  0  0  0  0  0  0  0  0  0
   -3.9160   15.4400   -1.3350 C   0  0  0  0  0  0  0  0  0  0  0  0
   -2.7430   15.1610   -0.7520 N   0  0  0  0  0  0  0  0  0  0  0  0
   -0.8320   15.0380   -2.5880 N   0  0  0  0  0  0  0  0  0  0  0  0
   -2.4150   13.4190    0.0630 N   0  0  0  0  0  0  0  0  0  0  0  0
   -1.3100   15.3310   -3.8130 C   0  0  0  0  0  0  0  0  0  0  0  0
    0.5370   15.0070   -2.6020 C   0  0  0  0  0  0  0  0  0  0  0  0
   -1.8810   13.8980    1.1990 C   0  0  0  0  0  0  0  0  0  0  0  0
   -2.8650   15.5010    0.6400 C   0  0  0  0  0  0  0  0  0  0  0  0
   -0.5070   14.4870   -4.8030 C   0  0  2  0  0  0  0  0  0  0  0  0
    1.1260   15.8430   -3.7320 C   0  0  0  0  0  0  0  0  0  0  0  0
   -1.5890   15.2390    1.2150 N   0  0  0  0  0  0  0  0  0  0  0  0
   -0.5080   13.1580   -4.5710 F   0  0  0  0  0  0  0  0  0  0  0  0
    0.8440   15.0720   -5.0280 C   0  0  0  0  0  0  0  0  0  0  0  0
  2  1  1  6
  2  3  1  0
  2  4  1  0
  3  5  1  0
  4  6  1  1
  4  7  1  0
  5  8  1  0
  7  9  1  0
  7 10  1  0
  8 11  1  6
  8 12  1  0
 10 13  1  0
  9 14  1  0
 10 15  1  0
 14 15  1  0
 10 16  1  0
 10 17  1  0
 16 18  1  0
 16 19  1  0
 17 20  1  0
 15 21  1  0
 18 22  1  0
 19 23  1  0
 20 24  1  0
 21 24  1  0
 22 25  1  1
 22 26  1  0
 23 26  1  0
M  CHG  1  12  -1
M  END
