ucsf424-ucsf248
     RDKit          3D

 29 32  0  0  0  0  0  0  0  0999 V2000
    0.8790   13.1830   -2.4150 O   0  0  0  0  0  0  0  0  0  0  0  0
    0.9230   12.2380   -3.3200 C   0  0  1  0  0  0  0  0  0  0  0  0
    0.1350   11.1180   -2.8560 O   0  0  0  0  0  0  0  0  0  0  0  0
    0.2770   12.7040   -4.6710 C   0  0  0  0  0  0  0  0  0  0  0  0
   -1.2380   11.4030   -2.6010 C   0  0  0  0  0  0  0  0  0  0  0  0
    0.4460   11.6760   -5.8180 C   0  0  2  0  0  0  0  0  0  0  0  0
   -1.3670   12.7260   -1.8450 C   0  0  0  0  0  0  0  0  0  0  0  0
    0.0980   12.1240   -7.1810 N   0  0  0  0  0  0  0  0  0  0  0  0
   -0.4920   10.4630   -5.8370 C   0  0  2  0  0  0  0  0  0  0  0  0
   -2.8190   13.1270   -1.5470 C   0  0  0  0  0  0  0  0  0  0  0  0
    0.3250   10.9170   -7.9790 O   0  0  0  0  0  0  0  0  0  0  0  0
   -0.1810    9.8470   -7.2020 C   0  0  2  0  0  0  0  0  0  0  0  0
   -1.9920   10.6100   -5.6560 C   0  0  0  0  0  0  0  0  0  0  0  0
   -1.3960    9.1890   -7.8470 C   0  0  0  0  0  0  0  0  0  0  0  0
   -2.6500    9.2230   -5.6530 C   0  0  0  0  0  0  0  0  0  0  0  0
   -3.0520   14.5670   -1.0550 C   0  0  2  0  0  0  0  0  0  0  0  0
   -2.1650    8.3670   -6.8170 C   0  0  0  0  0  0  0  0  0  0  0  0
   -3.6320   14.5450    0.3810 C   0  0  0  0  0  0  0  0  0  0  0  0
   -3.9360   15.3260   -2.1050 C   0  0  0  0  0  0  0  0  0  0  0  0
   -5.0430   14.0580    0.1830 C   0  0  1  0  0  0  0  0  0  0  0  0
   -5.4540   15.1370   -1.9780 C   0  0  0  0  0  0  0  0  0  0  0  0
   -5.8900   13.6340    1.3180 N   0  0  0  0  0  0  0  0  0  0  0  0
   -5.7900   15.1600   -0.5070 C   0  0  1  0  0  0  0  0  0  0  0  0
   -6.9550   14.6130    1.3130 C   0  0  1  0  0  0  0  0  0  0  0  0
   -7.1670   14.9790   -0.0850 N   0  0  0  0  0  0  0  0  0  0  0  0
   -8.4540   14.1850    2.2400 S   0  0  0  0  0  0  0  0  0  0  0  0
   -8.6020   12.6460    2.8140 N   0  0  0  0  0  0  0  0  0  0  0  0
   -8.5120   15.2540    3.4260 O   0  0  0  0  0  0  0  0  0  0  0  0
   -9.6630   14.5680    1.2610 O   0  0  0  0  0  0  0  0  0  0  0  0
  2  1  1  1
  2  3  1  0
  2  4  1  0
  3  5  1  0
  6  4  1  1
  5  7  1  0
  6  8  1  0
  6  9  1  0
  7 10  1  0
  8 11  1  0
  9 12  1  0
 11 12  1  0
  9 13  1  6
 12 14  1  6
 13 15  1  0
 16 10  1  6
 14 17  1  0
 15 17  1  0
 16 18  1  0
 16 19  1  0
 20 18  1  1
 19 21  1  0
 20 22  1  0
 20 23  1  0
 23 21  1  6
 22 24  1  0
 23 25  1  0
 24 25  1  0
 24 26  1  6
 26 27  1  0
 26 28  1  0
 26 29  1  0
M  CHG  1   1  -1
M  END
