ucsf584-ucsf365
     RDKit          3D

 23 25  0  0  0  0  0  0  0  0999 V2000
    0.6220   10.4820   -2.2690 O   0  0  0  0  0  0  0  0  0  0  0  0
    0.4640   11.7710   -2.5090 C   0  0  1  0  0  0  0  0  0  0  0  0
    1.5850   12.3840   -1.9220 O   0  0  0  0  0  0  0  0  0  0  0  0
    0.6030   12.1110   -3.9990 C   0  0  0  0  0  0  0  0  0  0  0  0
   -0.4910   13.1010   -4.3520 C   0  0  2  0  0  0  0  0  0  0  0  0
   -1.7490   12.3700   -4.8440 C   0  0  2  0  0  0  0  0  0  0  0  0
   -0.1610   14.3170   -5.2180 C   0  0  0  0  0  0  0  0  0  0  0  0
   -1.4910   11.5300   -5.9680 O   0  0  0  0  0  0  0  0  0  0  0  0
   -2.7970   13.4250   -5.1400 C   0  0  0  0  0  0  0  0  0  0  0  0
   -1.2150   15.3670   -4.9110 C   0  0  0  0  0  0  0  0  0  0  0  0
   -2.3840   14.6380   -4.2760 C   0  0  1  0  0  0  0  0  0  0  0  0
   -3.5320   15.5430   -3.8980 C   0  0  0  0  0  0  0  0  0  0  0  0
   -3.9400   15.5660   -2.4730 N   0  0  0  0  0  0  0  0  0  0  0  0
   -3.1510   14.8660   -1.4320 C   0  0  0  0  0  0  0  0  0  0  0  0
   -5.3350   15.1820   -2.4180 C   0  0  0  0  0  0  0  0  0  0  0  0
   -3.8850   14.8280   -0.0740 C   0  0  0  0  0  0  0  0  0  0  0  0
   -5.4690   13.8510   -1.7180 C   0  0  0  0  0  0  0  0  0  0  0  0
   -5.2050   14.0410   -0.2280 C   0  0  0  0  0  0  0  0  0  0  0  0
   -6.4070   14.7380    0.4120 C   0  0  0  0  0  0  0  0  0  0  0  0
   -6.3850   14.9080    1.8760 N   0  0  0  0  0  0  0  0  0  0  0  0
   -7.6850   14.1050    0.1060 N   0  0  0  0  0  0  0  0  0  0  0  0
   -8.6000   14.5690    1.1400 C   0  0  0  0  0  0  0  0  0  0  0  0
   -7.7220   14.5670    2.3760 C   0  0  0  0  0  0  0  0  0  0  0  0
  2  1  1  6
  2  3  1  0
  2  4  1  0
  5  4  1  6
  5  6  1  0
  5  7  1  0
  6  8  1  6
  6  9  1  0
  7 10  1  0
  9 11  1  0
 10 11  1  0
 11 12  1  6
 12 13  1  0
 13 14  1  0
 13 15  1  0
 14 16  1  0
 15 17  1  0
 16 18  1  0
 17 18  1  0
 18 19  1  0
 19 20  1  0
 19 21  1  0
 21 22  1  0
 20 23  1  0
 22 23  1  0
M  CHG  1   1  -1
M  END
