ucsf348-ucsf172
     RDKit          3D

 18 20  0  0  0  0  0  0  0  0999 V2000
   -6.9660   14.8480    1.0040 N   0  0  0  0  0  0  0  0  0  0  0  0
   -6.1600   13.5260    1.2640 S   0  0  0  0  0  0  0  0  0  0  0  0
   -6.3740   12.5280    0.0630 O   0  0  0  0  0  0  0  0  0  0  0  0
   -6.5550   15.3060   -0.2580 C   0  0  2  0  0  0  0  0  0  0  0  0
   -6.8910   12.8590    2.4580 O   0  0  0  0  0  0  0  0  0  0  0  0
   -4.5610   13.9460    1.4420 N   0  0  0  0  0  0  0  0  0  0  0  0
   -7.0000   14.2470   -1.1200 N   0  0  0  0  0  0  0  0  0  0  0  0
   -5.0160   15.4130   -0.4790 C   0  0  2  0  0  0  0  0  0  0  0  0
   -6.2970   14.7110   -2.2770 C   0  0  2  0  0  0  0  0  0  0  0  0
   -4.9080   14.5990   -1.7270 C   0  0  1  0  0  0  0  0  0  0  0  0
   -3.9480   14.9570    0.5310 C   0  0  2  0  0  0  0  0  0  0  0  0
   -6.7330   16.0220   -2.4400 O   0  0  0  0  0  0  0  0  0  0  0  0
   -2.5780   14.5130   -0.1720 C   0  0  0  0  0  0  0  0  0  0  0  0
   -3.7020   14.9960   -2.4690 C   0  0  0  0  0  0  0  0  0  0  0  0
   -2.6090   14.2210   -1.7350 C   0  0  1  0  0  0  0  0  0  0  0  0
   -1.3060   14.0680   -2.5770 C   0  0  2  0  0  0  0  0  0  0  0  0
   -0.2730   14.8600   -2.0530 O   0  0  0  0  0  0  0  0  0  0  0  0
   -1.4500   14.5690   -3.7880 O   0  0  0  0  0  0  0  0  0  0  0  0
  1  2  1  0
  2  3  1  0
  4  1  1  1
  2  5  1  0
  2  6  1  0
  4  7  1  0
  8  4  1  1
  7  9  1  0
  8 10  1  0
  9 10  1  0
  6 11  1  0
  8 11  1  0
  9 12  1  1
 11 13  1  6
 10 14  1  6
 15 13  1  1
 14 15  1  0
 15 16  1  0
 16 17  1  1
 16 18  1  0
M  CHG  1  18  -1
M  END
