ucsf424-ucsf039
     RDKit          3D

 31 35  0  0  0  0  0  0  0  0999 V2000
    1.4110   12.3370   -2.4040 O   0  0  0  0  0  0  0  0  0  0  0  0
    0.5730   11.7780   -3.2480 C   0  0  1  0  0  0  0  0  0  0  0  0
   -0.6050   11.6850   -2.4810 O   0  0  0  0  0  0  0  0  0  0  0  0
    0.3280   12.6000   -4.5580 C   0  0  2  0  0  0  0  0  0  0  0  0
   -0.8250   13.6450   -4.4380 C   0  0  0  0  0  0  0  0  0  0  0  0
    0.3180   11.6410   -5.7930 C   0  0  2  0  0  0  0  0  0  0  0  0
   -0.6130   14.7200   -3.3090 C   0  0  2  0  0  0  0  0  0  0  0  0
    0.0100   12.1510   -7.1340 N   0  0  0  0  0  0  0  0  0  0  0  0
   -0.5140   10.3590   -5.7850 C   0  0  2  0  0  0  0  0  0  0  0  0
    0.2410   10.9610   -7.9520 O   0  0  0  0  0  0  0  0  0  0  0  0
   -0.2060    9.8350   -7.1880 C   0  0  2  0  0  0  0  0  0  0  0  0
   -2.0250   10.4520   -5.5260 C   0  0  0  0  0  0  0  0  0  0  0  0
   -1.5800   14.7870   -2.1760 N   0  0  0  0  0  0  0  0  0  0  0  0
   -0.2000   16.0730   -4.0070 C   0  0  1  0  0  0  0  0  0  0  0  0
   -1.3790    9.1860   -7.9000 C   0  0  0  0  0  0  0  0  0  0  0  0
   -2.7880    9.1590   -5.7630 C   0  0  0  0  0  0  0  0  0  0  0  0
   -3.0140   14.9240   -2.4170 C   0  0  0  0  0  0  0  0  0  0  0  0
   -1.2090   14.1160   -0.9440 C   0  0  2  0  0  0  0  0  0  0  0  0
    1.0230   16.0670   -4.8940 C   0  0  0  0  0  0  0  0  0  0  0  0
   -1.2920   16.7300   -4.7790 N   0  0  0  0  0  0  0  0  0  0  0  0
   -2.2600    8.3700   -6.9550 C   0  0  0  0  0  0  0  0  0  0  0  0
   -3.7360   15.4660   -1.2650 N   0  0  0  0  0  0  0  0  0  0  0  0
   -2.0930   14.3780    0.3040 C   0  0  2  0  0  0  0  0  0  0  0  0
    0.1170   14.5450   -0.4910 N   0  0  0  0  0  0  0  0  0  0  0  0
   -0.7510   18.0020   -5.2300 C   0  0  1  0  0  0  0  0  0  0  0  0
    1.0000   17.7560   -5.5750 S   0  0  0  0  0  0  0  0  0  0  0  0
   -1.4490   18.5420   -6.4710 C   0  0  0  0  0  0  0  0  0  0  0  0
   -3.5580   14.7080   -0.0510 C   0  0  1  0  0  0  0  0  0  0  0  0
   -1.3290   15.2830    1.1580 N   0  0  0  0  0  0  0  0  0  0  0  0
    0.0020   14.7840    0.9300 C   0  0  0  0  0  0  0  0  0  0  0  0
   -4.2480   15.4150    1.0220 N   0  0  0  0  0  0  0  0  0  0  0  0
  2  1  1  1
  2  3  1  0
  2  4  1  0
  4  5  1  1
  4  6  1  0
  7  5  1  6
  6  8  1  6
  6  9  1  0
  8 10  1  0
  9 11  1  0
 10 11  1  0
  9 12  1  6
  7 13  1  0
  7 14  1  0
 11 15  1  6
 12 16  1  0
 13 17  1  0
 13 18  1  0
 14 19  1  6
 14 20  1  0
 15 21  1  0
 16 21  1  0
 17 22  1  0
 18 23  1  0
 18 24  1  1
 20 25  1  0
 19 26  1  0
 25 26  1  0
 25 27  1  6
 22 28  1  0
 23 28  1  0
 23 29  1  6
 24 30  1  0
 29 30  1  0
 28 31  1  1
M  CHG  1   1  -1
M  END
