ucsf523-ucsf442
     RDKit          3D

 13 14  0  0  0  0  0  0  0  0999 V2000
   -0.0190   13.6960    1.2140 N   0  0  0  0  0  0  0  0  0  0  0  0
   -0.3800   14.9350    0.6700 C   0  0  2  0  0  0  0  0  0  0  0  0
   -1.6730   15.2320    1.2090 N   0  0  0  0  0  0  0  0  0  0  0  0
   -0.4310   14.6940   -0.7340 N   0  0  0  0  0  0  0  0  0  0  0  0
   -1.6080   15.2380   -1.3560 C   0  0  1  0  0  0  0  0  0  0  0  0
   -2.7580   14.4240    0.6680 C   0  0  2  0  0  0  0  0  0  0  0  0
   -1.4760   15.1610   -2.7600 O   0  0  0  0  0  0  0  0  0  0  0  0
   -2.8870   14.5300   -0.8940 C   0  0  1  0  0  0  0  0  0  0  0  0
   -3.8740   14.7770    1.5120 N   0  0  0  0  0  0  0  0  0  0  0  0
   -5.0390   15.2890    0.8750 C   0  0  2  0  0  0  0  0  0  0  0  0
   -4.1240   15.1030   -1.4650 N   0  0  0  0  0  0  0  0  0  0  0  0
   -6.1290   14.9370    1.6940 O   0  0  0  0  0  0  0  0  0  0  0  0
   -5.2680   14.8650   -0.5930 C   0  0  0  0  0  0  0  0  0  0  0  0
  2  1  1  1
  2  3  1  0
  2  4  1  0
  4  5  1  0
  6  3  1  1
  5  7  1  6
  5  8  1  0
  6  8  1  0
  6  9  1  0
  9 10  1  0
  8 11  1  1
 10 12  1  1
 10 13  1  0
 11 13  1  0
M  END
