ucsf278-ucsf124
     RDKit          3D

 26 29  0  0  0  0  0  0  0  0999 V2000
   -1.9190   14.6960   -1.4390 Cl  0  0  0  0  0  0  0  0  0  0  0  0
   -0.4190   14.1230   -2.2370 C   0  0  1  0  0  0  0  0  0  0  0  0
   -0.6040   13.6460   -3.6650 C   0  0  1  0  0  0  0  0  0  0  0  0
    0.7190   15.1270   -2.2230 C   0  0  0  0  0  0  0  0  0  0  0  0
   -1.9510   13.7960   -4.3190 C   0  0  0  0  0  0  0  0  0  0  0  0
    0.2000   14.3390   -4.7440 C   0  0  2  0  0  0  0  0  0  0  0  0
    1.9370   14.6740   -3.0330 C   0  0  0  0  0  0  0  0  0  0  0  0
   -1.6350   13.3740   -5.7530 C   0  0  1  0  0  0  0  0  0  0  0  0
   -0.1530   13.5140   -5.8860 N   0  0  0  0  0  0  0  0  0  0  0  0
    1.6800   14.5440   -4.5090 C   0  0  0  0  0  0  0  0  0  0  0  0
   -2.2180   12.0100   -6.1140 C   0  0  0  0  0  0  0  0  0  0  0  0
   -2.1700   11.1320   -5.0010 O   0  0  0  0  0  0  0  0  0  0  0  0
   -1.0960   10.2620   -5.2200 C   0  0  2  0  0  0  0  0  0  0  0  0
    0.1830   10.9760   -5.2660 N   0  0  0  0  0  0  0  0  0  0  0  0
   -1.3620    9.7520   -6.6210 C   0  0  1  0  0  0  0  0  0  0  0  0
    0.4200   11.9870   -4.1820 C   0  0  0  0  0  0  0  0  0  0  0  0
   -0.2900   10.3370   -7.5320 C   0  0  1  0  0  0  0  0  0  0  0  0
    0.4120   11.4000   -6.6530 C   0  0  2  0  0  0  0  0  0  0  0  0
   -1.6540    8.2870   -6.7730 C   0  0  0  0  0  0  0  0  0  0  0  0
    0.9870   11.6060   -2.7550 C   0  0  2  0  0  0  0  0  0  0  0  0
    1.7880   11.5350   -6.9170 O   0  0  0  0  0  0  0  0  0  0  0  0
   -1.6460    7.8310   -8.2160 C   0  0  0  0  0  0  0  0  0  0  0  0
    0.4980    9.2580   -8.2630 C   0  0  0  0  0  0  0  0  0  0  0  0
    0.6080   10.4070   -2.3250 O   0  0  0  0  0  0  0  0  0  0  0  0
    0.5820   12.4240   -1.6710 O   0  0  0  0  0  0  0  0  0  0  0  0
   -0.4270    8.2940   -9.0140 C   0  0  0  0  0  0  0  0  0  0  0  0
  2  1  1  6
  2  3  1  0
  2  4  1  0
  3  5  1  6
  3  6  1  0
  4  7  1  0
  5  8  1  0
  6  9  1  0
  8  9  1  0
  6 10  1  1
  7 10  1  0
  8 11  1  1
 11 12  1  0
 13 12  1  6
 13 14  1  0
 13 15  1  0
 14 16  1  0
 15 17  1  0
 14 18  1  0
 17 18  1  0
 15 19  1  1
 16 20  1  0
 18 21  1  6
 19 22  1  0
 17 23  1  1
 20 24  1  1
 20 25  1  0
 22 26  1  0
 23 26  1  0
M  CHG  1  24  -1
M  END
