ucsf264-ucsf005
     RDKit          3D

 30 33  0  0  0  0  0  0  0  0999 V2000
    0.9990   12.6910   -2.2590 O   0  0  0  0  0  0  0  0  0  0  0  0
    1.2390   12.1470   -3.4290 C   0  0  1  0  0  0  0  0  0  0  0  0
    0.5550   10.9190   -3.2420 O   0  0  0  0  0  0  0  0  0  0  0  0
    0.6480   12.9700   -4.6620 C   0  0  2  0  0  0  0  0  0  0  0  0
   -0.0340   14.2440   -3.9900 C   0  0  0  0  0  0  0  0  0  0  0  0
   -0.1800   12.2830   -5.7720 N   0  0  0  0  0  0  0  0  0  0  0  0
   -1.5740   14.4370   -3.9110 C   0  0  0  0  0  0  0  0  0  0  0  0
    0.4550   12.2900   -7.1240 N   0  0  0  0  0  0  0  0  0  0  0  0
   -0.7170   10.9300   -5.5670 C   0  0  2  0  0  0  0  0  0  0  0  0
    0.7860   10.8920   -7.5180 C   0  0  1  0  0  0  0  0  0  0  0  0
   -0.3090   10.0950   -6.8120 C   0  0  2  0  0  0  0  0  0  0  0  0
   -2.2340   10.8780   -5.3590 C   0  0  0  0  0  0  0  0  0  0  0  0
   -2.3420   14.4110   -2.6170 N   0  0  0  0  0  0  0  0  0  0  0  0
    0.9060   10.4690   -9.0080 C   0  0  0  0  0  0  0  0  0  0  0  0
   -1.5170    9.6640   -7.6290 C   0  0  0  0  0  0  0  0  0  0  0  0
   -2.7630    9.4440   -5.4480 C   0  0  0  0  0  0  0  0  0  0  0  0
   -3.5910   15.1410   -2.7970 C   0  0  0  0  0  0  0  0  0  0  0  0
   -1.8630   14.8780   -1.2940 C   0  0  1  0  0  0  0  0  0  0  0  0
    1.4760    9.2410   -9.1050 F   0  0  0  0  0  0  0  0  0  0  0  0
   -0.2800   10.3830   -9.6420 F   0  0  0  0  0  0  0  0  0  0  0  0
    1.6410   11.2710   -9.7980 F   0  0  0  0  0  0  0  0  0  0  0  0
   -2.3850    8.7560   -6.7580 C   0  0  0  0  0  0  0  0  0  0  0  0
   -4.2610   15.1490   -1.4970 N   0  0  0  0  0  0  0  0  0  0  0  0
   -3.1390   15.4050   -0.5790 C   0  0  1  0  0  0  0  0  0  0  0  0
   -1.0600   13.9530   -0.4790 N   0  0  0  0  0  0  0  0  0  0  0  0
   -3.1970   14.7810    0.8180 C   0  0  2  0  0  0  0  0  0  0  0  0
   -0.8650   14.2860    0.9110 C   0  0  1  0  0  0  0  0  0  0  0  0
   -4.2420   15.3570    1.6410 N   0  0  0  0  0  0  0  0  0  0  0  0
    0.1950   15.2160    0.8840 N   0  0  0  0  0  0  0  0  0  0  0  0
   -1.9580   14.9620    1.5230 N   0  0  0  0  0  0  0  0  0  0  0  0
  2  1  1  1
  2  3  1  0
  2  4  1  0
  4  5  1  1
  4  6  1  0
  5  7  1  0
  6  8  1  0
  6  9  1  0
  8 10  1  0
  9 11  1  0
 10 11  1  0
  9 12  1  6
  7 13  1  0
 10 14  1  6
 11 15  1  6
 12 16  1  0
 13 17  1  0
 13 18  1  0
 14 19  1  0
 14 20  1  0
 14 21  1  0
 15 22  1  0
 16 22  1  0
 17 23  1  0
 18 24  1  0
 24 23  1  6
 18 25  1  1
 24 26  1  0
 25 27  1  0
 26 28  1  1
 27 29  1  6
 26 30  1  0
 27 30  1  0
M  CHG  1   1  -1
M  END
