ucsf017-ucsf135
     RDKit          3D

 30 35  0  0  0  0  0  0  0  0999 V2000
    1.6200   11.5020   -7.2810 O   0  0  0  0  0  0  0  0  0  0  0  0
    0.3800   11.7520   -6.7100 C   0  0  2  0  0  0  0  0  0  0  0  0
    0.5040   11.6690   -5.2640 N   0  0  0  0  0  0  0  0  0  0  0  0
   -0.6980   10.7260   -7.2170 C   0  0  2  0  0  0  0  0  0  0  0  0
   -0.5900   10.5670   -4.7020 S   0  0  2  0  0  0  0  0  0  0  0  0
   -1.6550   10.3450   -6.0610 C   0  0  2  0  0  0  0  0  0  0  0  0
   -0.1040    9.4980   -7.9030 C   0  0  0  0  0  0  0  0  0  0  0  0
   -1.5280   11.0040   -3.5440 O   0  0  0  0  0  0  0  0  0  0  0  0
   -0.0030    9.1500   -4.4370 O   0  0  0  0  0  0  0  0  0  0  0  0
   -2.1650    8.9230   -6.1130 C   0  0  0  0  0  0  0  0  0  0  0  0
   -1.2120    8.6150   -8.4770 C   0  0  0  0  0  0  0  0  0  0  0  0
   -1.2350   12.2000   -2.9480 C   0  0  2  0  0  0  0  0  0  0  0  0
   -2.4200    8.4760   -7.5430 C   0  0  0  0  0  0  0  0  0  0  0  0
   -1.7550   13.3220   -3.8280 C   0  0  2  0  0  0  0  0  0  0  0  0
    0.2750   12.2590   -2.7050 C   0  0  0  0  0  0  0  0  0  0  0  0
   -1.2160   13.4960   -5.2260 C   0  0  0  0  0  0  0  0  0  0  0  0
   -1.4450   14.6660   -3.2100 C   0  0  2  0  0  0  0  0  0  0  0  0
    0.7600   13.7050   -2.6760 C   0  0  0  0  0  0  0  0  0  0  0  0
   -1.7730   14.7500   -5.5730 O   0  0  0  0  0  0  0  0  0  0  0  0
   -1.4210   15.5700   -4.4450 C   0  0  0  0  0  0  0  0  0  0  0  0
   -0.3240   14.6510   -2.2500 N   0  0  0  0  0  0  0  0  0  0  0  0
   -0.8260   14.1890   -0.9390 C   0  0  1  0  0  0  0  0  0  0  0  0
    0.0040   14.7830    0.1060 N   0  0  0  0  0  0  0  0  0  0  0  0
   -2.2870   14.3910   -0.4210 C   0  0  1  0  0  0  0  0  0  0  0  0
   -0.2630   14.2330    1.4250 C   0  0  0  0  0  0  0  0  0  0  0  0
   -2.3050   15.1810    0.8530 C   0  0  2  0  0  0  0  0  0  0  0  0
   -3.4690   14.9490   -1.1880 C   0  0  0  0  0  0  0  0  0  0  0  0
   -1.6280   14.4560    1.8420 N   0  0  0  0  0  0  0  0  0  0  0  0
   -3.7010   15.3350    1.1870 N   0  0  0  0  0  0  0  0  0  0  0  0
   -4.4370   15.3800   -0.0840 C   0  0  0  0  0  0  0  0  0  0  0  0
  2  1  1  6
  2  3  1  0
  2  4  1  0
  3  5  1  0
  4  6  1  0
  5  6  1  0
  4  7  1  1
  5  8  1  0
  5  9  1  1
  6 10  1  6
  7 11  1  0
 12  8  1  6
 10 13  1  0
 11 13  1  0
 12 14  1  0
 12 15  1  0
 14 16  1  6
 14 17  1  0
 15 18  1  0
 16 19  1  0
 17 20  1  6
 19 20  1  0
 17 21  1  0
 18 21  1  0
 22 21  1  6
 22 23  1  0
 22 24  1  0
 23 25  1  0
 24 26  1  0
 24 27  1  6
 25 28  1  0
 26 28  1  1
 26 29  1  0
 27 30  1  0
 29 30  1  0
M  END
