ucsf584-ucsf224
     RDKit          3D

 25 27  0  0  0  0  0  0  0  0999 V2000
   -1.2310   18.1800   -5.5510 Cl  0  0  0  0  0  0  0  0  0  0  0  0
   -0.6130   16.7980   -4.5970 C   0  0  1  0  0  0  0  0  0  0  0  0
   -1.4870   15.5220   -4.6540 C   0  0  1  0  0  0  0  0  0  0  0  0
    0.8860   16.5490   -4.8310 C   0  0  0  0  0  0  0  0  0  0  0  0
   -2.7490   15.4360   -5.5390 C   0  0  0  0  0  0  0  0  0  0  0  0
   -0.6070   14.3010   -4.9280 C   0  0  0  0  0  0  0  0  0  0  0  0
    1.4900   15.3120   -4.1080 C   0  0  0  0  0  0  0  0  0  0  0  0
   -3.9880   15.2340   -4.6990 C   0  0  0  0  0  0  0  0  0  0  0  0
    0.4760   14.1920   -3.8580 C   0  0  2  0  0  0  0  0  0  0  0  0
    0.9890   12.7250   -3.7690 C   0  0  0  0  0  0  0  0  0  0  0  0
   -4.0040   13.9720   -3.8520 C   0  0  0  0  0  0  0  0  0  0  0  0
    1.0090   12.0100   -2.3750 C   0  0  2  0  0  0  0  0  0  0  0  0
   -4.0730   14.2970   -2.3420 C   0  0  1  0  0  0  0  0  0  0  0  0
    0.4480   10.8010   -2.4060 O   0  0  0  0  0  0  0  0  0  0  0  0
    0.3330   12.7240   -1.3560 O   0  0  0  0  0  0  0  0  0  0  0  0
   -2.9450   15.1640   -1.9820 N   0  0  0  0  0  0  0  0  0  0  0  0
   -5.4190   14.8800   -1.8740 C   0  0  0  0  0  0  0  0  0  0  0  0
   -2.8240   15.3730   -0.5460 C   0  0  0  0  0  0  0  0  0  0  0  0
   -5.4000   15.1620   -0.3670 C   0  0  1  0  0  0  0  0  0  0  0  0
   -6.5730   14.4820    0.3690 C   0  0  0  0  0  0  0  0  0  0  0  0
   -4.0160   14.8260    0.2400 C   0  0  0  0  0  0  0  0  0  0  0  0
   -6.5690   14.6740    1.8150 N   0  0  0  0  0  0  0  0  0  0  0  0
   -7.8810   14.9540   -0.0510 N   0  0  0  0  0  0  0  0  0  0  0  0
   -8.7900   14.4900    0.9900 C   0  0  0  0  0  0  0  0  0  0  0  0
   -7.9680   14.6240    2.2610 C   0  0  0  0  0  0  0  0  0  0  0  0
  2  1  1  6
  2  3  1  0
  2  4  1  0
  3  5  1  6
  3  6  1  0
  4  7  1  0
  5  8  1  0
  6  9  1  0
  7  9  1  0
  9 10  1  6
  8 11  1  0
 10 12  1  0
 13 11  1  6
 12 14  1  6
 12 15  1  0
 13 16  1  0
 13 17  1  0
 16 18  1  0
 17 19  1  0
 19 20  1  1
 18 21  1  0
 19 21  1  0
 20 22  1  0
 20 23  1  0
 23 24  1  0
 22 25  1  0
 24 25  1  0
M  CHG  1  14  -1
M  END
