ucsf424-ucsf364
     RDKit          3D

 14 15  0  0  0  0  0  0  0  0999 V2000
    1.4370   12.4370   -2.8370 O   0  0  0  0  0  0  0  0  0  0  0  0
    0.2430   12.6020   -3.3470 C   0  0  0  0  0  0  0  0  0  0  0  0
   -0.4020   11.4000   -3.0430 O   0  0  0  0  0  0  0  0  0  0  0  0
    0.1920   12.9040   -4.8630 C   0  0  0  0  0  0  0  0  0  0  0  0
   -0.2950   13.6290   -2.5700 O   0  0  0  0  0  0  0  0  0  0  0  0
    0.4770   11.7180   -5.8070 C   0  0  2  0  0  0  0  0  0  0  0  0
    0.2280   12.0190   -7.2330 N   0  0  0  0  0  0  0  0  0  0  0  0
   -0.4230   10.4760   -5.7400 C   0  0  2  0  0  0  0  0  0  0  0  0
    0.5380   10.7380   -7.8640 O   0  0  0  0  0  0  0  0  0  0  0  0
   -0.1120    9.7660   -7.0600 C   0  0  2  0  0  0  0  0  0  0  0  0
   -1.9310   10.5910   -5.5280 C   0  0  0  0  0  0  0  0  0  0  0  0
   -1.3550    9.2440   -7.7770 C   0  0  0  0  0  0  0  0  0  0  0  0
   -2.6600    9.2400   -5.6240 C   0  0  0  0  0  0  0  0  0  0  0  0
   -2.2740    8.4440   -6.8600 C   0  0  0  0  0  0  0  0  0  0  0  0
  2  1  1  0
  2  3  1  0
  2  4  1  0
  2  5  1  0
  6  4  1  1
  6  7  1  0
  6  8  1  0
  7  9  1  0
  8 10  1  0
  9 10  1  0
  8 11  1  6
 10 12  1  6
 11 13  1  0
 12 14  1  0
 13 14  1  0
M  CHG  1   1  -1
M  END
