ucsf516-ucsf248
     RDKit          3D

 26 30  0  0  0  0  0  0  0  0999 V2000
   -8.5770   12.8150    2.7080 N   0  0  0  0  0  0  0  0  0  0  0  0
   -8.2240   14.2290    1.9410 S   0  0  0  0  0  0  0  0  0  0  0  0
   -7.7680   15.3230    3.0090 O   0  0  0  0  0  0  0  0  0  0  0  0
   -9.5330   14.8050    1.2180 O   0  0  0  0  0  0  0  0  0  0  0  0
   -6.9490   14.1580    0.6460 C   0  0  2  0  0  0  0  0  0  0  0  0
   -5.6030   14.3320    1.1660 N   0  0  0  0  0  0  0  0  0  0  0  0
   -7.1480   15.1670   -0.3960 N   0  0  0  0  0  0  0  0  0  0  0  0
   -4.7820   14.9960    0.1700 C   0  0  1  0  0  0  0  0  0  0  0  0
   -5.7990   15.7120   -0.7340 C   0  0  0  0  0  0  0  0  0  0  0  0
   -3.8450   15.7970    0.9890 N   0  0  0  0  0  0  0  0  0  0  0  0
   -3.8530   14.1510   -0.7520 C   0  0  0  0  0  0  0  0  0  0  0  0
   -2.6100   15.0630    0.7790 C   0  0  1  0  0  0  0  0  0  0  0  0
   -2.6950   15.1080   -0.6830 C   0  0  1  0  0  0  0  0  0  0  0  0
   -1.3900   15.6410    1.2210 N   0  0  0  0  0  0  0  0  0  0  0  0
   -1.3110   15.0180   -1.3250 C   0  0  2  0  0  0  0  0  0  0  0  0
   -1.3310   14.5040   -2.6930 N   0  0  0  0  0  0  0  0  0  0  0  0
   -0.3610   14.2940   -0.4740 N   0  0  0  0  0  0  0  0  0  0  0  0
   -0.2210   14.8570    0.8560 C   0  0  0  0  0  0  0  0  0  0  0  0
   -0.0820   14.4330   -3.4800 C   0  0  1  0  0  0  0  0  0  0  0  0
   -2.3920   15.0410   -3.5640 C   0  0  0  0  0  0  0  0  0  0  0  0
    0.1870   12.9490   -3.6570 C   0  0  0  0  0  0  0  0  0  0  0  0
   -0.4100   15.0030   -4.8630 C   0  0  0  0  0  0  0  0  0  0  0  0
   -1.9100   14.8060   -4.9790 C   0  0  0  0  0  0  0  0  0  0  0  0
    1.4580   12.3110   -3.0550 C   0  0  0  0  0  0  0  0  0  0  0  0
   -0.5900   12.0340   -2.6740 C   0  0  0  0  0  0  0  0  0  0  0  0
    0.5560   11.0610   -2.8820 C   0  0  0  0  0  0  0  0  0  0  0  0
  1  2  1  0
  2  3  1  0
  2  4  1  0
  5  2  1  1
  5  6  1  0
  5  7  1  0
  8  6  1  0
  7  9  1  0
  8  9  1  6
  8 10  1  0
  8 11  1  0
 12 10  1  1
 13 11  1  6
 12 13  1  0
 12 14  1  0
 13 15  1  0
 15 16  1  6
 15 17  1  0
 14 18  1  0
 17 18  1  0
 16 19  1  0
 16 20  1  0
 19 21  1  6
 19 22  1  0
 20 23  1  0
 22 23  1  0
 21 24  1  0
 21 25  1  0
 24 26  1  0
 25 26  1  0
M  END
