ucsf385-ucsf404
     RDKit          3D

 20 22  0  0  0  0  0  0  0  0999 V2000
   -2.5750   15.9060    1.0350 N   0  0  0  0  0  0  0  0  0  0  0  0
   -2.6920   14.7480   -0.4260 S   0  0  0  0  0  0  0  0  0  0  0  0
   -1.8530   13.3800    0.1760 C   0  0  0  0  0  0  0  0  0  0  0  0
   -0.9160   14.8030   -0.9010 C   0  0  2  0  0  0  0  0  0  0  0  0
   -4.2560   15.5240   -0.4910 C   0  0  1  0  0  0  0  0  0  0  0  0
   -3.5310   14.2630   -1.9710 C   0  0  0  0  0  0  0  0  0  0  0  0
   -0.7450   14.4750   -2.3420 C   0  0  2  0  0  0  0  0  0  0  0  0
    0.1260   14.1340   -0.1560 C   0  0  0  0  0  0  0  0  0  0  0  0
   -1.3630   13.7670    1.3860 N   0  0  0  0  0  0  0  0  0  0  0  0
   -5.5410   15.0570   -0.5400 C   0  0  2  0  0  0  0  0  0  0  0  0
   -4.3140   15.9400    1.3320 S   0  0  0  0  0  0  0  0  0  0  0  0
   -4.5760   15.2010   -2.4240 C   0  0  0  0  0  0  0  0  0  0  0  0
    0.5720   14.4890   -2.7810 O   0  0  0  0  0  0  0  0  0  0  0  0
   -1.5850   15.1190   -3.2320 O   0  0  0  0  0  0  0  0  0  0  0  0
   -0.0430   14.0440    1.3260 C   0  0  0  0  0  0  0  0  0  0  0  0
   -5.3500   14.4660    1.7440 C   0  0  2  0  0  0  0  0  0  0  0  0
   -5.7270   13.9460    0.4170 N   0  0  0  0  0  0  0  0  0  0  0  0
   -5.8960   14.6140   -1.8820 C   0  0  2  0  0  0  0  0  0  0  0  0
   -7.3670   15.2640   -2.4420 Cl  0  0  0  0  0  0  0  0  0  0  0  0
   -6.4800   14.8090    2.5510 N   0  0  0  0  0  0  0  0  0  0  0  0
  1  2  1  0
  2  3  1  0
  2  4  1  0
  2  5  1  0
  2  6  1  0
  4  7  1  0
  4  8  1  1
  3  9  1  0
  5 10  1  0
  5 11  1  1
  6 12  1  0
  7 13  1  6
  7 14  1  0
  8 15  1  0
  9 15  1  0
 11 16  1  0
 10 17  1  1
 16 17  1  0
 10 18  1  0
 12 18  1  0
 18 19  1  6
 16 20  1  1
M  CHG  1  14  -1
M  END
