ucsf487-ucsf378
     RDKit          3D

 24 26  0  0  0  0  0  0  0  0999 V2000
   -7.4050   14.2630    2.8150 N   0  0  0  0  0  0  0  0  0  0  0  0
   -6.9150   14.0480    1.4500 C   0  0  1  0  0  0  0  0  0  0  0  0
   -7.8580   14.5740    0.3520 C   0  0  0  0  0  0  0  0  0  0  0  0
   -5.4870   14.6150    1.3840 C   0  0  0  0  0  0  0  0  0  0  0  0
   -5.0440   15.2060    0.0600 C   0  0  2  0  0  0  0  0  0  0  0  0
   -7.2560   14.7650   -0.9750 N   0  0  0  0  0  0  0  0  0  0  0  0
   -5.8030   14.5290   -1.0740 C   0  0  1  0  0  0  0  0  0  0  0  0
   -3.5210   15.0880   -0.0230 C   0  0  0  0  0  0  0  0  0  0  0  0
   -5.3170   15.0580   -2.4150 C   0  0  0  0  0  0  0  0  0  0  0  0
   -2.9460   15.5230   -1.3480 C   0  0  0  0  0  0  0  0  0  0  0  0
   -3.7670   15.1360   -2.5940 C   0  0  1  0  0  0  0  0  0  0  0  0
   -3.1010   13.8510   -3.1560 C   0  0  0  0  0  0  0  0  0  0  0  0
   -2.3900   14.0110   -4.5170 C   0  0  0  0  0  0  0  0  0  0  0  0
   -0.8760   14.4100   -4.5010 C   0  0  2  0  0  0  0  0  0  0  0  0
    0.0420   13.6000   -3.5220 C   0  0  1  0  0  0  0  0  0  0  0  0
   -0.7230   15.9290   -4.2640 C   0  0  0  0  0  0  0  0  0  0  0  0
   -0.0930   12.0510   -3.6600 C   0  0  0  0  0  0  0  0  0  0  0  0
    1.4970   14.1120   -3.6390 C   0  0  1  0  0  0  0  0  0  0  0  0
    0.7120   16.3930   -4.4150 C   0  0  0  0  0  0  0  0  0  0  0  0
    2.7580   12.8860   -3.9870 Cl  0  0  0  0  0  0  0  0  0  0  0  0
   -0.3400   11.2940   -2.3330 C   0  0  2  0  0  0  0  0  0  0  0  0
    1.6330   15.2120   -4.6500 C   0  0  0  0  0  0  0  0  0  0  0  0
    0.1490   11.9420   -1.2970 O   0  0  0  0  0  0  0  0  0  0  0  0
    0.3870   10.1000   -2.3100 O   0  0  0  0  0  0  0  0  0  0  0  0
  2  1  1  1
  2  3  1  0
  2  4  1  0
  5  4  1  1
  3  6  1  0
  5  7  1  0
  6  7  1  0
  5  8  1  0
  7  9  1  6
  8 10  1  0
  9 11  1  0
 10 11  1  0
 11 12  1  1
 12 13  1  0
 14 13  1  1
 14 15  1  0
 14 16  1  0
 15 17  1  6
 15 18  1  0
 16 19  1  0
 18 20  1  6
 17 21  1  0
 18 22  1  0
 19 22  1  0
 21 23  1  1
 21 24  1  0
M  CHG  1  23  -1
M  END
