ucsf584-ucsf004
     RDKit          3D

 23 26  0  0  0  0  0  0  0  0999 V2000
   -1.9090   12.1420   -4.8530 F   0  0  0  0  0  0  0  0  0  0  0  0
   -1.6260   13.4790   -4.9190 C   0  0  2  0  0  0  0  0  0  0  0  0
   -0.1180   13.6450   -5.1260 C   0  0  0  0  0  0  0  0  0  0  0  0
   -2.1220   14.1160   -3.6150 C   0  0  0  0  0  0  0  0  0  0  0  0
   -1.0850   14.0600   -2.5890 N   0  0  0  0  0  0  0  0  0  0  0  0
    0.3790   14.9220   -4.4530 C   0  0  0  0  0  0  0  0  0  0  0  0
    0.0700   14.9130   -2.9370 C   0  0  0  0  0  0  0  0  0  0  0  0
   -1.4500   13.9920   -1.1410 C   0  0  2  0  0  0  0  0  0  0  0  0
   -2.6920   14.9380   -0.6970 C   0  0  2  0  0  0  0  0  0  0  0  0
   -0.2140   14.2720   -0.3910 N   0  0  0  0  0  0  0  0  0  0  0  0
   -4.0080   14.2000   -0.2160 C   0  0  0  0  0  0  0  0  0  0  0  0
   -3.0760   15.8140   -1.8200 N   0  0  0  0  0  0  0  0  0  0  0  0
   -0.3360   14.3270    1.0620 C   0  0  0  0  0  0  0  0  0  0  0  0
   -2.1330   15.7440    0.5050 C   0  0  0  0  0  0  0  0  0  0  0  0
   -4.1160   15.2380   -2.6680 C   0  0  0  0  0  0  0  0  0  0  0  0
   -5.2710   15.0920   -0.4800 C   0  0  2  0  0  0  0  0  0  0  0  0
   -1.6140   14.8280    1.5020 N   0  0  0  0  0  0  0  0  0  0  0  0
   -6.6080   14.8070    0.2580 C   0  0  0  0  0  0  0  0  0  0  0  0
   -5.4610   15.1390   -1.9840 C   0  0  0  0  0  0  0  0  0  0  0  0
   -6.5000   14.6750    1.6970 N   0  0  0  0  0  0  0  0  0  0  0  0
   -7.3500   13.6250   -0.0910 N   0  0  0  0  0  0  0  0  0  0  0  0
   -8.4510   13.6930    0.8790 C   0  0  0  0  0  0  0  0  0  0  0  0
   -7.8740   14.4110    2.1010 C   0  0  0  0  0  0  0  0  0  0  0  0
  2  1  1  1
  2  3  1  0
  2  4  1  0
  4  5  1  0
  3  6  1  0
  5  7  1  0
  6  7  1  0
  8  5  1  6
  8  9  1  0
  8 10  1  0
  9 11  1  1
  9 12  1  0
 10 13  1  0
  9 14  1  0
 12 15  1  0
 11 16  1  0
 13 17  1  0
 14 17  1  0
 16 18  1  1
 15 19  1  0
 16 19  1  0
 18 20  1  0
 18 21  1  0
 21 22  1  0
 20 23  1  0
 22 23  1  0
M  END
