ucsf493-ucsf243
     RDKit          3D

 26 28  0  0  0  0  0  0  0  0999 V2000
   -4.3970   15.2270   -5.5930 C   0  0  0  0  0  0  0  0  0  0  0  0
   -3.5350   16.1440   -4.9080 O   0  0  0  0  0  0  0  0  0  0  0  0
   -2.2450   16.1060   -5.4880 C   0  0  2  0  0  0  0  0  0  0  0  0
   -1.4940   14.7930   -5.1170 C   0  0  0  0  0  0  0  0  0  0  0  0
   -1.4780   17.4250   -5.2550 C   0  0  0  0  0  0  0  0  0  0  0  0
    0.0140   14.7600   -5.3950 C   0  0  1  0  0  0  0  0  0  0  0  0
   -0.1460   17.2390   -4.5290 C   0  0  0  0  0  0  0  0  0  0  0  0
    0.7130   16.1180   -5.1480 C   0  0  1  0  0  0  0  0  0  0  0  0
    0.9040   13.7520   -4.6520 C   0  0  2  0  0  0  0  0  0  0  0  0
    0.2850   12.3660   -4.3160 C   0  0  0  0  0  0  0  0  0  0  0  0
    1.8680   15.7950   -4.3210 N   0  0  0  0  0  0  0  0  0  0  0  0
    1.3800   14.6510   -3.5480 C   0  0  1  0  0  0  0  0  0  0  0  0
    0.3740   11.8980   -2.8170 C   0  0  1  0  0  0  0  0  0  0  0  0
    0.2660   15.1580   -2.8360 O   0  0  0  0  0  0  0  0  0  0  0  0
    0.4340   10.4600   -2.7540 O   0  0  0  0  0  0  0  0  0  0  0  0
    1.4950   12.3110   -2.2790 O   0  0  0  0  0  0  0  0  0  0  0  0
   -0.1360   14.4590   -1.6630 C   0  0  1  0  0  0  0  0  0  0  0  0
    0.2090   15.2280   -0.6560 O   0  0  0  0  0  0  0  0  0  0  0  0
   -1.6970   14.2470   -1.6260 C   0  0  1  0  0  0  0  0  0  0  0  0
   -2.3120   14.5290   -0.2360 C   0  0  0  0  0  0  0  0  0  0  0  0
   -2.4670   14.9160   -2.7980 C   0  0  1  0  0  0  0  0  0  0  0  0
   -2.2400   14.1610   -3.9890 O   0  0  0  0  0  0  0  0  0  0  0  0
   -3.3430   15.6400   -0.2600 C   0  0  2  0  0  0  0  0  0  0  0  0
   -3.9830   14.9100   -2.6250 C   0  0  0  0  0  0  0  0  0  0  0  0
   -3.9120   15.8700    1.1350 C   0  0  0  0  0  0  0  0  0  0  0  0
   -4.4670   15.3600   -1.2560 C   0  0  0  0  0  0  0  0  0  0  0  0
  1  2  1  0
  3  2  1  1
  3  4  1  0
  3  5  1  0
  6  4  1  1
  5  7  1  0
  6  8  1  0
  8  7  1  1
  6  9  1  0
  9 10  1  1
  8 11  1  0
  9 12  1  0
 11 12  1  0
 10 13  1  0
 12 14  1  1
 13 15  1  6
 13 16  1  0
 14 17  1  0
 17 18  1  1
 17 19  1  0
 19 20  1  1
 19 21  1  0
 21 22  1  6
 20 23  1  0
 21 24  1  0
 23 25  1  1
 23 26  1  0
 24 26  1  0
M  CHG  2  16  -1  18  -1
M  END
