ucsf169-ucsf516
     RDKit          3D

 24 27  0  0  0  0  0  0  0  0999 V2000
    0.8970   18.0390   -5.4580 C   0  0  0  0  0  0  0  0  0  0  0  0
    0.0760   16.9480   -5.5820 O   0  0  0  0  0  0  0  0  0  0  0  0
   -0.4510   16.4800   -4.3850 C   0  0  1  0  0  0  0  0  0  0  0  0
   -1.9750   16.3590   -4.4620 C   0  0  1  0  0  0  0  0  0  0  0  0
    0.3120   15.6180   -3.5350 C   0  0  0  0  0  0  0  0  0  0  0  0
   -2.4010   16.1840   -5.7830 O   0  0  0  0  0  0  0  0  0  0  0  0
   -2.1940   15.1110   -3.6340 C   0  0  0  0  0  0  0  0  0  0  0  0
   -0.2370   13.8810   -3.1310 S   0  0  0  0  0  0  0  0  0  0  0  0
   -0.1360   13.1940   -4.9040 C   0  0  0  0  0  0  0  0  0  0  0  0
   -1.4570   15.0770   -2.3030 C   0  0  1  0  0  0  0  0  0  0  0  0
    1.3370   12.9340   -2.6000 C   0  0  0  0  0  0  0  0  0  0  0  0
    0.0630   12.8420   -1.6190 C   0  0  0  0  0  0  0  0  0  0  0  0
    0.6130   12.0590   -4.7890 C   0  0  1  0  0  0  0  0  0  0  0  0
    0.5950   11.7630   -2.4660 C   0  0  0  0  0  0  0  0  0  0  0  0
   -1.3030   14.1240   -1.1970 N   0  0  0  0  0  0  0  0  0  0  0  0
   -2.7050   15.0490   -1.4920 C   0  0  2  0  0  0  0  0  0  0  0  0
    1.7700   12.1570   -4.0270 O   0  0  0  0  0  0  0  0  0  0  0  0
   -0.0800   10.8550   -4.4470 O   0  0  0  0  0  0  0  0  0  0  0  0
   -0.4650   14.4650   -0.1440 C   0  0  0  0  0  0  0  0  0  0  0  0
   -2.5590   14.8090    0.0910 C   0  0  1  0  0  0  0  0  0  0  0  0
   -3.9570   14.3500   -1.3410 C   0  0  0  0  0  0  0  0  0  0  0  0
   -1.3890   15.1170    0.7700 N   0  0  0  0  0  0  0  0  0  0  0  0
   -3.6930   15.3240    0.7250 N   0  0  0  0  0  0  0  0  0  0  0  0
   -4.7170   14.9490   -0.1620 C   0  0  0  0  0  0  0  0  0  0  0  0
  1  2  1  0
  3  2  1  6
  3  4  1  0
  3  5  1  0
  4  6  1  6
  4  7  1  0
  5  8  1  0
  8  9  1  0
 10  7  1  6
  8 10  1  0
  8 11  1  0
  8 12  1  0
  9 13  1  0
 11 14  1  0
 12 14  1  0
 10 15  1  0
 10 16  1  0
 13 17  1  1
 13 18  1  0
 15 19  1  0
 16 20  1  0
 16 21  1  6
 19 22  1  0
 20 22  1  1
 20 23  1  0
 21 24  1  0
 23 24  1  0
M  CHG  1  18  -1
M  END
