ucsf260-ucsf411
     RDKit          3D

 24 27  0  0  0  0  0  0  0  0999 V2000
    1.2280   11.5340   -2.7090 O   0  0  0  0  0  0  0  0  0  0  0  0
    1.8090   12.6890   -2.9830 C   0  0  1  0  0  0  0  0  0  0  0  0
    3.1530   12.4840   -2.7410 O   0  0  0  0  0  0  0  0  0  0  0  0
    1.5900   13.0920   -4.4500 C   0  0  0  0  0  0  0  0  0  0  0  0
    0.0920   13.0220   -4.7980 C   0  0  0  0  0  0  0  0  0  0  0  0
   -0.3480   11.7720   -5.4970 N   0  0  0  0  0  0  0  0  0  0  0  0
   -0.8260   14.2490   -4.3920 C   0  0  1  0  0  0  0  0  0  0  0  0
   -1.2530   10.9810   -4.6860 C   0  0  0  0  0  0  0  0  0  0  0  0
   -0.5720   11.4600   -6.9030 C   0  0  2  0  0  0  0  0  0  0  0  0
   -0.4990   15.8050   -4.6440 C   0  0  2  0  0  0  0  0  0  0  0  0
   -2.3130   13.9100   -4.5350 C   0  0  0  0  0  0  0  0  0  0  0  0
   -2.3850   10.7080   -5.5550 N   0  0  0  0  0  0  0  0  0  0  0  0
   -1.6990   10.4020   -6.8090 C   0  0  2  0  0  0  0  0  0  0  0  0
    0.7010   11.0030   -7.6690 C   0  0  0  0  0  0  0  0  0  0  0  0
   -1.5570   16.6840   -5.3910 C   0  0  1  0  0  0  0  0  0  0  0  0
   -2.9950   14.6510   -5.6560 C   0  0  0  0  0  0  0  0  0  0  0  0
    0.8760   16.2130   -5.2100 C   0  0  0  0  0  0  0  0  0  0  0  0
   -1.2370    8.9600   -6.8600 C   0  0  0  0  0  0  0  0  0  0  0  0
    0.8160    9.5710   -8.2100 C   0  0  0  0  0  0  0  0  0  0  0  0
   -2.9700   16.1420   -5.4070 C   0  0  0  0  0  0  0  0  0  0  0  0
   -1.4530   18.1470   -5.0530 C   0  0  0  0  0  0  0  0  0  0  0  0
    0.8400   17.5930   -5.8980 C   0  0  0  0  0  0  0  0  0  0  0  0
   -0.4140    8.6860   -8.0960 C   0  0  0  0  0  0  0  0  0  0  0  0
   -0.0270   18.5900   -5.2040 C   0  0  0  0  0  0  0  0  0  0  0  0
  2  1  1  6
  2  3  1  0
  2  4  1  0
  4  5  1  0
  5  6  1  0
  7  5  1  6
  6  8  1  0
  6  9  1  0
  7 10  1  0
  7 11  1  0
  8 12  1  0
  9 13  1  0
 12 13  1  0
  9 14  1  1
 10 15  1  0
 11 16  1  0
 10 17  1  6
 13 18  1  1
 14 19  1  0
 15 20  1  1
 16 20  1  0
 15 21  1  0
 17 22  1  0
 18 23  1  0
 19 23  1  0
 21 24  1  0
 22 24  1  0
M  CHG  1   1  -1
M  END
