ucsf274-ucsf320
     RDKit          3D

 27 29  0  0  0  0  0  0  0  0999 V2000
    0.4550   10.7400   -2.3320 O   0  0  0  0  0  0  0  0  0  0  0  0
    0.9400   11.9840   -2.4080 C   0  0  2  0  0  0  0  0  0  0  0  0
    0.6220   12.5040   -1.1420 O   0  0  0  0  0  0  0  0  0  0  0  0
    0.2250   12.8920   -3.4400 C   0  0  0  0  0  0  0  0  0  0  0  0
    0.5890   12.7620   -4.9380 C   0  0  0  0  0  0  0  0  0  0  0  0
   -0.4820   12.0310   -5.7910 C   0  0  2  0  0  0  0  0  0  0  0  0
   -1.6830   11.5510   -4.8440 C   0  0  1  0  0  0  0  0  0  0  0  0
    0.2090   11.0270   -6.6720 N   0  0  0  0  0  0  0  0  0  0  0  0
   -2.7260   12.4920   -4.9450 O   0  0  0  0  0  0  0  0  0  0  0  0
   -2.2970   10.2640   -5.1500 N   0  0  0  0  0  0  0  0  0  0  0  0
   -0.4500    9.7130   -6.7530 C   0  0  1  0  0  0  0  0  0  0  0  0
   -2.3380   13.7930   -4.5280 C   0  0  0  0  0  0  0  0  0  0  0  0
   -1.9660    9.7480   -6.4610 C   0  0  1  0  0  0  0  0  0  0  0  0
   -0.1750    9.1210   -8.1340 C   0  0  0  0  0  0  0  0  0  0  0  0
   -2.0110   13.7060   -3.1570 O   0  0  0  0  0  0  0  0  0  0  0  0
   -0.7790    7.7280   -8.2920 C   0  0  0  0  0  0  0  0  0  0  0  0
   -2.6040    8.3620   -6.6520 C   0  0  0  0  0  0  0  0  0  0  0  0
   -2.0080   14.9590   -2.5150 C   0  0  2  0  0  0  0  0  0  0  0  0
   -2.2730    7.7060   -7.9960 C   0  0  0  0  0  0  0  0  0  0  0  0
   -1.1190   14.9150   -1.5350 O   0  0  0  0  0  0  0  0  0  0  0  0
   -3.4200   15.1920   -1.8860 C   0  0  2  0  0  0  0  0  0  0  0  0
   -3.5160   14.5900   -0.4720 C   0  0  0  0  0  0  0  0  0  0  0  0
   -4.5380   14.7060   -2.8280 C   0  0  0  0  0  0  0  0  0  0  0  0
   -4.8810   14.8000    0.1610 C   0  0  0  0  0  0  0  0  0  0  0  0
   -5.9250   14.8700   -2.2300 C   0  0  0  0  0  0  0  0  0  0  0  0
   -5.9180   15.4050   -0.8000 C   0  0  1  0  0  0  0  0  0  0  0  0
   -7.2190   15.1790   -0.2570 O   0  0  0  0  0  0  0  0  0  0  0  0
  2  1  1  1
  2  3  1  0
  2  4  1  0
  4  5  1  0
  6  5  1  1
  6  7  1  0
  6  8  1  0
  7  9  1  6
  7 10  1  0
  8 11  1  0
  9 12  1  0
 10 13  1  0
 11 13  1  0
 11 14  1  6
 12 15  1  0
 14 16  1  0
 13 17  1  1
 15 18  1  0
 16 19  1  0
 17 19  1  0
 18 20  1  1
 18 21  1  0
 21 22  1  1
 21 23  1  0
 22 24  1  0
 23 25  1  0
 24 26  1  0
 25 26  1  0
 26 27  1  1
M  CHG  2   1  -1  20  -1
M  END
