ucsf516-ucsf303
     RDKit          3D

 27 31  0  0  0  0  0  0  0  0999 V2000
   -3.2570   13.8080   -3.2780 O   0  0  0  0  0  0  0  0  0  0  0  0
   -4.4120   14.3360   -2.2950 S   0  0  0  0  0  0  0  0  0  0  0  0
   -5.2050   15.3980   -3.1340 O   0  0  0  0  0  0  0  0  0  0  0  0
   -5.4370   13.1610   -1.8550 N   0  0  0  0  0  0  0  0  0  0  0  0
   -3.6390   15.3000   -1.0700 C   0  0  2  0  0  0  0  0  0  0  0  0
   -2.4350   14.5540   -0.5660 C   0  0  2  0  0  0  0  0  0  0  0  0
   -4.5150   15.5210    0.1510 C   0  0  0  0  0  0  0  0  0  0  0  0
   -5.2890   11.7890   -2.2330 C   0  0  2  0  0  0  0  0  0  0  0  0
   -2.4660   14.7560    0.9250 C   0  0  2  0  0  0  0  0  0  0  0  0
   -1.1560   15.1270   -1.1900 C   0  0  2  0  0  0  0  0  0  0  0  0
   -3.6100   15.5770    1.2970 N   0  0  0  0  0  0  0  0  0  0  0  0
   -5.8030   10.8740   -1.2300 N   0  0  0  0  0  0  0  0  0  0  0  0
   -3.5330   11.4160   -2.3140 S   0  0  0  0  0  0  0  0  0  0  0  0
   -1.1590   14.8740   -2.6440 N   0  0  0  0  0  0  0  0  0  0  0  0
   -0.0250   14.5210   -0.5250 N   0  0  0  0  0  0  0  0  0  0  0  0
   -1.2620   15.3440    1.3860 N   0  0  0  0  0  0  0  0  0  0  0  0
   -3.8890    9.6750   -2.0410 C   0  0  0  0  0  0  0  0  0  0  0  0
   -5.2570    9.5350   -1.4980 N   0  0  0  0  0  0  0  0  0  0  0  0
    0.0320   14.4920   -3.4500 C   0  0  1  0  0  0  0  0  0  0  0  0
   -2.0250   15.6850   -3.5140 C   0  0  0  0  0  0  0  0  0  0  0  0
   -0.0250   14.7840    0.9050 C   0  0  0  0  0  0  0  0  0  0  0  0
    0.2320   13.0010   -3.6140 C   0  0  0  0  0  0  0  0  0  0  0  0
   -0.1950   15.0880   -4.8420 C   0  0  0  0  0  0  0  0  0  0  0  0
   -1.7020   15.1940   -4.9090 C   0  0  0  0  0  0  0  0  0  0  0  0
    1.5060   12.3260   -3.0570 C   0  0  0  0  0  0  0  0  0  0  0  0
   -0.5330   12.1110   -2.6030 C   0  0  0  0  0  0  0  0  0  0  0  0
    0.5760   11.1020   -2.8360 C   0  0  0  0  0  0  0  0  0  0  0  0
  2  1  1  0
  2  3  1  0
  2  4  1  0
  5  2  1  6
  6  5  1  6
  5  7  1  0
  8  4  1  1
  6  9  1  0
  6 10  1  0
  7 11  1  0
  9 11  1  6
  8 12  1  0
  8 13  1  0
 10 14  1  6
 10 15  1  0
  9 16  1  0
 13 17  1  0
 12 18  1  0
 17 18  1  0
 14 19  1  0
 14 20  1  0
 15 21  1  0
 16 21  1  0
 19 22  1  6
 19 23  1  0
 20 24  1  0
 23 24  1  0
 22 25  1  0
 22 26  1  0
 25 27  1  0
 26 27  1  0
M  END
