ucsf109-ucsf584
     RDKit          3D

 13 15  0  0  0  0  0  0  0  0999 V2000
   -4.0230   15.3740    1.7940 N   0  0  0  0  0  0  0  0  0  0  0  0
   -4.7900   14.3620    1.1000 C   0  0  2  0  0  0  0  0  0  0  0  0
   -4.4840   14.2630   -0.4030 C   0  0  1  0  0  0  0  0  0  0  0  0
   -6.1770   14.7620    1.2130 N   0  0  0  0  0  0  0  0  0  0  0  0
   -7.0560   13.9970    0.3660 C   0  0  2  0  0  0  0  0  0  0  0  0
   -5.5710   14.9030   -1.2720 C   0  0  2  0  0  0  0  0  0  0  0  0
   -3.2690   14.9620   -0.9630 C   0  0  0  0  0  0  0  0  0  0  0  0
   -6.7710   14.8200    2.5350 N   0  0  0  0  0  0  0  0  0  0  0  0
   -6.9240   14.4130   -1.0020 N   0  0  0  0  0  0  0  0  0  0  0  0
   -5.0000   14.6170   -2.6560 C   0  0  0  0  0  0  0  0  0  0  0  0
   -3.5040   14.9160   -2.4840 C   0  0  0  0  0  0  0  0  0  0  0  0
   -8.3540   14.3170    0.8690 N   0  0  0  0  0  0  0  0  0  0  0  0
   -8.1370   14.3390    2.3090 C   0  0  0  0  0  0  0  0  0  0  0  0
  2  1  1  6
  2  3  1  0
  2  4  1  0
  4  5  1  0
  3  6  1  0
  3  7  1  1
  4  8  1  0
  5  9  1  6
  6  9  1  0
  6 10  1  6
  7 11  1  0
 10 11  1  0
  5 12  1  0
  8 13  1  0
 12 13  1  0
M  END
