ucsf274-ucsf424
     RDKit          3D

 16 17  0  0  0  0  0  0  0  0999 V2000
    0.3530   11.1190   -1.7470 O   0  0  0  0  0  0  0  0  0  0  0  0
    0.9630   12.0150   -2.5350 C   0  0  2  0  0  0  0  0  0  0  0  0
    1.4770   12.9450   -1.6210 O   0  0  0  0  0  0  0  0  0  0  0  0
   -0.0540   12.7950   -3.3740 C   0  0  0  0  0  0  0  0  0  0  0  0
    0.3810   12.9590   -4.8460 C   0  0  0  0  0  0  0  0  0  0  0  0
   -0.5680   12.2430   -5.8230 C   0  0  2  0  0  0  0  0  0  0  0  0
   -1.9840   11.8750   -5.2220 C   0  0  2  0  0  0  0  0  0  0  0  0
    0.1250   11.0810   -6.4240 N   0  0  0  0  0  0  0  0  0  0  0  0
   -2.2380   12.3890   -3.9340 O   0  0  0  0  0  0  0  0  0  0  0  0
   -2.2620   10.4560   -5.1640 N   0  0  0  0  0  0  0  0  0  0  0  0
   -0.7490   10.2460   -7.2460 C   0  0  2  0  0  0  0  0  0  0  0  0
   -2.0580    9.8520   -6.4900 C   0  0  1  0  0  0  0  0  0  0  0  0
   -0.0040    8.9970   -7.7410 C   0  0  0  0  0  0  0  0  0  0  0  0
   -0.8920    7.9960   -8.4780 C   0  0  0  0  0  0  0  0  0  0  0  0
   -2.2090    8.3300   -6.3320 C   0  0  0  0  0  0  0  0  0  0  0  0
   -2.0820    7.5550   -7.6430 C   0  0  0  0  0  0  0  0  0  0  0  0
  2  1  1  1
  2  3  1  0
  2  4  1  0
  4  5  1  0
  6  5  1  1
  6  7  1  0
  6  8  1  0
  7  9  1  1
  7 10  1  0
  8 11  1  0
 10 12  1  0
 11 12  1  0
 11 13  1  1
 13 14  1  0
 12 15  1  1
 14 16  1  0
 15 16  1  0
M  CHG  1   1  -1
M  END
