ucsf274-ucsf519
     RDKit          3D

 26 28  0  0  0  0  0  0  0  0999 V2000
    0.7010   10.6380   -2.1900 O   0  0  0  0  0  0  0  0  0  0  0  0
    0.2430   11.8760   -2.2630 C   0  0  1  0  0  0  0  0  0  0  0  0
    0.6430   12.4460   -1.0530 O   0  0  0  0  0  0  0  0  0  0  0  0
    0.7830   12.7060   -3.4670 C   0  0  0  0  0  0  0  0  0  0  0  0
   -0.4080   13.0580   -4.3610 C   0  0  1  0  0  0  0  0  0  0  0  0
   -0.9500   14.5590   -4.4400 C   0  0  2  0  0  0  0  0  0  0  0  0
   -0.8110   11.8670   -5.2860 C   0  0  1  0  0  0  0  0  0  0  0  0
    0.1030   15.6590   -4.1810 C   0  0  0  0  0  0  0  0  0  0  0  0
   -2.3290   14.8460   -3.6970 C   0  0  2  0  0  0  0  0  0  0  0  0
   -2.3530   11.7130   -5.2730 C   0  0  2  0  0  0  0  0  0  0  0  0
   -0.1300   11.5080   -6.5560 N   0  0  0  0  0  0  0  0  0  0  0  0
   -2.8160   11.8470   -3.9290 O   0  0  0  0  0  0  0  0  0  0  0  0
   -3.1890   15.4970   -4.6080 O   0  0  0  0  0  0  0  0  0  0  0  0
   -2.8350   10.4420   -5.7500 N   0  0  0  0  0  0  0  0  0  0  0  0
   -0.4860   10.0640   -6.8110 C   0  0  1  0  0  0  0  0  0  0  0  0
   -2.4680   15.5160   -2.3920 N   0  0  0  0  0  0  0  0  0  0  0  0
   -1.7050    9.5350   -5.9720 C   0  0  2  0  0  0  0  0  0  0  0  0
   -0.6080    9.7580   -8.2990 C   0  0  0  0  0  0  0  0  0  0  0  0
   -3.7940   15.2980   -1.7840 C   0  0  0  0  0  0  0  0  0  0  0  0
   -1.4640   15.3940   -1.3430 C   0  0  2  0  0  0  0  0  0  0  0  0
   -0.4370   14.4890   -1.6120 O   0  0  0  0  0  0  0  0  0  0  0  0
   -0.8910    8.2820   -8.5350 C   0  0  0  0  0  0  0  0  0  0  0  0
   -2.3190    8.1890   -6.4410 C   0  0  0  0  0  0  0  0  0  0  0  0
   -3.5290   15.3370   -0.2910 C   0  0  0  0  0  0  0  0  0  0  0  0
   -2.1400   14.8930   -0.1520 N   0  0  0  0  0  0  0  0  0  0  0  0
   -2.2430    7.9180   -7.9440 C   0  0  0  0  0  0  0  0  0  0  0  0
  2  1  1  6
  2  3  1  0
  2  4  1  0
  5  4  1  6
  5  6  1  0
  5  7  1  0
  6  8  1  1
  6  9  1  0
  7 10  1  0
  7 11  1  6
 10 12  1  1
  9 13  1  6
 10 14  1  0
 11 15  1  0
  9 16  1  0
 14 17  1  0
 15 17  1  0
 15 18  1  6
 16 19  1  0
 16 20  1  0
 20 21  1  6
 18 22  1  0
 17 23  1  6
 19 24  1  0
 20 25  1  0
 24 25  1  0
 22 26  1  0
 23 26  1  0
M  CHG  1   1  -1
M  END
