ucsf213-ucsf422
     RDKit          3D

 14 15  0  0  0  0  0  0  0  0999 V2000
    0.7140   10.6510   -2.4020 O   0  0  0  0  0  0  0  0  0  0  0  0
    0.4090   11.9310   -2.5460 C   0  0  1  0  0  0  0  0  0  0  0  0
    0.6440   12.4430   -1.2570 O   0  0  0  0  0  0  0  0  0  0  0  0
    1.2820   12.7270   -3.5250 C   0  0  0  0  0  0  0  0  0  0  0  0
    0.8430   14.2130   -3.5870 C   0  0  1  0  0  0  0  0  0  0  0  0
    1.3220   15.0980   -4.7240 C   0  0  0  0  0  0  0  0  0  0  0  0
   -0.9680   14.4660   -3.4800 S   0  0  0  0  0  0  0  0  0  0  0  0
    0.2530   16.0910   -5.1810 C   0  0  1  0  0  0  0  0  0  0  0  0
   -1.1080   15.4130   -5.0140 C   0  0  2  0  0  0  0  0  0  0  0  0
    0.3920   17.5020   -4.5980 C   0  0  0  0  0  0  0  0  0  0  0  0
   -2.2810   16.3750   -5.0900 C   0  0  2  0  0  0  0  0  0  0  0  0
   -3.7860   15.5000   -6.0060 Br  0  0  0  0  0  0  0  0  0  0  0  0
   -0.7310   18.4060   -5.1010 C   0  0  0  0  0  0  0  0  0  0  0  0
   -1.8630   17.6670   -5.8090 C   0  0  0  0  0  0  0  0  0  0  0  0
  2  1  1  1
  2  3  1  0
  2  4  1  0
  5  4  1  6
  5  6  1  0
  5  7  1  0
  8  6  1  1
  9  7  1  1
  8  9  1  0
  8 10  1  0
  9 11  1  0
 11 12  1  6
 10 13  1  0
 11 14  1  0
 13 14  1  0
M  CHG  1   1  -1
M  END
