ucsf320-ucsf109
     RDKit          3D

 18 20  0  0  0  0  0  0  0  0999 V2000
   -1.1450   14.4390   -1.8520 O   0  0  0  0  0  0  0  0  0  0  0  0
   -1.8410   15.1880   -2.6750 C   0  0  1  0  0  0  0  0  0  0  0  0
   -1.8520   14.3910   -3.8390 O   0  0  0  0  0  0  0  0  0  0  0  0
   -3.2930   15.3650   -2.1480 C   0  0  2  0  0  0  0  0  0  0  0  0
   -3.4330   14.9300   -0.7010 C   0  0  0  0  0  0  0  0  0  0  0  0
   -4.3730   14.6690   -2.9940 C   0  0  0  0  0  0  0  0  0  0  0  0
   -4.7930   15.3680   -0.1430 C   0  0  1  0  0  0  0  0  0  0  0  0
   -5.7870   14.9650   -2.4740 C   0  0  0  0  0  0  0  0  0  0  0  0
   -6.0100   14.8820   -0.9640 C   0  0  2  0  0  0  0  0  0  0  0  0
   -4.9000   14.9650    1.3300 C   0  0  2  0  0  0  0  0  0  0  0  0
   -7.1270   15.7400   -0.7180 O   0  0  0  0  0  0  0  0  0  0  0  0
   -3.6920   14.2780    1.7560 N   0  0  0  0  0  0  0  0  0  0  0  0
   -6.0260   14.1250    1.7380 N   0  0  0  0  0  0  0  0  0  0  0  0
   -6.5300   13.6140   -0.6000 N   0  0  0  0  0  0  0  0  0  0  0  0
   -6.9310   13.5420    0.7600 C   0  0  2  0  0  0  0  0  0  0  0  0
   -6.8430   14.7910    2.7620 N   0  0  0  0  0  0  0  0  0  0  0  0
   -8.1540   14.3050    0.9290 N   0  0  0  0  0  0  0  0  0  0  0  0
   -8.2020   14.4420    2.3820 C   0  0  0  0  0  0  0  0  0  0  0  0
  2  1  1  1
  2  3  1  0
  2  4  1  0
  4  5  1  1
  4  6  1  0
  7  5  1  6
  6  8  1  0
  7  9  1  0
  8  9  1  0
  7 10  1  0
  9 11  1  6
 10 12  1  6
 10 13  1  0
  9 14  1  0
 13 15  1  0
 15 14  1  6
 13 16  1  0
 15 17  1  0
 16 18  1  0
 17 18  1  0
M  CHG  1   1  -1
M  END
