ucsf173-ucsf247
     RDKit          3D

 24 26  0  0  0  0  0  0  0  0999 V2000
    1.3460   14.4430   -1.3640 O   0  0  0  0  0  0  0  0  0  0  0  0
    0.0330   12.8940   -2.7510 S   0  0  0  0  0  0  0  0  0  0  0  0
    0.4650   11.4130   -1.7840 O   0  0  0  0  0  0  0  0  0  0  0  0
    1.7130   12.3580   -3.2680 O   0  0  0  0  0  0  0  0  0  0  0  0
   -1.5290   13.0990   -1.9210 C   0  0  0  0  0  0  0  0  0  0  0  0
   -0.0950   14.0230   -4.0750 C   0  0  1  0  0  0  0  0  0  0  0  0
   -1.7340   14.5230   -1.8280 N   0  0  0  0  0  0  0  0  0  0  0  0
   -1.3750   14.6650   -4.0160 C   0  0  0  0  0  0  0  0  0  0  0  0
    0.7770   15.1860   -3.9670 C   0  0  0  0  0  0  0  0  0  0  0  0
   -3.0290   15.0390   -2.3150 C   0  0  1  0  0  0  0  0  0  0  0  0
   -1.2680   15.5780   -5.1490 C   0  0  2  0  0  0  0  0  0  0  0  0
    0.2030   16.0690   -5.0290 C   0  0  1  0  0  0  0  0  0  0  0  0
   -3.6040   14.1240   -3.2090 O   0  0  0  0  0  0  0  0  0  0  0  0
   -2.2680   16.6990   -5.1420 C   0  0  0  0  0  0  0  0  0  0  0  0
    0.3320   17.5070   -4.7140 C   0  0  0  0  0  0  0  0  0  0  0  0
   -3.9430   15.1650   -1.1810 C   0  0  1  0  0  0  0  0  0  0  0  0
   -1.7890   17.9490   -5.8670 C   0  0  0  0  0  0  0  0  0  0  0  0
   -0.2990   18.2030   -5.9040 C   0  0  0  0  0  0  0  0  0  0  0  0
   -5.2500   14.5280   -1.2790 C   0  0  0  0  0  0  0  0  0  0  0  0
   -3.2590   14.8590    0.1270 C   0  0  0  0  0  0  0  0  0  0  0  0
   -6.1480   15.0970   -0.2290 C   0  0  1  0  0  0  0  0  0  0  0  0
   -4.1490   15.4740    1.2140 C   0  0  0  0  0  0  0  0  0  0  0  0
   -7.4130   14.5740   -0.2360 O   0  0  0  0  0  0  0  0  0  0  0  0
   -5.4890   14.7810    1.1200 C   0  0  0  0  0  0  0  0  0  0  0  0
  1  2  1  0
  2  3  1  0
  2  4  1  0
  2  5  1  0
  6  2  1  1
  5  7  1  0
  6  8  1  0
  6  9  1  0
  7 10  1  0
 11  8  1  1
 12  9  1  1
 11 12  1  0
 10 13  1  6
 11 14  1  0
 12 15  1  0
 10 16  1  0
 14 17  1  0
 15 18  1  0
 17 18  1  0
 16 19  1  6
 16 20  1  0
 19 21  1  0
 20 22  1  0
 21 23  1  1
 21 24  1  0
 22 24  1  0
M  CHG  1   1  -1
M  END
