ucsf016-ucsf357
     RDKit          3D

 22 25  0  0  0  0  0  0  0  0999 V2000
   -5.8520   14.2690   -1.9880 O   0  0  0  0  0  0  0  0  0  0  0  0
   -5.6960   15.1930   -1.0630 C   0  0  1  0  0  0  0  0  0  0  0  0
   -6.4090   14.6380    0.0230 O   0  0  0  0  0  0  0  0  0  0  0  0
   -4.2050   15.4040   -0.6320 C   0  0  1  0  0  0  0  0  0  0  0  0
   -3.7220   14.9820    0.7160 N   0  0  0  0  0  0  0  0  0  0  0  0
   -3.0650   14.9480   -1.5630 C   0  0  1  0  0  0  0  0  0  0  0  0
   -2.7330   13.5670   -1.5610 O   0  0  0  0  0  0  0  0  0  0  0  0
   -3.1410   15.2940   -2.8630 F   0  0  0  0  0  0  0  0  0  0  0  0
   -2.3000   15.3460    0.6370 C   0  0  2  0  0  0  0  0  0  0  0  0
   -1.9570   15.5980   -0.8350 C   0  0  1  0  0  0  0  0  0  0  0  0
   -1.5250   14.3720    1.3300 N   0  0  0  0  0  0  0  0  0  0  0  0
   -0.5590   15.1720   -1.2570 C   0  0  2  0  0  0  0  0  0  0  0  0
   -0.5690   14.7270   -2.6690 N   0  0  0  0  0  0  0  0  0  0  0  0
    0.0950   14.1810   -0.3940 N   0  0  0  0  0  0  0  0  0  0  0  0
   -0.1260   14.3910    1.0220 C   0  0  0  0  0  0  0  0  0  0  0  0
    0.6790   14.2470   -3.2610 C   0  0  0  0  0  0  0  0  0  0  0  0
   -1.3350   15.5440   -3.6340 C   0  0  0  0  0  0  0  0  0  0  0  0
   -1.7690   14.6600   -4.8040 C   0  0  0  0  0  0  0  0  0  0  0  0
    0.3190   13.3160   -4.4320 C   0  0  0  0  0  0  0  0  0  0  0  0
   -3.0760   13.8790   -4.7180 C   0  0  0  0  0  0  0  0  0  0  0  0
   -2.9890   15.0640   -5.6340 C   0  0  0  0  0  0  0  0  0  0  0  0
   -0.5820   13.9960   -5.4660 C   0  0  0  0  0  0  0  0  0  0  0  0
  2  1  1  6
  2  3  1  0
  2  4  1  0
  4  5  1  1
  4  6  1  0
  6  7  1  6
  6  8  1  0
  9  5  1  6
  6 10  1  0
  9 10  1  0
  9 11  1  0
 10 12  1  6
 12 13  1  6
 12 14  1  0
 11 15  1  0
 14 15  1  0
 13 16  1  0
 13 17  1  0
 18 17  1  0
 16 19  1  0
 18 20  1  0
 18 21  1  0
 20 21  1  0
 18 22  1  0
 19 22  1  0
M  CHG  1   1  -1
M  END
