ucsf336-ucsf274
     RDKit          3D

 16 18  0  0  0  0  0  0  0  0999 V2000
    0.4100   13.3040   -4.9630 O   0  0  0  0  0  0  0  0  0  0  0  0
    0.3900   12.7340   -3.6480 C   0  0  2  0  0  0  0  0  0  0  0  0
    1.0480   13.5560   -2.6900 O   0  0  0  0  0  0  0  0  0  0  0  0
   -0.3660   12.6880   -6.0430 C   0  0  1  0  0  0  0  0  0  0  0  0
    0.9770   11.2990   -3.5590 C   0  0  1  0  0  0  0  0  0  0  0  0
    0.2580   11.4660   -6.6880 C   0  0  1  0  0  0  0  0  0  0  0  0
   -1.7770   12.2220   -5.6470 C   0  0  2  0  0  0  0  0  0  0  0  0
    0.2580   10.5350   -2.5910 O   0  0  0  0  0  0  0  0  0  0  0  0
    1.0220   10.4610   -4.7210 N   0  0  0  0  0  0  0  0  0  0  0  0
   -2.2100   12.9760   -4.5360 O   0  0  0  0  0  0  0  0  0  0  0  0
    1.4610   11.0700   -5.9440 C   0  0  0  0  0  0  0  0  0  0  0  0
   -1.6960   10.6830   -5.4750 C   0  0  2  0  0  0  0  0  0  0  0  0
   -0.7530   10.3030   -6.6090 C   0  0  1  0  0  0  0  0  0  0  0  0
   -1.6670   10.1090   -7.8000 C   0  0  0  0  0  0  0  0  0  0  0  0
   -2.9680    9.8750   -5.7890 C   0  0  0  0  0  0  0  0  0  0  0  0
   -2.7670    9.2560   -7.1810 C   0  0  0  0  0  0  0  0  0  0  0  0
  1  2  1  0
  2  3  1  1
  4  1  1  1
  2  5  1  0
  4  6  1  0
  4  7  1  0
  5  8  1  1
  5  9  1  0
  7 10  1  1
  6 11  1  1
  9 11  1  0
  7 12  1  0
  6 13  1  0
 12 13  1  0
 13 14  1  6
 12 15  1  6
 14 16  1  0
 15 16  1  0
M  END
