ucsf367-ucsf016
     RDKit          3D

 28 32  0  0  0  0  0  0  0  0999 V2000
    0.7490   10.3530   -2.4450 O   0  0  0  0  0  0  0  0  0  0  0  0
    0.6980   11.6560   -2.6820 C   0  0  1  0  0  0  0  0  0  0  0  0
    2.0270   12.1150   -2.8130 O   0  0  0  0  0  0  0  0  0  0  0  0
   -0.0550   12.0290   -3.9890 C   0  0  2  0  0  0  0  0  0  0  0  0
    0.4000   11.5620   -5.2730 O   0  0  0  0  0  0  0  0  0  0  0  0
   -0.5830   13.4610   -3.9800 C   0  0  2  0  0  0  0  0  0  0  0  0
   -0.4760   10.4930   -5.6020 C   0  0  0  0  0  0  0  0  0  0  0  0
   -1.0400   14.0490   -5.2850 C   0  0  0  0  0  0  0  0  0  0  0  0
    0.2810   14.5160   -3.3430 C   0  0  0  0  0  0  0  0  0  0  0  0
   -0.3630    9.9590   -7.0110 C   0  0  0  0  0  0  0  0  0  0  0  0
   -1.8990   11.0270   -5.4270 C   0  0  0  0  0  0  0  0  0  0  0  0
   -2.1490   14.9540   -4.8200 C   0  0  0  0  0  0  0  0  0  0  0  0
   -0.6650   15.4930   -2.7970 N   0  0  0  0  0  0  0  0  0  0  0  0
   -1.3270    8.7730   -7.1550 C   0  0  0  0  0  0  0  0  0  0  0  0
   -2.9300    9.9140   -5.4980 C   0  0  0  0  0  0  0  0  0  0  0  0
   -3.5190   14.3140   -4.6940 C   0  0  0  0  0  0  0  0  0  0  0  0
   -3.2600   15.3020   -5.7940 C   0  0  0  0  0  0  0  0  0  0  0  0
   -1.7290   15.9770   -3.7310 C   0  0  0  0  0  0  0  0  0  0  0  0
   -0.8800   15.5170   -1.3320 C   0  0  2  0  0  0  0  0  0  0  0  0
   -2.7860    9.0760   -6.7630 C   0  0  0  0  0  0  0  0  0  0  0  0
   -0.1140   14.5170   -0.5800 N   0  0  0  0  0  0  0  0  0  0  0  0
   -2.2770   15.6490   -0.7390 C   0  0  2  0  0  0  0  0  0  0  0  0
   -0.1200   14.6550    0.8790 C   0  0  0  0  0  0  0  0  0  0  0  0
   -2.4200   14.7080    0.3980 C   0  0  1  0  0  0  0  0  0  0  0  0
   -3.5490   15.2720   -1.4640 C   0  0  0  0  0  0  0  0  0  0  0  0
   -1.4380   14.9860    1.4040 N   0  0  0  0  0  0  0  0  0  0  0  0
   -3.7160   15.0910    0.9360 N   0  0  0  0  0  0  0  0  0  0  0  0
   -4.5180   15.3670   -0.2780 C   0  0  0  0  0  0  0  0  0  0  0  0
  2  1  1  6
  2  3  1  0
  2  4  1  0
  4  5  1  6
  4  6  1  0
  5  7  1  0
  6  8  1  6
  6  9  1  0
  7 10  1  0
  7 11  1  0
 12  8  1  0
  9 13  1  0
 10 14  1  0
 11 15  1  0
 12 16  1  0
 12 17  1  0
 16 17  1  0
 12 18  1  0
 13 18  1  0
 19 13  1  6
 14 20  1  0
 15 20  1  0
 19 21  1  0
 19 22  1  0
 21 23  1  0
 22 24  1  0
 22 25  1  6
 23 26  1  0
 24 26  1  1
 24 27  1  0
 25 28  1  0
 27 28  1  0
M  CHG  1   1  -1
M  END
