ucsf124-ucsf247
     RDKit          3D

 26 28  0  0  0  0  0  0  0  0999 V2000
    0.2920   11.4990   -2.3330 O   0  0  0  0  0  0  0  0  0  0  0  0
    0.2630   12.6990   -2.9320 C   0  0  1  0  0  0  0  0  0  0  0  0
    1.0740   13.4780   -2.0780 O   0  0  0  0  0  0  0  0  0  0  0  0
    0.9210   12.5700   -4.3460 C   0  0  0  0  0  0  0  0  0  0  0  0
   -1.2170   13.2730   -3.0110 C   0  0  0  0  0  0  0  0  0  0  0  0
   -1.4740   14.5310   -2.2590 N   0  0  0  0  0  0  0  0  0  0  0  0
    0.1880   11.8040   -5.3580 N   0  0  0  0  0  0  0  0  0  0  0  0
   -2.8730   14.9620   -2.3040 C   0  0  1  0  0  0  0  0  0  0  0  0
   -0.8700   10.9000   -4.9450 C   0  0  1  0  0  0  0  0  0  0  0  0
    1.0020   11.0810   -6.2820 C   0  0  2  0  0  0  0  0  0  0  0  0
   -2.0670   11.6180   -4.8180 O   0  0  0  0  0  0  0  0  0  0  0  0
    1.9310   11.9090   -6.9340 O   0  0  0  0  0  0  0  0  0  0  0  0
   -3.4480   14.6540   -3.5560 O   0  0  0  0  0  0  0  0  0  0  0  0
   -0.9380    9.8640   -6.0820 C   0  0  2  0  0  0  0  0  0  0  0  0
   -0.0670   10.4740   -7.1750 C   0  0  2  0  0  0  0  0  0  0  0  0
   -3.7240   14.3260   -1.1920 C   0  0  2  0  0  0  0  0  0  0  0  0
   -2.2600    9.3790   -6.6690 C   0  0  0  0  0  0  0  0  0  0  0  0
    0.2930    9.4100   -8.2060 C   0  0  0  0  0  0  0  0  0  0  0  0
   -5.2380   14.5520   -1.4520 C   0  0  0  0  0  0  0  0  0  0  0  0
   -3.1260   14.6530    0.2220 C   0  0  0  0  0  0  0  0  0  0  0  0
   -2.0120    8.3030   -7.7480 C   0  0  0  0  0  0  0  0  0  0  0  0
   -0.9530    8.7040   -8.7890 C   0  0  0  0  0  0  0  0  0  0  0  0
   -6.0080   15.2130   -0.3370 C   0  0  1  0  0  0  0  0  0  0  0  0
   -4.0420   15.4110    1.1600 C   0  0  0  0  0  0  0  0  0  0  0  0
   -7.3840   14.8310   -0.3960 O   0  0  0  0  0  0  0  0  0  0  0  0
   -5.4400   14.8560    1.0300 C   0  0  0  0  0  0  0  0  0  0  0  0
  2  1  1  1
  2  3  1  0
  2  4  1  0
  2  5  1  0
  5  6  1  0
  4  7  1  0
  6  8  1  0
  7  9  1  0
  7 10  1  0
  9 11  1  6
 10 12  1  6
  8 13  1  6
  9 14  1  0
 10 15  1  0
 14 15  1  0
  8 16  1  0
 14 17  1  6
 15 18  1  6
 16 19  1  1
 16 20  1  0
 17 21  1  0
 18 22  1  0
 21 22  1  0
 19 23  1  0
 20 24  1  0
 23 25  1  1
 23 26  1  0
 24 26  1  0
M  CHG  1   1  -1
M  END
