ucsf378-ucsf520
     RDKit          3D

 22 24  0  0  0  0  0  0  0  0999 V2000
   -2.5960   14.4340   -3.8980 C   0  0  0  0  0  0  0  0  0  0  0  0
   -1.1450   14.5290   -4.4880 C   0  0  2  0  0  0  0  0  0  0  0  0
   -0.0610   13.6720   -3.6990 C   0  0  1  0  0  0  0  0  0  0  0  0
   -2.6840   14.4650   -2.3480 C   0  0  2  0  0  0  0  0  0  0  0  0
   -0.8280   16.0550   -4.5400 C   0  0  0  0  0  0  0  0  0  0  0  0
   -3.7770   15.0540   -1.5330 N   0  0  0  0  0  0  0  0  0  0  0  0
   -1.4420   15.0590   -1.9100 N   0  0  0  0  0  0  0  0  0  0  0  0
   -0.2940   12.1470   -3.6450 C   0  0  0  0  0  0  0  0  0  0  0  0
    1.4100   14.0900   -3.9250 C   0  0  1  0  0  0  0  0  0  0  0  0
    0.6140   16.4010   -4.2350 C   0  0  0  0  0  0  0  0  0  0  0  0
   -3.5950   14.8600   -0.0850 C   0  0  2  0  0  0  0  0  0  0  0  0
   -1.2270   14.6170   -0.5980 C   0  0  2  0  0  0  0  0  0  0  0  0
    2.6040   12.8750   -4.4390 Cl  0  0  0  0  0  0  0  0  0  0  0  0
    0.4190   11.4410   -2.4770 C   0  0  1  0  0  0  0  0  0  0  0  0
   -4.6140   15.6780    0.5480 N   0  0  0  0  0  0  0  0  0  0  0  0
    1.5520   15.3370   -4.7130 C   0  0  0  0  0  0  0  0  0  0  0  0
   -2.1560   15.2320    0.3830 C   0  0  2  0  0  0  0  0  0  0  0  0
    0.0420   14.9450   -0.0340 N   0  0  0  0  0  0  0  0  0  0  0  0
   -0.0940   11.8790   -1.3230 O   0  0  0  0  0  0  0  0  0  0  0  0
    0.0590   10.0840   -2.4540 O   0  0  0  0  0  0  0  0  0  0  0  0
   -1.6210   14.6510    1.6110 N   0  0  0  0  0  0  0  0  0  0  0  0
   -0.2170   14.3560    1.2700 C   0  0  0  0  0  0  0  0  0  0  0  0
  2  1  1  1
  2  3  1  0
  4  1  1  6
  2  5  1  0
  4  6  1  0
  4  7  1  0
  3  8  1  6
  3  9  1  0
  5 10  1  0
  6 11  1  0
 12  7  1  6
  9 13  1  6
  8 14  1  0
 11 15  1  1
  9 16  1  0
 10 16  1  0
 11 17  1  0
 12 17  1  0
 12 18  1  0
 14 19  1  1
 14 20  1  0
 17 21  1  1
 18 22  1  0
 21 22  1  0
M  CHG  1  19  -1
M  END
