ucsf172-ucsf262
     RDKit          3D

 26 28  0  0  0  0  0  0  0  0999 V2000
   -8.1730   14.9250    2.2750 C   0  0  0  0  0  0  0  0  0  0  0  0
   -6.8350   14.4380    1.2460 S   0  0  0  0  0  0  0  0  0  0  0  0
   -6.5980   12.9190    1.6590 O   0  0  0  0  0  0  0  0  0  0  0  0
   -7.4290   14.4520   -0.2410 O   0  0  0  0  0  0  0  0  0  0  0  0
   -5.3840   15.2130    1.3960 N   0  0  0  0  0  0  0  0  0  0  0  0
   -4.3490   15.3160    0.3390 C   0  0  1  0  0  0  0  0  0  0  0  0
   -3.2840   14.2380    0.6160 C   0  0  0  0  0  0  0  0  0  0  0  0
   -4.9030   15.2580   -1.0910 C   0  0  0  0  0  0  0  0  0  0  0  0
   -2.1470   14.2800   -0.3980 C   0  0  0  0  0  0  0  0  0  0  0  0
   -3.8350   15.1540   -2.1740 C   0  0  0  0  0  0  0  0  0  0  0  0
   -2.6380   14.2030   -1.8700 C   0  0  1  0  0  0  0  0  0  0  0  0
   -1.4400   14.4210   -2.8680 C   0  0  1  0  0  0  0  0  0  0  0  0
   -0.2740   13.6250   -2.5160 O   0  0  0  0  0  0  0  0  0  0  0  0
   -1.9120   14.0760   -4.0640 O   0  0  0  0  0  0  0  0  0  0  0  0
    1.0180   14.3320   -2.5860 C   0  0  1  0  0  0  0  0  0  0  0  0
    2.0310   13.5130   -2.2870 O   0  0  0  0  0  0  0  0  0  0  0  0
    1.2090   14.7610   -4.0990 C   0  0  1  0  0  0  0  0  0  0  0  0
   -0.0330   14.8650   -4.9670 C   0  0  0  0  0  0  0  0  0  0  0  0
    1.7150   16.1550   -4.2220 N   0  0  0  0  0  0  0  0  0  0  0  0
   -0.6470   16.1460   -4.4350 C   0  0  1  0  0  0  0  0  0  0  0  0
    0.5720   17.0690   -4.3750 C   0  0  2  0  0  0  0  0  0  0  0  0
   -1.9190   16.7410   -5.0710 C   0  0  2  0  0  0  0  0  0  0  0  0
    0.7800   17.9530   -5.5950 C   0  0  0  0  0  0  0  0  0  0  0  0
   -3.0920   15.5210   -5.6670 Cl  0  0  0  0  0  0  0  0  0  0  0  0
   -1.7460   17.8430   -6.1150 C   0  0  0  0  0  0  0  0  0  0  0  0
   -0.4840   18.6830   -6.0280 C   0  0  0  0  0  0  0  0  0  0  0  0
  1  2  1  0
  2  3  1  0
  2  4  1  0
  2  5  1  0
  6  5  1  1
  6  7  1  0
  6  8  1  0
  7  9  1  0
  8 10  1  0
 11  9  1  1
 10 11  1  0
 11 12  1  0
 12 13  1  0
 12 14  1  6
 13 15  1  0
 15 16  1  6
 15 17  1  0
 17 18  1  6
 17 19  1  0
 20 18  1  6
 19 21  1  0
 20 21  1  0
 20 22  1  0
 21 23  1  6
 22 24  1  6
 22 25  1  0
 23 26  1  0
 25 26  1  0
M  CHG  2  14  -1  16  -1
M  END
