ucsf190-ucsf337
     RDKit          3D

 26 28  0  0  0  0  0  0  0  0999 V2000
    0.5530   10.5400   -2.3760 O   0  0  0  0  0  0  0  0  0  0  0  0
    0.4240   11.8310   -2.6920 C   0  0  1  0  0  0  0  0  0  0  0  0
    0.8030   12.4480   -1.4820 O   0  0  0  0  0  0  0  0  0  0  0  0
    1.4110   12.2520   -3.8390 C   0  0  0  0  0  0  0  0  0  0  0  0
    1.3180   13.6660   -4.4710 C   0  0  1  0  0  0  0  0  0  0  0  0
   -0.0330   14.0930   -5.0820 C   0  0  2  0  0  0  0  0  0  0  0  0
    1.8870   14.7490   -3.6360 N   0  0  0  0  0  0  0  0  0  0  0  0
   -0.6820   15.3100   -4.3600 C   0  0  1  0  0  0  0  0  0  0  0  0
    1.6910   16.0070   -4.3780 N   0  0  0  0  0  0  0  0  0  0  0  0
   -0.9830   12.9010   -5.2680 C   0  0  0  0  0  0  0  0  0  0  0  0
    0.3310   16.4840   -4.2470 C   0  0  1  0  0  0  0  0  0  0  0  0
   -2.0370   15.7300   -5.0050 C   0  0  0  0  0  0  0  0  0  0  0  0
   -2.3990   13.2610   -4.8710 C   0  0  0  0  0  0  0  0  0  0  0  0
    0.1320   17.4970   -5.2060 O   0  0  0  0  0  0  0  0  0  0  0  0
   -2.8280   14.5290   -5.5890 C   0  0  1  0  0  0  0  0  0  0  0  0
   -4.3550   14.7360   -5.6420 C   0  0  0  0  0  0  0  0  0  0  0  0
   -5.1330   13.8850   -4.6220 C   0  0  0  0  0  0  0  0  0  0  0  0
   -6.0600   14.6700   -3.8120 N   0  0  0  0  0  0  0  0  0  0  0  0
   -5.6440   15.0690   -2.4880 C   0  0  2  0  0  0  0  0  0  0  0  0
   -4.1410   15.0610   -2.2110 C   0  0  0  0  0  0  0  0  0  0  0  0
   -6.4310   14.3000   -1.5530 N   0  0  0  0  0  0  0  0  0  0  0  0
   -6.2590   14.9020   -0.2340 C   0  0  1  0  0  0  0  0  0  0  0  0
   -3.7820   15.2400   -0.7410 C   0  0  0  0  0  0  0  0  0  0  0  0
   -7.3620   14.4340    0.7370 C   0  0  0  0  0  0  0  0  0  0  0  0
   -4.8090   14.7220    0.2350 C   0  0  1  0  0  0  0  0  0  0  0  0
   -4.3750   15.6600    1.8480 Br  0  0  0  0  0  0  0  0  0  0  0  0
  2  1  1  1
  2  3  1  0
  2  4  1  0
  5  4  1  1
  5  6  1  0
  5  7  1  0
  6  8  1  0
  7  9  1  0
  6 10  1  1
  8 11  1  0
  9 11  1  0
  8 12  1  6
 10 13  1  0
 11 14  1  6
 12 15  1  0
 13 15  1  0
 15 16  1  1
 16 17  1  0
 17 18  1  0
 19 18  1  6
 19 20  1  0
 19 21  1  0
 21 22  1  0
 20 23  1  0
 22 24  1  1
 22 25  1  0
 23 25  1  0
 25 26  1  1
M  CHG  1   1  -1
M  END
