ucsf348-ucsf424
     RDKit          3D

 27 30  0  0  0  0  0  0  0  0999 V2000
   -7.0430   14.7030    2.4590 N   0  0  0  0  0  0  0  0  0  0  0  0
   -6.2420   14.3150    1.3400 C   0  0  2  0  0  0  0  0  0  0  0  0
   -5.0150   15.0000    1.5120 N   0  0  0  0  0  0  0  0  0  0  0  0
   -6.8800   14.8110    0.1700 N   0  0  0  0  0  0  0  0  0  0  0  0
   -6.0680   14.5750   -1.0120 C   0  0  1  0  0  0  0  0  0  0  0  0
   -3.9960   14.5750    0.5780 C   0  0  1  0  0  0  0  0  0  0  0  0
   -6.3030   15.6250   -1.9360 O   0  0  0  0  0  0  0  0  0  0  0  0
   -4.5280   14.3830   -0.8620 C   0  0  2  0  0  0  0  0  0  0  0  0
   -2.7530   15.4720    0.6730 C   0  0  0  0  0  0  0  0  0  0  0  0
   -1.6720   15.2320   -0.3800 C   0  0  0  0  0  0  0  0  0  0  0  0
   -3.7240   15.2000   -1.8670 C   0  0  0  0  0  0  0  0  0  0  0  0
   -2.2520   14.8230   -1.7330 C   0  0  1  0  0  0  0  0  0  0  0  0
   -1.3710   15.2380   -2.9250 C   0  0  0  0  0  0  0  0  0  0  0  0
   -0.1880   14.2970   -3.2000 C   0  0  0  0  0  0  0  0  0  0  0  0
   -0.5640   12.9210   -3.0200 O   0  0  0  0  0  0  0  0  0  0  0  0
    0.4860   12.0360   -3.3840 C   0  0  2  0  0  0  0  0  0  0  0  0
    1.4870   12.2840   -2.5500 O   0  0  0  0  0  0  0  0  0  0  0  0
    0.9420   12.4850   -4.8010 C   0  0  0  0  0  0  0  0  0  0  0  0
    0.3070   11.8210   -6.0330 C   0  0  1  0  0  0  0  0  0  0  0  0
    1.2830   11.5090   -7.0910 N   0  0  0  0  0  0  0  0  0  0  0  0
   -0.4760   10.5140   -5.8600 C   0  0  2  0  0  0  0  0  0  0  0  0
    0.6040   10.5690   -7.9710 O   0  0  0  0  0  0  0  0  0  0  0  0
   -0.1760    9.7220   -7.1300 C   0  0  2  0  0  0  0  0  0  0  0  0
   -1.9710   10.6870   -5.5870 C   0  0  0  0  0  0  0  0  0  0  0  0
   -1.4190    9.2890   -7.8780 C   0  0  0  0  0  0  0  0  0  0  0  0
   -2.6880    9.3400   -5.6560 C   0  0  0  0  0  0  0  0  0  0  0  0
   -2.4060    8.5800   -6.9570 C   0  0  0  0  0  0  0  0  0  0  0  0
  2  1  1  1
  2  3  1  0
  2  4  1  0
  4  5  1  0
  3  6  1  0
  5  7  1  6
  5  8  1  0
  6  8  1  0
  6  9  1  6
  9 10  1  0
  8 11  1  6
 10 12  1  0
 11 12  1  0
 12 13  1  6
 13 14  1  0
 14 15  1  0
 15 16  1  0
 16 17  1  1
 16 18  1  0
 19 18  1  1
 19 20  1  0
 19 21  1  0
 20 22  1  0
 21 23  1  0
 22 23  1  0
 21 24  1  6
 23 25  1  6
 24 26  1  0
 25 27  1  0
 26 27  1  0
M  CHG  1  17  -1
M  END
