ucsf169-ucsf262
     RDKit          3D

 19 20  0  0  0  0  0  0  0  0999 V2000
    1.0870   18.0620   -4.2130 C   0  0  0  0  0  0  0  0  0  0  0  0
    0.5430   16.8960   -4.2030 O   0  0  0  0  0  0  0  0  0  0  0  0
   -0.3530   16.3580   -5.1280 C   0  0  2  0  0  0  0  0  0  0  0  0
   -1.8880   16.4990   -4.7320 S   0  0  0  0  0  0  0  0  0  0  0  0
    0.4590   15.1010   -5.1990 C   0  0  0  0  0  0  0  0  0  0  0  0
    0.1790   17.3550   -6.1300 C   0  0  0  0  0  0  0  0  0  0  0  0
   -3.4870   16.6870   -3.9210 O   0  0  0  0  0  0  0  0  0  0  0  0
   -2.6660   14.4160   -5.9850 Cl  0  0  0  0  0  0  0  0  0  0  0  0
   -1.4250   15.4140   -3.5450 C   0  0  0  0  0  0  0  0  0  0  0  0
    0.3810   14.1770   -4.1210 C   0  0  2  0  0  0  0  0  0  0  0  0
   -1.8590   17.8030   -5.9340 C   0  0  0  0  0  0  0  0  0  0  0  0
    0.3980   18.6930   -5.6770 C   0  0  0  0  0  0  0  0  0  0  0  0
    1.0630   12.9160   -4.0230 C   0  0  0  0  0  0  0  0  0  0  0  0
   -1.0380   14.1060   -3.8560 C   0  0  0  0  0  0  0  0  0  0  0  0
   -1.0530   18.8870   -5.3320 C   0  0  0  0  0  0  0  0  0  0  0  0
    1.3740   12.5260   -2.6610 C   0  0  0  0  0  0  0  0  0  0  0  0
    2.7030   12.3570   -2.4790 O   0  0  0  0  0  0  0  0  0  0  0  0
    0.5430   11.5700   -2.0210 O   0  0  0  0  0  0  0  0  0  0  0  0
    1.2240   13.6960   -1.8800 O   0  0  0  0  0  0  0  0  0  0  0  0
  1  2  1  0
  3  2  1  1
  3  4  1  0
  3  5  1  0
  3  6  1  0
  4  7  1  0
  4  8  1  0
  4  9  1  0
  5 10  1  0
  4 11  1  0
  6 12  1  0
 10 13  1  6
  9 14  1  0
 10 14  1  0
 11 15  1  0
 12 15  1  0
 13 16  1  0
 16 17  1  0
 16 18  1  0
 16 19  1  0
M  CHG  2  18  -1  19  -1
M  END
