ucsf013-ucsf213
     RDKit          3D

 25 28  0  0  0  0  0  0  0  0999 V2000
   -3.8490   14.1370    1.5790 N   0  0  0  0  0  0  0  0  0  0  0  0
   -5.0270   14.8130    1.1220 C   0  0  2  0  0  0  0  0  0  0  0  0
   -6.0660   13.8260    1.0660 N   0  0  0  0  0  0  0  0  0  0  0  0
   -4.7220   15.4790   -0.1980 C   0  0  2  0  0  0  0  0  0  0  0  0
   -5.8740   15.3450   -1.2420 C   0  0  2  0  0  0  0  0  0  0  0  0
   -7.2950   14.4210    0.6370 C   0  0  0  0  0  0  0  0  0  0  0  0
   -3.3680   15.0090   -0.7460 C   0  0  0  0  0  0  0  0  0  0  0  0
   -7.1690   14.7880   -0.7580 N   0  0  0  0  0  0  0  0  0  0  0  0
   -5.5200   14.5240   -2.5110 C   0  0  0  0  0  0  0  0  0  0  0  0
   -3.1620   15.4820   -2.1790 C   0  0  1  0  0  0  0  0  0  0  0  0
   -1.6840   15.4630   -2.6690 C   0  0  0  0  0  0  0  0  0  0  0  0
   -4.1350   14.7620   -3.1250 C   0  0  0  0  0  0  0  0  0  0  0  0
   -1.2600   15.6670   -4.1730 C   0  0  1  0  0  0  0  0  0  0  0  0
    0.1760   16.2900   -4.1540 C   0  0  1  0  0  0  0  0  0  0  0  0
   -1.0370   13.9900   -4.8780 S   0  0  0  0  0  0  0  0  0  0  0  0
   -2.2980   16.4480   -5.0430 C   0  0  0  0  0  0  0  0  0  0  0  0
    0.7630   13.8060   -4.5870 C   0  0  1  0  0  0  0  0  0  0  0  0
    1.2520   15.1820   -4.0900 C   0  0  0  0  0  0  0  0  0  0  0  0
    0.5150   17.3210   -5.2370 C   0  0  0  0  0  0  0  0  0  0  0  0
   -1.8650   17.7420   -5.7740 C   0  0  0  0  0  0  0  0  0  0  0  0
    1.2110   12.6200   -3.6580 C   0  0  0  0  0  0  0  0  0  0  0  0
   -0.5670   18.3570   -5.3100 C   0  0  0  0  0  0  0  0  0  0  0  0
    0.2330   12.0440   -2.5640 C   0  0  1  0  0  0  0  0  0  0  0  0
    0.4340   10.7340   -2.3740 O   0  0  0  0  0  0  0  0  0  0  0  0
    0.5890   12.6340   -1.3130 O   0  0  0  0  0  0  0  0  0  0  0  0
  2  1  1  6
  2  3  1  0
  2  4  1  0
  4  5  1  0
  3  6  1  0
  4  7  1  6
  5  8  1  0
  6  8  1  0
  5  9  1  6
  7 10  1  0
 10 11  1  6
  9 12  1  0
 10 12  1  0
 13 11  1  1
 13 14  1  0
 13 15  1  0
 13 16  1  0
 15 17  1  0
 14 18  1  6
 17 18  1  0
 14 19  1  0
 16 20  1  0
 17 21  1  1
 19 22  1  0
 20 22  1  0
 21 23  1  0
 23 24  1  1
 23 25  1  0
M  CHG  1  24  -1
M  END
