ucsf190-ucsf345
     RDKit          3D

 25 27  0  0  0  0  0  0  0  0999 V2000
    0.6600   10.9910   -2.4870 O   0  0  0  0  0  0  0  0  0  0  0  0
    1.3060   12.1400   -2.6470 C   0  0  2  0  0  0  0  0  0  0  0  0
    0.3600   13.0560   -2.1740 O   0  0  0  0  0  0  0  0  0  0  0  0
    1.6380   12.4130   -4.1380 C   0  0  0  0  0  0  0  0  0  0  0  0
    1.4120   13.8110   -4.7020 C   0  0  1  0  0  0  0  0  0  0  0  0
   -0.0080   14.1680   -5.2580 C   0  0  2  0  0  0  0  0  0  0  0  0
    2.0210   14.8010   -3.7790 N   0  0  0  0  0  0  0  0  0  0  0  0
   -0.4130   15.6890   -5.1430 C   0  0  2  0  0  0  0  0  0  0  0  0
    1.7970   16.1030   -4.2910 N   0  0  0  0  0  0  0  0  0  0  0  0
   -1.1040   13.1190   -5.0240 C   0  0  0  0  0  0  0  0  0  0  0  0
    0.4210   16.4290   -4.1000 C   0  0  1  0  0  0  0  0  0  0  0  0
   -1.9260   16.0170   -5.0780 C   0  0  0  0  0  0  0  0  0  0  0  0
   -2.5090   13.6020   -5.2830 C   0  0  0  0  0  0  0  0  0  0  0  0
    0.3140   17.8250   -4.3360 O   0  0  0  0  0  0  0  0  0  0  0  0
   -2.7230   14.8790   -4.4960 C   0  0  1  0  0  0  0  0  0  0  0  0
   -2.4790   14.6800   -2.9930 C   0  0  0  0  0  0  0  0  0  0  0  0
   -3.5560   15.1040   -1.9990 C   0  0  1  0  0  0  0  0  0  0  0  0
   -4.9490   14.8910   -2.5920 C   0  0  0  0  0  0  0  0  0  0  0  0
   -3.3140   14.7180   -0.5820 N   0  0  0  0  0  0  0  0  0  0  0  0
   -5.8090   14.1930   -1.6700 N   0  0  0  0  0  0  0  0  0  0  0  0
   -4.4720   15.0430    0.2800 C   0  0  0  0  0  0  0  0  0  0  0  0
   -5.8310   15.0630   -0.4790 C   0  0  2  0  0  0  0  0  0  0  0  0
   -7.0740   14.7560    0.4040 C   0  0  2  0  0  0  0  0  0  0  0  0
   -6.7640   14.6570    1.8270 N   0  0  0  0  0  0  0  0  0  0  0  0
   -7.6350   13.5360    0.0230 O   0  0  0  0  0  0  0  0  0  0  0  0
  2  1  1  6
  2  3  1  0
  2  4  1  0
  5  4  1  1
  5  6  1  0
  5  7  1  0
  6  8  1  0
  7  9  1  0
  6 10  1  1
  8 11  1  0
  9 11  1  0
  8 12  1  1
 10 13  1  0
 11 14  1  6
 12 15  1  0
 13 15  1  0
 15 16  1  1
 17 16  1  6
 17 18  1  0
 17 19  1  0
 18 20  1  0
 19 21  1  0
 20 22  1  0
 22 21  1  1
 22 23  1  0
 23 24  1  1
 23 25  1  0
M  CHG  1   1  -1
M  END
