ucsf511-ucsf337
     RDKit          3D

 16 18  0  0  0  0  0  0  0  0999 V2000
    0.6840   14.8110   -1.1350 O   0  0  0  0  0  0  0  0  0  0  0  0
   -0.0260   13.9930   -2.0520 C   0  0  2  0  0  0  0  0  0  0  0  0
    0.3570   14.4110   -3.4050 N   0  0  0  0  0  0  0  0  0  0  0  0
   -1.5400   14.0830   -1.8070 C   0  0  2  0  0  0  0  0  0  0  0  0
   -2.1580   14.7230   -3.0410 C   0  0  1  0  0  0  0  0  0  0  0  0
   -0.4550   13.8920   -4.5030 C   0  0  0  0  0  0  0  0  0  0  0  0
   -2.0810   14.8500   -0.7230 O   0  0  0  0  0  0  0  0  0  0  0  0
   -1.8990   13.9670   -4.2460 N   0  0  0  0  0  0  0  0  0  0  0  0
   -3.4710   14.7230   -1.0980 C   0  0  2  0  0  0  0  0  0  0  0  0
   -3.5460   15.1600   -2.5530 C   0  0  2  0  0  0  0  0  0  0  0  0
   -4.8630   14.6510   -3.1580 C   0  0  0  0  0  0  0  0  0  0  0  0
   -4.5970   15.4130   -0.3490 C   0  0  2  0  0  0  0  0  0  0  0  0
   -4.2770   15.4540    1.5710 Br  0  0  0  0  0  0  0  0  0  0  0  0
   -6.1020   14.9620   -2.2850 C   0  0  0  0  0  0  0  0  0  0  0  0
   -5.8650   14.6670   -0.7830 C   0  0  2  0  0  0  0  0  0  0  0  0
   -7.1360   14.8620    0.0650 C   0  0  0  0  0  0  0  0  0  0  0  0
  2  1  1  1
  2  3  1  0
  2  4  1  0
  4  5  1  0
  3  6  1  0
  4  7  1  1
  5  8  1  6
  6  8  1  0
  9  7  1  1
  5 10  1  0
  9 10  1  0
 10 11  1  6
  9 12  1  0
 12 13  1  1
 11 14  1  0
 12 15  1  0
 14 15  1  0
 15 16  1  1
M  END
