ucsf013-ucsf123
     RDKit          3D

 25 27  0  0  0  0  0  0  0  0999 V2000
   -4.6790   15.2640    2.2330 N   0  0  0  0  0  0  0  0  0  0  0  0
   -5.3720   14.6020    1.1710 C   0  0  1  0  0  0  0  0  0  0  0  0
   -6.7530   14.6720    1.5790 N   0  0  0  0  0  0  0  0  0  0  0  0
   -4.9950   15.2630   -0.1410 C   0  0  2  0  0  0  0  0  0  0  0  0
   -6.1350   15.1510   -1.1780 C   0  0  2  0  0  0  0  0  0  0  0  0
   -7.7540   14.6330    0.5280 C   0  0  0  0  0  0  0  0  0  0  0  0
   -3.6630   14.7220   -0.6190 C   0  0  0  0  0  0  0  0  0  0  0  0
   -7.1720   14.2190   -0.7200 N   0  0  0  0  0  0  0  0  0  0  0  0
   -5.7340   14.7210   -2.5970 C   0  0  0  0  0  0  0  0  0  0  0  0
   -3.3610   15.4380   -1.8950 C   0  0  1  0  0  0  0  0  0  0  0  0
   -1.8850   15.3970   -2.2500 C   0  0  0  0  0  0  0  0  0  0  0  0
   -4.2580   14.8820   -2.9920 C   0  0  0  0  0  0  0  0  0  0  0  0
   -1.4900   14.3500   -3.3230 C   0  0  2  0  0  0  0  0  0  0  0  0
   -0.0090   14.0420   -3.0020 C   0  0  1  0  0  0  0  0  0  0  0  0
   -1.6780   14.9810   -4.6960 C   0  0  0  0  0  0  0  0  0  0  0  0
    0.2360   12.5490   -2.5600 C   0  0  2  0  0  0  0  0  0  0  0  0
   -0.8770   16.2570   -4.7240 C   0  0  2  0  0  0  0  0  0  0  0  0
    0.9590   14.5440   -4.1140 C   0  0  0  0  0  0  0  0  0  0  0  0
   -1.4400   17.5680   -5.7930 S   0  0  0  0  0  0  0  0  0  0  0  0
    0.6840   12.6180   -1.2150 O   0  0  0  0  0  0  0  0  0  0  0  0
    1.2230   11.9430   -3.1450 O   0  0  0  0  0  0  0  0  0  0  0  0
    0.6180   15.9120   -4.7380 C   0  0  0  0  0  0  0  0  0  0  0  0
   -1.9720   18.9610   -5.1290 N   0  0  0  0  0  0  0  0  0  0  0  0
   -0.3040   17.9340   -6.8380 O   0  0  0  0  0  0  0  0  0  0  0  0
   -2.6290   16.9550   -6.6640 O   0  0  0  0  0  0  0  0  0  0  0  0
  2  1  1  1
  2  3  1  0
  2  4  1  0
  4  5  1  0
  3  6  1  0
  4  7  1  6
  5  8  1  0
  6  8  1  0
  5  9  1  6
  7 10  1  0
 10 11  1  6
  9 12  1  0
 10 12  1  0
 13 11  1  1
 13 14  1  0
 13 15  1  0
 14 16  1  0
 15 17  1  0
 14 18  1  6
 17 19  1  6
 16 20  1  1
 16 21  1  0
 17 22  1  0
 18 22  1  0
 19 23  1  0
 19 24  1  0
 19 25  1  0
M  CHG  1  21  -1
M  END
