ucsf357-ucsf172
     RDKit          3D

 15 15  0  0  0  0  0  0  0  0999 V2000
   -5.8230   15.7120   -1.9710 O   0  0  0  0  0  0  0  0  0  0  0  0
   -5.5580   14.7690   -1.0880 C   0  0  2  0  0  0  0  0  0  0  0  0
   -5.9640   15.1670    0.2350 O   0  0  0  0  0  0  0  0  0  0  0  0
   -4.0190   14.5100   -1.1320 C   0  0  1  0  0  0  0  0  0  0  0  0
   -7.0700   14.2490    0.9700 S   0  0  0  0  0  0  0  0  0  0  0  0
   -3.3910   15.0390   -2.4250 C   0  0  0  0  0  0  0  0  0  0  0  0
   -3.2200   15.0070    0.0900 C   0  0  0  0  0  0  0  0  0  0  0  0
   -7.7250   14.9720    2.4520 C   0  0  0  0  0  0  0  0  0  0  0  0
   -6.3730   12.8800    1.4250 O   0  0  0  0  0  0  0  0  0  0  0  0
   -8.2830   13.9990   -0.0500 O   0  0  0  0  0  0  0  0  0  0  0  0
   -1.9040   14.7470   -2.5810 C   0  0  2  0  0  0  0  0  0  0  0  0
   -1.7200   14.6800    0.0450 C   0  0  0  0  0  0  0  0  0  0  0  0
   -1.7290   13.8390   -3.5790 F   0  0  0  0  0  0  0  0  0  0  0  0
   -1.1450   14.2770   -1.3260 C   0  0  2  0  0  0  0  0  0  0  0  0
    0.1870   14.8200   -1.3930 O   0  0  0  0  0  0  0  0  0  0  0  0
  2  1  1  6
  2  3  1  0
  2  4  1  0
  5  3  1  0
  4  6  1  6
  4  7  1  0
  5  8  1  0
  5  9  1  0
  5 10  1  0
  6 11  1  0
  7 12  1  0
 11 13  1  6
 11 14  1  0
 12 14  1  0
 14 15  1  6
M  CHG  1   1  -1
M  END
