ucsf172-ucsf114
     RDKit          3D

 26 27  0  0  0  0  0  0  0  0999 V2000
   -7.7860   14.9390    2.5130 C   0  0  0  0  0  0  0  0  0  0  0  0
   -6.7590   14.4380    1.1720 S   0  0  0  0  0  0  0  0  0  0  0  0
   -6.4460   12.9300    1.5700 O   0  0  0  0  0  0  0  0  0  0  0  0
   -7.7280   14.4280   -0.0990 O   0  0  0  0  0  0  0  0  0  0  0  0
   -5.3040   15.2270    0.8950 N   0  0  0  0  0  0  0  0  0  0  0  0
   -4.3460   14.6030   -0.0300 C   0  0  2  0  0  0  0  0  0  0  0  0
   -2.8320   14.8070    0.2410 C   0  0  0  0  0  0  0  0  0  0  0  0
   -4.6640   14.9800   -1.4570 C   0  0  0  0  0  0  0  0  0  0  0  0
   -1.8010   14.2500   -0.8760 C   0  0  1  0  0  0  0  0  0  0  0  0
   -4.0170   13.9620   -2.3660 C   0  0  0  0  0  0  0  0  0  0  0  0
   -2.4870   14.0850   -2.3100 C   0  0  2  0  0  0  0  0  0  0  0  0
   -0.7460   15.1670   -1.3970 C   0  0  0  0  0  0  0  0  0  0  0  0
   -0.6930   13.4650   -0.1270 C   0  0  2  0  0  0  0  0  0  0  0  0
   -1.8050   13.3860   -3.4950 C   0  0  0  0  0  0  0  0  0  0  0  0
   -0.2440   14.1590    1.0460 O   0  0  0  0  0  0  0  0  0  0  0  0
    0.3630   14.7250   -2.1740 N   0  0  0  0  0  0  0  0  0  0  0  0
    0.4990   13.0660   -0.8450 N   0  0  0  0  0  0  0  0  0  0  0  0
   -1.8010   14.2550   -4.6520 O   0  0  0  0  0  0  0  0  0  0  0  0
    1.2740   14.1280   -1.3480 C   0  0  1  0  0  0  0  0  0  0  0  0
    2.8410   13.7670   -2.1450 S   0  0  0  0  0  0  0  0  0  0  0  0
   -1.5460   15.6310   -4.3320 C   0  0  0  0  0  0  0  0  0  0  0  0
   -0.5480   16.2840   -5.1820 N   0  0  0  0  0  0  0  0  0  0  0  0
   -0.4180   17.7500   -5.0380 C   0  0  0  0  0  0  0  0  0  0  0  0
    0.7530   15.6540   -4.9450 C   0  0  0  0  0  0  0  0  0  0  0  0
    0.8560   18.3430   -5.6430 C   0  0  0  0  0  0  0  0  0  0  0  0
   -1.6750   18.4690   -5.5600 C   0  0  0  0  0  0  0  0  0  0  0  0
  1  2  1  0
  2  3  1  0
  2  4  1  0
  2  5  1  0
  6  5  1  1
  6  7  1  0
  6  8  1  0
  9  7  1  1
  8 10  1  0
  9 11  1  0
 10 11  1  0
  9 12  1  0
  9 13  1  0
 11 14  1  1
 13 15  1  1
 12 16  1  0
 13 17  1  0
 14 18  1  0
 16 19  1  0
 17 19  1  0
 19 20  1  6
 18 21  1  0
 21 22  1  0
 22 23  1  0
 22 24  1  0
 23 25  1  0
 23 26  1  0
M  END
