ucsf247-ucsf151
     RDKit          3D

 21 22  0  0  0  0  0  0  0  0999 V2000
    0.4150   12.8050   -2.1180 O   0  0  0  0  0  0  0  0  0  0  0  0
    0.0820   13.8990   -2.7760 C   0  0  2  0  0  0  0  0  0  0  0  0
    1.2650   14.2550   -3.4650 O   0  0  0  0  0  0  0  0  0  0  0  0
   -0.3090   15.0010   -1.7540 C   0  0  0  0  0  0  0  0  0  0  0  0
   -1.1280   13.7170   -3.7340 C   0  0  1  0  0  0  0  0  0  0  0  0
   -1.4930   15.8050   -2.1520 N   0  0  0  0  0  0  0  0  0  0  0  0
   -1.2500   14.8610   -4.7660 C   0  0  0  0  0  0  0  0  0  0  0  0
   -1.2960   12.3690   -4.4650 C   0  0  0  0  0  0  0  0  0  0  0  0
   -2.7370   15.0530   -2.2780 C   0  0  2  0  0  0  0  0  0  0  0  0
   -2.5130   14.6680   -5.6210 C   0  0  2  0  0  0  0  0  0  0  0  0
   -2.6380   12.2610   -5.1050 N   0  0  0  0  0  0  0  0  0  0  0  0
   -3.3310   15.5030   -3.4750 O   0  0  0  0  0  0  0  0  0  0  0  0
   -3.2170   15.9030   -5.8070 O   0  0  0  0  0  0  0  0  0  0  0  0
   -3.7090   15.3400   -1.1330 C   0  0  1  0  0  0  0  0  0  0  0  0
   -3.3700   13.5420   -5.0650 C   0  0  0  0  0  0  0  0  0  0  0  0
   -5.0370   14.5740   -1.2980 C   0  0  0  0  0  0  0  0  0  0  0  0
   -3.1220   15.0890    0.2600 C   0  0  0  0  0  0  0  0  0  0  0  0
   -6.0310   15.0470   -0.2550 C   0  0  1  0  0  0  0  0  0  0  0  0
   -4.1220   15.4730    1.3490 C   0  0  0  0  0  0  0  0  0  0  0  0
   -7.3170   14.4370   -0.4040 O   0  0  0  0  0  0  0  0  0  0  0  0
   -5.4960   14.8190    1.1580 C   0  0  0  0  0  0  0  0  0  0  0  0
  2  1  1  1
  2  3  1  0
  2  4  1  0
  2  5  1  0
  4  6  1  0
  5  7  1  6
  5  8  1  0
  6  9  1  0
  7 10  1  0
  8 11  1  0
  9 12  1  6
 10 13  1  1
  9 14  1  0
 10 15  1  0
 11 15  1  0
 14 16  1  6
 14 17  1  0
 16 18  1  0
 17 19  1  0
 18 20  1  1
 18 21  1  0
 19 21  1  0
M  CHG  1   1  -1
M  END
