ucsf337-ucsf173
     RDKit          3D

 23 25  0  0  0  0  0  0  0  0999 V2000
   -7.3960   14.6640    0.4590 C   0  0  0  0  0  0  0  0  0  0  0  0
   -6.1460   14.0920   -0.2290 C   0  0  1  0  0  0  0  0  0  0  0  0
   -6.3520   14.1690   -1.7180 N   0  0  0  0  0  0  0  0  0  0  0  0
   -4.7630   14.5950    0.2620 C   0  0  2  0  0  0  0  0  0  0  0  0
   -4.6550   15.3610    2.0190 Br  0  0  0  0  0  0  0  0  0  0  0  0
   -4.1990   15.6920   -0.5510 C   0  0  0  0  0  0  0  0  0  0  0  0
   -5.5310   15.1270   -2.4830 C   0  0  2  0  0  0  0  0  0  0  0  0
   -5.4790   14.6530   -3.8700 N   0  0  0  0  0  0  0  0  0  0  0  0
   -4.1180   15.2820   -1.9770 C   0  0  0  0  0  0  0  0  0  0  0  0
   -4.1190   14.3110   -4.3650 C   0  0  0  0  0  0  0  0  0  0  0  0
   -3.4880   15.2910   -5.4010 C   0  0  0  0  0  0  0  0  0  0  0  0
   -2.3850   16.1870   -4.7620 C   0  0  1  0  0  0  0  0  0  0  0  0
   -1.1550   15.4350   -4.1950 C   0  0  1  0  0  0  0  0  0  0  0  0
   -1.8960   17.3800   -5.6420 C   0  0  0  0  0  0  0  0  0  0  0  0
   -1.1420   13.9450   -3.9400 C   0  0  0  0  0  0  0  0  0  0  0  0
    0.1980   15.6320   -4.8850 C   0  0  2  0  0  0  0  0  0  0  0  0
   -0.5850   18.0420   -5.1970 C   0  0  0  0  0  0  0  0  0  0  0  0
    0.1530   13.9460   -3.1070 C   0  0  2  0  0  0  0  0  0  0  0  0
    1.1270   14.7070   -4.0600 C   0  0  0  0  0  0  0  0  0  0  0  0
    0.6110   17.0990   -4.9840 C   0  0  0  0  0  0  0  0  0  0  0  0
    0.5980   12.5440   -2.5610 C   0  0  1  0  0  0  0  0  0  0  0  0
    0.4400   12.5410   -1.2450 O   0  0  0  0  0  0  0  0  0  0  0  0
   -0.3290   11.5460   -2.9340 O   0  0  0  0  0  0  0  0  0  0  0  0
  2  1  1  1
  2  3  1  0
  2  4  1  0
  4  5  1  1
  4  6  1  0
  3  7  1  0
  7  8  1  6
  6  9  1  0
  7  9  1  0
  8 10  1  0
 10 11  1  0
 12 11  1  6
 12 13  1  0
 12 14  1  0
 13 15  1  6
 13 16  1  0
 14 17  1  0
 18 15  1  6
 16 19  1  1
 18 19  1  0
 16 20  1  0
 17 20  1  0
 18 21  1  0
 21 22  1  1
 21 23  1  0
M  CHG  1  22  -1
M  END
