ucsf320-ucsf392
     RDKit          3D

 18 19  0  0  0  0  0  0  0  0999 V2000
   -1.2130   13.6920   -2.1980 O   0  0  0  0  0  0  0  0  0  0  0  0
   -1.9640   14.4970   -2.9210 C   0  0  1  0  0  0  0  0  0  0  0  0
   -1.9550   13.8610   -4.1780 O   0  0  0  0  0  0  0  0  0  0  0  0
   -3.4190   14.5710   -2.3670 C   0  0  2  0  0  0  0  0  0  0  0  0
   -4.0340   13.3590   -1.6880 C   0  0  0  0  0  0  0  0  0  0  0  0
   -4.4940   15.0980   -3.2750 C   0  0  0  0  0  0  0  0  0  0  0  0
   -4.7110   14.0150   -0.5260 C   0  0  2  0  0  0  0  0  0  0  0  0
   -5.8560   15.1160   -2.5400 C   0  0  0  0  0  0  0  0  0  0  0  0
   -5.7350   15.0680   -1.0080 C   0  0  1  0  0  0  0  0  0  0  0  0
   -3.4580   14.5730    0.1040 C   0  0  2  0  0  0  0  0  0  0  0  0
   -7.0450   14.7960   -0.4650 O   0  0  0  0  0  0  0  0  0  0  0  0
   -3.2720   14.6790    1.5590 C   0  0  2  0  0  0  0  0  0  0  0  0
   -2.9280   15.8520   -0.5180 C   0  0  0  0  0  0  0  0  0  0  0  0
   -4.1220   15.6640    2.1670 N   0  0  0  0  0  0  0  0  0  0  0  0
   -1.9320   15.1430    1.6950 N   0  0  0  0  0  0  0  0  0  0  0  0
   -1.5110   15.6850   -0.6220 N   0  0  0  0  0  0  0  0  0  0  0  0
   -1.1460   14.8670    0.5060 C   0  0  1  0  0  0  0  0  0  0  0  0
    0.2830   15.0490    0.8320 C   0  0  0  0  0  0  0  0  0  0  0  0
  2  1  1  1
  2  3  1  0
  2  4  1  0
  4  5  1  6
  4  6  1  0
  7  5  1  6
  6  8  1  0
  7  9  1  0
  8  9  1  0
  7 10  1  0
  9 11  1  1
 10 12  1  0
 10 13  1  6
 12 14  1  6
 12 15  1  0
 13 16  1  0
 15 17  1  0
 16 17  1  0
 17 18  1  1
M  CHG  1   1  -1
M  END
