ucsf005-ucsf260
     RDKit          3D

 29 32  0  0  0  0  0  0  0  0999 V2000
   -1.8230   14.7220   -3.4780 C   0  0  0  0  0  0  0  0  0  0  0  0
   -2.7780   15.2000   -2.4930 N   0  0  0  0  0  0  0  0  0  0  0  0
   -4.1650   14.8520   -2.7520 C   0  0  0  0  0  0  0  0  0  0  0  0
   -2.6260   14.6140   -1.2030 C   0  0  2  0  0  0  0  0  0  0  0  0
   -4.8780   14.8450   -1.4490 N   0  0  0  0  0  0  0  0  0  0  0  0
   -3.8050   15.2260   -0.5230 C   0  0  1  0  0  0  0  0  0  0  0  0
   -1.4440   14.9200   -0.5180 N   0  0  0  0  0  0  0  0  0  0  0  0
   -3.7960   14.8080    0.9690 C   0  0  2  0  0  0  0  0  0  0  0  0
   -1.5590   14.2710    0.7270 C   0  0  1  0  0  0  0  0  0  0  0  0
   -4.7120   15.5100    1.8270 N   0  0  0  0  0  0  0  0  0  0  0  0
   -0.2620   14.3860    1.1770 N   0  0  0  0  0  0  0  0  0  0  0  0
   -2.4900   14.9270    1.5570 N   0  0  0  0  0  0  0  0  0  0  0  0
    0.3050   13.8700   -0.0580 C   0  0  0  0  0  0  0  0  0  0  0  0
    1.1500   14.8490   -0.8530 C   0  0  0  0  0  0  0  0  0  0  0  0
    1.9240   14.1220   -1.9440 C   0  0  0  0  0  0  0  0  0  0  0  0
    0.9920   13.2030   -2.4840 O   0  0  0  0  0  0  0  0  0  0  0  0
    1.5490   12.1700   -3.2720 C   0  0  1  0  0  0  0  0  0  0  0  0
    0.8230   11.0810   -3.0800 O   0  0  0  0  0  0  0  0  0  0  0  0
    1.5020   12.6590   -4.7670 C   0  0  0  0  0  0  0  0  0  0  0  0
    0.1920   13.2980   -5.2690 C   0  0  0  0  0  0  0  0  0  0  0  0
   -0.8080   12.3410   -5.8330 N   0  0  0  0  0  0  0  0  0  0  0  0
   -1.7290   11.8340   -4.8140 C   0  0  0  0  0  0  0  0  0  0  0  0
   -0.2350   11.0970   -6.3430 C   0  0  1  0  0  0  0  0  0  0  0  0
   -2.2270   10.5270   -5.2990 N   0  0  0  0  0  0  0  0  0  0  0  0
   -1.5280   10.3580   -6.5820 C   0  0  2  0  0  0  0  0  0  0  0  0
    0.6130   11.0820   -7.6090 C   0  0  0  0  0  0  0  0  0  0  0  0
   -1.2610    8.8950   -6.9490 C   0  0  0  0  0  0  0  0  0  0  0  0
    0.8010    9.6990   -8.2450 C   0  0  0  0  0  0  0  0  0  0  0  0
   -0.4550    8.8120   -8.2450 C   0  0  0  0  0  0  0  0  0  0  0  0
  1  2  1  0
  2  3  1  0
  2  4  1  0
  3  5  1  0
  4  6  1  0
  6  5  1  6
  4  7  1  1
  6  8  1  0
  7  9  1  0
  8 10  1  1
  9 11  1  1
  8 12  1  0
  9 12  1  0
 11 13  1  0
 13 14  1  0
 14 15  1  0
 15 16  1  0
 16 17  1  0
 17 18  1  6
 17 19  1  0
 19 20  1  0
 20 21  1  0
 21 22  1  0
 21 23  1  0
 22 24  1  0
 23 25  1  0
 24 25  1  0
 23 26  1  6
 25 27  1  1
 26 28  1  0
 27 29  1  0
 28 29  1  0
M  CHG  1  18  -1
M  END
