ucsf172-ucsf357
     RDKit          3D

 15 15  0  0  0  0  0  0  0  0999 V2000
   -8.1610   14.9250    2.4240 C   0  0  0  0  0  0  0  0  0  0  0  0
   -6.9590   14.4360    1.2380 S   0  0  0  0  0  0  0  0  0  0  0  0
   -6.6760   12.9290    1.7080 O   0  0  0  0  0  0  0  0  0  0  0  0
   -7.7470   14.2870   -0.1450 O   0  0  0  0  0  0  0  0  0  0  0  0
   -5.4690   15.1340    1.2390 N   0  0  0  0  0  0  0  0  0  0  0  0
   -4.4230   15.2320    0.1840 C   0  0  1  0  0  0  0  0  0  0  0  0
   -3.1010   14.5530    0.5790 C   0  0  0  0  0  0  0  0  0  0  0  0
   -4.9010   14.8930   -1.2690 C   0  0  2  0  0  0  0  0  0  0  0  0
   -2.3730   13.8150   -0.5360 C   0  0  0  0  0  0  0  0  0  0  0  0
   -3.7600   15.1100   -2.2880 C   0  0  0  0  0  0  0  0  0  0  0  0
   -5.9390   15.6300   -1.6300 O   0  0  0  0  0  0  0  0  0  0  0  0
   -2.3830   14.5510   -1.8870 C   0  0  2  0  0  0  0  0  0  0  0  0
   -1.6840   13.8170   -3.0830 C   0  0  2  0  0  0  0  0  0  0  0  0
   -0.2800   13.8540   -2.8930 O   0  0  0  0  0  0  0  0  0  0  0  0
   -1.8130   14.4880   -4.2200 O   0  0  0  0  0  0  0  0  0  0  0  0
  1  2  1  0
  2  3  1  0
  2  4  1  0
  2  5  1  0
  6  5  1  1
  6  7  1  0
  6  8  1  0
  7  9  1  0
  8 10  1  0
  8 11  1  6
 12  9  1  1
 10 12  1  0
 12 13  1  0
 13 14  1  1
 13 15  1  0
M  CHG  2  11  -1  15  -1
M  END
