ucsf320-ucsf028
     RDKit          3D

 27 30  0  0  0  0  0  0  0  0999 V2000
   -3.4240   11.8780   -2.5200 O   0  0  0  0  0  0  0  0  0  0  0  0
   -2.9460   12.9730   -1.9960 C   0  0  1  0  0  0  0  0  0  0  0  0
   -1.9850   13.6060   -2.8810 N   0  0  0  0  0  0  0  0  0  0  0  0
   -4.1010   13.9760   -1.6470 C   0  0  2  0  0  0  0  0  0  0  0  0
   -4.9520   13.4130   -0.4820 C   0  0  0  0  0  0  0  0  0  0  0  0
   -5.0190   14.3580   -2.8270 C   0  0  0  0  0  0  0  0  0  0  0  0
   -1.3590   14.7680   -2.2470 N   0  0  0  0  0  0  0  0  0  0  0  0
   -1.0120   12.8020   -3.5860 C   0  0  1  0  0  0  0  0  0  0  0  0
   -5.9470   14.4170    0.0880 C   0  0  0  0  0  0  0  0  0  0  0  0
   -6.4170   14.7710   -2.3650 C   0  0  0  0  0  0  0  0  0  0  0  0
   -2.2850   15.8760   -2.2830 C   0  0  0  0  0  0  0  0  0  0  0  0
   -0.9470   14.4360   -0.8870 C   0  0  2  0  0  0  0  0  0  0  0  0
   -0.6040   13.1030   -4.9960 C   0  0  0  0  0  0  0  0  0  0  0  0
    0.2600   12.6760   -2.9190 O   0  0  0  0  0  0  0  0  0  0  0  0
   -6.4670   15.3770   -0.9660 C   0  0  1  0  0  0  0  0  0  0  0  0
   -2.6500   16.3130   -0.9300 N   0  0  0  0  0  0  0  0  0  0  0  0
   -2.0580   14.3230    0.2000 C   0  0  2  0  0  0  0  0  0  0  0  0
   -0.1260   15.4100   -0.2250 N   0  0  0  0  0  0  0  0  0  0  0  0
    1.1090   11.9270   -3.8540 N   0  0  0  0  0  0  0  0  0  0  0  0
    0.4280   12.0250   -5.1480 C   0  0  1  0  0  0  0  0  0  0  0  0
   -7.8290   15.6860   -0.6750 O   0  0  0  0  0  0  0  0  0  0  0  0
   -0.2230   10.7900   -5.4490 O   0  0  0  0  0  0  0  0  0  0  0  0
   -3.1660   15.3200   -0.0600 C   0  0  1  0  0  0  0  0  0  0  0  0
   -1.3240   14.4780    1.4790 N   0  0  0  0  0  0  0  0  0  0  0  0
    0.0270   14.6490    0.9750 C   0  0  0  0  0  0  0  0  0  0  0  0
   -3.7340   15.9510    1.1230 N   0  0  0  0  0  0  0  0  0  0  0  0
   -0.2790   10.5730   -6.8500 C   0  0  0  0  0  0  0  0  0  0  0  0
  2  1  1  6
  2  3  1  0
  2  4  1  0
  4  5  1  1
  4  6  1  0
  3  7  1  0
  8  3  1  1
  5  9  1  0
  6 10  1  0
  7 11  1  0
  7 12  1  0
  8 13  1  0
  8 14  1  0
  9 15  1  0
 10 15  1  0
 11 16  1  0
 12 17  1  0
 12 18  1  1
 14 19  1  0
 13 20  1  0
 19 20  1  0
 15 21  1  1
 20 22  1  1
 16 23  1  0
 17 23  1  0
 17 24  1  1
 18 25  1  0
 24 25  1  0
 23 26  1  1
 22 27  1  0
M  CHG  1   1  -1
M  END
