ucsf224-ucsf392
     RDKit          3D

 23 24  0  0  0  0  0  0  0  0999 V2000
   -1.2220   18.2440   -5.4150 Cl  0  0  0  0  0  0  0  0  0  0  0  0
   -0.6700   16.8170   -4.4560 C   0  0  1  0  0  0  0  0  0  0  0  0
   -1.6120   15.6130   -4.5800 C   0  0  1  0  0  0  0  0  0  0  0  0
    0.7800   16.4620   -4.8230 C   0  0  0  0  0  0  0  0  0  0  0  0
   -3.0150   15.9150   -5.6590 Cl  0  0  0  0  0  0  0  0  0  0  0  0
   -0.8910   14.3200   -4.9320 C   0  0  0  0  0  0  0  0  0  0  0  0
    1.3250   15.1650   -4.1830 C   0  0  0  0  0  0  0  0  0  0  0  0
    0.2310   14.0980   -3.9250 C   0  0  2  0  0  0  0  0  0  0  0  0
    0.7560   12.6220   -3.9540 C   0  0  0  0  0  0  0  0  0  0  0  0
    0.9700   11.8370   -2.6050 C   0  0  2  0  0  0  0  0  0  0  0  0
    0.2610   10.7090   -2.5190 O   0  0  0  0  0  0  0  0  0  0  0  0
    0.6540   12.6520   -1.4810 O   0  0  0  0  0  0  0  0  0  0  0  0
    1.5470   13.7540   -1.5520 C   0  0  0  0  0  0  0  0  0  0  0  0
    1.1150   14.9020   -0.6770 C   0  0  0  0  0  0  0  0  0  0  0  0
    0.1040   14.6280    0.4310 C   0  0  0  0  0  0  0  0  0  0  0  0
   -1.2120   15.2890    0.0810 C   0  0  2  0  0  0  0  0  0  0  0  0
   -2.1700   15.3490    1.1830 N   0  0  0  0  0  0  0  0  0  0  0  0
   -1.7070   14.7800   -1.1620 N   0  0  0  0  0  0  0  0  0  0  0  0
   -3.4710   14.7580    0.9450 C   0  0  1  0  0  0  0  0  0  0  0  0
   -2.9710   15.3560   -1.4790 C   0  0  0  0  0  0  0  0  0  0  0  0
   -4.3080   15.5270    1.8350 N   0  0  0  0  0  0  0  0  0  0  0  0
   -4.0000   14.8300   -0.5040 C   0  0  2  0  0  0  0  0  0  0  0  0
   -5.2870   15.6380   -0.6040 C   0  0  0  0  0  0  0  0  0  0  0  0
  2  1  1  6
  2  3  1  0
  2  4  1  0
  3  5  1  6
  3  6  1  0
  4  7  1  0
  6  8  1  0
  7  8  1  0
  8  9  1  6
  9 10  1  0
 10 11  1  6
 10 12  1  0
 12 13  1  0
 13 14  1  0
 14 15  1  0
 16 15  1  1
 16 17  1  0
 16 18  1  0
 17 19  1  0
 18 20  1  0
 19 21  1  1
 19 22  1  0
 20 22  1  0
 22 23  1  1
M  CHG  1  11  -1
M  END
