ucsf170-ucsf487
     RDKit          3D

 21 23  0  0  0  0  0  0  0  0999 V2000
   -4.3580   15.6770    1.7220 C   0  0  0  0  0  0  0  0  0  0  0  0
   -2.6960   15.1830    1.2330 S   0  0  0  0  0  0  0  0  0  0  0  0
   -2.6390   15.5240   -0.5990 C   0  0  1  0  0  0  0  0  0  0  0  0
   -1.1820   15.1590   -0.9590 C   0  0  0  0  0  0  0  0  0  0  0  0
   -3.7870   14.8930   -1.4580 C   0  0  2  0  0  0  0  0  0  0  0  0
   -0.8380   14.8380   -2.4230 C   0  0  1  0  0  0  0  0  0  0  0  0
   -3.4040   14.7270   -2.9420 C   0  0  0  0  0  0  0  0  0  0  0  0
   -5.1580   15.6830   -1.4860 C   0  0  0  0  0  0  0  0  0  0  0  0
   -4.2350   13.6050   -0.7140 C   0  0  0  0  0  0  0  0  0  0  0  0
    0.3530   13.8400   -2.4600 C   0  0  2  0  0  0  0  0  0  0  0  0
   -1.9960   14.2420   -3.2450 C   0  0  1  0  0  0  0  0  0  0  0  0
   -5.2860   14.2070    0.1940 C   0  0  1  0  0  0  0  0  0  0  0  0
   -6.1700   14.7200   -0.8960 C   0  0  1  0  0  0  0  0  0  0  0  0
   -1.7380   14.4950   -4.6350 O   0  0  0  0  0  0  0  0  0  0  0  0
    1.4720   14.4150   -1.8240 O   0  0  0  0  0  0  0  0  0  0  0  0
    0.7780   13.7180   -3.6950 O   0  0  0  0  0  0  0  0  0  0  0  0
   -5.9980   13.3750    1.2330 C   0  0  0  0  0  0  0  0  0  0  0  0
   -7.4900   15.2260   -0.5160 N   0  0  0  0  0  0  0  0  0  0  0  0
   -7.1210   14.2590    1.7760 C   0  0  1  0  0  0  0  0  0  0  0  0
   -8.1110   14.5230    0.6220 C   0  0  0  0  0  0  0  0  0  0  0  0
   -7.7780   13.6490    2.9400 N   0  0  0  0  0  0  0  0  0  0  0  0
  1  2  1  0
  3  2  1  1
  3  4  1  0
  3  5  1  0
  6  4  1  1
  5  7  1  6
  5  8  1  0
  5  9  1  0
  6 10  1  0
  6 11  1  0
  7 11  1  0
 12  9  1  6
 13  8  1  1
 12 13  1  0
 11 14  1  6
 10 15  1  1
 10 16  1  0
 12 17  1  0
 13 18  1  0
 17 19  1  0
 18 20  1  0
 19 20  1  0
 19 21  1  1
M  CHG  1  16  -1
M  END
