ucsf260-ucsf147
     RDKit          3D

 27 31  0  0  0  0  0  0  0  0999 V2000
    0.9180   10.9950   -2.8180 O   0  0  0  0  0  0  0  0  0  0  0  0
    0.5250   12.2360   -3.0080 C   0  0  1  0  0  0  0  0  0  0  0  0
    1.0740   13.0730   -2.0010 O   0  0  0  0  0  0  0  0  0  0  0  0
    0.9700   12.8480   -4.3690 C   0  0  1  0  0  0  0  0  0  0  0  0
    0.6110   12.0470   -5.5910 C   0  0  0  0  0  0  0  0  0  0  0  0
    0.2960   14.2960   -1.8810 C   0  0  1  0  0  0  0  0  0  0  0  0
    0.3800   14.2180   -4.4830 C   0  0  1  0  0  0  0  0  0  0  0  0
    1.1220   15.2360   -1.4880 O   0  0  0  0  0  0  0  0  0  0  0  0
   -0.4640   11.0830   -5.4110 N   0  0  0  0  0  0  0  0  0  0  0  0
   -0.6300   14.3100   -5.5060 O   0  0  0  0  0  0  0  0  0  0  0  0
   -0.2660   14.7850   -3.2430 C   0  0  1  0  0  0  0  0  0  0  0  0
   -1.7800   11.6670   -5.5630 C   0  0  0  0  0  0  0  0  0  0  0  0
   -0.3500   10.0510   -6.3910 C   0  0  1  0  0  0  0  0  0  0  0  0
   -1.8950   14.0140   -4.8250 N   0  0  0  0  0  0  0  0  0  0  0  0
   -1.7810   14.8130   -3.5780 C   0  0  1  0  0  0  0  0  0  0  0  0
   -2.6430   10.6490   -6.1890 N   0  0  0  0  0  0  0  0  0  0  0  0
   -1.7590    9.5600   -6.5950 C   0  0  1  0  0  0  0  0  0  0  0  0
    0.3460   10.6030   -7.6360 C   0  0  0  0  0  0  0  0  0  0  0  0
   -2.8410   14.3340   -2.5550 C   0  0  0  0  0  0  0  0  0  0  0  0
   -1.9630    9.0870   -8.0200 C   0  0  0  0  0  0  0  0  0  0  0  0
    0.4650    9.5060   -8.6730 C   0  0  0  0  0  0  0  0  0  0  0  0
   -2.3360   14.3370   -1.0940 C   0  0  0  0  0  0  0  0  0  0  0  0
   -4.0950   15.2230   -2.7510 C   0  0  0  0  0  0  0  0  0  0  0  0
   -0.6660    8.4760   -8.5560 C   0  0  0  0  0  0  0  0  0  0  0  0
   -3.4380   14.3610   -0.0390 C   0  0  0  0  0  0  0  0  0  0  0  0
   -5.1160   15.2960   -1.6210 C   0  0  0  0  0  0  0  0  0  0  0  0
   -4.4830   15.4370   -0.2570 C   0  0  0  0  0  0  0  0  0  0  0  0
  2  1  1  1
  2  3  1  0
  2  4  1  0
  4  5  1  6
  3  6  1  0
  4  7  1  0
  6  8  1  6
  5  9  1  0
  7 10  1  6
 11  6  1  1
  7 11  1  0
  9 12  1  0
  9 13  1  0
 10 14  1  0
 11 15  1  0
 14 15  1  0
 12 16  1  0
 13 17  1  0
 16 17  1  0
 13 18  1  6
 15 19  1  1
 17 20  1  6
 18 21  1  0
 19 22  1  0
 19 23  1  0
 20 24  1  0
 21 24  1  0
 22 25  1  0
 23 26  1  0
 25 27  1  0
 26 27  1  0
M  CHG  2   1  -1   8  -1
M  END
