ucsf357-ucsf109
     RDKit          3D

 20 22  0  0  0  0  0  0  0  0999 V2000
   -5.0540   15.1180   -3.5000 O   0  0  0  0  0  0  0  0  0  0  0  0
   -5.5640   14.3630   -2.5930 C   0  0  2  0  0  0  0  0  0  0  0  0
   -6.7950   15.0930   -2.3160 O   0  0  0  0  0  0  0  0  0  0  0  0
   -4.6980   14.4610   -0.9300 S   0  0  0  0  0  0  0  0  0  0  0  0
   -3.2110   15.3500   -1.4030 C   0  0  0  0  0  0  0  0  0  0  0  0
   -3.1410   13.5770   -0.9530 C   0  0  0  0  0  0  0  0  0  0  0  0
   -4.9400   14.8340    0.8710 C   0  0  2  0  0  0  0  0  0  0  0  0
   -5.9160   13.4030   -0.1980 C   0  0  0  0  0  0  0  0  0  0  0  0
   -4.1040   14.2450    1.8360 N   0  0  0  0  0  0  0  0  0  0  0  0
   -2.2770   14.9940   -2.4650 C   0  0  2  0  0  0  0  0  0  0  0  0
   -1.8980   14.0590   -0.4420 C   0  0  0  0  0  0  0  0  0  0  0  0
   -6.3320   14.6600    1.1860 N   0  0  0  0  0  0  0  0  0  0  0  0
   -7.2550   13.7960   -0.6590 N   0  0  0  0  0  0  0  0  0  0  0  0
   -2.7350   13.9000   -3.2320 F   0  0  0  0  0  0  0  0  0  0  0  0
   -1.0850   14.2960   -1.7420 C   0  0  2  0  0  0  0  0  0  0  0  0
   -7.4310   14.7120    0.4120 C   0  0  1  0  0  0  0  0  0  0  0  0
   -6.5970   14.8730    2.4780 N   0  0  0  0  0  0  0  0  0  0  0  0
   -0.0250   15.1270   -1.5860 O   0  0  0  0  0  0  0  0  0  0  0  0
   -8.4590   14.1050    1.2770 N   0  0  0  0  0  0  0  0  0  0  0  0
   -8.0330   14.5920    2.5990 C   0  0  0  0  0  0  0  0  0  0  0  0
  2  1  1  6
  2  3  1  0
  2  4  1  0
  4  5  1  0
  4  6  1  0
  4  7  1  0
  4  8  1  0
  7  9  1  1
  5 10  1  0
  6 11  1  0
  7 12  1  0
  8 13  1  0
 10 14  1  6
 10 15  1  0
 11 15  1  0
 12 16  1  0
 16 13  1  6
 12 17  1  0
 15 18  1  1
 16 19  1  0
 17 20  1  0
 19 20  1  0
M  CHG  1   1  -1
M  END
