ucsf109-ucsf147
     RDKit          3D

 21 24  0  0  0  0  0  0  0  0999 V2000
   -3.8100   14.3850    1.5800 N   0  0  0  0  0  0  0  0  0  0  0  0
   -4.6360   15.0270    0.5540 C   0  0  1  0  0  0  0  0  0  0  0  0
   -4.0260   14.9090   -0.8800 C   0  0  2  0  0  0  0  0  0  0  0  0
   -6.0580   14.7340    0.8250 N   0  0  0  0  0  0  0  0  0  0  0  0
   -6.8590   14.3280   -0.3240 C   0  0  2  0  0  0  0  0  0  0  0  0
   -5.0470   14.5640   -1.9780 C   0  0  1  0  0  0  0  0  0  0  0  0
   -2.8950   13.8940   -1.1900 C   0  0  0  0  0  0  0  0  0  0  0  0
   -6.3590   13.7690    1.8580 N   0  0  0  0  0  0  0  0  0  0  0  0
   -6.0580   15.2080   -1.1350 N   0  0  0  0  0  0  0  0  0  0  0  0
   -3.8600   15.1390   -2.8630 C   0  0  0  0  0  0  0  0  0  0  0  0
   -2.6020   14.2080   -2.6840 C   0  0  2  0  0  0  0  0  0  0  0  0
   -7.9560   14.6960    0.6080 N   0  0  0  0  0  0  0  0  0  0  0  0
   -7.7720   13.9740    1.8700 C   0  0  0  0  0  0  0  0  0  0  0  0
   -2.7310   13.0010   -3.5860 N   0  0  0  0  0  0  0  0  0  0  0  0
   -1.1130   14.6280   -3.0280 C   0  0  1  0  0  0  0  0  0  0  0  0
    0.0160   14.3880   -1.9700 C   0  0  1  0  0  0  0  0  0  0  0  0
   -0.7840   14.0680   -4.4390 C   0  0  2  0  0  0  0  0  0  0  0  0
   -1.8550   13.1720   -4.7680 O   0  0  0  0  0  0  0  0  0  0  0  0
    0.5470   13.3360   -4.7150 C   0  0  0  0  0  0  0  0  0  0  0  0
    0.4630   13.0420   -2.0470 O   0  0  0  0  0  0  0  0  0  0  0  0
    1.1200   15.0290   -2.2830 O   0  0  0  0  0  0  0  0  0  0  0  0
  2  1  1  1
  2  3  1  0
  2  4  1  0
  4  5  1  0
  3  6  1  0
  3  7  1  1
  4  8  1  0
  5  9  1  6
  6  9  1  0
  6 10  1  6
 11  7  1  1
 10 11  1  0
  5 12  1  0
  8 13  1  0
 12 13  1  0
 11 14  1  0
 11 15  1  0
 15 16  1  1
 15 17  1  0
 14 18  1  0
 17 18  1  0
 17 19  1  1
 16 20  1  6
 16 21  1  0
M  CHG  1  21  -1
M  END
