ucsf511-ucsf264
     RDKit          3D

 30 34  0  0  0  0  0  0  0  0999 V2000
    0.6860   12.9830   -2.2450 O   0  0  0  0  0  0  0  0  0  0  0  0
    0.2500   12.1620   -3.3460 C   0  0  2  0  0  0  0  0  0  0  0  0
    0.5080   10.8040   -3.0030 O   0  0  0  0  0  0  0  0  0  0  0  0
   -0.0040   14.2230   -2.0950 C   0  0  2  0  0  0  0  0  0  0  0  0
    0.8820   12.5110   -4.7360 C   0  0  0  0  0  0  0  0  0  0  0  0
   -1.4970   13.9810   -1.7350 C   0  0  2  0  0  0  0  0  0  0  0  0
    0.1790   15.0570   -3.2870 N   0  0  0  0  0  0  0  0  0  0  0  0
   -2.4600   14.1130   -2.9080 C   0  0  2  0  0  0  0  0  0  0  0  0
   -0.7060   14.7360   -4.3940 C   0  0  0  0  0  0  0  0  0  0  0  0
   -2.0400   14.8220   -0.6780 O   0  0  0  0  0  0  0  0  0  0  0  0
    0.2370   12.2190   -6.0770 N   0  0  0  0  0  0  0  0  0  0  0  0
   -2.0760   14.9880   -4.0060 N   0  0  0  0  0  0  0  0  0  0  0  0
   -3.3810   15.1910   -1.0920 C   0  0  1  0  0  0  0  0  0  0  0  0
   -3.7920   14.2310   -2.1750 C   0  0  1  0  0  0  0  0  0  0  0  0
    1.2990   11.8270   -7.0420 N   0  0  0  0  0  0  0  0  0  0  0  0
   -0.8880   11.2750   -6.2780 C   0  0  1  0  0  0  0  0  0  0  0  0
   -4.9930   14.7680   -2.9060 C   0  0  0  0  0  0  0  0  0  0  0  0
   -4.4070   15.3130    0.0130 C   0  0  0  0  0  0  0  0  0  0  0  0
    0.9570   10.5170   -7.6700 C   0  0  1  0  0  0  0  0  0  0  0  0
   -0.2640   10.0360   -6.8760 C   0  0  2  0  0  0  0  0  0  0  0  0
   -1.7900   10.7830   -5.1520 C   0  0  0  0  0  0  0  0  0  0  0  0
    0.9010   10.3580   -9.2070 C   0  0  0  0  0  0  0  0  0  0  0  0
   -6.0580   15.2880   -1.9300 C   0  0  0  0  0  0  0  0  0  0  0  0
   -5.7800   14.8650   -0.4820 C   0  0  0  0  0  0  0  0  0  0  0  0
   -1.3190    9.2520   -7.6420 C   0  0  0  0  0  0  0  0  0  0  0  0
   -2.8650    9.8070   -5.6700 C   0  0  0  0  0  0  0  0  0  0  0  0
    1.4670    9.1590   -9.5040 F   0  0  0  0  0  0  0  0  0  0  0  0
   -0.3220   10.3600   -9.7590 F   0  0  0  0  0  0  0  0  0  0  0  0
    1.6330   11.2610   -9.8830 F   0  0  0  0  0  0  0  0  0  0  0  0
   -2.3380    8.7190   -6.6340 C   0  0  0  0  0  0  0  0  0  0  0  0
  1  2  1  0
  2  3  1  1
  4  1  1  6
  2  5  1  0
  4  6  1  0
  4  7  1  0
  6  8  1  0
  7  9  1  0
  6 10  1  1
  5 11  1  0
  8 12  1  1
  9 12  1  0
 10 13  1  0
  8 14  1  0
 13 14  1  0
 11 15  1  0
 11 16  1  0
 14 17  1  6
 13 18  1  1
 15 19  1  0
 16 20  1  0
 19 20  1  0
 16 21  1  1
 19 22  1  6
 17 23  1  0
 18 24  1  0
 23 24  1  0
 20 25  1  6
 21 26  1  0
 22 27  1  0
 22 28  1  0
 22 29  1  0
 25 30  1  0
 26 30  1  0
M  END
