ucsf411-ucsf348
     RDKit          3D

 28 31  0  0  0  0  0  0  0  0999 V2000
    0.6640   10.7500   -2.4220 O   0  0  0  0  0  0  0  0  0  0  0  0
    0.4450   12.0560   -2.6040 C   0  0  1  0  0  0  0  0  0  0  0  0
    0.4620   12.5500   -1.2790 O   0  0  0  0  0  0  0  0  0  0  0  0
    1.5620   12.8100   -3.4360 C   0  0  0  0  0  0  0  0  0  0  0  0
    1.1420   13.6050   -4.5940 O   0  0  0  0  0  0  0  0  0  0  0  0
   -0.0910   14.3250   -4.4210 C   0  0  1  0  0  0  0  0  0  0  0  0
   -0.0480   15.7210   -5.0960 C   0  0  1  0  0  0  0  0  0  0  0  0
   -1.2490   13.5110   -4.9910 C   0  0  0  0  0  0  0  0  0  0  0  0
   -1.4600   16.3700   -5.1870 C   0  0  1  0  0  0  0  0  0  0  0  0
   -2.5790   14.1900   -4.6830 C   0  0  0  0  0  0  0  0  0  0  0  0
    0.9150   16.7120   -4.4720 C   0  0  0  0  0  0  0  0  0  0  0  0
   -2.3970   15.6500   -4.2490 C   0  0  1  0  0  0  0  0  0  0  0  0
   -1.4440   17.9040   -5.1220 C   0  0  0  0  0  0  0  0  0  0  0  0
    1.0360   17.9730   -5.3430 C   0  0  0  0  0  0  0  0  0  0  0  0
   -1.9780   15.8650   -2.7840 C   0  0  0  0  0  0  0  0  0  0  0  0
   -0.2890   18.4480   -5.9320 C   0  0  0  0  0  0  0  0  0  0  0  0
   -2.5370   14.9660   -1.7220 C   0  0  1  0  0  0  0  0  0  0  0  0
   -1.9780   15.2200   -0.3200 C   0  0  0  0  0  0  0  0  0  0  0  0
   -4.0420   15.1820   -1.7020 C   0  0  0  0  0  0  0  0  0  0  0  0
   -4.7090   14.0790   -0.9270 C   0  0  2  0  0  0  0  0  0  0  0  0
   -3.0400   15.0330    0.7730 C   0  0  0  0  0  0  0  0  0  0  0  0
   -6.2360   14.2320   -0.9110 C   0  0  2  0  0  0  0  0  0  0  0  0
   -4.0430   13.9030    0.4380 C   0  0  1  0  0  0  0  0  0  0  0  0
   -6.6660   14.9830   -2.0290 O   0  0  0  0  0  0  0  0  0  0  0  0
   -6.7920   14.8430    0.2690 N   0  0  0  0  0  0  0  0  0  0  0  0
   -5.0640   13.7450    1.4570 N   0  0  0  0  0  0  0  0  0  0  0  0
   -5.9580   14.8300    1.4320 C   0  0  2  0  0  0  0  0  0  0  0  0
   -6.8740   14.6200    2.5080 N   0  0  0  0  0  0  0  0  0  0  0  0
  2  1  1  1
  2  3  1  0
  2  4  1  0
  4  5  1  0
  6  5  1  6
  6  7  1  0
  6  8  1  0
  7  9  1  0
  8 10  1  0
  7 11  1  1
  9 12  1  0
 10 12  1  0
  9 13  1  1
 11 14  1  0
 12 15  1  1
 13 16  1  0
 14 16  1  0
 17 15  1  6
 17 18  1  0
 17 19  1  0
 20 19  1  1
 18 21  1  0
 20 22  1  0
 20 23  1  0
 23 21  1  1
 22 24  1  6
 22 25  1  0
 23 26  1  0
 25 27  1  0
 26 27  1  0
 27 28  1  1
M  CHG  1   1  -1
M  END
