ucsf336-ucsf028
     RDKit          3D

 27 30  0  0  0  0  0  0  0  0999 V2000
    1.8100   14.0970   -4.4450 O   0  0  0  0  0  0  0  0  0  0  0  0
    1.7910   12.7870   -4.4440 C   0  0  1  0  0  0  0  0  0  0  0  0
    1.8610   12.5500   -3.0420 O   0  0  0  0  0  0  0  0  0  0  0  0
    0.4360   12.2130   -5.0740 C   0  0  1  0  0  0  0  0  0  0  0  0
    0.5990   11.2740   -6.2000 N   0  0  0  0  0  0  0  0  0  0  0  0
   -0.4780   11.5960   -3.9930 C   0  0  2  0  0  0  0  0  0  0  0  0
   -0.6420   10.6390   -6.6730 C   0  0  0  0  0  0  0  0  0  0  0  0
   -1.5800   12.5490   -3.7310 C   0  0  0  0  0  0  0  0  0  0  0  0
    0.2260   11.5670   -2.7050 N   0  0  0  0  0  0  0  0  0  0  0  0
   -0.3300    9.4350   -7.5600 C   0  0  0  0  0  0  0  0  0  0  0  0
   -1.5460   10.1940   -5.5080 C   0  0  0  0  0  0  0  0  0  0  0  0
   -0.6150   13.6330   -3.3770 C   0  0  2  0  0  0  0  0  0  0  0  0
    0.1430   12.9870   -2.3300 O   0  0  0  0  0  0  0  0  0  0  0  0
   -1.5640    8.8270   -8.2250 C   0  0  0  0  0  0  0  0  0  0  0  0
   -2.4700    9.0250   -5.8750 C   0  0  0  0  0  0  0  0  0  0  0  0
   -1.2400   14.9750   -3.0320 C   0  0  0  0  0  0  0  0  0  0  0  0
   -2.8070    8.9290   -7.3570 C   0  0  0  0  0  0  0  0  0  0  0  0
   -2.0030   15.0650   -1.7820 N   0  0  0  0  0  0  0  0  0  0  0  0
   -3.4380   15.0300   -2.0030 C   0  0  0  0  0  0  0  0  0  0  0  0
   -1.5450   14.2070   -0.7230 C   0  0  2  0  0  0  0  0  0  0  0  0
   -4.1290   15.5220   -0.8310 N   0  0  0  0  0  0  0  0  0  0  0  0
   -2.2960   14.4480    0.6000 C   0  0  2  0  0  0  0  0  0  0  0  0
   -0.1460   14.4990   -0.4010 N   0  0  0  0  0  0  0  0  0  0  0  0
   -3.7950   14.7520    0.3540 C   0  0  1  0  0  0  0  0  0  0  0  0
   -1.4350   15.3890    1.3110 N   0  0  0  0  0  0  0  0  0  0  0  0
   -0.1350   14.8140    1.0100 C   0  0  0  0  0  0  0  0  0  0  0  0
   -4.4070   15.5020    1.4300 N   0  0  0  0  0  0  0  0  0  0  0  0
  2  1  1  1
  2  3  1  0
  2  4  1  0
  4  5  1  6
  4  6  1  0
  5  7  1  0
  6  8  1  1
  6  9  1  0
  7 10  1  0
  7 11  1  0
  8 12  1  0
  9 13  1  0
 12 13  1  0
 10 14  1  0
 11 15  1  0
 12 16  1  1
 14 17  1  0
 15 17  1  0
 16 18  1  0
 18 19  1  0
 18 20  1  0
 19 21  1  0
 20 22  1  0
 20 23  1  1
 21 24  1  0
 22 24  1  0
 22 25  1  6
 23 26  1  0
 25 26  1  0
 24 27  1  1
M  CHG  1   1  -1
M  END
