ucsf422-ucsf378
     RDKit          3D

 17 18  0  0  0  0  0  0  0  0999 V2000
   -0.5060   11.5200   -2.2040 O   0  0  0  0  0  0  0  0  0  0  0  0
    0.6680   11.6980   -2.9490 C   0  0  2  0  0  0  0  0  0  0  0  0
    1.5930   12.4390   -2.1800 O   0  0  0  0  0  0  0  0  0  0  0  0
   -0.6380   10.0850   -2.2410 O   0  0  0  0  0  0  0  0  0  0  0  0
    0.3210   12.4910   -4.1640 C   0  0  0  0  0  0  0  0  0  0  0  0
    0.3760   13.9450   -3.7650 C   0  0  1  0  0  0  0  0  0  0  0  0
    1.6980   14.6000   -4.0790 C   0  0  1  0  0  0  0  0  0  0  0  0
   -0.7340   14.8630   -4.2320 C   0  0  1  0  0  0  0  0  0  0  0  0
   -1.9620   14.9440   -2.9350 Cl  0  0  0  0  0  0  0  0  0  0  0  0
    2.7710   13.3070   -4.6860 Cl  0  0  0  0  0  0  0  0  0  0  0  0
    1.3580   15.6630   -5.0440 N   0  0  0  0  0  0  0  0  0  0  0  0
    0.0510   16.1580   -4.5170 C   0  0  1  0  0  0  0  0  0  0  0  0
   -1.5730   14.3560   -5.3800 C   0  0  0  0  0  0  0  0  0  0  0  0
   -0.7350   17.1430   -5.3860 C   0  0  0  0  0  0  0  0  0  0  0  0
   -2.6360   15.3770   -5.7780 C   0  0  1  0  0  0  0  0  0  0  0  0
   -4.3440   14.8100   -5.0580 Br  0  0  0  0  0  0  0  0  0  0  0  0
   -2.2500   16.8360   -5.4490 C   0  0  0  0  0  0  0  0  0  0  0  0
  1  2  1  0
  2  3  1  1
  1  4  1  0
  2  5  1  0
  6  5  1  6
  6  7  1  0
  6  8  1  0
  8  9  1  1
  7 10  1  6
  7 11  1  0
  8 12  1  0
 11 12  1  0
  8 13  1  0
 12 14  1  6
 13 15  1  0
 15 16  1  1
 14 17  1  0
 15 17  1  0
M  END
