ucsf357-ucsf243
     RDKit          3D

 14 14  0  0  0  0  0  0  0  0999 V2000
   -6.2790   14.9160   -2.2400 O   0  0  0  0  0  0  0  0  0  0  0  0
   -5.5930   14.6090   -1.1650 C   0  0  2  0  0  0  0  0  0  0  0  0
   -6.4100   15.1990   -0.1780 O   0  0  0  0  0  0  0  0  0  0  0  0
   -4.2110   15.3210   -1.2040 C   0  0  2  0  0  0  0  0  0  0  0  0
   -3.5040   15.0750   -2.5640 C   0  0  0  0  0  0  0  0  0  0  0  0
   -3.3570   14.9750    0.0590 C   0  0  2  0  0  0  0  0  0  0  0  0
   -3.8670   15.7430    1.2780 C   0  0  0  0  0  0  0  0  0  0  0  0
   -1.9840   15.1730   -2.5770 C   0  0  2  0  0  0  0  0  0  0  0  0
   -1.8370   15.1190   -0.1300 C   0  0  0  0  0  0  0  0  0  0  0  0
   -1.5030   14.6790   -3.7630 F   0  0  0  0  0  0  0  0  0  0  0  0
   -1.3210   14.4280   -1.4050 C   0  0  2  0  0  0  0  0  0  0  0  0
    0.1590   14.2970   -1.5190 N   0  0  0  0  0  0  0  0  0  0  0  0
    0.4450   14.2780   -2.9440 O   0  0  0  0  0  0  0  0  0  0  0  0
    0.5050   12.9520   -1.1430 O   0  0  0  0  0  0  0  0  0  0  0  0
  2  1  1  6
  2  3  1  0
  2  4  1  0
  4  5  1  6
  4  6  1  0
  6  7  1  1
  5  8  1  0
  6  9  1  0
  8 10  1  6
  8 11  1  0
  9 11  1  0
 11 12  1  6
 12 13  1  0
 12 14  1  0
M  CHG  2   1  -1  14  -1
M  END
