ucsf124-ucsf487
     RDKit          3D

 29 32  0  0  0  0  0  0  0  0999 V2000
    0.7110   11.1550   -2.5530 O   0  0  0  0  0  0  0  0  0  0  0  0
    0.6310   12.4160   -2.9440 C   0  0  1  0  0  0  0  0  0  0  0  0
    1.7380   12.9840   -2.2700 O   0  0  0  0  0  0  0  0  0  0  0  0
    0.8410   12.5760   -4.4910 C   0  0  0  0  0  0  0  0  0  0  0  0
    0.2720   11.4820   -5.2920 N   0  0  0  0  0  0  0  0  0  0  0  0
   -1.1720   11.5110   -5.4870 C   0  0  2  0  0  0  0  0  0  0  0  0
    0.8090   11.2930   -6.6260 C   0  0  2  0  0  0  0  0  0  0  0  0
   -1.8590   11.0830   -4.3110 O   0  0  0  0  0  0  0  0  0  0  0  0
    0.4900   12.3360   -7.4760 O   0  0  0  0  0  0  0  0  0  0  0  0
   -1.4010   10.5060   -6.6470 C   0  0  1  0  0  0  0  0  0  0  0  0
    0.0110   10.0550   -7.0180 C   0  0  1  0  0  0  0  0  0  0  0  0
   -3.1240   11.7200   -4.1510 C   0  0  0  0  0  0  0  0  0  0  0  0
   -2.2860    9.2820   -6.4610 C   0  0  0  0  0  0  0  0  0  0  0  0
    0.0620    9.5460   -8.4440 C   0  0  0  0  0  0  0  0  0  0  0  0
   -3.0370   12.7450   -3.0250 C   0  0  0  0  0  0  0  0  0  0  0  0
   -1.9080    8.1910   -7.4790 C   0  0  0  0  0  0  0  0  0  0  0  0
   -1.1990    8.7210   -8.7420 C   0  0  0  0  0  0  0  0  0  0  0  0
   -3.2380   14.2130   -3.4510 C   0  0  0  0  0  0  0  0  0  0  0  0
   -3.8840   15.2060   -2.4540 C   0  0  1  0  0  0  0  0  0  0  0  0
   -5.3960   14.9200   -2.2740 C   0  0  0  0  0  0  0  0  0  0  0  0
   -3.0090   15.3930   -1.1860 C   0  0  0  0  0  0  0  0  0  0  0  0
   -5.9650   15.1780   -0.8750 C   0  0  2  0  0  0  0  0  0  0  0  0
   -3.7320   15.4510    0.1610 C   0  0  0  0  0  0  0  0  0  0  0  0
   -5.0000   14.6250    0.1600 C   0  0  1  0  0  0  0  0  0  0  0  0
   -7.3240   14.6270   -0.7900 N   0  0  0  0  0  0  0  0  0  0  0  0
   -5.5880   14.5410    1.5700 C   0  0  0  0  0  0  0  0  0  0  0  0
   -7.9460   14.5620    0.5400 C   0  0  0  0  0  0  0  0  0  0  0  0
   -7.0260   13.9950    1.6430 C   0  0  2  0  0  0  0  0  0  0  0  0
   -7.6060   14.2800    2.9660 N   0  0  0  0  0  0  0  0  0  0  0  0
  2  1  1  6
  2  3  1  0
  2  4  1  0
  4  5  1  0
  5  6  1  0
  5  7  1  0
  6  8  1  1
  7  9  1  6
  6 10  1  0
  7 11  1  0
 10 11  1  0
  8 12  1  0
 10 13  1  1
 11 14  1  6
 12 15  1  0
 13 16  1  0
 14 17  1  0
 16 17  1  0
 15 18  1  0
 19 18  1  1
 19 20  1  0
 19 21  1  0
 22 20  1  6
 21 23  1  0
 22 24  1  0
 24 23  1  1
 22 25  1  0
 24 26  1  0
 25 27  1  0
 26 28  1  0
 27 28  1  0
 28 29  1  1
M  CHG  1   1  -1
M  END
