ucsf170-ucsf115
     RDKit          3D

 27 30  0  0  0  0  0  0  0  0999 V2000
   -6.3240   15.2560   -1.9700 C   0  0  0  0  0  0  0  0  0  0  0  0
   -4.7650   15.3010   -1.0610 S   0  0  0  0  0  0  0  0  0  0  0  0
   -3.5560   14.5330   -2.2520 C   0  0  1  0  0  0  0  0  0  0  0  0
   -3.3870   12.9850   -2.1440 C   0  0  0  0  0  0  0  0  0  0  0  0
   -3.7960   14.9820   -3.6860 C   0  0  0  0  0  0  0  0  0  0  0  0
   -2.2250   12.4350   -3.0260 C   0  0  2  0  0  0  0  0  0  0  0  0
   -2.8770   14.2370   -4.6600 C   0  0  0  0  0  0  0  0  0  0  0  0
   -1.1890   11.4220   -2.3710 C   0  0  2  0  0  0  0  0  0  0  0  0
   -1.6590   13.5730   -3.9620 C   0  0  1  0  0  0  0  0  0  0  0  0
   -0.6400   14.5860   -3.5880 N   0  0  0  0  0  0  0  0  0  0  0  0
   -0.3150   12.0210   -1.4280 O   0  0  0  0  0  0  0  0  0  0  0  0
   -0.3080   10.9790   -3.2340 O   0  0  0  0  0  0  0  0  0  0  0  0
   -0.8630   15.1700   -2.2480 N   0  0  0  0  0  0  0  0  0  0  0  0
    0.7900   14.5740   -3.9290 C   0  0  2  0  0  0  0  0  0  0  0  0
   -0.6980   14.2250   -1.1520 C   0  0  1  0  0  0  0  0  0  0  0  0
    1.1060   13.9690   -5.1870 O   0  0  0  0  0  0  0  0  0  0  0  0
    1.8610   14.0740   -2.9580 C   0  0  0  0  0  0  0  0  0  0  0  0
    0.5010   14.7000   -0.4560 N   0  0  0  0  0  0  0  0  0  0  0  0
   -1.8170   14.1540   -0.0690 C   0  0  1  0  0  0  0  0  0  0  0  0
    2.1080   12.6670   -3.4540 C   0  0  0  0  0  0  0  0  0  0  0  0
    1.7940   12.7430   -4.9390 C   0  0  0  0  0  0  0  0  0  0  0  0
    0.1840   15.2080    0.8450 C   0  0  0  0  0  0  0  0  0  0  0  0
   -2.1140   15.5840    0.2530 C   0  0  2  0  0  0  0  0  0  0  0  0
   -3.1470   13.5850   -0.1020 N   0  0  0  0  0  0  0  0  0  0  0  0
   -0.9170   16.1660    0.7980 N   0  0  0  0  0  0  0  0  0  0  0  0
   -3.2210   15.5240    1.2120 N   0  0  0  0  0  0  0  0  0  0  0  0
   -3.6820   14.1240    1.1240 C   0  0  0  0  0  0  0  0  0  0  0  0
  1  2  1  0
  3  2  1  1
  3  4  1  0
  3  5  1  0
  6  4  1  1
  5  7  1  0
  6  8  1  0
  6  9  1  0
  7  9  1  0
  9 10  1  1
  8 11  1  1
  8 12  1  0
 10 13  1  0
 14 10  1  1
 15 13  1  6
 14 16  1  0
 14 17  1  0
 15 18  1  0
 15 19  1  0
 17 20  1  0
 16 21  1  0
 20 21  1  0
 18 22  1  0
 19 23  1  0
 19 24  1  6
 22 25  1  0
 23 25  1  1
 23 26  1  0
 24 27  1  0
 26 27  1  0
M  CHG  1  12  -1
M  END
