ucsf396-ucsf442
     RDKit          3D

 14 15  0  0  0  0  0  0  0  0999 V2000
   -3.6930   14.4920   -2.0030 C   0  0  0  0  0  0  0  0  0  0  0  0
   -2.4130   14.5800   -1.9650 O   0  0  0  0  0  0  0  0  0  0  0  0
   -4.3960   14.7230   -0.2260 S   0  0  0  0  0  0  0  0  0  0  0  0
   -6.1850   15.2490   -0.2430 C   0  0  0  0  0  0  0  0  0  0  0  0
   -5.7290   13.4300    0.1200 C   0  0  0  0  0  0  0  0  0  0  0  0
   -3.4530   15.4280    1.2350 C   0  0  0  0  0  0  0  0  0  0  0  0
   -3.0190   13.7150    0.3670 C   0  0  0  0  0  0  0  0  0  0  0  0
   -7.1190   14.5000   -0.9280 N   0  0  0  0  0  0  0  0  0  0  0  0
   -6.8720   13.7610    0.8640 C   0  0  0  0  0  0  0  0  0  0  0  0
   -2.1250   15.5740    1.3040 N   0  0  0  0  0  0  0  0  0  0  0  0
   -1.8220   14.2180   -0.1260 N   0  0  0  0  0  0  0  0  0  0  0  0
   -8.0640   14.2550    0.1220 C   0  0  0  0  0  0  0  0  0  0  0  0
   -1.0400   14.7020    0.9020 C   0  0  0  0  0  0  0  0  0  0  0  0
    0.1130   15.3520    0.5160 O   0  0  0  0  0  0  0  0  0  0  0  0
  1  2  1  0
  1  3  1  0
  3  4  1  0
  3  5  1  0
  3  6  1  0
  3  7  1  0
  4  8  1  0
  5  9  1  0
  6 10  1  0
  7 11  1  0
  8 12  1  0
  9 12  1  0
 10 13  1  0
 11 13  1  0
 13 14  1  0
M  END
