ucsf511-ucsf348
     RDKit          3D

 15 17  0  0  0  0  0  0  0  0999 V2000
    0.7710   14.6090   -1.1460 O   0  0  0  0  0  0  0  0  0  0  0  0
    0.0140   13.9190   -2.1310 C   0  0  2  0  0  0  0  0  0  0  0  0
    0.2790   14.4660   -3.4650 N   0  0  0  0  0  0  0  0  0  0  0  0
   -1.4810   14.0020   -1.8450 C   0  0  2  0  0  0  0  0  0  0  0  0
   -2.1390   14.7940   -2.9770 C   0  0  1  0  0  0  0  0  0  0  0  0
   -0.5810   13.9560   -4.5360 C   0  0  0  0  0  0  0  0  0  0  0  0
   -1.9360   14.6250   -0.6440 O   0  0  0  0  0  0  0  0  0  0  0  0
   -2.0210   14.0300   -4.2060 N   0  0  0  0  0  0  0  0  0  0  0  0
   -3.3370   14.6320   -0.9120 C   0  0  2  0  0  0  0  0  0  0  0  0
   -3.4860   15.1790   -2.3300 C   0  0  2  0  0  0  0  0  0  0  0  0
   -4.7980   14.6880   -2.8820 C   0  0  0  0  0  0  0  0  0  0  0  0
   -4.1960   15.4090    0.0490 C   0  0  0  0  0  0  0  0  0  0  0  0
   -5.9670   15.0210   -1.9210 C   0  0  0  0  0  0  0  0  0  0  0  0
   -5.6410   15.4950   -0.4740 C   0  0  1  0  0  0  0  0  0  0  0  0
   -6.5120   14.8220    0.5290 N   0  0  0  0  0  0  0  0  0  0  0  0
  2  1  1  1
  2  3  1  0
  2  4  1  0
  4  5  1  0
  3  6  1  0
  4  7  1  1
  5  8  1  6
  6  8  1  0
  7  9  1  0
  5 10  1  0
  9 10  1  0
 10 11  1  6
  9 12  1  1
 11 13  1  0
 12 14  1  0
 13 14  1  0
 14 15  1  1
M  END
