ucsf138-ucsf339
     RDKit          3D

 28 30  0  0  0  0  0  0  0  0999 V2000
    0.9710   12.6870   -2.3180 O   0  0  0  0  0  0  0  0  0  0  0  0
    0.4370   11.6660   -3.1540 C   0  0  2  0  0  0  0  0  0  0  0  0
    0.7490   10.3730   -2.6300 O   0  0  0  0  0  0  0  0  0  0  0  0
    0.6990   13.9790   -2.8840 C   0  0  2  0  0  0  0  0  0  0  0  0
    1.0820   11.8820   -4.5560 C   0  0  0  0  0  0  0  0  0  0  0  0
    1.2100   14.8990   -2.1030 O   0  0  0  0  0  0  0  0  0  0  0  0
   -0.8680   14.0900   -3.0070 C   0  0  1  0  0  0  0  0  0  0  0  0
    0.2530   11.4610   -5.7200 N   0  0  0  0  0  0  0  0  0  0  0  0
   -1.5830   14.2830   -1.6510 C   0  0  0  0  0  0  0  0  0  0  0  0
   -1.3610   15.1310   -4.0250 C   0  0  0  0  0  0  0  0  0  0  0  0
    1.0610   11.1270   -6.8440 C   0  0  2  0  0  0  0  0  0  0  0  0
   -3.1030   14.1730   -1.8670 C   0  0  2  0  0  0  0  0  0  0  0  0
   -2.8380   15.1600   -4.1660 N   0  0  0  0  0  0  0  0  0  0  0  0
    1.6750   12.3190   -7.1610 O   0  0  0  0  0  0  0  0  0  0  0  0
    0.2420   10.6010   -7.9080 N   0  0  0  0  0  0  0  0  0  0  0  0
   -3.5560   15.2290   -2.8920 C   0  0  0  0  0  0  0  0  0  0  0  0
   -3.9650   14.2360   -0.5610 C   0  0  0  0  0  0  0  0  0  0  0  0
    1.0100   10.0940   -9.0610 C   0  0  0  0  0  0  0  0  0  0  0  0
   -3.6540   15.4030    0.3790 C   0  0  0  0  0  0  0  0  0  0  0  0
   -5.4670   14.3140   -0.8510 C   0  0  0  0  0  0  0  0  0  0  0  0
    0.6310   10.7570  -10.3890 C   0  0  0  0  0  0  0  0  0  0  0  0
    0.8040    8.5820   -9.2690 C   0  0  0  0  0  0  0  0  0  0  0  0
   -4.2900   15.1970    1.7360 C   0  0  0  0  0  0  0  0  0  0  0  0
   -6.3330   14.2780    0.4020 C   0  0  0  0  0  0  0  0  0  0  0  0
    0.5570    9.7230  -11.5250 C   0  0  0  0  0  0  0  0  0  0  0  0
    1.8590    8.0280  -10.2050 C   0  0  0  0  0  0  0  0  0  0  0  0
   -5.5370   14.3060    1.7080 C   0  0  0  0  0  0  0  0  0  0  0  0
    1.7390    8.7470  -11.5300 C   0  0  0  0  0  0  0  0  0  0  0  0
  1  2  1  0
  2  3  1  1
  1  4  1  0
  2  5  1  0
  4  6  1  1
  4  7  1  0
  5  8  1  0
  7  9  1  1
  7 10  1  0
  8 11  1  0
  9 12  1  0
 10 13  1  0
 11 14  1  6
 11 15  1  0
 12 16  1  0
 13 16  1  0
 12 17  1  1
 15 18  1  0
 17 19  1  0
 17 20  1  0
 18 21  1  0
 18 22  1  0
 19 23  1  0
 20 24  1  0
 21 25  1  0
 22 26  1  0
 23 27  1  0
 24 27  1  0
 25 28  1  0
 26 28  1  0
M  CHG  1   6  -1
M  END
