ucsf387-ucsf519
     RDKit          3D

 21 23  0  0  0  0  0  0  0  0999 V2000
    0.9810   18.2830   -5.7250 Cl  0  0  0  0  0  0  0  0  0  0  0  0
    0.2540   16.8810   -4.9060 C   0  0  1  0  0  0  0  0  0  0  0  0
   -1.2000   16.7390   -5.3470 C   0  0  0  0  0  0  0  0  0  0  0  0
    0.9140   15.5370   -5.2080 C   0  0  0  0  0  0  0  0  0  0  0  0
   -0.1700   14.4430   -5.0490 C   0  0  2  0  0  0  0  0  0  0  0  0
   -1.5520   15.2420   -5.1810 C   0  0  1  0  0  0  0  0  0  0  0  0
   -2.5510   15.1330   -4.0510 C   0  0  0  0  0  0  0  0  0  0  0  0
    0.0920   13.5670   -3.7910 C   0  0  1  0  0  0  0  0  0  0  0  0
    0.7630   12.1620   -3.7640 C   0  0  2  0  0  0  0  0  0  0  0  0
    0.9380   14.6750   -2.6320 S   0  0  0  0  0  0  0  0  0  0  0  0
   -1.8440   15.0930   -2.6860 C   0  0  1  0  0  0  0  0  0  0  0  0
    0.0430   11.2090   -3.1960 O   0  0  0  0  0  0  0  0  0  0  0  0
    1.7780   12.2930   -2.7790 O   0  0  0  0  0  0  0  0  0  0  0  0
   -0.4750   15.8080   -2.6540 C   0  0  2  0  0  0  0  0  0  0  0  0
   -2.7210   15.3390   -1.5780 N   0  0  0  0  0  0  0  0  0  0  0  0
   -0.3000   16.9260   -3.6700 C   0  0  0  0  0  0  0  0  0  0  0  0
   -4.1250   15.0370   -1.5290 C   0  0  0  0  0  0  0  0  0  0  0  0
   -2.1640   14.7850   -0.4020 C   0  0  1  0  0  0  0  0  0  0  0  0
   -0.8560   15.2180   -0.1690 O   0  0  0  0  0  0  0  0  0  0  0  0
   -4.3650   15.3130   -0.0430 C   0  0  0  0  0  0  0  0  0  0  0  0
   -3.0350   15.2870    0.6220 N   0  0  0  0  0  0  0  0  0  0  0  0
  2  1  1  6
  2  3  1  0
  2  4  1  0
  5  4  1  1
  6  3  1  1
  5  6  1  0
  6  7  1  0
  5  8  1  0
  8  9  1  0
  8 10  1  1
  7 11  1  0
  9 12  1  1
  9 13  1  0
 10 14  1  0
 11 14  1  0
 11 15  1  1
 14 16  1  6
 15 17  1  0
 15 18  1  0
 18 19  1  1
 17 20  1  0
 18 21  1  0
 20 21  1  0
M  CHG  1  12  -1
M  END
