ucsf519-ucsf172
     RDKit          3D

 20 20  0  0  0  0  0  0  0  0999 V2000
   -0.4910   16.2250   -4.5910 C   0  0  0  0  0  0  0  0  0  0  0  0
   -0.7020   14.8870   -3.8630 C   0  0  2  0  0  0  0  0  0  0  0  0
    0.2030   13.5780   -4.8100 S   0  0  0  0  0  0  0  0  0  0  0  0
   -2.2010   14.6030   -3.4450 C   0  0  2  0  0  0  0  0  0  0  0  0
   -0.0770   12.0000   -3.8850 C   0  0  0  0  0  0  0  0  0  0  0  0
   -3.0980   15.0950   -4.4460 O   0  0  0  0  0  0  0  0  0  0  0  0
   -2.6050   15.1170   -2.1160 N   0  0  0  0  0  0  0  0  0  0  0  0
    0.8030   11.6170   -2.6620 C   0  0  1  0  0  0  0  0  0  0  0  0
   -4.0470   15.1110   -1.7830 C   0  0  0  0  0  0  0  0  0  0  0  0
   -1.9590   14.4860   -0.9800 C   0  0  1  0  0  0  0  0  0  0  0  0
    0.4690   12.3400   -1.4980 O   0  0  0  0  0  0  0  0  0  0  0  0
    0.4950   10.3780   -2.2890 O   0  0  0  0  0  0  0  0  0  0  0  0
   -0.6830   15.0420   -0.7520 O   0  0  0  0  0  0  0  0  0  0  0  0
   -4.1380   14.5640   -0.3430 C   0  0  1  0  0  0  0  0  0  0  0  0
   -2.7880   14.7850    0.1840 N   0  0  0  0  0  0  0  0  0  0  0  0
   -5.1380   15.1810    0.5400 N   0  0  0  0  0  0  0  0  0  0  0  0
   -6.5350   14.3760    0.9760 S   0  0  0  0  0  0  0  0  0  0  0  0
   -7.4810   14.8650    2.3810 C   0  0  0  0  0  0  0  0  0  0  0  0
   -6.2260   12.8690    1.3910 O   0  0  0  0  0  0  0  0  0  0  0  0
   -7.6060   14.3270   -0.2150 O   0  0  0  0  0  0  0  0  0  0  0  0
  2  1  1  6
  2  3  1  0
  2  4  1  0
  3  5  1  0
  4  6  1  6
  4  7  1  0
  5  8  1  0
  7  9  1  0
  7 10  1  0
  8 11  1  1
  8 12  1  0
 10 13  1  1
  9 14  1  0
 10 15  1  0
 14 15  1  0
 14 16  1  1
 16 17  1  0
 17 18  1  0
 17 19  1  0
 17 20  1  0
M  CHG  1  12  -1
M  END
