ucsf169-ucsf012
     RDKit          3D

 30 33  0  0  0  0  0  0  0  0999 V2000
    1.3060   18.6040   -5.6680 C   0  0  0  0  0  0  0  0  0  0  0  0
    0.2250   18.2000   -4.8640 O   0  0  0  0  0  0  0  0  0  0  0  0
   -0.1950   16.9330   -5.3350 C   0  0  2  0  0  0  0  0  0  0  0  0
   -1.5350   16.6320   -4.7330 C   0  0  1  0  0  0  0  0  0  0  0  0
    0.8030   15.8350   -4.9840 C   0  0  0  0  0  0  0  0  0  0  0  0
   -2.3630   17.7970   -4.8430 O   0  0  0  0  0  0  0  0  0  0  0  0
   -2.1600   15.3810   -5.2980 C   0  0  0  0  0  0  0  0  0  0  0  0
    0.1620   14.5240   -4.5070 C   0  0  2  0  0  0  0  0  0  0  0  0
    1.1590   13.3310   -4.5200 C   0  0  0  0  0  0  0  0  0  0  0  0
   -1.1660   14.2010   -5.2680 C   0  0  0  0  0  0  0  0  0  0  0  0
    1.4970   12.6330   -3.1730 C   0  0  1  0  0  0  0  0  0  0  0  0
    2.0490   13.5460   -2.2480 O   0  0  0  0  0  0  0  0  0  0  0  0
    0.3190   11.9090   -2.5680 C   0  0  1  0  0  0  0  0  0  0  0  0
   -0.9580   12.5380   -3.0550 C   0  0  1  0  0  0  0  0  0  0  0  0
   -0.0500   10.4860   -2.8340 C   0  0  0  0  0  0  0  0  0  0  0  0
   -0.9050   14.0590   -3.2160 C   0  0  0  0  0  0  0  0  0  0  0  0
   -1.2250   11.8790   -4.3160 O   0  0  0  0  0  0  0  0  0  0  0  0
   -0.5590   10.6130   -4.2550 C   0  0  0  0  0  0  0  0  0  0  0  0
   -1.7900   14.7510   -2.3440 N   0  0  0  0  0  0  0  0  0  0  0  0
   -3.2430   14.5140   -2.4780 C   0  0  2  0  0  0  0  0  0  0  0  0
   -1.4350   14.7250   -0.9400 C   0  0  1  0  0  0  0  0  0  0  0  0
   -3.9570   15.0230   -3.7280 C   0  0  0  0  0  0  0  0  0  0  0  0
   -3.7360   15.2690   -1.2460 C   0  0  2  0  0  0  0  0  0  0  0  0
   -2.7720   14.6230   -0.2620 C   0  0  2  0  0  0  0  0  0  0  0  0
   -0.6820   13.6410   -0.4470 N   0  0  0  0  0  0  0  0  0  0  0  0
   -5.2300   15.0940   -0.9920 C   0  0  0  0  0  0  0  0  0  0  0  0
   -2.5680   15.1340    1.1120 C   0  0  1  0  0  0  0  0  0  0  0  0
   -0.4260   14.0000    0.9420 C   0  0  0  0  0  0  0  0  0  0  0  0
   -3.8080   15.2010    1.8440 N   0  0  0  0  0  0  0  0  0  0  0  0
   -1.6660   14.1920    1.7120 N   0  0  0  0  0  0  0  0  0  0  0  0
  1  2  1  0
  3  2  1  1
  3  4  1  0
  3  5  1  0
  4  6  1  6
  4  7  1  0
  5  8  1  0
  8  9  1  6
  7 10  1  0
  8 10  1  0
  9 11  1  0
 11 12  1  1
 11 13  1  0
 13 14  1  0
 13 15  1  6
 14 16  1  6
 14 17  1  0
 15 18  1  0
 17 18  1  0
 16 19  1  0
 19 20  1  0
 19 21  1  0
 20 22  1  6
 20 23  1  0
 21 24  1  0
 23 24  1  0
 21 25  1  6
 23 26  1  1
 24 27  1  1
 25 28  1  0
 27 29  1  1
 27 30  1  0
 28 30  1  0
M  END
