ucsf169-ucsf493
     RDKit          3D

 17 18  0  0  0  0  0  0  0  0999 V2000
    1.1790   18.3600   -5.7270 C   0  0  0  0  0  0  0  0  0  0  0  0
    0.0480   17.5390   -5.8510 O   0  0  0  0  0  0  0  0  0  0  0  0
   -0.3940   16.9360   -4.6270 C   0  0  1  0  0  0  0  0  0  0  0  0
   -1.7810   16.4180   -4.9850 C   0  0  2  0  0  0  0  0  0  0  0  0
    0.4890   15.7530   -4.1020 C   0  0  1  0  0  0  0  0  0  0  0  0
   -2.8850   17.1870   -5.2860 O   0  0  0  0  0  0  0  0  0  0  0  0
   -2.2890   15.2390   -4.2150 C   0  0  0  0  0  0  0  0  0  0  0  0
   -0.0870   14.2850   -4.1830 C   0  0  1  0  0  0  0  0  0  0  0  0
    1.8310   15.6260   -4.7190 N   0  0  0  0  0  0  0  0  0  0  0  0
   -0.1690   13.6350   -2.8020 C   0  0  0  0  0  0  0  0  0  0  0  0
   -3.7310   16.2210   -5.9600 C   0  0  0  0  0  0  0  0  0  0  0  0
   -1.4880   14.1040   -4.7470 C   0  0  0  0  0  0  0  0  0  0  0  0
    0.9850   13.5250   -4.9580 C   0  0  0  0  0  0  0  0  0  0  0  0
    2.1760   14.2320   -4.4130 C   0  0  0  0  0  0  0  0  0  0  0  0
    0.7920   12.5280   -2.3840 C   0  0  1  0  0  0  0  0  0  0  0  0
    0.7140   12.6560   -0.9960 O   0  0  0  0  0  0  0  0  0  0  0  0
    0.2630   11.3330   -2.5460 O   0  0  0  0  0  0  0  0  0  0  0  0
  1  2  1  0
  3  2  1  6
  3  4  1  0
  3  5  1  0
  4  6  1  1
  4  7  1  0
  5  8  1  0
  5  9  1  6
  8 10  1  1
  6 11  1  0
  7 12  1  0
  8 12  1  0
  8 13  1  0
  9 14  1  0
 13 14  1  0
 10 15  1  0
 15 16  1  1
 15 17  1  0
M  CHG  1  17  -1
M  END
