ucsf371-ucsf380
     RDKit          3D

 17 18  0  0  0  0  0  0  0  0999 V2000
   -4.7860   15.3990    0.7570 C   0  0  0  0  0  0  0  0  0  0  0  0
   -4.2830   14.7090   -0.4910 C   0  0  1  0  0  0  0  0  0  0  0  0
   -4.7620   15.3500   -1.7230 N   0  0  0  0  0  0  0  0  0  0  0  0
   -2.4850   14.7460   -0.5170 S   0  0  0  0  0  0  0  0  0  0  0  0
   -3.7120   15.2620   -2.7620 C   0  0  0  0  0  0  0  0  0  0  0  0
   -2.5910   14.3350   -2.2980 C   0  0  1  0  0  0  0  0  0  0  0  0
   -1.2170   14.3750   -3.0260 C   0  0  1  0  0  0  0  0  0  0  0  0
   -1.2830   15.2770   -4.1520 O   0  0  0  0  0  0  0  0  0  0  0  0
   -0.1420   14.9310   -2.2430 O   0  0  0  0  0  0  0  0  0  0  0  0
   -0.8500   12.9670   -3.5880 C   0  0  0  0  0  0  0  0  0  0  0  0
    0.4600   14.1690   -1.2050 C   0  0  0  0  0  0  0  0  0  0  0  0
   -1.7630   11.8050   -3.1000 C   0  0  0  0  0  0  0  0  0  0  0  0
   -0.7300   12.9550   -5.1160 C   0  0  0  0  0  0  0  0  0  0  0  0
    0.2110   12.7810   -1.3050 O   0  0  0  0  0  0  0  0  0  0  0  0
   -2.8490   11.4480   -4.1150 C   0  0  0  0  0  0  0  0  0  0  0  0
   -0.8670   11.5470   -5.6780 C   0  0  0  0  0  0  0  0  0  0  0  0
   -2.2390   10.9400   -5.4110 C   0  0  0  0  0  0  0  0  0  0  0  0
  2  1  1  1
  2  3  1  0
  2  4  1  0
  3  5  1  0
  4  6  1  0
  6  5  1  6
  6  7  1  0
  7  8  1  6
  7  9  1  0
  7 10  1  0
  9 11  1  0
 10 12  1  0
 10 13  1  0
 11 14  1  0
 12 15  1  0
 13 16  1  0
 15 17  1  0
 16 17  1  0
M  END
