ucsf247-ucsf378
     RDKit          3D

 24 25  0  0  0  0  0  0  0  0999 V2000
    0.2870   12.5330   -1.7290 O   0  0  0  0  0  0  0  0  0  0  0  0
    0.7220   13.8840   -1.8330 C   0  0  0  0  0  0  0  0  0  0  0  0
    1.9790   13.9900   -2.4680 O   0  0  0  0  0  0  0  0  0  0  0  0
    0.6820   11.6600   -2.7970 C   0  0  1  0  0  0  0  0  0  0  0  0
    0.3160   10.3110   -2.4760 O   0  0  0  0  0  0  0  0  0  0  0  0
    0.0610   11.9940   -4.1820 C   0  0  0  0  0  0  0  0  0  0  0  0
    0.3680   13.3950   -4.7670 C   0  0  2  0  0  0  0  0  0  0  0  0
    1.6200   13.9250   -4.0660 C   0  0  1  0  0  0  0  0  0  0  0  0
   -0.8570   14.3540   -4.7490 C   0  0  2  0  0  0  0  0  0  0  0  0
    3.0340   12.9730   -4.6030 Cl  0  0  0  0  0  0  0  0  0  0  0  0
    1.8450   15.4120   -4.1970 C   0  0  0  0  0  0  0  0  0  0  0  0
   -0.5030   15.8600   -4.7650 C   0  0  0  0  0  0  0  0  0  0  0  0
   -1.7690   13.9820   -3.5950 C   0  0  0  0  0  0  0  0  0  0  0  0
    0.6440   16.2380   -3.8570 C   0  0  0  0  0  0  0  0  0  0  0  0
   -1.9810   15.0100   -2.6150 N   0  0  0  0  0  0  0  0  0  0  0  0
   -3.3600   15.3150   -2.4650 C   0  0  1  0  0  0  0  0  0  0  0  0
   -4.0810   14.9720   -3.6310 O   0  0  0  0  0  0  0  0  0  0  0  0
   -3.9400   14.6440   -1.2240 C   0  0  2  0  0  0  0  0  0  0  0  0
   -5.4290   14.3560   -1.3170 C   0  0  0  0  0  0  0  0  0  0  0  0
   -3.5480   15.3650    0.0710 C   0  0  0  0  0  0  0  0  0  0  0  0
   -6.1930   15.0610   -0.2310 C   0  0  1  0  0  0  0  0  0  0  0  0
   -4.1970   14.8420    1.3250 C   0  0  0  0  0  0  0  0  0  0  0  0
   -7.5840   14.7620   -0.3330 O   0  0  0  0  0  0  0  0  0  0  0  0
   -5.6960   14.6440    1.1520 C   0  0  0  0  0  0  0  0  0  0  0  0
  1  2  1  0
  2  3  1  0
  1  4  1  0
  4  5  1  1
  4  6  1  0
  7  6  1  1
  7  8  1  0
  7  9  1  0
  8 10  1  6
  8 11  1  0
  9 12  1  0
  9 13  1  1
 11 14  1  0
 12 14  1  0
 13 15  1  0
 15 16  1  0
 16 17  1  6
 16 18  1  0
 18 19  1  6
 18 20  1  0
 19 21  1  0
 20 22  1  0
 21 23  1  1
 21 24  1  0
 22 24  1  0
M  END
