ucsf403-ucsf013
     RDKit          3D

 26 28  0  0  0  0  0  0  0  0999 V2000
    0.7030    9.0120   -7.7070 Cl  0  0  0  0  0  0  0  0  0  0  0  0
   -0.7250    9.7930   -6.9240 C   0  0  2  0  0  0  0  0  0  0  0  0
   -0.3790   10.5840   -5.6390 C   0  0  1  0  0  0  0  0  0  0  0  0
   -1.7710    8.7180   -6.6450 C   0  0  0  0  0  0  0  0  0  0  0  0
    0.6700   11.5230   -5.9310 O   0  0  0  0  0  0  0  0  0  0  0  0
   -1.6580   11.2610   -5.0690 C   0  0  1  0  0  0  0  0  0  0  0  0
   -3.0720    9.3600   -6.2120 C   0  0  0  0  0  0  0  0  0  0  0  0
   -1.9680   12.7100   -5.5400 C   0  0  0  0  0  0  0  0  0  0  0  0
    1.0420   12.5010   -4.9120 C   0  0  0  0  0  0  0  0  0  0  0  0
   -2.8930   10.3270   -5.0330 C   0  0  0  0  0  0  0  0  0  0  0  0
    0.6140   12.1410   -3.4510 C   0  0  2  0  0  0  0  0  0  0  0  0
   -2.2470   13.8540   -4.5410 C   0  0  0  0  0  0  0  0  0  0  0  0
    1.6200   12.3490   -2.6310 O   0  0  0  0  0  0  0  0  0  0  0  0
    0.4180   10.7530   -3.2530 O   0  0  0  0  0  0  0  0  0  0  0  0
   -3.7250   14.2380   -4.3040 C   0  0  0  0  0  0  0  0  0  0  0  0
   -4.1410   14.2770   -2.8150 C   0  0  2  0  0  0  0  0  0  0  0  0
   -5.6120   14.6570   -2.5290 C   0  0  0  0  0  0  0  0  0  0  0  0
   -3.2000   15.1630   -2.0420 C   0  0  0  0  0  0  0  0  0  0  0  0
   -5.9190   15.3440   -1.1670 C   0  0  2  0  0  0  0  0  0  0  0  0
   -3.4270   14.9210   -0.5730 C   0  0  0  0  0  0  0  0  0  0  0  0
   -4.7780   15.4670   -0.1340 C   0  0  2  0  0  0  0  0  0  0  0  0
   -7.2030   14.8510   -0.6300 N   0  0  0  0  0  0  0  0  0  0  0  0
   -5.1080   15.0770    1.3050 C   0  0  2  0  0  0  0  0  0  0  0  0
   -7.0630   13.9160    0.4530 C   0  0  0  0  0  0  0  0  0  0  0  0
   -4.1970   14.1240    1.8410 N   0  0  0  0  0  0  0  0  0  0  0  0
   -6.4390   14.5750    1.5650 N   0  0  0  0  0  0  0  0  0  0  0  0
  2  1  1  1
  2  3  1  0
  2  4  1  0
  3  5  1  6
  3  6  1  0
  4  7  1  0
  6  8  1  6
  5  9  1  0
  6 10  1  0
  7 10  1  0
  9 11  1  0
  8 12  1  0
 11 13  1  1
 11 14  1  0
 12 15  1  0
 16 15  1  6
 16 17  1  0
 16 18  1  0
 19 17  1  6
 18 20  1  0
 19 21  1  0
 21 20  1  6
 19 22  1  0
 21 23  1  0
 22 24  1  0
 23 25  1  6
 23 26  1  0
 24 26  1  0
M  CHG  1  13  -1
M  END
