ucsf367-ucsf442
     RDKit          3D

 24 26  0  0  0  0  0  0  0  0999 V2000
    0.6010   10.8550   -2.9630 O   0  0  0  0  0  0  0  0  0  0  0  0
    1.1490   12.0440   -3.1810 C   0  0  2  0  0  0  0  0  0  0  0  0
    0.6200   12.9000   -2.1490 O   0  0  0  0  0  0  0  0  0  0  0  0
    0.6740   12.6150   -4.5650 C   0  0  0  0  0  0  0  0  0  0  0  0
    0.6990   11.6010   -5.6070 O   0  0  0  0  0  0  0  0  0  0  0  0
    1.4740   13.9830   -1.7710 C   0  0  0  0  0  0  0  0  0  0  0  0
    0.7750   14.8600   -0.7200 C   0  0  0  0  0  0  0  0  0  0  0  0
   -0.3570   10.6390   -5.5370 C   0  0  0  0  0  0  0  0  0  0  0  0
   -0.0410   14.1110    0.1920 O   0  0  0  0  0  0  0  0  0  0  0  0
   -0.4160    9.8730   -6.8630 C   0  0  0  0  0  0  0  0  0  0  0  0
   -1.7060   11.3010   -5.2470 C   0  0  0  0  0  0  0  0  0  0  0  0
   -1.4660    8.7770   -6.7770 C   0  0  0  0  0  0  0  0  0  0  0  0
   -2.8310   10.2810   -5.1880 C   0  0  0  0  0  0  0  0  0  0  0  0
   -1.4360   14.2410    0.0540 C   0  0  1  0  0  0  0  0  0  0  0  0
   -2.8410    9.3350   -6.3940 C   0  0  0  0  0  0  0  0  0  0  0  0
   -2.1610   14.9470    1.0960 N   0  0  0  0  0  0  0  0  0  0  0  0
   -1.7260   14.8400   -1.2230 N   0  0  0  0  0  0  0  0  0  0  0  0
   -3.5480   14.6740    0.8460 C   0  0  2  0  0  0  0  0  0  0  0  0
   -3.1570   14.7410   -1.5450 C   0  0  2  0  0  0  0  0  0  0  0  0
   -3.3770   15.4620   -2.7510 O   0  0  0  0  0  0  0  0  0  0  0  0
   -4.0630   15.2850   -0.4290 C   0  0  1  0  0  0  0  0  0  0  0  0
   -4.4740   15.2730    1.7510 N   0  0  0  0  0  0  0  0  0  0  0  0
   -5.4990   14.9230   -0.3390 N   0  0  0  0  0  0  0  0  0  0  0  0
   -5.6650   14.7120    1.1150 C   0  0  0  0  0  0  0  0  0  0  0  0
  2  1  1  1
  2  3  1  0
  2  4  1  0
  4  5  1  0
  3  6  1  0
  6  7  1  0
  5  8  1  0
  7  9  1  0
  8 10  1  0
  8 11  1  0
 10 12  1  0
 11 13  1  0
 14  9  1  1
 12 15  1  0
 13 15  1  0
 14 16  1  0
 14 17  1  0
 18 16  1  1
 17 19  1  0
 19 20  1  6
 18 21  1  0
 19 21  1  0
 18 22  1  0
 21 23  1  6
 22 24  1  0
 23 24  1  0
M  CHG  1   1  -1
M  END
