ucsf028-ucsf110
     RDKit          3D

 18 20  0  0  0  0  0  0  0  0999 V2000
   -4.5420   15.3010    1.1090 N   0  0  0  0  0  0  0  0  0  0  0  0
   -3.5410   14.8020    0.1700 C   0  0  2  0  0  0  0  0  0  0  0  0
   -2.1300   15.3320    0.4710 C   0  0  2  0  0  0  0  0  0  0  0  0
   -4.0700   15.1570   -1.1220 N   0  0  0  0  0  0  0  0  0  0  0  0
   -3.0940   15.4430   -2.1690 C   0  0  0  0  0  0  0  0  0  0  0  0
   -1.2020   15.2470   -0.7550 C   0  0  2  0  0  0  0  0  0  0  0  0
   -1.4430   14.6080    1.5400 N   0  0  0  0  0  0  0  0  0  0  0  0
   -1.8340   14.7350   -1.9640 N   0  0  0  0  0  0  0  0  0  0  0  0
   -0.1070   14.3960   -0.3330 N   0  0  0  0  0  0  0  0  0  0  0  0
   -0.0870   14.4280    1.1060 C   0  0  0  0  0  0  0  0  0  0  0  0
   -0.9930   14.8510   -3.1710 C   0  0  0  0  0  0  0  0  0  0  0  0
   -0.3110   13.5720   -3.7040 C   0  0  2  0  0  0  0  0  0  0  0  0
   -1.1300   12.7030   -4.6310 C   0  0  0  0  0  0  0  0  0  0  0  0
    0.0550   12.6990   -2.6190 O   0  0  0  0  0  0  0  0  0  0  0  0
    0.1910   11.3650   -3.1920 N   0  0  0  0  0  0  0  0  0  0  0  0
   -0.9200   11.2840   -4.1250 C   0  0  2  0  0  0  0  0  0  0  0  0
   -0.6550   10.3910   -5.2020 O   0  0  0  0  0  0  0  0  0  0  0  0
   -0.2120   11.0200   -6.4040 C   0  0  0  0  0  0  0  0  0  0  0  0
  2  1  1  1
  2  3  1  0
  2  4  1  0
  4  5  1  0
  3  6  1  0
  3  7  1  1
  5  8  1  0
  6  8  1  0
  6  9  1  1
  7 10  1  0
  9 10  1  0
  8 11  1  0
 12 11  1  1
 12 13  1  0
 12 14  1  0
 14 15  1  0
 13 16  1  0
 15 16  1  0
 16 17  1  6
 17 18  1  0
M  END
