ucsf367-ucsf243
     RDKit          3D

 23 24  0  0  0  0  0  0  0  0999 V2000
    0.7280   11.0600   -2.9340 O   0  0  0  0  0  0  0  0  0  0  0  0
    1.4160   12.0850   -3.4460 C   0  0  2  0  0  0  0  0  0  0  0  0
    1.4730   13.0810   -2.4270 O   0  0  0  0  0  0  0  0  0  0  0  0
    0.6850   12.6240   -4.7280 C   0  0  0  0  0  0  0  0  0  0  0  0
    0.6510   11.6170   -5.7680 O   0  0  0  0  0  0  0  0  0  0  0  0
    1.7150   14.3670   -2.9900 C   0  0  0  0  0  0  0  0  0  0  0  0
    0.4710   15.0310   -3.1900 O   0  0  0  0  0  0  0  0  0  0  0  0
   -0.3860   10.6460   -5.6050 C   0  0  0  0  0  0  0  0  0  0  0  0
   -0.1990   15.1610   -1.9310 C   0  0  2  0  0  0  0  0  0  0  0  0
   -0.4840    9.8230   -6.8940 C   0  0  0  0  0  0  0  0  0  0  0  0
   -1.7420   11.2840   -5.3220 C   0  0  0  0  0  0  0  0  0  0  0  0
    0.4870   14.4710   -1.0360 O   0  0  0  0  0  0  0  0  0  0  0  0
   -1.5240    8.7070   -6.7850 C   0  0  0  0  0  0  0  0  0  0  0  0
   -2.8370   10.2230   -5.2110 C   0  0  0  0  0  0  0  0  0  0  0  0
   -1.6370   14.5680   -2.0050 C   0  0  1  0  0  0  0  0  0  0  0  0
   -2.8940    9.2420   -6.3860 C   0  0  0  0  0  0  0  0  0  0  0  0
   -2.3400   14.5180   -0.6310 C   0  0  0  0  0  0  0  0  0  0  0  0
   -2.5540   15.1870   -3.0880 C   0  0  1  0  0  0  0  0  0  0  0  0
   -2.1930   14.7720   -4.4070 O   0  0  0  0  0  0  0  0  0  0  0  0
   -3.4370   15.5730   -0.5050 C   0  0  2  0  0  0  0  0  0  0  0  0
   -4.0240   14.8340   -2.8560 C   0  0  0  0  0  0  0  0  0  0  0  0
   -3.9600   15.6910    0.9250 C   0  0  0  0  0  0  0  0  0  0  0  0
   -4.5640   15.3000   -1.5040 C   0  0  0  0  0  0  0  0  0  0  0  0
  2  1  1  1
  2  3  1  0
  2  4  1  0
  4  5  1  0
  3  6  1  0
  6  7  1  0
  5  8  1  0
  7  9  1  0
  8 10  1  0
  8 11  1  0
  9 12  1  1
 10 13  1  0
 11 14  1  0
  9 15  1  0
 13 16  1  0
 14 16  1  0
 15 17  1  1
 15 18  1  0
 18 19  1  6
 17 20  1  0
 18 21  1  0
 20 22  1  1
 20 23  1  0
 21 23  1  0
M  CHG  2   1  -1  12  -1
M  END
