ucsf278-ucsf039
     RDKit          3D

 27 31  0  0  0  0  0  0  0  0999 V2000
   -2.5680   10.2730   -5.7390 O   0  0  0  0  0  0  0  0  0  0  0  0
   -1.4790   10.9650   -6.3410 C   0  0  0  0  0  0  0  0  0  0  0  0
   -0.5120   11.5020   -5.2780 C   0  0  2  0  0  0  0  0  0  0  0  0
   -1.2100   12.2150   -4.1080 C   0  0  0  0  0  0  0  0  0  0  0  0
    0.4880   12.4590   -5.7930 N   0  0  0  0  0  0  0  0  0  0  0  0
   -0.4320   13.5020   -3.9270 C   0  0  2  0  0  0  0  0  0  0  0  0
    0.8740   13.1650   -4.5830 C   0  0  2  0  0  0  0  0  0  0  0  0
   -0.2110   13.9830   -2.4930 C   0  0  1  0  0  0  0  0  0  0  0  0
    1.6900   14.4000   -4.8130 C   0  0  0  0  0  0  0  0  0  0  0  0
    1.1740   14.6620   -2.3760 C   0  0  0  0  0  0  0  0  0  0  0  0
    1.5280   15.4060   -3.6700 C   0  0  2  0  0  0  0  0  0  0  0  0
   -1.3130   14.7680   -1.9070 N   0  0  0  0  0  0  0  0  0  0  0  0
   -2.7010   14.5590   -2.3540 C   0  0  0  0  0  0  0  0  0  0  0  0
   -1.2310   14.3820   -0.5420 C   0  0  2  0  0  0  0  0  0  0  0  0
    0.6000   16.6200   -3.9850 C   0  0  2  0  0  0  0  0  0  0  0  0
   -3.6640   15.2520   -1.4600 N   0  0  0  0  0  0  0  0  0  0  0  0
   -2.0510   15.2490    0.3400 C   0  0  1  0  0  0  0  0  0  0  0  0
    0.0730   14.6370    0.0180 N   0  0  0  0  0  0  0  0  0  0  0  0
   -0.8870   16.2430   -4.1210 C   0  0  0  0  0  0  0  0  0  0  0  0
    0.9460   17.6080   -5.4720 S   0  0  0  0  0  0  0  0  0  0  0  0
   -3.4820   14.9240   -0.0530 C   0  0  1  0  0  0  0  0  0  0  0  0
   -1.5820   14.7940    1.6630 N   0  0  0  0  0  0  0  0  0  0  0  0
   -0.2210   14.3180    1.3990 C   0  0  0  0  0  0  0  0  0  0  0  0
   -1.5210   16.9310   -5.2560 N   0  0  0  0  0  0  0  0  0  0  0  0
   -0.7640   18.1460   -5.4800 C   0  0  2  0  0  0  0  0  0  0  0  0
   -4.4510   15.7290    0.6500 N   0  0  0  0  0  0  0  0  0  0  0  0
   -1.1520   18.8070   -6.7900 C   0  0  0  0  0  0  0  0  0  0  0  0
  1  2  1  0
  3  2  1  6
  3  4  1  0
  3  5  1  0
  6  4  1  1
  5  7  1  0
  6  7  1  0
  6  8  1  0
  7  9  1  6
  8 10  1  0
 11  9  1  6
 10 11  1  0
  8 12  1  6
 12 13  1  0
 12 14  1  0
 11 15  1  0
 13 16  1  0
 14 17  1  0
 14 18  1  1
 15 19  1  6
 15 20  1  0
 16 21  1  0
 17 21  1  0
 17 22  1  1
 18 23  1  0
 22 23  1  0
 19 24  1  0
 20 25  1  0
 24 25  1  0
 21 26  1  1
 25 27  1  6
M  END
