ucsf109-ucsf340
     RDKit          3D

 29 33  0  0  0  0  0  0  0  0999 V2000
   -4.2120   15.5210    2.0600 N   0  0  0  0  0  0  0  0  0  0  0  0
   -4.8810   14.5930    1.1800 C   0  0  2  0  0  0  0  0  0  0  0  0
   -4.5240   14.9680   -0.2330 C   0  0  2  0  0  0  0  0  0  0  0  0
   -6.3200   14.7740    1.3380 N   0  0  0  0  0  0  0  0  0  0  0  0
   -7.1420   14.1010    0.3780 C   0  0  2  0  0  0  0  0  0  0  0  0
   -5.4760   14.2690   -1.2050 C   0  0  1  0  0  0  0  0  0  0  0  0
   -3.1970   14.5440   -0.7850 C   0  0  0  0  0  0  0  0  0  0  0  0
   -6.9220   14.3650    2.5780 N   0  0  0  0  0  0  0  0  0  0  0  0
   -6.8900   14.5420   -0.9630 N   0  0  0  0  0  0  0  0  0  0  0  0
   -4.8870   14.6040   -2.5620 C   0  0  0  0  0  0  0  0  0  0  0  0
   -3.4310   15.0110   -2.2190 C   0  0  2  0  0  0  0  0  0  0  0  0
   -8.4540   14.5050    0.7990 N   0  0  0  0  0  0  0  0  0  0  0  0
   -8.3380   14.5540    2.2590 C   0  0  0  0  0  0  0  0  0  0  0  0
   -2.3750   14.5070   -3.1730 C   0  0  0  0  0  0  0  0  0  0  0  0
   -2.3060   15.5090   -4.3120 C   0  0  1  0  0  0  0  0  0  0  0  0
   -0.9030   15.6830   -4.9100 C   0  0  2  0  0  0  0  0  0  0  0  0
   -3.3390   15.3220   -5.3700 C   0  0  0  0  0  0  0  0  0  0  0  0
    0.2180   15.7840   -3.8710 C   0  0  1  0  0  0  0  0  0  0  0  0
   -0.8200   17.0150   -5.6850 C   0  0  2  0  0  0  0  0  0  0  0  0
   -3.2600   16.4740   -6.3190 C   0  0  0  0  0  0  0  0  0  0  0  0
    1.0940   14.5160   -3.7340 C   0  0  0  0  0  0  0  0  0  0  0  0
    0.0710   17.8900   -4.9820 N   0  0  0  0  0  0  0  0  0  0  0  0
    1.0190   16.9260   -4.4670 C   0  0  0  0  0  0  0  0  0  0  0  0
   -2.2030   17.5640   -6.0090 C   0  0  0  0  0  0  0  0  0  0  0  0
    0.7660   18.6810   -5.9880 C   0  0  0  0  0  0  0  0  0  0  0  0
    0.3300   13.1690   -3.8380 C   0  0  0  0  0  0  0  0  0  0  0  0
    0.3610   12.4030   -2.4930 C   0  0  2  0  0  0  0  0  0  0  0  0
    1.6550   12.5350   -1.9700 O   0  0  0  0  0  0  0  0  0  0  0  0
    0.2850   11.0990   -2.6700 O   0  0  0  0  0  0  0  0  0  0  0  0
  2  1  1  1
  2  3  1  0
  2  4  1  0
  4  5  1  0
  3  6  1  0
  3  7  1  6
  4  8  1  0
  5  9  1  6
  6  9  1  0
  6 10  1  6
  7 11  1  0
 10 11  1  0
  5 12  1  0
  8 13  1  0
 12 13  1  0
 11 14  1  6
 15 14  1  1
 16 15  1  1
 15 17  1  0
 16 18  1  0
 16 19  1  0
 17 20  1  0
 18 21  1  6
 19 22  1  0
 18 23  1  0
 22 23  1  0
 19 24  1  1
 20 24  1  0
 22 25  1  0
 21 26  1  0
 26 27  1  0
 27 28  1  6
 27 29  1  0
M  CHG  1  29  -1
M  END
