ucsf371-ucsf378
     RDKit          3D

 19 20  0  0  0  0  0  0  0  0999 V2000
   -5.1490   14.8840    0.7590 C   0  0  0  0  0  0  0  0  0  0  0  0
   -4.5790   15.4420   -0.5350 C   0  0  2  0  0  0  0  0  0  0  0  0
   -4.8610   14.5940   -1.6760 N   0  0  0  0  0  0  0  0  0  0  0  0
   -2.7980   15.6400   -0.4120 S   0  0  0  0  0  0  0  0  0  0  0  0
   -3.9220   14.9540   -2.7660 C   0  0  0  0  0  0  0  0  0  0  0  0
   -2.5880   15.4370   -2.2140 C   0  0  2  0  0  0  0  0  0  0  0  0
   -1.3330   14.6610   -2.6330 C   0  0  2  0  0  0  0  0  0  0  0  0
   -0.3160   15.1720   -1.9550 O   0  0  0  0  0  0  0  0  0  0  0  0
   -0.8630   14.4830   -4.1190 C   0  0  2  0  0  0  0  0  0  0  0  0
    0.2730   13.4560   -4.4440 C   0  0  2  0  0  0  0  0  0  0  0  0
   -0.5190   15.8940   -4.6410 C   0  0  0  0  0  0  0  0  0  0  0  0
   -0.0170   12.0290   -3.9330 C   0  0  0  0  0  0  0  0  0  0  0  0
    1.5890   14.0020   -3.9100 C   0  0  1  0  0  0  0  0  0  0  0  0
    0.7100   16.4210   -3.9600 C   0  0  0  0  0  0  0  0  0  0  0  0
    2.9790   13.0100   -4.5290 Cl  0  0  0  0  0  0  0  0  0  0  0  0
    0.6660   11.4890   -2.6390 C   0  0  1  0  0  0  0  0  0  0  0  0
    1.8310   15.4620   -4.2590 C   0  0  0  0  0  0  0  0  0  0  0  0
    0.3660   12.1020   -1.5080 O   0  0  0  0  0  0  0  0  0  0  0  0
    0.2900   10.1440   -2.4330 O   0  0  0  0  0  0  0  0  0  0  0  0
  2  1  1  1
  2  3  1  0
  2  4  1  0
  3  5  1  0
  4  6  1  0
  6  5  1  1
  6  7  1  0
  7  8  1  1
  7  9  1  0
  9 10  1  0
  9 11  1  1
 10 12  1  1
 10 13  1  0
 11 14  1  0
 13 15  1  6
 12 16  1  0
 13 17  1  0
 14 17  1  0
 16 18  1  1
 16 19  1  0
M  CHG  2   8  -1  18  -1
M  END
