ucsf333-ucsf124
     RDKit          3D

 26 29  0  0  0  0  0  0  0  0999 V2000
   -6.2570   15.5270   -1.3430 Cl  0  0  0  0  0  0  0  0  0  0  0  0
   -4.6020   14.8620   -1.2450 C   0  0  1  0  0  0  0  0  0  0  0  0
   -3.7720   15.2460   -2.4440 C   0  0  0  0  0  0  0  0  0  0  0  0
   -3.8970   15.3070    0.0350 C   0  0  0  0  0  0  0  0  0  0  0  0
   -2.4990   14.3950   -2.4700 C   0  0  1  0  0  0  0  0  0  0  0  0
   -2.4670   14.7490    0.1830 C   0  0  0  0  0  0  0  0  0  0  0  0
   -1.5710   14.9430   -3.4820 N   0  0  0  0  0  0  0  0  0  0  0  0
   -1.8340   14.1330   -1.0910 C   0  0  2  0  0  0  0  0  0  0  0  0
   -0.1450   14.9040   -3.0980 C   0  0  1  0  0  0  0  0  0  0  0  0
   -0.0840   14.5910   -1.2760 S   0  0  0  0  0  0  0  0  0  0  0  0
    0.8220   13.9810   -3.9060 C   0  0  0  0  0  0  0  0  0  0  0  0
    0.6860   12.4070   -3.9280 C   0  0  1  0  0  0  0  0  0  0  0  0
    0.2320   11.7190   -2.5510 C   0  0  2  0  0  0  0  0  0  0  0  0
   -0.0970   11.9730   -5.1620 N   0  0  0  0  0  0  0  0  0  0  0  0
    0.9090   12.1350   -1.5130 O   0  0  0  0  0  0  0  0  0  0  0  0
    0.4940   10.3310   -2.5270 O   0  0  0  0  0  0  0  0  0  0  0  0
   -0.9240   10.7950   -4.9630 C   0  0  1  0  0  0  0  0  0  0  0  0
    0.4520   11.8990   -6.5420 C   0  0  1  0  0  0  0  0  0  0  0  0
   -1.9900   11.1060   -4.0990 O   0  0  0  0  0  0  0  0  0  0  0  0
    1.8370   11.7410   -6.6790 O   0  0  0  0  0  0  0  0  0  0  0  0
   -1.4750   10.4130   -6.3360 C   0  0  1  0  0  0  0  0  0  0  0  0
   -0.3690   10.8230   -7.3210 C   0  0  2  0  0  0  0  0  0  0  0  0
   -1.9310    8.9580   -6.4930 C   0  0  0  0  0  0  0  0  0  0  0  0
    0.3310    9.6150   -7.9750 C   0  0  0  0  0  0  0  0  0  0  0  0
   -1.9600    8.4670   -7.9350 C   0  0  0  0  0  0  0  0  0  0  0  0
   -0.6390    8.6720   -8.6850 C   0  0  0  0  0  0  0  0  0  0  0  0
  2  1  1  6
  2  3  1  0
  2  4  1  0
  5  3  1  1
  4  6  1  0
  5  7  1  0
  5  8  1  0
  8  6  1  1
  7  9  1  0
  8 10  1  0
  9 10  1  0
  9 11  1  6
 12 11  1  1
 12 13  1  0
 12 14  1  0
 13 15  1  1
 13 16  1  0
 14 17  1  0
 14 18  1  0
 17 19  1  1
 18 20  1  1
 17 21  1  0
 18 22  1  0
 21 22  1  0
 21 23  1  1
 22 24  1  1
 23 25  1  0
 24 26  1  0
 25 26  1  0
M  CHG  1  15  -1
M  END
