ucsf005-ucsf320
     RDKit          3D

 14 15  0  0  0  0  0  0  0  0999 V2000
   -1.5890   14.7880   -3.6240 C   0  0  0  0  0  0  0  0  0  0  0  0
   -2.3150   15.1170   -2.4080 N   0  0  0  0  0  0  0  0  0  0  0  0
   -3.7840   15.1050   -2.5380 C   0  0  0  0  0  0  0  0  0  0  0  0
   -2.0220   14.3520   -1.2080 C   0  0  2  0  0  0  0  0  0  0  0  0
   -4.2760   15.4180   -1.1780 N   0  0  0  0  0  0  0  0  0  0  0  0
   -3.4180   14.4580   -0.4450 C   0  0  2  0  0  0  0  0  0  0  0  0
   -0.9230   14.8720   -0.4440 N   0  0  0  0  0  0  0  0  0  0  0  0
   -1.6190   13.1430   -1.5170 O   0  0  0  0  0  0  0  0  0  0  0  0
   -5.6780   14.9970   -0.9900 O   0  0  0  0  0  0  0  0  0  0  0  0
   -3.2800   14.5350    1.0990 C   0  0  2  0  0  0  0  0  0  0  0  0
   -0.9730   14.3290    0.8560 C   0  0  1  0  0  0  0  0  0  0  0  0
   -4.2920   15.4000    1.7050 N   0  0  0  0  0  0  0  0  0  0  0  0
    0.2400   14.6870    1.4770 N   0  0  0  0  0  0  0  0  0  0  0  0
   -1.9870   15.0300    1.5680 N   0  0  0  0  0  0  0  0  0  0  0  0
  1  2  1  0
  2  3  1  0
  2  4  1  0
  3  5  1  0
  4  6  1  0
  6  5  1  6
  4  7  1  0
  4  8  1  6
  5  9  1  0
  6 10  1  0
  7 11  1  0
 10 12  1  6
 11 13  1  1
 10 14  1  0
 11 14  1  0
M  CHG  1   8  -1
M  END
