ucsf005-ucsf135
     RDKit          3D

 25 28  0  0  0  0  0  0  0  0999 V2000
   -0.7790   14.6850   -3.2000 C   0  0  0  0  0  0  0  0  0  0  0  0
   -2.0090   14.9070   -2.4590 N   0  0  0  0  0  0  0  0  0  0  0  0
   -3.1840   14.1480   -2.8870 C   0  0  1  0  0  0  0  0  0  0  0  0
   -1.9590   14.3810   -1.1120 C   0  0  2  0  0  0  0  0  0  0  0  0
   -3.0000   12.6200   -3.2440 C   0  0  0  0  0  0  0  0  0  0  0  0
   -4.1370   14.3570   -1.7410 N   0  0  0  0  0  0  0  0  0  0  0  0
   -3.3040   14.9290   -0.6660 C   0  0  1  0  0  0  0  0  0  0  0  0
   -0.7860   14.7760   -0.3830 N   0  0  0  0  0  0  0  0  0  0  0  0
   -2.0580   12.3650   -4.3310 O   0  0  0  0  0  0  0  0  0  0  0  0
   -3.4600   14.4950    0.7930 C   0  0  2  0  0  0  0  0  0  0  0  0
   -1.0110   15.0060    1.0100 C   0  0  2  0  0  0  0  0  0  0  0  0
   -4.4150   15.3070    1.5240 N   0  0  0  0  0  0  0  0  0  0  0  0
   -0.0500   14.2100    1.6910 N   0  0  0  0  0  0  0  0  0  0  0  0
   -2.2460   14.5370    1.5790 N   0  0  0  0  0  0  0  0  0  0  0  0
   -0.7780   11.3610   -4.2660 S   0  0  2  0  0  0  0  0  0  0  0  0
   -0.6330   10.5660   -2.8900 O   0  0  0  0  0  0  0  0  0  0  0  0
    0.6670   11.9330   -4.8850 N   0  0  0  0  0  0  0  0  0  0  0  0
   -0.9840   10.0710   -5.4730 C   0  0  2  0  0  0  0  0  0  0  0  0
    0.7580   11.6240   -6.3250 C   0  0  1  0  0  0  0  0  0  0  0  0
   -0.4970   10.7870   -6.7330 C   0  0  1  0  0  0  0  0  0  0  0  0
   -2.2940    9.3550   -5.6730 C   0  0  0  0  0  0  0  0  0  0  0  0
    0.7500   12.8490   -6.9560 O   0  0  0  0  0  0  0  0  0  0  0  0
   -2.2470    8.3970   -6.8670 C   0  0  0  0  0  0  0  0  0  0  0  0
   -0.2580    9.7410   -7.8250 C   0  0  0  0  0  0  0  0  0  0  0  0
   -1.5480    8.9620   -8.1170 C   0  0  0  0  0  0  0  0  0  0  0  0
  1  2  1  0
  2  3  1  0
  2  4  1  0
  3  5  1  1
  3  6  1  0
  4  7  1  0
  7  6  1  6
  4  8  1  1
  5  9  1  0
  7 10  1  0
  8 11  1  0
 10 12  1  1
 11 13  1  1
 10 14  1  0
 11 14  1  0
 15  9  1  0
 15 16  1  1
 15 17  1  0
 15 18  1  0
 17 19  1  0
 18 20  1  0
 19 20  1  0
 18 21  1  6
 19 22  1  6
 21 23  1  0
 20 24  1  6
 23 25  1  0
 24 25  1  0
M  END
