ucsf519-ucsf005
     RDKit          3D

 21 22  0  0  0  0  0  0  0  0999 V2000
   -0.5460   15.8790   -4.7140 C   0  0  0  0  0  0  0  0  0  0  0  0
   -0.7630   14.4910   -4.0710 C   0  0  2  0  0  0  0  0  0  0  0  0
   -0.0990   13.2480   -5.2750 S   0  0  0  0  0  0  0  0  0  0  0  0
   -2.2490   14.1990   -3.6590 C   0  0  2  0  0  0  0  0  0  0  0  0
    1.5300   12.9330   -4.5080 C   0  0  0  0  0  0  0  0  0  0  0  0
   -3.0340   15.3800   -3.8010 O   0  0  0  0  0  0  0  0  0  0  0  0
   -2.3790   13.5830   -2.3130 N   0  0  0  0  0  0  0  0  0  0  0  0
    1.5440   12.1510   -3.1610 C   0  0  1  0  0  0  0  0  0  0  0  0
   -1.9600   14.4080   -1.2040 C   0  0  1  0  0  0  0  0  0  0  0  0
   -3.7280   13.1430   -2.0080 C   0  0  0  0  0  0  0  0  0  0  0  0
    1.1900   13.0220   -2.1210 O   0  0  0  0  0  0  0  0  0  0  0  0
    0.6670   11.1670   -3.0290 O   0  0  0  0  0  0  0  0  0  0  0  0
   -0.9880   15.3250   -1.5710 O   0  0  0  0  0  0  0  0  0  0  0  0
   -4.3760   14.4320   -1.5250 C   0  0  0  0  0  0  0  0  0  0  0  0
   -3.2850   14.9940   -0.6240 C   0  0  1  0  0  0  0  0  0  0  0  0
   -1.2990   13.6380   -0.2100 N   0  0  0  0  0  0  0  0  0  0  0  0
   -3.3440   14.6350    0.8580 C   0  0  2  0  0  0  0  0  0  0  0  0
   -0.9430   14.5470    0.8230 C   0  0  2  0  0  0  0  0  0  0  0  0
   -4.3670   15.3680    1.5810 N   0  0  0  0  0  0  0  0  0  0  0  0
   -0.1460   13.8010    1.7280 N   0  0  0  0  0  0  0  0  0  0  0  0
   -2.1200   14.8910    1.5640 N   0  0  0  0  0  0  0  0  0  0  0  0
  2  1  1  6
  2  3  1  0
  2  4  1  0
  3  5  1  0
  4  6  1  1
  4  7  1  0
  5  8  1  0
  7  9  1  0
  7 10  1  0
  8 11  1  1
  8 12  1  0
  9 13  1  6
 10 14  1  0
  9 15  1  0
 15 14  1  6
  9 16  1  0
 15 17  1  0
 16 18  1  0
 17 19  1  1
 18 20  1  1
 17 21  1  0
 18 21  1  0
M  CHG  1  12  -1
M  END
