ucsf169-ucsf396
     RDKit          3D

 23 24  0  0  0  0  0  0  0  0999 V2000
    1.2230   18.4190   -5.7810 C   0  0  0  0  0  0  0  0  0  0  0  0
    0.4610   17.9760   -4.6920 O   0  0  0  0  0  0  0  0  0  0  0  0
   -0.2710   16.7780   -4.9800 C   0  0  2  0  0  0  0  0  0  0  0  0
   -1.4690   16.7210   -4.0650 C   0  0  1  0  0  0  0  0  0  0  0  0
    0.6520   15.5810   -4.7180 C   0  0  0  0  0  0  0  0  0  0  0  0
   -2.6020   17.3640   -4.6350 O   0  0  0  0  0  0  0  0  0  0  0  0
   -1.7630   15.3190   -3.5090 C   0  0  1  0  0  0  0  0  0  0  0  0
   -0.0220   14.2050   -4.9640 C   0  0  1  0  0  0  0  0  0  0  0  0
    0.7600   13.0880   -4.2010 C   0  0  0  0  0  0  0  0  0  0  0  0
   -3.0620   15.1860   -2.6430 C   0  0  0  0  0  0  0  0  0  0  0  0
   -1.5250   14.2810   -4.6060 C   0  0  0  0  0  0  0  0  0  0  0  0
    0.2550   12.6020   -2.8100 C   0  0  2  0  0  0  0  0  0  0  0  0
   -2.8360   14.7470   -1.2460 N   0  0  0  0  0  0  0  0  0  0  0  0
    1.1600   13.0090   -1.8140 O   0  0  0  0  0  0  0  0  0  0  0  0
    0.2730   11.2910   -2.6720 O   0  0  0  0  0  0  0  0  0  0  0  0
   -3.7000   15.2240   -0.1800 C   0  0  2  0  0  0  0  0  0  0  0  0
   -3.0200   14.9250    1.0300 O   0  0  0  0  0  0  0  0  0  0  0  0
   -5.1250   14.6220   -0.1360 C   0  0  2  0  0  0  0  0  0  0  0  0
   -6.0660   15.4600   -1.0220 C   0  0  0  0  0  0  0  0  0  0  0  0
   -5.6360   14.4660    1.3020 C   0  0  0  0  0  0  0  0  0  0  0  0
   -7.5030   15.1280   -0.8980 N   0  0  0  0  0  0  0  0  0  0  0  0
   -7.1530   14.3470    1.4120 C   0  0  0  0  0  0  0  0  0  0  0  0
   -7.7690   14.0630    0.0570 C   0  0  0  0  0  0  0  0  0  0  0  0
  1  2  1  0
  3  2  1  1
  3  4  1  0
  3  5  1  0
  4  6  1  6
  4  7  1  0
  5  8  1  0
  8  9  1  1
  7 10  1  6
  7 11  1  0
  8 11  1  0
  9 12  1  0
 10 13  1  0
 12 14  1  1
 12 15  1  0
 13 16  1  0
 16 17  1  1
 16 18  1  0
 18 19  1  6
 18 20  1  0
 19 21  1  0
 20 22  1  0
 21 23  1  0
 22 23  1  0
M  CHG  1  15  -1
M  END
