ucsf378-ucsf338
     RDKit          3D

 26 27  0  0  0  0  0  0  0  0999 V2000
   -2.1630   13.7000   -5.2670 Cl  0  0  0  0  0  0  0  0  0  0  0  0
   -0.8930   14.0240   -4.0460 C   0  0  1  0  0  0  0  0  0  0  0  0
    0.3820   13.2490   -4.3520 C   0  0  2  0  0  0  0  0  0  0  0  0
   -0.7220   15.5400   -3.8340 C   0  0  2  0  0  0  0  0  0  0  0  0
    0.2830   11.7790   -3.8790 C   0  0  0  0  0  0  0  0  0  0  0  0
   -1.9550   16.3500   -4.2670 C   0  0  0  0  0  0  0  0  0  0  0  0
    1.6190   13.8540   -3.6960 C   0  0  1  0  0  0  0  0  0  0  0  0
    0.5770   16.0450   -4.5080 C   0  0  0  0  0  0  0  0  0  0  0  0
    3.0540   12.9200   -4.2010 Cl  0  0  0  0  0  0  0  0  0  0  0  0
   -0.3050   11.4480   -2.4790 C   0  0  2  0  0  0  0  0  0  0  0  0
   -3.3160   15.6790   -4.0000 C   0  0  0  0  0  0  0  0  0  0  0  0
    1.8170   15.3160   -4.0150 C   0  0  0  0  0  0  0  0  0  0  0  0
    0.3830   11.9850   -1.4870 O   0  0  0  0  0  0  0  0  0  0  0  0
   -0.0050   10.0970   -2.2740 O   0  0  0  0  0  0  0  0  0  0  0  0
   -3.3030   14.3600   -3.2180 C   0  0  0  0  0  0  0  0  0  0  0  0
   -4.3400   14.3000   -2.2430 O   0  0  0  0  0  0  0  0  0  0  0  0
   -4.2270   15.3300   -1.2720 C   0  0  1  0  0  0  0  0  0  0  0  0
   -5.2620   15.1690   -0.1320 C   0  0  1  0  0  0  0  0  0  0  0  0
   -2.7760   15.3700   -0.7770 C   0  0  0  0  0  0  0  0  0  0  0  0
   -6.6020   14.5000   -0.5450 C   0  0  1  0  0  0  0  0  0  0  0  0
   -2.6850   15.8550    0.6450 C   0  0  0  0  0  0  0  0  0  0  0  0
   -4.7690   14.6260    1.2260 C   0  0  0  0  0  0  0  0  0  0  0  0
   -7.7030   14.5530    0.4120 N   0  0  0  0  0  0  0  0  0  0  0  0
   -7.0750   14.9850   -1.7800 O   0  0  0  0  0  0  0  0  0  0  0  0
   -3.2980   14.8480    1.5610 C   0  0  0  0  0  0  0  0  0  0  0  0
   -8.9030   14.0230   -0.2020 O   0  0  0  0  0  0  0  0  0  0  0  0
  2  1  1  6
  2  3  1  0
  2  4  1  0
  3  5  1  1
  4  6  1  6
  3  7  1  0
  4  8  1  0
  7  9  1  6
  5 10  1  0
  6 11  1  0
  7 12  1  0
  8 12  1  0
 10 13  1  1
 10 14  1  0
 11 15  1  0
 15 16  1  0
 17 16  1  6
 17 18  1  0
 17 19  1  0
 18 20  1  0
 19 21  1  0
 18 22  1  1
 20 23  1  0
 20 24  1  6
 21 25  1  0
 22 25  1  0
 23 26  1  0
M  CHG  1  13  -1
M  END
