ucsf004-ucsf511
     RDKit          3D

 25 29  0  0  0  0  0  0  0  0999 V2000
   -2.2750   12.1430   -4.7970 F   0  0  0  0  0  0  0  0  0  0  0  0
   -2.5270   13.4630   -4.5650 C   0  0  2  0  0  0  0  0  0  0  0  0
   -1.4030   14.2440   -5.2670 C   0  0  0  0  0  0  0  0  0  0  0  0
   -2.7110   13.7510   -3.0380 C   0  0  1  0  0  0  0  0  0  0  0  0
   -1.2680   13.4720   -2.3740 C   0  0  1  0  0  0  0  0  0  0  0  0
   -0.3630   14.9260   -4.3960 C   0  0  0  0  0  0  0  0  0  0  0  0
   -3.4140   15.1820   -2.8750 C   0  0  0  0  0  0  0  0  0  0  0  0
   -3.5320   12.6530   -2.2110 C   0  0  1  0  0  0  0  0  0  0  0  0
   -0.0540   14.1750   -3.1000 C   0  0  1  0  0  0  0  0  0  0  0  0
   -1.2490   13.8510   -0.8340 C   0  0  1  0  0  0  0  0  0  0  0  0
   -4.9230   15.2210   -2.5210 C   0  0  0  0  0  0  0  0  0  0  0  0
   -4.9590   12.9590   -1.6500 C   0  0  0  0  0  0  0  0  0  0  0  0
   -3.3720   11.2630   -2.8100 C   0  0  0  0  0  0  0  0  0  0  0  0
   -1.0470   11.8860   -2.4070 C   0  0  0  0  0  0  0  0  0  0  0  0
    0.6910   15.0040   -2.2040 O   0  0  0  0  0  0  0  0  0  0  0  0
   -0.1660   14.7350   -0.4380 N   0  0  0  0  0  0  0  0  0  0  0  0
   -2.5890   14.3260   -0.2170 C   0  0  1  0  0  0  0  0  0  0  0  0
   -5.2830   14.3890   -1.3320 C   0  0  0  0  0  0  0  0  0  0  0  0
   -1.9990   11.0300   -3.0780 O   0  0  0  0  0  0  0  0  0  0  0  0
   -0.0580   14.7240    0.9910 C   0  0  0  0  0  0  0  0  0  0  0  0
   -2.4010   14.5110    1.2640 C   0  0  1  0  0  0  0  0  0  0  0  0
   -3.1940   15.6640   -0.5660 C   0  0  0  0  0  0  0  0  0  0  0  0
   -1.2610   15.3170    1.4810 N   0  0  0  0  0  0  0  0  0  0  0  0
   -3.5020   15.3150    1.7400 N   0  0  0  0  0  0  0  0  0  0  0  0
   -4.1960   15.8060    0.5590 C   0  0  0  0  0  0  0  0  0  0  0  0
  2  1  1  1
  2  3  1  0
  2  4  1  0
  4  5  1  0
  3  6  1  0
  4  7  1  6
  4  8  1  0
  5  9  1  0
  6  9  1  0
  5 10  1  0
  7 11  1  0
  8 12  1  6
  8 13  1  0
  5 14  1  1
  9 15  1  1
 10 16  1  6
 10 17  1  0
 11 18  1  0
 12 18  1  0
 13 19  1  0
 14 19  1  0
 16 20  1  0
 17 21  1  0
 17 22  1  6
 20 23  1  0
 21 23  1  6
 21 24  1  0
 22 25  1  0
 24 25  1  0
M  END
