ucsf039-ucsf173
     RDKit          3D

 24 27  0  0  0  0  0  0  0  0999 V2000
   -4.2590   15.6380    1.1850 N   0  0  0  0  0  0  0  0  0  0  0  0
   -3.5880   14.8700    0.1610 C   0  0  2  0  0  0  0  0  0  0  0  0
   -2.2450   14.4200    0.5120 C   0  0  1  0  0  0  0  0  0  0  0  0
   -3.6340   15.5260   -1.0970 N   0  0  0  0  0  0  0  0  0  0  0  0
   -2.8020   14.8720   -2.1290 C   0  0  0  0  0  0  0  0  0  0  0  0
   -1.1190   14.7790   -0.4390 C   0  0  2  0  0  0  0  0  0  0  0  0
   -1.5540   14.9410    1.6150 N   0  0  0  0  0  0  0  0  0  0  0  0
   -1.4400   14.6940   -1.7900 N   0  0  0  0  0  0  0  0  0  0  0  0
   -0.1730   13.8920    0.0660 N   0  0  0  0  0  0  0  0  0  0  0  0
   -0.2090   14.3470    1.4500 C   0  0  0  0  0  0  0  0  0  0  0  0
   -0.3420   15.1710   -2.3090 C   0  0  0  0  0  0  0  0  0  0  0  0
   -0.2790   15.5380   -4.1950 S   0  0  0  0  0  0  0  0  0  0  0  0
    0.9040   17.0190   -4.2150 C   0  0  0  0  0  0  0  0  0  0  0  0
   -1.2670   16.9480   -4.8940 N   0  0  0  0  0  0  0  0  0  0  0  0
   -0.7980   14.3040   -5.4590 C   0  0  0  0  0  0  0  0  0  0  0  0
    0.9650   14.2640   -4.5100 C   0  0  0  0  0  0  0  0  0  0  0  0
   -0.7810   18.1210   -5.1650 C   0  0  1  0  0  0  0  0  0  0  0  0
    0.8300   17.6360   -5.8620 S   0  0  0  0  0  0  0  0  0  0  0  0
    0.4810   12.8750   -4.3960 C   0  0  2  0  0  0  0  0  0  0  0  0
   -0.8760   13.2050   -4.5070 C   0  0  0  0  0  0  0  0  0  0  0  0
   -1.4990   18.6180   -6.4380 C   0  0  0  0  0  0  0  0  0  0  0  0
    0.9610   12.2790   -3.0430 C   0  0  1  0  0  0  0  0  0  0  0  0
    0.6610   13.0930   -1.9810 O   0  0  0  0  0  0  0  0  0  0  0  0
    0.2420   11.0950   -2.8950 O   0  0  0  0  0  0  0  0  0  0  0  0
  2  1  1  1
  2  3  1  0
  2  4  1  0
  4  5  1  0
  3  6  1  0
  3  7  1  1
  5  8  1  0
  6  8  1  0
  6  9  1  6
  7 10  1  0
  9 10  1  0
  8 11  1  0
 11 12  1  0
 12 13  1  0
 12 14  1  0
 12 15  1  0
 12 16  1  0
 14 17  1  0
 13 18  1  0
 17 18  1  0
 19 16  1  1
 15 20  1  0
 19 20  1  0
 17 21  1  6
 19 22  1  0
 22 23  1  1
 22 24  1  0
M  CHG  1  23  -1
M  END
