ucsf392-ucsf138
     RDKit          3D

 25 26  0  0  0  0  0  0  0  0999 V2000
   -5.4500   15.1310   -0.7640 C   0  0  0  0  0  0  0  0  0  0  0  0
   -3.9880   15.3950   -0.4350 C   0  0  2  0  0  0  0  0  0  0  0  0
   -3.0640   14.7980   -1.4890 C   0  0  0  0  0  0  0  0  0  0  0  0
   -3.5570   14.9250    0.9370 C   0  0  2  0  0  0  0  0  0  0  0  0
   -4.2320   15.6130    2.0030 N   0  0  0  0  0  0  0  0  0  0  0  0
   -2.1790   15.2180    1.1730 N   0  0  0  0  0  0  0  0  0  0  0  0
   -1.6460   14.8250   -1.1470 N   0  0  0  0  0  0  0  0  0  0  0  0
   -1.3100   14.5680    0.2330 C   0  0  1  0  0  0  0  0  0  0  0  0
    0.1740   14.6610    0.5110 C   0  0  0  0  0  0  0  0  0  0  0  0
    1.0040   14.7560   -0.7880 C   0  0  0  0  0  0  0  0  0  0  0  0
    1.2580   13.4570   -1.5420 C   0  0  0  0  0  0  0  0  0  0  0  0
    0.8560   13.5230   -2.8900 O   0  0  0  0  0  0  0  0  0  0  0  0
    0.3180   12.3280   -3.4190 C   0  0  2  0  0  0  0  0  0  0  0  0
    0.6600   11.1690   -2.6750 O   0  0  0  0  0  0  0  0  0  0  0  0
    0.7610   12.2650   -4.8900 C   0  0  0  0  0  0  0  0  0  0  0  0
    0.3070   11.1530   -5.7330 N   0  0  0  0  0  0  0  0  0  0  0  0
    1.0000   11.1530   -6.9670 C   0  0  2  0  0  0  0  0  0  0  0  0
    1.2910   12.4740   -7.1560 O   0  0  0  0  0  0  0  0  0  0  0  0
    0.1300   10.7270   -7.9870 N   0  0  0  0  0  0  0  0  0  0  0  0
    0.7600   10.0460   -9.1180 C   0  0  0  0  0  0  0  0  0  0  0  0
    0.0010   10.0490  -10.4410 C   0  0  0  0  0  0  0  0  0  0  0  0
    1.3680    8.6710   -8.7930 C   0  0  0  0  0  0  0  0  0  0  0  0
    0.7560    9.3850  -11.5860 C   0  0  0  0  0  0  0  0  0  0  0  0
    2.1350    8.0300   -9.9490 C   0  0  0  0  0  0  0  0  0  0  0  0
    1.2840    8.0050  -11.2120 C   0  0  0  0  0  0  0  0  0  0  0  0
  2  1  1  6
  2  3  1  0
  2  4  1  0
  4  5  1  1
  4  6  1  0
  3  7  1  0
  6  8  1  0
  7  8  1  0
  8  9  1  1
  9 10  1  0
 10 11  1  0
 11 12  1  0
 12 13  1  0
 13 14  1  1
 13 15  1  0
 15 16  1  0
 16 17  1  0
 17 18  1  6
 17 19  1  0
 19 20  1  0
 20 21  1  0
 20 22  1  0
 21 23  1  0
 22 24  1  0
 23 25  1  0
 24 25  1  0
M  END
