ucsf170-ucsf138
     RDKit          3D

 24 25  0  0  0  0  0  0  0  0999 V2000
   -4.7610   15.1600    1.2890 C   0  0  0  0  0  0  0  0  0  0  0  0
   -2.9810   15.1080    0.9760 S   0  0  0  0  0  0  0  0  0  0  0  0
   -3.0090   14.4530   -0.7390 C   0  0  2  0  0  0  0  0  0  0  0  0
   -1.5630   14.2510   -1.2040 C   0  0  0  0  0  0  0  0  0  0  0  0
   -3.8630   15.3200   -1.6900 C   0  0  0  0  0  0  0  0  0  0  0  0
   -1.5340   13.7680   -2.6640 C   0  0  2  0  0  0  0  0  0  0  0  0
   -3.5130   15.2580   -3.1860 C   0  0  0  0  0  0  0  0  0  0  0  0
   -0.1660   13.1670   -3.0830 C   0  0  2  0  0  0  0  0  0  0  0  0
   -2.0670   14.8890   -3.5470 C   0  0  2  0  0  0  0  0  0  0  0  0
   -2.0550   14.4950   -4.9200 O   0  0  0  0  0  0  0  0  0  0  0  0
    0.7960   13.5730   -2.1020 O   0  0  0  0  0  0  0  0  0  0  0  0
    0.4770   13.3330   -4.4270 N   0  0  0  0  0  0  0  0  0  0  0  0
    1.7420   12.6660   -4.1690 C   0  0  0  0  0  0  0  0  0  0  0  0
   -0.2190   12.6050   -5.6190 N   0  0  0  0  0  0  0  0  0  0  0  0
    1.5000   11.7080   -3.1520 O   0  0  0  0  0  0  0  0  0  0  0  0
    0.5770   11.5640   -6.3360 C   0  0  2  0  0  0  0  0  0  0  0  0
    1.8390   12.0710   -6.6920 O   0  0  0  0  0  0  0  0  0  0  0  0
   -0.1240   11.0540   -7.5220 N   0  0  0  0  0  0  0  0  0  0  0  0
    0.7030   10.4530   -8.6340 C   0  0  0  0  0  0  0  0  0  0  0  0
   -0.1050   10.4920   -9.9580 C   0  0  0  0  0  0  0  0  0  0  0  0
    1.1930    9.0040   -8.3970 C   0  0  0  0  0  0  0  0  0  0  0  0
    0.5640    9.8120  -11.1660 C   0  0  0  0  0  0  0  0  0  0  0  0
    1.7970    8.2670   -9.6140 C   0  0  0  0  0  0  0  0  0  0  0  0
    0.9800    8.3770  -10.8960 C   0  0  0  0  0  0  0  0  0  0  0  0
  1  2  1  0
  3  2  1  1
  3  4  1  0
  3  5  1  0
  6  4  1  1
  5  7  1  0
  6  8  1  0
  6  9  1  0
  7  9  1  0
  9 10  1  6
  8 11  1  1
  8 12  1  0
 12 13  1  0
 12 14  1  0
 13 15  1  0
 14 16  1  0
 16 17  1  6
 16 18  1  0
 18 19  1  0
 19 20  1  0
 19 21  1  0
 20 22  1  0
 21 23  1  0
 22 24  1  0
 23 24  1  0
M  END
