ucsf241-ucsf124
     RDKit          3D

 25 28  0  0  0  0  0  0  0  0999 V2000
    0.7190   11.0330   -2.4980 O   0  0  0  0  0  0  0  0  0  0  0  0
    0.5590   12.3130   -2.7870 C   0  0  1  0  0  0  0  0  0  0  0  0
    1.5980   13.0350   -2.0800 O   0  0  0  0  0  0  0  0  0  0  0  0
    0.7650   12.5340   -4.3320 C   0  0  0  0  0  0  0  0  0  0  0  0
    1.1160   14.1860   -1.3630 C   0  0  0  0  0  0  0  0  0  0  0  0
    0.4050   11.3220   -5.1220 N   0  0  0  0  0  0  0  0  0  0  0  0
   -0.1710   13.8360   -0.5970 C   0  0  2  0  0  0  0  0  0  0  0  0
   -0.9580   10.8270   -4.9770 C   0  0  1  0  0  0  0  0  0  0  0  0
    0.7280   11.4790   -6.5240 C   0  0  2  0  0  0  0  0  0  0  0  0
   -1.8360   11.7630   -4.4170 O   0  0  0  0  0  0  0  0  0  0  0  0
    0.6330   12.8290   -6.7710 O   0  0  0  0  0  0  0  0  0  0  0  0
   -1.3620   14.4390   -1.3630 C   0  0  0  0  0  0  0  0  0  0  0  0
   -0.1570   14.2000    0.9230 C   0  0  0  0  0  0  0  0  0  0  0  0
   -1.4540   10.4090   -6.3720 C   0  0  1  0  0  0  0  0  0  0  0  0
   -0.2630   10.6190   -7.3230 C   0  0  2  0  0  0  0  0  0  0  0  0
   -2.6110   14.4680   -0.5070 C   0  0  2  0  0  0  0  0  0  0  0  0
   -1.4700   14.2770    1.6010 N   0  0  0  0  0  0  0  0  0  0  0  0
   -1.9860    8.9720   -6.4330 C   0  0  0  0  0  0  0  0  0  0  0  0
    0.2730    9.3090   -7.9290 C   0  0  0  0  0  0  0  0  0  0  0  0
   -3.8330   15.2070   -0.9940 C   0  0  0  0  0  0  0  0  0  0  0  0
   -2.3750   15.0770    0.8640 C   0  0  2  0  0  0  0  0  0  0  0  0
   -2.1050    8.4380   -7.8570 C   0  0  0  0  0  0  0  0  0  0  0  0
   -0.8310    8.5970   -8.7060 C   0  0  0  0  0  0  0  0  0  0  0  0
   -4.5570   15.4990    0.3200 C   0  0  0  0  0  0  0  0  0  0  0  0
   -3.6900   15.0600    1.4350 N   0  0  0  0  0  0  0  0  0  0  0  0
  2  1  1  6
  2  3  1  0
  2  4  1  0
  3  5  1  0
  4  6  1  0
  7  5  1  6
  6  8  1  0
  6  9  1  0
  8 10  1  6
  9 11  1  6
  7 12  1  0
  7 13  1  0
  8 14  1  0
  9 15  1  0
 14 15  1  0
 16 12  1  6
 13 17  1  0
 14 18  1  1
 15 19  1  1
 16 20  1  0
 16 21  1  0
 21 17  1  1
 18 22  1  0
 19 23  1  0
 22 23  1  0
 20 24  1  0
 21 25  1  0
 24 25  1  0
M  CHG  1   1  -1
M  END
