ucsf187-ucsf325
     RDKit          3D

 12 13  0  0  0  0  0  0  0  0999 V2000
   14.4030    1.3260    5.9570 O   0  0  0  0  0  0  0  0  0  0  0  0
   14.8970    1.5970    7.1430 C   0  0  2  0  0  0  0  0  0  0  0  0
   14.2010    0.6760    7.9570 O   0  0  0  0  0  0  0  0  0  0  0  0
   14.5180    3.0460    7.5520 C   0  0  1  0  0  0  0  0  0  0  0  0
   14.6390    3.2690    9.0780 C   0  0  0  0  0  0  0  0  0  0  0  0
   15.3440    4.0770    6.7250 C   0  0  0  0  0  0  0  0  0  0  0  0
   14.3250    4.7090    9.3990 C   0  0  2  0  0  0  0  0  0  0  0  0
   15.5570    5.5000    7.3180 C   0  0  0  0  0  0  0  0  0  0  0  0
   15.3680    5.6330    8.8240 C   0  0  1  0  0  0  0  0  0  0  0  0
   14.3570    5.1910   10.8230 C   0  0  0  0  0  0  0  0  0  0  0  0
   14.9410    6.9290    9.2650 O   0  0  0  0  0  0  0  0  0  0  0  0
   14.3830    6.6990   10.5850 C   0  0  0  0  0  0  0  0  0  0  0  0
  2  1  1  6
  2  3  1  0
  2  4  1  0
  4  5  1  1
  4  6  1  0
  7  5  1  1
  6  8  1  0
  7  9  1  0
  9  8  1  6
  7 10  1  0
  9 11  1  0
 10 12  1  0
 11 12  1  0
M  CHG  1   1  -1
M  END
