ucsf243-ucsf516
     RDKit          3D

 28 32  0  0  0  0  0  0  0  0999 V2000
   -4.8180   15.9070   -0.3140 C   0  0  0  0  0  0  0  0  0  0  0  0
   -4.1380   15.0830   -1.4120 C   0  0  1  0  0  0  0  0  0  0  0  0
   -5.0720   14.7860   -2.5760 C   0  0  0  0  0  0  0  0  0  0  0  0
   -2.7800   15.6380   -1.8570 C   0  0  0  0  0  0  0  0  0  0  0  0
   -2.5700   15.8730   -3.3840 C   0  0  1  0  0  0  0  0  0  0  0  0
   -4.4300   14.1730   -3.8350 C   0  0  0  0  0  0  0  0  0  0  0  0
   -1.2370   16.5570   -3.7990 C   0  0  1  0  0  0  0  0  0  0  0  0
   -3.0490   14.7020   -4.2550 C   0  0  2  0  0  0  0  0  0  0  0  0
   -1.5540   17.8720   -4.2160 O   0  0  0  0  0  0  0  0  0  0  0  0
   -0.4340   16.7630   -2.7890 O   0  0  0  0  0  0  0  0  0  0  0  0
   -1.9310   13.6560   -4.4380 C   0  0  1  0  0  0  0  0  0  0  0  0
   -0.6040   14.2410   -4.9460 C   0  0  0  0  0  0  0  0  0  0  0  0
   -1.4820   12.9660   -3.1710 C   0  0  0  0  0  0  0  0  0  0  0  0
    0.2870   14.3380   -3.6900 C   0  0  1  0  0  0  0  0  0  0  0  0
   -0.6360   14.0250   -2.5740 N   0  0  0  0  0  0  0  0  0  0  0  0
    1.5980   13.6200   -3.9570 C   0  0  0  0  0  0  0  0  0  0  0  0
   -0.4910   13.8960   -1.1190 C   0  0  1  0  0  0  0  0  0  0  0  0
    2.3710   12.8360   -2.8590 C   0  0  0  0  0  0  0  0  0  0  0  0
    1.4310   12.2080   -4.6020 C   0  0  0  0  0  0  0  0  0  0  0  0
    0.3370   14.9410   -0.5320 N   0  0  0  0  0  0  0  0  0  0  0  0
   -1.6360   13.4900   -0.2060 C   0  0  1  0  0  0  0  0  0  0  0  0
    2.8270   11.9380   -4.0340 C   0  0  0  0  0  0  0  0  0  0  0  0
   -0.3840   16.0400    0.0980 C   0  0  0  0  0  0  0  0  0  0  0  0
   -1.9290   14.4730    0.9220 C   0  0  1  0  0  0  0  0  0  0  0  0
   -3.0250   13.1360   -0.7530 C   0  0  0  0  0  0  0  0  0  0  0  0
   -1.7360   15.7920    0.4700 N   0  0  0  0  0  0  0  0  0  0  0  0
   -3.3630   14.4400    1.2210 N   0  0  0  0  0  0  0  0  0  0  0  0
   -3.9600   13.3740    0.4260 C   0  0  0  0  0  0  0  0  0  0  0  0
  2  1  1  1
  2  3  1  0
  2  4  1  0
  5  4  1  1
  3  6  1  0
  5  7  1  0
  5  8  1  0
  8  6  1  1
  7  9  1  1
  7 10  1  0
  8 11  1  0
 11 12  1  1
 11 13  1  0
 12 14  1  0
 13 15  1  0
 14 15  1  0
 14 16  1  6
 17 15  1  6
 16 18  1  0
 16 19  1  0
 17 20  1  0
 17 21  1  0
 18 22  1  0
 19 22  1  0
 20 23  1  0
 21 24  1  0
 21 25  1  6
 23 26  1  0
 24 26  1  6
 24 27  1  0
 25 28  1  0
 27 28  1  0
M  CHG  1  10  -1
M  END
