ucsf339-ucsf169
     RDKit          3D

 25 27  0  0  0  0  0  0  0  0999 V2000
    0.8200   14.2120   -3.1660 O   0  0  0  0  0  0  0  0  0  0  0  0
    0.1280   13.2080   -2.4100 C   0  0  2  0  0  0  0  0  0  0  0  0
    0.5970   13.1380   -1.0720 O   0  0  0  0  0  0  0  0  0  0  0  0
    0.4310   14.5980   -4.5060 C   0  0  1  0  0  0  0  0  0  0  0  0
    0.2430   11.9970   -2.9120 O   0  0  0  0  0  0  0  0  0  0  0  0
   -1.3690   13.6510   -2.4010 C   0  0  1  0  0  0  0  0  0  0  0  0
   -1.0640   14.4530   -4.9200 C   0  0  0  0  0  0  0  0  0  0  0  0
    0.9410   16.0350   -4.6290 C   0  0  0  0  0  0  0  0  0  0  0  0
   -1.6510   14.8970   -1.5490 C   0  0  0  0  0  0  0  0  0  0  0  0
   -1.9820   13.8220   -3.7960 C   0  0  0  0  0  0  0  0  0  0  0  0
   -0.0600   17.1140   -4.2130 C   0  0  1  0  0  0  0  0  0  0  0  0
   -1.9910   15.6850   -4.7580 C   0  0  0  0  0  0  0  0  0  0  0  0
    0.5840   18.3700   -4.4360 O   0  0  0  0  0  0  0  0  0  0  0  0
   -3.1230   15.3330   -1.5940 C   0  0  1  0  0  0  0  0  0  0  0  0
   -3.4420   14.0650   -3.7630 N   0  0  0  0  0  0  0  0  0  0  0  0
   -1.3170   16.9940   -5.0570 C   0  0  1  0  0  0  0  0  0  0  0  0
    1.1440   18.4640   -5.7370 C   0  0  0  0  0  0  0  0  0  0  0  0
   -2.2210   18.1040   -4.8570 O   0  0  0  0  0  0  0  0  0  0  0  0
   -3.7420   15.2630   -2.9930 C   0  0  0  0  0  0  0  0  0  0  0  0
   -3.9710   14.7350   -0.4610 C   0  0  0  0  0  0  0  0  0  0  0  0
   -3.9950   15.6720    0.7420 C   0  0  0  0  0  0  0  0  0  0  0  0
   -5.3790   14.2480   -0.8330 C   0  0  0  0  0  0  0  0  0  0  0  0
   -4.6460   15.0150    1.9250 C   0  0  0  0  0  0  0  0  0  0  0  0
   -6.0320   13.5410    0.3390 C   0  0  0  0  0  0  0  0  0  0  0  0
   -6.0070   14.3900    1.6010 C   0  0  0  0  0  0  0  0  0  0  0  0
  1  2  1  0
  2  3  1  1
  4  1  1  1
  2  5  1  0
  2  6  1  0
  4  7  1  0
  4  8  1  0
  6  9  1  6
  6 10  1  0
  8 11  1  0
  7 12  1  0
 11 13  1  6
  9 14  1  0
 10 15  1  0
 11 16  1  0
 12 16  1  0
 13 17  1  0
 16 18  1  1
 14 19  1  0
 15 19  1  0
 14 20  1  1
 20 21  1  0
 20 22  1  0
 21 23  1  0
 22 24  1  0
 23 25  1  0
 24 25  1  0
M  CHG  1   5  -1
M  END
