ucsf016-ucsf337
     RDKit          3D

 24 28  0  0  0  0  0  0  0  0999 V2000
   -7.8200   14.4960   -0.2750 C   0  0  0  0  0  0  0  0  0  0  0  0
   -6.4150   14.9610   -0.7020 C   0  0  2  0  0  0  0  0  0  0  0  0
   -5.7990   14.0420   -1.6670 N   0  0  0  0  0  0  0  0  0  0  0  0
   -5.4910   15.1660    0.4770 C   0  0  1  0  0  0  0  0  0  0  0  0
   -6.3780   14.5540    2.0890 Br  0  0  0  0  0  0  0  0  0  0  0  0
   -4.1020   14.6870    0.3120 C   0  0  2  0  0  0  0  0  0  0  0  0
   -4.4520   14.4140   -2.0890 C   0  0  1  0  0  0  0  0  0  0  0  0
   -4.7920   15.0870   -3.2910 N   0  0  0  0  0  0  0  0  0  0  0  0
   -3.3310   15.4160    1.3040 N   0  0  0  0  0  0  0  0  0  0  0  0
   -3.6490   15.2080   -1.0340 C   0  0  2  0  0  0  0  0  0  0  0  0
   -2.0180   15.5090    0.7660 C   0  0  2  0  0  0  0  0  0  0  0  0
   -2.1330   15.5470   -0.7740 C   0  0  1  0  0  0  0  0  0  0  0  0
   -1.4100   14.3760    1.3510 N   0  0  0  0  0  0  0  0  0  0  0  0
   -0.8160   14.9310   -1.3670 C   0  0  2  0  0  0  0  0  0  0  0  0
   -0.9060   14.3950   -2.7210 N   0  0  0  0  0  0  0  0  0  0  0  0
   -0.1640   13.9370   -0.5030 N   0  0  0  0  0  0  0  0  0  0  0  0
   -0.0880   14.3200    0.8830 C   0  0  0  0  0  0  0  0  0  0  0  0
    0.3730   14.0330   -3.3470 C   0  0  0  0  0  0  0  0  0  0  0  0
   -1.6690   15.2960   -3.6140 C   0  0  0  0  0  0  0  0  0  0  0  0
   -1.9540   14.5840   -4.9170 C   0  0  0  0  0  0  0  0  0  0  0  0
    0.1170   13.2140   -4.6020 C   0  0  0  0  0  0  0  0  0  0  0  0
   -3.1850   13.7020   -4.9910 C   0  0  0  0  0  0  0  0  0  0  0  0
   -3.1580   14.9970   -5.7480 C   0  0  0  0  0  0  0  0  0  0  0  0
   -0.7060   14.0290   -5.5700 C   0  0  0  0  0  0  0  0  0  0  0  0
  2  1  1  1
  2  3  1  0
  2  4  1  0
  4  5  1  1
  4  6  1  0
  3  7  1  0
  7  8  1  6
  6  9  1  1
  6 10  1  0
 10  7  1  6
 11  9  1  1
 10 12  1  0
 11 12  1  0
 11 13  1  0
 12 14  1  6
 14 15  1  6
 14 16  1  0
 13 17  1  0
 16 17  1  0
 15 18  1  0
 15 19  1  0
 20 19  1  0
 18 21  1  0
 20 22  1  0
 20 23  1  0
 22 23  1  0
 20 24  1  0
 21 24  1  0
M  END
