ucsf364-ucsf147
     RDKit          3D

 22 25  0  0  0  0  0  0  0  0999 V2000
    1.3310   13.7470   -5.0530 C   0  0  0  0  0  0  0  0  0  0  0  0
    1.1160   12.2720   -4.8770 C   0  0  2  0  0  0  0  0  0  0  0  0
    0.6720   11.5370   -6.1480 C   0  0  2  0  0  0  0  0  0  0  0  0
    0.1030   14.5260   -4.6730 C   0  0  1  0  0  0  0  0  0  0  0  0
    0.1700   11.9040   -3.7010 C   0  0  1  0  0  0  0  0  0  0  0  0
   -0.9390   14.0720   -5.5700 O   0  0  0  0  0  0  0  0  0  0  0  0
   -0.4390   14.3230   -3.2710 C   0  0  2  0  0  0  0  0  0  0  0  0
    1.6440   11.5590   -7.1860 O   0  0  0  0  0  0  0  0  0  0  0  0
    0.1040   13.0210   -2.6420 C   0  0  1  0  0  0  0  0  0  0  0  0
   -1.2660   11.4490   -4.1210 C   0  0  0  0  0  0  0  0  0  0  0  0
   -0.6910   11.9240   -6.6210 C   0  0  0  0  0  0  0  0  0  0  0  0
   -2.2270   14.0770   -4.8700 N   0  0  0  0  0  0  0  0  0  0  0  0
   -1.9240   14.6110   -3.5300 C   0  0  1  0  0  0  0  0  0  0  0  0
   -0.5900   12.6140   -1.4920 O   0  0  0  0  0  0  0  0  0  0  0  0
    1.3020   13.1820   -2.1190 O   0  0  0  0  0  0  0  0  0  0  0  0
   -1.7010   11.4160   -5.6120 C   0  0  0  0  0  0  0  0  0  0  0  0
   -3.0200   14.2740   -2.5150 C   0  0  0  0  0  0  0  0  0  0  0  0
   -2.5030   14.3240   -1.0540 C   0  0  0  0  0  0  0  0  0  0  0  0
   -4.1970   15.2290   -2.7680 C   0  0  0  0  0  0  0  0  0  0  0  0
   -3.0510   15.4940   -0.2620 C   0  0  0  0  0  0  0  0  0  0  0  0
   -5.2080   15.2780   -1.6390 C   0  0  0  0  0  0  0  0  0  0  0  0
   -4.5730   15.5470   -0.2780 C   0  0  0  0  0  0  0  0  0  0  0  0
  2  1  1  6
  2  3  1  0
  4  1  1  1
  2  5  1  0
  4  6  1  0
  4  7  1  0
  3  8  1  6
  5  9  1  0
  7  9  1  0
  5 10  1  6
  3 11  1  0
  6 12  1  0
  7 13  1  6
 12 13  1  0
  9 14  1  1
  9 15  1  0
 10 16  1  0
 11 16  1  0
 13 17  1  1
 17 18  1  0
 17 19  1  0
 18 20  1  0
 19 21  1  0
 20 22  1  0
 21 22  1  0
M  CHG  1  15  -1
M  END
