ucsf114-ucsf241
     RDKit          3D

 17 18  0  0  0  0  0  0  0  0999 V2000
    0.7930   18.1260   -4.5440 C   0  0  0  0  0  0  0  0  0  0  0  0
   -0.2970   17.5710   -5.4490 C   0  0  0  0  0  0  0  0  0  0  0  0
   -1.5270   18.4670   -5.4450 C   0  0  0  0  0  0  0  0  0  0  0  0
   -0.6030   16.2710   -4.9410 O   0  0  0  0  0  0  0  0  0  0  0  0
    0.5280   15.4800   -4.5470 C   0  0  0  0  0  0  0  0  0  0  0  0
    0.1800   14.0980   -3.9210 C   0  0  0  0  0  0  0  0  0  0  0  0
   -0.1270   14.0510   -2.4750 N   0  0  0  0  0  0  0  0  0  0  0  0
   -1.5510   14.1580   -2.1310 C   0  0  1  0  0  0  0  0  0  0  0  0
    0.8210   14.7790   -1.6410 C   0  0  2  0  0  0  0  0  0  0  0  0
    2.5380   14.1430   -1.8190 S   0  0  0  0  0  0  0  0  0  0  0  0
   -1.8160   14.0900   -0.5880 C   0  0  1  0  0  0  0  0  0  0  0  0
    0.5760   14.8670   -0.2010 N   0  0  0  0  0  0  0  0  0  0  0  0
   -2.3260   15.4130   -2.5250 C   0  0  0  0  0  0  0  0  0  0  0  0
   -0.6280   14.3280    0.3830 C   0  0  1  0  0  0  0  0  0  0  0  0
   -2.9420   15.0540   -0.3100 N   0  0  0  0  0  0  0  0  0  0  0  0
   -3.5280   15.3430   -1.6180 C   0  0  0  0  0  0  0  0  0  0  0  0
   -1.0420   15.1460    1.4840 O   0  0  0  0  0  0  0  0  0  0  0  0
  1  2  1  0
  2  3  1  0
  2  4  1  0
  4  5  1  0
  5  6  1  0
  6  7  1  0
  7  8  1  0
  7  9  1  0
  9 10  1  1
  8 11  1  0
  9 12  1  0
  8 13  1  1
 11 14  1  0
 12 14  1  0
 11 15  1  1
 13 16  1  0
 15 16  1  0
 14 17  1  1
M  END
