ucsf138-ucsf364
     RDKit          3D

 20 21  0  0  0  0  0  0  0  0999 V2000
    1.8560   12.5670   -2.0500 O   0  0  0  0  0  0  0  0  0  0  0  0
    0.7260   12.1470   -2.5070 C   0  0  0  0  0  0  0  0  0  0  0  0
    0.4610   11.0020   -1.7530 O   0  0  0  0  0  0  0  0  0  0  0  0
   -0.1460   13.2160   -2.2270 O   0  0  0  0  0  0  0  0  0  0  0  0
    0.7910   11.8060   -3.9710 C   0  0  2  0  0  0  0  0  0  0  0  0
    0.7870   13.0700   -4.8110 C   0  0  0  0  0  0  0  0  0  0  0  0
   -0.3570   10.8630   -4.3840 C   0  0  0  0  0  0  0  0  0  0  0  0
   -1.3860   11.5530   -5.2690 C   0  0  0  0  0  0  0  0  0  0  0  0
    0.5700   12.7830   -6.2710 C   0  0  1  0  0  0  0  0  0  0  0  0
    1.6410   12.0570   -6.8520 O   0  0  0  0  0  0  0  0  0  0  0  0
   -0.7530   12.0550   -6.5450 C   0  0  0  0  0  0  0  0  0  0  0  0
    1.3520   10.7070   -6.9590 C   0  0  1  0  0  0  0  0  0  0  0  0
    0.6730   10.2990   -5.7900 N   0  0  0  0  0  0  0  0  0  0  0  0
    0.3980   10.5520   -8.0060 N   0  0  0  0  0  0  0  0  0  0  0  0
    0.9360    9.9380   -9.1970 C   0  0  0  0  0  0  0  0  0  0  0  0
    0.0350   10.0330  -10.4220 C   0  0  0  0  0  0  0  0  0  0  0  0
    1.4630    8.5110   -8.9340 C   0  0  0  0  0  0  0  0  0  0  0  0
    0.3070    8.8970  -11.4070 C   0  0  0  0  0  0  0  0  0  0  0  0
    2.2670    7.9320  -10.0960 C   0  0  0  0  0  0  0  0  0  0  0  0
    1.7600    8.4190  -11.4470 C   0  0  0  0  0  0  0  0  0  0  0  0
  2  1  1  0
  2  3  1  0
  2  4  1  0
  5  2  1  1
  5  6  1  0
  5  7  1  0
  7  8  1  0
  6  9  1  0
  9 10  1  1
  8 11  1  0
  9 11  1  0
 10 12  1  0
 12 13  1  1
 12 14  1  0
 14 15  1  0
 15 16  1  0
 15 17  1  0
 16 18  1  0
 17 19  1  0
 18 20  1  0
 19 20  1  0
M  CHG  1   1  -1
M  END
