ucsf190-ucsf320
     RDKit          3D

 25 27  0  0  0  0  0  0  0  0999 V2000
    0.6020   10.4710   -2.4390 O   0  0  0  0  0  0  0  0  0  0  0  0
    1.0930   11.7150   -2.4050 C   0  0  2  0  0  0  0  0  0  0  0  0
    0.0960   12.3520   -1.6420 O   0  0  0  0  0  0  0  0  0  0  0  0
    1.3070   12.3110   -3.8140 C   0  0  0  0  0  0  0  0  0  0  0  0
    1.0410   13.8100   -3.8740 C   0  0  2  0  0  0  0  0  0  0  0  0
   -0.3520   14.1530   -4.3730 C   0  0  1  0  0  0  0  0  0  0  0  0
    2.0350   14.6590   -4.4990 N   0  0  0  0  0  0  0  0  0  0  0  0
   -0.5080   15.5730   -4.8930 C   0  0  2  0  0  0  0  0  0  0  0  0
    1.7970   16.0210   -4.0120 N   0  0  0  0  0  0  0  0  0  0  0  0
   -1.0510   13.2520   -5.4070 C   0  0  0  0  0  0  0  0  0  0  0  0
    0.5980   16.6110   -4.6420 C   0  0  2  0  0  0  0  0  0  0  0  0
   -1.9460   15.7830   -4.4960 C   0  0  2  0  0  0  0  0  0  0  0  0
   -2.5230   13.6560   -5.7350 C   0  0  0  0  0  0  0  0  0  0  0  0
    0.1540   17.7580   -3.9370 O   0  0  0  0  0  0  0  0  0  0  0  0
   -2.0790   14.8770   -3.4110 O   0  0  0  0  0  0  0  0  0  0  0  0
   -2.8850   15.1420   -5.5200 C   0  0  0  0  0  0  0  0  0  0  0  0
   -2.0920   15.3830   -2.0970 C   0  0  2  0  0  0  0  0  0  0  0  0
   -1.0600   14.8990   -1.4370 O   0  0  0  0  0  0  0  0  0  0  0  0
   -3.3920   14.7500   -1.5700 C   0  0  1  0  0  0  0  0  0  0  0  0
   -3.6920   15.2530   -0.1440 C   0  0  0  0  0  0  0  0  0  0  0  0
   -4.5160   14.9610   -2.6200 C   0  0  0  0  0  0  0  0  0  0  0  0
   -5.0910   14.9100    0.3030 C   0  0  0  0  0  0  0  0  0  0  0  0
   -5.9350   14.7920   -2.1070 C   0  0  0  0  0  0  0  0  0  0  0  0
   -6.1130   15.3890   -0.7230 C   0  0  1  0  0  0  0  0  0  0  0  0
   -7.4210   15.0840   -0.2390 O   0  0  0  0  0  0  0  0  0  0  0  0
  2  1  1  6
  2  3  1  0
  2  4  1  0
  5  4  1  6
  5  6  1  0
  5  7  1  0
  6  8  1  0
  7  9  1  0
  6 10  1  6
  8 11  1  1
  9 11  1  0
  8 12  1  0
 10 13  1  0
 11 14  1  1
 12 15  1  1
 12 16  1  0
 13 16  1  0
 15 17  1  0
 17 18  1  1
 17 19  1  0
 19 20  1  1
 19 21  1  0
 20 22  1  0
 21 23  1  0
 22 24  1  0
 23 24  1  0
 24 25  1  1
M  CHG  2   1  -1  18  -1
M  END
