ucsf523-ucsf380
     RDKit          3D

 22 24  0  0  0  0  0  0  0  0999 V2000
    0.0650   14.3210    1.9000 N   0  0  0  0  0  0  0  0  0  0  0  0
   -0.6060   14.1410    0.6620 C   0  0  1  0  0  0  0  0  0  0  0  0
   -1.9370   13.8610    1.0410 N   0  0  0  0  0  0  0  0  0  0  0  0
   -0.5570   15.3820   -0.0410 N   0  0  0  0  0  0  0  0  0  0  0  0
   -1.4180   15.2110   -1.2410 C   0  0  1  0  0  0  0  0  0  0  0  0
   -2.8800   14.9320    0.8000 C   0  0  1  0  0  0  0  0  0  0  0  0
   -1.1010   13.9530   -1.9740 N   0  0  0  0  0  0  0  0  0  0  0  0
   -2.8880   15.3990   -0.7090 C   0  0  2  0  0  0  0  0  0  0  0  0
   -4.1090   14.2920    1.2050 N   0  0  0  0  0  0  0  0  0  0  0  0
    0.3770   13.8590   -2.0680 C   0  0  1  0  0  0  0  0  0  0  0  0
   -5.1650   15.1640    0.8300 C   0  0  2  0  0  0  0  0  0  0  0  0
   -4.0620   14.7310   -1.4210 N   0  0  0  0  0  0  0  0  0  0  0  0
   -1.8250   13.5390   -3.2160 C   0  0  0  0  0  0  0  0  0  0  0  0
   -6.3190   14.7630    1.5400 O   0  0  0  0  0  0  0  0  0  0  0  0
    1.0030   14.9390   -1.6440 O   0  0  0  0  0  0  0  0  0  0  0  0
    0.8930   12.8410   -1.2330 O   0  0  0  0  0  0  0  0  0  0  0  0
   -5.2930   15.1940   -0.7270 C   0  0  0  0  0  0  0  0  0  0  0  0
   -2.9090   12.4160   -3.0980 C   0  0  0  0  0  0  0  0  0  0  0  0
   -0.8010   13.0190   -4.2840 C   0  0  0  0  0  0  0  0  0  0  0  0
   -2.5600   11.0730   -3.7490 C   0  0  0  0  0  0  0  0  0  0  0  0
   -1.4370   12.4380   -5.5430 C   0  0  0  0  0  0  0  0  0  0  0  0
   -2.2600   11.1980   -5.2370 C   0  0  0  0  0  0  0  0  0  0  0  0
  2  1  1  1
  2  3  1  0
  2  4  1  0
  4  5  1  0
  6  3  1  6
  5  7  1  1
  5  8  1  0
  6  8  1  0
  6  9  1  0
  7 10  1  0
  9 11  1  0
  8 12  1  6
  7 13  1  0
 11 14  1  1
 10 15  1  1
 10 16  1  0
 11 17  1  0
 12 17  1  0
 13 18  1  0
 13 19  1  0
 18 20  1  0
 19 21  1  0
 20 22  1  0
 21 22  1  0
M  CHG  1  15  -1
M  END
