ucsf392-ucsf336
     RDKit          3D

 23 24  0  0  0  0  0  0  0  0999 V2000
   -5.1410   14.5660   -0.7980 C   0  0  0  0  0  0  0  0  0  0  0  0
   -4.0400   15.6100   -0.6150 C   0  0  2  0  0  0  0  0  0  0  0  0
   -2.7870   15.3030   -1.4230 C   0  0  0  0  0  0  0  0  0  0  0  0
   -3.5790   15.8120    0.8300 C   0  0  1  0  0  0  0  0  0  0  0  0
   -4.2830   14.9620    1.7470 N   0  0  0  0  0  0  0  0  0  0  0  0
   -2.1660   15.6490    1.0840 N   0  0  0  0  0  0  0  0  0  0  0  0
   -2.0470   14.2140   -0.8170 N   0  0  0  0  0  0  0  0  0  0  0  0
   -1.4420   14.5840    0.4480 C   0  0  1  0  0  0  0  0  0  0  0  0
   -0.0060   14.9780    0.1140 C   0  0  0  0  0  0  0  0  0  0  0  0
    0.5350   13.8440   -0.7490 C   0  0  0  0  0  0  0  0  0  0  0  0
    1.7710   14.0960   -1.6040 C   0  0  0  0  0  0  0  0  0  0  0  0
    1.8450   12.9790   -2.4870 O   0  0  0  0  0  0  0  0  0  0  0  0
    1.2060   13.2280   -3.7530 C   0  0  1  0  0  0  0  0  0  0  0  0
    2.1930   13.1960   -4.6300 O   0  0  0  0  0  0  0  0  0  0  0  0
    0.1470   12.0680   -4.1290 C   0  0  2  0  0  0  0  0  0  0  0  0
    0.3070   10.9660   -3.2280 O   0  0  0  0  0  0  0  0  0  0  0  0
    0.3250   11.5560   -5.4910 N   0  0  0  0  0  0  0  0  0  0  0  0
   -0.8620   10.9530   -6.0900 C   0  0  0  0  0  0  0  0  0  0  0  0
   -0.4120   10.2330   -7.3800 C   0  0  0  0  0  0  0  0  0  0  0  0
   -1.5700    9.9660   -5.1530 C   0  0  0  0  0  0  0  0  0  0  0  0
   -1.0550    8.8610   -7.5970 C   0  0  0  0  0  0  0  0  0  0  0  0
   -2.7830    9.3040   -5.8090 C   0  0  0  0  0  0  0  0  0  0  0  0
   -2.5360    8.8370   -7.2440 C   0  0  0  0  0  0  0  0  0  0  0  0
  2  1  1  1
  2  3  1  0
  2  4  1  0
  4  5  1  1
  4  6  1  0
  3  7  1  0
  6  8  1  0
  7  8  1  0
  8  9  1  6
  9 10  1  0
 10 11  1  0
 11 12  1  0
 12 13  1  0
 13 14  1  6
 13 15  1  0
 15 16  1  1
 15 17  1  0
 17 18  1  0
 18 19  1  0
 18 20  1  0
 19 21  1  0
 20 22  1  0
 21 23  1  0
 22 23  1  0
M  CHG  1  14  -1
M  END
