ucsf115-ucsf274
     RDKit          3D

 31 35  0  0  0  0  0  0  0  0999 V2000
   -2.0710   12.9070   -3.5780 C   0  0  2  0  0  0  0  0  0  0  0  0
   -1.6740   14.2610   -3.0020 N   0  0  0  0  0  0  0  0  0  0  0  0
   -1.6810   14.1340   -1.5080 C   0  0  1  0  0  0  0  0  0  0  0  0
   -1.7240   11.9460   -2.4740 C   0  0  1  0  0  0  0  0  0  0  0  0
   -1.4690   12.1830   -4.8770 C   0  0  2  0  0  0  0  0  0  0  0  0
   -1.5790   10.6440   -3.0960 O   0  0  0  0  0  0  0  0  0  0  0  0
   -0.3780   12.2520   -1.8420 C   0  0  0  0  0  0  0  0  0  0  0  0
   -0.6310   12.8820   -6.0030 C   0  0  1  0  0  0  0  0  0  0  0  0
   -2.4580   11.1310   -5.3370 N   0  0  0  0  0  0  0  0  0  0  0  0
    0.7250   13.4420   -5.4990 C   0  0  0  0  0  0  0  0  0  0  0  0
    0.5230   11.1520   -2.3260 C   0  0  0  0  0  0  0  0  0  0  0  0
   -0.2180   10.5460   -3.4690 C   0  0  0  0  0  0  0  0  0  0  0  0
   -0.6330   14.9460   -0.9260 N   0  0  0  0  0  0  0  0  0  0  0  0
   -3.0550   14.3280   -0.8270 C   0  0  1  0  0  0  0  0  0  0  0  0
   -1.9840   10.2890   -6.4580 C   0  0  1  0  0  0  0  0  0  0  0  0
   -0.3840   11.9790   -7.1490 N   0  0  0  0  0  0  0  0  0  0  0  0
    0.9040   13.6880   -3.9880 C   0  0  0  0  0  0  0  0  0  0  0  0
   -0.5120   14.6920    0.5020 C   0  0  0  0  0  0  0  0  0  0  0  0
   -2.9250   14.4830    0.6910 C   0  0  1  0  0  0  0  0  0  0  0  0
   -3.9130   15.4450   -1.2430 N   0  0  0  0  0  0  0  0  0  0  0  0
   -0.5330   10.5490   -6.8740 C   0  0  2  0  0  0  0  0  0  0  0  0
   -2.2300    8.7870   -6.2260 C   0  0  0  0  0  0  0  0  0  0  0  0
    1.9750   12.8870   -3.2400 C   0  0  2  0  0  0  0  0  0  0  0  0
   -1.7210   15.1220    1.1730 N   0  0  0  0  0  0  0  0  0  0  0  0
   -3.9950   15.4030    1.0550 N   0  0  0  0  0  0  0  0  0  0  0  0
   -4.8230   15.5240   -0.1360 C   0  0  0  0  0  0  0  0  0  0  0  0
   -0.1250    9.6870   -8.0910 C   0  0  0  0  0  0  0  0  0  0  0  0
   -1.8910    7.9380   -7.4510 C   0  0  0  0  0  0  0  0  0  0  0  0
    1.5870   11.6480   -3.1440 O   0  0  0  0  0  0  0  0  0  0  0  0
    1.9710   13.2510   -1.8800 O   0  0  0  0  0  0  0  0  0  0  0  0
   -0.4800    8.1970   -7.9720 C   0  0  0  0  0  0  0  0  0  0  0  0
  1  2  1  1
  3  2  1  6
  1  4  1  0
  1  5  1  0
  4  6  1  0
  4  7  1  6
  5  8  1  0
  5  9  1  6
  8 10  1  1
  7 11  1  0
  6 12  1  0
 11 12  1  0
  3 13  1  0
  3 14  1  0
  9 15  1  0
  8 16  1  0
 10 17  1  0
 13 18  1  0
 14 19  1  0
 14 20  1  6
 15 21  1  0
 16 21  1  0
 15 22  1  1
 17 23  1  0
 18 24  1  0
 19 24  1  6
 19 25  1  0
 20 26  1  0
 25 26  1  0
 21 27  1  6
 22 28  1  0
 23 29  1  1
 23 30  1  0
 27 31  1  0
 28 31  1  0
M  CHG  1  29  -1
M  END
