ucsf303-ucsf523
     RDKit          3D

 21 23  0  0  0  0  0  0  0  0999 V2000
   -2.5240   13.7250   -3.5500 O   0  0  0  0  0  0  0  0  0  0  0  0
   -3.9960   14.1370   -3.0740 S   0  0  0  0  0  0  0  0  0  0  0  0
   -4.5240   15.1350   -4.1790 O   0  0  0  0  0  0  0  0  0  0  0  0
   -5.0340   12.8980   -2.8730 N   0  0  0  0  0  0  0  0  0  0  0  0
   -3.7140   15.1910   -1.7220 C   0  0  1  0  0  0  0  0  0  0  0  0
   -4.7650   11.9290   -1.8700 C   0  0  1  0  0  0  0  0  0  0  0  0
   -5.0140   15.7230   -1.3130 N   0  0  0  0  0  0  0  0  0  0  0  0
   -2.9190   14.7780   -0.4860 C   0  0  2  0  0  0  0  0  0  0  0  0
   -5.8610   10.9640   -1.9380 N   0  0  0  0  0  0  0  0  0  0  0  0
   -3.2180   11.1490   -2.3270 S   0  0  0  0  0  0  0  0  0  0  0  0
   -1.9380   13.6390   -0.3640 C   0  0  0  0  0  0  0  0  0  0  0  0
   -3.6770   14.8710    0.8420 C   0  0  1  0  0  0  0  0  0  0  0  0
   -5.7580   14.7330   -0.5250 C   0  0  0  0  0  0  0  0  0  0  0  0
   -3.9390    9.5120   -2.3210 C   0  0  0  0  0  0  0  0  0  0  0  0
   -5.3550    9.5880   -1.9620 N   0  0  0  0  0  0  0  0  0  0  0  0
   -1.3460   14.0310    1.0050 C   0  0  2  0  0  0  0  0  0  0  0  0
   -2.6600   14.2910    1.8170 C   0  0  0  0  0  0  0  0  0  0  0  0
   -3.8980   16.3130    1.1880 C   0  0  0  0  0  0  0  0  0  0  0  0
   -5.0900   14.2730    0.7800 C   0  0  2  0  0  0  0  0  0  0  0  0
   -0.3610   15.1040    0.9470 N   0  0  0  0  0  0  0  0  0  0  0  0
   -5.9030   14.7500    1.8540 O   0  0  0  0  0  0  0  0  0  0  0  0
  2  1  1  0
  2  3  1  0
  2  4  1  0
  5  2  1  6
  6  4  1  6
  5  7  1  0
  5  8  1  0
  6  9  1  0
  6 10  1  0
  8 11  1  6
  8 12  1  0
  7 13  1  0
 10 14  1  0
  9 15  1  0
 14 15  1  0
 11 16  1  0
 12 17  1  0
 16 17  1  0
 12 18  1  1
 12 19  1  0
 13 19  1  0
 16 20  1  6
 19 21  1  1
M  END
