ucsf412-ucsf247
     RDKit          3D

 17 18  0  0  0  0  0  0  0  0999 V2000
   -8.1110   14.8360   -0.5150 O   0  0  0  0  0  0  0  0  0  0  0  0
   -6.8660   14.5550    0.1000 C   0  0  2  0  0  0  0  0  0  0  0  0
   -7.0140   14.7880    1.5230 N   0  0  0  0  0  0  0  0  0  0  0  0
   -5.7460   15.3630   -0.5990 C   0  0  1  0  0  0  0  0  0  0  0  0
   -4.4460   15.3600    0.2500 C   0  0  1  0  0  0  0  0  0  0  0  0
   -5.7830   14.5680    2.2750 C   0  0  0  0  0  0  0  0  0  0  0  0
   -5.6650   14.9420   -2.0900 C   0  0  0  0  0  0  0  0  0  0  0  0
   -4.5210   14.3820    1.4290 C   0  0  0  0  0  0  0  0  0  0  0  0
   -3.2050   15.1560   -0.6080 C   0  0  0  0  0  0  0  0  0  0  0  0
   -4.3050   14.5360   -2.6620 C   0  0  2  0  0  0  0  0  0  0  0  0
   -3.3500   14.0220   -1.5890 C   0  0  1  0  0  0  0  0  0  0  0  0
   -3.6920   15.6330   -3.3540 O   0  0  0  0  0  0  0  0  0  0  0  0
   -2.1010   13.5760   -2.2720 N   0  0  0  0  0  0  0  0  0  0  0  0
   -1.0010   14.5410   -2.5290 C   0  0  0  0  0  0  0  0  0  0  0  0
    0.3250   13.7740   -2.8690 C   0  0  2  0  0  0  0  0  0  0  0  0
    0.7720   13.1700   -1.7820 O   0  0  0  0  0  0  0  0  0  0  0  0
    1.3700   14.6760   -3.1740 O   0  0  0  0  0  0  0  0  0  0  0  0
  2  1  1  6
  2  3  1  0
  2  4  1  0
  4  5  1  0
  3  6  1  0
  4  7  1  6
  5  8  1  1
  6  8  1  0
  5  9  1  0
  7 10  1  0
  9 11  1  0
 10 11  1  0
 10 12  1  1
 11 13  1  6
 13 14  1  0
 14 15  1  0
 15 16  1  1
 15 17  1  0
M  CHG  1  16  -1
M  END
