ucsf367-ucsf520
     RDKit          3D

 28 31  0  0  0  0  0  0  0  0999 V2000
    0.8310   10.7080   -2.7800 O   0  0  0  0  0  0  0  0  0  0  0  0
    0.3600   11.7650   -3.4060 C   0  0  1  0  0  0  0  0  0  0  0  0
    0.4120   12.8990   -2.5650 O   0  0  0  0  0  0  0  0  0  0  0  0
    1.0570   12.2030   -4.7500 C   0  0  0  0  0  0  0  0  0  0  0  0
    0.6950   11.5120   -5.9520 O   0  0  0  0  0  0  0  0  0  0  0  0
   -0.8830   13.4830   -2.6450 C   0  0  0  0  0  0  0  0  0  0  0  0
   -0.7590   15.0110   -2.8030 C   0  0  2  0  0  0  0  0  0  0  0  0
   -0.3730   10.5950   -5.7680 C   0  0  0  0  0  0  0  0  0  0  0  0
   -0.4300    9.6630   -6.9680 C   0  0  0  0  0  0  0  0  0  0  0  0
   -1.7270   11.2880   -5.6240 C   0  0  0  0  0  0  0  0  0  0  0  0
   -1.8010   15.5930   -1.9510 N   0  0  0  0  0  0  0  0  0  0  0  0
   -0.7460   15.3580   -4.3220 C   0  0  1  0  0  0  0  0  0  0  0  0
   -1.5120    8.6080   -6.7590 C   0  0  0  0  0  0  0  0  0  0  0  0
   -2.8540   10.2900   -5.3740 C   0  0  0  0  0  0  0  0  0  0  0  0
   -3.1480   15.0850   -2.1480 C   0  0  0  0  0  0  0  0  0  0  0  0
   -1.2900   15.6180   -0.5810 C   0  0  1  0  0  0  0  0  0  0  0  0
   -1.5610   16.5210   -4.6150 O   0  0  0  0  0  0  0  0  0  0  0  0
    0.6290   15.6140   -4.9350 C   0  0  0  0  0  0  0  0  0  0  0  0
   -2.8940    9.1940   -6.4340 C   0  0  0  0  0  0  0  0  0  0  0  0
   -3.8850   14.6150   -0.9940 N   0  0  0  0  0  0  0  0  0  0  0  0
   -2.2520   15.5300    0.6040 C   0  0  1  0  0  0  0  0  0  0  0  0
   -0.3930   14.4640   -0.3880 N   0  0  0  0  0  0  0  0  0  0  0  0
    0.6300   17.0800   -5.3080 C   0  0  0  0  0  0  0  0  0  0  0  0
   -0.6790   17.6310   -4.7880 C   0  0  0  0  0  0  0  0  0  0  0  0
   -3.7190   15.4390    0.1570 C   0  0  2  0  0  0  0  0  0  0  0  0
   -1.7300   14.4040    1.4400 N   0  0  0  0  0  0  0  0  0  0  0  0
   -0.3290   14.3340    1.0400 C   0  0  0  0  0  0  0  0  0  0  0  0
   -4.5970   14.8500    1.1520 N   0  0  0  0  0  0  0  0  0  0  0  0
  2  1  1  1
  2  3  1  0
  2  4  1  0
  4  5  1  0
  3  6  1  0
  7  6  1  6
  5  8  1  0
  8  9  1  0
  8 10  1  0
  7 11  1  0
  7 12  1  0
  9 13  1  0
 10 14  1  0
 11 15  1  0
 11 16  1  0
 12 17  1  0
 12 18  1  1
 13 19  1  0
 14 19  1  0
 15 20  1  0
 16 21  1  0
 16 22  1  6
 18 23  1  0
 17 24  1  0
 23 24  1  0
 20 25  1  0
 21 25  1  0
 21 26  1  6
 22 27  1  0
 26 27  1  0
 25 28  1  1
M  CHG  1   1  -1
M  END
