ucsf213-ucsf151
     RDKit          3D

 22 24  0  0  0  0  0  0  0  0999 V2000
    0.5530   10.7840   -2.4610 O   0  0  0  0  0  0  0  0  0  0  0  0
    1.0640   12.0280   -2.3870 C   0  0  2  0  0  0  0  0  0  0  0  0
    0.1910   12.7990   -1.5750 O   0  0  0  0  0  0  0  0  0  0  0  0
    1.2330   12.7280   -3.7880 C   0  0  0  0  0  0  0  0  0  0  0  0
   -0.2200   13.9430   -2.3310 C   0  0  2  0  0  0  0  0  0  0  0  0
    0.6030   14.1410   -3.9160 C   0  0  1  0  0  0  0  0  0  0  0  0
   -0.1190   15.1100   -1.5100 O   0  0  0  0  0  0  0  0  0  0  0  0
    1.4530   15.3760   -4.2290 C   0  0  0  0  0  0  0  0  0  0  0  0
   -0.6060   14.2280   -5.2770 S   0  0  0  0  0  0  0  0  0  0  0  0
   -1.6710   13.7670   -2.8690 C   0  0  1  0  0  0  0  0  0  0  0  0
    0.4610   16.5480   -4.3860 C   0  0  2  0  0  0  0  0  0  0  0  0
   -0.6050   16.0680   -5.2960 C   0  0  2  0  0  0  0  0  0  0  0  0
   -2.1830   15.0410   -3.5880 C   0  0  0  0  0  0  0  0  0  0  0  0
   -1.7870   12.4460   -3.6980 C   0  0  0  0  0  0  0  0  0  0  0  0
    0.9310   17.8090   -5.1140 C   0  0  0  0  0  0  0  0  0  0  0  0
   -1.9190   16.8760   -5.2810 C   0  0  0  0  0  0  0  0  0  0  0  0
   -2.8030   14.8210   -4.9910 C   0  0  2  0  0  0  0  0  0  0  0  0
   -2.5320   12.4250   -4.9920 N   0  0  0  0  0  0  0  0  0  0  0  0
   -3.7120   15.8640   -5.3500 O   0  0  0  0  0  0  0  0  0  0  0  0
   -0.1690   18.4770   -5.9680 C   0  0  0  0  0  0  0  0  0  0  0  0
   -1.5940   18.3400   -5.4390 C   0  0  0  0  0  0  0  0  0  0  0  0
   -3.5170   13.4910   -5.1050 C   0  0  0  0  0  0  0  0  0  0  0  0
  2  1  1  6
  2  3  1  0
  2  4  1  0
  3  5  1  0
  6  4  1  6
  5  7  1  1
  6  8  1  0
  6  9  1  0
  5 10  1  0
 11  8  1  6
  9 12  1  0
 11 12  1  0
 10 13  1  6
 10 14  1  0
 11 15  1  0
 12 16  1  1
 13 17  1  0
 14 18  1  0
 17 19  1  1
 15 20  1  0
 16 21  1  0
 20 21  1  0
 17 22  1  0
 18 22  1  0
M  CHG  1   1  -1
M  END
