ucsf365-ucsf006
     RDKit          3D

 24 26  0  0  0  0  0  0  0  0999 V2000
    0.3990   11.0640   -2.4700 O   0  0  0  0  0  0  0  0  0  0  0  0
    0.8820   11.9600   -3.3150 C   0  0  2  0  0  0  0  0  0  0  0  0
    2.0680   12.2930   -2.6300 O   0  0  0  0  0  0  0  0  0  0  0  0
    0.0620   13.2700   -3.3340 C   0  0  1  0  0  0  0  0  0  0  0  0
    0.8950   14.5390   -3.6540 C   0  0  0  0  0  0  0  0  0  0  0  0
   -1.2670   13.3530   -4.1850 C   0  0  2  0  0  0  0  0  0  0  0  0
    0.0560   15.7320   -3.1990 C   0  0  0  0  0  0  0  0  0  0  0  0
   -1.8570   12.1810   -4.9990 C   0  0  2  0  0  0  0  0  0  0  0  0
   -1.1870   14.5570   -5.1390 C   0  0  0  0  0  0  0  0  0  0  0  0
   -0.8190   11.2490   -5.3580 O   0  0  0  0  0  0  0  0  0  0  0  0
   -1.1990   15.2840   -2.5260 N   0  0  0  0  0  0  0  0  0  0  0  0
   -2.5850   12.6220   -6.2880 C   0  0  0  0  0  0  0  0  0  0  0  0
   -2.5770   15.0410   -5.5450 C   0  0  0  0  0  0  0  0  0  0  0  0
   -2.3640   15.8220   -3.2100 C   0  0  0  0  0  0  0  0  0  0  0  0
   -3.3580   13.9430   -6.2280 C   0  0  0  0  0  0  0  0  0  0  0  0
   -1.2120   15.4510   -1.0830 C   0  0  1  0  0  0  0  0  0  0  0  0
   -2.5440   15.5920   -0.3620 C   0  0  2  0  0  0  0  0  0  0  0  0
   -0.2590   14.5250   -0.4770 N   0  0  0  0  0  0  0  0  0  0  0  0
   -2.4850   14.7020    0.8320 C   0  0  1  0  0  0  0  0  0  0  0  0
   -0.1040   14.5980    0.9540 C   0  0  0  0  0  0  0  0  0  0  0  0
   -3.9090   15.2170   -0.8960 C   0  0  0  0  0  0  0  0  0  0  0  0
   -1.3370   14.9130    1.6300 N   0  0  0  0  0  0  0  0  0  0  0  0
   -3.7000   15.1110    1.4820 N   0  0  0  0  0  0  0  0  0  0  0  0
   -4.6940   15.0850    0.4080 C   0  0  0  0  0  0  0  0  0  0  0  0
  2  1  1  1
  2  3  1  0
  2  4  1  0
  4  5  1  6
  4  6  1  0
  5  7  1  0
  6  8  1  0
  6  9  1  6
  8 10  1  6
  7 11  1  0
  8 12  1  0
  9 13  1  0
 11 14  1  0
 12 15  1  0
 13 15  1  0
 16 11  1  6
 16 17  1  0
 16 18  1  0
 17 19  1  0
 18 20  1  0
 17 21  1  6
 19 22  1  1
 20 22  1  0
 19 23  1  0
 21 24  1  0
 23 24  1  0
M  CHG  1   1  -1
M  END
