ucsf274-ucsf493
     RDKit          3D

 26 29  0  0  0  0  0  0  0  0999 V2000
    0.4430   10.7470   -2.2610 O   0  0  0  0  0  0  0  0  0  0  0  0
    0.9080   12.0010   -2.3570 C   0  0  2  0  0  0  0  0  0  0  0  0
    0.7030   12.4560   -1.0490 O   0  0  0  0  0  0  0  0  0  0  0  0
   -0.0700   12.9220   -3.0930 C   0  0  0  0  0  0  0  0  0  0  0  0
    0.1100   13.4770   -4.5520 C   0  0  1  0  0  0  0  0  0  0  0  0
   -0.6230   12.3580   -5.4930 C   0  0  2  0  0  0  0  0  0  0  0  0
   -0.7200   14.8110   -4.5360 C   0  0  2  0  0  0  0  0  0  0  0  0
    1.5210   13.9820   -4.9310 C   0  0  0  0  0  0  0  0  0  0  0  0
   -1.7640   11.5900   -4.7100 C   0  0  1  0  0  0  0  0  0  0  0  0
    0.1700   11.3420   -6.2880 N   0  0  0  0  0  0  0  0  0  0  0  0
   -1.9800   14.8020   -5.3710 C   0  0  0  0  0  0  0  0  0  0  0  0
    0.2500   15.9960   -4.6240 C   0  0  1  0  0  0  0  0  0  0  0  0
    1.4500   15.4420   -5.1830 N   0  0  0  0  0  0  0  0  0  0  0  0
   -2.6180   12.4900   -4.0340 O   0  0  0  0  0  0  0  0  0  0  0  0
   -2.6450   10.8270   -5.5670 N   0  0  0  0  0  0  0  0  0  0  0  0
   -0.4630    9.9930   -6.5680 C   0  0  1  0  0  0  0  0  0  0  0  0
   -2.5420   16.1640   -5.7350 C   0  0  1  0  0  0  0  0  0  0  0  0
   -0.2140   17.2410   -5.3810 C   0  0  0  0  0  0  0  0  0  0  0  0
   -3.8000   16.1740   -5.1450 O   0  0  0  0  0  0  0  0  0  0  0  0
   -1.8770    9.6610   -5.9850 C   0  0  2  0  0  0  0  0  0  0  0  0
   -0.3780    9.7110   -8.0720 C   0  0  0  0  0  0  0  0  0  0  0  0
   -1.7300   17.4100   -5.3230 C   0  0  0  0  0  0  0  0  0  0  0  0
   -4.6370   15.1880   -5.7510 C   0  0  0  0  0  0  0  0  0  0  0  0
   -0.7320    8.2570   -8.3870 C   0  0  0  0  0  0  0  0  0  0  0  0
   -2.7360    8.7930   -6.9110 C   0  0  0  0  0  0  0  0  0  0  0  0
   -1.8960    7.7030   -7.5620 C   0  0  0  0  0  0  0  0  0  0  0  0
  2  1  1  1
  2  3  1  0
  2  4  1  0
  5  4  1  1
  5  6  1  0
  5  7  1  0
  5  8  1  0
  6  9  1  0
  6 10  1  1
  7 11  1  6
  7 12  1  0
  8 13  1  0
 12 13  1  0
  9 14  1  6
  9 15  1  0
 10 16  1  0
 11 17  1  0
 12 18  1  6
 17 19  1  1
 15 20  1  0
 16 20  1  0
 16 21  1  6
 17 22  1  0
 18 22  1  0
 19 23  1  0
 21 24  1  0
 20 25  1  6
 24 26  1  0
 25 26  1  0
M  CHG  1   1  -1
M  END
