ucsf110-ucsf115
     RDKit          3D

 21 24  0  0  0  0  0  0  0  0999 V2000
   -0.0640   15.0400   -3.3250 C   0  0  0  0  0  0  0  0  0  0  0  0
   -0.4650   14.0440   -4.3470 C   0  0  0  0  0  0  0  0  0  0  0  0
    0.0490   12.6690   -4.1440 C   0  0  2  0  0  0  0  0  0  0  0  0
   -0.9560   15.3940   -2.3960 N   0  0  0  0  0  0  0  0  0  0  0  0
   -2.2230   15.7690   -2.7770 C   0  0  0  0  0  0  0  0  0  0  0  0
   -1.0390   14.7730   -1.1550 C   0  0  2  0  0  0  0  0  0  0  0  0
   -3.0720   15.5180   -1.5260 C   0  0  0  0  0  0  0  0  0  0  0  0
   -2.0100   15.5410   -0.4100 C   0  0  1  0  0  0  0  0  0  0  0  0
    0.2020   14.8300   -0.3640 N   0  0  0  0  0  0  0  0  0  0  0  0
   -1.0160   11.7720   -4.2310 O   0  0  0  0  0  0  0  0  0  0  0  0
    0.6050   12.4730   -2.7230 C   0  0  0  0  0  0  0  0  0  0  0  0
   -3.0310   15.0080    0.8060 S   0  0  0  0  0  0  0  0  0  0  0  0
   -0.4030   14.1550    0.7070 C   0  0  0  0  0  0  0  0  0  0  0  0
    0.0540   11.1260   -2.3280 C   0  0  0  0  0  0  0  0  0  0  0  0
   -0.6220   10.6570   -3.5420 C   0  0  0  0  0  0  0  0  0  0  0  0
   -3.9400   16.5640    1.3020 N   0  0  0  0  0  0  0  0  0  0  0  0
   -1.2960   14.8850    1.5040 N   0  0  0  0  0  0  0  0  0  0  0  0
   -4.6540   14.4820    1.2830 N   0  0  0  0  0  0  0  0  0  0  0  0
   -3.6130   13.4110    0.0560 C   0  0  0  0  0  0  0  0  0  0  0  0
   -4.6850   13.8620   -0.7820 N   0  0  0  0  0  0  0  0  0  0  0  0
   -5.3820   14.7140    0.0280 C   0  0  0  0  0  0  0  0  0  0  0  0
  1  2  1  0
  3  2  1  1
  1  4  1  0
  4  5  1  0
  4  6  1  0
  5  7  1  0
  6  8  1  0
  8  7  1  6
  6  9  1  1
  3 10  1  0
  3 11  1  0
  8 12  1  0
  9 13  1  0
 11 14  1  0
 10 15  1  0
 14 15  1  0
 12 16  1  0
 12 17  1  0
 13 17  1  0
 12 18  1  0
 12 19  1  0
 19 20  1  0
 18 21  1  0
 20 21  1  0
M  END
