ucsf013-ucsf248
     RDKit          3D

 15 16  0  0  0  0  0  0  0  0999 V2000
   -3.7560   14.5030    1.9400 N   0  0  0  0  0  0  0  0  0  0  0  0
   -4.8990   15.0090    1.2420 C   0  0  2  0  0  0  0  0  0  0  0  0
   -5.8220   13.9410    1.4960 N   0  0  0  0  0  0  0  0  0  0  0  0
   -4.6270   15.2300   -0.2330 C   0  0  2  0  0  0  0  0  0  0  0  0
   -5.7580   14.5930   -1.0200 C   0  0  1  0  0  0  0  0  0  0  0  0
   -7.1210   14.0310    0.8770 C   0  0  1  0  0  0  0  0  0  0  0  0
   -3.2620   14.7100   -0.6630 C   0  0  0  0  0  0  0  0  0  0  0  0
   -8.5140   14.3230    2.0210 S   0  0  0  0  0  0  0  0  0  0  0  0
   -7.0590   14.8290   -0.3630 N   0  0  0  0  0  0  0  0  0  0  0  0
   -5.6950   15.0770   -2.4540 C   0  0  0  0  0  0  0  0  0  0  0  0
   -3.1220   14.5430   -2.1670 C   0  0  0  0  0  0  0  0  0  0  0  0
   -9.0540   13.0320    2.8900 N   0  0  0  0  0  0  0  0  0  0  0  0
   -7.9830   15.4470    3.0280 O   0  0  0  0  0  0  0  0  0  0  0  0
   -9.7030   14.9870    1.1880 O   0  0  0  0  0  0  0  0  0  0  0  0
   -4.2490   15.1770   -2.9890 C   0  0  0  0  0  0  0  0  0  0  0  0
  2  1  1  1
  2  3  1  0
  2  4  1  0
  4  5  1  0
  3  6  1  0
  4  7  1  6
  6  8  1  1
  5  9  1  0
  6  9  1  0
  5 10  1  6
  7 11  1  0
  8 12  1  0
  8 13  1  0
  8 14  1  0
 10 15  1  0
 11 15  1  0
M  END
