ucsf135-ucsf248
     RDKit          3D

 27 30  0  0  0  0  0  0  0  0999 V2000
    1.7790   11.7880   -6.9860 O   0  0  0  0  0  0  0  0  0  0  0  0
    0.4590   11.8720   -6.5470 C   0  0  2  0  0  0  0  0  0  0  0  0
    0.5010   12.1580   -5.1070 N   0  0  0  0  0  0  0  0  0  0  0  0
   -0.3030   10.5330   -6.7520 C   0  0  1  0  0  0  0  0  0  0  0  0
   -0.7880   11.3950   -4.3720 S   0  0  2  0  0  0  0  0  0  0  0  0
   -1.4620   10.4830   -5.7360 C   0  0  2  0  0  0  0  0  0  0  0  0
   -0.8360   10.1750   -8.1260 C   0  0  0  0  0  0  0  0  0  0  0  0
   -2.0220   12.2700   -3.8250 O   0  0  0  0  0  0  0  0  0  0  0  0
   -0.3110   10.3280   -3.2880 O   0  0  0  0  0  0  0  0  0  0  0  0
   -1.8980    9.0540   -5.5550 C   0  0  0  0  0  0  0  0  0  0  0  0
   -1.4320    8.7570   -8.0730 C   0  0  0  0  0  0  0  0  0  0  0  0
   -1.8880   13.6300   -3.3960 C   0  0  0  0  0  0  0  0  0  0  0  0
   -2.4080    8.5240   -6.9020 C   0  0  0  0  0  0  0  0  0  0  0  0
   -3.2290   14.3760   -3.5590 C   0  0  0  0  0  0  0  0  0  0  0  0
   -3.7820   15.1040   -2.3040 C   0  0  2  0  0  0  0  0  0  0  0  0
   -2.9190   14.7530   -1.0540 C   0  0  0  0  0  0  0  0  0  0  0  0
   -5.3260   14.9480   -2.1150 C   0  0  0  0  0  0  0  0  0  0  0  0
   -5.8330   15.3100   -0.7300 C   0  0  2  0  0  0  0  0  0  0  0  0
   -3.5490   15.1520    0.2770 C   0  0  0  0  0  0  0  0  0  0  0  0
   -4.9670   14.6350    0.2950 C   0  0  1  0  0  0  0  0  0  0  0  0
   -7.1990   14.8760   -0.3720 N   0  0  0  0  0  0  0  0  0  0  0  0
   -7.0270   14.2210    0.9280 C   0  0  1  0  0  0  0  0  0  0  0  0
   -5.7920   14.7640    1.4820 N   0  0  0  0  0  0  0  0  0  0  0  0
   -8.4150   14.3400    2.0880 S   0  0  0  0  0  0  0  0  0  0  0  0
   -8.8480   12.9800    2.9040 N   0  0  0  0  0  0  0  0  0  0  0  0
   -7.9690   15.4600    3.1410 O   0  0  0  0  0  0  0  0  0  0  0  0
   -9.6310   14.9420    1.2420 O   0  0  0  0  0  0  0  0  0  0  0  0
  2  1  1  1
  2  3  1  0
  2  4  1  0
  3  5  1  0
  4  6  1  0
  5  6  1  0
  4  7  1  6
  5  8  1  0
  5  9  1  1
  6 10  1  1
  7 11  1  0
  8 12  1  0
 10 13  1  0
 11 13  1  0
 12 14  1  0
 15 14  1  6
 15 16  1  0
 15 17  1  0
 18 17  1  6
 16 19  1  0
 18 20  1  0
 20 19  1  1
 18 21  1  0
 21 22  1  0
 20 23  1  0
 22 23  1  0
 22 24  1  1
 24 25  1  0
 24 26  1  0
 24 27  1  0
M  END
