ucsf411-ucsf364
     RDKit          3D

 23 25  0  0  0  0  0  0  0  0999 V2000
    0.6280   10.9010   -2.2140 O   0  0  0  0  0  0  0  0  0  0  0  0
    0.7840   12.2210   -2.2980 C   0  0  0  0  0  0  0  0  0  0  0  0
    2.1070   12.5970   -2.1260 O   0  0  0  0  0  0  0  0  0  0  0  0
    0.2010   12.9310   -3.5460 C   0  0  1  0  0  0  0  0  0  0  0  0
    0.0720   12.6700   -1.1770 O   0  0  0  0  0  0  0  0  0  0  0  0
    0.9060   14.0880   -3.9840 O   0  0  0  0  0  0  0  0  0  0  0  0
   -0.2180   12.0940   -4.7500 C   0  0  2  0  0  0  0  0  0  0  0  0
   -0.1240   15.0730   -3.9390 C   0  0  1  0  0  0  0  0  0  0  0  0
   -0.5180   10.7010   -4.2740 C   0  0  0  0  0  0  0  0  0  0  0  0
    0.4370   12.2000   -6.1600 C   0  0  1  0  0  0  0  0  0  0  0  0
    1.8540   12.0780   -6.2870 O   0  0  0  0  0  0  0  0  0  0  0  0
   -0.1470   15.9740   -5.1500 C   0  0  1  0  0  0  0  0  0  0  0  0
   -1.4640   14.2970   -3.8630 C   0  0  0  0  0  0  0  0  0  0  0  0
   -1.5810   10.1350   -5.1710 C   0  0  0  0  0  0  0  0  0  0  0  0
   -0.1970   11.1390   -7.0470 C   0  0  0  0  0  0  0  0  0  0  0  0
   -1.5020   16.7310   -5.1980 C   0  0  2  0  0  0  0  0  0  0  0  0
   -2.2520   14.3360   -5.1730 C   0  0  0  0  0  0  0  0  0  0  0  0
    1.0720   16.8630   -5.1090 C   0  0  0  0  0  0  0  0  0  0  0  0
   -1.6010   10.8150   -6.5360 C   0  0  0  0  0  0  0  0  0  0  0  0
   -2.6500   15.7670   -5.4970 C   0  0  0  0  0  0  0  0  0  0  0  0
   -1.5690   17.9930   -6.0580 C   0  0  0  0  0  0  0  0  0  0  0  0
    0.7320   18.3260   -5.1370 C   0  0  0  0  0  0  0  0  0  0  0  0
   -0.2080   18.6240   -6.2840 C   0  0  0  0  0  0  0  0  0  0  0  0
  2  1  1  0
  2  3  1  0
  2  4  1  0
  2  5  1  0
  4  6  1  6
  4  7  1  0
  8  6  1  6
  7  9  1  1
  7 10  1  0
 10 11  1  1
  8 12  1  0
  8 13  1  0
  9 14  1  0
 10 15  1  0
 12 16  1  0
 13 17  1  0
 12 18  1  1
 14 19  1  0
 15 19  1  0
 16 20  1  6
 17 20  1  0
 16 21  1  0
 18 22  1  0
 21 23  1  0
 22 23  1  0
M  CHG  1   1  -1
M  END
