ucsf016-ucsf172
     RDKit          3D

 25 28  0  0  0  0  0  0  0  0999 V2000
   -7.6660   14.9350    2.2940 C   0  0  0  0  0  0  0  0  0  0  0  0
   -6.8090   14.4050    0.8470 S   0  0  0  0  0  0  0  0  0  0  0  0
   -6.3080   12.9720    1.3380 O   0  0  0  0  0  0  0  0  0  0  0  0
   -7.9780   14.1430   -0.2110 O   0  0  0  0  0  0  0  0  0  0  0  0
   -5.5480   15.2370    0.1390 N   0  0  0  0  0  0  0  0  0  0  0  0
   -4.2090   14.6430    0.1540 C   0  0  2  0  0  0  0  0  0  0  0  0
   -3.4930   15.4240    1.1710 N   0  0  0  0  0  0  0  0  0  0  0  0
   -3.2980   14.5470   -1.1270 C   0  0  1  0  0  0  0  0  0  0  0  0
   -3.5390   15.1890   -2.5210 C   0  0  1  0  0  0  0  0  0  0  0  0
   -2.1050   15.4390    0.7430 C   0  0  2  0  0  0  0  0  0  0  0  0
   -2.0360   15.2910   -0.7320 C   0  0  1  0  0  0  0  0  0  0  0  0
   -2.2970   15.7240   -2.9650 O   0  0  0  0  0  0  0  0  0  0  0  0
   -3.7330   14.2860   -3.4550 O   0  0  0  0  0  0  0  0  0  0  0  0
   -1.3940   14.4350    1.4420 N   0  0  0  0  0  0  0  0  0  0  0  0
   -0.8290   14.4820   -1.1780 C   0  0  1  0  0  0  0  0  0  0  0  0
   -0.5800   14.6580   -2.6370 N   0  0  0  0  0  0  0  0  0  0  0  0
    0.2740   14.8080   -0.3040 N   0  0  0  0  0  0  0  0  0  0  0  0
    0.0020   14.4060    1.0780 C   0  0  0  0  0  0  0  0  0  0  0  0
    0.7430   14.2900   -3.1680 C   0  0  0  0  0  0  0  0  0  0  0  0
   -1.5780   13.9100   -3.4120 C   0  0  0  0  0  0  0  0  0  0  0  0
   -1.6720   14.3390   -4.8460 C   0  0  0  0  0  0  0  0  0  0  0  0
    0.6700   13.5600   -4.5210 C   0  0  0  0  0  0  0  0  0  0  0  0
   -2.7190   15.3520   -5.2840 C   0  0  0  0  0  0  0  0  0  0  0  0
   -2.8750   13.9230   -5.6780 C   0  0  0  0  0  0  0  0  0  0  0  0
   -0.3120   14.2290   -5.4790 C   0  0  0  0  0  0  0  0  0  0  0  0
  1  2  1  0
  2  3  1  0
  2  4  1  0
  2  5  1  0
  6  5  1  6
  6  7  1  0
  6  8  1  0
  8  9  1  6
 10  7  1  1
  8 11  1  0
 10 11  1  0
  9 12  1  6
  9 13  1  0
 10 14  1  0
 11 15  1  1
 15 16  1  6
 15 17  1  0
 14 18  1  0
 17 18  1  0
 16 19  1  0
 16 20  1  0
 21 20  1  0
 19 22  1  0
 21 23  1  0
 21 24  1  0
 23 24  1  0
 21 25  1  0
 22 25  1  0
M  CHG  1  13  -1
M  END
