ucsf004-ucsf017
     RDKit          3D

 20 23  0  0  0  0  0  0  0  0999 V2000
   -2.3150   12.4820   -4.5530 F   0  0  0  0  0  0  0  0  0  0  0  0
   -1.5950   13.5780   -4.9300 C   0  0  2  0  0  0  0  0  0  0  0  0
   -0.3350   13.7450   -4.0690 C   0  0  2  0  0  0  0  0  0  0  0  0
   -2.3970   14.8660   -4.8180 C   0  0  0  0  0  0  0  0  0  0  0  0
   -1.6110   15.9910   -4.2710 N   0  0  0  0  0  0  0  0  0  0  0  0
    0.4950   14.7280   -4.8750 C   0  0  0  0  0  0  0  0  0  0  0  0
    0.3830   12.3730   -3.8960 C   0  0  0  0  0  0  0  0  0  0  0  0
   -0.7730   14.5150   -2.7420 C   0  0  0  0  0  0  0  0  0  0  0  0
   -0.1880   16.0700   -4.7010 C   0  0  0  0  0  0  0  0  0  0  0  0
   -0.9380   13.8020   -1.3750 C   0  0  1  0  0  0  0  0  0  0  0  0
    0.5520   11.9610   -2.4590 C   0  0  0  0  0  0  0  0  0  0  0  0
    0.1300   14.3140   -0.4710 N   0  0  0  0  0  0  0  0  0  0  0  0
   -2.3970   14.0130   -0.7530 C   0  0  1  0  0  0  0  0  0  0  0  0
   -0.7230   12.3060   -1.7340 C   0  0  0  0  0  0  0  0  0  0  0  0
   -0.1440   14.4010    0.9560 C   0  0  0  0  0  0  0  0  0  0  0  0
   -2.4680   14.4470    0.7270 C   0  0  1  0  0  0  0  0  0  0  0  0
   -3.4150   14.9490   -1.4360 C   0  0  0  0  0  0  0  0  0  0  0  0
   -1.3230   15.1600    1.1690 N   0  0  0  0  0  0  0  0  0  0  0  0
   -3.5110   15.4470    0.8810 N   0  0  0  0  0  0  0  0  0  0  0  0
   -4.3460   15.3650   -0.3080 C   0  0  0  0  0  0  0  0  0  0  0  0
  2  1  1  1
  2  3  1  0
  2  4  1  0
  4  5  1  0
  3  6  1  6
  3  7  1  0
  3  8  1  0
  5  9  1  0
  6  9  1  0
 10  8  1  6
  7 11  1  0
 10 12  1  0
 10 13  1  0
 10 14  1  0
 11 14  1  0
 12 15  1  0
 13 16  1  0
 13 17  1  6
 15 18  1  0
 16 18  1  6
 16 19  1  0
 17 20  1  0
 19 20  1  0
M  END
