ucsf511-ucsf340
     RDKit          3D

 28 32  0  0  0  0  0  0  0  0999 V2000
    0.5650   13.0250   -1.3630 O   0  0  0  0  0  0  0  0  0  0  0  0
    1.1800   12.3520   -2.4830 C   0  0  2  0  0  0  0  0  0  0  0  0
    0.9440   13.2530   -3.7490 C   0  0  0  0  0  0  0  0  0  0  0  0
   -0.1950   14.1510   -1.8090 C   0  0  2  0  0  0  0  0  0  0  0  0
    0.5500   11.1900   -2.6230 O   0  0  0  0  0  0  0  0  0  0  0  0
   -1.6540   13.8320   -1.4690 C   0  0  2  0  0  0  0  0  0  0  0  0
    0.0350   14.3340   -3.2440 N   0  0  0  0  0  0  0  0  0  0  0  0
    1.3200   14.7750   -3.6850 C   0  0  0  0  0  0  0  0  0  0  0  0
   -2.6070   13.8420   -2.6740 C   0  0  2  0  0  0  0  0  0  0  0  0
   -0.7530   13.4480   -4.0780 C   0  0  0  0  0  0  0  0  0  0  0  0
   -2.2620   14.7060   -0.4880 O   0  0  0  0  0  0  0  0  0  0  0  0
   -2.1050   13.9240   -4.0340 N   0  0  0  0  0  0  0  0  0  0  0  0
   -3.6450   14.5840   -0.8160 C   0  0  2  0  0  0  0  0  0  0  0  0
   -3.6760   14.8540   -2.2930 C   0  0  2  0  0  0  0  0  0  0  0  0
    0.3350   15.9660   -3.9550 C   0  0  1  0  0  0  0  0  0  0  0  0
   -5.0600   14.6540   -2.8990 C   0  0  0  0  0  0  0  0  0  0  0  0
   -4.5330   15.4870   -0.0180 C   0  0  0  0  0  0  0  0  0  0  0  0
    1.0330   17.1680   -4.5550 C   0  0  0  0  0  0  0  0  0  0  0  0
   -0.8640   15.8190   -4.9220 C   0  0  2  0  0  0  0  0  0  0  0  0
   -6.2140   15.1570   -2.0620 C   0  0  0  0  0  0  0  0  0  0  0  0
   -5.8790   15.7580   -0.7020 C   0  0  0  0  0  0  0  0  0  0  0  0
   -0.0020   18.0540   -5.0760 N   0  0  0  0  0  0  0  0  0  0  0  0
   -0.8540   17.1150   -5.7440 C   0  0  2  0  0  0  0  0  0  0  0  0
   -2.2370   15.6610   -4.2870 C   0  0  0  0  0  0  0  0  0  0  0  0
    0.6440   18.8150   -6.1350 C   0  0  0  0  0  0  0  0  0  0  0  0
   -3.2680   15.4010   -5.3480 C   0  0  0  0  0  0  0  0  0  0  0  0
   -2.2400   17.6480   -6.1010 C   0  0  0  0  0  0  0  0  0  0  0  0
   -3.2650   16.5180   -6.3500 C   0  0  0  0  0  0  0  0  0  0  0  0
  1  2  1  0
  2  3  1  0
  4  1  1  6
  2  5  1  6
  4  6  1  0
  4  7  1  0
  3  8  1  0
  6  9  1  0
  7 10  1  0
  6 11  1  1
  9 12  1  6
 10 12  1  0
 11 13  1  0
  9 14  1  0
 13 14  1  0
 15  8  1  6
 14 16  1  6
 13 17  1  1
 15 18  1  0
 15 19  1  0
 16 20  1  0
 17 21  1  0
 20 21  1  0
 18 22  1  0
 19 23  1  0
 22 23  1  0
 19 24  1  1
 22 25  1  0
 24 26  1  0
 23 27  1  1
 26 28  1  0
 27 28  1  0
M  CHG  1   5  -1
M  END
