ucsf516-ucsf241
     RDKit          3D

 18 21  0  0  0  0  0  0  0  0999 V2000
    0.2360   11.3570   -3.6330 C   0  0  0  0  0  0  0  0  0  0  0  0
    0.3070   11.9310   -2.2150 C   0  0  0  0  0  0  0  0  0  0  0  0
    0.5850   13.2720   -2.9440 C   0  0  0  0  0  0  0  0  0  0  0  0
    1.3740   12.3650   -3.9260 C   0  0  0  0  0  0  0  0  0  0  0  0
   -0.6770   13.9140   -3.4960 C   0  0  2  0  0  0  0  0  0  0  0  0
   -0.5430   14.5590   -4.8620 C   0  0  0  0  0  0  0  0  0  0  0  0
   -1.1670   15.0390   -2.7120 N   0  0  0  0  0  0  0  0  0  0  0  0
   -2.3440   15.4100   -3.5100 C   0  0  0  0  0  0  0  0  0  0  0  0
   -1.9430   15.1440   -4.9710 C   0  0  0  0  0  0  0  0  0  0  0  0
   -1.4120   14.6790   -1.3060 C   0  0  1  0  0  0  0  0  0  0  0  0
   -0.2030   15.0110   -0.5520 N   0  0  0  0  0  0  0  0  0  0  0  0
   -2.5690   15.3320   -0.5620 C   0  0  2  0  0  0  0  0  0  0  0  0
   -0.2330   14.6830    0.8700 C   0  0  0  0  0  0  0  0  0  0  0  0
   -2.6050   14.7360    0.8020 C   0  0  1  0  0  0  0  0  0  0  0  0
   -3.9990   15.0980   -1.0070 C   0  0  0  0  0  0  0  0  0  0  0  0
   -1.4470   15.1240    1.5340 N   0  0  0  0  0  0  0  0  0  0  0  0
   -3.7740   15.3650    1.3740 N   0  0  0  0  0  0  0  0  0  0  0  0
   -4.7390   15.4770    0.2710 C   0  0  0  0  0  0  0  0  0  0  0  0
  1  2  1  0
  2  3  1  0
  1  4  1  0
  3  4  1  0
  5  3  1  1
  5  6  1  0
  5  7  1  0
  7  8  1  0
  6  9  1  0
  8  9  1  0
 10  7  1  6
 10 11  1  0
 10 12  1  0
 11 13  1  0
 12 14  1  0
 12 15  1  6
 13 16  1  0
 14 16  1  1
 14 17  1  0
 15 18  1  0
 17 18  1  0
M  END
