ucsf123-ucsf258
     RDKit          3D

 21 22  0  0  0  0  0  0  0  0999 V2000
   -1.8210   18.7730   -4.8600 N   0  0  0  0  0  0  0  0  0  0  0  0
   -1.1160   17.8390   -5.8660 S   0  0  0  0  0  0  0  0  0  0  0  0
   -0.3770   18.3490   -6.9670 O   0  0  0  0  0  0  0  0  0  0  0  0
   -2.6910   17.1930   -6.7480 O   0  0  0  0  0  0  0  0  0  0  0  0
   -0.5650   16.3110   -5.2540 C   0  0  1  0  0  0  0  0  0  0  0  0
    0.4210   16.3950   -4.1810 C   0  0  0  0  0  0  0  0  0  0  0  0
   -1.6070   15.2980   -5.0050 C   0  0  0  0  0  0  0  0  0  0  0  0
    0.9660   15.0560   -4.0370 C   0  0  0  0  0  0  0  0  0  0  0  0
   -1.0380   13.9760   -4.9310 C   0  0  0  0  0  0  0  0  0  0  0  0
    0.1820   13.7680   -4.1040 C   0  0  2  0  0  0  0  0  0  0  0  0
   -0.2070   13.3430   -2.4350 S   0  0  0  0  0  0  0  0  0  0  0  0
    1.2840   12.4100   -1.5340 O   0  0  0  0  0  0  0  0  0  0  0  0
   -0.5610   11.4800   -1.4920 O   0  0  0  0  0  0  0  0  0  0  0  0
    0.5780   14.4540   -1.4530 O   0  0  0  0  0  0  0  0  0  0  0  0
   -1.8340   13.8280   -1.8560 C   0  0  2  0  0  0  0  0  0  0  0  0
   -2.8080   14.6450   -2.5530 C   0  0  1  0  0  0  0  0  0  0  0  0
   -1.7030   14.5470   -0.5840 N   0  0  0  0  0  0  0  0  0  0  0  0
   -3.0000   14.0630   -3.8280 O   0  0  0  0  0  0  0  0  0  0  0  0
   -4.1980   14.8170   -1.9990 C   0  0  0  0  0  0  0  0  0  0  0  0
   -2.8730   14.8190    0.1450 C   0  0  0  0  0  0  0  0  0  0  0  0
   -4.0850   15.2730   -0.5490 C   0  0  0  0  0  0  0  0  0  0  0  0
  1  2  1  0
  2  3  1  0
  2  4  1  0
  5  2  1  1
  5  6  1  0
  5  7  1  0
  6  8  1  0
  7  9  1  0
  8 10  1  0
  9 10  1  0
 10 11  1  1
 11 12  1  0
 11 13  1  0
 11 14  1  0
 15 11  1  6
 15 16  1  0
 15 17  1  0
 16 18  1  6
 16 19  1  0
 17 20  1  0
 19 21  1  0
 20 21  1  0
M  CHG  1  13  -1
M  END
