ucsf339-ucsf005
     RDKit          3D

 22 24  0  0  0  0  0  0  0  0999 V2000
    1.0190   13.1410   -3.0130 O   0  0  0  0  0  0  0  0  0  0  0  0
    0.3750   13.7340   -2.0340 C   0  0  2  0  0  0  0  0  0  0  0  0
    0.4400   12.7400   -1.0160 O   0  0  0  0  0  0  0  0  0  0  0  0
   -1.1340   14.0850   -2.3780 C   0  0  1  0  0  0  0  0  0  0  0  0
   -2.0690   14.6590   -1.2030 C   0  0  2  0  0  0  0  0  0  0  0  0
   -1.2900   14.9270   -3.6830 C   0  0  0  0  0  0  0  0  0  0  0  0
   -3.3200   15.4050   -1.8240 C   0  0  1  0  0  0  0  0  0  0  0  0
   -2.6350   15.1190   -4.2090 N   0  0  0  0  0  0  0  0  0  0  0  0
   -1.2310   15.5390   -0.3610 N   0  0  0  0  0  0  0  0  0  0  0  0
   -2.5570   13.6140   -0.1740 C   0  0  0  0  0  0  0  0  0  0  0  0
   -3.6580   14.8530   -3.2240 C   0  0  0  0  0  0  0  0  0  0  0  0
   -4.6130   15.4880   -0.9330 C   0  0  0  0  0  0  0  0  0  0  0  0
   -2.5200   14.0930    1.3050 C   0  0  2  0  0  0  0  0  0  0  0  0
   -0.4610   14.7010    0.4940 C   0  0  1  0  0  0  0  0  0  0  0  0
   -3.2250   15.3110    1.6170 N   0  0  0  0  0  0  0  0  0  0  0  0
    0.5550   15.5530    0.9220 N   0  0  0  0  0  0  0  0  0  0  0  0
   -4.3470   15.6560    0.5670 C   0  0  0  0  0  0  0  0  0  0  0  0
   -5.5870   14.3260   -1.1720 C   0  0  0  0  0  0  0  0  0  0  0  0
   -1.1670   14.3860    1.6650 N   0  0  0  0  0  0  0  0  0  0  0  0
   -5.1580   14.7720    1.5540 C   0  0  0  0  0  0  0  0  0  0  0  0
   -6.8470   14.5220   -0.3370 C   0  0  0  0  0  0  0  0  0  0  0  0
   -6.5900   14.4260    1.1610 C   0  0  0  0  0  0  0  0  0  0  0  0
  2  1  1  6
  2  3  1  0
  2  4  1  0
  4  5  1  0
  4  6  1  6
  5  7  1  0
  6  8  1  0
  5  9  1  0
  5 10  1  1
  7 11  1  0
  8 11  1  0
  7 12  1  1
 10 13  1  0
  9 14  1  0
 13 15  1  6
 14 16  1  1
 12 17  1  0
 12 18  1  0
 13 19  1  0
 14 19  1  0
 17 20  1  0
 18 21  1  0
 20 22  1  0
 21 22  1  0
M  CHG  1   1  -1
M  END
