ucsf442-ucsf303
     RDKit          3D

 19 21  0  0  0  0  0  0  0  0999 V2000
   -0.3900   14.3190    0.3090 O   0  0  0  0  0  0  0  0  0  0  0  0
   -1.1840   15.4520    0.1190 C   0  0  1  0  0  0  0  0  0  0  0  0
   -1.8670   15.4530   -1.1350 N   0  0  0  0  0  0  0  0  0  0  0  0
   -2.1030   15.5670    1.1990 N   0  0  0  0  0  0  0  0  0  0  0  0
   -3.2110   14.6530    1.2530 C   0  0  2  0  0  0  0  0  0  0  0  0
   -2.8000   14.2820   -1.2780 C   0  0  2  0  0  0  0  0  0  0  0  0
   -3.6700   14.4460   -2.5830 C   0  0  0  0  0  0  0  0  0  0  0  0
   -3.6790   13.9980   -0.0520 C   0  0  2  0  0  0  0  0  0  0  0  0
   -4.3600   15.3770    1.7580 N   0  0  0  0  0  0  0  0  0  0  0  0
   -2.8700   14.1070   -3.6970 O   0  0  0  0  0  0  0  0  0  0  0  0
   -4.0240   15.7970   -2.7140 O   0  0  0  0  0  0  0  0  0  0  0  0
   -4.8800   13.6320   -2.5180 N   0  0  0  0  0  0  0  0  0  0  0  0
   -5.1280   14.1290   -0.0820 N   0  0  0  0  0  0  0  0  0  0  0  0
   -5.3920   15.2590    0.7430 C   0  0  0  0  0  0  0  0  0  0  0  0
   -4.7740   12.2130   -2.7910 C   0  0  2  0  0  0  0  0  0  0  0  0
   -5.6040   11.4730   -1.8370 N   0  0  0  0  0  0  0  0  0  0  0  0
   -3.1320   11.5800   -2.4610 S   0  0  0  0  0  0  0  0  0  0  0  0
   -3.8290    9.9250   -2.3520 C   0  0  0  0  0  0  0  0  0  0  0  0
   -5.2630   10.0500   -2.0270 N   0  0  0  0  0  0  0  0  0  0  0  0
  2  1  1  1
  2  3  1  0
  2  4  1  0
  5  4  1  6
  3  6  1  0
  6  7  1  6
  5  8  1  0
  6  8  1  0
  5  9  1  0
  7 10  1  0
  7 11  1  0
  7 12  1  0
  8 13  1  6
  9 14  1  0
 13 14  1  0
 15 12  1  1
 15 16  1  0
 15 17  1  0
 17 18  1  0
 16 19  1  0
 18 19  1  0
M  END
