ucsf169-ucsf348
     RDKit          3D

 26 28  0  0  0  0  0  0  0  0999 V2000
    1.3640   18.5160   -5.8010 C   0  0  0  0  0  0  0  0  0  0  0  0
    0.0620   18.0470   -5.7580 O   0  0  0  0  0  0  0  0  0  0  0  0
   -0.1580   17.0980   -4.7260 C   0  0  1  0  0  0  0  0  0  0  0  0
   -1.6930   17.0590   -4.6450 C   0  0  1  0  0  0  0  0  0  0  0  0
    0.5730   15.7430   -4.9230 C   0  0  0  0  0  0  0  0  0  0  0  0
   -2.3540   17.3970   -5.8700 O   0  0  0  0  0  0  0  0  0  0  0  0
   -2.2910   15.8080   -4.0230 C   0  0  1  0  0  0  0  0  0  0  0  0
   -0.1380   14.6120   -4.1760 C   0  0  2  0  0  0  0  0  0  0  0  0
    0.5790   13.2400   -4.0730 C   0  0  0  0  0  0  0  0  0  0  0  0
   -1.6040   14.5480   -4.5620 C   0  0  0  0  0  0  0  0  0  0  0  0
   -2.1100   15.8940   -2.4970 C   0  0  0  0  0  0  0  0  0  0  0  0
    0.3710   12.4700   -2.7420 C   0  0  2  0  0  0  0  0  0  0  0  0
   -2.2380   14.6240   -1.6910 C   0  0  1  0  0  0  0  0  0  0  0  0
    1.3810   12.7920   -1.8310 O   0  0  0  0  0  0  0  0  0  0  0  0
    0.4890   11.1690   -2.8540 O   0  0  0  0  0  0  0  0  0  0  0  0
   -1.7110   14.7850   -0.2670 C   0  0  0  0  0  0  0  0  0  0  0  0
   -3.7220   14.2550   -1.7080 C   0  0  0  0  0  0  0  0  0  0  0  0
   -4.6310   15.1950   -0.9020 C   0  0  1  0  0  0  0  0  0  0  0  0
   -2.8060   14.6230    0.7860 C   0  0  0  0  0  0  0  0  0  0  0  0
   -6.0580   14.6410   -0.9880 C   0  0  2  0  0  0  0  0  0  0  0  0
   -4.0910   15.4250    0.5290 C   0  0  2  0  0  0  0  0  0  0  0  0
   -6.7090   15.1140   -2.1490 O   0  0  0  0  0  0  0  0  0  0  0  0
   -6.9000   14.8590    0.1510 N   0  0  0  0  0  0  0  0  0  0  0  0
   -5.0750   15.1910    1.5950 N   0  0  0  0  0  0  0  0  0  0  0  0
   -6.2510   14.4510    1.3410 C   0  0  1  0  0  0  0  0  0  0  0  0
   -7.0890   14.5480    2.4810 N   0  0  0  0  0  0  0  0  0  0  0  0
  1  2  1  0
  3  2  1  6
  3  4  1  0
  3  5  1  0
  4  6  1  6
  4  7  1  0
  5  8  1  0
  8  9  1  6
  7 10  1  0
  8 10  1  0
  7 11  1  1
  9 12  1  0
 13 11  1  6
 12 14  1  1
 12 15  1  0
 13 16  1  0
 13 17  1  0
 18 17  1  1
 16 19  1  0
 18 20  1  0
 18 21  1  0
 21 19  1  1
 20 22  1  6
 20 23  1  0
 21 24  1  0
 23 25  1  0
 24 25  1  0
 25 26  1  1
M  CHG  1  15  -1
M  END
