ucsf422-ucsf339
     RDKit          3D

 28 31  0  0  0  0  0  0  0  0999 V2000
    0.4840   10.5190   -2.6990 O   0  0  0  0  0  0  0  0  0  0  0  0
    0.1240   11.8090   -2.7810 C   0  0  1  0  0  0  0  0  0  0  0  0
    0.5490   12.4380   -1.5550 O   0  0  0  0  0  0  0  0  0  0  0  0
    0.8290   12.5230   -4.0200 C   0  0  0  0  0  0  0  0  0  0  0  0
    0.8120   13.8640   -1.5890 C   0  0  1  0  0  0  0  0  0  0  0  0
    0.6410   14.0720   -4.1370 C   0  0  1  0  0  0  0  0  0  0  0  0
    1.7240   14.1170   -2.5240 O   0  0  0  0  0  0  0  0  0  0  0  0
    1.8930   14.9650   -4.2010 C   0  0  0  0  0  0  0  0  0  0  0  0
   -0.1840   14.7090   -5.2450 C   0  0  2  0  0  0  0  0  0  0  0  0
   -0.5370   14.6250   -1.8930 C   0  0  2  0  0  0  0  0  0  0  0  0
    1.4740   16.2230   -4.8990 N   0  0  0  0  0  0  0  0  0  0  0  0
    0.0200   16.1350   -4.7840 C   0  0  1  0  0  0  0  0  0  0  0  0
   -1.6380   14.2870   -5.5000 C   0  0  0  0  0  0  0  0  0  0  0  0
   -1.5710   14.4150   -0.7930 C   0  0  0  0  0  0  0  0  0  0  0  0
   -1.2850   14.2620   -3.1940 C   0  0  0  0  0  0  0  0  0  0  0  0
   -0.8010   17.2030   -5.4980 C   0  0  0  0  0  0  0  0  0  0  0  0
   -2.6720   15.3880   -5.8070 C   0  0  1  0  0  0  0  0  0  0  0  0
   -3.0000   14.1870   -1.3540 C   0  0  2  0  0  0  0  0  0  0  0  0
   -2.4120   15.1800   -3.5340 N   0  0  0  0  0  0  0  0  0  0  0  0
   -4.4320   14.7990   -5.2210 Br  0  0  0  0  0  0  0  0  0  0  0  0
   -2.3000   16.8430   -5.4320 C   0  0  0  0  0  0  0  0  0  0  0  0
   -3.4030   15.1590   -2.4830 C   0  0  0  0  0  0  0  0  0  0  0  0
   -4.0390   14.2470   -0.2140 C   0  0  0  0  0  0  0  0  0  0  0  0
   -3.9330   15.5160    0.6380 C   0  0  0  0  0  0  0  0  0  0  0  0
   -5.4870   14.0760   -0.6810 C   0  0  0  0  0  0  0  0  0  0  0  0
   -4.5240   15.2050    1.9760 C   0  0  0  0  0  0  0  0  0  0  0  0
   -6.4690   14.2930    0.4640 C   0  0  0  0  0  0  0  0  0  0  0  0
   -5.7970   14.3530    1.8480 C   0  0  0  0  0  0  0  0  0  0  0  0
  2  1  1  1
  2  3  1  0
  2  4  1  0
  3  5  1  0
  6  4  1  6
  5  7  1  6
  6  8  1  0
  6  9  1  0
  5 10  1  0
  8 11  1  0
  9 12  1  0
 11 12  1  0
  9 13  1  1
 10 14  1  1
 10 15  1  0
 12 16  1  6
 13 17  1  0
 14 18  1  0
 15 19  1  0
 17 20  1  1
 16 21  1  0
 17 21  1  0
 18 22  1  0
 19 22  1  0
 18 23  1  1
 23 24  1  0
 23 25  1  0
 24 26  1  0
 25 27  1  0
 26 28  1  0
 27 28  1  0
M  CHG  2   1  -1   7  -1
M  END
