ucsf243-ucsf392
     RDKit          3D

 19 20  0  0  0  0  0  0  0  0999 V2000
   -3.6850   16.0730    0.2970 C   0  0  0  0  0  0  0  0  0  0  0  0
   -3.1330   15.8410   -1.1340 C   0  0  2  0  0  0  0  0  0  0  0  0
   -4.1220   15.2110   -2.1240 C   0  0  0  0  0  0  0  0  0  0  0  0
   -3.8590   14.8420    1.1250 C   0  0  1  0  0  0  0  0  0  0  0  0
   -1.7850   15.1340   -1.1350 C   0  0  0  0  0  0  0  0  0  0  0  0
   -4.3730   13.7960    0.1520 C   0  0  2  0  0  0  0  0  0  0  0  0
   -2.6180   14.4570    1.7670 N   0  0  0  0  0  0  0  0  0  0  0  0
   -5.1820   12.7270    0.8600 C   0  0  0  0  0  0  0  0  0  0  0  0
   -1.0770   15.3640   -2.4740 C   0  0  1  0  0  0  0  0  0  0  0  0
   -3.4650   14.7870   -3.4360 C   0  0  0  0  0  0  0  0  0  0  0  0
   -1.5710   14.4750    0.7940 C   0  0  1  0  0  0  0  0  0  0  0  0
   -3.2260   13.2220   -0.6930 C   0  0  0  0  0  0  0  0  0  0  0  0
    0.2620   14.5590   -2.6280 C   0  0  2  0  0  0  0  0  0  0  0  0
   -0.2210   14.1360    1.4000 C   0  0  0  0  0  0  0  0  0  0  0  0
   -2.0750   15.3930   -3.6880 C   0  0  2  0  0  0  0  0  0  0  0  0
   -1.8350   13.5010   -0.2660 N   0  0  0  0  0  0  0  0  0  0  0  0
   -1.5460   14.7740   -4.8610 O   0  0  0  0  0  0  0  0  0  0  0  0
    0.2180   13.7800   -3.8160 O   0  0  0  0  0  0  0  0  0  0  0  0
    0.4310   13.7110   -1.6340 O   0  0  0  0  0  0  0  0  0  0  0  0
  2  1  1  1
  2  3  1  0
  4  1  1  6
  2  5  1  0
  4  6  1  0
  4  7  1  0
  6  8  1  1
  9  5  1  1
  3 10  1  0
  7 11  1  0
  6 12  1  0
  9 13  1  0
 11 14  1  1
  9 15  1  0
 10 15  1  0
 11 16  1  0
 12 16  1  0
 15 17  1  6
 13 18  1  6
 13 19  1  0
M  CHG  1  19  -1
M  END
