ucsf170-ucsf274
     RDKit          3D

 26 28  0  0  0  0  0  0  0  0999 V2000
   -4.8850   15.2180    1.3340 C   0  0  0  0  0  0  0  0  0  0  0  0
   -3.2440   14.4880    1.1770 S   0  0  0  0  0  0  0  0  0  0  0  0
   -2.9240   14.9130   -0.5700 C   0  0  1  0  0  0  0  0  0  0  0  0
   -1.4770   14.5460   -0.9580 C   0  0  0  0  0  0  0  0  0  0  0  0
   -3.9180   14.3450   -1.5480 C   0  0  0  0  0  0  0  0  0  0  0  0
   -1.2800   14.0090   -2.3960 C   0  0  2  0  0  0  0  0  0  0  0  0
   -3.6260   14.9480   -2.9240 C   0  0  0  0  0  0  0  0  0  0  0  0
    0.2080   14.1210   -2.8100 C   0  0  1  0  0  0  0  0  0  0  0  0
   -2.2450   14.5650   -3.4790 C   0  0  1  0  0  0  0  0  0  0  0  0
   -1.6950   15.6960   -4.1640 O   0  0  0  0  0  0  0  0  0  0  0  0
    0.9590   13.0670   -2.1940 O   0  0  0  0  0  0  0  0  0  0  0  0
    0.2620   14.0780   -4.2700 O   0  0  0  0  0  0  0  0  0  0  0  0
    0.4520   11.7330   -2.4860 C   0  0  0  0  0  0  0  0  0  0  0  0
    0.5940   12.8110   -4.8900 C   0  0  0  0  0  0  0  0  0  0  0  0
    0.5660   10.9420   -1.4340 O   0  0  0  0  0  0  0  0  0  0  0  0
   -0.6370   12.1900   -5.6250 C   0  0  2  0  0  0  0  0  0  0  0  0
   -1.5390   11.3660   -4.6430 C   0  0  1  0  0  0  0  0  0  0  0  0
   -0.2190   11.4270   -6.8490 N   0  0  0  0  0  0  0  0  0  0  0  0
   -2.3170   12.1900   -3.8190 O   0  0  0  0  0  0  0  0  0  0  0  0
   -2.4900   10.5370   -5.3390 N   0  0  0  0  0  0  0  0  0  0  0  0
   -0.4710    9.9620   -6.8280 C   0  0  1  0  0  0  0  0  0  0  0  0
   -1.7510    9.4960   -6.0560 C   0  0  2  0  0  0  0  0  0  0  0  0
   -0.4550    9.4010   -8.2450 C   0  0  0  0  0  0  0  0  0  0  0  0
   -0.7680    7.9110   -8.2960 C   0  0  0  0  0  0  0  0  0  0  0  0
   -2.7550    8.7820   -6.9720 C   0  0  0  0  0  0  0  0  0  0  0  0
   -2.1380    7.5910   -7.6970 C   0  0  0  0  0  0  0  0  0  0  0  0
  1  2  1  0
  3  2  1  1
  3  4  1  0
  3  5  1  0
  6  4  1  1
  5  7  1  0
  6  8  1  0
  6  9  1  0
  7  9  1  0
  9 10  1  1
  8 11  1  1
  8 12  1  0
 11 13  1  0
 12 14  1  0
 13 15  1  0
 16 14  1  1
 16 17  1  0
 16 18  1  0
 17 19  1  1
 17 20  1  0
 18 21  1  0
 20 22  1  0
 21 22  1  0
 21 23  1  6
 23 24  1  0
 22 25  1  6
 24 26  1  0
 25 26  1  0
M  CHG  1  15  -1
M  END
