ucsf422-ucsf016
     RDKit          3D

 31 36  0  0  0  0  0  0  0  0999 V2000
    0.7330   11.2130   -2.6910 O   0  0  0  0  0  0  0  0  0  0  0  0
    1.1990   12.4500   -2.6450 C   0  0  1  0  0  0  0  0  0  0  0  0
    2.5610   12.2870   -2.9410 O   0  0  0  0  0  0  0  0  0  0  0  0
    0.6310   13.3160   -3.7870 C   0  0  0  0  0  0  0  0  0  0  0  0
    0.7920   14.8200   -3.4870 C   0  0  1  0  0  0  0  0  0  0  0  0
    2.0210   15.2650   -4.2330 C   0  0  0  0  0  0  0  0  0  0  0  0
   -0.2660   15.8440   -3.9550 C   0  0  1  0  0  0  0  0  0  0  0  0
    1.5730   16.2100   -5.2670 N   0  0  0  0  0  0  0  0  0  0  0  0
    0.5150   16.9640   -4.6370 C   0  0  1  0  0  0  0  0  0  0  0  0
   -1.3930   15.4120   -4.8290 C   0  0  0  0  0  0  0  0  0  0  0  0
   -0.2530   17.8130   -5.6620 C   0  0  0  0  0  0  0  0  0  0  0  0
   -2.3980   16.5540   -4.9280 C   0  0  2  0  0  0  0  0  0  0  0  0
   -3.4860   16.1180   -5.7350 O   0  0  0  0  0  0  0  0  0  0  0  0
   -1.7860   17.8200   -5.5290 C   0  0  0  0  0  0  0  0  0  0  0  0
   -3.3150   14.7240   -5.9790 C   0  0  2  0  0  0  0  0  0  0  0  0
   -4.1590   13.7590   -5.2080 C   0  0  0  0  0  0  0  0  0  0  0  0
   -2.7180   13.9640   -4.7960 C   0  0  1  0  0  0  0  0  0  0  0  0
   -1.6880   12.9220   -5.1660 C   0  0  0  0  0  0  0  0  0  0  0  0
   -2.5630   14.5980   -3.4000 C   0  0  0  0  0  0  0  0  0  0  0  0
   -1.3560   12.0070   -3.9870 C   0  0  0  0  0  0  0  0  0  0  0  0
   -1.3780   14.1340   -2.6410 N   0  0  0  0  0  0  0  0  0  0  0  0
   -1.4190   12.6690   -2.5930 C   0  0  0  0  0  0  0  0  0  0  0  0
   -1.4040   14.7170   -1.2870 C   0  0  2  0  0  0  0  0  0  0  0  0
   -0.2000   14.2710   -0.5860 N   0  0  0  0  0  0  0  0  0  0  0  0
   -2.6580   14.3700   -0.4710 C   0  0  1  0  0  0  0  0  0  0  0  0
   -0.1250   14.7810    0.7700 C   0  0  0  0  0  0  0  0  0  0  0  0
   -2.4630   14.6980    0.9970 C   0  0  1  0  0  0  0  0  0  0  0  0
   -3.8790   15.1550   -0.9160 C   0  0  0  0  0  0  0  0  0  0  0  0
   -1.3000   15.5300    1.1260 N   0  0  0  0  0  0  0  0  0  0  0  0
   -3.6070   15.4640    1.4630 N   0  0  0  0  0  0  0  0  0  0  0  0
   -4.5700   15.5520    0.3640 C   0  0  0  0  0  0  0  0  0  0  0  0
  2  1  1  6
  2  3  1  0
  2  4  1  0
  5  4  1  6
  5  6  1  0
  5  7  1  0
  6  8  1  0
  7  9  1  0
  8  9  1  0
  7 10  1  6
  9 11  1  6
 10 12  1  0
 12 13  1  6
 11 14  1  0
 12 14  1  0
 15 13  1  1
 15 16  1  0
 15 17  1  0
 17 16  1  1
 17 18  1  0
 17 19  1  0
 18 20  1  0
 19 21  1  0
 20 22  1  0
 21 22  1  0
 23 21  1  6
 23 24  1  0
 23 25  1  0
 24 26  1  0
 25 27  1  0
 25 28  1  6
 26 29  1  0
 27 29  1  6
 27 30  1  0
 28 31  1  0
 30 31  1  0
M  CHG  1   1  -1
M  END
