ucsf336-ucsf247
     RDKit          3D

 23 24  0  0  0  0  0  0  0  0999 V2000
    1.5880   13.7020   -4.1800 O   0  0  0  0  0  0  0  0  0  0  0  0
    0.5720   13.2710   -3.4520 C   0  0  2  0  0  0  0  0  0  0  0  0
    1.2370   13.0170   -2.2180 O   0  0  0  0  0  0  0  0  0  0  0  0
   -0.1200   11.9380   -4.0030 C   0  0  2  0  0  0  0  0  0  0  0  0
   -0.4580   14.4600   -3.2650 C   0  0  0  0  0  0  0  0  0  0  0  0
    0.1450   10.7800   -3.2050 O   0  0  0  0  0  0  0  0  0  0  0  0
    0.0970   11.5480   -5.3970 N   0  0  0  0  0  0  0  0  0  0  0  0
   -1.6380   14.2500   -2.3650 N   0  0  0  0  0  0  0  0  0  0  0  0
   -2.6430   15.3210   -2.4400 C   0  0  1  0  0  0  0  0  0  0  0  0
   -0.5740   10.3270   -5.8280 C   0  0  0  0  0  0  0  0  0  0  0  0
   -3.4740   15.1920   -3.5760 O   0  0  0  0  0  0  0  0  0  0  0  0
   -0.4230   10.0930   -7.3430 C   0  0  0  0  0  0  0  0  0  0  0  0
   -2.0500   10.3710   -5.3960 C   0  0  0  0  0  0  0  0  0  0  0  0
   -3.5530   15.3410   -1.1750 C   0  0  1  0  0  0  0  0  0  0  0  0
   -1.1650    8.8410   -7.7900 C   0  0  0  0  0  0  0  0  0  0  0  0
   -2.8000    9.1200   -5.8300 C   0  0  0  0  0  0  0  0  0  0  0  0
   -5.0170   14.8940   -1.4640 C   0  0  0  0  0  0  0  0  0  0  0  0
   -2.8880   14.6380    0.0310 C   0  0  0  0  0  0  0  0  0  0  0  0
   -2.6230    8.8480   -7.3240 C   0  0  0  0  0  0  0  0  0  0  0  0
   -5.8320   14.6230   -0.2090 C   0  0  2  0  0  0  0  0  0  0  0  0
   -3.7540   14.6050    1.2720 C   0  0  0  0  0  0  0  0  0  0  0  0
   -7.1770   15.0980   -0.3050 O   0  0  0  0  0  0  0  0  0  0  0  0
   -5.1190   15.2060    1.0090 C   0  0  0  0  0  0  0  0  0  0  0  0
  2  1  1  6
  2  3  1  0
  2  4  1  0
  2  5  1  0
  4  6  1  1
  4  7  1  0
  5  8  1  0
  8  9  1  0
  7 10  1  0
  9 11  1  6
 10 12  1  0
 10 13  1  0
  9 14  1  0
 12 15  1  0
 13 16  1  0
 14 17  1  6
 14 18  1  0
 15 19  1  0
 16 19  1  0
 17 20  1  0
 18 21  1  0
 20 22  1  6
 20 23  1  0
 21 23  1  0
M  CHG  1   1  -1
M  END
