ucsf519-ucsf493
     RDKit          3D

 25 28  0  0  0  0  0  0  0  0999 V2000
   -0.5630   16.5760   -3.7310 C   0  0  0  0  0  0  0  0  0  0  0  0
   -0.8390   15.5520   -2.6420 C   0  0  2  0  0  0  0  0  0  0  0  0
    0.7070   14.7970   -2.1160 S   0  0  0  0  0  0  0  0  0  0  0  0
   -2.0720   14.6060   -2.8680 C   0  0  2  0  0  0  0  0  0  0  0  0
    0.8950   13.3090   -3.2070 C   0  0  1  0  0  0  0  0  0  0  0  0
   -2.7370   14.6040   -4.1730 N   0  0  0  0  0  0  0  0  0  0  0  0
   -2.8870   14.4880   -1.6710 N   0  0  0  0  0  0  0  0  0  0  0  0
    0.7300   11.9540   -2.4070 C   0  0  1  0  0  0  0  0  0  0  0  0
   -4.1680   14.7390   -4.3650 C   0  0  0  0  0  0  0  0  0  0  0  0
   -4.1350   15.2090   -1.5210 C   0  0  0  0  0  0  0  0  0  0  0  0
   -2.1700   14.4830   -0.4090 C   0  0  1  0  0  0  0  0  0  0  0  0
   -1.8990   15.1230   -5.2190 C   0  0  1  0  0  0  0  0  0  0  0  0
    0.3970   13.5040   -4.6260 C   0  0  1  0  0  0  0  0  0  0  0  0
   -0.0830   12.1680   -1.2830 O   0  0  0  0  0  0  0  0  0  0  0  0
    0.1820   10.9300   -3.0280 O   0  0  0  0  0  0  0  0  0  0  0  0
   -0.8500   14.9110   -0.5110 O   0  0  0  0  0  0  0  0  0  0  0  0
   -4.1970   15.4150   -0.0100 C   0  0  0  0  0  0  0  0  0  0  0  0
   -2.7940   15.5020    0.3960 N   0  0  0  0  0  0  0  0  0  0  0  0
   -2.2530   16.6010   -5.5510 C   0  0  0  0  0  0  0  0  0  0  0  0
   -0.3770   14.7000   -5.2940 C   0  0  2  0  0  0  0  0  0  0  0  0
    1.7270   13.9690   -5.1190 C   0  0  0  0  0  0  0  0  0  0  0  0
    0.6460   15.8840   -5.2660 C   0  0  2  0  0  0  0  0  0  0  0  0
   -1.1280   17.6580   -5.5800 C   0  0  0  0  0  0  0  0  0  0  0  0
    1.7960   15.3510   -4.5910 N   0  0  0  0  0  0  0  0  0  0  0  0
    0.1600   17.2730   -4.8420 C   0  0  0  0  0  0  0  0  0  0  0  0
  2  1  1  6
  2  3  1  0
  2  4  1  0
  5  3  1  1
  4  6  1  0
  4  7  1  1
  5  8  1  0
  6  9  1  0
  7 10  1  0
  7 11  1  0
  6 12  1  0
  5 13  1  0
  8 14  1  1
  8 15  1  0
 11 16  1  6
 10 17  1  0
 11 18  1  0
 17 18  1  0
 12 19  1  1
 20 12  1  1
 13 20  1  0
 13 21  1  6
 20 22  1  0
 19 23  1  0
 21 24  1  0
 22 24  1  0
 22 25  1  1
 23 25  1  0
M  CHG  1  15  -1
M  END
