ucsf017-ucsf173
     RDKit          3D

 26 30  0  0  0  0  0  0  0  0999 V2000
    1.2050   13.0130   -2.9160 O   0  0  0  0  0  0  0  0  0  0  0  0
    0.5720   12.5330   -4.0600 C   0  0  1  0  0  0  0  0  0  0  0  0
    0.3640   11.1990   -3.8180 O   0  0  0  0  0  0  0  0  0  0  0  0
   -0.8550   13.1870   -4.2080 C   0  0  2  0  0  0  0  0  0  0  0  0
   -1.0470   12.8760   -5.5900 C   0  0  0  0  0  0  0  0  0  0  0  0
   -0.4700   14.9220   -3.8140 S   0  0  0  0  0  0  0  0  0  0  0  0
   -1.8620   12.2180   -3.4500 C   0  0  0  0  0  0  0  0  0  0  0  0
   -1.6380   12.9520   -4.5550 O   0  0  0  0  0  0  0  0  0  0  0  0
   -1.9550   14.2670   -4.1350 C   0  0  0  0  0  0  0  0  0  0  0  0
   -0.9770   11.8820   -2.3000 C   0  0  0  0  0  0  0  0  0  0  0  0
   -0.2360   14.2550   -2.1240 N   0  0  0  0  0  0  0  0  0  0  0  0
   -0.1320   15.8260   -5.3260 C   0  0  0  0  0  0  0  0  0  0  0  0
    0.4490   16.5270   -3.6330 C   0  0  0  0  0  0  0  0  0  0  0  0
    0.1050   12.8230   -2.0680 C   0  0  0  0  0  0  0  0  0  0  0  0
   -0.7160   14.5760   -0.9270 C   0  0  2  0  0  0  0  0  0  0  0  0
   -1.0700   17.0090   -5.6250 C   0  0  0  0  0  0  0  0  0  0  0  0
   -0.0290   17.8650   -4.1840 C   0  0  0  0  0  0  0  0  0  0  0  0
   -0.0740   13.7060    0.0190 N   0  0  0  0  0  0  0  0  0  0  0  0
   -2.2070   14.7880   -0.6770 C   0  0  2  0  0  0  0  0  0  0  0  0
   -0.1010   18.0430   -5.6710 C   0  0  0  0  0  0  0  0  0  0  0  0
   -0.3000   14.2060    1.3290 C   0  0  0  0  0  0  0  0  0  0  0  0
   -2.3600   15.1430    0.8420 C   0  0  2  0  0  0  0  0  0  0  0  0
   -3.1730   13.6650   -0.6720 C   0  0  0  0  0  0  0  0  0  0  0  0
   -1.6500   14.2860    1.6490 N   0  0  0  0  0  0  0  0  0  0  0  0
   -3.7740   15.0360    1.0920 N   0  0  0  0  0  0  0  0  0  0  0  0
   -4.3590   14.4690   -0.0900 C   0  0  0  0  0  0  0  0  0  0  0  0
  2  1  1  1
  2  3  1  0
  2  4  1  0
  4  5  1  6
  4  6  1  0
  4  7  1  0
  5  8  1  0
  6  9  1  0
  8  9  1  0
  7 10  1  0
  6 11  1  0
  6 12  1  0
  6 13  1  0
 10 14  1  0
 11 14  1  0
 15 11  1  6
 12 16  1  0
 13 17  1  0
 15 18  1  0
 15 19  1  0
 16 20  1  0
 17 20  1  0
 18 21  1  0
 19 22  1  0
 19 23  1  1
 21 24  1  0
 22 24  1  1
 22 25  1  0
 23 26  1  0
 25 26  1  0
M  CHG  1   1  -1
M  END
