ucsf170-ucsf336
     RDKit          3D

 21 22  0  0  0  0  0  0  0  0999 V2000
   -4.8280   15.1030    1.1750 C   0  0  0  0  0  0  0  0  0  0  0  0
   -3.0290   15.2270    1.2140 S   0  0  0  0  0  0  0  0  0  0  0  0
   -2.5460   15.3470   -0.5640 C   0  0  1  0  0  0  0  0  0  0  0  0
   -1.2900   14.5690   -0.9900 C   0  0  0  0  0  0  0  0  0  0  0  0
   -3.7560   15.1800   -1.5030 C   0  0  0  0  0  0  0  0  0  0  0  0
   -1.3540   13.9960   -2.4200 C   0  0  2  0  0  0  0  0  0  0  0  0
   -3.4640   15.2070   -3.0020 C   0  0  0  0  0  0  0  0  0  0  0  0
   -0.0640   13.2900   -2.9840 C   0  0  2  0  0  0  0  0  0  0  0  0
   -1.9890   15.0500   -3.3440 C   0  0  2  0  0  0  0  0  0  0  0  0
   -1.9190   14.6850   -4.7270 O   0  0  0  0  0  0  0  0  0  0  0  0
    0.9140   13.2010   -1.9530 O   0  0  0  0  0  0  0  0  0  0  0  0
    0.5490   14.0970   -3.8310 O   0  0  0  0  0  0  0  0  0  0  0  0
   -0.3060   11.8670   -3.7100 C   0  0  2  0  0  0  0  0  0  0  0  0
    0.3340   10.8320   -2.9730 O   0  0  0  0  0  0  0  0  0  0  0  0
    0.0960   11.7040   -5.1150 N   0  0  0  0  0  0  0  0  0  0  0  0
   -0.9050   11.0130   -5.9680 C   0  0  0  0  0  0  0  0  0  0  0  0
   -0.2840    9.9700   -6.9140 C   0  0  0  0  0  0  0  0  0  0  0  0
   -1.9470   10.2830   -5.0950 C   0  0  0  0  0  0  0  0  0  0  0  0
   -1.2830    9.4070   -7.9200 C   0  0  0  0  0  0  0  0  0  0  0  0
   -2.5380    9.0270   -5.7430 C   0  0  0  0  0  0  0  0  0  0  0  0
   -2.6290    9.1120   -7.2650 C   0  0  0  0  0  0  0  0  0  0  0  0
  1  2  1  0
  3  2  1  1
  3  4  1  0
  3  5  1  0
  6  4  1  1
  5  7  1  0
  6  8  1  0
  6  9  1  0
  7  9  1  0
  9 10  1  6
  8 11  1  1
  8 12  1  0
  8 13  1  0
 13 14  1  1
 13 15  1  0
 15 16  1  0
 16 17  1  0
 16 18  1  0
 17 19  1  0
 18 20  1  0
 19 21  1  0
 20 21  1  0
M  CHG  1  12  -1
M  END
