ucsf260-ucsf109
     RDKit          3D

 30 34  0  0  0  0  0  0  0  0999 V2000
    0.9100   11.0220   -2.7250 O   0  0  0  0  0  0  0  0  0  0  0  0
    0.5090   12.2450   -2.9970 C   0  0  1  0  0  0  0  0  0  0  0  0
    0.9080   13.0560   -1.8920 O   0  0  0  0  0  0  0  0  0  0  0  0
    1.2170   12.7760   -4.2860 C   0  0  0  0  0  0  0  0  0  0  0  0
    0.2450   13.2670   -5.3850 C   0  0  0  0  0  0  0  0  0  0  0  0
   -0.1540   13.8280   -1.3280 C   0  0  0  0  0  0  0  0  0  0  0  0
   -1.5390   13.1560   -1.4190 C   0  0  0  0  0  0  0  0  0  0  0  0
   -0.7310   12.3150   -5.9580 N   0  0  0  0  0  0  0  0  0  0  0  0
   -2.3910   13.5160   -2.6650 C   0  0  0  0  0  0  0  0  0  0  0  0
   -1.7520   11.9230   -5.0020 C   0  0  0  0  0  0  0  0  0  0  0  0
   -0.1220   11.0580   -6.3640 C   0  0  1  0  0  0  0  0  0  0  0  0
   -2.3770   10.7300   -5.5660 N   0  0  0  0  0  0  0  0  0  0  0  0
   -1.2410   10.0180   -6.1530 C   0  0  1  0  0  0  0  0  0  0  0  0
    0.4920   10.9740   -7.7660 C   0  0  0  0  0  0  0  0  0  0  0  0
   -3.3360   14.7060   -2.4970 C   0  0  2  0  0  0  0  0  0  0  0  0
   -1.5780    9.2560   -7.4250 C   0  0  0  0  0  0  0  0  0  0  0  0
    0.7850    9.5530   -8.2750 C   0  0  0  0  0  0  0  0  0  0  0  0
   -3.2840   15.2960   -1.0960 C   0  0  0  0  0  0  0  0  0  0  0  0
   -4.8490   14.4450   -2.7270 C   0  0  0  0  0  0  0  0  0  0  0  0
   -0.3430    8.5660   -8.0010 C   0  0  0  0  0  0  0  0  0  0  0  0
   -5.5230   14.9230   -1.4190 C   0  0  2  0  0  0  0  0  0  0  0  0
   -4.4230   14.6050   -0.4240 C   0  0  2  0  0  0  0  0  0  0  0  0
   -4.7730   15.0390    0.9690 C   0  0  2  0  0  0  0  0  0  0  0  0
   -6.7930   14.2320   -1.1020 N   0  0  0  0  0  0  0  0  0  0  0  0
   -4.0150   14.2700    1.9090 N   0  0  0  0  0  0  0  0  0  0  0  0
   -6.2180   14.8990    1.1350 N   0  0  0  0  0  0  0  0  0  0  0  0
   -6.8390   13.8880    0.3050 C   0  0  1  0  0  0  0  0  0  0  0  0
   -8.2040   13.9990    0.7620 N   0  0  0  0  0  0  0  0  0  0  0  0
   -6.7850   14.7560    2.4790 N   0  0  0  0  0  0  0  0  0  0  0  0
   -8.0470   14.0740    2.2180 C   0  0  0  0  0  0  0  0  0  0  0  0
  2  1  1  1
  2  3  1  0
  2  4  1  0
  4  5  1  0
  3  6  1  0
  6  7  1  0
  5  8  1  0
  7  9  1  0
  8 10  1  0
  8 11  1  0
 10 12  1  0
 11 13  1  0
 12 13  1  0
 11 14  1  6
 15  9  1  1
 13 16  1  6
 14 17  1  0
 15 18  1  0
 15 19  1  0
 16 20  1  0
 17 20  1  0
 21 19  1  6
 22 18  1  6
 21 22  1  0
 22 23  1  0
 21 24  1  0
 23 25  1  1
 23 26  1  0
 27 24  1  6
 26 27  1  0
 27 28  1  0
 26 29  1  0
 28 30  1  0
 29 30  1  0
M  CHG  1   1  -1
M  END
