ucsf371-ucsf262
     RDKit          3D

 22 24  0  0  0  0  0  0  0  0999 V2000
   -5.2000   14.8890    0.8510 C   0  0  0  0  0  0  0  0  0  0  0  0
   -4.7460   15.4080   -0.4970 C   0  0  2  0  0  0  0  0  0  0  0  0
   -5.1100   14.4840   -1.5500 N   0  0  0  0  0  0  0  0  0  0  0  0
   -2.9620   15.5680   -0.5180 S   0  0  0  0  0  0  0  0  0  0  0  0
   -4.2500   14.6770   -2.7160 C   0  0  0  0  0  0  0  0  0  0  0  0
   -2.9590   15.3870   -2.3340 C   0  0  2  0  0  0  0  0  0  0  0  0
   -1.6780   14.7150   -2.7440 C   0  0  1  0  0  0  0  0  0  0  0  0
   -1.6070   14.4620   -4.1400 O   0  0  0  0  0  0  0  0  0  0  0  0
   -0.7050   15.5730   -2.3170 O   0  0  0  0  0  0  0  0  0  0  0  0
    0.1460   16.0110   -3.3020 C   0  0  1  0  0  0  0  0  0  0  0  0
    1.2400   15.0210   -3.5720 C   0  0  2  0  0  0  0  0  0  0  0  0
   -0.3410   16.0310   -4.7360 C   0  0  2  0  0  0  0  0  0  0  0  0
    1.9540   14.4560   -2.2830 C   0  0  2  0  0  0  0  0  0  0  0  0
    0.9610   16.5640   -5.2870 C   0  0  2  0  0  0  0  0  0  0  0  0
    2.0010   15.9040   -4.4760 N   0  0  0  0  0  0  0  0  0  0  0  0
   -1.6140   16.7170   -5.2580 C   0  0  1  0  0  0  0  0  0  0  0  0
   -3.1860   15.9370   -4.9490 Cl  0  0  0  0  0  0  0  0  0  0  0  0
    3.2560   14.3870   -2.4340 O   0  0  0  0  0  0  0  0  0  0  0  0
    1.5890   13.0890   -2.1360 O   0  0  0  0  0  0  0  0  0  0  0  0
   -1.5190   18.2070   -5.0890 C   0  0  0  0  0  0  0  0  0  0  0  0
    0.9990   18.0940   -5.4040 C   0  0  0  0  0  0  0  0  0  0  0  0
   -0.3350   18.6310   -5.9530 C   0  0  0  0  0  0  0  0  0  0  0  0
  2  1  1  1
  2  3  1  0
  2  4  1  0
  3  5  1  0
  4  6  1  0
  6  5  1  1
  6  7  1  0
  7  8  1  6
  7  9  1  0
 10  9  1  1
 10 11  1  0
 10 12  1  0
 11 13  1  0
 12 14  1  0
 11 15  1  6
 14 15  1  0
 12 16  1  1
 16 17  1  1
 13 18  1  6
 13 19  1  0
 16 20  1  0
 14 21  1  1
 20 22  1  0
 21 22  1  0
M  CHG  1  18  -1
M  END
