ucsf345-ucsf404
     RDKit          3D

 12 13  0  0  0  0  0  0  0  0999 V2000
   -6.3350   13.6030    0.3520 C   0  0  0  0  0  0  0  0  0  0  0  0
   -7.5990   14.2680    0.1620 O   0  0  0  0  0  0  0  0  0  0  0  0
   -5.1930   14.4220   -0.3160 C   0  0  2  0  0  0  0  0  0  0  0  0
   -5.4360   14.6480   -1.7500 N   0  0  0  0  0  0  0  0  0  0  0  0
   -3.7600   13.8560    0.0020 C   0  0  1  0  0  0  0  0  0  0  0  0
   -5.1840   15.6800    0.4050 N   0  0  0  0  0  0  0  0  0  0  0  0
   -6.9790   15.3850   -2.1370 Cl  0  0  0  0  0  0  0  0  0  0  0  0
   -4.3050   15.3030   -2.3980 C   0  0  0  0  0  0  0  0  0  0  0  0
   -2.6530   14.4000   -0.7800 N   0  0  0  0  0  0  0  0  0  0  0  0
   -4.8470   15.3500    1.7910 C   0  0  0  0  0  0  0  0  0  0  0  0
   -3.4590   14.2250    1.7430 S   0  0  0  0  0  0  0  0  0  0  0  0
   -2.9990   14.5410   -2.1870 C   0  0  0  0  0  0  0  0  0  0  0  0
  1  2  1  0
  3  1  1  1
  3  4  1  0
  3  5  1  0
  3  6  1  0
  4  7  1  0
  4  8  1  0
  5  9  1  6
  6 10  1  0
  5 11  1  0
 10 11  1  0
  8 12  1  0
  9 12  1  0
M  END
