ucsf028-ucsf012
     RDKit          3D

 20 22  0  0  0  0  0  0  0  0999 V2000
   -4.6080   15.2730    1.1950 N   0  0  0  0  0  0  0  0  0  0  0  0
   -3.7410   14.4880    0.3120 C   0  0  2  0  0  0  0  0  0  0  0  0
   -2.2620   14.8390    0.5030 C   0  0  2  0  0  0  0  0  0  0  0  0
   -4.2210   14.6940   -1.0600 N   0  0  0  0  0  0  0  0  0  0  0  0
   -5.4530   15.4740   -1.0800 C   0  0  0  0  0  0  0  0  0  0  0  0
   -3.2960   15.1330   -2.1370 C   0  0  2  0  0  0  0  0  0  0  0  0
   -1.4680   14.2790   -0.6440 C   0  0  1  0  0  0  0  0  0  0  0  0
   -1.4840   14.3440    1.6310 N   0  0  0  0  0  0  0  0  0  0  0  0
   -3.8510   14.9800   -3.5650 C   0  0  0  0  0  0  0  0  0  0  0  0
   -1.9230   14.5910   -1.9710 N   0  0  0  0  0  0  0  0  0  0  0  0
   -0.1720   14.8010   -0.2910 N   0  0  0  0  0  0  0  0  0  0  0  0
   -0.1150   14.3820    1.1090 C   0  0  0  0  0  0  0  0  0  0  0  0
   -0.8880   14.8730   -2.9960 C   0  0  0  0  0  0  0  0  0  0  0  0
   -0.2070   13.6240   -3.6220 C   0  0  2  0  0  0  0  0  0  0  0  0
   -1.0440   12.8200   -4.6040 C   0  0  0  0  0  0  0  0  0  0  0  0
    0.1840   12.6960   -2.5990 O   0  0  0  0  0  0  0  0  0  0  0  0
    0.2230   11.3790   -3.2270 N   0  0  0  0  0  0  0  0  0  0  0  0
   -0.9140   11.3770   -4.1370 C   0  0  2  0  0  0  0  0  0  0  0  0
   -0.6730   10.4600   -5.1980 O   0  0  0  0  0  0  0  0  0  0  0  0
   -0.2220   11.0570   -6.4070 C   0  0  0  0  0  0  0  0  0  0  0  0
  2  1  1  1
  2  3  1  0
  2  4  1  0
  4  5  1  0
  4  6  1  0
  3  7  1  0
  3  8  1  1
  6  9  1  6
  6 10  1  0
  7 10  1  0
  7 11  1  6
  8 12  1  0
 11 12  1  0
 10 13  1  0
 14 13  1  1
 14 15  1  0
 14 16  1  0
 16 17  1  0
 15 18  1  0
 17 18  1  0
 18 19  1  6
 19 20  1  0
M  END
