ucsf493-ucsf138
     RDKit          3D

 25 27  0  0  0  0  0  0  0  0999 V2000
   -4.4990   15.1950   -5.6470 C   0  0  0  0  0  0  0  0  0  0  0  0
   -3.7080   16.1630   -4.9570 O   0  0  0  0  0  0  0  0  0  0  0  0
   -2.3820   16.0810   -5.3660 C   0  0  2  0  0  0  0  0  0  0  0  0
   -1.8080   14.9310   -4.5670 C   0  0  0  0  0  0  0  0  0  0  0  0
   -1.5780   17.4120   -5.2800 C   0  0  0  0  0  0  0  0  0  0  0  0
   -0.3380   14.8340   -4.8470 C   0  0  1  0  0  0  0  0  0  0  0  0
   -0.0350   17.2830   -5.2670 C   0  0  0  0  0  0  0  0  0  0  0  0
    0.4120   16.0770   -4.4530 C   0  0  2  0  0  0  0  0  0  0  0  0
    0.4470   13.7850   -4.0940 C   0  0  1  0  0  0  0  0  0  0  0  0
   -0.1560   12.3250   -4.1470 C   0  0  2  0  0  0  0  0  0  0  0  0
    1.8000   15.6640   -4.6310 N   0  0  0  0  0  0  0  0  0  0  0  0
    1.8020   14.1530   -4.6640 C   0  0  0  0  0  0  0  0  0  0  0  0
   -0.2390   11.6070   -2.6960 C   0  0  1  0  0  0  0  0  0  0  0  0
    0.4930   11.3870   -5.1410 N   0  0  0  0  0  0  0  0  0  0  0  0
    0.4680   10.3750   -2.6390 O   0  0  0  0  0  0  0  0  0  0  0  0
    0.3230   12.2460   -1.6790 O   0  0  0  0  0  0  0  0  0  0  0  0
    0.6070   11.6720   -6.5640 C   0  0  1  0  0  0  0  0  0  0  0  0
    1.9060   11.8990   -6.9520 O   0  0  0  0  0  0  0  0  0  0  0  0
    0.1280   10.4870   -7.2870 N   0  0  0  0  0  0  0  0  0  0  0  0
    0.7940   10.1770   -8.5880 C   0  0  0  0  0  0  0  0  0  0  0  0
   -0.0880   10.3320   -9.8420 C   0  0  0  0  0  0  0  0  0  0  0  0
    1.3640    8.7400   -8.5360 C   0  0  0  0  0  0  0  0  0  0  0  0
    0.5450    9.7750  -11.1350 C   0  0  0  0  0  0  0  0  0  0  0  0
    1.9860    8.1800   -9.8290 C   0  0  0  0  0  0  0  0  0  0  0  0
    1.0730    8.3470  -11.0250 C   0  0  0  0  0  0  0  0  0  0  0  0
  1  2  1  0
  3  2  1  1
  3  4  1  0
  3  5  1  0
  6  4  1  1
  5  7  1  0
  6  8  1  0
  8  7  1  6
  6  9  1  0
  9 10  1  0
  8 11  1  0
  9 12  1  6
 11 12  1  0
 10 13  1  0
 10 14  1  6
 13 15  1  6
 13 16  1  0
 14 17  1  0
 17 18  1  6
 17 19  1  0
 19 20  1  0
 20 21  1  0
 20 22  1  0
 21 23  1  0
 22 24  1  0
 23 25  1  0
 24 25  1  0
M  CHG  1  16  -1
M  END
