ucsf114-ucsf357
     RDKit          3D

 21 22  0  0  0  0  0  0  0  0999 V2000
    0.7350   18.1380   -4.5290 C   0  0  0  0  0  0  0  0  0  0  0  0
   -0.3130   17.5650   -5.4710 C   0  0  0  0  0  0  0  0  0  0  0  0
   -1.6060   18.3840   -5.4630 C   0  0  0  0  0  0  0  0  0  0  0  0
   -0.5850   16.2350   -5.0300 O   0  0  0  0  0  0  0  0  0  0  0  0
    0.5940   15.5000   -4.6550 C   0  0  0  0  0  0  0  0  0  0  0  0
    0.1820   14.1960   -3.9430 C   0  0  0  0  0  0  0  0  0  0  0  0
   -0.0690   14.4380   -2.5060 N   0  0  0  0  0  0  0  0  0  0  0  0
   -1.3840   13.9730   -1.9500 C   0  0  1  0  0  0  0  0  0  0  0  0
    1.0750   14.4870   -1.6270 C   0  0  2  0  0  0  0  0  0  0  0  0
    2.6590   13.7950   -2.1810 S   0  0  0  0  0  0  0  0  0  0  0  0
   -1.6160   14.1430   -0.4030 C   0  0  1  0  0  0  0  0  0  0  0  0
    0.7470   13.9840   -0.3360 N   0  0  0  0  0  0  0  0  0  0  0  0
   -2.5430   14.8240   -2.4500 C   0  0  2  0  0  0  0  0  0  0  0  0
   -2.0570   16.1540   -2.4020 O   0  0  0  0  0  0  0  0  0  0  0  0
   -0.3510   14.7070    0.2350 C   0  0  2  0  0  0  0  0  0  0  0  0
   -2.8180   14.9800   -0.1900 N   0  0  0  0  0  0  0  0  0  0  0  0
   -3.5730   14.4820   -1.3480 C   0  0  1  0  0  0  0  0  0  0  0  0
   -0.3090   14.5280    1.6430 O   0  0  0  0  0  0  0  0  0  0  0  0
   -5.0780   14.8970   -1.4680 C   0  0  2  0  0  0  0  0  0  0  0  0
   -5.2330   15.7760   -2.4160 O   0  0  0  0  0  0  0  0  0  0  0  0
   -5.5540   15.5840   -0.3270 O   0  0  0  0  0  0  0  0  0  0  0  0
  1  2  1  0
  2  3  1  0
  2  4  1  0
  4  5  1  0
  5  6  1  0
  6  7  1  0
  8  7  1  1
  7  9  1  0
  9 10  1  6
  8 11  1  0
  9 12  1  0
  8 13  1  0
 13 14  1  1
 11 15  1  0
 12 15  1  0
 11 16  1  6
 13 17  1  0
 17 16  1  1
 15 18  1  1
 17 19  1  0
 19 20  1  6
 19 21  1  0
M  CHG  1  20  -1
M  END
