ucsf005-ucsf173
     RDKit          3D

 26 29  0  0  0  0  0  0  0  0999 V2000
   -2.0820   13.9910   -3.0990 C   0  0  0  0  0  0  0  0  0  0  0  0
   -2.9730   14.3710   -2.0350 N   0  0  0  0  0  0  0  0  0  0  0  0
   -4.1490   15.0620   -2.5200 C   0  0  0  0  0  0  0  0  0  0  0  0
   -2.4270   15.3950   -1.1990 C   0  0  1  0  0  0  0  0  0  0  0  0
   -4.7610   15.6120   -1.3000 N   0  0  0  0  0  0  0  0  0  0  0  0
   -3.6500   15.6120   -0.3310 C   0  0  1  0  0  0  0  0  0  0  0  0
   -1.2840   14.9550   -0.4800 N   0  0  0  0  0  0  0  0  0  0  0  0
   -3.6920   14.6930    0.8640 C   0  0  2  0  0  0  0  0  0  0  0  0
   -1.3470   15.3130    0.9010 C   0  0  2  0  0  0  0  0  0  0  0  0
   -4.8160   15.0600    1.6900 N   0  0  0  0  0  0  0  0  0  0  0  0
   -0.2080   14.6870    1.3800 N   0  0  0  0  0  0  0  0  0  0  0  0
   -2.4760   14.8100    1.6270 N   0  0  0  0  0  0  0  0  0  0  0  0
    0.1500   13.6450    0.4750 C   0  0  0  0  0  0  0  0  0  0  0  0
    0.8030   13.9920   -0.8860 C   0  0  0  0  0  0  0  0  0  0  0  0
    0.0590   13.4140   -1.9690 O   0  0  0  0  0  0  0  0  0  0  0  0
    0.7770   12.8790   -3.0560 C   0  0  1  0  0  0  0  0  0  0  0  0
    0.1650   11.6460   -3.3900 O   0  0  0  0  0  0  0  0  0  0  0  0
    0.7370   13.8560   -4.2560 C   0  0  1  0  0  0  0  0  0  0  0  0
   -0.6490   14.1800   -4.8490 C   0  0  0  0  0  0  0  0  0  0  0  0
    1.3670   15.2230   -3.9420 C   0  0  0  0  0  0  0  0  0  0  0  0
   -1.0580   15.5750   -4.3180 C   0  0  1  0  0  0  0  0  0  0  0  0
    0.2760   16.3080   -4.0580 C   0  0  2  0  0  0  0  0  0  0  0  0
   -2.1410   16.2780   -5.1820 C   0  0  0  0  0  0  0  0  0  0  0  0
    0.6220   17.3890   -5.0670 C   0  0  0  0  0  0  0  0  0  0  0  0
   -1.7710   17.6130   -5.8260 C   0  0  0  0  0  0  0  0  0  0  0  0
   -0.5570   18.3090   -5.2510 C   0  0  0  0  0  0  0  0  0  0  0  0
  1  2  1  0
  2  3  1  0
  2  4  1  0
  3  5  1  0
  4  6  1  0
  6  5  1  6
  4  7  1  1
  6  8  1  0
  7  9  1  0
  8 10  1  1
  9 11  1  1
  8 12  1  0
  9 12  1  0
 11 13  1  0
 13 14  1  0
 14 15  1  0
 15 16  1  0
 16 17  1  6
 16 18  1  0
 18 19  1  1
 18 20  1  0
 21 19  1  6
 22 20  1  6
 21 22  1  0
 21 23  1  0
 22 24  1  0
 23 25  1  0
 24 26  1  0
 25 26  1  0
M  END
