ucsf403-ucsf387
     RDKit          3D

 22 23  0  0  0  0  0  0  0  0999 V2000
    0.9260    9.6170   -7.9270 Cl  0  0  0  0  0  0  0  0  0  0  0  0
   -0.6380    9.9060   -7.0910 C   0  0  2  0  0  0  0  0  0  0  0  0
   -0.7390   11.1920   -6.2180 C   0  0  0  0  0  0  0  0  0  0  0  0
   -1.0680    8.6570   -6.3170 C   0  0  0  0  0  0  0  0  0  0  0  0
    0.5270   11.6260   -5.6350 O   0  0  0  0  0  0  0  0  0  0  0  0
   -1.8350   10.9820   -5.1370 C   0  0  1  0  0  0  0  0  0  0  0  0
   -2.5430    8.6860   -5.9220 C   0  0  0  0  0  0  0  0  0  0  0  0
   -2.5900   12.5500   -4.6600 Cl  0  0  0  0  0  0  0  0  0  0  0  0
    0.3770   12.5870   -4.5370 C   0  0  1  0  0  0  0  0  0  0  0  0
   -3.0010   10.0850   -5.5780 C   0  0  0  0  0  0  0  0  0  0  0  0
    1.3240   12.2110   -3.3670 C   0  0  1  0  0  0  0  0  0  0  0  0
    0.3190   14.0710   -5.0790 C   0  0  0  0  0  0  0  0  0  0  0  0
    1.3620   13.1370   -2.2930 O   0  0  0  0  0  0  0  0  0  0  0  0
    0.8740   10.9700   -2.8180 O   0  0  0  0  0  0  0  0  0  0  0  0
   -1.2000   14.2840   -5.2290 C   0  0  0  0  0  0  0  0  0  0  0  0
    0.8930   15.2910   -4.3100 C   0  0  0  0  0  0  0  0  0  0  0  0
    0.2620   12.7910   -1.3850 O   0  0  0  0  0  0  0  0  0  0  0  0
   -1.8180   15.6260   -4.8560 C   0  0  2  0  0  0  0  0  0  0  0  0
    0.4890   16.6110   -5.0330 C   0  0  2  0  0  0  0  0  0  0  0  0
    1.0260   18.0560   -4.1610 Cl  0  0  0  0  0  0  0  0  0  0  0  0
   -3.4160   15.6880   -5.6340 Cl  0  0  0  0  0  0  0  0  0  0  0  0
   -1.0020   16.8380   -5.2380 C   0  0  0  0  0  0  0  0  0  0  0  0
  2  1  1  1
  2  3  1  0
  2  4  1  0
  3  5  1  0
  3  6  1  0
  4  7  1  0
  6  8  1  6
  9  5  1  6
  6 10  1  0
  7 10  1  0
  9 11  1  0
  9 12  1  0
 11 13  1  0
 11 14  1  1
 12 15  1  0
 12 16  1  0
 13 17  1  0
 15 18  1  0
 16 19  1  0
 19 20  1  1
 18 21  1  6
 18 22  1  0
 19 22  1  0
M  END
