ucsf151-ucsf243
     RDKit          3D

 18 19  0  0  0  0  0  0  0  0999 V2000
    0.2110   13.1910   -1.9640 O   0  0  0  0  0  0  0  0  0  0  0  0
   -0.3390   14.2320   -2.5750 C   0  0  1  0  0  0  0  0  0  0  0  0
    0.5300   15.2890   -2.2310 O   0  0  0  0  0  0  0  0  0  0  0  0
   -0.3080   14.0490   -4.1280 C   0  0  2  0  0  0  0  0  0  0  0  0
   -1.7930   14.5470   -2.0550 C   0  0  1  0  0  0  0  0  0  0  0  0
   -0.9690   15.2200   -4.9040 C   0  0  0  0  0  0  0  0  0  0  0  0
   -0.8320   12.6590   -4.6340 C   0  0  0  0  0  0  0  0  0  0  0  0
   -2.0170   15.3540   -0.7640 C   0  0  0  0  0  0  0  0  0  0  0  0
   -2.7880   14.9700   -3.1400 C   0  0  2  0  0  0  0  0  0  0  0  0
   -2.5260   16.2680   -3.6530 O   0  0  0  0  0  0  0  0  0  0  0  0
   -2.3710   14.8970   -5.4840 C   0  0  2  0  0  0  0  0  0  0  0  0
   -2.1910   12.5430   -5.2520 N   0  0  0  0  0  0  0  0  0  0  0  0
   -3.4480   15.0970   -0.2370 C   0  0  1  0  0  0  0  0  0  0  0  0
   -4.2430   14.8800   -2.6820 C   0  0  0  0  0  0  0  0  0  0  0  0
   -3.1820   16.0800   -5.4600 O   0  0  0  0  0  0  0  0  0  0  0  0
   -3.7430   15.7740    1.0970 C   0  0  0  0  0  0  0  0  0  0  0  0
   -3.0200   13.6770   -4.8660 C   0  0  0  0  0  0  0  0  0  0  0  0
   -4.5350   15.3970   -1.2750 C   0  0  0  0  0  0  0  0  0  0  0  0
  2  1  1  1
  2  3  1  0
  2  4  1  0
  2  5  1  0
  4  6  1  6
  4  7  1  0
  5  8  1  1
  5  9  1  0
  9 10  1  1
  6 11  1  0
  7 12  1  0
  8 13  1  0
  9 14  1  0
 11 15  1  1
 13 16  1  1
 11 17  1  0
 12 17  1  0
 13 18  1  0
 14 18  1  0
M  CHG  1   1  -1
M  END
