ucsf403-ucsf190
     RDKit          3D

 24 26  0  0  0  0  0  0  0  0999 V2000
    0.9940    9.6150   -7.8730 Cl  0  0  0  0  0  0  0  0  0  0  0  0
   -0.6530    9.8920   -7.1950 C   0  0  2  0  0  0  0  0  0  0  0  0
   -0.7440   11.2050   -6.3410 C   0  0  2  0  0  0  0  0  0  0  0  0
   -1.0930    8.6010   -6.5080 C   0  0  0  0  0  0  0  0  0  0  0  0
    0.5260   11.5710   -5.7110 O   0  0  0  0  0  0  0  0  0  0  0  0
   -2.0440   11.2180   -5.4370 C   0  0  2  0  0  0  0  0  0  0  0  0
   -2.5110    8.7410   -6.0200 C   0  0  0  0  0  0  0  0  0  0  0  0
   -1.9640   12.2030   -3.9120 Cl  0  0  0  0  0  0  0  0  0  0  0  0
    0.4910   12.1060   -4.3430 C   0  0  1  0  0  0  0  0  0  0  0  0
   -2.5810    9.8550   -4.9930 C   0  0  0  0  0  0  0  0  0  0  0  0
    1.4630   11.4470   -3.3600 C   0  0  1  0  0  0  0  0  0  0  0  0
    0.5790   13.6740   -4.1720 C   0  0  2  0  0  0  0  0  0  0  0  0
    1.3360   12.0070   -2.1690 O   0  0  0  0  0  0  0  0  0  0  0  0
    1.0070   10.1340   -3.0760 O   0  0  0  0  0  0  0  0  0  0  0  0
   -0.7510   14.3110   -4.5540 C   0  0  1  0  0  0  0  0  0  0  0  0
    1.7560   14.3870   -4.7700 N   0  0  0  0  0  0  0  0  0  0  0  0
   -0.6130   15.7420   -4.9970 C   0  0  2  0  0  0  0  0  0  0  0  0
    1.7860   15.8220   -4.4520 N   0  0  0  0  0  0  0  0  0  0  0  0
   -1.5560   13.5220   -5.5390 C   0  0  0  0  0  0  0  0  0  0  0  0
    0.4660   16.3820   -4.1210 C   0  0  1  0  0  0  0  0  0  0  0  0
   -1.9990   16.4150   -5.1150 C   0  0  0  0  0  0  0  0  0  0  0  0
   -2.9840   14.0340   -5.5640 C   0  0  0  0  0  0  0  0  0  0  0  0
    0.5440   17.7730   -4.3660 O   0  0  0  0  0  0  0  0  0  0  0  0
   -3.1090   15.5500   -5.7430 C   0  0  0  0  0  0  0  0  0  0  0  0
  2  1  1  1
  2  3  1  0
  2  4  1  0
  3  5  1  1
  3  6  1  0
  4  7  1  0
  6  8  1  1
  9  5  1  6
  6 10  1  0
  7 10  1  0
  9 11  1  0
  9 12  1  0
 11 13  1  1
 11 14  1  0
 12 15  1  0
 12 16  1  6
 15 17  1  0
 16 18  1  0
 15 19  1  6
 17 20  1  0
 18 20  1  0
 17 21  1  1
 19 22  1  0
 20 23  1  6
 21 24  1  0
 22 24  1  0
M  CHG  1  13  -1
M  END
