ucsf584-ucsf403
     RDKit          3D

 26 28  0  0  0  0  0  0  0  0999 V2000
    0.5490    9.8820   -8.3370 Cl  0  0  0  0  0  0  0  0  0  0  0  0
   -0.9260   10.3810   -7.4110 C   0  0  2  0  0  0  0  0  0  0  0  0
   -0.6870   11.0790   -6.0390 C   0  0  1  0  0  0  0  0  0  0  0  0
   -1.9190    9.2200   -7.2410 C   0  0  0  0  0  0  0  0  0  0  0  0
    0.4420   11.9920   -6.0910 O   0  0  0  0  0  0  0  0  0  0  0  0
   -1.9620   11.8140   -5.5870 C   0  0  2  0  0  0  0  0  0  0  0  0
   -2.6970    9.3450   -5.9350 C   0  0  0  0  0  0  0  0  0  0  0  0
   -1.9470   12.4790   -4.1910 C   0  0  0  0  0  0  0  0  0  0  0  0
    0.8940   12.6770   -4.8970 C   0  0  0  0  0  0  0  0  0  0  0  0
   -3.1300   10.7940   -5.6760 C   0  0  0  0  0  0  0  0  0  0  0  0
    1.4880   11.8330   -3.7220 C   0  0  1  0  0  0  0  0  0  0  0  0
   -2.3560   13.9620   -4.1690 C   0  0  0  0  0  0  0  0  0  0  0  0
    1.5740   12.5510   -2.6180 O   0  0  0  0  0  0  0  0  0  0  0  0
    0.5620   10.8590   -3.2780 O   0  0  0  0  0  0  0  0  0  0  0  0
   -1.9170   14.6670   -2.8650 C   0  0  0  0  0  0  0  0  0  0  0  0
   -3.0000   15.1440   -1.9780 N   0  0  0  0  0  0  0  0  0  0  0  0
   -2.8240   14.6790   -0.5830 C   0  0  0  0  0  0  0  0  0  0  0  0
   -4.3530   14.9630   -2.5500 C   0  0  0  0  0  0  0  0  0  0  0  0
   -4.0460   14.9740    0.3050 C   0  0  0  0  0  0  0  0  0  0  0  0
   -5.5100   15.2440   -1.5830 C   0  0  0  0  0  0  0  0  0  0  0  0
   -5.3000   14.3850   -0.3430 C   0  0  0  0  0  0  0  0  0  0  0  0
   -6.5170   14.1690    0.6030 C   0  0  0  0  0  0  0  0  0  0  0  0
   -6.4460   14.8640    1.8760 N   0  0  0  0  0  0  0  0  0  0  0  0
   -7.7690   14.6840    0.0420 N   0  0  0  0  0  0  0  0  0  0  0  0
   -8.6890   14.6850    1.1920 C   0  0  0  0  0  0  0  0  0  0  0  0
   -7.7910   14.6960    2.4200 C   0  0  0  0  0  0  0  0  0  0  0  0
  2  1  1  1
  2  3  1  0
  2  4  1  0
  3  5  1  6
  3  6  1  0
  4  7  1  0
  6  8  1  1
  5  9  1  0
  6 10  1  0
  7 10  1  0
  9 11  1  0
  8 12  1  0
 11 13  1  1
 11 14  1  0
 12 15  1  0
 15 16  1  0
 16 17  1  0
 16 18  1  0
 17 19  1  0
 18 20  1  0
 19 21  1  0
 20 21  1  0
 21 22  1  0
 22 23  1  0
 22 24  1  0
 24 25  1  0
 23 26  1  0
 25 26  1  0
M  CHG  1  13  -1
M  END
