ucsf017-ucsf404
     RDKit          3D

 23 27  0  0  0  0  0  0  0  0999 V2000
   -4.2620   15.3390   -2.1110 Cl  0  0  0  0  0  0  0  0  0  0  0  0
   -3.8430   14.1400   -0.8200 C   0  0  1  0  0  0  0  0  0  0  0  0
   -2.3240   14.0030   -0.3820 C   0  0  2  0  0  0  0  0  0  0  0  0
   -4.4300   14.6000    0.5080 C   0  0  1  0  0  0  0  0  0  0  0  0
   -2.3810   14.6820    0.9820 C   0  0  2  0  0  0  0  0  0  0  0  0
   -1.1450   14.4970   -1.2850 C   0  0  2  0  0  0  0  0  0  0  0  0
   -3.5230   15.5580    1.0460 N   0  0  0  0  0  0  0  0  0  0  0  0
   -5.8400   14.9260    0.6970 N   0  0  0  0  0  0  0  0  0  0  0  0
   -4.7340   13.3560    1.7520 S   0  0  0  0  0  0  0  0  0  0  0  0
   -0.6450   13.7510   -2.4340 N   0  0  0  0  0  0  0  0  0  0  0  0
    0.0620   14.7210   -0.4980 N   0  0  0  0  0  0  0  0  0  0  0  0
   -1.2470   15.3900    1.3730 N   0  0  0  0  0  0  0  0  0  0  0  0
   -5.6830   14.8230    2.1310 C   0  0  2  0  0  0  0  0  0  0  0  0
   -6.9120   14.4990    2.7930 N   0  0  0  0  0  0  0  0  0  0  0  0
   -1.6390   13.3950   -3.4380 C   0  0  1  0  0  0  0  0  0  0  0  0
    0.3700   12.7340   -2.0970 C   0  0  0  0  0  0  0  0  0  0  0  0
   -0.0290   14.8290    0.9280 C   0  0  0  0  0  0  0  0  0  0  0  0
   -2.3110   14.5630   -4.1630 C   0  0  0  0  0  0  0  0  0  0  0  0
   -1.1470   12.4930   -4.5770 C   0  0  1  0  0  0  0  0  0  0  0  0
    0.1420   11.3740   -2.7450 C   0  0  0  0  0  0  0  0  0  0  0  0
   -0.8750   13.5260   -5.6460 C   0  0  0  0  0  0  0  0  0  0  0  0
   -1.9570   14.4610   -5.5500 O   0  0  0  0  0  0  0  0  0  0  0  0
    0.0220   11.5700   -4.2380 C   0  0  0  0  0  0  0  0  0  0  0  0
  2  1  1  6
  2  3  1  0
  2  4  1  0
  3  5  1  0
  3  6  1  6
  4  7  1  1
  5  7  1  6
  4  8  1  0
  4  9  1  0
  6 10  1  6
  6 11  1  0
  5 12  1  0
  8 13  1  0
  9 13  1  0
 13 14  1  1
 10 15  1  0
 10 16  1  0
 11 17  1  0
 12 17  1  0
 15 18  1  6
 15 19  1  0
 16 20  1  0
 19 21  1  6
 18 22  1  0
 21 22  1  0
 19 23  1  0
 20 23  1  0
M  END
