ucsf345-ucsf013
     RDKit          3D

 14 15  0  0  0  0  0  0  0  0999 V2000
   -7.7960   15.0580    0.8530 N   0  0  0  0  0  0  0  0  0  0  0  0
   -7.2530   15.2700   -0.4790 C   0  0  2  0  0  0  0  0  0  0  0  0
   -8.3000   14.7540   -1.2830 O   0  0  0  0  0  0  0  0  0  0  0  0
   -5.9280   14.4810   -0.9140 C   0  0  1  0  0  0  0  0  0  0  0  0
   -5.8340   14.4500   -2.4030 N   0  0  0  0  0  0  0  0  0  0  0  0
   -4.5710   14.7540   -0.2310 C   0  0  1  0  0  0  0  0  0  0  0  0
   -6.2220   13.1520   -0.4830 N   0  0  0  0  0  0  0  0  0  0  0  0
   -4.4850   14.5280   -3.0240 C   0  0  0  0  0  0  0  0  0  0  0  0
   -3.6350   15.6310   -0.9390 N   0  0  0  0  0  0  0  0  0  0  0  0
   -4.8080   15.0240    1.2370 C   0  0  2  0  0  0  0  0  0  0  0  0
   -6.3370   13.0880    0.9740 C   0  0  0  0  0  0  0  0  0  0  0  0
   -3.6760   14.5090    1.9620 N   0  0  0  0  0  0  0  0  0  0  0  0
   -3.2710   14.8740   -2.1320 C   0  0  0  0  0  0  0  0  0  0  0  0
   -5.9860   14.3080    1.7160 N   0  0  0  0  0  0  0  0  0  0  0  0
  2  1  1  1
  2  3  1  0
  2  4  1  0
  4  5  1  6
  4  6  1  0
  4  7  1  0
  5  8  1  0
  6  9  1  6
  6 10  1  0
  7 11  1  0
 10 12  1  1
  8 13  1  0
  9 13  1  0
 10 14  1  0
 11 14  1  0
M  END
