ucsf387-ucsf138
     RDKit          3D

 22 23  0  0  0  0  0  0  0  0999 V2000
    0.9850   18.0660   -4.2220 Cl  0  0  0  0  0  0  0  0  0  0  0  0
    0.4410   16.5850   -5.0410 C   0  0  2  0  0  0  0  0  0  0  0  0
   -1.0730   16.7160   -5.1560 C   0  0  0  0  0  0  0  0  0  0  0  0
    0.9450   15.3120   -4.3330 C   0  0  0  0  0  0  0  0  0  0  0  0
    0.4100   14.0560   -5.0770 C   0  0  0  0  0  0  0  0  0  0  0  0
   -1.8050   15.4490   -4.7470 C   0  0  1  0  0  0  0  0  0  0  0  0
   -3.4360   15.4890   -5.4750 Cl  0  0  0  0  0  0  0  0  0  0  0  0
    0.8810   12.6430   -4.5440 C   0  0  1  0  0  0  0  0  0  0  0  0
   -1.1360   14.1240   -5.1400 C   0  0  0  0  0  0  0  0  0  0  0  0
    0.3780   12.4120   -3.0410 C   0  0  1  0  0  0  0  0  0  0  0  0
    0.3040   11.5970   -5.5020 N   0  0  0  0  0  0  0  0  0  0  0  0
    0.3820   11.1410   -2.6720 O   0  0  0  0  0  0  0  0  0  0  0  0
    1.3040   12.9270   -2.1090 O   0  0  0  0  0  0  0  0  0  0  0  0
    1.0070   11.4340   -6.7700 C   0  0  2  0  0  0  0  0  0  0  0  0
    1.9230   12.4540   -6.8920 O   0  0  0  0  0  0  0  0  0  0  0  0
    0.1510   11.3730   -7.9440 N   0  0  0  0  0  0  0  0  0  0  0  0
    0.2510   10.1820   -8.8610 C   0  0  0  0  0  0  0  0  0  0  0  0
    0.6410   10.6670  -10.2730 C   0  0  0  0  0  0  0  0  0  0  0  0
    1.2130    9.0440   -8.4020 C   0  0  0  0  0  0  0  0  0  0  0  0
    0.5240    9.5690  -11.3290 C   0  0  0  0  0  0  0  0  0  0  0  0
    1.8720    8.2920   -9.5760 C   0  0  0  0  0  0  0  0  0  0  0  0
    0.9530    8.2030  -10.7920 C   0  0  0  0  0  0  0  0  0  0  0  0
  2  1  1  1
  2  3  1  0
  2  4  1  0
  4  5  1  0
  3  6  1  0
  6  7  1  6
  5  8  1  0
  5  9  1  0
  6  9  1  0
  8 10  1  0
  8 11  1  6
 10 12  1  1
 10 13  1  0
 11 14  1  0
 14 15  1  6
 14 16  1  0
 16 17  1  0
 17 18  1  0
 17 19  1  0
 18 20  1  0
 19 21  1  0
 20 22  1  0
 21 22  1  0
M  CHG  1  12  -1
M  END
