ucsf264-ucsf170
     RDKit          3D

 27 29  0  0  0  0  0  0  0  0999 V2000
    0.6500   12.7540   -2.3370 O   0  0  0  0  0  0  0  0  0  0  0  0
    0.1910   12.0140   -3.4550 C   0  0  2  0  0  0  0  0  0  0  0  0
    0.4460   10.6470   -3.1840 O   0  0  0  0  0  0  0  0  0  0  0  0
    0.5240   14.1600   -2.5420 C   0  0  0  0  0  0  0  0  0  0  0  0
    0.8140   12.4680   -4.8050 C   0  0  0  0  0  0  0  0  0  0  0  0
   -0.8790   14.6610   -2.1500 C   0  0  2  0  0  0  0  0  0  0  0  0
    0.1640   12.1190   -6.0960 N   0  0  0  0  0  0  0  0  0  0  0  0
   -1.5440   13.8570   -1.0200 C   0  0  0  0  0  0  0  0  0  0  0  0
   -1.8230   14.9680   -3.3430 C   0  0  1  0  0  0  0  0  0  0  0  0
   -1.6160   14.0400   -4.4000 O   0  0  0  0  0  0  0  0  0  0  0  0
    1.1310   11.7300   -7.1430 N   0  0  0  0  0  0  0  0  0  0  0  0
   -0.9910   11.1900   -6.1910 C   0  0  1  0  0  0  0  0  0  0  0  0
   -2.9480   14.3190   -0.5550 C   0  0  1  0  0  0  0  0  0  0  0  0
   -3.3260   14.9670   -3.0300 C   0  0  0  0  0  0  0  0  0  0  0  0
   -2.8720   15.1080    1.1040 S   0  0  0  0  0  0  0  0  0  0  0  0
    0.2880   11.0080   -8.1180 C   0  0  2  0  0  0  0  0  0  0  0  0
   -0.4730   10.1380   -7.1610 C   0  0  2  0  0  0  0  0  0  0  0  0
   -1.5530   10.4520   -4.9760 C   0  0  0  0  0  0  0  0  0  0  0  0
   -3.7150   15.1670   -1.5700 C   0  0  0  0  0  0  0  0  0  0  0  0
    0.9400   10.2630   -9.2880 C   0  0  0  0  0  0  0  0  0  0  0  0
   -4.6440   15.3070    1.3770 C   0  0  0  0  0  0  0  0  0  0  0  0
   -1.6110    9.2850   -7.7010 C   0  0  0  0  0  0  0  0  0  0  0  0
   -2.7120    9.5250   -5.3970 C   0  0  0  0  0  0  0  0  0  0  0  0
    1.6040    9.1460   -8.9280 F   0  0  0  0  0  0  0  0  0  0  0  0
   -0.0020    9.8910  -10.1750 F   0  0  0  0  0  0  0  0  0  0  0  0
    1.7540   11.0670   -9.9930 F   0  0  0  0  0  0  0  0  0  0  0  0
   -2.3540    8.5820   -6.5540 C   0  0  0  0  0  0  0  0  0  0  0  0
  1  2  1  0
  2  3  1  1
  1  4  1  0
  2  5  1  0
  6  4  1  6
  5  7  1  0
  6  8  1  0
  6  9  1  0
  9 10  1  6
  7 11  1  0
  7 12  1  0
  8 13  1  0
  9 14  1  0
 13 15  1  1
 11 16  1  0
 12 17  1  0
 16 17  1  0
 12 18  1  1
 13 19  1  0
 14 19  1  0
 16 20  1  6
 15 21  1  0
 17 22  1  6
 18 23  1  0
 20 24  1  0
 20 25  1  0
 20 26  1  0
 22 27  1  0
 23 27  1  0
M  END
