ucsf170-ucsf493
     RDKit          3D

 25 27  0  0  0  0  0  0  0  0999 V2000
   -5.4280   14.7630    1.1400 C   0  0  0  0  0  0  0  0  0  0  0  0
   -3.7280   15.3490    1.2790 S   0  0  0  0  0  0  0  0  0  0  0  0
   -3.1590   15.1050   -0.4380 C   0  0  1  0  0  0  0  0  0  0  0  0
   -1.7490   14.5250   -0.4310 C   0  0  0  0  0  0  0  0  0  0  0  0
   -4.0820   14.2690   -1.3000 C   0  0  0  0  0  0  0  0  0  0  0  0
   -1.3860   13.8550   -1.7670 C   0  0  2  0  0  0  0  0  0  0  0  0
   -3.6930   14.4550   -2.7630 C   0  0  0  0  0  0  0  0  0  0  0  0
    0.1640   13.8750   -1.9710 C   0  0  1  0  0  0  0  0  0  0  0  0
   -2.1770   14.4670   -2.9620 C   0  0  2  0  0  0  0  0  0  0  0  0
   -1.9160   13.6980   -4.1380 O   0  0  0  0  0  0  0  0  0  0  0  0
    0.7070   13.1160   -0.8830 O   0  0  0  0  0  0  0  0  0  0  0  0
    0.6180   13.3320   -3.2530 N   0  0  0  0  0  0  0  0  0  0  0  0
    0.0580   12.0270   -3.5890 C   0  0  0  0  0  0  0  0  0  0  0  0
    0.6080   14.2690   -4.3780 C   0  0  1  0  0  0  0  0  0  0  0  0
    0.6040   10.9780   -2.8190 O   0  0  0  0  0  0  0  0  0  0  0  0
   -0.4190   15.4280   -4.3680 C   0  0  2  0  0  0  0  0  0  0  0  0
    1.9120   15.0280   -4.3830 C   0  0  0  0  0  0  0  0  0  0  0  0
   -1.6670   15.1100   -5.2070 C   0  0  0  0  0  0  0  0  0  0  0  0
    0.3940   16.6810   -4.7290 C   0  0  1  0  0  0  0  0  0  0  0  0
    1.5990   16.1250   -5.2960 N   0  0  0  0  0  0  0  0  0  0  0  0
   -2.4710   16.3210   -5.6840 C   0  0  1  0  0  0  0  0  0  0  0  0
   -0.3040   17.6890   -5.6290 C   0  0  0  0  0  0  0  0  0  0  0  0
   -3.7010   16.1530   -5.0320 O   0  0  0  0  0  0  0  0  0  0  0  0
   -1.8080   17.6760   -5.3960 C   0  0  0  0  0  0  0  0  0  0  0  0
   -4.4890   15.1640   -5.6920 C   0  0  0  0  0  0  0  0  0  0  0  0
  1  2  1  0
  3  2  1  1
  3  4  1  0
  3  5  1  0
  6  4  1  1
  5  7  1  0
  6  8  1  0
  6  9  1  0
  7  9  1  0
  9 10  1  6
  8 11  1  1
  8 12  1  0
 12 13  1  0
 14 12  1  1
 13 15  1  0
 14 16  1  0
 14 17  1  0
 16 18  1  6
 16 19  1  0
 17 20  1  0
 19 20  1  0
 18 21  1  0
 19 22  1  6
 21 23  1  1
 21 24  1  0
 22 24  1  0
 23 25  1  0
M  END
