ucsf264-ucsf303
     RDKit          3D

 34 37  0  0  0  0  0  0  0  0999 V2000
    0.8520   13.0050   -2.3340 O   0  0  0  0  0  0  0  0  0  0  0  0
    1.2070   12.2580   -3.3610 C   0  0  1  0  0  0  0  0  0  0  0  0
    0.6270   11.0270   -2.9610 O   0  0  0  0  0  0  0  0  0  0  0  0
    0.5920   12.7630   -4.7570 C   0  0  2  0  0  0  0  0  0  0  0  0
   -0.5380   13.8540   -4.6110 C   0  0  0  0  0  0  0  0  0  0  0  0
    0.2870   11.6650   -5.7500 N   0  0  0  0  0  0  0  0  0  0  0  0
   -1.3230   13.8930   -3.2810 C   0  0  0  0  0  0  0  0  0  0  0  0
    1.0740   11.6890   -6.9710 N   0  0  0  0  0  0  0  0  0  0  0  0
   -1.0950   11.3280   -6.0940 C   0  0  1  0  0  0  0  0  0  0  0  0
   -2.7270   13.7030   -3.4980 O   0  0  0  0  0  0  0  0  0  0  0  0
    0.2740   11.1540   -8.0860 C   0  0  2  0  0  0  0  0  0  0  0  0
   -0.9160   10.5020   -7.3890 C   0  0  1  0  0  0  0  0  0  0  0  0
   -1.9670   10.5670   -5.0960 C   0  0  0  0  0  0  0  0  0  0  0  0
    0.9440   10.3320   -9.1980 C   0  0  0  0  0  0  0  0  0  0  0  0
   -3.8830   14.2700   -2.5090 S   0  0  1  0  0  0  0  0  0  0  0  0
   -0.9060    8.9840   -7.1920 C   0  0  0  0  0  0  0  0  0  0  0  0
   -2.9300    9.6260   -5.8270 C   0  0  0  0  0  0  0  0  0  0  0  0
    1.5900    9.2180   -8.7940 F   0  0  0  0  0  0  0  0  0  0  0  0
   -0.0030    9.9270  -10.0770 F   0  0  0  0  0  0  0  0  0  0  0  0
    1.7620   11.0790   -9.9630 F   0  0  0  0  0  0  0  0  0  0  0  0
   -4.4710   15.5800   -3.1820 O   0  0  0  0  0  0  0  0  0  0  0  0
   -5.1400   13.2330   -2.3060 N   0  0  0  0  0  0  0  0  0  0  0  0
   -2.2170    8.5050   -6.5870 C   0  0  0  0  0  0  0  0  0  0  0  0
   -3.1920   14.9420   -1.0460 C   0  0  0  0  0  0  0  0  0  0  0  0
   -5.0160   11.8560   -2.6300 C   0  0  2  0  0  0  0  0  0  0  0  0
   -1.9910   14.1610   -0.4530 C   0  0  0  0  0  0  0  0  0  0  0  0
   -4.3570   15.2100   -0.0850 C   0  0  0  0  0  0  0  0  0  0  0  0
   -5.7730   11.0460   -1.6920 N   0  0  0  0  0  0  0  0  0  0  0  0
   -3.3270   11.2950   -2.3810 S   0  0  0  0  0  0  0  0  0  0  0  0
   -1.6580   14.5850    0.9750 C   0  0  0  0  0  0  0  0  0  0  0  0
   -3.8990   15.6150    1.2850 C   0  0  0  0  0  0  0  0  0  0  0  0
   -3.9500    9.6090   -2.3190 C   0  0  0  0  0  0  0  0  0  0  0  0
   -5.3900    9.6420   -1.9740 N   0  0  0  0  0  0  0  0  0  0  0  0
   -2.9290   14.5790    1.7750 C   0  0  0  0  0  0  0  0  0  0  0  0
  2  1  1  1
  2  3  1  0
  2  4  1  0
  4  5  1  1
  4  6  1  0
  5  7  1  0
  6  8  1  0
  6  9  1  0
  7 10  1  0
  8 11  1  0
  9 12  1  0
 11 12  1  0
  9 13  1  1
 11 14  1  1
 15 10  1  0
 12 16  1  1
 13 17  1  0
 14 18  1  0
 14 19  1  0
 14 20  1  0
 15 21  1  6
 15 22  1  0
 16 23  1  0
 17 23  1  0
 15 24  1  0
 25 22  1  1
 24 26  1  0
 24 27  1  0
 25 28  1  0
 25 29  1  0
 26 30  1  0
 27 31  1  0
 29 32  1  0
 28 33  1  0
 32 33  1  0
 30 34  1  0
 31 34  1  0
M  CHG  1   1  -1
M  END
