ucsf151-ucsf243
     RDKit          3D

 18 19  0  0  0  0  0  0  0  0999 V2000
    0.2140   13.1910   -1.9720 O   0  0  0  0  0  0  0  0  0  0  0  0
   -0.3350   14.2390   -2.5750 C   0  0  1  0  0  0  0  0  0  0  0  0
    0.5340   15.2910   -2.2260 O   0  0  0  0  0  0  0  0  0  0  0  0
   -0.3050   14.0710   -4.1290 C   0  0  2  0  0  0  0  0  0  0  0  0
   -1.7920   14.5490   -2.0570 C   0  0  1  0  0  0  0  0  0  0  0  0
   -0.9690   15.2460   -4.9010 C   0  0  0  0  0  0  0  0  0  0  0  0
   -0.8210   12.6800   -4.6420 C   0  0  0  0  0  0  0  0  0  0  0  0
   -2.0140   15.3320   -0.7480 C   0  0  0  0  0  0  0  0  0  0  0  0
   -2.7670   15.0140   -3.1390 C   0  0  2  0  0  0  0  0  0  0  0  0
   -2.4770   16.3280   -3.5900 O   0  0  0  0  0  0  0  0  0  0  0  0
   -2.3960   14.9460   -5.4400 C   0  0  2  0  0  0  0  0  0  0  0  0
   -2.1740   12.5680   -5.2730 N   0  0  0  0  0  0  0  0  0  0  0  0
   -3.4530   15.0860   -0.2360 C   0  0  1  0  0  0  0  0  0  0  0  0
   -4.2260   14.9140   -2.6940 C   0  0  0  0  0  0  0  0  0  0  0  0
   -3.2250   16.1070   -5.2970 O   0  0  0  0  0  0  0  0  0  0  0  0
   -3.7440   15.7690    1.1020 C   0  0  0  0  0  0  0  0  0  0  0  0
   -3.0140   13.6830   -4.8680 C   0  0  0  0  0  0  0  0  0  0  0  0
   -4.5270   15.4030   -1.2770 C   0  0  0  0  0  0  0  0  0  0  0  0
  2  1  1  1
  2  3  1  0
  2  4  1  0
  2  5  1  0
  4  6  1  6
  4  7  1  0
  5  8  1  1
  5  9  1  0
  9 10  1  1
  6 11  1  0
  7 12  1  0
  8 13  1  0
  9 14  1  0
 11 15  1  1
 13 16  1  1
 11 17  1  0
 12 17  1  0
 13 18  1  0
 14 18  1  0
M  CHG  1   1  -1
M  END
