ucsf424-ucsf151
     RDKit          3D

 22 24  0  0  0  0  0  0  0  0999 V2000
    0.5630   13.0080   -2.3400 O   0  0  0  0  0  0  0  0  0  0  0  0
    0.8060   11.9740   -3.2710 C   0  0  1  0  0  0  0  0  0  0  0  0
   -0.1540   10.9350   -3.1670 O   0  0  0  0  0  0  0  0  0  0  0  0
    0.3380   14.2580   -2.9580 C   0  0  2  0  0  0  0  0  0  0  0  0
    0.9410   12.5420   -4.7000 C   0  0  0  0  0  0  0  0  0  0  0  0
    0.0980   15.2220   -1.9580 O   0  0  0  0  0  0  0  0  0  0  0  0
   -0.8860   14.1270   -3.8890 C   0  0  2  0  0  0  0  0  0  0  0  0
    0.2610   11.9010   -5.9310 C   0  0  1  0  0  0  0  0  0  0  0  0
   -1.6030   15.4480   -4.1180 C   0  0  0  0  0  0  0  0  0  0  0  0
   -1.9210   13.0550   -3.4910 C   0  0  0  0  0  0  0  0  0  0  0  0
    1.2690   11.6470   -6.9840 N   0  0  0  0  0  0  0  0  0  0  0  0
   -0.5240   10.5890   -5.8660 C   0  0  2  0  0  0  0  0  0  0  0  0
   -2.4760   15.2150   -5.3190 C   0  0  2  0  0  0  0  0  0  0  0  0
   -2.9660   12.9060   -4.5240 N   0  0  0  0  0  0  0  0  0  0  0  0
   -3.0050   16.4340   -5.8310 O   0  0  0  0  0  0  0  0  0  0  0  0
    0.8980   10.3990   -7.6630 O   0  0  0  0  0  0  0  0  0  0  0  0
   -0.4530   10.1860   -7.3210 C   0  0  1  0  0  0  0  0  0  0  0  0
   -1.9800   10.5830   -5.4360 C   0  0  0  0  0  0  0  0  0  0  0  0
   -3.5460   14.1920   -4.9500 C   0  0  0  0  0  0  0  0  0  0  0  0
   -0.9290    8.7600   -7.5080 C   0  0  0  0  0  0  0  0  0  0  0  0
   -2.6320    9.2020   -5.6560 C   0  0  0  0  0  0  0  0  0  0  0  0
   -2.3840    8.6100   -7.0470 C   0  0  0  0  0  0  0  0  0  0  0  0
  1  2  1  0
  2  3  1  6
  1  4  1  0
  2  5  1  0
  4  6  1  1
  4  7  1  0
  8  5  1  1
  7  9  1  1
  7 10  1  0
  8 11  1  0
  8 12  1  0
  9 13  1  0
 10 14  1  0
 13 15  1  1
 11 16  1  0
 12 17  1  0
 16 17  1  0
 12 18  1  6
 13 19  1  0
 14 19  1  0
 17 20  1  1
 18 21  1  0
 20 22  1  0
 21 22  1  0
M  END
