ucsf357-ucsf115
     RDKit          3D

 19 21  0  0  0  0  0  0  0  0999 V2000
   -5.8720   15.7650   -2.0720 O   0  0  0  0  0  0  0  0  0  0  0  0
   -5.5780   14.8640   -1.1750 C   0  0  2  0  0  0  0  0  0  0  0  0
   -6.2130   15.3630   -0.0330 O   0  0  0  0  0  0  0  0  0  0  0  0
   -4.0130   14.7140   -1.0510 C   0  0  1  0  0  0  0  0  0  0  0  0
   -3.4390   14.9030   -2.4850 C   0  0  0  0  0  0  0  0  0  0  0  0
   -3.2040   15.5350    0.0100 C   0  0  2  0  0  0  0  0  0  0  0  0
   -3.7770   13.4150   -0.3010 C   0  0  0  0  0  0  0  0  0  0  0  0
   -1.9120   15.0740   -2.6190 C   0  0  2  0  0  0  0  0  0  0  0  0
   -1.6890   15.6020   -0.1310 C   0  0  0  0  0  0  0  0  0  0  0  0
   -4.3000   13.7440    1.0570 N   0  0  0  0  0  0  0  0  0  0  0  0
   -3.6940   15.0540    1.3490 C   0  0  0  0  0  0  0  0  0  0  0  0
   -1.3070   14.2250   -3.5980 O   0  0  0  0  0  0  0  0  0  0  0  0
   -1.1930   14.7600   -1.2990 C   0  0  2  0  0  0  0  0  0  0  0  0
    0.2120   15.0020   -1.4680 O   0  0  0  0  0  0  0  0  0  0  0  0
   -1.1750   12.8920   -3.1380 C   0  0  1  0  0  0  0  0  0  0  0  0
   -1.0110   11.9360   -4.1950 O   0  0  0  0  0  0  0  0  0  0  0  0
    0.0830   12.7850   -2.2900 C   0  0  0  0  0  0  0  0  0  0  0  0
    0.6680   11.4560   -2.6450 C   0  0  0  0  0  0  0  0  0  0  0  0
   -0.3440   10.8420   -3.5830 C   0  0  0  0  0  0  0  0  0  0  0  0
  2  1  1  6
  2  3  1  0
  2  4  1  0
  4  5  1  6
  4  6  1  0
  4  7  1  0
  5  8  1  0
  6  9  1  1
  7 10  1  0
  6 11  1  0
 10 11  1  0
  8 12  1  6
  8 13  1  0
  9 13  1  0
 13 14  1  6
 15 12  1  6
 15 16  1  0
 15 17  1  0
 17 18  1  0
 16 19  1  0
 18 19  1  0
M  CHG  1   1  -1
M  END
