ucsf030-ucsf224
     RDKit          3D

 23 25  0  0  0  0  0  0  0  0999 V2000
   -4.5040   15.5430   -1.0000 Cl  0  0  0  0  0  0  0  0  0  0  0  0
   -3.0010   14.7430   -0.4100 C   0  0  2  0  0  0  0  0  0  0  0  0
   -3.0400   14.5290    1.0840 C   0  0  2  0  0  0  0  0  0  0  0  0
   -1.7170   15.5330   -0.6830 C   0  0  1  0  0  0  0  0  0  0  0  0
   -4.0220   15.3600    1.7620 N   0  0  0  0  0  0  0  0  0  0  0  0
   -0.5360   14.7600   -0.2750 N   0  0  0  0  0  0  0  0  0  0  0  0
   -1.7940   14.8610    1.7350 N   0  0  0  0  0  0  0  0  0  0  0  0
   -1.6480   15.8420   -2.0960 N   0  0  0  0  0  0  0  0  0  0  0  0
   -0.5550   14.3920    1.1180 C   0  0  0  0  0  0  0  0  0  0  0  0
   -0.2850   16.1460   -2.4500 C   0  0  0  0  0  0  0  0  0  0  0  0
   -2.2260   14.7140   -2.8590 C   0  0  0  0  0  0  0  0  0  0  0  0
    0.3630   14.9270   -3.1420 C   0  0  0  0  0  0  0  0  0  0  0  0
   -1.8310   14.6110   -4.3310 C   0  0  1  0  0  0  0  0  0  0  0  0
   -2.9220   15.6160   -5.3460 Cl  0  0  0  0  0  0  0  0  0  0  0  0
    1.9350   14.8920   -3.1950 C   0  0  0  0  0  0  0  0  0  0  0  0
    0.5080   13.7770   -2.0460 C   0  0  0  0  0  0  0  0  0  0  0  0
   -0.3010   14.7660   -4.5440 C   0  0  1  0  0  0  0  0  0  0  0  0
   -0.0770   16.4330   -5.3250 Cl  0  0  0  0  0  0  0  0  0  0  0  0
    0.5450   13.5990   -5.1810 C   0  0  0  0  0  0  0  0  0  0  0  0
    1.9520   14.2650   -1.7880 C   0  0  0  0  0  0  0  0  0  0  0  0
    0.8350   12.3060   -4.3470 C   0  0  2  0  0  0  0  0  0  0  0  0
   -0.2360   11.8920   -3.6980 O   0  0  0  0  0  0  0  0  0  0  0  0
    1.7040   12.5390   -3.2560 O   0  0  0  0  0  0  0  0  0  0  0  0
  2  1  1  1
  2  3  1  0
  2  4  1  0
  3  5  1  1
  4  6  1  0
  3  7  1  0
  4  8  1  6
  6  9  1  0
  7  9  1  0
  8 10  1  0
  8 11  1  0
 12 10  1  0
 11 13  1  0
 13 14  1  6
 12 15  1  0
 12 16  1  0
 12 17  1  0
 13 17  1  0
 17 18  1  0
 17 19  1  6
 15 20  1  0
 16 20  1  0
 19 21  1  0
 21 22  1  1
 21 23  1  0
M  CHG  1  22  -1
M  END
