ucsf584-ucsf274
     RDKit          3D

 29 32  0  0  0  0  0  0  0  0999 V2000
    0.5980   11.1550   -2.6250 O   0  0  0  0  0  0  0  0  0  0  0  0
    1.1280   12.3560   -2.5210 C   0  0  2  0  0  0  0  0  0  0  0  0
    0.7200   12.7250   -1.2230 O   0  0  0  0  0  0  0  0  0  0  0  0
    0.5270   13.3900   -3.5180 C   0  0  0  0  0  0  0  0  0  0  0  0
    0.3680   12.9910   -5.0050 C   0  0  0  0  0  0  0  0  0  0  0  0
   -0.1700   11.5590   -5.1510 C   0  0  1  0  0  0  0  0  0  0  0  0
   -1.5800   11.2630   -4.4900 C   0  0  1  0  0  0  0  0  0  0  0  0
   -0.0850   11.1390   -6.5670 N   0  0  0  0  0  0  0  0  0  0  0  0
   -2.1530   12.3720   -3.8100 O   0  0  0  0  0  0  0  0  0  0  0  0
   -2.5420   10.6890   -5.4560 N   0  0  0  0  0  0  0  0  0  0  0  0
   -0.5580    9.7680   -6.7250 C   0  0  1  0  0  0  0  0  0  0  0  0
   -2.1690   12.1950   -2.3900 C   0  0  0  0  0  0  0  0  0  0  0  0
   -1.9400    9.4950   -6.0660 C   0  0  2  0  0  0  0  0  0  0  0  0
   -0.4990    9.4160   -8.2180 C   0  0  0  0  0  0  0  0  0  0  0  0
   -3.2440   13.0880   -1.7390 C   0  0  0  0  0  0  0  0  0  0  0  0
   -0.8860    7.9670   -8.4540 C   0  0  0  0  0  0  0  0  0  0  0  0
   -2.8680    8.7020   -6.9810 C   0  0  0  0  0  0  0  0  0  0  0  0
   -3.0700   14.5570   -1.8970 N   0  0  0  0  0  0  0  0  0  0  0  0
   -2.1040    7.5370   -7.6180 C   0  0  0  0  0  0  0  0  0  0  0  0
   -2.9210   15.2110   -0.5950 C   0  0  0  0  0  0  0  0  0  0  0  0
   -4.1460   15.1190   -2.7080 C   0  0  0  0  0  0  0  0  0  0  0  0
   -4.1950   15.1590    0.2410 C   0  0  0  0  0  0  0  0  0  0  0  0
   -5.4760   15.1680   -1.9550 C   0  0  0  0  0  0  0  0  0  0  0  0
   -5.3870   14.5500   -0.5490 C   0  0  0  0  0  0  0  0  0  0  0  0
   -6.7350   14.7520    0.1890 C   0  0  0  0  0  0  0  0  0  0  0  0
   -6.5900   14.7320    1.6390 N   0  0  0  0  0  0  0  0  0  0  0  0
   -7.7920   13.7910   -0.0310 N   0  0  0  0  0  0  0  0  0  0  0  0
   -8.7780   14.1730    0.9750 C   0  0  0  0  0  0  0  0  0  0  0  0
   -7.9230   14.5210    2.1830 C   0  0  0  0  0  0  0  0  0  0  0  0
  2  1  1  6
  2  3  1  0
  2  4  1  0
  4  5  1  0
  6  5  1  6
  6  7  1  0
  6  8  1  0
  7  9  1  6
  7 10  1  0
  8 11  1  0
  9 12  1  0
 10 13  1  0
 11 13  1  0
 11 14  1  6
 12 15  1  0
 14 16  1  0
 13 17  1  6
 15 18  1  0
 16 19  1  0
 17 19  1  0
 18 20  1  0
 18 21  1  0
 20 22  1  0
 21 23  1  0
 22 24  1  0
 23 24  1  0
 24 25  1  0
 25 26  1  0
 25 27  1  0
 27 28  1  0
 26 29  1  0
 28 29  1  0
M  CHG  1   1  -1
M  END
