ucsf387-ucsf367
     RDKit          3D

 19 20  0  0  0  0  0  0  0  0999 V2000
    1.0570   18.0650   -5.4480 Cl  0  0  0  0  0  0  0  0  0  0  0  0
    0.2190   16.8300   -4.4710 C   0  0  1  0  0  0  0  0  0  0  0  0
   -1.1800   16.8520   -5.0540 C   0  0  0  0  0  0  0  0  0  0  0  0
    0.9280   15.4440   -4.4170 C   0  0  0  0  0  0  0  0  0  0  0  0
    0.1710   14.1940   -5.0080 C   0  0  1  0  0  0  0  0  0  0  0  0
   -1.9850   15.6040   -4.7800 C   0  0  1  0  0  0  0  0  0  0  0  0
   -3.5240   15.6930   -5.6780 Cl  0  0  0  0  0  0  0  0  0  0  0  0
    0.3470   12.7740   -4.3710 C   0  0  2  0  0  0  0  0  0  0  0  0
   -1.3360   14.3060   -5.1670 C   0  0  0  0  0  0  0  0  0  0  0  0
    0.7080   12.5130   -2.8480 C   0  0  1  0  0  0  0  0  0  0  0  0
    0.7630   11.8250   -5.4040 O   0  0  0  0  0  0  0  0  0  0  0  0
    0.6100   11.2500   -2.4880 O   0  0  0  0  0  0  0  0  0  0  0  0
    2.0530   12.7870   -2.5520 O   0  0  0  0  0  0  0  0  0  0  0  0
   -0.2260   10.8020   -5.6530 C   0  0  0  0  0  0  0  0  0  0  0  0
   -0.0650   10.1140   -7.0130 C   0  0  0  0  0  0  0  0  0  0  0  0
   -1.6240   11.3700   -5.7130 C   0  0  0  0  0  0  0  0  0  0  0  0
   -0.9960    8.8990   -7.1270 C   0  0  0  0  0  0  0  0  0  0  0  0
   -2.6120   10.2100   -5.6940 C   0  0  0  0  0  0  0  0  0  0  0  0
   -2.4590    9.2630   -6.8770 C   0  0  0  0  0  0  0  0  0  0  0  0
  2  1  1  6
  2  3  1  0
  2  4  1  0
  5  4  1  1
  3  6  1  0
  6  7  1  6
  5  8  1  0
  5  9  1  0
  6  9  1  0
  8 10  1  0
  8 11  1  6
 10 12  1  6
 10 13  1  0
 11 14  1  0
 14 15  1  0
 14 16  1  0
 15 17  1  0
 16 18  1  0
 17 19  1  0
 18 19  1  0
M  CHG  1  12  -1
M  END
