ucsf424-ucsf170
     RDKit          3D

 23 25  0  0  0  0  0  0  0  0999 V2000
    0.7980   13.4070   -2.5580 O   0  0  0  0  0  0  0  0  0  0  0  0
    0.9400   12.3350   -3.4390 C   0  0  1  0  0  0  0  0  0  0  0  0
    0.1730   11.2400   -2.9560 O   0  0  0  0  0  0  0  0  0  0  0  0
   -0.5770   13.5430   -2.2380 C   0  0  0  0  0  0  0  0  0  0  0  0
    0.5150   12.7450   -4.8550 C   0  0  0  0  0  0  0  0  0  0  0  0
   -0.9690   15.0150   -2.2110 C   0  0  2  0  0  0  0  0  0  0  0  0
    0.3200   11.5460   -5.7750 C   0  0  2  0  0  0  0  0  0  0  0  0
   -1.4100   15.3770   -0.7800 C   0  0  0  0  0  0  0  0  0  0  0  0
   -2.0380   15.3670   -3.2620 C   0  0  1  0  0  0  0  0  0  0  0  0
   -1.6890   14.7980   -4.5250 O   0  0  0  0  0  0  0  0  0  0  0  0
    1.2590   11.5800   -6.9030 N   0  0  0  0  0  0  0  0  0  0  0  0
   -1.0190   11.2000   -6.3700 C   0  0  1  0  0  0  0  0  0  0  0  0
   -2.8010   14.8390   -0.4240 C   0  0  1  0  0  0  0  0  0  0  0  0
   -3.4430   14.8820   -2.8770 C   0  0  0  0  0  0  0  0  0  0  0  0
   -3.2450   15.2720    1.3010 S   0  0  0  0  0  0  0  0  0  0  0  0
    0.7790   10.5360   -7.8010 O   0  0  0  0  0  0  0  0  0  0  0  0
   -0.6290   10.3600   -7.5850 C   0  0  1  0  0  0  0  0  0  0  0  0
   -1.8800   10.4100   -5.3680 C   0  0  0  0  0  0  0  0  0  0  0  0
   -3.8670   15.2290   -1.4440 C   0  0  0  0  0  0  0  0  0  0  0  0
   -5.0230   14.9610    1.3200 C   0  0  0  0  0  0  0  0  0  0  0  0
   -0.9160    8.8680   -7.4600 C   0  0  0  0  0  0  0  0  0  0  0  0
   -2.9330    9.5510   -6.0590 C   0  0  0  0  0  0  0  0  0  0  0  0
   -2.3770    8.6020   -7.1190 C   0  0  0  0  0  0  0  0  0  0  0  0
  1  2  1  0
  2  3  1  1
  1  4  1  0
  2  5  1  0
  6  4  1  1
  7  5  1  6
  6  8  1  0
  6  9  1  0
  9 10  1  6
  7 11  1  0
  7 12  1  0
  8 13  1  0
  9 14  1  0
 13 15  1  1
 11 16  1  0
 12 17  1  0
 16 17  1  0
 12 18  1  1
 13 19  1  0
 14 19  1  0
 15 20  1  0
 17 21  1  1
 18 22  1  0
 21 23  1  0
 22 23  1  0
M  END
