ucsf424-ucsf006
     RDKit          3D

 27 30  0  0  0  0  0  0  0  0999 V2000
    1.2000   12.6220   -2.3490 O   0  0  0  0  0  0  0  0  0  0  0  0
    0.4110   11.9530   -3.1680 C   0  0  1  0  0  0  0  0  0  0  0  0
   -0.7200   11.6860   -2.3680 O   0  0  0  0  0  0  0  0  0  0  0  0
    0.0020   12.6970   -4.5270 C   0  0  2  0  0  0  0  0  0  0  0  0
    0.5740   14.1460   -4.6130 C   0  0  0  0  0  0  0  0  0  0  0  0
   -1.4230   12.8000   -4.6010 O   0  0  0  0  0  0  0  0  0  0  0  0
    0.3870   11.6920   -5.6600 C   0  0  2  0  0  0  0  0  0  0  0  0
    0.2660   15.0670   -3.3990 C   0  0  0  0  0  0  0  0  0  0  0  0
    0.5610   12.1780   -7.0500 N   0  0  0  0  0  0  0  0  0  0  0  0
   -0.5310   10.4660   -5.8760 C   0  0  2  0  0  0  0  0  0  0  0  0
   -1.0370   14.7490   -2.6860 N   0  0  0  0  0  0  0  0  0  0  0  0
    0.5620   10.9360   -7.8160 O   0  0  0  0  0  0  0  0  0  0  0  0
   -0.6780   10.4100   -7.3740 C   0  0  1  0  0  0  0  0  0  0  0  0
   -1.9330   10.3880   -5.2860 C   0  0  0  0  0  0  0  0  0  0  0  0
   -2.1510   15.2850   -3.4850 C   0  0  0  0  0  0  0  0  0  0  0  0
   -0.9950    9.0160   -7.8670 C   0  0  0  0  0  0  0  0  0  0  0  0
   -2.8040    9.3770   -6.0460 C   0  0  0  0  0  0  0  0  0  0  0  0
   -1.0180   15.2980   -1.3100 C   0  0  1  0  0  0  0  0  0  0  0  0
   -2.0360    8.3750   -6.9390 C   0  0  0  0  0  0  0  0  0  0  0  0
   -2.3680   15.5770   -0.6160 C   0  0  2  0  0  0  0  0  0  0  0  0
   -0.2650   14.3670   -0.4810 N   0  0  0  0  0  0  0  0  0  0  0  0
   -2.4210   14.7940    0.6570 C   0  0  1  0  0  0  0  0  0  0  0  0
   -0.0900   14.7510    0.9040 C   0  0  0  0  0  0  0  0  0  0  0  0
   -3.7270   15.2100   -1.1760 C   0  0  0  0  0  0  0  0  0  0  0  0
   -1.3360   15.1610    1.4890 N   0  0  0  0  0  0  0  0  0  0  0  0
   -3.6650   15.2710    1.2430 N   0  0  0  0  0  0  0  0  0  0  0  0
   -4.5900   15.3420    0.0830 C   0  0  0  0  0  0  0  0  0  0  0  0
  2  1  1  1
  2  3  1  0
  2  4  1  0
  4  5  1  0
  4  6  1  1
  4  7  1  0
  5  8  1  0
  7  9  1  6
  7 10  1  0
  8 11  1  0
  9 12  1  0
 10 13  1  0
 12 13  1  0
 10 14  1  1
 11 15  1  0
 13 16  1  6
 14 17  1  0
 18 11  1  6
 16 19  1  0
 17 19  1  0
 18 20  1  0
 18 21  1  0
 20 22  1  0
 21 23  1  0
 20 24  1  6
 22 25  1  1
 23 25  1  0
 22 26  1  0
 24 27  1  0
 26 27  1  0
M  CHG  1   1  -1
M  END
