ucsf303-ucsf123
     RDKit          3D

 30 32  0  0  0  0  0  0  0  0999 V2000
   -2.9310   13.2390   -3.0680 O   0  0  0  0  0  0  0  0  0  0  0  0
   -4.2120   13.7940   -2.2760 S   0  0  1  0  0  0  0  0  0  0  0  0
   -4.5470   15.1390   -2.9550 O   0  0  0  0  0  0  0  0  0  0  0  0
   -5.4540   12.7910   -2.2650 N   0  0  0  0  0  0  0  0  0  0  0  0
   -3.6270   14.2230   -0.6550 C   0  0  0  0  0  0  0  0  0  0  0  0
   -3.3350   15.7460   -3.0300 C   0  0  0  0  0  0  0  0  0  0  0  0
   -5.1910   11.5800   -1.6490 C   0  0  1  0  0  0  0  0  0  0  0  0
   -2.0940   14.3730   -0.5300 C   0  0  0  0  0  0  0  0  0  0  0  0
   -4.3780   15.4350   -0.1210 C   0  0  0  0  0  0  0  0  0  0  0  0
   -3.0370   16.2070   -4.4360 C   0  0  0  0  0  0  0  0  0  0  0  0
   -6.1420   10.5980   -2.0990 N   0  0  0  0  0  0  0  0  0  0  0  0
   -3.5510   11.0600   -2.1720 S   0  0  0  0  0  0  0  0  0  0  0  0
   -1.6980   14.6710    0.9170 C   0  0  0  0  0  0  0  0  0  0  0  0
   -3.9460   15.7300    1.2920 C   0  0  0  0  0  0  0  0  0  0  0  0
   -2.3000   17.4480   -4.5980 N   0  0  0  0  0  0  0  0  0  0  0  0
   -4.0930    9.3550   -2.2850 C   0  0  0  0  0  0  0  0  0  0  0  0
   -5.5170    9.2610   -1.9370 N   0  0  0  0  0  0  0  0  0  0  0  0
   -2.9630   14.6820    1.7510 C   0  0  0  0  0  0  0  0  0  0  0  0
   -1.2750   17.2130   -5.7320 S   0  0  0  0  0  0  0  0  0  0  0  0
   -0.3130   18.4230   -6.1110 O   0  0  0  0  0  0  0  0  0  0  0  0
   -2.3370   17.0550   -6.9160 O   0  0  0  0  0  0  0  0  0  0  0  0
   -0.2930   15.7530   -5.3070 C   0  0  1  0  0  0  0  0  0  0  0  0
    0.5700   16.0660   -4.0930 C   0  0  0  0  0  0  0  0  0  0  0  0
   -1.2040   14.5060   -5.1080 C   0  0  0  0  0  0  0  0  0  0  0  0
    1.1270   14.8380   -3.3850 C   0  0  0  0  0  0  0  0  0  0  0  0
   -0.5530   13.3320   -4.3660 C   0  0  0  0  0  0  0  0  0  0  0  0
    0.0070   13.8380   -3.0390 C   0  0  1  0  0  0  0  0  0  0  0  0
    0.4460   12.7280   -2.0470 C   0  0  2  0  0  0  0  0  0  0  0  0
    1.8420   12.7660   -1.9630 O   0  0  0  0  0  0  0  0  0  0  0  0
    0.2190   11.5040   -2.5020 O   0  0  0  0  0  0  0  0  0  0  0  0
  2  1  1  6
  2  3  1  0
  2  4  1  0
  2  5  1  0
  3  6  1  0
  7  4  1  6
  5  8  1  0
  5  9  1  0
  6 10  1  0
  7 11  1  0
  7 12  1  0
  8 13  1  0
  9 14  1  0
 10 15  1  0
 12 16  1  0
 11 17  1  0
 16 17  1  0
 13 18  1  0
 14 18  1  0
 15 19  1  0
 19 20  1  0
 19 21  1  0
 22 19  1  1
 22 23  1  0
 22 24  1  0
 23 25  1  0
 24 26  1  0
 27 25  1  6
 26 27  1  0
 27 28  1  0
 28 29  1  6
 28 30  1  0
M  CHG  1  30  -1
M  END
