ucsf260-ucsf028
     RDKit          3D

 31 35  0  0  0  0  0  0  0  0999 V2000
    1.5770   11.7980   -3.0500 O   0  0  0  0  0  0  0  0  0  0  0  0
    1.8780   12.8700   -3.7460 C   0  0  1  0  0  0  0  0  0  0  0  0
    3.2680   12.8830   -3.5310 O   0  0  0  0  0  0  0  0  0  0  0  0
    1.6140   12.6560   -5.2630 C   0  0  0  0  0  0  0  0  0  0  0  0
    0.2480   13.1160   -5.7990 C   0  0  0  0  0  0  0  0  0  0  0  0
   -0.7850   12.0620   -6.0920 N   0  0  0  0  0  0  0  0  0  0  0  0
   -0.8070   10.9210   -5.2290 C   0  0  2  0  0  0  0  0  0  0  0  0
   -0.7660   11.3530   -7.3920 C   0  0  2  0  0  0  0  0  0  0  0  0
   -2.0280   10.2520   -5.6590 N   0  0  0  0  0  0  0  0  0  0  0  0
   -1.7270   10.1480   -7.0860 C   0  0  2  0  0  0  0  0  0  0  0  0
    0.6100   10.9920   -8.0280 C   0  0  0  0  0  0  0  0  0  0  0  0
   -0.6640   11.1570   -3.6760 C   0  0  1  0  0  0  0  0  0  0  0  0
   -1.2080    8.7330   -7.3130 C   0  0  0  0  0  0  0  0  0  0  0  0
    0.8630    9.5200   -8.3800 C   0  0  0  0  0  0  0  0  0  0  0  0
    0.0770   10.0700   -3.1410 O   0  0  0  0  0  0  0  0  0  0  0  0
    0.0390   12.4300   -3.3250 C   0  0  0  0  0  0  0  0  0  0  0  0
   -1.9220   11.1670   -2.9410 N   0  0  0  0  0  0  0  0  0  0  0  0
   -0.3830    8.6780   -8.5690 C   0  0  0  0  0  0  0  0  0  0  0  0
   -0.8020   13.0950   -2.3190 C   0  0  2  0  0  0  0  0  0  0  0  0
   -1.6780   12.0870   -1.8430 O   0  0  0  0  0  0  0  0  0  0  0  0
   -1.5700   14.3150   -2.8560 C   0  0  0  0  0  0  0  0  0  0  0  0
   -2.2000   15.0940   -1.7810 N   0  0  0  0  0  0  0  0  0  0  0  0
   -3.6570   14.9780   -1.9120 C   0  0  0  0  0  0  0  0  0  0  0  0
   -1.7530   14.5510   -0.5260 C   0  0  2  0  0  0  0  0  0  0  0  0
   -4.3640   15.4590   -0.7180 N   0  0  0  0  0  0  0  0  0  0  0  0
   -2.4530   15.0300    0.7060 C   0  0  1  0  0  0  0  0  0  0  0  0
   -0.4170   14.9810   -0.1400 N   0  0  0  0  0  0  0  0  0  0  0  0
   -3.9440   14.7770    0.5030 C   0  0  1  0  0  0  0  0  0  0  0  0
   -1.6660   14.3340    1.7390 N   0  0  0  0  0  0  0  0  0  0  0  0
   -0.3110   14.3520    1.1710 C   0  0  0  0  0  0  0  0  0  0  0  0
   -4.7540   15.4090    1.5180 N   0  0  0  0  0  0  0  0  0  0  0  0
  2  1  1  1
  2  3  1  0
  2  4  1  0
  4  5  1  0
  5  6  1  0
  6  7  1  0
  6  8  1  0
  7  9  1  1
  8 10  1  0
  9 10  1  0
  8 11  1  1
  7 12  1  0
 10 13  1  1
 11 14  1  0
 12 15  1  1
 12 16  1  0
 12 17  1  0
 13 18  1  0
 14 18  1  0
 16 19  1  0
 17 20  1  0
 19 20  1  0
 19 21  1  6
 21 22  1  0
 22 23  1  0
 22 24  1  0
 23 25  1  0
 24 26  1  0
 24 27  1  1
 25 28  1  0
 26 28  1  0
 26 29  1  1
 27 30  1  0
 29 30  1  0
 28 31  1  1
M  CHG  1   1  -1
M  END
