ucsf151-ucsf380
     RDKit          3D

 17 18  0  0  0  0  0  0  0  0999 V2000
    0.7030   13.0850   -2.6480 O   0  0  0  0  0  0  0  0  0  0  0  0
    0.4100   14.3700   -2.5750 C   0  0  1  0  0  0  0  0  0  0  0  0
    1.5340   14.9530   -3.1850 O   0  0  0  0  0  0  0  0  0  0  0  0
   -0.8970   14.7300   -3.3770 C   0  0  1  0  0  0  0  0  0  0  0  0
   -0.8350   15.3050   -4.7930 C   0  0  0  0  0  0  0  0  0  0  0  0
   -1.9960   13.6500   -3.4440 C   0  0  2  0  0  0  0  0  0  0  0  0
   -2.2390   12.9740   -2.1120 C   0  0  0  0  0  0  0  0  0  0  0  0
   -2.2680   15.2830   -5.3720 C   0  0  2  0  0  0  0  0  0  0  0  0
   -2.1850   12.8660   -4.6980 N   0  0  0  0  0  0  0  0  0  0  0  0
   -3.1400   15.9570   -4.4700 O   0  0  0  0  0  0  0  0  0  0  0  0
   -2.7420   13.8290   -5.6680 C   0  0  0  0  0  0  0  0  0  0  0  0
   -2.8570   14.0720   -1.2300 C   0  0  0  0  0  0  0  0  0  0  0  0
   -2.7240   13.8980    0.2790 C   0  0  0  0  0  0  0  0  0  0  0  0
   -4.2730   14.4400   -1.6500 C   0  0  0  0  0  0  0  0  0  0  0  0
   -3.1340   15.1770    0.9880 C   0  0  0  0  0  0  0  0  0  0  0  0
   -4.6270   15.7710   -1.0770 C   0  0  0  0  0  0  0  0  0  0  0  0
   -4.4040   15.8240    0.4340 C   0  0  0  0  0  0  0  0  0  0  0  0
  2  1  1  6
  2  3  1  0
  2  4  1  0
  4  5  1  6
  4  6  1  0
  6  7  1  1
  5  8  1  0
  6  9  1  0
  8 10  1  1
  8 11  1  0
  9 11  1  0
  7 12  1  0
 12 13  1  0
 12 14  1  0
 13 15  1  0
 14 16  1  0
 15 17  1  0
 16 17  1  0
M  CHG  1   1  -1
M  END
