ucsf385-ucsf248
     RDKit          3D

 22 24  0  0  0  0  0  0  0  0999 V2000
   -2.3840   12.5970   -1.0050 N   0  0  0  0  0  0  0  0  0  0  0  0
   -2.7570   14.3410   -0.9790 S   0  0  0  0  0  0  0  0  0  0  0  0
   -2.3890   14.9290    0.7470 C   0  0  0  0  0  0  0  0  0  0  0  0
   -0.9620   14.6350   -1.0340 C   0  0  1  0  0  0  0  0  0  0  0  0
   -4.4490   13.7710   -0.9110 C   0  0  0  0  0  0  0  0  0  0  0  0
   -3.8780   15.6030   -1.7630 C   0  0  0  0  0  0  0  0  0  0  0  0
   -0.3320   15.0450   -2.3280 C   0  0  1  0  0  0  0  0  0  0  0  0
   -0.0400   15.0780    0.1700 C   0  0  0  0  0  0  0  0  0  0  0  0
   -1.5720   14.2510    1.5630 N   0  0  0  0  0  0  0  0  0  0  0  0
   -5.0280   14.3690    0.3330 C   0  0  2  0  0  0  0  0  0  0  0  0
   -5.3270   15.3230   -1.6730 C   0  0  0  0  0  0  0  0  0  0  0  0
    0.4750   14.0660   -2.8910 O   0  0  0  0  0  0  0  0  0  0  0  0
   -1.4260   15.1440   -3.2390 O   0  0  0  0  0  0  0  0  0  0  0  0
   -0.2590   14.1860    1.3310 C   0  0  0  0  0  0  0  0  0  0  0  0
   -5.9650   13.5990    1.0630 N   0  0  0  0  0  0  0  0  0  0  0  0
   -5.8270   15.3690   -0.3700 C   0  0  1  0  0  0  0  0  0  0  0  0
   -6.9770   14.5780    1.2200 C   0  0  1  0  0  0  0  0  0  0  0  0
   -7.2150   15.0390   -0.1080 N   0  0  0  0  0  0  0  0  0  0  0  0
   -8.3400   14.2390    2.1930 S   0  0  0  0  0  0  0  0  0  0  0  0
   -8.6880   12.7060    2.3440 N   0  0  0  0  0  0  0  0  0  0  0  0
   -8.6450   15.1680    3.2900 O   0  0  0  0  0  0  0  0  0  0  0  0
   -9.6760   14.7240    0.9190 O   0  0  0  0  0  0  0  0  0  0  0  0
  1  2  1  0
  2  3  1  0
  2  4  1  0
  2  5  1  0
  2  6  1  0
  4  7  1  0
  4  8  1  1
  3  9  1  0
 10  5  1  6
  6 11  1  0
  7 12  1  6
  7 13  1  0
  8 14  1  0
  9 14  1  0
 10 15  1  0
 10 16  1  0
 16 11  1  6
 15 17  1  0
 16 18  1  0
 17 18  1  0
 17 19  1  6
 19 20  1  0
 19 21  1  0
 19 22  1  0
M  CHG  1  13  -1
M  END
