ucsf248-ucsf124
     RDKit          3D

 31 34  0  0  0  0  0  0  0  0999 V2000
   -8.8090   12.9460    2.9100 N   0  0  0  0  0  0  0  0  0  0  0  0
   -8.3620   14.3450    2.1600 S   0  0  0  0  0  0  0  0  0  0  0  0
   -8.0540   15.4950    3.2190 O   0  0  0  0  0  0  0  0  0  0  0  0
   -9.5660   14.8810    1.2440 O   0  0  0  0  0  0  0  0  0  0  0  0
   -6.9330   14.2240    1.0340 C   0  0  2  0  0  0  0  0  0  0  0  0
   -5.7530   14.9270    1.5440 N   0  0  0  0  0  0  0  0  0  0  0  0
   -7.1290   14.7750   -0.3150 N   0  0  0  0  0  0  0  0  0  0  0  0
   -4.9100   14.7280    0.3770 C   0  0  1  0  0  0  0  0  0  0  0  0
   -5.8060   15.3190   -0.6890 C   0  0  1  0  0  0  0  0  0  0  0  0
   -3.5470   15.3700    0.3640 C   0  0  0  0  0  0  0  0  0  0  0  0
   -5.3250   14.9550   -2.0900 C   0  0  0  0  0  0  0  0  0  0  0  0
   -2.9840   15.4640   -1.0620 C   0  0  0  0  0  0  0  0  0  0  0  0
   -3.8000   14.6910   -2.1320 C   0  0  2  0  0  0  0  0  0  0  0  0
   -3.2170   14.8490   -3.5560 C   0  0  0  0  0  0  0  0  0  0  0  0
   -3.4070   13.7130   -4.5850 C   0  0  0  0  0  0  0  0  0  0  0  0
   -2.1470   12.9890   -5.0920 C   0  0  0  0  0  0  0  0  0  0  0  0
   -1.9170   11.7460   -4.4210 O   0  0  0  0  0  0  0  0  0  0  0  0
   -1.0030   10.8100   -5.0150 C   0  0  2  0  0  0  0  0  0  0  0  0
    0.3640   11.3260   -5.1790 N   0  0  0  0  0  0  0  0  0  0  0  0
   -1.4250   10.4300   -6.4500 C   0  0  1  0  0  0  0  0  0  0  0  0
    0.7370   12.5300   -4.3950 C   0  0  0  0  0  0  0  0  0  0  0  0
   -0.0820   10.1110   -7.0670 C   0  0  2  0  0  0  0  0  0  0  0  0
    0.6820   11.3420   -6.6000 C   0  0  1  0  0  0  0  0  0  0  0  0
   -2.4200    9.2910   -6.6740 C   0  0  0  0  0  0  0  0  0  0  0  0
    0.6200   12.3790   -2.8320 C   0  0  1  0  0  0  0  0  0  0  0  0
    0.1550   12.4710   -7.1870 O   0  0  0  0  0  0  0  0  0  0  0  0
   -1.8600    8.1760   -7.5810 C   0  0  0  0  0  0  0  0  0  0  0  0
   -0.1690    9.8340   -8.5570 C   0  0  0  0  0  0  0  0  0  0  0  0
    0.6800   11.1180   -2.4410 O   0  0  0  0  0  0  0  0  0  0  0  0
    1.7470   12.9910   -2.2370 O   0  0  0  0  0  0  0  0  0  0  0  0
   -1.1470    8.6840   -8.8390 C   0  0  0  0  0  0  0  0  0  0  0  0
  1  2  1  0
  2  3  1  0
  2  4  1  0
  5  2  1  1
  5  6  1  0
  5  7  1  0
  6  8  1  0
  7  9  1  0
  8  9  1  0
  8 10  1  1
  9 11  1  6
 10 12  1  0
 11 13  1  0
 12 13  1  0
 13 14  1  6
 14 15  1  0
 15 16  1  0
 16 17  1  0
 18 17  1  6
 18 19  1  0
 18 20  1  0
 19 21  1  0
 20 22  1  0
 19 23  1  0
 22 23  1  0
 20 24  1  1
 21 25  1  0
 23 26  1  6
 24 27  1  0
 22 28  1  6
 25 29  1  6
 25 30  1  0
 27 31  1  0
 28 31  1  0
M  CHG  1  29  -1
M  END
