ucsf147-ucsf367
     RDKit          3D

 24 27  0  0  0  0  0  0  0  0999 V2000
    0.9290   12.5450   -4.9170 C   0  0  1  0  0  0  0  0  0  0  0  0
    1.5050   12.2350   -3.4430 C   0  0  2  0  0  0  0  0  0  0  0  0
    0.8810   11.1880   -2.8900 O   0  0  0  0  0  0  0  0  0  0  0  0
    0.8910   11.4410   -5.8670 O   0  0  0  0  0  0  0  0  0  0  0  0
   -0.4960   13.0050   -4.7560 C   0  0  2  0  0  0  0  0  0  0  0  0
    1.3710   13.3340   -2.4810 O   0  0  0  0  0  0  0  0  0  0  0  0
   -0.9350   14.1650   -5.4990 O   0  0  0  0  0  0  0  0  0  0  0  0
   -0.7540   13.4060   -3.3540 C   0  0  1  0  0  0  0  0  0  0  0  0
   -0.4310   10.9440   -6.1560 C   0  0  0  0  0  0  0  0  0  0  0  0
    0.3870   14.3120   -2.8470 C   0  0  1  0  0  0  0  0  0  0  0  0
   -2.1050   14.7120   -4.7440 N   0  0  0  0  0  0  0  0  0  0  0  0
   -2.1860   13.8060   -3.5670 C   0  0  2  0  0  0  0  0  0  0  0  0
   -0.3200    9.6340   -6.9540 C   0  0  0  0  0  0  0  0  0  0  0  0
   -1.2410   10.6800   -4.8730 C   0  0  0  0  0  0  0  0  0  0  0  0
    0.0310   15.0100   -1.7870 O   0  0  0  0  0  0  0  0  0  0  0  0
   -3.0820   14.2040   -2.3730 C   0  0  0  0  0  0  0  0  0  0  0  0
   -1.6880    9.0900   -7.3300 C   0  0  0  0  0  0  0  0  0  0  0  0
   -2.6470   10.2120   -5.2240 C   0  0  0  0  0  0  0  0  0  0  0  0
   -2.3890   14.4560   -1.0200 C   0  0  0  0  0  0  0  0  0  0  0  0
   -4.0340   15.3430   -2.7220 C   0  0  0  0  0  0  0  0  0  0  0  0
   -2.6180    8.9680   -6.1150 C   0  0  0  0  0  0  0  0  0  0  0  0
   -3.3490   14.8630    0.1060 C   0  0  0  0  0  0  0  0  0  0  0  0
   -5.0560   15.5740   -1.6000 C   0  0  0  0  0  0  0  0  0  0  0  0
   -4.7970   14.7770   -0.3340 C   0  0  0  0  0  0  0  0  0  0  0  0
  1  2  1  0
  2  3  1  1
  1  4  1  6
  1  5  1  0
  2  6  1  0
  5  7  1  6
  5  8  1  0
  4  9  1  0
  6 10  1  0
  8 10  1  6
  7 11  1  0
  8 12  1  0
 11 12  1  0
  9 13  1  0
  9 14  1  0
 10 15  1  1
 12 16  1  1
 13 17  1  0
 14 18  1  0
 16 19  1  0
 16 20  1  0
 17 21  1  0
 18 21  1  0
 19 22  1  0
 20 23  1  0
 22 24  1  0
 23 24  1  0
M  CHG  2   3  -1  15  -1
M  END
