ucsf247-ucsf151
     RDKit          3D

 21 22  0  0  0  0  0  0  0  0999 V2000
    0.3900   12.8040   -2.0990 O   0  0  0  0  0  0  0  0  0  0  0  0
    0.0640   13.8990   -2.7680 C   0  0  2  0  0  0  0  0  0  0  0  0
    1.2500   14.2340   -3.4620 O   0  0  0  0  0  0  0  0  0  0  0  0
   -0.3120   15.0130   -1.7570 C   0  0  0  0  0  0  0  0  0  0  0  0
   -1.1440   13.7160   -3.7220 C   0  0  1  0  0  0  0  0  0  0  0  0
   -1.5010   15.8120   -2.1480 N   0  0  0  0  0  0  0  0  0  0  0  0
   -1.2840   14.8770   -4.7360 C   0  0  0  0  0  0  0  0  0  0  0  0
   -1.2930   12.3820   -4.4880 C   0  0  0  0  0  0  0  0  0  0  0  0
   -2.7420   15.0600   -2.2880 C   0  0  2  0  0  0  0  0  0  0  0  0
   -2.5250   14.6710   -5.6100 C   0  0  2  0  0  0  0  0  0  0  0  0
   -2.6440   12.2600   -5.1020 N   0  0  0  0  0  0  0  0  0  0  0  0
   -3.3420   15.5270   -3.4810 O   0  0  0  0  0  0  0  0  0  0  0  0
   -3.2360   15.8980   -5.8140 O   0  0  0  0  0  0  0  0  0  0  0  0
   -3.7100   15.3340   -1.1360 C   0  0  1  0  0  0  0  0  0  0  0  0
   -3.3820   13.5390   -5.0670 C   0  0  0  0  0  0  0  0  0  0  0  0
   -5.0400   14.5730   -1.3020 C   0  0  0  0  0  0  0  0  0  0  0  0
   -3.1160   15.0850    0.2530 C   0  0  0  0  0  0  0  0  0  0  0  0
   -6.0340   15.0410   -0.2570 C   0  0  1  0  0  0  0  0  0  0  0  0
   -4.1150   15.4650    1.3460 C   0  0  0  0  0  0  0  0  0  0  0  0
   -7.3130   14.4190   -0.4000 O   0  0  0  0  0  0  0  0  0  0  0  0
   -5.4930   14.8230    1.1600 C   0  0  0  0  0  0  0  0  0  0  0  0
  2  1  1  1
  2  3  1  0
  2  4  1  0
  2  5  1  0
  4  6  1  0
  5  7  1  6
  5  8  1  0
  6  9  1  0
  7 10  1  0
  8 11  1  0
  9 12  1  6
 10 13  1  1
  9 14  1  0
 10 15  1  0
 11 15  1  0
 14 16  1  6
 14 17  1  0
 16 18  1  0
 17 19  1  0
 18 20  1  1
 18 21  1  0
 19 21  1  0
M  CHG  1   1  -1
M  END
