ucsf424-ucsf243
     RDKit          3D

 25 27  0  0  0  0  0  0  0  0999 V2000
    1.2350   12.2620   -2.2580 O   0  0  0  0  0  0  0  0  0  0  0  0
    0.8030   11.7130   -3.3750 C   0  0  1  0  0  0  0  0  0  0  0  0
   -0.2160   10.8790   -2.8520 O   0  0  0  0  0  0  0  0  0  0  0  0
    0.1750   12.8030   -4.3280 C   0  0  1  0  0  0  0  0  0  0  0  0
    1.0010   14.1040   -4.1870 C   0  0  0  0  0  0  0  0  0  0  0  0
   -0.1780   12.3640   -5.8040 C   0  0  1  0  0  0  0  0  0  0  0  0
    0.2090   15.1210   -3.5490 O   0  0  0  0  0  0  0  0  0  0  0  0
    0.9270   12.2210   -6.7930 N   0  0  0  0  0  0  0  0  0  0  0  0
   -0.8790   11.0320   -6.0080 C   0  0  2  0  0  0  0  0  0  0  0  0
   -0.0480   15.0190   -2.1270 C   0  0  2  0  0  0  0  0  0  0  0  0
    0.1260   11.7990   -7.9520 O   0  0  0  0  0  0  0  0  0  0  0  0
   -0.4510   10.6430   -7.4460 C   0  0  2  0  0  0  0  0  0  0  0  0
   -2.3790   10.8720   -5.8560 C   0  0  0  0  0  0  0  0  0  0  0  0
    0.3050   13.8150   -1.6990 O   0  0  0  0  0  0  0  0  0  0  0  0
   -1.5660    9.9550   -8.2300 C   0  0  0  0  0  0  0  0  0  0  0  0
   -2.7200    9.3880   -6.0330 C   0  0  0  0  0  0  0  0  0  0  0  0
   -1.5690   15.3020   -1.8150 C   0  0  2  0  0  0  0  0  0  0  0  0
   -2.2160    8.8540   -7.3800 C   0  0  0  0  0  0  0  0  0  0  0  0
   -2.1850   14.4170   -0.7060 C   0  0  0  0  0  0  0  0  0  0  0  0
   -2.4810   15.3560   -3.0820 C   0  0  1  0  0  0  0  0  0  0  0  0
   -1.9300   14.6410   -4.1970 O   0  0  0  0  0  0  0  0  0  0  0  0
   -3.6480   14.7630   -0.3460 C   0  0  1  0  0  0  0  0  0  0  0  0
   -3.9120   14.8680   -2.8590 C   0  0  0  0  0  0  0  0  0  0  0  0
   -3.7440   15.7040    0.8570 C   0  0  0  0  0  0  0  0  0  0  0  0
   -4.4820   15.3040   -1.5210 C   0  0  0  0  0  0  0  0  0  0  0  0
  2  1  1  1
  2  3  1  0
  2  4  1  0
  4  5  1  6
  4  6  1  0
  5  7  1  0
  6  8  1  6
  6  9  1  0
  7 10  1  0
  8 11  1  0
  9 12  1  0
 11 12  1  0
  9 13  1  6
 10 14  1  6
 12 15  1  6
 13 16  1  0
 10 17  1  0
 15 18  1  0
 16 18  1  0
 17 19  1  1
 17 20  1  0
 20 21  1  6
 19 22  1  0
 20 23  1  0
 22 24  1  1
 22 25  1  0
 23 25  1  0
M  CHG  2   1  -1  14  -1
M  END
