ucsf365-ucsf511
     RDKit          3D

 24 27  0  0  0  0  0  0  0  0999 V2000
    0.3930   10.3330   -2.3670 O   0  0  0  0  0  0  0  0  0  0  0  0
    0.6470   11.6330   -2.5010 C   0  0  2  0  0  0  0  0  0  0  0  0
   -0.2500   12.2980   -1.5930 O   0  0  0  0  0  0  0  0  0  0  0  0
    0.3830   12.0740   -3.9990 C   0  0  0  0  0  0  0  0  0  0  0  0
   -0.9450   12.8200   -4.3710 C   0  0  2  0  0  0  0  0  0  0  0  0
    0.1110   13.6370   -1.2500 C   0  0  2  0  0  0  0  0  0  0  0  0
   -2.0090   11.9850   -5.1150 C   0  0  2  0  0  0  0  0  0  0  0  0
   -0.7000   14.1500   -5.1620 C   0  0  0  0  0  0  0  0  0  0  0  0
   -1.1670   14.4850   -1.0130 C   0  0  1  0  0  0  0  0  0  0  0  0
    0.9300   14.2050   -2.3700 N   0  0  0  0  0  0  0  0  0  0  0  0
   -1.4670   10.7790   -5.6410 O   0  0  0  0  0  0  0  0  0  0  0  0
   -2.6370   12.7590   -6.2880 C   0  0  0  0  0  0  0  0  0  0  0  0
   -1.9780   14.9960   -5.2540 C   0  0  0  0  0  0  0  0  0  0  0  0
   -1.9210   14.5910   -2.3530 C   0  0  1  0  0  0  0  0  0  0  0  0
    0.0990   14.6410   -3.4690 C   0  0  0  0  0  0  0  0  0  0  0  0
   -2.1900   14.0590   -0.0790 O   0  0  0  0  0  0  0  0  0  0  0  0
   -3.0680   14.1980   -5.9540 C   0  0  0  0  0  0  0  0  0  0  0  0
   -1.1900   13.9340   -3.3980 N   0  0  0  0  0  0  0  0  0  0  0  0
   -3.3320   14.7430   -0.6020 C   0  0  1  0  0  0  0  0  0  0  0  0
   -3.3720   14.2750   -2.0370 C   0  0  1  0  0  0  0  0  0  0  0  0
   -4.4410   15.0090   -2.8510 C   0  0  0  0  0  0  0  0  0  0  0  0
   -4.6320   14.5290    0.1190 C   0  0  0  0  0  0  0  0  0  0  0  0
   -5.7910   15.0540   -2.1190 C   0  0  0  0  0  0  0  0  0  0  0  0
   -5.6950   15.3460   -0.6120 C   0  0  0  0  0  0  0  0  0  0  0  0
  2  1  1  6
  2  3  1  0
  2  4  1  0
  5  4  1  6
  6  3  1  6
  5  7  1  0
  5  8  1  0
  6  9  1  0
  6 10  1  0
  7 11  1  6
  7 12  1  0
  8 13  1  0
  9 14  1  0
 10 15  1  0
  9 16  1  1
 12 17  1  0
 13 17  1  0
 14 18  1  6
 15 18  1  0
 16 19  1  0
 14 20  1  0
 19 20  1  0
 20 21  1  6
 19 22  1  1
 21 23  1  0
 22 24  1  0
 23 24  1  0
M  CHG  1   1  -1
M  END
