ucsf264-ucsf371
     RDKit          3D

 27 29  0  0  0  0  0  0  0  0999 V2000
    0.8720   13.0780   -2.3490 O   0  0  0  0  0  0  0  0  0  0  0  0
    1.2450   12.2600   -3.3010 C   0  0  1  0  0  0  0  0  0  0  0  0
    0.5680   11.0180   -3.0330 O   0  0  0  0  0  0  0  0  0  0  0  0
    0.9850   12.7130   -4.8430 C   0  0  2  0  0  0  0  0  0  0  0  0
    0.3060   14.1230   -5.0560 C   0  0  0  0  0  0  0  0  0  0  0  0
    0.5800   11.6320   -5.8310 N   0  0  0  0  0  0  0  0  0  0  0  0
   -0.9720   14.3670   -4.4230 O   0  0  0  0  0  0  0  0  0  0  0  0
    1.3230   11.6410   -7.1310 N   0  0  0  0  0  0  0  0  0  0  0  0
   -0.7990   11.2270   -6.1060 C   0  0  1  0  0  0  0  0  0  0  0  0
   -0.9180   14.3410   -2.9860 C   0  0  1  0  0  0  0  0  0  0  0  0
    0.3710   11.0460   -8.0920 C   0  0  2  0  0  0  0  0  0  0  0  0
   -0.4680   10.1910   -7.1720 C   0  0  2  0  0  0  0  0  0  0  0  0
   -1.6000   10.5690   -4.9800 C   0  0  0  0  0  0  0  0  0  0  0  0
    0.9260   10.3030   -9.3040 C   0  0  0  0  0  0  0  0  0  0  0  0
   -0.3490   15.4470   -2.5430 O   0  0  0  0  0  0  0  0  0  0  0  0
   -1.6940    9.5010   -7.7450 C   0  0  0  0  0  0  0  0  0  0  0  0
   -2.8180    9.7680   -5.4930 C   0  0  0  0  0  0  0  0  0  0  0  0
   -2.3620   14.2260   -2.3760 C   0  0  2  0  0  0  0  0  0  0  0  0
    1.5850    9.1640   -8.9410 F   0  0  0  0  0  0  0  0  0  0  0  0
   -0.0340    9.9130  -10.1630 F   0  0  0  0  0  0  0  0  0  0  0  0
    1.7720   11.0390  -10.0430 F   0  0  0  0  0  0  0  0  0  0  0  0
   -2.4830    8.8060   -6.6340 C   0  0  0  0  0  0  0  0  0  0  0  0
   -3.4810   15.1220   -2.9350 C   0  0  0  0  0  0  0  0  0  0  0  0
   -2.4290   14.6850   -0.6100 S   0  0  0  0  0  0  0  0  0  0  0  0
   -4.2290   14.6870   -0.6940 C   0  0  2  0  0  0  0  0  0  0  0  0
   -4.6720   15.0550   -2.0460 N   0  0  0  0  0  0  0  0  0  0  0  0
   -4.7820   15.6670    0.3130 C   0  0  0  0  0  0  0  0  0  0  0  0
  2  1  1  1
  2  3  1  0
  2  4  1  0
  4  5  1  1
  4  6  1  0
  5  7  1  0
  6  8  1  0
  6  9  1  0
  7 10  1  0
  8 11  1  0
  9 12  1  0
 11 12  1  0
  9 13  1  1
 11 14  1  6
 10 15  1  1
 12 16  1  6
 13 17  1  0
 10 18  1  0
 14 19  1  0
 14 20  1  0
 14 21  1  0
 16 22  1  0
 17 22  1  0
 18 23  1  6
 18 24  1  0
 24 25  1  0
 23 26  1  0
 25 26  1  0
 25 27  1  1
M  CHG  2   1  -1  15  -1
M  END
