ucsf013-ucsf422
     RDKit          3D

 26 29  0  0  0  0  0  0  0  0999 V2000
   -4.0770   15.4850    2.0510 N   0  0  0  0  0  0  0  0  0  0  0  0
   -5.0890   15.2430    1.0670 C   0  0  2  0  0  0  0  0  0  0  0  0
   -6.2970   14.9150    1.7720 N   0  0  0  0  0  0  0  0  0  0  0  0
   -4.7200   14.2130    0.0510 C   0  0  1  0  0  0  0  0  0  0  0  0
   -5.8300   14.1670   -1.0110 C   0  0  1  0  0  0  0  0  0  0  0  0
   -7.2490   14.2020    0.9440 C   0  0  0  0  0  0  0  0  0  0  0  0
   -3.3550   14.6080   -0.5160 C   0  0  0  0  0  0  0  0  0  0  0  0
   -7.0820   14.6580   -0.4180 N   0  0  0  0  0  0  0  0  0  0  0  0
   -5.4250   14.9610   -2.2480 C   0  0  0  0  0  0  0  0  0  0  0  0
   -3.1470   13.9450   -1.8490 C   0  0  0  0  0  0  0  0  0  0  0  0
   -4.1110   14.4840   -2.8900 C   0  0  2  0  0  0  0  0  0  0  0  0
   -3.3740   15.5520   -3.6280 C   0  0  0  0  0  0  0  0  0  0  0  0
   -3.7860   15.6690   -4.9640 O   0  0  0  0  0  0  0  0  0  0  0  0
   -2.6330   15.7510   -5.7460 C   0  0  1  0  0  0  0  0  0  0  0  0
   -2.0830   17.1800   -5.5600 C   0  0  0  0  0  0  0  0  0  0  0  0
   -1.6800   14.6120   -5.3080 C   0  0  0  0  0  0  0  0  0  0  0  0
   -0.4470   14.9690   -4.4480 C   0  0  1  0  0  0  0  0  0  0  0  0
   -0.5680   17.3290   -5.5370 C   0  0  0  0  0  0  0  0  0  0  0  0
    0.7490   14.0610   -4.8130 C   0  0  2  0  0  0  0  0  0  0  0  0
    0.1450   16.3870   -4.5940 C   0  0  2  0  0  0  0  0  0  0  0  0
    0.6770   12.5790   -4.3890 C   0  0  0  0  0  0  0  0  0  0  0  0
    1.8650   14.9050   -4.2610 C   0  0  0  0  0  0  0  0  0  0  0  0
    1.5680   16.1920   -4.9310 N   0  0  0  0  0  0  0  0  0  0  0  0
    0.3500   12.2190   -2.9210 C   0  0  1  0  0  0  0  0  0  0  0  0
    0.3500   10.9190   -2.7000 O   0  0  0  0  0  0  0  0  0  0  0  0
    1.3670   12.6750   -2.0700 O   0  0  0  0  0  0  0  0  0  0  0  0
  2  1  1  1
  2  3  1  0
  2  4  1  0
  4  5  1  0
  3  6  1  0
  4  7  1  6
  5  8  1  0
  6  8  1  0
  5  9  1  6
  7 10  1  0
  9 11  1  0
 10 11  1  0
 11 12  1  1
 12 13  1  0
 14 13  1  1
 14 15  1  0
 14 16  1  0
 17 16  1  6
 15 18  1  0
 17 19  1  0
 17 20  1  0
 20 18  1  6
 19 21  1  1
 19 22  1  0
 20 23  1  0
 22 23  1  0
 21 24  1  0
 24 25  1  6
 24 26  1  0
M  CHG  1  25  -1
M  END
