ucsf523-ucsf012
     RDKit          3D

 24 27  0  0  0  0  0  0  0  0999 V2000
   -0.1260   15.0160    1.0230 N   0  0  0  0  0  0  0  0  0  0  0  0
   -0.8610   13.8250    0.7710 C   0  0  1  0  0  0  0  0  0  0  0  0
   -2.2340   13.9290    1.3220 N   0  0  0  0  0  0  0  0  0  0  0  0
   -0.8340   13.6600   -0.6540 N   0  0  0  0  0  0  0  0  0  0  0  0
   -2.6410   15.1980    1.9050 N   0  0  0  0  0  0  0  0  0  0  0  0
   -1.5620   14.7410   -1.2050 C   0  0  2  0  0  0  0  0  0  0  0  0
   -3.2780   13.6560    0.3400 C   0  0  2  0  0  0  0  0  0  0  0  0
   -3.0950   14.6530   -0.8450 C   0  0  1  0  0  0  0  0  0  0  0  0
   -4.5810   13.7020    1.0540 N   0  0  0  0  0  0  0  0  0  0  0  0
   -1.5350   14.9320   -2.6640 N   0  0  0  0  0  0  0  0  0  0  0  0
   -5.2720   14.9790    0.9960 C   0  0  2  0  0  0  0  0  0  0  0  0
   -3.7560   15.9370   -0.6440 N   0  0  0  0  0  0  0  0  0  0  0  0
   -2.9210   15.0850   -3.1300 C   0  0  2  0  0  0  0  0  0  0  0  0
   -3.7080   14.2000   -2.1640 C   0  0  2  0  0  0  0  0  0  0  0  0
   -0.6660   14.1170   -3.4670 C   0  0  0  0  0  0  0  0  0  0  0  0
   -6.6260   14.7090    1.3090 O   0  0  0  0  0  0  0  0  0  0  0  0
   -3.2510   14.7730   -4.5830 C   0  0  0  0  0  0  0  0  0  0  0  0
   -5.2130   14.3880   -2.2970 C   0  0  0  0  0  0  0  0  0  0  0  0
   -5.1460   15.6740   -0.3780 C   0  0  0  0  0  0  0  0  0  0  0  0
   -1.0700   12.6600   -3.3200 C   0  0  2  0  0  0  0  0  0  0  0  0
   -0.2720   11.9250   -2.2550 C   0  0  0  0  0  0  0  0  0  0  0  0
   -0.8930   11.9720   -4.5660 O   0  0  0  0  0  0  0  0  0  0  0  0
   -0.5040   10.6630   -4.1960 C   0  0  0  0  0  0  0  0  0  0  0  0
    0.4350   10.9030   -3.0470 C   0  0  0  0  0  0  0  0  0  0  0  0
  2  1  1  6
  2  3  1  0
  2  4  1  0
  3  5  1  0
  6  4  1  6
  3  7  1  0
  6  8  1  0
  7  8  1  0
  7  9  1  1
  6 10  1  0
  9 11  1  0
  8 12  1  1
 10 13  1  0
  8 14  1  0
 13 14  1  0
 10 15  1  0
 11 16  1  6
 13 17  1  6
 14 18  1  1
 11 19  1  0
 12 19  1  0
 20 15  1  6
 20 21  1  0
 20 22  1  0
 22 23  1  0
 21 24  1  0
 23 24  1  0
M  END
