ucsf357-ucsf016
     RDKit          3D

 23 26  0  0  0  0  0  0  0  0999 V2000
   -6.3080   15.5070   -2.1730 O   0  0  0  0  0  0  0  0  0  0  0  0
   -5.9370   14.5910   -1.1800 C   0  0  2  0  0  0  0  0  0  0  0  0
   -6.3060   15.1800    0.0420 O   0  0  0  0  0  0  0  0  0  0  0  0
   -4.4990   14.3300   -1.2660 C   0  0  1  0  0  0  0  0  0  0  0  0
   -3.8780   14.8410   -2.6230 C   0  0  0  0  0  0  0  0  0  0  0  0
   -3.6860   15.1030   -0.3260 C   0  0  0  0  0  0  0  0  0  0  0  0
   -2.6260   14.9090   -2.1710 C   0  0  1  0  0  0  0  0  0  0  0  0
   -2.2700   15.2510   -0.2780 C   0  0  2  0  0  0  0  0  0  0  0  0
   -2.1690   14.3340   -3.3400 F   0  0  0  0  0  0  0  0  0  0  0  0
   -1.1520   15.1920   -1.6460 S   0  0  0  0  0  0  0  0  0  0  0  0
   -1.9030   14.3390    0.7700 C   0  0  0  0  0  0  0  0  0  0  0  0
    0.3380   13.6710   -1.5300 O   0  0  0  0  0  0  0  0  0  0  0  0
   -0.5690   15.4300   -3.3580 N   0  0  0  0  0  0  0  0  0  0  0  0
   -0.3600   15.7950   -0.0790 N   0  0  0  0  0  0  0  0  0  0  0  0
   -1.0450   14.8400    1.7610 N   0  0  0  0  0  0  0  0  0  0  0  0
    0.4980   14.5650   -3.8710 C   0  0  0  0  0  0  0  0  0  0  0  0
   -1.4340   15.7020   -4.3400 C   0  0  0  0  0  0  0  0  0  0  0  0
    0.0760   14.9650    0.8160 C   0  0  0  0  0  0  0  0  0  0  0  0
   -1.9290   14.6000   -5.2650 C   0  0  0  0  0  0  0  0  0  0  0  0
   -0.1410   13.3150   -4.2380 C   0  0  0  0  0  0  0  0  0  0  0  0
   -3.2880   13.9470   -4.9080 C   0  0  0  0  0  0  0  0  0  0  0  0
   -3.1100   14.8050   -6.1040 C   0  0  0  0  0  0  0  0  0  0  0  0
   -0.8500   13.5840   -5.5750 C   0  0  0  0  0  0  0  0  0  0  0  0
  2  1  1  6
  2  3  1  0
  2  4  1  0
  4  5  1  6
  4  6  1  0
  5  7  1  0
  8  6  1  6
  7  9  1  6
  7 10  1  0
  8 10  1  0
  8 11  1  0
 10 12  1  0
 10 13  1  0
 10 14  1  0
 11 15  1  0
 13 16  1  0
 13 17  1  0
 14 18  1  0
 15 18  1  0
 19 17  1  0
 16 20  1  0
 19 21  1  0
 19 22  1  0
 21 22  1  0
 19 23  1  0
 20 23  1  0
M  CHG  1   1  -1
M  END
