ucsf320-ucsf380
     RDKit          3D

 19 20  0  0  0  0  0  0  0  0999 V2000
   -1.0500   13.7850   -1.9330 N   0  0  0  0  0  0  0  0  0  0  0  0
   -1.8450   14.9730   -2.1990 C   0  0  1  0  0  0  0  0  0  0  0  0
   -1.8920   15.3590   -3.5810 O   0  0  0  0  0  0  0  0  0  0  0  0
    0.3040   14.0470   -1.4240 C   0  0  2  0  0  0  0  0  0  0  0  0
   -1.2030   12.6680   -2.9050 C   0  0  0  0  0  0  0  0  0  0  0  0
    0.8470   15.0620   -2.0480 O   0  0  0  0  0  0  0  0  0  0  0  0
    1.1980   13.0360   -1.8180 O   0  0  0  0  0  0  0  0  0  0  0  0
   -3.2880   14.6860   -1.7130 C   0  0  1  0  0  0  0  0  0  0  0  0
   -2.6370   12.0590   -3.0290 C   0  0  0  0  0  0  0  0  0  0  0  0
   -0.7940   13.0850   -4.3400 C   0  0  0  0  0  0  0  0  0  0  0  0
   -3.5170   15.2470   -0.2980 C   0  0  0  0  0  0  0  0  0  0  0  0
   -4.3540   15.1100   -2.7340 C   0  0  0  0  0  0  0  0  0  0  0  0
   -2.7650   10.9100   -4.0350 C   0  0  0  0  0  0  0  0  0  0  0  0
   -0.8540   11.9190   -5.3300 C   0  0  0  0  0  0  0  0  0  0  0  0
   -4.9270   14.9990    0.2010 C   0  0  0  0  0  0  0  0  0  0  0  0
   -5.7730   14.9040   -2.2290 C   0  0  0  0  0  0  0  0  0  0  0  0
   -2.2200   11.2490   -5.4110 C   0  0  0  0  0  0  0  0  0  0  0  0
   -5.9760   15.4530   -0.8200 C   0  0  1  0  0  0  0  0  0  0  0  0
   -7.2740   15.0670   -0.3700 O   0  0  0  0  0  0  0  0  0  0  0  0
  1  2  1  0
  2  3  1  6
  1  4  1  0
  1  5  1  0
  4  6  1  6
  4  7  1  0
  2  8  1  0
  5  9  1  0
  5 10  1  0
  8 11  1  1
  8 12  1  0
  9 13  1  0
 10 14  1  0
 11 15  1  0
 12 16  1  0
 13 17  1  0
 14 17  1  0
 15 18  1  0
 16 18  1  0
 18 19  1  1
M  CHG  1   6  -1
M  END
