ucsf364-ucsf442
     RDKit          3D

 23 25  0  0  0  0  0  0  0  0999 V2000
    2.4180   13.0540   -4.6980 C   0  0  0  0  0  0  0  0  0  0  0  0
    0.9140   12.8280   -4.9130 C   0  0  1  0  0  0  0  0  0  0  0  0
    0.6310   12.1790   -6.2880 C   0  0  1  0  0  0  0  0  0  0  0  0
    0.2240   12.1030   -3.7210 C   0  0  1  0  0  0  0  0  0  0  0  0
    1.8110   11.7820   -6.9570 O   0  0  0  0  0  0  0  0  0  0  0  0
    0.2780   12.9790   -2.4200 C   0  0  1  0  0  0  0  0  0  0  0  0
   -1.2360   11.6150   -4.0390 C   0  0  0  0  0  0  0  0  0  0  0  0
   -0.3620   11.0250   -6.2920 C   0  0  0  0  0  0  0  0  0  0  0  0
   -1.0360   13.5110   -2.2350 O   0  0  0  0  0  0  0  0  0  0  0  0
    0.5640   12.1910   -1.3880 O   0  0  0  0  0  0  0  0  0  0  0  0
   -1.5850   11.3980   -5.5070 C   0  0  0  0  0  0  0  0  0  0  0  0
   -1.5490   14.4500   -3.1930 C   0  0  0  0  0  0  0  0  0  0  0  0
   -2.7230   15.0500   -2.6170 O   0  0  0  0  0  0  0  0  0  0  0  0
   -2.5410   14.7720   -1.2370 C   0  0  2  0  0  0  0  0  0  0  0  0
   -3.6850   14.1060   -0.4800 C   0  0  1  0  0  0  0  0  0  0  0  0
   -2.0300   15.9180   -0.5440 N   0  0  0  0  0  0  0  0  0  0  0  0
   -1.3560   15.4660    0.6190 C   0  0  2  0  0  0  0  0  0  0  0  0
   -3.4450   14.2360    1.0220 C   0  0  1  0  0  0  0  0  0  0  0  0
   -5.1240   14.3850   -0.5690 N   0  0  0  0  0  0  0  0  0  0  0  0
   -0.0980   14.9720    0.2710 O   0  0  0  0  0  0  0  0  0  0  0  0
   -2.0520   14.4520    1.3680 N   0  0  0  0  0  0  0  0  0  0  0  0
   -4.2920   15.3160    1.4680 N   0  0  0  0  0  0  0  0  0  0  0  0
   -5.3550   15.3660    0.4510 C   0  0  0  0  0  0  0  0  0  0  0  0
  2  1  1  1
  2  3  1  0
  2  4  1  0
  3  5  1  1
  4  6  1  0
  4  7  1  6
  3  8  1  0
  6  9  1  0
  6 10  1  1
  7 11  1  0
  8 11  1  0
  9 12  1  0
 12 13  1  0
 14 13  1  6
 14 15  1  0
 14 16  1  0
 16 17  1  0
 15 18  1  0
 15 19  1  1
 17 20  1  6
 17 21  1  0
 18 21  1  6
 18 22  1  0
 19 23  1  0
 22 23  1  0
M  CHG  1  10  -1
M  END
