ucsf411-ucsf147
     RDKit          3D

 21 23  0  0  0  0  0  0  0  0999 V2000
    0.5720   11.1900   -2.4280 O   0  0  0  0  0  0  0  0  0  0  0  0
    1.1160   12.4620   -2.7260 C   0  0  0  0  0  0  0  0  0  0  0  0
    2.2550   12.6250   -1.9940 O   0  0  0  0  0  0  0  0  0  0  0  0
    1.4320   12.6380   -4.2340 C   0  0  0  0  0  0  0  0  0  0  0  0
    0.3330   13.4710   -2.1310 O   0  0  0  0  0  0  0  0  0  0  0  0
    1.3060   13.9880   -4.7180 O   0  0  0  0  0  0  0  0  0  0  0  0
    0.3340   14.6470   -3.9340 C   0  0  1  0  0  0  0  0  0  0  0  0
    0.1820   16.5150   -4.3720 C   0  0  2  0  0  0  0  0  0  0  0  0
   -1.2860   13.6980   -3.9040 C   0  0  0  0  0  0  0  0  0  0  0  0
   -1.3010   16.9990   -5.5380 C   0  0  1  0  0  0  0  0  0  0  0  0
   -2.7550   14.8070   -3.7280 C   0  0  0  0  0  0  0  0  0  0  0  0
    1.1640   16.3710   -5.3560 C   0  0  0  0  0  0  0  0  0  0  0  0
   -2.8630   15.9150   -5.2550 C   0  0  0  0  0  0  0  0  0  0  0  0
   -1.6960   18.1760   -4.8750 C   0  0  0  0  0  0  0  0  0  0  0  0
    1.0970   17.8860   -5.3700 C   0  0  0  0  0  0  0  0  0  0  0  0
   -2.3660   15.6270   -2.4280 C   0  0  0  0  0  0  0  0  0  0  0  0
   -4.1520   14.1770   -3.3410 C   0  0  0  0  0  0  0  0  0  0  0  0
   -0.7190   18.6220   -5.8790 C   0  0  0  0  0  0  0  0  0  0  0  0
   -2.8690   15.0820   -1.0830 C   0  0  0  0  0  0  0  0  0  0  0  0
   -5.0220   14.9560   -2.3240 C   0  0  0  0  0  0  0  0  0  0  0  0
   -4.3720   15.2080   -0.9790 C   0  0  0  0  0  0  0  0  0  0  0  0
  2  1  1  0
  2  3  1  0
  2  4  1  0
  2  5  1  0
  4  6  1  0
  7  6  1  6
  7  8  1  0
  7  9  1  0
  8 10  1  0
 11  9  1  0
  8 12  1  6
 10 13  1  1
 11 13  1  0
 10 14  1  0
 12 15  1  0
 11 16  1  0
 11 17  1  0
 14 18  1  0
 15 18  1  0
 16 19  1  0
 17 20  1  0
 19 21  1  0
 20 21  1  0
M  CHG  2   1  -1   5  -1
M  END
