ucsf364-ucsf006
     RDKit          3D

 24 27  0  0  0  0  0  0  0  0999 V2000
    1.7360   13.2360   -5.3350 C   0  0  0  0  0  0  0  0  0  0  0  0
    0.8140   14.3920   -5.2570 C   0  0  2  0  0  0  0  0  0  0  0  0
    0.6110   14.7390   -3.8030 C   0  0  0  0  0  0  0  0  0  0  0  0
    0.8730   12.0560   -5.0010 C   0  0  1  0  0  0  0  0  0  0  0  0
   -0.4200   13.9280   -5.8100 O   0  0  0  0  0  0  0  0  0  0  0  0
   -0.2630   12.3150   -3.9830 C   0  0  1  0  0  0  0  0  0  0  0  0
    0.5080   11.2830   -6.2820 C   0  0  2  0  0  0  0  0  0  0  0  0
    1.5340   11.4320   -7.2820 O   0  0  0  0  0  0  0  0  0  0  0  0
   -0.0060   13.5300   -3.0120 C   0  0  2  0  0  0  0  0  0  0  0  0
   -1.6920   12.1860   -4.5670 C   0  0  0  0  0  0  0  0  0  0  0  0
   -0.8280   11.6560   -6.8390 C   0  0  0  0  0  0  0  0  0  0  0  0
   -1.2610   13.8960   -2.3710 N   0  0  0  0  0  0  0  0  0  0  0  0
    0.8560   13.1000   -2.0940 O   0  0  0  0  0  0  0  0  0  0  0  0
   -1.8610   11.3090   -5.7950 C   0  0  0  0  0  0  0  0  0  0  0  0
   -2.1640   14.7890   -3.1200 C   0  0  0  0  0  0  0  0  0  0  0  0
   -1.3300   14.0400   -0.9310 C   0  0  2  0  0  0  0  0  0  0  0  0
   -2.7150   14.2260   -0.2790 C   0  0  1  0  0  0  0  0  0  0  0  0
   -0.2480   14.8480   -0.4180 N   0  0  0  0  0  0  0  0  0  0  0  0
   -2.6050   14.7430    1.1420 C   0  0  1  0  0  0  0  0  0  0  0  0
   -0.1970   14.7690    0.9940 C   0  0  0  0  0  0  0  0  0  0  0  0
   -3.7550   15.1170   -0.9400 C   0  0  0  0  0  0  0  0  0  0  0  0
   -1.3850   15.4080    1.4700 N   0  0  0  0  0  0  0  0  0  0  0  0
   -3.6860   15.6900    1.3620 N   0  0  0  0  0  0  0  0  0  0  0  0
   -4.5920   15.5780    0.2230 C   0  0  0  0  0  0  0  0  0  0  0  0
  1  2  1  0
  2  3  1  0
  4  1  1  6
  2  5  1  1
  4  6  1  0
  4  7  1  0
  7  8  1  6
  3  9  1  0
  6  9  1  0
  6 10  1  6
  7 11  1  0
  9 12  1  0
  9 13  1  1
 10 14  1  0
 11 14  1  0
 12 15  1  0
 16 12  1  6
 16 17  1  0
 16 18  1  0
 17 19  1  0
 18 20  1  0
 17 21  1  6
 19 22  1  6
 20 22  1  0
 19 23  1  0
 21 24  1  0
 23 24  1  0
M  CHG  1  13  -1
M  END
