ucsf028-ucsf357
     RDKit          3D

 22 24  0  0  0  0  0  0  0  0999 V2000
   -4.4020   15.4610    1.3100 N   0  0  0  0  0  0  0  0  0  0  0  0
   -3.5100   14.7640    0.3560 C   0  0  2  0  0  0  0  0  0  0  0  0
   -2.0400   15.0620    0.6320 C   0  0  2  0  0  0  0  0  0  0  0  0
   -4.0000   15.2220   -0.9220 N   0  0  0  0  0  0  0  0  0  0  0  0
   -5.3600   14.7480   -1.1590 C   0  0  2  0  0  0  0  0  0  0  0  0
   -3.1630   15.0100   -2.0990 C   0  0  0  0  0  0  0  0  0  0  0  0
   -1.1570   14.6800   -0.6030 C   0  0  2  0  0  0  0  0  0  0  0  0
   -1.4750   14.3260    1.7530 N   0  0  0  0  0  0  0  0  0  0  0  0
   -5.8820   15.2700   -2.2380 O   0  0  0  0  0  0  0  0  0  0  0  0
   -6.2440   15.1820   -0.1590 O   0  0  0  0  0  0  0  0  0  0  0  0
   -0.0990   15.5840   -0.8110 O   0  0  0  0  0  0  0  0  0  0  0  0
   -1.8060   14.4130   -1.8840 N   0  0  0  0  0  0  0  0  0  0  0  0
   -0.4130   13.5820   -0.0980 N   0  0  0  0  0  0  0  0  0  0  0  0
   -0.1840   13.9960    1.2570 C   0  0  0  0  0  0  0  0  0  0  0  0
   -0.9880   14.7050   -3.0770 C   0  0  0  0  0  0  0  0  0  0  0  0
   -0.1870   13.5550   -3.6950 C   0  0  2  0  0  0  0  0  0  0  0  0
   -0.9210   12.7320   -4.7200 C   0  0  0  0  0  0  0  0  0  0  0  0
    0.3210   12.6320   -2.7160 O   0  0  0  0  0  0  0  0  0  0  0  0
    0.0990   11.2700   -3.2250 N   0  0  0  0  0  0  0  0  0  0  0  0
   -0.0980   11.4780   -4.6480 C   0  0  1  0  0  0  0  0  0  0  0  0
   -0.8050   10.4260   -5.2900 O   0  0  0  0  0  0  0  0  0  0  0  0
   -0.5900   10.4810   -6.6900 C   0  0  0  0  0  0  0  0  0  0  0  0
  2  1  1  1
  2  3  1  0
  2  4  1  0
  4  5  1  0
  4  6  1  0
  3  7  1  0
  3  8  1  1
  5  9  1  6
  5 10  1  0
  7 11  1  6
  6 12  1  0
  7 12  1  0
  7 13  1  0
  8 14  1  0
 13 14  1  0
 12 15  1  0
 16 15  1  1
 16 17  1  0
 16 18  1  0
 18 19  1  0
 17 20  1  0
 19 20  1  0
 20 21  1  1
 21 22  1  0
M  CHG  1   9  -1
M  END
