ucsf013-ucsf109
     RDKit          3D

 14 16  0  0  0  0  0  0  0  0999 V2000
   -4.0260   14.3220    1.8400 N   0  0  0  0  0  0  0  0  0  0  0  0
   -5.0820   15.0390    1.1530 C   0  0  2  0  0  0  0  0  0  0  0  0
   -6.3580   14.3910    1.4140 N   0  0  0  0  0  0  0  0  0  0  0  0
   -4.6920   15.3230   -0.3050 C   0  0  2  0  0  0  0  0  0  0  0  0
   -5.8890   15.1590   -1.3030 C   0  0  2  0  0  0  0  0  0  0  0  0
   -7.3710   14.5930    0.4280 C   0  0  1  0  0  0  0  0  0  0  0  0
   -3.3700   14.6090   -0.6630 C   0  0  0  0  0  0  0  0  0  0  0  0
   -7.0330   14.6520    2.6510 N   0  0  0  0  0  0  0  0  0  0  0  0
   -6.9280   14.2300   -0.8670 N   0  0  0  0  0  0  0  0  0  0  0  0
   -5.4070   14.7310   -2.6850 C   0  0  0  0  0  0  0  0  0  0  0  0
   -2.9240   14.6410   -2.1110 C   0  0  0  0  0  0  0  0  0  0  0  0
   -8.3810   13.7120    0.9360 N   0  0  0  0  0  0  0  0  0  0  0  0
   -8.3230   14.0230    2.3860 C   0  0  0  0  0  0  0  0  0  0  0  0
   -3.9870   15.1450   -3.0560 C   0  0  0  0  0  0  0  0  0  0  0  0
  2  1  1  6
  2  3  1  0
  2  4  1  0
  4  5  1  0
  3  6  1  0
  4  7  1  6
  3  8  1  0
  5  9  1  0
  6  9  1  6
  5 10  1  6
  7 11  1  0
  6 12  1  0
  8 13  1  0
 12 13  1  0
 10 14  1  0
 11 14  1  0
M  END
