ucsf337-ucsf387
     RDKit          3D

 22 23  0  0  0  0  0  0  0  0999 V2000
   -7.4260   14.6350    0.4260 C   0  0  0  0  0  0  0  0  0  0  0  0
   -6.1550   15.0280   -0.3490 C   0  0  2  0  0  0  0  0  0  0  0  0
   -6.2980   14.5040   -1.7240 N   0  0  0  0  0  0  0  0  0  0  0  0
   -4.8570   14.5530    0.3550 C   0  0  2  0  0  0  0  0  0  0  0  0
   -4.4780   15.5070    1.9950 Br  0  0  0  0  0  0  0  0  0  0  0  0
   -3.6130   14.8400   -0.4530 C   0  0  0  0  0  0  0  0  0  0  0  0
   -5.0200   14.4950   -2.4240 C   0  0  1  0  0  0  0  0  0  0  0  0
   -5.2360   14.7530   -3.8230 N   0  0  0  0  0  0  0  0  0  0  0  0
   -4.0660   15.4550   -1.7410 C   0  0  0  0  0  0  0  0  0  0  0  0
   -4.1480   14.2100   -4.6590 C   0  0  0  0  0  0  0  0  0  0  0  0
   -3.2060   15.3010   -5.2130 C   0  0  0  0  0  0  0  0  0  0  0  0
   -1.7660   15.3190   -4.6380 C   0  0  1  0  0  0  0  0  0  0  0  0
   -0.9250   14.0580   -4.9410 C   0  0  0  0  0  0  0  0  0  0  0  0
   -1.0900   16.6330   -5.0940 C   0  0  0  0  0  0  0  0  0  0  0  0
    0.5970   14.1790   -4.6140 C   0  0  2  0  0  0  0  0  0  0  0  0
    0.4340   16.6140   -5.0430 C   0  0  1  0  0  0  0  0  0  0  0  0
    0.9690   18.2390   -4.6200 Cl  0  0  0  0  0  0  0  0  0  0  0  0
    1.1290   13.0120   -3.7170 C   0  0  0  0  0  0  0  0  0  0  0  0
    0.9710   15.5710   -4.0890 C   0  0  0  0  0  0  0  0  0  0  0  0
    0.1610   12.4100   -2.6580 C   0  0  1  0  0  0  0  0  0  0  0  0
    0.2910   11.1050   -2.5550 O   0  0  0  0  0  0  0  0  0  0  0  0
    0.5960   12.7790   -1.3590 O   0  0  0  0  0  0  0  0  0  0  0  0
  2  1  1  1
  2  3  1  0
  2  4  1  0
  4  5  1  1
  4  6  1  0
  3  7  1  0
  7  8  1  6
  6  9  1  0
  7  9  1  0
  8 10  1  0
 10 11  1  0
 12 11  1  6
 12 13  1  0
 12 14  1  0
 13 15  1  0
 14 16  1  0
 16 17  1  1
 15 18  1  1
 15 19  1  0
 16 19  1  0
 18 20  1  0
 20 21  1  1
 20 22  1  0
M  CHG  1  21  -1
M  END
