ucsf241-ucsf264
     RDKit          3D

 27 30  0  0  0  0  0  0  0  0999 V2000
    0.8300   13.6450   -2.8250 O   0  0  0  0  0  0  0  0  0  0  0  0
    0.3890   12.5280   -3.6020 C   0  0  2  0  0  0  0  0  0  0  0  0
    0.8410   11.3250   -2.9830 O   0  0  0  0  0  0  0  0  0  0  0  0
    0.9460   13.4320   -1.4220 C   0  0  0  0  0  0  0  0  0  0  0  0
    0.8910   12.6610   -5.0720 C   0  0  0  0  0  0  0  0  0  0  0  0
   -0.3330   13.8310   -0.6690 C   0  0  2  0  0  0  0  0  0  0  0  0
   -1.1910   14.8680   -1.3950 C   0  0  0  0  0  0  0  0  0  0  0  0
   -0.1400   14.2830    0.8020 C   0  0  0  0  0  0  0  0  0  0  0  0
   -0.0190   12.0500   -6.0470 N   0  0  0  0  0  0  0  0  0  0  0  0
   -2.4970   14.7060   -0.6700 C   0  0  2  0  0  0  0  0  0  0  0  0
   -1.3970   14.5350    1.5300 N   0  0  0  0  0  0  0  0  0  0  0  0
    0.4430   12.0470   -7.4160 N   0  0  0  0  0  0  0  0  0  0  0  0
   -0.6300   10.7470   -5.7490 C   0  0  2  0  0  0  0  0  0  0  0  0
   -3.7480   15.3940   -1.1570 C   0  0  0  0  0  0  0  0  0  0  0  0
   -2.3570   15.2560    0.7350 C   0  0  2  0  0  0  0  0  0  0  0  0
    0.7800   10.6540   -7.7540 C   0  0  1  0  0  0  0  0  0  0  0  0
   -0.2780    9.8580   -6.9710 C   0  0  2  0  0  0  0  0  0  0  0  0
   -2.1270   10.7250   -5.3850 C   0  0  0  0  0  0  0  0  0  0  0  0
    0.9740   10.2670   -9.2300 C   0  0  0  0  0  0  0  0  0  0  0  0
   -4.5420   15.5570    0.1460 C   0  0  0  0  0  0  0  0  0  0  0  0
   -3.6880   15.0080    1.2090 N   0  0  0  0  0  0  0  0  0  0  0  0
   -1.5200    9.4020   -7.7370 C   0  0  0  0  0  0  0  0  0  0  0  0
   -2.8310    9.3790   -5.5570 C   0  0  0  0  0  0  0  0  0  0  0  0
    1.6440    9.0900   -9.3090 F   0  0  0  0  0  0  0  0  0  0  0  0
   -0.1650   10.1240   -9.9230 F   0  0  0  0  0  0  0  0  0  0  0  0
    1.6880   11.1780   -9.9170 F   0  0  0  0  0  0  0  0  0  0  0  0
   -2.4990    8.6470   -6.8510 C   0  0  0  0  0  0  0  0  0  0  0  0
  1  2  1  0
  2  3  1  1
  1  4  1  0
  2  5  1  0
  6  4  1  6
  6  7  1  0
  6  8  1  0
  5  9  1  0
 10  7  1  6
  8 11  1  0
  9 12  1  0
  9 13  1  0
 10 14  1  0
 10 15  1  0
 15 11  1  1
 12 16  1  0
 13 17  1  0
 16 17  1  0
 13 18  1  6
 16 19  1  6
 14 20  1  0
 15 21  1  0
 20 21  1  0
 17 22  1  6
 18 23  1  0
 19 24  1  0
 19 25  1  0
 19 26  1  0
 22 27  1  0
 23 27  1  0
M  END
