ucsf006-ucsf169
     RDKit          3D

 27 29  0  0  0  0  0  0  0  0999 V2000
   -2.4160   14.7300   -3.1390 C   0  0  0  0  0  0  0  0  0  0  0  0
   -1.4160   14.9570   -2.1140 N   0  0  0  0  0  0  0  0  0  0  0  0
   -0.0750   15.3140   -2.5950 C   0  0  0  0  0  0  0  0  0  0  0  0
   -1.4040   14.0880   -0.9670 C   0  0  2  0  0  0  0  0  0  0  0  0
    0.7960   14.1390   -2.9680 C   0  0  0  0  0  0  0  0  0  0  0  0
   -2.7390   14.1460   -0.2320 C   0  0  1  0  0  0  0  0  0  0  0  0
   -0.1430   14.2030   -0.2480 N   0  0  0  0  0  0  0  0  0  0  0  0
    0.3150   13.3470   -4.1880 C   0  0  2  0  0  0  0  0  0  0  0  0
   -2.5230   14.5510    1.1970 C   0  0  1  0  0  0  0  0  0  0  0  0
   -0.1410   14.7210    1.0850 C   0  0  0  0  0  0  0  0  0  0  0  0
   -3.8400   15.0530   -0.7530 C   0  0  0  0  0  0  0  0  0  0  0  0
   -0.8870   12.6460   -3.8780 O   0  0  0  0  0  0  0  0  0  0  0  0
    1.1810   12.1940   -4.3650 N   0  0  0  0  0  0  0  0  0  0  0  0
   -1.3810   15.3600    1.4030 N   0  0  0  0  0  0  0  0  0  0  0  0
   -3.6450   15.3720    1.6160 N   0  0  0  0  0  0  0  0  0  0  0  0
   -4.5720   15.4960    0.4920 C   0  0  0  0  0  0  0  0  0  0  0  0
   -0.0920   14.2880   -5.3490 C   0  0  1  0  0  0  0  0  0  0  0  0
    2.0270   12.2860   -3.1900 O   0  0  0  0  0  0  0  0  0  0  0  0
    0.3990   11.0620   -4.0010 O   0  0  0  0  0  0  0  0  0  0  0  0
   -1.6660   14.2380   -5.5450 C   0  0  0  0  0  0  0  0  0  0  0  0
    0.5690   15.6940   -5.2120 C   0  0  0  0  0  0  0  0  0  0  0  0
   -0.3480   16.8980   -5.3930 C   0  0  2  0  0  0  0  0  0  0  0  0
   -2.4650   15.5560   -5.4880 C   0  0  0  0  0  0  0  0  0  0  0  0
    0.2980   18.0200   -4.7950 O   0  0  0  0  0  0  0  0  0  0  0  0
   -1.7050   16.6500   -4.7940 C   0  0  2  0  0  0  0  0  0  0  0  0
    1.2760   18.5230   -5.6610 C   0  0  0  0  0  0  0  0  0  0  0  0
   -2.4270   17.8910   -4.8290 O   0  0  0  0  0  0  0  0  0  0  0  0
  1  2  1  0
  2  3  1  0
  4  2  1  6
  3  5  1  0
  4  6  1  0
  4  7  1  0
  5  8  1  0
  6  9  1  0
  7 10  1  0
  6 11  1  6
  8 12  1  1
  8 13  1  0
  9 14  1  6
 10 14  1  0
  9 15  1  0
 11 16  1  0
 15 16  1  0
  8 17  1  0
 13 18  1  0
 13 19  1  0
 17 20  1  1
 17 21  1  0
 21 22  1  0
 20 23  1  0
 22 24  1  1
 22 25  1  0
 23 25  1  0
 24 26  1  0
 25 27  1  6
M  CHG  1  19  -1
M  END
