ucsf224-ucsf004
     RDKit          3D

 21 23  0  0  0  0  0  0  0  0999 V2000
   -1.0920   18.1590   -5.2530 Cl  0  0  0  0  0  0  0  0  0  0  0  0
   -0.4410   17.0030   -4.0360 C   0  0  1  0  0  0  0  0  0  0  0  0
   -1.4900   16.0470   -3.4320 C   0  0  1  0  0  0  0  0  0  0  0  0
    0.7360   16.2260   -4.5520 C   0  0  0  0  0  0  0  0  0  0  0  0
   -2.6840   15.5110   -4.7210 Cl  0  0  0  0  0  0  0  0  0  0  0  0
   -0.9180   14.8070   -2.4970 C   0  0  1  0  0  0  0  0  0  0  0  0
    0.3050   14.7870   -4.8620 C   0  0  0  0  0  0  0  0  0  0  0  0
   -0.3150   13.8930   -3.7110 C   0  0  1  0  0  0  0  0  0  0  0  0
    0.1610   15.2630   -1.5150 N   0  0  0  0  0  0  0  0  0  0  0  0
   -2.2140   14.4820   -1.5690 C   0  0  1  0  0  0  0  0  0  0  0  0
    0.6610   12.6900   -3.5350 C   0  0  0  0  0  0  0  0  0  0  0  0
   -1.4440   13.2700   -4.2820 F   0  0  0  0  0  0  0  0  0  0  0  0
    0.1050   14.9540   -0.0670 C   0  0  0  0  0  0  0  0  0  0  0  0
   -2.0190   14.2950   -0.0350 C   0  0  1  0  0  0  0  0  0  0  0  0
   -3.4760   15.3640   -1.6110 C   0  0  0  0  0  0  0  0  0  0  0  0
    0.8340   11.9230   -2.2190 C   0  0  2  0  0  0  0  0  0  0  0  0
   -1.1730   15.2950    0.5060 N   0  0  0  0  0  0  0  0  0  0  0  0
   -3.3630   14.4110    0.5300 N   0  0  0  0  0  0  0  0  0  0  0  0
   -3.8750   15.5900   -0.1410 C   0  0  0  0  0  0  0  0  0  0  0  0
    0.3290   10.6950   -2.2680 O   0  0  0  0  0  0  0  0  0  0  0  0
    0.0490   12.4940   -1.2140 O   0  0  0  0  0  0  0  0  0  0  0  0
  2  1  1  6
  2  3  1  0
  2  4  1  0
  3  5  1  6
  3  6  1  0
  4  7  1  0
  6  8  1  0
  7  8  1  0
  6  9  1  1
  6 10  1  0
  8 11  1  0
  8 12  1  6
  9 13  1  0
 10 14  1  0
 10 15  1  1
 11 16  1  0
 13 17  1  0
 14 17  1  1
 14 18  1  0
 15 19  1  0
 18 19  1  0
 16 20  1  6
 16 21  1  0
M  CHG  1  20  -1
M  END
