ucsf262-ucsf248
     RDKit          3D

 28 31  0  0  0  0  0  0  0  0999 V2000
   -3.2150   15.6040   -5.8140 Cl  0  0  0  0  0  0  0  0  0  0  0  0
   -1.8880   16.5360   -5.0840 C   0  0  1  0  0  0  0  0  0  0  0  0
   -0.5430   15.7810   -4.8930 C   0  0  2  0  0  0  0  0  0  0  0  0
   -1.7750   17.9170   -5.7520 C   0  0  0  0  0  0  0  0  0  0  0  0
   -0.3580   14.6440   -3.8490 C   0  0  2  0  0  0  0  0  0  0  0  0
    0.4970   16.7960   -4.4210 C   0  0  1  0  0  0  0  0  0  0  0  0
   -0.3770   18.3280   -6.2680 C   0  0  0  0  0  0  0  0  0  0  0  0
   -0.9820   14.9810   -2.4740 C   0  0  0  0  0  0  0  0  0  0  0  0
    1.2050   14.5540   -3.9180 C   0  0  1  0  0  0  0  0  0  0  0  0
    1.6550   15.9690   -4.0650 N   0  0  0  0  0  0  0  0  0  0  0  0
    0.8410   17.8330   -5.4730 C   0  0  0  0  0  0  0  0  0  0  0  0
    2.0510   13.8350   -2.7890 C   0  0  1  0  0  0  0  0  0  0  0  0
   -1.5840   13.9910   -1.4710 C   0  0  0  0  0  0  0  0  0  0  0  0
    2.7840   14.6790   -2.0890 O   0  0  0  0  0  0  0  0  0  0  0  0
    1.1490   13.3530   -1.7910 O   0  0  0  0  0  0  0  0  0  0  0  0
   -3.1010   14.2130   -1.1520 C   0  0  1  0  0  0  0  0  0  0  0  0
   -3.5450   14.8740    0.1720 C   0  0  0  0  0  0  0  0  0  0  0  0
   -3.8520   14.9480   -2.2820 C   0  0  0  0  0  0  0  0  0  0  0  0
   -5.0190   14.4480    0.3020 C   0  0  1  0  0  0  0  0  0  0  0  0
   -5.3650   14.6710   -2.2420 C   0  0  0  0  0  0  0  0  0  0  0  0
   -5.8350   14.9340    1.4150 N   0  0  0  0  0  0  0  0  0  0  0  0
   -5.9220   14.8790   -0.8350 C   0  0  1  0  0  0  0  0  0  0  0  0
   -7.2170   14.6860    0.9110 C   0  0  1  0  0  0  0  0  0  0  0  0
   -7.0810   14.0670   -0.4120 N   0  0  0  0  0  0  0  0  0  0  0  0
   -8.3610   13.9780    2.1060 S   0  0  0  0  0  0  0  0  0  0  0  0
   -8.2540   12.4140    2.5840 N   0  0  0  0  0  0  0  0  0  0  0  0
   -8.2000   14.9900    3.3380 O   0  0  0  0  0  0  0  0  0  0  0  0
   -9.8040   14.3030    1.4830 O   0  0  0  0  0  0  0  0  0  0  0  0
  2  1  1  6
  3  2  1  1
  2  4  1  0
  3  5  1  0
  3  6  1  0
  4  7  1  0
  5  8  1  1
  5  9  1  0
  6 10  1  0
  9 10  1  1
  6 11  1  6
  7 11  1  0
  9 12  1  0
  8 13  1  0
 12 14  1  1
 12 15  1  0
 16 13  1  6
 16 17  1  0
 16 18  1  0
 19 17  1  6
 18 20  1  0
 19 21  1  0
 19 22  1  0
 22 20  1  6
 21 23  1  0
 22 24  1  0
 23 24  1  0
 23 25  1  1
 25 26  1  0
 25 27  1  0
 25 28  1  0
M  CHG  1  14  -1
M  END
