ucsf371-ucsf151
     RDKit          3D

 17 18  0  0  0  0  0  0  0  0999 V2000
   -4.9850   14.9430    0.9490 C   0  0  0  0  0  0  0  0  0  0  0  0
   -4.3480   15.3980   -0.3060 C   0  0  2  0  0  0  0  0  0  0  0  0
   -4.5370   14.5480   -1.4300 N   0  0  0  0  0  0  0  0  0  0  0  0
   -2.5470   15.2720   -0.2850 S   0  0  0  0  0  0  0  0  0  0  0  0
   -3.8400   15.1230   -2.5610 C   0  0  0  0  0  0  0  0  0  0  0  0
   -2.4790   15.6350   -2.1130 C   0  0  2  0  0  0  0  0  0  0  0  0
   -1.1560   14.8480   -2.6960 S   0  0  0  0  0  0  0  0  0  0  0  0
   -0.3090   14.5010   -1.1220 O   0  0  0  0  0  0  0  0  0  0  0  0
   -0.3440   16.8640   -3.3260 O   0  0  0  0  0  0  0  0  0  0  0  0
    0.1340   13.4780   -2.8060 O   0  0  0  0  0  0  0  0  0  0  0  0
   -1.5840   14.3610   -4.3050 C   0  0  2  0  0  0  0  0  0  0  0  0
   -0.5430   13.5750   -5.0040 C   0  0  0  0  0  0  0  0  0  0  0  0
   -2.6630   14.9390   -5.1210 C   0  0  1  0  0  0  0  0  0  0  0  0
   -2.2420   16.1210   -5.7540 O   0  0  0  0  0  0  0  0  0  0  0  0
   -3.0920   13.9030   -6.0650 C   0  0  0  0  0  0  0  0  0  0  0  0
   -1.2390   12.3920   -5.5320 C   0  0  0  0  0  0  0  0  0  0  0  0
   -2.6580   12.5490   -5.7430 N   0  0  0  0  0  0  0  0  0  0  0  0
  2  1  1  1
  2  3  1  0
  2  4  1  0
  3  5  1  0
  4  6  1  0
  5  6  1  0
  6  7  1  6
  7  8  1  0
  7  9  1  0
  7 10  1  0
 11  7  1  6
 11 12  1  0
 11 13  1  0
 13 14  1  6
 13 15  1  0
 12 16  1  0
 15 17  1  0
 16 17  1  0
M  CHG  2   9  -1  10  -1
M  END
