ucsf336-ucsf387
     RDKit          3D

 20 21  0  0  0  0  0  0  0  0999 V2000
    2.2140   13.2320   -4.5200 O   0  0  0  0  0  0  0  0  0  0  0  0
    1.0650   13.2010   -3.8730 C   0  0  2  0  0  0  0  0  0  0  0  0
    1.4690   12.9880   -2.5340 O   0  0  0  0  0  0  0  0  0  0  0  0
    0.1580   11.9660   -4.3650 C   0  0  2  0  0  0  0  0  0  0  0  0
    0.3200   14.5620   -3.9890 C   0  0  2  0  0  0  0  0  0  0  0  0
    0.3450   10.8800   -3.4570 O   0  0  0  0  0  0  0  0  0  0  0  0
    0.3980   11.5130   -5.7210 N   0  0  0  0  0  0  0  0  0  0  0  0
   -0.9990   14.4560   -4.7970 C   0  0  0  0  0  0  0  0  0  0  0  0
    1.0890   15.7580   -4.5570 C   0  0  0  0  0  0  0  0  0  0  0  0
   -0.6740   10.7780   -6.3680 C   0  0  0  0  0  0  0  0  0  0  0  0
   -1.8770   15.6860   -4.6710 C   0  0  2  0  0  0  0  0  0  0  0  0
    0.2800   17.0630   -4.6350 C   0  0  1  0  0  0  0  0  0  0  0  0
    1.0610   18.3370   -5.5910 Cl  0  0  0  0  0  0  0  0  0  0  0  0
   -3.3810   15.4680   -5.6090 Cl  0  0  0  0  0  0  0  0  0  0  0  0
   -0.2180    9.6000   -7.2430 C   0  0  0  0  0  0  0  0  0  0  0  0
   -1.7780   10.3350   -5.4100 C   0  0  0  0  0  0  0  0  0  0  0  0
   -1.1790   16.9750   -5.0950 C   0  0  0  0  0  0  0  0  0  0  0  0
   -1.3430    9.0180   -8.0990 C   0  0  0  0  0  0  0  0  0  0  0  0
   -2.4830    9.0430   -5.8380 C   0  0  0  0  0  0  0  0  0  0  0  0
   -2.6590    8.8820   -7.3430 C   0  0  0  0  0  0  0  0  0  0  0  0
  2  1  1  6
  2  3  1  0
  2  4  1  0
  2  5  1  0
  4  6  1  1
  4  7  1  0
  5  8  1  6
  5  9  1  0
  7 10  1  0
  8 11  1  0
  9 12  1  0
 12 13  1  6
 11 14  1  6
 10 15  1  0
 10 16  1  0
 11 17  1  0
 12 17  1  0
 15 18  1  0
 16 19  1  0
 18 20  1  0
 19 20  1  0
M  CHG  1   1  -1
M  END
