ucsf303-ucsf123
     RDKit          3D

 30 32  0  0  0  0  0  0  0  0999 V2000
   -2.9250   13.2400   -3.0590 O   0  0  0  0  0  0  0  0  0  0  0  0
   -4.2100   13.7950   -2.2750 S   0  0  1  0  0  0  0  0  0  0  0  0
   -4.5400   15.1400   -2.9540 O   0  0  0  0  0  0  0  0  0  0  0  0
   -5.4530   12.7940   -2.2630 N   0  0  0  0  0  0  0  0  0  0  0  0
   -3.6220   14.2240   -0.6540 C   0  0  0  0  0  0  0  0  0  0  0  0
   -3.3310   15.7480   -3.0280 C   0  0  0  0  0  0  0  0  0  0  0  0
   -5.1930   11.5820   -1.6500 C   0  0  1  0  0  0  0  0  0  0  0  0
   -2.0930   14.3760   -0.5340 C   0  0  0  0  0  0  0  0  0  0  0  0
   -4.3740   15.4360   -0.1220 C   0  0  0  0  0  0  0  0  0  0  0  0
   -3.0350   16.2090   -4.4350 C   0  0  0  0  0  0  0  0  0  0  0  0
   -6.1440   10.6020   -2.1010 N   0  0  0  0  0  0  0  0  0  0  0  0
   -3.5540   11.0650   -2.1770 S   0  0  0  0  0  0  0  0  0  0  0  0
   -1.6960   14.6640    0.9140 C   0  0  0  0  0  0  0  0  0  0  0  0
   -3.9430   15.7230    1.2930 C   0  0  0  0  0  0  0  0  0  0  0  0
   -2.3010   17.4520   -4.5980 N   0  0  0  0  0  0  0  0  0  0  0  0
   -4.0950    9.3570   -2.2830 C   0  0  0  0  0  0  0  0  0  0  0  0
   -5.5200    9.2660   -1.9320 N   0  0  0  0  0  0  0  0  0  0  0  0
   -2.9640   14.6710    1.7490 C   0  0  0  0  0  0  0  0  0  0  0  0
   -1.2750   17.2180   -5.7300 S   0  0  0  0  0  0  0  0  0  0  0  0
   -0.3170   18.4290   -6.1120 O   0  0  0  0  0  0  0  0  0  0  0  0
   -2.3380   17.0570   -6.9150 O   0  0  0  0  0  0  0  0  0  0  0  0
   -0.2950   15.7570   -5.3050 C   0  0  1  0  0  0  0  0  0  0  0  0
    0.5720   16.0720   -4.0900 C   0  0  0  0  0  0  0  0  0  0  0  0
   -1.2040   14.5090   -5.1060 C   0  0  0  0  0  0  0  0  0  0  0  0
    1.1340   14.8420   -3.3920 C   0  0  0  0  0  0  0  0  0  0  0  0
   -0.5520   13.3330   -4.3690 C   0  0  0  0  0  0  0  0  0  0  0  0
    0.0210   13.8370   -3.0420 C   0  0  1  0  0  0  0  0  0  0  0  0
    0.4690   12.7250   -2.0560 C   0  0  2  0  0  0  0  0  0  0  0  0
    1.8680   12.7140   -2.0340 O   0  0  0  0  0  0  0  0  0  0  0  0
    0.1830   11.5040   -2.4830 O   0  0  0  0  0  0  0  0  0  0  0  0
  2  1  1  6
  2  3  1  0
  2  4  1  0
  2  5  1  0
  3  6  1  0
  7  4  1  6
  5  8  1  0
  5  9  1  0
  6 10  1  0
  7 11  1  0
  7 12  1  0
  8 13  1  0
  9 14  1  0
 10 15  1  0
 12 16  1  0
 11 17  1  0
 16 17  1  0
 13 18  1  0
 14 18  1  0
 15 19  1  0
 19 20  1  0
 19 21  1  0
 22 19  1  1
 22 23  1  0
 22 24  1  0
 23 25  1  0
 24 26  1  0
 27 25  1  6
 26 27  1  0
 27 28  1  0
 28 29  1  6
 28 30  1  0
M  CHG  1  30  -1
M  END
