ucsf039-ucsf378
     RDKit          3D

 27 30  0  0  0  0  0  0  0  0999 V2000
   -4.0800   15.8780    0.7240 N   0  0  0  0  0  0  0  0  0  0  0  0
   -3.6010   14.7780   -0.1000 C   0  0  2  0  0  0  0  0  0  0  0  0
   -2.1330   14.4190    0.2120 C   0  0  1  0  0  0  0  0  0  0  0  0
   -3.8900   15.1460   -1.4520 N   0  0  0  0  0  0  0  0  0  0  0  0
   -2.7500   15.5770   -2.2390 C   0  0  0  0  0  0  0  0  0  0  0  0
   -1.2660   14.1200   -1.0470 C   0  0  1  0  0  0  0  0  0  0  0  0
   -1.3770   15.4240    0.9690 N   0  0  0  0  0  0  0  0  0  0  0  0
   -1.7590   14.5310   -2.3890 N   0  0  0  0  0  0  0  0  0  0  0  0
    0.0120   14.7020   -0.6750 N   0  0  0  0  0  0  0  0  0  0  0  0
   -0.0300   14.9540    0.7390 C   0  0  0  0  0  0  0  0  0  0  0  0
   -0.7190   14.6600   -3.5210 C   0  0  1  0  0  0  0  0  0  0  0  0
   -0.1450   16.1770   -3.4320 C   0  0  1  0  0  0  0  0  0  0  0  0
    0.0880   13.3490   -4.1070 C   0  0  2  0  0  0  0  0  0  0  0  0
   -1.0230   15.1160   -4.9550 C   0  0  0  0  0  0  0  0  0  0  0  0
   -0.2890   11.9690   -3.4920 C   0  0  0  0  0  0  0  0  0  0  0  0
    1.1600   16.4520   -4.2290 C   0  0  0  0  0  0  0  0  0  0  0  0
   -1.1560   17.1630   -3.9910 N   0  0  0  0  0  0  0  0  0  0  0  0
    1.5550   13.7170   -4.3830 C   0  0  2  0  0  0  0  0  0  0  0  0
    0.3900   15.4350   -5.4930 C   0  0  0  0  0  0  0  0  0  0  0  0
    2.8990   12.9870   -3.4720 Cl  0  0  0  0  0  0  0  0  0  0  0  0
    0.5020   11.4690   -2.3050 C   0  0  1  0  0  0  0  0  0  0  0  0
   -0.6950   17.7350   -5.2550 C   0  0  2  0  0  0  0  0  0  0  0  0
    1.0040   18.1350   -4.8920 S   0  0  0  0  0  0  0  0  0  0  0  0
    1.5170   15.2040   -4.4690 C   0  0  0  0  0  0  0  0  0  0  0  0
   -1.4810   18.9240   -5.7930 C   0  0  0  0  0  0  0  0  0  0  0  0
   -0.1160   11.7950   -1.2130 O   0  0  0  0  0  0  0  0  0  0  0  0
    0.3460   10.0680   -2.3010 O   0  0  0  0  0  0  0  0  0  0  0  0
  2  1  1  1
  2  3  1  0
  2  4  1  0
  4  5  1  0
  3  6  1  0
  3  7  1  6
  5  8  1  0
  6  8  1  0
  6  9  1  1
  7 10  1  0
  9 10  1  0
 11  8  1  1
 11 12  1  0
 11 13  1  0
 11 14  1  0
 13 15  1  1
 12 16  1  6
 12 17  1  0
 13 18  1  0
 14 19  1  0
 18 20  1  1
 15 21  1  0
 17 22  1  0
 16 23  1  0
 22 23  1  0
 18 24  1  0
 19 24  1  0
 22 25  1  1
 21 26  1  1
 21 27  1  0
M  CHG  1  26  -1
M  END
