ucsf333-ucsf348
     RDKit          3D

 19 21  0  0  0  0  0  0  0  0999 V2000
    2.0940   12.3080   -2.1590 O   0  0  0  0  0  0  0  0  0  0  0  0
    0.9670   12.3170   -2.7930 C   0  0  2  0  0  0  0  0  0  0  0  0
    0.6670   10.9520   -3.0100 O   0  0  0  0  0  0  0  0  0  0  0  0
    1.1930   13.0530   -4.1240 C   0  0  0  0  0  0  0  0  0  0  0  0
    0.5180   14.4180   -4.0380 C   0  0  0  0  0  0  0  0  0  0  0  0
   -0.6020   14.3510   -2.9980 C   0  0  2  0  0  0  0  0  0  0  0  0
   -1.8650   14.9430   -3.3310 N   0  0  0  0  0  0  0  0  0  0  0  0
   -0.3080   14.7710   -1.2740 S   0  0  0  0  0  0  0  0  0  0  0  0
   -2.7760   14.4500   -2.2910 C   0  0  1  0  0  0  0  0  0  0  0  0
   -2.0260   14.2520   -0.9360 C   0  0  2  0  0  0  0  0  0  0  0  0
   -3.9500   15.4030   -2.2700 C   0  0  0  0  0  0  0  0  0  0  0  0
   -2.6010   14.8370    0.3700 C   0  0  0  0  0  0  0  0  0  0  0  0
   -4.7750   15.5420   -0.9670 C   0  0  2  0  0  0  0  0  0  0  0  0
   -4.0930   15.1890    0.3710 C   0  0  1  0  0  0  0  0  0  0  0  0
   -6.0870   14.7720   -1.1400 C   0  0  0  0  0  0  0  0  0  0  0  0
   -4.8930   14.2330    1.1330 N   0  0  0  0  0  0  0  0  0  0  0  0
   -6.2430   14.5790    1.2990 C   0  0  1  0  0  0  0  0  0  0  0  0
   -6.9410   14.7710    0.0570 N   0  0  0  0  0  0  0  0  0  0  0  0
   -6.9040   13.6590    2.1470 N   0  0  0  0  0  0  0  0  0  0  0  0
  2  1  1  1
  2  3  1  0
  2  4  1  0
  4  5  1  0
  6  5  1  6
  6  7  1  0
  6  8  1  0
  7  9  1  0
  8 10  1  0
  9 10  1  0
  9 11  1  1
 10 12  1  1
 13 11  1  6
 14 12  1  6
 13 14  1  0
 13 15  1  0
 14 16  1  0
 16 17  1  0
 15 18  1  0
 17 18  1  0
 17 19  1  6
M  CHG  1   1  -1
M  END
