ucsf213-ucsf339
     RDKit          3D

 26 29  0  0  0  0  0  0  0  0999 V2000
    0.6620   10.6670   -2.3430 O   0  0  0  0  0  0  0  0  0  0  0  0
    0.1630   11.8810   -2.5720 C   0  0  1  0  0  0  0  0  0  0  0  0
    0.3140   12.6380   -1.3550 O   0  0  0  0  0  0  0  0  0  0  0  0
    0.9580   12.6900   -3.6750 C   0  0  0  0  0  0  0  0  0  0  0  0
    0.5080   14.0470   -1.5940 C   0  0  0  0  0  0  0  0  0  0  0  0
    0.3430   14.1150   -3.8930 C   0  0  1  0  0  0  0  0  0  0  0  0
    1.3100   15.3010   -4.1950 C   0  0  0  0  0  0  0  0  0  0  0  0
   -0.9320   14.2050   -5.2310 S   0  0  0  0  0  0  0  0  0  0  0  0
   -0.7710   14.7550   -2.1360 C   0  0  2  0  0  0  0  0  0  0  0  0
    0.6370   16.2660   -5.1920 C   0  0  1  0  0  0  0  0  0  0  0  0
   -0.8540   16.0120   -5.1950 C   0  0  2  0  0  0  0  0  0  0  0  0
   -1.7570   15.0280   -1.0080 C   0  0  0  0  0  0  0  0  0  0  0  0
   -1.5200   14.0000   -3.2650 C   0  0  0  0  0  0  0  0  0  0  0  0
    0.8040   17.7840   -5.1070 C   0  0  0  0  0  0  0  0  0  0  0  0
   -1.6260   16.9030   -4.2640 C   0  0  0  0  0  0  0  0  0  0  0  0
   -3.0940   14.3920   -1.3690 C   0  0  2  0  0  0  0  0  0  0  0  0
   -2.6940   14.7460   -3.7690 N   0  0  0  0  0  0  0  0  0  0  0  0
   -0.3950   18.4460   -5.8040 C   0  0  0  0  0  0  0  0  0  0  0  0
   -1.6690   18.2540   -5.0050 C   0  0  0  0  0  0  0  0  0  0  0  0
   -3.6100   15.0040   -2.6740 C   0  0  0  0  0  0  0  0  0  0  0  0
   -4.1360   14.4130   -0.2570 C   0  0  0  0  0  0  0  0  0  0  0  0
   -3.9840   15.6330    0.6370 C   0  0  0  0  0  0  0  0  0  0  0  0
   -5.5880   14.2350   -0.6860 C   0  0  0  0  0  0  0  0  0  0  0  0
   -4.5280   15.2430    1.9730 C   0  0  0  0  0  0  0  0  0  0  0  0
   -6.5190   14.3070    0.5090 C   0  0  0  0  0  0  0  0  0  0  0  0
   -5.7850   14.3590    1.8630 C   0  0  0  0  0  0  0  0  0  0  0  0
  2  1  1  1
  2  3  1  0
  2  4  1  0
  3  5  1  0
  6  4  1  6
  6  7  1  0
  6  8  1  0
  9  5  1  1
 10  7  1  1
  8 11  1  0
 10 11  1  0
  9 12  1  0
  9 13  1  0
 10 14  1  0
 11 15  1  1
 12 16  1  0
 13 17  1  0
 14 18  1  0
 15 19  1  0
 18 19  1  0
 16 20  1  0
 17 20  1  0
 16 21  1  1
 21 22  1  0
 21 23  1  0
 22 24  1  0
 23 25  1  0
 24 26  1  0
 25 26  1  0
M  CHG  1   1  -1
M  END
