ucsf260-ucsf138
     RDKit          3D

 23 25  0  0  0  0  0  0  0  0999 V2000
    0.6810   11.2620   -2.6300 O   0  0  0  0  0  0  0  0  0  0  0  0
    0.7870   12.5660   -2.8110 C   0  0  1  0  0  0  0  0  0  0  0  0
    2.0330   12.8000   -2.2140 O   0  0  0  0  0  0  0  0  0  0  0  0
    0.8290   12.9350   -4.3260 C   0  0  0  0  0  0  0  0  0  0  0  0
    0.2690   11.8140   -5.2500 C   0  0  2  0  0  0  0  0  0  0  0  0
    0.8250   11.7910   -6.7400 C   0  0  1  0  0  0  0  0  0  0  0  0
   -1.1630   11.6430   -5.4390 N   0  0  0  0  0  0  0  0  0  0  0  0
    2.2050   12.0090   -6.7570 O   0  0  0  0  0  0  0  0  0  0  0  0
    0.4960   10.5090   -7.4430 N   0  0  0  0  0  0  0  0  0  0  0  0
   -1.9820   11.3470   -4.2780 C   0  0  0  0  0  0  0  0  0  0  0  0
   -1.2130   10.4860   -6.3100 C   0  0  1  0  0  0  0  0  0  0  0  0
   -2.8680   10.2540   -4.7130 N   0  0  0  0  0  0  0  0  0  0  0  0
   -1.9100    9.4560   -5.4590 C   0  0  1  0  0  0  0  0  0  0  0  0
   -1.8360   10.6190   -7.6810 C   0  0  0  0  0  0  0  0  0  0  0  0
    1.0030   10.2380   -8.8070 C   0  0  0  0  0  0  0  0  0  0  0  0
   -2.4160    8.3130   -6.3260 C   0  0  0  0  0  0  0  0  0  0  0  0
   -1.5710    9.3340   -8.4780 C   0  0  0  0  0  0  0  0  0  0  0  0
    0.0320   10.5620   -9.9550 C   0  0  0  0  0  0  0  0  0  0  0  0
    1.4270    8.7460   -8.8750 C   0  0  0  0  0  0  0  0  0  0  0  0
   -1.5230    8.1210   -7.5570 C   0  0  0  0  0  0  0  0  0  0  0  0
    0.1150    9.5630  -11.1200 C   0  0  0  0  0  0  0  0  0  0  0  0
    2.0830    8.2910  -10.1830 C   0  0  0  0  0  0  0  0  0  0  0  0
    1.5230    9.0200  -11.3860 C   0  0  0  0  0  0  0  0  0  0  0  0
  2  1  1  6
  2  3  1  0
  2  4  1  0
  5  4  1  6
  5  6  1  0
  5  7  1  0
  6  8  1  1
  6  9  1  0
  7 10  1  0
  7 11  1  0
 10 12  1  0
 11 13  1  0
 12 13  1  0
 11 14  1  6
  9 15  1  0
 13 16  1  6
 14 17  1  0
 15 18  1  0
 15 19  1  0
 16 20  1  0
 17 20  1  0
 18 21  1  0
 19 22  1  0
 21 23  1  0
 22 23  1  0
M  CHG  1   1  -1
M  END
