ucsf004-ucsf424
     RDKit          3D

 29 33  0  0  0  0  0  0  0  0999 V2000
   -2.1710   12.6170   -4.5600 F   0  0  0  0  0  0  0  0  0  0  0  0
   -1.7040   13.8930   -4.6690 C   0  0  2  0  0  0  0  0  0  0  0  0
   -0.2090   13.9280   -5.0150 C   0  0  2  0  0  0  0  0  0  0  0  0
   -2.1340   14.6880   -3.4420 C   0  0  0  0  0  0  0  0  0  0  0  0
    0.5220   12.5420   -4.9590 C   0  0  1  0  0  0  0  0  0  0  0  0
   -1.0820   14.9040   -2.4290 N   0  0  0  0  0  0  0  0  0  0  0  0
    0.4570   15.1450   -4.3940 C   0  0  0  0  0  0  0  0  0  0  0  0
    0.5530   11.8110   -3.5470 C   0  0  1  0  0  0  0  0  0  0  0  0
    0.2860   15.2290   -2.8870 C   0  0  0  0  0  0  0  0  0  0  0  0
   -1.2140   14.1980   -1.1570 C   0  0  1  0  0  0  0  0  0  0  0  0
    0.1550   11.7710   -6.2390 C   0  0  1  0  0  0  0  0  0  0  0  0
    1.4100   12.3050   -2.6760 O   0  0  0  0  0  0  0  0  0  0  0  0
   -0.6520   11.8850   -2.8390 O   0  0  0  0  0  0  0  0  0  0  0  0
   -0.0660   14.5240   -0.3260 N   0  0  0  0  0  0  0  0  0  0  0  0
   -2.6010   14.2290   -0.4540 C   0  0  1  0  0  0  0  0  0  0  0  0
    1.3070   11.3790   -7.1010 N   0  0  0  0  0  0  0  0  0  0  0  0
   -0.8470   10.6450   -6.3600 C   0  0  1  0  0  0  0  0  0  0  0  0
   -0.2260   14.4850    1.0930 C   0  0  0  0  0  0  0  0  0  0  0  0
   -2.5630   14.5370    1.0250 C   0  0  1  0  0  0  0  0  0  0  0  0
   -3.7160   15.1130   -1.0120 C   0  0  0  0  0  0  0  0  0  0  0  0
    0.7420   10.3810   -8.0150 O   0  0  0  0  0  0  0  0  0  0  0  0
   -0.1830    9.6290   -7.2260 C   0  0  2  0  0  0  0  0  0  0  0  0
   -1.6240    9.9580   -5.2690 C   0  0  0  0  0  0  0  0  0  0  0  0
   -1.3980   15.2160    1.4350 N   0  0  0  0  0  0  0  0  0  0  0  0
   -3.7110   15.3310    1.3800 N   0  0  0  0  0  0  0  0  0  0  0  0
   -4.5640   15.4720    0.1970 C   0  0  0  0  0  0  0  0  0  0  0  0
   -1.2690    8.9340   -8.0220 C   0  0  0  0  0  0  0  0  0  0  0  0
   -2.7490    9.1100   -5.8890 C   0  0  0  0  0  0  0  0  0  0  0  0
   -2.3090    8.2670   -7.1010 C   0  0  0  0  0  0  0  0  0  0  0  0
  2  1  1  1
  2  3  1  0
  2  4  1  0
  3  5  1  0
  4  6  1  0
  3  7  1  1
  5  8  1  1
  6  9  1  0
  7  9  1  0
 10  6  1  6
  5 11  1  0
  8 12  1  1
  8 13  1  0
 10 14  1  0
 10 15  1  0
 11 16  1  1
 11 17  1  0
 14 18  1  0
 15 19  1  0
 15 20  1  6
 16 21  1  0
 17 22  1  0
 21 22  1  0
 17 23  1  1
 18 24  1  0
 19 24  1  6
 19 25  1  0
 20 26  1  0
 25 26  1  0
 22 27  1  6
 23 28  1  0
 27 29  1  0
 28 29  1  0
M  CHG  1  12  -1
M  END
