ucsf114-ucsf385
     RDKit          3D

 19 20  0  0  0  0  0  0  0  0999 V2000
    0.8430   18.2130   -4.6560 C   0  0  0  0  0  0  0  0  0  0  0  0
   -0.2670   17.6360   -5.5250 C   0  0  0  0  0  0  0  0  0  0  0  0
   -1.5440   18.4700   -5.3840 C   0  0  0  0  0  0  0  0  0  0  0  0
   -0.5620   16.3050   -5.1080 O   0  0  0  0  0  0  0  0  0  0  0  0
    0.5210   15.7440   -4.3250 C   0  0  0  0  0  0  0  0  0  0  0  0
    0.1910   14.3230   -3.8440 C   0  0  0  0  0  0  0  0  0  0  0  0
   -0.1980   14.2450   -2.4000 N   0  0  0  0  0  0  0  0  0  0  0  0
   -1.2730   15.2220   -2.0190 C   0  0  2  0  0  0  0  0  0  0  0  0
    0.8330   14.0610   -1.3660 C   0  0  1  0  0  0  0  0  0  0  0  0
    2.5490   14.0120   -1.9810 S   0  0  0  0  0  0  0  0  0  0  0  0
   -1.8180   15.1150   -0.5790 C   0  0  2  0  0  0  0  0  0  0  0  0
    0.7500   14.9410   -0.2060 N   0  0  0  0  0  0  0  0  0  0  0  0
   -2.6170   15.2930   -2.7850 C   0  0  2  0  0  0  0  0  0  0  0  0
   -2.9090   16.0110   -0.1890 N   0  0  0  0  0  0  0  0  0  0  0  0
   -0.5820   15.1840    0.4080 C   0  0  2  0  0  0  0  0  0  0  0  0
   -2.6560   13.9530   -0.6770 N   0  0  0  0  0  0  0  0  0  0  0  0
   -3.4840   14.3560   -1.8590 C   0  0  0  0  0  0  0  0  0  0  0  0
   -2.5140   14.7690   -3.9890 O   0  0  0  0  0  0  0  0  0  0  0  0
   -0.7770   14.3390    1.5670 O   0  0  0  0  0  0  0  0  0  0  0  0
  1  2  1  0
  2  3  1  0
  2  4  1  0
  4  5  1  0
  5  6  1  0
  6  7  1  0
  8  7  1  6
  7  9  1  0
  9 10  1  6
  8 11  1  0
  9 12  1  0
  8 13  1  0
 11 14  1  1
 11 15  1  0
 12 15  1  0
 11 16  1  0
 13 17  1  0
 16 17  1  0
 13 18  1  6
 15 19  1  1
M  CHG  1  18  -1
M  END
