ucsf241-ucsf258
     RDKit          3D

 13 14  0  0  0  0  0  0  0  0999 V2000
   -0.6880   12.5520   -1.5430 O   0  0  0  0  0  0  0  0  0  0  0  0
   -1.7060   12.9500   -2.3570 C   0  0  2  0  0  0  0  0  0  0  0  0
   -0.9650   13.3080   -3.5110 O   0  0  0  0  0  0  0  0  0  0  0  0
   -2.4050   14.2350   -1.7640 C   0  0  1  0  0  0  0  0  0  0  0  0
   -2.2580   15.2600   -2.7760 O   0  0  0  0  0  0  0  0  0  0  0  0
   -3.8030   14.3120   -1.0040 C   0  0  0  0  0  0  0  0  0  0  0  0
   -1.5560   14.4090   -0.5830 C   0  0  2  0  0  0  0  0  0  0  0  0
   -2.3950   14.3570    0.6450 C   0  0  2  0  0  0  0  0  0  0  0  0
   -3.5550   15.0980    0.2610 N   0  0  0  0  0  0  0  0  0  0  0  0
   -0.3880   15.2870   -0.4950 C   0  0  0  0  0  0  0  0  0  0  0  0
    0.4800   14.5660    0.3400 C   0  0  0  0  0  0  0  0  0  0  0  0
   -1.6040   14.8950    1.7030 N   0  0  0  0  0  0  0  0  0  0  0  0
   -0.2740   14.2240    1.6240 C   0  0  0  0  0  0  0  0  0  0  0  0
  2  1  1  1
  2  3  1  0
  2  4  1  0
  4  5  1  6
  4  6  1  0
  4  7  1  0
  7  8  1  0
  6  9  1  0
  8  9  1  6
  7 10  1  6
 10 11  1  0
  8 12  1  0
 11 13  1  0
 12 13  1  0
M  CHG  1   1  -1
M  END
