ucsf114-ucsf224
     RDKit          3D

 26 28  0  0  0  0  0  0  0  0999 V2000
    1.2190   18.7540   -5.7790 C   0  0  0  0  0  0  0  0  0  0  0  0
   -0.2520   18.5340   -6.0600 C   0  0  2  0  0  0  0  0  0  0  0  0
   -1.1090   18.1900   -4.8900 C   0  0  0  0  0  0  0  0  0  0  0  0
   -0.1060   17.2410   -6.6000 O   0  0  0  0  0  0  0  0  0  0  0  0
    0.6660   16.4080   -5.7150 C   0  0  0  0  0  0  0  0  0  0  0  0
   -0.6300   16.7540   -4.7450 C   0  0  2  0  0  0  0  0  0  0  0  0
   -1.6170   15.5580   -4.9260 C   0  0  2  0  0  0  0  0  0  0  0  0
    0.6060   16.5620   -3.8510 C   0  0  0  0  0  0  0  0  0  0  0  0
   -3.2640   15.6790   -4.2690 Cl  0  0  0  0  0  0  0  0  0  0  0  0
   -1.0070   14.1580   -4.7060 C   0  0  0  0  0  0  0  0  0  0  0  0
    1.2380   15.2240   -4.1660 C   0  0  0  0  0  0  0  0  0  0  0  0
    0.1880   14.1960   -3.7510 C   0  0  1  0  0  0  0  0  0  0  0  0
   -0.1180   14.3800   -2.3340 N   0  0  0  0  0  0  0  0  0  0  0  0
   -1.5010   14.0300   -1.9000 C   0  0  1  0  0  0  0  0  0  0  0  0
    0.8290   13.8630   -1.3770 C   0  0  1  0  0  0  0  0  0  0  0  0
    2.6080   14.0690   -1.8000 S   0  0  0  0  0  0  0  0  0  0  0  0
   -1.8560   14.0400   -0.3940 C   0  0  1  0  0  0  0  0  0  0  0  0
    0.6230   14.6000   -0.1420 N   0  0  0  0  0  0  0  0  0  0  0  0
   -2.7220   14.7040   -2.5390 C   0  0  0  0  0  0  0  0  0  0  0  0
    0.5940   12.4700   -1.1920 O   0  0  0  0  0  0  0  0  0  0  0  0
   -0.6150   14.2470    0.5150 C   0  0  1  0  0  0  0  0  0  0  0  0
   -2.9060   15.0750   -0.1910 N   0  0  0  0  0  0  0  0  0  0  0  0
   -3.6780   15.0720   -1.4200 C   0  0  0  0  0  0  0  0  0  0  0  0
    0.5100   11.6500   -2.3630 C   0  0  0  0  0  0  0  0  0  0  0  0
   -0.9360   15.2090    1.5180 O   0  0  0  0  0  0  0  0  0  0  0  0
    0.2780   10.4380   -1.9010 O   0  0  0  0  0  0  0  0  0  0  0  0
  2  1  1  1
  2  3  1  0
  2  4  1  0
  4  5  1  0
  6  3  1  1
  6  7  1  0
  6  8  1  0
  7  9  1  1
  7 10  1  0
  8 11  1  0
 10 12  1  0
 11 12  1  0
 12 13  1  1
 13 14  1  0
 13 15  1  0
 15 16  1  6
 14 17  1  0
 15 18  1  0
 14 19  1  6
 15 20  1  0
 17 21  1  0
 18 21  1  0
 17 22  1  6
 19 23  1  0
 22 23  1  0
 20 24  1  0
 21 25  1  1
 24 26  1  0
M  CHG  1  26  -1
M  END
