ucsf333-ucsf006
     RDKit          3D

 25 27  0  0  0  0  0  0  0  0999 V2000
   -6.1930   14.7220   -1.3420 Cl  0  0  0  0  0  0  0  0  0  0  0  0
   -4.4500   14.8460   -1.8250 C   0  0  2  0  0  0  0  0  0  0  0  0
   -3.7340   13.4920   -1.8900 C   0  0  0  0  0  0  0  0  0  0  0  0
   -3.8090   15.8850   -0.9290 C   0  0  0  0  0  0  0  0  0  0  0  0
   -2.6620   13.4120   -3.0230 C   0  0  1  0  0  0  0  0  0  0  0  0
   -2.5250   15.6200   -0.0860 C   0  0  2  0  0  0  0  0  0  0  0  0
   -1.1560   13.3810   -2.5720 C   0  0  2  0  0  0  0  0  0  0  0  0
   -2.8340   12.1100   -3.8210 C   0  0  0  0  0  0  0  0  0  0  0  0
   -1.1160   15.7470   -0.7840 C   0  0  2  0  0  0  0  0  0  0  0  0
   -2.5140   14.3570    0.7480 C   0  0  0  0  0  0  0  0  0  0  0  0
   -0.1900   14.1020   -3.6040 C   0  0  2  0  0  0  0  0  0  0  0  0
   -1.0900   15.9770   -2.2520 N   0  0  0  0  0  0  0  0  0  0  0  0
   -0.9300   11.6120   -2.0970 S   0  0  0  0  0  0  0  0  0  0  0  0
   -1.4050   14.4430    1.6780 N   0  0  0  0  0  0  0  0  0  0  0  0
   -0.3350   14.5890   -0.4230 N   0  0  0  0  0  0  0  0  0  0  0  0
   -2.3850   10.9670   -2.9410 C   0  0  0  0  0  0  0  0  0  0  0  0
    1.1300   13.4020   -4.0690 C   0  0  1  0  0  0  0  0  0  0  0  0
   -2.2960   15.5690   -2.9830 C   0  0  0  0  0  0  0  0  0  0  0  0
    0.0920   15.5120   -3.0150 C   0  0  0  0  0  0  0  0  0  0  0  0
   -0.1410   14.4630    0.9900 C   0  0  0  0  0  0  0  0  0  0  0  0
    1.5970   12.2560   -3.1110 C   0  0  1  0  0  0  0  0  0  0  0  0
    1.0200   12.8880   -5.5140 C   0  0  0  0  0  0  0  0  0  0  0  0
    1.3540   12.5430   -1.8610 O   0  0  0  0  0  0  0  0  0  0  0  0
    0.7740   11.1200   -3.2890 O   0  0  0  0  0  0  0  0  0  0  0  0
   -0.1630   12.1130   -5.7020 O   0  0  0  0  0  0  0  0  0  0  0  0
  2  1  1  1
  2  3  1  0
  2  4  1  0
  5  3  1  1
  6  4  1  6
  5  7  1  0
  5  8  1  0
  6  9  1  0
  6 10  1  0
  7 11  1  0
  9 12  1  0
  7 13  1  6
 10 14  1  0
  9 15  1  6
  8 16  1  0
 13 16  1  0
 11 17  1  0
 12 18  1  0
 11 19  1  1
 12 19  1  0
 14 20  1  0
 15 20  1  0
 17 21  1  0
 17 22  1  6
 21 23  1  1
 21 24  1  0
 22 25  1  0
M  CHG  1  23  -1
M  END
