ucsf115-ucsf109
     RDKit          3D

 25 29  0  0  0  0  0  0  0  0999 V2000
   -1.6780   14.3620   -3.8020 C   0  0  0  0  0  0  0  0  0  0  0  0
   -1.4820   15.4970   -2.8560 N   0  0  0  0  0  0  0  0  0  0  0  0
   -1.6450   15.0370   -1.4920 C   0  0  1  0  0  0  0  0  0  0  0  0
   -0.5610   13.2670   -3.7620 C   0  0  2  0  0  0  0  0  0  0  0  0
   -1.0650   11.9660   -4.1660 O   0  0  0  0  0  0  0  0  0  0  0  0
    0.0430   13.0060   -2.3840 C   0  0  0  0  0  0  0  0  0  0  0  0
    0.6680   11.6580   -2.5850 C   0  0  0  0  0  0  0  0  0  0  0  0
   -0.3830   10.9510   -3.4070 C   0  0  0  0  0  0  0  0  0  0  0  0
   -0.6660   15.6380   -0.5990 N   0  0  0  0  0  0  0  0  0  0  0  0
   -3.0280   14.7650   -0.8050 C   0  0  1  0  0  0  0  0  0  0  0  0
   -0.4650   14.8440    0.6180 C   0  0  0  0  0  0  0  0  0  0  0  0
   -2.5410   13.7800    0.2970 C   0  0  1  0  0  0  0  0  0  0  0  0
   -4.1370   15.7550   -0.4410 N   0  0  0  0  0  0  0  0  0  0  0  0
   -1.7120   14.4490    1.2850 N   0  0  0  0  0  0  0  0  0  0  0  0
   -3.6440   13.0640    0.8410 N   0  0  0  0  0  0  0  0  0  0  0  0
   -4.9470   14.9710    0.5050 C   0  0  2  0  0  0  0  0  0  0  0  0
   -4.1890   15.2880    1.7050 N   0  0  0  0  0  0  0  0  0  0  0  0
   -4.6030   13.6220   -0.0450 C   0  0  2  0  0  0  0  0  0  0  0  0
   -6.3760   15.0960    0.7550 N   0  0  0  0  0  0  0  0  0  0  0  0
   -7.1860   14.0420    0.3260 C   0  0  2  0  0  0  0  0  0  0  0  0
   -5.7120   12.7810   -0.7240 C   0  0  0  0  0  0  0  0  0  0  0  0
   -6.7620   14.8750    2.1980 N   0  0  0  0  0  0  0  0  0  0  0  0
   -6.9240   13.5550   -0.9540 N   0  0  0  0  0  0  0  0  0  0  0  0
   -8.5060   14.4440    0.6930 N   0  0  0  0  0  0  0  0  0  0  0  0
   -8.2240   14.7080    2.1130 C   0  0  0  0  0  0  0  0  0  0  0  0
  1  2  1  0
  3  2  1  6
  4  1  1  1
  4  5  1  0
  4  6  1  0
  6  7  1  0
  5  8  1  0
  7  8  1  0
  3  9  1  0
  3 10  1  0
  9 11  1  0
 10 12  1  0
 10 13  1  1
 11 14  1  0
 12 14  1  1
 12 15  1  0
 16 13  1  0
 16 17  1  1
 15 18  1  0
 16 18  1  0
 16 19  1  0
 19 20  1  0
 18 21  1  1
 19 22  1  0
 20 23  1  6
 21 23  1  0
 20 24  1  0
 22 25  1  0
 24 25  1  0
M  END
