ucsf348-ucsf262
     RDKit          3D

 28 31  0  0  0  0  0  0  0  0999 V2000
   -6.7580   13.4420    1.9240 N   0  0  0  0  0  0  0  0  0  0  0  0
   -6.5060   14.6820    1.3080 C   0  0  1  0  0  0  0  0  0  0  0  0
   -5.1460   15.0610    1.5740 N   0  0  0  0  0  0  0  0  0  0  0  0
   -6.9080   14.6930   -0.0750 N   0  0  0  0  0  0  0  0  0  0  0  0
   -5.8560   14.3750   -1.0340 C   0  0  1  0  0  0  0  0  0  0  0  0
   -4.1290   14.7450    0.5710 C   0  0  1  0  0  0  0  0  0  0  0  0
   -6.2130   14.6110   -2.3960 O   0  0  0  0  0  0  0  0  0  0  0  0
   -4.6330   15.2180   -0.7570 C   0  0  1  0  0  0  0  0  0  0  0  0
   -2.8170   15.4350    0.9170 C   0  0  0  0  0  0  0  0  0  0  0  0
   -5.6550   13.5820   -3.2380 C   0  0  0  0  0  0  0  0  0  0  0  0
   -1.7080   15.2530   -0.1220 C   0  0  0  0  0  0  0  0  0  0  0  0
   -3.6170   15.0680   -1.8930 C   0  0  0  0  0  0  0  0  0  0  0  0
   -5.1220   14.1470   -4.5680 C   0  0  0  0  0  0  0  0  0  0  0  0
   -2.1490   15.3590   -1.5760 C   0  0  0  0  0  0  0  0  0  0  0  0
   -3.6040   14.4460   -4.6440 C   0  0  0  0  0  0  0  0  0  0  0  0
   -3.2470   15.9290   -4.8230 C   0  0  0  0  0  0  0  0  0  0  0  0
   -1.8170   16.3710   -5.1810 C   0  0  2  0  0  0  0  0  0  0  0  0
   -0.8030   16.3070   -4.0510 C   0  0  1  0  0  0  0  0  0  0  0  0
   -1.8830   17.7850   -5.8090 C   0  0  0  0  0  0  0  0  0  0  0  0
   -0.2560   14.8880   -3.8670 C   0  0  0  0  0  0  0  0  0  0  0  0
    0.4780   17.1630   -4.2330 C   0  0  1  0  0  0  0  0  0  0  0  0
   -0.5470   18.3610   -6.2760 C   0  0  0  0  0  0  0  0  0  0  0  0
    1.0360   15.1690   -3.1360 C   0  0  2  0  0  0  0  0  0  0  0  0
    1.5870   16.2760   -3.9300 N   0  0  0  0  0  0  0  0  0  0  0  0
    0.7020   17.8030   -5.6060 C   0  0  0  0  0  0  0  0  0  0  0  0
    2.0170   13.9620   -2.9740 C   0  0  1  0  0  0  0  0  0  0  0  0
    3.0950   14.3010   -2.2710 O   0  0  0  0  0  0  0  0  0  0  0  0
    1.3920   13.0030   -2.1330 O   0  0  0  0  0  0  0  0  0  0  0  0
  2  1  1  6
  2  3  1  0
  2  4  1  0
  4  5  1  0
  3  6  1  0
  5  7  1  6
  5  8  1  0
  6  8  1  0
  6  9  1  1
  7 10  1  0
  9 11  1  0
  8 12  1  6
 10 13  1  0
 11 14  1  0
 12 14  1  0
 13 15  1  0
 15 16  1  0
 17 16  1  1
 17 18  1  0
 17 19  1  0
 18 20  1  6
 18 21  1  0
 19 22  1  0
 23 20  1  6
 21 24  1  0
 23 24  1  0
 21 25  1  6
 22 25  1  0
 23 26  1  0
 26 27  1  1
 26 28  1  0
M  CHG  1  27  -1
M  END
