ucsf224-ucsf333
     RDKit          3D

 23 25  0  0  0  0  0  0  0  0999 V2000
   -1.5720   18.5880   -5.1870 Cl  0  0  0  0  0  0  0  0  0  0  0  0
   -0.7120   17.0310   -5.3740 C   0  0  2  0  0  0  0  0  0  0  0  0
   -1.5990   15.8290   -4.9270 C   0  0  1  0  0  0  0  0  0  0  0  0
    0.6580   17.0890   -4.6950 C   0  0  0  0  0  0  0  0  0  0  0  0
   -3.1550   15.7700   -5.8220 Cl  0  0  0  0  0  0  0  0  0  0  0  0
   -0.8370   14.4870   -5.0070 C   0  0  0  0  0  0  0  0  0  0  0  0
    1.3310   15.7630   -4.9470 C   0  0  0  0  0  0  0  0  0  0  0  0
    0.5090   14.6940   -4.2880 C   0  0  2  0  0  0  0  0  0  0  0  0
    1.2900   13.4870   -3.6480 C   0  0  2  0  0  0  0  0  0  0  0  0
    0.6630   12.0680   -3.5080 C   0  0  2  0  0  0  0  0  0  0  0  0
    1.2940   14.0650   -2.2400 C   0  0  0  0  0  0  0  0  0  0  0  0
   -0.6350   12.0160   -3.4830 O   0  0  0  0  0  0  0  0  0  0  0  0
    0.9480   11.6360   -2.1930 O   0  0  0  0  0  0  0  0  0  0  0  0
   -0.1240   14.1960   -1.6460 C   0  0  2  0  0  0  0  0  0  0  0  0
   -1.2250   14.5370   -2.5800 N   0  0  0  0  0  0  0  0  0  0  0  0
   -0.3330   15.1850   -0.1630 S   0  0  0  0  0  0  0  0  0  0  0  0
   -2.3020   15.1850   -1.8350 C   0  0  2  0  0  0  0  0  0  0  0  0
   -2.0730   14.7870   -0.3770 C   0  0  2  0  0  0  0  0  0  0  0  0
   -3.7460   14.9150   -2.2860 C   0  0  0  0  0  0  0  0  0  0  0  0
   -2.9990   15.4690    0.6050 C   0  0  0  0  0  0  0  0  0  0  0  0
   -4.7350   15.4800   -1.2440 C   0  0  2  0  0  0  0  0  0  0  0  0
   -4.4310   15.1340    0.2220 C   0  0  0  0  0  0  0  0  0  0  0  0
   -6.4200   15.0410   -1.6620 Cl  0  0  0  0  0  0  0  0  0  0  0  0
  2  1  1  1
  2  3  1  0
  2  4  1  0
  3  5  1  6
  3  6  1  0
  4  7  1  0
  8  6  1  6
  7  8  1  0
  8  9  1  0
  9 10  1  0
  9 11  1  1
 10 12  1  1
 10 13  1  0
 14 11  1  6
 14 15  1  0
 14 16  1  0
 15 17  1  0
 16 18  1  0
 17 18  1  0
 17 19  1  6
 18 20  1  1
 19 21  1  0
 20 22  1  0
 21 22  1  0
 21 23  1  6
M  CHG  1  12  -1
M  END
