ucsf247-ucsf411
     RDKit          3D

 26 28  0  0  0  0  0  0  0  0999 V2000
    0.7820   12.6380   -1.7300 O   0  0  0  0  0  0  0  0  0  0  0  0
    0.0160   13.4450   -2.5610 C   0  0  2  0  0  0  0  0  0  0  0  0
    0.7120   14.2070   -3.5310 O   0  0  0  0  0  0  0  0  0  0  0  0
    0.7980   11.4550   -2.5190 C   0  0  0  0  0  0  0  0  0  0  0  0
   -0.9170   14.3650   -1.8040 C   0  0  0  0  0  0  0  0  0  0  0  0
    0.4870   10.4090   -1.7850 O   0  0  0  0  0  0  0  0  0  0  0  0
   -2.2850   13.8850   -2.0830 N   0  0  0  0  0  0  0  0  0  0  0  0
   -0.4180   14.6690   -4.2400 C   0  0  1  0  0  0  0  0  0  0  0  0
   -3.1660   14.9400   -2.4520 C   0  0  1  0  0  0  0  0  0  0  0  0
   -0.3770   16.1390   -4.5390 C   0  0  2  0  0  0  0  0  0  0  0  0
   -0.7850   13.8260   -5.4270 C   0  0  0  0  0  0  0  0  0  0  0  0
   -3.9690   14.5010   -3.5160 O   0  0  0  0  0  0  0  0  0  0  0  0
   -4.0550   15.2730   -1.2680 C   0  0  1  0  0  0  0  0  0  0  0  0
   -1.7440   16.6090   -5.1180 C   0  0  2  0  0  0  0  0  0  0  0  0
   -2.2500   14.0840   -5.7950 C   0  0  0  0  0  0  0  0  0  0  0  0
    0.9040   16.5860   -5.2290 C   0  0  0  0  0  0  0  0  0  0  0  0
   -5.4120   14.5660   -1.3710 C   0  0  0  0  0  0  0  0  0  0  0  0
   -3.3810   14.9430    0.0670 C   0  0  0  0  0  0  0  0  0  0  0  0
   -2.7280   15.5490   -5.6940 C   0  0  0  0  0  0  0  0  0  0  0  0
   -1.5900   17.8170   -6.0170 C   0  0  0  0  0  0  0  0  0  0  0  0
    0.9030   18.0750   -5.5590 C   0  0  0  0  0  0  0  0  0  0  0  0
   -6.3160   14.9750   -0.2310 C   0  0  1  0  0  0  0  0  0  0  0  0
   -4.2490   15.3950    1.2240 C   0  0  0  0  0  0  0  0  0  0  0  0
   -0.4920   18.6890   -5.4660 C   0  0  0  0  0  0  0  0  0  0  0  0
   -7.5450   14.2530   -0.2810 O   0  0  0  0  0  0  0  0  0  0  0  0
   -5.6550   14.7860    1.1430 C   0  0  0  0  0  0  0  0  0  0  0  0
  1  2  1  0
  2  3  1  0
  1  4  1  0
  2  5  1  1
  4  6  1  0
  5  7  1  0
  8  3  1  6
  7  9  1  0
  8 10  1  0
  8 11  1  0
  9 12  1  6
  9 13  1  0
 10 14  1  0
 11 15  1  0
 10 16  1  6
 13 17  1  6
 13 18  1  0
 14 19  1  6
 15 19  1  0
 14 20  1  0
 16 21  1  0
 17 22  1  0
 18 23  1  0
 20 24  1  0
 21 24  1  0
 22 25  1  1
 22 26  1  0
 23 26  1  0
M  CHG  1   6  -1
M  END
