ucsf371-ucsf028
     RDKit          3D

 20 22  0  0  0  0  0  0  0  0999 V2000
   -4.6370   15.4030    0.6390 C   0  0  0  0  0  0  0  0  0  0  0  0
   -3.9780   14.7890   -0.5700 C   0  0  1  0  0  0  0  0  0  0  0  0
   -4.5880   15.2770   -1.8190 N   0  0  0  0  0  0  0  0  0  0  0  0
   -2.2450   15.0480   -0.7150 S   0  0  1  0  0  0  0  0  0  0  0  0
   -3.5810   15.0320   -2.9020 C   0  0  0  0  0  0  0  0  0  0  0  0
   -2.1680   15.4770   -2.4230 C   0  0  2  0  0  0  0  0  0  0  0  0
   -1.4400   15.8090    0.5870 N   0  0  0  0  0  0  0  0  0  0  0  0
   -1.3010   13.5960   -0.4880 C   0  0  0  0  0  0  0  0  0  0  0  0
   -1.0040   14.9020   -3.2750 C   0  0  1  0  0  0  0  0  0  0  0  0
    0.0340   14.1580   -0.2340 N   0  0  0  0  0  0  0  0  0  0  0  0
   -0.2010   15.0740    0.8850 C   0  0  0  0  0  0  0  0  0  0  0  0
   -1.0170   15.3880   -4.6020 O   0  0  0  0  0  0  0  0  0  0  0  0
    0.1300   15.3960   -2.8200 O   0  0  0  0  0  0  0  0  0  0  0  0
   -0.9760   13.3460   -3.3200 C   0  0  1  0  0  0  0  0  0  0  0  0
   -1.0500   12.6790   -4.6700 C   0  0  0  0  0  0  0  0  0  0  0  0
    0.1740   12.7170   -2.7220 O   0  0  0  0  0  0  0  0  0  0  0  0
    0.2250   11.3270   -3.2340 N   0  0  0  0  0  0  0  0  0  0  0  0
   -0.8630   11.2530   -4.2100 C   0  0  2  0  0  0  0  0  0  0  0  0
   -0.5350   10.3410   -5.2510 O   0  0  0  0  0  0  0  0  0  0  0  0
   -0.2400   10.9820   -6.4850 C   0  0  0  0  0  0  0  0  0  0  0  0
  2  1  1  1
  2  3  1  0
  2  4  1  0
  3  5  1  0
  4  6  1  0
  6  5  1  6
  4  7  1  0
  4  8  1  6
  6  9  1  0
  8 10  1  0
  7 11  1  0
 10 11  1  0
  9 12  1  6
  9 13  1  0
  9 14  1  0
 14 15  1  6
 14 16  1  0
 16 17  1  0
 15 18  1  0
 17 18  1  0
 18 19  1  6
 19 20  1  0
M  CHG  1  13  -1
M  END
