ucsf278-ucsf338
     RDKit          3D

 26 28  0  0  0  0  0  0  0  0999 V2000
   -0.8350   13.6830   -0.9220 Cl  0  0  0  0  0  0  0  0  0  0  0  0
   -0.3990   14.2540   -2.5580 C   0  0  2  0  0  0  0  0  0  0  0  0
   -0.1330   13.1380   -3.5570 C   0  0  1  0  0  0  0  0  0  0  0  0
    0.8020   15.1980   -2.4120 C   0  0  0  0  0  0  0  0  0  0  0  0
   -1.2450   12.1740   -4.0200 C   0  0  1  0  0  0  0  0  0  0  0  0
    0.3450   13.7540   -4.8510 C   0  0  2  0  0  0  0  0  0  0  0  0
    2.0160   14.8170   -3.2550 C   0  0  0  0  0  0  0  0  0  0  0  0
   -2.6930   12.5990   -3.6880 C   0  0  0  0  0  0  0  0  0  0  0  0
   -1.0020   12.1000   -5.5490 C   0  0  1  0  0  0  0  0  0  0  0  0
    0.3350   12.6520   -5.7800 N   0  0  0  0  0  0  0  0  0  0  0  0
    1.6990   14.4010   -4.6810 C   0  0  0  0  0  0  0  0  0  0  0  0
   -1.1710   10.6850   -6.1120 C   0  0  0  0  0  0  0  0  0  0  0  0
   -3.1020   14.0430   -4.0120 C   0  0  0  0  0  0  0  0  0  0  0  0
   -2.2920   10.0530   -5.5010 O   0  0  0  0  0  0  0  0  0  0  0  0
   -4.5410   14.3840   -3.6110 C   0  0  0  0  0  0  0  0  0  0  0  0
   -4.5330   15.4020   -2.6060 O   0  0  0  0  0  0  0  0  0  0  0  0
   -4.2680   14.9220   -1.2810 C   0  0  2  0  0  0  0  0  0  0  0  0
   -5.3530   15.4180   -0.3150 C   0  0  1  0  0  0  0  0  0  0  0  0
   -2.8880   15.4530   -0.8290 C   0  0  0  0  0  0  0  0  0  0  0  0
   -6.8220   15.1030   -0.7020 C   0  0  2  0  0  0  0  0  0  0  0  0
   -2.5530   15.2630    0.6590 C   0  0  0  0  0  0  0  0  0  0  0  0
   -5.0090   14.9850    1.1170 C   0  0  0  0  0  0  0  0  0  0  0  0
   -7.5730   14.3960    0.3370 N   0  0  0  0  0  0  0  0  0  0  0  0
   -6.8830   14.3790   -1.9240 O   0  0  0  0  0  0  0  0  0  0  0  0
   -3.7070   15.6210    1.5690 C   0  0  0  0  0  0  0  0  0  0  0  0
   -8.9440   14.2100   -0.1350 O   0  0  0  0  0  0  0  0  0  0  0  0
  2  1  1  1
  3  2  1  1
  2  4  1  0
  3  5  1  0
  3  6  1  0
  4  7  1  0
  5  8  1  6
  5  9  1  0
  6 10  1  0
  9 10  1  0
  6 11  1  1
  7 11  1  0
  9 12  1  1
  8 13  1  0
 12 14  1  0
 13 15  1  0
 15 16  1  0
 17 16  1  6
 17 18  1  0
 17 19  1  0
 18 20  1  0
 19 21  1  0
 18 22  1  1
 20 23  1  0
 20 24  1  6
 21 25  1  0
 22 25  1  0
 23 26  1  0
M  END
