ucsf387-ucsf345
     RDKit          3D

 22 23  0  0  0  0  0  0  0  0999 V2000
    0.9520   18.1210   -4.3830 Cl  0  0  0  0  0  0  0  0  0  0  0  0
    0.4380   16.5610   -5.0660 C   0  0  2  0  0  0  0  0  0  0  0  0
   -1.1100   16.6040   -5.0800 C   0  0  0  0  0  0  0  0  0  0  0  0
    1.1900   15.4190   -4.3170 C   0  0  0  0  0  0  0  0  0  0  0  0
    0.3110   14.2470   -3.8460 C   0  0  2  0  0  0  0  0  0  0  0  0
   -1.7680   15.3210   -4.5890 C   0  0  1  0  0  0  0  0  0  0  0  0
   -3.1970   15.0300   -5.0570 C   0  0  0  0  0  0  0  0  0  0  0  0
    1.0120   12.8800   -3.5680 C   0  0  0  0  0  0  0  0  0  0  0  0
   -0.8580   14.1280   -4.8050 C   0  0  0  0  0  0  0  0  0  0  0  0
    0.1860   12.0530   -2.5190 C   0  0  1  0  0  0  0  0  0  0  0  0
   -4.2220   15.1240   -3.9160 C   0  0  0  0  0  0  0  0  0  0  0  0
    0.5950   10.7980   -2.4090 O   0  0  0  0  0  0  0  0  0  0  0  0
    0.4790   12.5620   -1.2380 O   0  0  0  0  0  0  0  0  0  0  0  0
   -4.1050   14.2610   -2.6520 C   0  0  2  0  0  0  0  0  0  0  0  0
   -5.4170   14.1730   -1.9650 N   0  0  0  0  0  0  0  0  0  0  0  0
   -2.9990   14.8340   -1.7560 C   0  0  0  0  0  0  0  0  0  0  0  0
   -5.5660   15.0780   -0.7720 C   0  0  1  0  0  0  0  0  0  0  0  0
   -3.1430   14.4440   -0.3520 N   0  0  0  0  0  0  0  0  0  0  0  0
   -6.9060   14.8570    0.0230 C   0  0  2  0  0  0  0  0  0  0  0  0
   -4.3400   15.0990    0.1840 C   0  0  0  0  0  0  0  0  0  0  0  0
   -6.7860   14.6810    1.4580 N   0  0  0  0  0  0  0  0  0  0  0  0
   -7.5540   13.6960   -0.4200 O   0  0  0  0  0  0  0  0  0  0  0  0
  2  1  1  1
  2  3  1  0
  2  4  1  0
  4  5  1  0
  3  6  1  0
  6  7  1  6
  5  8  1  6
  5  9  1  0
  6  9  1  0
  8 10  1  0
  7 11  1  0
 10 12  1  1
 10 13  1  0
 14 11  1  6
 14 15  1  0
 14 16  1  0
 15 17  1  0
 16 18  1  0
 17 19  1  0
 17 20  1  1
 18 20  1  0
 19 21  1  1
 19 22  1  0
M  CHG  1  12  -1
M  END
