ucsf114-ucsf241
     RDKit          3D

 17 18  0  0  0  0  0  0  0  0999 V2000
    0.7930   18.1290   -4.5480 C   0  0  0  0  0  0  0  0  0  0  0  0
   -0.2970   17.5730   -5.4560 C   0  0  0  0  0  0  0  0  0  0  0  0
   -1.5290   18.4690   -5.4460 C   0  0  0  0  0  0  0  0  0  0  0  0
   -0.6030   16.2710   -4.9520 O   0  0  0  0  0  0  0  0  0  0  0  0
    0.5270   15.4830   -4.5430 C   0  0  0  0  0  0  0  0  0  0  0  0
    0.1780   14.1000   -3.9230 C   0  0  0  0  0  0  0  0  0  0  0  0
   -0.1280   14.0500   -2.4740 N   0  0  0  0  0  0  0  0  0  0  0  0
   -1.5540   14.1580   -2.1330 C   0  0  1  0  0  0  0  0  0  0  0  0
    0.8200   14.7780   -1.6430 C   0  0  2  0  0  0  0  0  0  0  0  0
    2.5350   14.1390   -1.8200 S   0  0  0  0  0  0  0  0  0  0  0  0
   -1.8170   14.0890   -0.5880 C   0  0  1  0  0  0  0  0  0  0  0  0
    0.5710   14.8660   -0.1990 N   0  0  0  0  0  0  0  0  0  0  0  0
   -2.3260   15.4080   -2.5260 C   0  0  0  0  0  0  0  0  0  0  0  0
   -0.6310   14.3270    0.3820 C   0  0  1  0  0  0  0  0  0  0  0  0
   -2.9400   15.0550   -0.3090 N   0  0  0  0  0  0  0  0  0  0  0  0
   -3.5250   15.3440   -1.6190 C   0  0  0  0  0  0  0  0  0  0  0  0
   -1.0460   15.1430    1.4840 O   0  0  0  0  0  0  0  0  0  0  0  0
  1  2  1  0
  2  3  1  0
  2  4  1  0
  4  5  1  0
  5  6  1  0
  6  7  1  0
  7  8  1  0
  7  9  1  0
  9 10  1  1
  8 11  1  0
  9 12  1  0
  8 13  1  1
 11 14  1  0
 12 14  1  0
 11 15  1  1
 13 16  1  0
 15 16  1  0
 14 17  1  1
M  END
