ucsf584-ucsf320
     RDKit          3D

 15 16  0  0  0  0  0  0  0  0999 V2000
   -0.9120   14.5150   -2.0270 O   0  0  0  0  0  0  0  0  0  0  0  0
   -2.0380   14.5680   -2.6920 C   0  0  2  0  0  0  0  0  0  0  0  0
   -1.6630   15.3940   -3.7640 O   0  0  0  0  0  0  0  0  0  0  0  0
   -3.0540   15.2130   -1.8700 N   0  0  0  0  0  0  0  0  0  0  0  0
   -2.9840   14.7120   -0.4850 C   0  0  0  0  0  0  0  0  0  0  0  0
   -4.3900   15.0380   -2.4450 C   0  0  0  0  0  0  0  0  0  0  0  0
   -4.0160   15.3500    0.4310 C   0  0  0  0  0  0  0  0  0  0  0  0
   -5.4150   14.4550   -1.4640 C   0  0  2  0  0  0  0  0  0  0  0  0
   -6.7620   14.5680   -1.9460 O   0  0  0  0  0  0  0  0  0  0  0  0
   -5.4260   15.1770   -0.1370 C   0  0  1  0  0  0  0  0  0  0  0  0
   -6.4310   14.4450    0.7640 C   0  0  0  0  0  0  0  0  0  0  0  0
   -6.5630   14.9210    2.1290 N   0  0  0  0  0  0  0  0  0  0  0  0
   -7.7840   14.4690    0.1830 N   0  0  0  0  0  0  0  0  0  0  0  0
   -8.7020   14.7550    1.2790 C   0  0  0  0  0  0  0  0  0  0  0  0
   -7.8990   14.5460    2.5440 C   0  0  0  0  0  0  0  0  0  0  0  0
  2  1  1  1
  2  3  1  0
  2  4  1  0
  4  5  1  0
  4  6  1  0
  5  7  1  0
  6  8  1  0
  8  9  1  6
  7 10  1  0
  8 10  1  0
 10 11  1  1
 11 12  1  0
 11 13  1  0
 13 14  1  0
 12 15  1  0
 14 15  1  0
M  CHG  1   1  -1
M  END
