ucsf170-ucsf345
     RDKit          3D

 14 15  0  0  0  0  0  0  0  0999 V2000
   -5.0380   14.8840    1.0350 C   0  0  0  0  0  0  0  0  0  0  0  0
   -3.3250   15.3700    1.2660 S   0  0  0  0  0  0  0  0  0  0  0  0
   -2.8080   14.5520   -0.2960 C   0  0  1  0  0  0  0  0  0  0  0  0
   -5.2770   15.1930   -0.4370 C   0  0  2  0  0  0  0  0  0  0  0  0
   -6.5730   14.7020   -0.8260 O   0  0  0  0  0  0  0  0  0  0  0  0
   -4.0650   14.5730   -1.2240 C   0  0  1  0  0  0  0  0  0  0  0  0
   -1.5130   15.2410   -0.7690 C   0  0  0  0  0  0  0  0  0  0  0  0
   -3.6920   15.1040   -2.6200 C   0  0  0  0  0  0  0  0  0  0  0  0
   -1.1500   15.1190   -2.2660 C   0  0  2  0  0  0  0  0  0  0  0  0
   -2.3260   14.5340   -3.0740 C   0  0  2  0  0  0  0  0  0  0  0  0
   -2.1550   14.8200   -4.4790 O   0  0  0  0  0  0  0  0  0  0  0  0
    0.2690   14.5200   -2.5920 C   0  0  1  0  0  0  0  0  0  0  0  0
    0.6550   13.5960   -1.5930 O   0  0  0  0  0  0  0  0  0  0  0  0
    0.3020   13.7710   -3.6660 O   0  0  0  0  0  0  0  0  0  0  0  0
  1  2  1  0
  2  3  1  0
  1  4  1  0
  4  5  1  6
  3  6  1  0
  4  6  1  0
  3  7  1  6
  6  8  1  6
  9  7  1  1
  8 10  1  0
  9 10  1  0
 10 11  1  6
  9 12  1  0
 12 13  1  1
 12 14  1  0
M  CHG  1  14  -1
M  END
