ucsf243-ucsf028
     RDKit          3D

 22 24  0  0  0  0  0  0  0  0999 V2000
   -3.9640   15.9870    0.7850 C   0  0  0  0  0  0  0  0  0  0  0  0
   -3.5370   15.0860   -0.3650 C   0  0  1  0  0  0  0  0  0  0  0  0
   -4.4680   15.3990   -1.5540 C   0  0  0  0  0  0  0  0  0  0  0  0
   -1.9660   14.8820   -0.6000 C   0  0  2  0  0  0  0  0  0  0  0  0
   -1.6540   14.4380   -2.0860 C   0  0  2  0  0  0  0  0  0  0  0  0
   -3.9650   14.9370   -2.8970 C   0  0  0  0  0  0  0  0  0  0  0  0
   -1.6280   13.8290    0.4580 C   0  0  0  0  0  0  0  0  0  0  0  0
   -1.0350   15.9490   -0.1920 N   0  0  0  0  0  0  0  0  0  0  0  0
   -0.1600   14.2880   -2.5780 C   0  0  1  0  0  0  0  0  0  0  0  0
   -2.5060   15.2490   -3.1020 C   0  0  2  0  0  0  0  0  0  0  0  0
   -0.8100   14.4980    1.4770 N   0  0  0  0  0  0  0  0  0  0  0  0
   -0.0310   15.3140    0.6130 C   0  0  0  0  0  0  0  0  0  0  0  0
   -2.2620   14.9220   -4.4770 O   0  0  0  0  0  0  0  0  0  0  0  0
    0.1110   15.3650   -3.4670 O   0  0  0  0  0  0  0  0  0  0  0  0
    0.7350   14.5750   -1.6550 O   0  0  0  0  0  0  0  0  0  0  0  0
    0.1950   13.0190   -3.3700 C   0  0  2  0  0  0  0  0  0  0  0  0
   -0.7760   12.5650   -4.4380 C   0  0  0  0  0  0  0  0  0  0  0  0
    0.3610   11.9150   -2.4740 O   0  0  0  0  0  0  0  0  0  0  0  0
    0.0560   10.6940   -3.2080 N   0  0  0  0  0  0  0  0  0  0  0  0
   -0.9410   11.0870   -4.1800 C   0  0  2  0  0  0  0  0  0  0  0  0
   -0.7550   10.2820   -5.3420 O   0  0  0  0  0  0  0  0  0  0  0  0
   -0.2140   10.9910   -6.4510 C   0  0  0  0  0  0  0  0  0  0  0  0
  2  1  1  1
  2  3  1  0
  2  4  1  0
  4  5  1  0
  3  6  1  0
  4  7  1  1
  4  8  1  0
  5  9  1  0
  5 10  1  6
  6 10  1  0
  7 11  1  0
  8 12  1  0
 11 12  1  0
 10 13  1  6
  9 14  1  6
  9 15  1  0
  9 16  1  0
 16 17  1  6
 16 18  1  0
 18 19  1  0
 17 20  1  0
 19 20  1  0
 20 21  1  6
 21 22  1  0
M  CHG  1  15  -1
M  END
