ucsf173-ucsf487
     RDKit          3D

 24 27  0  0  0  0  0  0  0  0999 V2000
    0.6550   12.3640   -1.3110 O   0  0  0  0  0  0  0  0  0  0  0  0
    0.0520   12.6120   -2.4550 C   0  0  2  0  0  0  0  0  0  0  0  0
    0.8620   11.9020   -3.3570 O   0  0  0  0  0  0  0  0  0  0  0  0
    0.1060   14.1470   -2.7390 C   0  0  2  0  0  0  0  0  0  0  0  0
   -1.2750   14.8730   -2.8010 C   0  0  2  0  0  0  0  0  0  0  0  0
    0.9640   14.6340   -3.9460 C   0  0  0  0  0  0  0  0  0  0  0  0
   -2.4750   13.9200   -2.9230 C   0  0  0  0  0  0  0  0  0  0  0  0
   -1.1050   15.9680   -3.8780 C   0  0  1  0  0  0  0  0  0  0  0  0
    0.0930   15.6240   -4.7330 C   0  0  1  0  0  0  0  0  0  0  0  0
   -2.2200   16.3400   -4.8420 C   0  0  0  0  0  0  0  0  0  0  0  0
    0.7040   16.9550   -5.1490 C   0  0  0  0  0  0  0  0  0  0  0  0
   -3.7130   14.1990   -2.0320 C   0  0  2  0  0  0  0  0  0  0  0  0
   -1.7940   17.5750   -5.6610 C   0  0  0  0  0  0  0  0  0  0  0  0
   -0.3600   18.0590   -5.3660 C   0  0  0  0  0  0  0  0  0  0  0  0
   -4.3930   15.4830   -2.4360 C   0  0  0  0  0  0  0  0  0  0  0  0
   -3.6240   14.2460   -0.4960 C   0  0  0  0  0  0  0  0  0  0  0  0
   -5.0810   14.0230    0.0110 C   0  0  1  0  0  0  0  0  0  0  0  0
   -5.8300   15.4950   -1.9330 C   0  0  0  0  0  0  0  0  0  0  0  0
   -5.4420   14.9090    1.1880 C   0  0  0  0  0  0  0  0  0  0  0  0
   -6.0910   14.2170   -1.1460 C   0  0  2  0  0  0  0  0  0  0  0  0
   -6.9000   14.6520    1.6670 C   0  0  2  0  0  0  0  0  0  0  0  0
   -7.4990   14.0370   -0.7630 N   0  0  0  0  0  0  0  0  0  0  0  0
   -7.0370   13.4330    2.4540 N   0  0  0  0  0  0  0  0  0  0  0  0
   -7.9120   14.6650    0.4900 C   0  0  0  0  0  0  0  0  0  0  0  0
  2  1  1  1
  2  3  1  0
  2  4  1  0
  4  5  1  0
  4  6  1  6
  5  7  1  6
  5  8  1  0
  9  6  1  1
  8  9  1  0
  8 10  1  6
  9 11  1  0
 12  7  1  6
 10 13  1  0
 11 14  1  0
 13 14  1  0
 12 15  1  0
 12 16  1  0
 17 16  1  6
 15 18  1  0
 17 19  1  0
 17 20  1  0
 20 18  1  1
 19 21  1  0
 20 22  1  0
 21 23  1  6
 21 24  1  0
 22 24  1  0
M  CHG  1   1  -1
M  END
