ucsf442-ucsf169
     RDKit          3D

 25 27  0  0  0  0  0  0  0  0999 V2000
   -0.4140   14.5870    0.6330 O   0  0  0  0  0  0  0  0  0  0  0  0
   -1.4690   15.4310    0.2850 C   0  0  1  0  0  0  0  0  0  0  0  0
   -1.8710   15.0570   -1.0610 N   0  0  0  0  0  0  0  0  0  0  0  0
   -2.4530   15.2430    1.3330 N   0  0  0  0  0  0  0  0  0  0  0  0
   -3.7230   14.7550    0.9150 C   0  0  2  0  0  0  0  0  0  0  0  0
   -3.3100   15.0020   -1.4290 C   0  0  2  0  0  0  0  0  0  0  0  0
   -3.6400   15.8910   -2.4910 O   0  0  0  0  0  0  0  0  0  0  0  0
   -4.2620   15.3870   -0.3230 C   0  0  1  0  0  0  0  0  0  0  0  0
   -4.7750   15.1920    1.7880 N   0  0  0  0  0  0  0  0  0  0  0  0
   -3.4190   15.3310   -3.7820 C   0  0  0  0  0  0  0  0  0  0  0  0
   -5.6640   14.9310   -0.3340 N   0  0  0  0  0  0  0  0  0  0  0  0
   -5.9200   14.6500    1.0760 C   0  0  0  0  0  0  0  0  0  0  0  0
   -1.9310   15.4000   -3.9410 C   0  0  2  0  0  0  0  0  0  0  0  0
   -1.4130   16.8040   -4.2710 C   0  0  2  0  0  0  0  0  0  0  0  0
   -1.3010   14.3570   -4.8010 C   0  0  0  0  0  0  0  0  0  0  0  0
   -2.4440   17.6560   -4.7760 O   0  0  0  0  0  0  0  0  0  0  0  0
   -0.1620   16.8870   -5.1410 C   0  0  1  0  0  0  0  0  0  0  0  0
    0.1460   14.4900   -4.3630 C   0  0  1  0  0  0  0  0  0  0  0  0
    0.4180   18.1390   -4.7630 O   0  0  0  0  0  0  0  0  0  0  0  0
    0.8480   13.1310   -4.1620 C   0  0  0  0  0  0  0  0  0  0  0  0
    0.8330   15.7290   -4.9600 C   0  0  0  0  0  0  0  0  0  0  0  0
    1.3170   18.5230   -5.7790 C   0  0  0  0  0  0  0  0  0  0  0  0
    0.5110   12.3980   -2.8400 C   0  0  2  0  0  0  0  0  0  0  0  0
    1.4790   12.7050   -1.8790 O   0  0  0  0  0  0  0  0  0  0  0  0
    0.5230   11.0890   -2.8770 O   0  0  0  0  0  0  0  0  0  0  0  0
  2  1  1  1
  2  3  1  0
  2  4  1  0
  5  4  1  1
  3  6  1  0
  6  7  1  6
  5  8  1  0
  6  8  1  0
  5  9  1  0
  7 10  1  0
  8 11  1  6
  9 12  1  0
 11 12  1  0
 13 10  1  6
 13 14  1  0
 13 15  1  0
 14 16  1  6
 14 17  1  0
 15 18  1  0
 17 19  1  1
 18 20  1  6
 17 21  1  0
 18 21  1  0
 19 22  1  0
 20 23  1  0
 23 24  1  1
 23 25  1  0
M  CHG  1  25  -1
M  END
