ucsf247-ucsf303
     RDKit          3D

 20 21  0  0  0  0  0  0  0  0999 V2000
    0.6350   13.2680   -1.8250 O   0  0  0  0  0  0  0  0  0  0  0  0
    0.5030   14.3500   -2.5690 C   0  0  1  0  0  0  0  0  0  0  0  0
    1.4580   14.1090   -3.5840 O   0  0  0  0  0  0  0  0  0  0  0  0
   -0.9410   14.4550   -3.1740 C   0  0  0  0  0  0  0  0  0  0  0  0
   -2.0040   13.9690   -2.2670 N   0  0  0  0  0  0  0  0  0  0  0  0
   -3.3530   14.4890   -2.3670 C   0  0  1  0  0  0  0  0  0  0  0  0
   -3.4250   15.6430   -3.1630 O   0  0  0  0  0  0  0  0  0  0  0  0
   -4.1120   13.3940   -2.9570 N   0  0  0  0  0  0  0  0  0  0  0  0
   -4.1190   14.6610   -1.0380 C   0  0  2  0  0  0  0  0  0  0  0  0
   -5.4080   15.4750   -1.0750 C   0  0  0  0  0  0  0  0  0  0  0  0
   -3.3120   14.8740    0.2580 C   0  0  0  0  0  0  0  0  0  0  0  0
   -4.2830   12.2620   -2.0720 C   0  0  1  0  0  0  0  0  0  0  0  0
   -6.3110   14.7620   -0.1020 C   0  0  2  0  0  0  0  0  0  0  0  0
   -4.2440   15.4430    1.3140 C   0  0  0  0  0  0  0  0  0  0  0  0
   -5.5850   11.6120   -2.2850 N   0  0  0  0  0  0  0  0  0  0  0  0
   -3.0090   11.0520   -2.4870 S   0  0  0  0  0  0  0  0  0  0  0  0
   -7.6210   15.3190   -0.0660 O   0  0  0  0  0  0  0  0  0  0  0  0
   -5.6330   14.7580    1.2780 C   0  0  0  0  0  0  0  0  0  0  0  0
   -4.2230    9.7550   -2.7240 C   0  0  0  0  0  0  0  0  0  0  0  0
   -5.4690   10.1620   -2.0650 N   0  0  0  0  0  0  0  0  0  0  0  0
  2  1  1  1
  2  3  1  0
  2  4  1  0
  4  5  1  0
  5  6  1  0
  6  7  1  6
  6  8  1  0
  6  9  1  0
  9 10  1  6
  9 11  1  0
 12  8  1  6
 10 13  1  0
 11 14  1  0
 12 15  1  0
 12 16  1  0
 13 17  1  1
 13 18  1  0
 14 18  1  0
 16 19  1  0
 15 20  1  0
 19 20  1  0
M  CHG  1   1  -1
M  END
