ucsf224-ucsf493
     RDKit          3D

 17 18  0  0  0  0  0  0  0  0999 V2000
   -0.6630   18.1560   -4.1770 Cl  0  0  0  0  0  0  0  0  0  0  0  0
   -1.4300   16.6450   -3.6460 C   0  0  0  0  0  0  0  0  0  0  0  0
   -1.9900   15.9660   -4.8680 C   0  0  1  0  0  0  0  0  0  0  0  0
   -3.3400   15.2200   -4.6650 C   0  0  0  0  0  0  0  0  0  0  0  0
   -2.1030   17.0820   -5.9100 C   0  0  0  0  0  0  0  0  0  0  0  0
   -0.8150   15.0220   -5.1590 C   0  0  2  0  0  0  0  0  0  0  0  0
   -4.3030   15.2050   -5.8440 C   0  0  0  0  0  0  0  0  0  0  0  0
   -0.4880   13.9450   -4.1290 C   0  0  0  0  0  0  0  0  0  0  0  0
    0.5310   15.8220   -5.2980 C   0  0  2  0  0  0  0  0  0  0  0  0
   -0.8000   17.8330   -6.1960 C   0  0  0  0  0  0  0  0  0  0  0  0
    0.9750   13.8170   -4.4770 C   0  0  1  0  0  0  0  0  0  0  0  0
    1.4030   15.2400   -4.1910 C   0  0  0  0  0  0  0  0  0  0  0  0
    0.4420   17.3500   -5.4210 C   0  0  0  0  0  0  0  0  0  0  0  0
    1.7340   12.6870   -3.8180 C   0  0  0  0  0  0  0  0  0  0  0  0
    1.2920   12.3460   -2.3920 C   0  0  2  0  0  0  0  0  0  0  0  0
    0.4900   11.2900   -2.3770 O   0  0  0  0  0  0  0  0  0  0  0  0
    0.4740   13.3490   -1.8600 O   0  0  0  0  0  0  0  0  0  0  0  0
  1  2  1  0
  3  2  1  1
  3  4  1  0
  3  5  1  0
  3  6  1  0
  4  7  1  0
  6  8  1  1
  6  9  1  0
  5 10  1  0
  8 11  1  0
  9 12  1  1
 11 12  1  0
  9 13  1  0
 10 13  1  0
 11 14  1  1
 14 15  1  0
 15 16  1  6
 15 17  1  0
M  CHG  1  16  -1
M  END
