ucsf367-ucsf173
     RDKit          3D

 20 22  0  0  0  0  0  0  0  0999 V2000
    0.7540   12.3990   -2.1370 O   0  0  0  0  0  0  0  0  0  0  0  0
    0.9330   12.6330   -3.4140 C   0  0  1  0  0  0  0  0  0  0  0  0
    2.3230   12.5530   -3.5430 O   0  0  0  0  0  0  0  0  0  0  0  0
    0.2330   11.5120   -4.1630 C   0  0  0  0  0  0  0  0  0  0  0  0
    0.4050   13.9830   -3.9850 C   0  0  1  0  0  0  0  0  0  0  0  0
    0.5010   11.3520   -5.5520 O   0  0  0  0  0  0  0  0  0  0  0  0
   -1.1030   14.2790   -3.8040 C   0  0  0  0  0  0  0  0  0  0  0  0
    1.0920   15.2750   -3.5310 C   0  0  0  0  0  0  0  0  0  0  0  0
   -0.5090   10.4370   -5.8830 C   0  0  0  0  0  0  0  0  0  0  0  0
   -1.2820   15.8060   -3.9160 C   0  0  1  0  0  0  0  0  0  0  0  0
    0.1410   16.4100   -3.9530 C   0  0  2  0  0  0  0  0  0  0  0  0
   -0.3300    9.7640   -7.2210 C   0  0  0  0  0  0  0  0  0  0  0  0
   -1.8590   11.1170   -5.8710 C   0  0  0  0  0  0  0  0  0  0  0  0
   -2.2030   16.2160   -5.0710 C   0  0  0  0  0  0  0  0  0  0  0  0
    0.5510   17.0250   -5.2880 C   0  0  0  0  0  0  0  0  0  0  0  0
   -1.3570    8.6350   -7.3050 C   0  0  0  0  0  0  0  0  0  0  0  0
   -2.9010   10.0260   -5.8100 C   0  0  0  0  0  0  0  0  0  0  0  0
   -1.9360   17.6240   -5.6080 C   0  0  0  0  0  0  0  0  0  0  0  0
   -0.4760   17.9790   -5.8730 C   0  0  0  0  0  0  0  0  0  0  0  0
   -2.7930    9.1090   -7.0190 C   0  0  0  0  0  0  0  0  0  0  0  0
  2  1  1  1
  2  3  1  0
  2  4  1  0
  2  5  1  0
  4  6  1  0
  5  7  1  1
  5  8  1  0
  6  9  1  0
 10  7  1  6
 11  8  1  6
 10 11  1  0
  9 12  1  0
  9 13  1  0
 10 14  1  0
 11 15  1  0
 12 16  1  0
 13 17  1  0
 14 18  1  0
 15 19  1  0
 18 19  1  0
 16 20  1  0
 17 20  1  0
M  CHG  1   1  -1
M  END
