ucsf262-ucsf213
     RDKit          3D

 16 18  0  0  0  0  0  0  0  0999 V2000
   -2.8660   15.0710   -5.5880 Cl  0  0  0  0  0  0  0  0  0  0  0  0
   -1.7880   16.3380   -4.9480 C   0  0  1  0  0  0  0  0  0  0  0  0
   -0.4270   15.9240   -4.3160 C   0  0  1  0  0  0  0  0  0  0  0  0
   -1.7300   17.5880   -5.8440 C   0  0  0  0  0  0  0  0  0  0  0  0
    0.0920   14.5710   -3.6960 C   0  0  1  0  0  0  0  0  0  0  0  0
    0.7940   16.4330   -5.0860 C   0  0  2  0  0  0  0  0  0  0  0  0
   -0.6050   18.5410   -5.4640 C   0  0  0  0  0  0  0  0  0  0  0  0
   -0.2800   13.1030   -3.9590 C   0  0  0  0  0  0  0  0  0  0  0  0
    1.5900   14.6400   -3.9430 C   0  0  1  0  0  0  0  0  0  0  0  0
    1.8110   16.0800   -4.1280 N   0  0  0  0  0  0  0  0  0  0  0  0
    0.7820   17.9140   -5.4860 C   0  0  0  0  0  0  0  0  0  0  0  0
    2.3900   13.8520   -2.8690 C   0  0  1  0  0  0  0  0  0  0  0  0
    0.6600   12.1880   -3.0700 C   0  0  1  0  0  0  0  0  0  0  0  0
    2.9240   14.7050   -2.0120 O   0  0  0  0  0  0  0  0  0  0  0  0
    1.4100   13.0330   -2.1660 O   0  0  0  0  0  0  0  0  0  0  0  0
   -0.0550   11.3200   -2.3450 O   0  0  0  0  0  0  0  0  0  0  0  0
  2  1  1  6
  3  2  1  6
  2  4  1  0
  3  5  1  0
  3  6  1  0
  4  7  1  0
  5  8  1  6
  5  9  1  0
  6 10  1  0
  9 10  1  1
  6 11  1  1
  7 11  1  0
  9 12  1  0
  8 13  1  0
 12 14  1  1
 12 15  1  0
 13 15  1  0
 13 16  1  1
M  CHG  2  14  -1  16  -1
M  END
