ucsf004-ucsf367
     RDKit          3D

 27 30  0  0  0  0  0  0  0  0999 V2000
   -2.1820   12.9960   -5.4530 F   0  0  0  0  0  0  0  0  0  0  0  0
   -1.5080   13.1220   -4.2930 C   0  0  1  0  0  0  0  0  0  0  0  0
   -0.0030   13.4040   -4.3720 C   0  0  1  0  0  0  0  0  0  0  0  0
   -2.1100   14.2210   -3.4090 C   0  0  0  0  0  0  0  0  0  0  0  0
    1.1030   12.4400   -4.9010 C   0  0  1  0  0  0  0  0  0  0  0  0
   -1.0620   14.9780   -2.6670 N   0  0  0  0  0  0  0  0  0  0  0  0
    0.2600   14.8700   -4.7260 C   0  0  0  0  0  0  0  0  0  0  0  0
    1.7520   11.7140   -3.6680 C   0  0  2  0  0  0  0  0  0  0  0  0
    0.7410   11.5260   -5.9730 O   0  0  0  0  0  0  0  0  0  0  0  0
   -0.0270   15.6720   -3.4610 C   0  0  0  0  0  0  0  0  0  0  0  0
   -1.0450   15.1290   -1.2140 C   0  0  2  0  0  0  0  0  0  0  0  0
    1.0230   10.6820   -3.2650 O   0  0  0  0  0  0  0  0  0  0  0  0
    1.6640   12.5240   -2.5060 O   0  0  0  0  0  0  0  0  0  0  0  0
   -0.2870   14.0890   -0.5140 N   0  0  0  0  0  0  0  0  0  0  0  0
   -2.4010   15.5210   -0.6260 C   0  0  2  0  0  0  0  0  0  0  0  0
   -0.5860   11.0440   -6.1520 C   0  0  0  0  0  0  0  0  0  0  0  0
   -0.2690   14.2200    0.9270 C   0  0  0  0  0  0  0  0  0  0  0  0
   -2.3010   15.4620    0.8770 C   0  0  2  0  0  0  0  0  0  0  0  0
   -3.7030   14.8210   -0.9250 C   0  0  0  0  0  0  0  0  0  0  0  0
   -0.4870    9.8460   -7.0960 C   0  0  0  0  0  0  0  0  0  0  0  0
   -1.1980   10.5860   -4.8360 C   0  0  0  0  0  0  0  0  0  0  0  0
   -1.6050   14.3400    1.4360 N   0  0  0  0  0  0  0  0  0  0  0  0
   -3.6840   15.5330    1.3730 N   0  0  0  0  0  0  0  0  0  0  0  0
   -4.5780   15.2860    0.2290 C   0  0  0  0  0  0  0  0  0  0  0  0
   -1.4240    8.7040   -6.6900 C   0  0  0  0  0  0  0  0  0  0  0  0
   -2.6520   10.1490   -5.0280 C   0  0  0  0  0  0  0  0  0  0  0  0
   -2.7830    9.2180   -6.2290 C   0  0  0  0  0  0  0  0  0  0  0  0
  2  1  1  6
  2  3  1  0
  2  4  1  0
  3  5  1  0
  4  6  1  0
  3  7  1  6
  5  8  1  0
  5  9  1  6
  6 10  1  0
  7 10  1  0
 11  6  1  6
  8 12  1  1
  8 13  1  0
 11 14  1  0
 11 15  1  0
  9 16  1  0
 14 17  1  0
 15 18  1  0
 15 19  1  6
 16 20  1  0
 16 21  1  0
 17 22  1  0
 18 22  1  6
 18 23  1  0
 19 24  1  0
 23 24  1  0
 20 25  1  0
 21 26  1  0
 25 27  1  0
 26 27  1  0
M  CHG  1  12  -1
M  END
