ucsf013-ucsf493
     RDKit          3D

 27 30  0  0  0  0  0  0  0  0999 V2000
   -4.0500   15.3480    1.9560 N   0  0  0  0  0  0  0  0  0  0  0  0
   -5.0770   15.2330    0.9680 C   0  0  2  0  0  0  0  0  0  0  0  0
   -6.2450   14.9130    1.7590 N   0  0  0  0  0  0  0  0  0  0  0  0
   -4.7410   14.1780   -0.0570 C   0  0  1  0  0  0  0  0  0  0  0  0
   -5.9140   14.0710   -1.0370 C   0  0  1  0  0  0  0  0  0  0  0  0
   -7.3010   14.3260    0.9630 C   0  0  0  0  0  0  0  0  0  0  0  0
   -3.4120   14.4990   -0.7360 C   0  0  0  0  0  0  0  0  0  0  0  0
   -7.1220   14.6530   -0.4390 N   0  0  0  0  0  0  0  0  0  0  0  0
   -5.6470   14.6790   -2.4220 C   0  0  0  0  0  0  0  0  0  0  0  0
   -3.3060   13.7480   -2.0440 C   0  0  0  0  0  0  0  0  0  0  0  0
   -4.2830   14.3300   -3.0500 C   0  0  2  0  0  0  0  0  0  0  0  0
   -3.6110   15.5930   -3.4720 C   0  0  0  0  0  0  0  0  0  0  0  0
   -3.5210   15.9640   -4.8890 N   0  0  0  0  0  0  0  0  0  0  0  0
   -4.1030   14.9650   -5.7830 C   0  0  0  0  0  0  0  0  0  0  0  0
   -2.1080   16.1720   -5.0020 C   0  0  1  0  0  0  0  0  0  0  0  0
   -1.3370   14.8530   -5.0270 C   0  0  0  0  0  0  0  0  0  0  0  0
   -1.4720   17.3790   -5.6620 C   0  0  0  0  0  0  0  0  0  0  0  0
   -0.2570   15.0820   -4.0240 C   0  0  2  0  0  0  0  0  0  0  0  0
    0.0430   17.3950   -5.3610 C   0  0  0  0  0  0  0  0  0  0  0  0
    0.5940   16.3220   -4.3740 C   0  0  2  0  0  0  0  0  0  0  0  0
    0.7480   13.9500   -3.7740 C   0  0  1  0  0  0  0  0  0  0  0  0
    0.2370   12.4960   -3.9040 C   0  0  0  0  0  0  0  0  0  0  0  0
    1.8320   15.7830   -4.8670 N   0  0  0  0  0  0  0  0  0  0  0  0
    1.8040   14.3000   -4.7790 C   0  0  0  0  0  0  0  0  0  0  0  0
   -0.1190   11.7740   -2.5640 C   0  0  1  0  0  0  0  0  0  0  0  0
    0.4760   10.4850   -2.5440 O   0  0  0  0  0  0  0  0  0  0  0  0
    0.4490   12.3000   -1.4970 O   0  0  0  0  0  0  0  0  0  0  0  0
  2  1  1  1
  2  3  1  0
  2  4  1  0
  4  5  1  0
  3  6  1  0
  4  7  1  6
  5  8  1  0
  6  8  1  0
  5  9  1  6
  7 10  1  0
  9 11  1  0
 10 11  1  0
 11 12  1  1
 12 13  1  0
 13 14  1  0
 15 13  1  6
 15 16  1  0
 15 17  1  0
 18 16  1  6
 17 19  1  0
 18 20  1  0
 20 19  1  6
 18 21  1  0
 21 22  1  6
 20 23  1  0
 21 24  1  0
 23 24  1  0
 22 25  1  0
 25 26  1  6
 25 27  1  0
M  CHG  1  27  -1
M  END
