ucsf170-ucsf348
     RDKit          3D

 19 20  0  0  0  0  0  0  0  0999 V2000
   -4.4810   15.5530    1.7380 C   0  0  0  0  0  0  0  0  0  0  0  0
   -2.7650   15.7090    1.2750 S   0  0  0  0  0  0  0  0  0  0  0  0
   -2.8090   14.5870   -0.1550 C   0  0  2  0  0  0  0  0  0  0  0  0
   -1.3860   14.4850   -0.7330 C   0  0  0  0  0  0  0  0  0  0  0  0
   -4.0600   14.6220   -1.1340 C   0  0  2  0  0  0  0  0  0  0  0  0
   -1.2160   13.9080   -2.1560 C   0  0  2  0  0  0  0  0  0  0  0  0
   -3.6610   14.7820   -2.6520 C   0  0  0  0  0  0  0  0  0  0  0  0
   -5.3470   15.5150   -0.9140 C   0  0  1  0  0  0  0  0  0  0  0  0
   -4.6660   13.3030   -0.6890 C   0  0  0  0  0  0  0  0  0  0  0  0
    0.1800   14.3660   -2.6670 C   0  0  1  0  0  0  0  0  0  0  0  0
   -5.8760   15.8260   -2.1860 O   0  0  0  0  0  0  0  0  0  0  0  0
   -2.3920   14.0940   -3.1630 C   0  0  1  0  0  0  0  0  0  0  0  0
   -6.5640   14.9640   -0.2460 N   0  0  0  0  0  0  0  0  0  0  0  0
   -5.0560   13.5190    0.7180 N   0  0  0  0  0  0  0  0  0  0  0  0
   -1.9940   14.7360   -4.3740 O   0  0  0  0  0  0  0  0  0  0  0  0
    1.1630   13.8290   -1.8040 O   0  0  0  0  0  0  0  0  0  0  0  0
    0.4760   13.7490   -3.7850 O   0  0  0  0  0  0  0  0  0  0  0  0
   -6.4070   13.9380    0.7300 C   0  0  1  0  0  0  0  0  0  0  0  0
   -6.6810   14.5630    1.9920 N   0  0  0  0  0  0  0  0  0  0  0  0
  1  2  1  0
  3  2  1  6
  3  4  1  0
  3  5  1  0
  6  4  1  1
  5  7  1  6
  5  8  1  0
  5  9  1  0
  6 10  1  0
  8 11  1  6
  6 12  1  0
  7 12  1  0
  8 13  1  0
  9 14  1  0
 12 15  1  6
 10 16  1  1
 10 17  1  0
 13 18  1  0
 14 18  1  0
 18 19  1  1
M  CHG  1  17  -1
M  END
