ucsf274-ucsf339
     RDKit          3D

 29 32  0  0  0  0  0  0  0  0999 V2000
    0.3420   11.0250   -2.3680 O   0  0  0  0  0  0  0  0  0  0  0  0
    0.9260   12.2340   -2.2330 C   0  0  2  0  0  0  0  0  0  0  0  0
    0.4090   12.5870   -0.9650 O   0  0  0  0  0  0  0  0  0  0  0  0
    0.5800   13.4270   -3.3510 C   0  0  2  0  0  0  0  0  0  0  0  0
    0.6220   12.8780   -4.8490 C   0  0  0  0  0  0  0  0  0  0  0  0
    1.6360   14.2640   -3.2360 O   0  0  0  0  0  0  0  0  0  0  0  0
   -0.6880   14.3810   -2.9930 C   0  0  2  0  0  0  0  0  0  0  0  0
   -0.5050   12.0670   -5.5620 C   0  0  2  0  0  0  0  0  0  0  0  0
   -1.5300   14.1340   -1.6900 C   0  0  0  0  0  0  0  0  0  0  0  0
   -1.6430   14.6280   -4.1820 C   0  0  0  0  0  0  0  0  0  0  0  0
   -1.5010   11.2590   -4.6550 C   0  0  1  0  0  0  0  0  0  0  0  0
   -0.0240   11.2070   -6.6220 N   0  0  0  0  0  0  0  0  0  0  0  0
   -3.0700   14.1650   -1.8800 C   0  0  2  0  0  0  0  0  0  0  0  0
   -2.7240   15.6130   -3.9330 N   0  0  0  0  0  0  0  0  0  0  0  0
   -2.1580   12.0820   -3.7030 O   0  0  0  0  0  0  0  0  0  0  0  0
   -2.6130   10.5790   -5.3860 N   0  0  0  0  0  0  0  0  0  0  0  0
   -0.5090    9.8670   -6.6340 C   0  0  1  0  0  0  0  0  0  0  0  0
   -3.5620   15.3080   -2.7720 C   0  0  0  0  0  0  0  0  0  0  0  0
   -3.8790   14.1140   -0.5510 C   0  0  0  0  0  0  0  0  0  0  0  0
   -2.0630    9.8010   -6.5310 C   0  0  1  0  0  0  0  0  0  0  0  0
    0.0120    9.0760   -7.8410 C   0  0  0  0  0  0  0  0  0  0  0  0
   -3.6990   15.3620    0.3420 C   0  0  0  0  0  0  0  0  0  0  0  0
   -5.3580   13.7380   -0.7570 C   0  0  0  0  0  0  0  0  0  0  0  0
   -1.0830    8.2700   -8.5550 C   0  0  0  0  0  0  0  0  0  0  0  0
   -2.4880    8.3320   -6.4170 C   0  0  0  0  0  0  0  0  0  0  0  0
   -4.2950   15.1700    1.7150 C   0  0  0  0  0  0  0  0  0  0  0  0
   -6.2680   14.3670    0.2860 C   0  0  0  0  0  0  0  0  0  0  0  0
   -1.9860    7.4890   -7.5980 C   0  0  0  0  0  0  0  0  0  0  0  0
   -5.6230   14.4180    1.6710 C   0  0  0  0  0  0  0  0  0  0  0  0
  2  1  1  6
  2  3  1  0
  2  4  1  0
  4  5  1  0
  4  6  1  6
  4  7  1  0
  8  5  1  1
  7  9  1  1
  7 10  1  0
  8 11  1  0
  8 12  1  0
  9 13  1  0
 10 14  1  0
 11 15  1  1
 11 16  1  0
 12 17  1  0
 13 18  1  0
 14 18  1  0
 13 19  1  1
 16 20  1  0
 17 20  1  0
 17 21  1  6
 19 22  1  0
 19 23  1  0
 21 24  1  0
 20 25  1  1
 22 26  1  0
 23 27  1  0
 24 28  1  0
 25 28  1  0
 26 29  1  0
 27 29  1  0
M  CHG  2   1  -1   6  -1
M  END
