ucsf247-ucsf367
     RDKit          3D

 24 25  0  0  0  0  0  0  0  0999 V2000
    0.6790   13.1210   -2.4640 O   0  0  0  0  0  0  0  0  0  0  0  0
    0.5480   14.3280   -3.2030 C   0  0  2  0  0  0  0  0  0  0  0  0
    1.8090   14.9650   -3.2580 O   0  0  0  0  0  0  0  0  0  0  0  0
    1.1680   12.0810   -3.3320 C   0  0  1  0  0  0  0  0  0  0  0  0
   -0.4920   15.2060   -2.4860 C   0  0  0  0  0  0  0  0  0  0  0  0
    0.5780   10.9440   -2.9750 O   0  0  0  0  0  0  0  0  0  0  0  0
    0.7340   12.5360   -4.7660 C   0  0  0  0  0  0  0  0  0  0  0  0
   -1.7910   14.5190   -2.2630 N   0  0  0  0  0  0  0  0  0  0  0  0
    0.7320   11.4570   -5.7170 O   0  0  0  0  0  0  0  0  0  0  0  0
   -2.9010   15.4050   -2.4810 C   0  0  1  0  0  0  0  0  0  0  0  0
   -0.3450   10.5260   -5.6110 C   0  0  0  0  0  0  0  0  0  0  0  0
   -3.5900   14.9170   -3.6110 O   0  0  0  0  0  0  0  0  0  0  0  0
   -3.8940   15.4210   -1.2970 C   0  0  1  0  0  0  0  0  0  0  0  0
   -0.4690    9.6600   -6.8610 C   0  0  0  0  0  0  0  0  0  0  0  0
   -1.6520   11.2780   -5.3820 C   0  0  0  0  0  0  0  0  0  0  0  0
   -5.1520   14.5830   -1.4110 C   0  0  0  0  0  0  0  0  0  0  0  0
   -3.1900   15.1810    0.0610 C   0  0  0  0  0  0  0  0  0  0  0  0
   -1.5870    8.6410   -6.7050 C   0  0  0  0  0  0  0  0  0  0  0  0
   -2.8270   10.3140   -5.2440 C   0  0  0  0  0  0  0  0  0  0  0  0
   -6.0880   15.0110   -0.3050 C   0  0  1  0  0  0  0  0  0  0  0  0
   -4.0910   15.4380    1.2650 C   0  0  0  0  0  0  0  0  0  0  0  0
   -2.9170    9.3220   -6.3990 C   0  0  0  0  0  0  0  0  0  0  0  0
   -7.3470   14.3440   -0.4100 O   0  0  0  0  0  0  0  0  0  0  0  0
   -5.4700   14.7930    1.0950 C   0  0  0  0  0  0  0  0  0  0  0  0
  1  2  1  0
  2  3  1  1
  1  4  1  0
  2  5  1  0
  4  6  1  1
  4  7  1  0
  5  8  1  0
  7  9  1  0
  8 10  1  0
  9 11  1  0
 10 12  1  6
 10 13  1  0
 11 14  1  0
 11 15  1  0
 13 16  1  6
 13 17  1  0
 14 18  1  0
 15 19  1  0
 16 20  1  0
 17 21  1  0
 18 22  1  0
 19 22  1  0
 20 23  1  1
 20 24  1  0
 21 24  1  0
M  CHG  1   6  -1
M  END
