ucsf005-ucsf487
     RDKit          3D

 18 20  0  0  0  0  0  0  0  0999 V2000
   -1.8230   13.9240   -3.0710 C   0  0  0  0  0  0  0  0  0  0  0  0
   -2.7720   14.5750   -2.1750 N   0  0  0  0  0  0  0  0  0  0  0  0
   -4.1810   14.1060   -2.1620 C   0  0  0  0  0  0  0  0  0  0  0  0
   -2.5140   14.4350   -0.7750 C   0  0  2  0  0  0  0  0  0  0  0  0
   -4.8450   14.6960   -0.8530 C   0  0  2  0  0  0  0  0  0  0  0  0
   -3.5870   15.4230   -0.3470 C   0  0  1  0  0  0  0  0  0  0  0  0
   -1.1500   14.7020   -0.4300 N   0  0  0  0  0  0  0  0  0  0  0  0
   -3.3470   15.7760    1.0970 C   0  0  1  0  0  0  0  0  0  0  0  0
   -1.0310   14.9870    0.9530 C   0  0  2  0  0  0  0  0  0  0  0  0
   -5.3190   13.6940    0.3160 C   0  0  0  0  0  0  0  0  0  0  0  0
   -6.0270   15.5430   -1.3030 C   0  0  0  0  0  0  0  0  0  0  0  0
   -4.5080   15.5620    1.9300 N   0  0  0  0  0  0  0  0  0  0  0  0
   -0.1790   14.0470    1.5950 N   0  0  0  0  0  0  0  0  0  0  0  0
   -2.2930   14.9410    1.6440 N   0  0  0  0  0  0  0  0  0  0  0  0
   -6.7560   13.8580    0.9610 C   0  0  1  0  0  0  0  0  0  0  0  0
   -7.2890   14.8150   -1.3030 N   0  0  0  0  0  0  0  0  0  0  0  0
   -6.7920   14.5270    2.2680 N   0  0  0  0  0  0  0  0  0  0  0  0
   -7.7920   14.5000    0.0240 C   0  0  0  0  0  0  0  0  0  0  0  0
  1  2  1  0
  2  3  1  0
  2  4  1  0
  5  3  1  6
  4  6  1  0
  5  6  1  0
  4  7  1  6
  6  8  1  1
  7  9  1  0
  5 10  1  0
  5 11  1  0
  8 12  1  1
  9 13  1  1
  8 14  1  0
  9 14  1  0
 10 15  1  0
 11 16  1  0
 15 17  1  1
 15 18  1  0
 16 18  1  0
M  END
