ucsf520-ucsf274
     RDKit          3D

 31 35  0  0  0  0  0  0  0  0999 V2000
   -4.5350   15.1600    0.9290 N   0  0  0  0  0  0  0  0  0  0  0  0
   -3.5520   14.5290    0.0440 C   0  0  2  0  0  0  0  0  0  0  0  0
   -2.1260   14.8970    0.4480 C   0  0  2  0  0  0  0  0  0  0  0  0
   -3.7940   15.0860   -1.2650 N   0  0  0  0  0  0  0  0  0  0  0  0
   -2.9380   14.5370   -2.3530 C   0  0  0  0  0  0  0  0  0  0  0  0
   -1.1400   14.6400   -0.7290 C   0  0  2  0  0  0  0  0  0  0  0  0
   -1.5760   14.1530    1.5920 N   0  0  0  0  0  0  0  0  0  0  0  0
   -1.5920   14.0480   -1.9910 N   0  0  0  0  0  0  0  0  0  0  0  0
   -0.1320   13.7600   -0.1410 N   0  0  0  0  0  0  0  0  0  0  0  0
   -0.1850   14.0640    1.2640 C   0  0  0  0  0  0  0  0  0  0  0  0
   -0.5000   13.9040   -3.1230 C   0  0  1  0  0  0  0  0  0  0  0  0
    0.7570   12.9100   -2.6460 C   0  0  2  0  0  0  0  0  0  0  0  0
   -0.8670   13.2760   -4.5870 C   0  0  0  0  0  0  0  0  0  0  0  0
   -0.0930   15.3950   -3.6540 C   0  0  2  0  0  0  0  0  0  0  0  0
    0.5890   11.5940   -2.7410 O   0  0  0  0  0  0  0  0  0  0  0  0
    0.8960   12.9740   -1.2400 O   0  0  0  0  0  0  0  0  0  0  0  0
   -1.1700   16.2370   -4.1710 O   0  0  0  0  0  0  0  0  0  0  0  0
    0.9930   15.5080   -4.7260 C   0  0  0  0  0  0  0  0  0  0  0  0
   -0.5950   11.8000   -5.0140 C   0  0  1  0  0  0  0  0  0  0  0  0
    0.8610   16.9490   -5.1590 C   0  0  0  0  0  0  0  0  0  0  0  0
   -0.6180   17.2280   -5.0450 C   0  0  0  0  0  0  0  0  0  0  0  0
   -1.7470   10.9600   -4.3330 C   0  0  1  0  0  0  0  0  0  0  0  0
   -0.3240   11.5030   -6.4570 N   0  0  0  0  0  0  0  0  0  0  0  0
   -2.6400   11.7630   -3.6080 O   0  0  0  0  0  0  0  0  0  0  0  0
   -2.6110   10.2240   -5.2370 N   0  0  0  0  0  0  0  0  0  0  0  0
   -0.9490   10.2870   -7.0330 C   0  0  2  0  0  0  0  0  0  0  0  0
   -1.7180    9.3890   -6.0240 C   0  0  2  0  0  0  0  0  0  0  0  0
    0.0020    9.4430   -7.9070 C   0  0  0  0  0  0  0  0  0  0  0  0
   -0.5010    8.0210   -8.1810 C   0  0  0  0  0  0  0  0  0  0  0  0
   -2.5380    8.2840   -6.6990 C   0  0  0  0  0  0  0  0  0  0  0  0
   -2.0130    7.8910   -8.0780 C   0  0  0  0  0  0  0  0  0  0  0  0
  2  1  1  1
  2  3  1  0
  2  4  1  0
  4  5  1  0
  3  6  1  0
  3  7  1  1
  5  8  1  0
  6  8  1  0
  6  9  1  1
  7 10  1  0
  9 10  1  0
  8 11  1  0
 11 12  1  0
 11 13  1  6
 11 14  1  0
 12 15  1  1
 12 16  1  0
 14 17  1  0
 14 18  1  6
 19 13  1  6
 18 20  1  0
 17 21  1  0
 20 21  1  0
 19 22  1  0
 19 23  1  0
 22 24  1  6
 22 25  1  0
 23 26  1  0
 25 27  1  0
 26 27  1  0
 26 28  1  1
 28 29  1  0
 27 30  1  6
 29 31  1  0
 30 31  1  0
M  CHG  1  15  -1
M  END
