ucsf135-ucsf392
     RDKit          3D

 23 25  0  0  0  0  0  0  0  0999 V2000
    1.7320   11.6990   -7.0420 O   0  0  0  0  0  0  0  0  0  0  0  0
    0.4900   11.9670   -6.4900 C   0  0  2  0  0  0  0  0  0  0  0  0
    0.6130   12.0510   -5.0410 N   0  0  0  0  0  0  0  0  0  0  0  0
   -0.6200   10.9510   -6.9390 C   0  0  2  0  0  0  0  0  0  0  0  0
   -0.7110   11.3450   -4.3330 S   0  0  2  0  0  0  0  0  0  0  0  0
   -1.4750   10.5030   -5.7150 C   0  0  2  0  0  0  0  0  0  0  0  0
   -0.1350    9.7300   -7.7380 C   0  0  0  0  0  0  0  0  0  0  0  0
   -1.8800   12.3060   -3.7760 O   0  0  0  0  0  0  0  0  0  0  0  0
   -0.2940   10.2590   -3.2460 O   0  0  0  0  0  0  0  0  0  0  0  0
   -1.6320    8.9960   -5.5750 C   0  0  0  0  0  0  0  0  0  0  0  0
   -1.3050    8.7960   -8.0800 C   0  0  0  0  0  0  0  0  0  0  0  0
   -1.7180   13.7360   -3.7160 C   0  0  0  0  0  0  0  0  0  0  0  0
   -2.1620    8.3960   -6.8740 C   0  0  0  0  0  0  0  0  0  0  0  0
   -2.8590   14.3600   -2.8810 C   0  0  0  0  0  0  0  0  0  0  0  0
   -2.7310   14.2400   -1.3390 C   0  0  2  0  0  0  0  0  0  0  0  0
   -3.9300   14.7080   -0.4640 C   0  0  2  0  0  0  0  0  0  0  0  0
   -1.4920   14.8240   -0.8680 N   0  0  0  0  0  0  0  0  0  0  0  0
   -4.9300   15.6230   -1.1700 C   0  0  0  0  0  0  0  0  0  0  0  0
   -3.4540   15.3920    0.8320 C   0  0  1  0  0  0  0  0  0  0  0  0
   -1.2100   14.4240    0.4870 C   0  0  1  0  0  0  0  0  0  0  0  0
    0.0760   15.1030    0.8820 C   0  0  0  0  0  0  0  0  0  0  0  0
   -4.4580   15.4840    1.8760 N   0  0  0  0  0  0  0  0  0  0  0  0
   -2.2670   14.8150    1.4050 N   0  0  0  0  0  0  0  0  0  0  0  0
  2  1  1  6
  2  3  1  0
  2  4  1  0
  3  5  1  0
  4  6  1  0
  5  6  1  0
  4  7  1  1
  5  8  1  0
  5  9  1  1
  6 10  1  1
  7 11  1  0
  8 12  1  0
 10 13  1  0
 11 13  1  0
 12 14  1  0
 15 14  1  6
 15 16  1  0
 15 17  1  0
 16 18  1  6
 16 19  1  0
 17 20  1  0
 20 21  1  1
 19 22  1  1
 19 23  1  0
 20 23  1  0
M  END
