ucsf123-ucsf387
     RDKit          3D

 15 15  0  0  0  0  0  0  0  0999 V2000
   -1.9010   18.6540   -4.8640 N   0  0  0  0  0  0  0  0  0  0  0  0
   -1.7080   17.2830   -5.7210 S   0  0  0  0  0  0  0  0  0  0  0  0
   -0.4910   17.6610   -6.6780 O   0  0  0  0  0  0  0  0  0  0  0  0
   -2.9000   17.0140   -6.7180 O   0  0  0  0  0  0  0  0  0  0  0  0
   -1.2080   15.7130   -5.0210 C   0  0  1  0  0  0  0  0  0  0  0  0
    0.2680   15.6710   -4.7060 C   0  0  1  0  0  0  0  0  0  0  0  0
   -2.1000   15.0840   -3.9690 C   0  0  0  0  0  0  0  0  0  0  0  0
    0.8920   17.2590   -4.1380 Cl  0  0  0  0  0  0  0  0  0  0  0  0
    0.8560   14.3480   -4.1260 C   0  0  1  0  0  0  0  0  0  0  0  0
   -1.6860   13.6550   -3.6590 C   0  0  0  0  0  0  0  0  0  0  0  0
    2.1750   14.5030   -3.4060 C   0  0  0  0  0  0  0  0  0  0  0  0
   -0.1700   13.3740   -3.4290 C   0  0  2  0  0  0  0  0  0  0  0  0
    0.1230   12.9410   -1.9520 C   0  0  2  0  0  0  0  0  0  0  0  0
    1.5020   13.0210   -1.7040 O   0  0  0  0  0  0  0  0  0  0  0  0
   -0.1070   11.6640   -1.7050 O   0  0  0  0  0  0  0  0  0  0  0  0
  1  2  1  0
  2  3  1  0
  2  4  1  0
  5  2  1  1
  5  6  1  0
  5  7  1  0
  6  8  1  1
  6  9  1  0
  7 10  1  0
  9 11  1  1
  9 12  1  0
 12 10  1  1
 12 13  1  0
 13 14  1  6
 13 15  1  0
M  CHG  1  15  -1
M  END
