ucsf412-ucsf387
     RDKit          3D

 25 27  0  0  0  0  0  0  0  0999 V2000
   -8.2520   14.3260   -0.8180 O   0  0  0  0  0  0  0  0  0  0  0  0
   -7.1560   14.9460   -0.1970 C   0  0  1  0  0  0  0  0  0  0  0  0
   -7.4340   14.8540    1.2230 N   0  0  0  0  0  0  0  0  0  0  0  0
   -5.8510   14.3260   -0.7220 C   0  0  2  0  0  0  0  0  0  0  0  0
   -4.5880   14.4540    0.1720 C   0  0  2  0  0  0  0  0  0  0  0  0
   -6.2510   14.6530    2.0330 C   0  0  0  0  0  0  0  0  0  0  0  0
   -5.5620   14.8780   -2.1070 C   0  0  0  0  0  0  0  0  0  0  0  0
   -4.9170   15.1660    1.4600 C   0  0  0  0  0  0  0  0  0  0  0  0
   -3.4100   15.1690   -0.4980 C   0  0  0  0  0  0  0  0  0  0  0  0
   -4.3300   14.1510   -2.5870 C   0  0  2  0  0  0  0  0  0  0  0  0
   -3.1050   14.7700   -1.9400 C   0  0  0  0  0  0  0  0  0  0  0  0
   -4.2690   13.9170   -4.1040 C   0  0  0  0  0  0  0  0  0  0  0  0
   -4.1290   15.1500   -4.9700 C   0  0  0  0  0  0  0  0  0  0  0  0
   -2.9260   15.2090   -5.8620 C   0  0  0  0  0  0  0  0  0  0  0  0
   -1.6670   15.3340   -5.0000 C   0  0  1  0  0  0  0  0  0  0  0  0
   -0.6950   14.1640   -5.0690 C   0  0  0  0  0  0  0  0  0  0  0  0
   -0.9390   16.6610   -5.2040 C   0  0  0  0  0  0  0  0  0  0  0  0
    0.3840   14.2650   -4.0110 C   0  0  1  0  0  0  0  0  0  0  0  0
    0.5880   16.6130   -5.1190 C   0  0  1  0  0  0  0  0  0  0  0  0
    1.0040   18.1910   -4.4300 Cl  0  0  0  0  0  0  0  0  0  0  0  0
    1.1800   12.9770   -3.6620 C   0  0  0  0  0  0  0  0  0  0  0  0
    1.2430   15.5130   -4.2520 C   0  0  0  0  0  0  0  0  0  0  0  0
    0.3740   12.1390   -2.6430 C   0  0  1  0  0  0  0  0  0  0  0  0
    0.7180   10.8700   -2.5270 O   0  0  0  0  0  0  0  0  0  0  0  0
    0.6800   12.6210   -1.3500 O   0  0  0  0  0  0  0  0  0  0  0  0
  2  1  1  6
  2  3  1  0
  2  4  1  0
  4  5  1  0
  3  6  1  0
  4  7  1  6
  5  8  1  1
  6  8  1  0
  5  9  1  0
  7 10  1  0
  9 11  1  0
 10 11  1  0
 10 12  1  6
 12 13  1  0
 13 14  1  0
 15 14  1  6
 15 16  1  0
 15 17  1  0
 16 18  1  0
 17 19  1  0
 19 20  1  1
 18 21  1  6
 18 22  1  0
 19 22  1  0
 21 23  1  0
 23 24  1  1
 23 25  1  0
M  CHG  1  24  -1
M  END
