ucsf013-ucsf345
     RDKit          3D

 14 15  0  0  0  0  0  0  0  0999 V2000
   -3.0900   14.5930    2.0930 N   0  0  0  0  0  0  0  0  0  0  0  0
   -4.1380   15.1830    1.3160 C   0  0  2  0  0  0  0  0  0  0  0  0
   -5.2930   15.1770    2.1530 N   0  0  0  0  0  0  0  0  0  0  0  0
   -4.4180   14.4290    0.0390 C   0  0  1  0  0  0  0  0  0  0  0  0
   -5.7220   14.9590   -0.5220 C   0  0  2  0  0  0  0  0  0  0  0  0
   -6.3990   14.3510    1.7230 C   0  0  0  0  0  0  0  0  0  0  0  0
   -3.2830   14.5590   -0.9930 C   0  0  0  0  0  0  0  0  0  0  0  0
   -6.8310   14.6410    0.3760 N   0  0  0  0  0  0  0  0  0  0  0  0
   -6.0390   14.3290   -1.8570 C   0  0  1  0  0  0  0  0  0  0  0  0
   -3.7200   15.2790   -2.2680 C   0  0  0  0  0  0  0  0  0  0  0  0
   -7.4670   14.8140   -2.1200 C   0  0  2  0  0  0  0  0  0  0  0  0
   -4.9390   14.6230   -2.9080 C   0  0  0  0  0  0  0  0  0  0  0  0
   -7.8300   15.8940   -1.2210 N   0  0  0  0  0  0  0  0  0  0  0  0
   -8.3620   13.7820   -1.7840 O   0  0  0  0  0  0  0  0  0  0  0  0
  2  1  1  1
  2  3  1  0
  2  4  1  0
  4  5  1  0
  3  6  1  0
  4  7  1  6
  5  8  1  1
  6  8  1  0
  5  9  1  0
  7 10  1  0
  9 11  1  0
  9 12  1  6
 10 12  1  0
 11 13  1  1
 11 14  1  0
M  END
