ucsf006-ucsf348
     RDKit          3D

 22 24  0  0  0  0  0  0  0  0999 V2000
   -2.4850   15.2710   -3.4970 C   0  0  0  0  0  0  0  0  0  0  0  0
   -1.3530   14.8070   -2.7010 N   0  0  0  0  0  0  0  0  0  0  0  0
   -0.0700   15.2780   -3.3220 C   0  0  0  0  0  0  0  0  0  0  0  0
   -1.4680   15.1460   -1.2660 C   0  0  1  0  0  0  0  0  0  0  0  0
    0.4670   14.4430   -4.5150 C   0  0  0  0  0  0  0  0  0  0  0  0
   -2.7500   14.6430   -0.5100 C   0  0  1  0  0  0  0  0  0  0  0  0
   -0.2450   14.5850   -0.6450 N   0  0  0  0  0  0  0  0  0  0  0  0
    0.3640   12.9140   -4.2920 C   0  0  1  0  0  0  0  0  0  0  0  0
   -2.2870   14.5810    0.9260 C   0  0  1  0  0  0  0  0  0  0  0  0
   -0.0400   14.9280    0.7510 C   0  0  0  0  0  0  0  0  0  0  0  0
   -4.0610   15.4900   -0.4400 C   0  0  2  0  0  0  0  0  0  0  0  0
    0.0810   12.2780   -5.5240 O   0  0  0  0  0  0  0  0  0  0  0  0
    1.5640   12.4330   -3.9950 O   0  0  0  0  0  0  0  0  0  0  0  0
   -1.2610   15.5310    1.2110 N   0  0  0  0  0  0  0  0  0  0  0  0
   -3.3380   14.9660    1.7930 N   0  0  0  0  0  0  0  0  0  0  0  0
   -4.2510   15.7690    1.0590 C   0  0  2  0  0  0  0  0  0  0  0  0
   -5.4510   15.0490   -0.9540 C   0  0  1  0  0  0  0  0  0  0  0  0
   -5.5130   14.6150   -2.2910 O   0  0  0  0  0  0  0  0  0  0  0  0
   -6.0380   14.0350   -0.0970 N   0  0  0  0  0  0  0  0  0  0  0  0
   -5.4610   15.3390    1.7410 N   0  0  0  0  0  0  0  0  0  0  0  0
   -6.5200   14.6840    1.0560 C   0  0  2  0  0  0  0  0  0  0  0  0
   -6.9280   13.7020    1.9820 N   0  0  0  0  0  0  0  0  0  0  0  0
  1  2  1  0
  2  3  1  0
  4  2  1  6
  3  5  1  0
  6  4  1  6
  4  7  1  0
  5  8  1  0
  6  9  1  0
  7 10  1  0
  6 11  1  0
  8 12  1  6
  8 13  1  0
  9 14  1  6
 10 14  1  0
  9 15  1  0
 11 16  1  0
 16 15  1  1
 11 17  1  1
 17 18  1  6
 17 19  1  0
 16 20  1  0
 19 21  1  0
 20 21  1  0
 21 22  1  1
M  CHG  1  13  -1
M  END
