ucsf337-ucsf123
     RDKit          3D

 25 26  0  0  0  0  0  0  0  0999 V2000
   -7.3990   14.4800    0.7450 C   0  0  0  0  0  0  0  0  0  0  0  0
   -6.2580   14.9290   -0.1870 C   0  0  2  0  0  0  0  0  0  0  0  0
   -6.4450   14.3730   -1.5080 N   0  0  0  0  0  0  0  0  0  0  0  0
   -4.8450   14.6190    0.3380 C   0  0  2  0  0  0  0  0  0  0  0  0
   -4.4110   15.5750    1.9830 Br  0  0  0  0  0  0  0  0  0  0  0  0
   -3.7700   15.0830   -0.6250 C   0  0  0  0  0  0  0  0  0  0  0  0
   -5.4560   14.8890   -2.4280 C   0  0  2  0  0  0  0  0  0  0  0  0
   -5.9200   14.3980   -3.6990 N   0  0  0  0  0  0  0  0  0  0  0  0
   -4.0360   14.4990   -1.9950 C   0  0  0  0  0  0  0  0  0  0  0  0
   -5.1070   14.5220   -4.9110 C   0  0  0  0  0  0  0  0  0  0  0  0
   -3.5990   14.8020   -4.7810 C   0  0  0  0  0  0  0  0  0  0  0  0
   -3.2100   15.8810   -3.7660 C   0  0  0  0  0  0  0  0  0  0  0  0
   -2.7200   17.0880   -4.4510 N   0  0  0  0  0  0  0  0  0  0  0  0
   -1.6590   16.8900   -5.5840 S   0  0  0  0  0  0  0  0  0  0  0  0
   -0.7560   18.1680   -5.9090 O   0  0  0  0  0  0  0  0  0  0  0  0
   -2.6620   16.6220   -6.8110 O   0  0  0  0  0  0  0  0  0  0  0  0
   -0.7010   15.5280   -4.9870 C   0  0  2  0  0  0  0  0  0  0  0  0
    0.7100   15.7850   -4.5190 C   0  0  0  0  0  0  0  0  0  0  0  0
   -0.9260   14.1140   -5.4950 C   0  0  0  0  0  0  0  0  0  0  0  0
    1.0710   14.7290   -3.4710 C   0  0  0  0  0  0  0  0  0  0  0  0
   -0.7770   13.1280   -4.3470 C   0  0  0  0  0  0  0  0  0  0  0  0
   -0.0900   13.7430   -3.0960 C   0  0  1  0  0  0  0  0  0  0  0  0
    0.4060   12.7390   -2.0070 C   0  0  2  0  0  0  0  0  0  0  0  0
    1.8060   12.7430   -1.9860 O   0  0  0  0  0  0  0  0  0  0  0  0
    0.1540   11.4740   -2.2880 O   0  0  0  0  0  0  0  0  0  0  0  0
  2  1  1  1
  2  3  1  0
  2  4  1  0
  4  5  1  1
  4  6  1  0
  3  7  1  0
  7  8  1  6
  6  9  1  0
  7  9  1  0
  8 10  1  0
 10 11  1  0
 11 12  1  0
 12 13  1  0
 13 14  1  0
 14 15  1  0
 14 16  1  0
 17 14  1  6
 17 18  1  0
 17 19  1  0
 18 20  1  0
 19 21  1  0
 22 20  1  6
 21 22  1  0
 22 23  1  0
 23 24  1  6
 23 25  1  0
M  CHG  1  25  -1
M  END
