ucsf523-ucsf170
     RDKit          3D

 24 26  0  0  0  0  0  0  0  0999 V2000
   -0.1940   14.0350    1.8940 N   0  0  0  0  0  0  0  0  0  0  0  0
   -1.2460   14.1330    0.9240 C   0  0  2  0  0  0  0  0  0  0  0  0
   -2.5510   14.0770    1.5340 N   0  0  0  0  0  0  0  0  0  0  0  0
   -1.0340   13.2230   -0.1780 N   0  0  0  0  0  0  0  0  0  0  0  0
   -2.1020   13.0170   -1.1550 C   0  0  2  0  0  0  0  0  0  0  0  0
   -3.6540   13.4960    0.7800 C   0  0  2  0  0  0  0  0  0  0  0  0
   -1.6130   13.6000   -2.3480 O   0  0  0  0  0  0  0  0  0  0  0  0
   -3.4740   13.6220   -0.7570 C   0  0  2  0  0  0  0  0  0  0  0  0
   -4.8640   14.1890    1.2360 N   0  0  0  0  0  0  0  0  0  0  0  0
   -5.5290   14.8880    0.1240 C   0  0  1  0  0  0  0  0  0  0  0  0
   -4.6560   13.1420   -1.5230 N   0  0  0  0  0  0  0  0  0  0  0  0
   -4.7410   15.9910   -0.3180 O   0  0  0  0  0  0  0  0  0  0  0  0
   -5.7790   14.0100   -1.1500 C   0  0  0  0  0  0  0  0  0  0  0  0
   -3.1270   15.9220    0.0800 S   0  0  0  0  0  0  0  0  0  0  0  0
   -2.3270   15.7450   -1.5910 C   0  0  1  0  0  0  0  0  0  0  0  0
   -0.7910   15.5110   -1.6700 C   0  0  0  0  0  0  0  0  0  0  0  0
   -3.1910   15.1870   -2.7120 C   0  0  0  0  0  0  0  0  0  0  0  0
   -0.1730   15.5320   -3.1040 C   0  0  1  0  0  0  0  0  0  0  0  0
   -2.6090   15.6120   -4.0450 C   0  0  0  0  0  0  0  0  0  0  0  0
    1.2080   14.7720   -3.2840 C   0  0  1  0  0  0  0  0  0  0  0  0
   -1.1850   15.0800   -4.1890 C   0  0  1  0  0  0  0  0  0  0  0  0
   -0.7040   15.5020   -5.4540 O   0  0  0  0  0  0  0  0  0  0  0  0
    2.0600   14.8790   -2.1460 O   0  0  0  0  0  0  0  0  0  0  0  0
    1.0160   13.4640   -3.3440 O   0  0  0  0  0  0  0  0  0  0  0  0
  2  1  1  1
  2  3  1  0
  2  4  1  0
  4  5  1  0
  6  3  1  1
  5  7  1  6
  5  8  1  0
  6  8  1  0
  6  9  1  0
  9 10  1  0
  8 11  1  6
 10 12  1  6
 10 13  1  0
 11 13  1  0
 12 14  1  0
 15 14  1  1
 15 16  1  0
 15 17  1  0
 18 16  1  1
 17 19  1  0
 18 20  1  0
 18 21  1  0
 19 21  1  0
 21 22  1  6
 20 23  1  1
 20 24  1  0
M  CHG  1  24  -1
M  END
