ucsf012-ucsf493
     RDKit          3D

 32 36  0  0  0  0  0  0  0  0999 V2000
   -4.0150   15.1260   -3.6990 C   0  0  0  0  0  0  0  0  0  0  0  0
   -3.3430   16.2910   -4.1900 O   0  0  0  0  0  0  0  0  0  0  0  0
   -2.6880   16.0510   -5.4220 C   0  0  2  0  0  0  0  0  0  0  0  0
   -3.2150   14.4580   -2.5640 C   0  0  2  0  0  0  0  0  0  0  0  0
   -3.8970   14.6750   -1.1920 C   0  0  2  0  0  0  0  0  0  0  0  0
   -1.8060   14.9870   -2.4500 N   0  0  0  0  0  0  0  0  0  0  0  0
   -5.3090   15.2500   -1.2560 C   0  0  0  0  0  0  0  0  0  0  0  0
   -0.9510   14.0340   -3.1500 C   0  0  0  0  0  0  0  0  0  0  0  0
   -2.8750   15.4770   -0.4090 C   0  0  2  0  0  0  0  0  0  0  0  0
   -1.5600   15.1550   -1.0380 C   0  0  1  0  0  0  0  0  0  0  0  0
   -1.8690   14.7520   -5.2550 C   0  0  0  0  0  0  0  0  0  0  0  0
   -1.8870   17.3330   -5.7750 C   0  0  0  0  0  0  0  0  0  0  0  0
   -2.7600   15.4680    1.0750 C   0  0  1  0  0  0  0  0  0  0  0  0
   -0.7710   14.1290   -0.3890 N   0  0  0  0  0  0  0  0  0  0  0  0
   -1.3130   12.5560   -3.1040 C   0  0  2  0  0  0  0  0  0  0  0  0
   -0.5670   14.9140   -4.4480 C   0  0  2  0  0  0  0  0  0  0  0  0
   -0.4480   17.3240   -5.2960 C   0  0  0  0  0  0  0  0  0  0  0  0
   -3.9730   15.5410    1.8550 N   0  0  0  0  0  0  0  0  0  0  0  0
   -1.9710   14.3660    1.5720 N   0  0  0  0  0  0  0  0  0  0  0  0
   -0.6230   14.3750    1.0280 C   0  0  0  0  0  0  0  0  0  0  0  0
   -0.4070   11.8470   -2.1280 C   0  0  0  0  0  0  0  0  0  0  0  0
   -1.1170   11.9070   -4.3750 O   0  0  0  0  0  0  0  0  0  0  0  0
   -0.2370   16.3740   -4.1440 C   0  0  2  0  0  0  0  0  0  0  0  0
    0.6830   14.4240   -5.2060 C   0  0  2  0  0  0  0  0  0  0  0  0
    1.1880   12.9910   -4.8980 C   0  0  0  0  0  0  0  0  0  0  0  0
   -0.7920   10.5440   -4.1040 C   0  0  0  0  0  0  0  0  0  0  0  0
   -0.4710   10.4370   -2.6280 C   0  0  0  0  0  0  0  0  0  0  0  0
    1.1410   16.2610   -3.7210 N   0  0  0  0  0  0  0  0  0  0  0  0
    1.6930   15.4910   -4.8280 C   0  0  0  0  0  0  0  0  0  0  0  0
    1.5870   12.7500   -3.4200 C   0  0  1  0  0  0  0  0  0  0  0  0
    1.1290   11.4900   -3.0180 O   0  0  0  0  0  0  0  0  0  0  0  0
    2.8750   12.5500   -3.3250 O   0  0  0  0  0  0  0  0  0  0  0  0
  1  2  1  0
  3  2  1  1
  4  1  1  6
  4  5  1  0
  4  6  1  0
  5  7  1  6
  6  8  1  0
  5  9  1  0
  6 10  1  0
  9 10  1  0
  3 11  1  0
  3 12  1  0
  9 13  1  1
 10 14  1  1
 15  8  1  6
 16 11  1  6
 12 17  1  0
 13 18  1  1
 13 19  1  0
 14 20  1  0
 19 20  1  0
 15 21  1  0
 15 22  1  0
 16 23  1  0
 23 17  1  6
 16 24  1  0
 24 25  1  1
 22 26  1  0
 21 27  1  0
 26 27  1  0
 23 28  1  0
 24 29  1  0
 28 29  1  0
 25 30  1  0
 30 31  1  6
 30 32  1  0
M  CHG  1  32  -1
M  END
