ucsf262-ucsf424
     RDKit          3D

 25 28  0  0  0  0  0  0  0  0999 V2000
   -3.2020   15.7420   -5.8350 Cl  0  0  0  0  0  0  0  0  0  0  0  0
   -1.9630   16.8400   -5.1590 C   0  0  1  0  0  0  0  0  0  0  0  0
   -0.5910   16.2250   -4.9020 C   0  0  2  0  0  0  0  0  0  0  0  0
   -1.8340   18.1240   -6.0000 C   0  0  0  0  0  0  0  0  0  0  0  0
   -0.4270   15.1460   -3.8720 C   0  0  0  0  0  0  0  0  0  0  0  0
    0.4620   17.2310   -4.5480 C   0  0  1  0  0  0  0  0  0  0  0  0
   -0.4330   18.5480   -6.5130 C   0  0  0  0  0  0  0  0  0  0  0  0
    1.0960   15.0450   -3.7730 C   0  0  1  0  0  0  0  0  0  0  0  0
    1.5630   16.4460   -4.0050 N   0  0  0  0  0  0  0  0  0  0  0  0
    0.8150   18.0990   -5.7280 C   0  0  0  0  0  0  0  0  0  0  0  0
    1.6040   14.4780   -2.4180 C   0  0  2  0  0  0  0  0  0  0  0  0
    2.9230   14.3030   -2.4690 O   0  0  0  0  0  0  0  0  0  0  0  0
    0.9410   13.2250   -2.1560 O   0  0  0  0  0  0  0  0  0  0  0  0
    0.9150   12.2180   -3.1670 C   0  0  1  0  0  0  0  0  0  0  0  0
    0.0930   11.1440   -2.7170 O   0  0  0  0  0  0  0  0  0  0  0  0
    0.3000   12.6490   -4.5160 C   0  0  0  0  0  0  0  0  0  0  0  0
    0.2540   11.4790   -5.5050 C   0  0  2  0  0  0  0  0  0  0  0  0
    1.0700   11.7410   -6.7240 N   0  0  0  0  0  0  0  0  0  0  0  0
   -1.0190   10.9890   -6.1320 C   0  0  1  0  0  0  0  0  0  0  0  0
    0.6780   10.6870   -7.6800 O   0  0  0  0  0  0  0  0  0  0  0  0
   -0.3590    9.9650   -7.0210 C   0  0  2  0  0  0  0  0  0  0  0  0
   -2.0580   10.3320   -5.2300 C   0  0  0  0  0  0  0  0  0  0  0  0
   -1.3390    9.2980   -7.9560 C   0  0  0  0  0  0  0  0  0  0  0  0
   -3.0510    9.4880   -6.0400 C   0  0  0  0  0  0  0  0  0  0  0  0
   -2.4110    8.6010   -7.1240 C   0  0  0  0  0  0  0  0  0  0  0  0
  2  1  1  6
  2  3  1  0
  2  4  1  0
  3  5  1  1
  3  6  1  0
  4  7  1  0
  8  5  1  1
  6  9  1  0
  8  9  1  0
  6 10  1  6
  7 10  1  0
  8 11  1  0
 11 12  1  6
 11 13  1  0
 13 14  1  0
 14 15  1  1
 14 16  1  0
 17 16  1  6
 17 18  1  0
 17 19  1  0
 18 20  1  0
 19 21  1  0
 20 21  1  0
 19 22  1  1
 21 23  1  6
 22 24  1  0
 23 25  1  0
 24 25  1  0
M  CHG  1  12  -1
M  END
