ucsf110-ucsf380
     RDKit          3D

 20 22  0  0  0  0  0  0  0  0999 V2000
    0.1570   14.8300   -2.7670 C   0  0  2  0  0  0  0  0  0  0  0  0
    0.2930   13.5210   -2.2400 O   0  0  0  0  0  0  0  0  0  0  0  0
    1.2310   15.3190   -2.2200 O   0  0  0  0  0  0  0  0  0  0  0  0
   -1.0150   15.5310   -2.2220 N   0  0  0  0  0  0  0  0  0  0  0  0
   -2.2690   14.8270   -2.5100 C   0  0  1  0  0  0  0  0  0  0  0  0
   -1.0110   15.4930   -0.7720 C   0  0  1  0  0  0  0  0  0  0  0  0
   -2.1580   13.3330   -2.3320 C   0  0  0  0  0  0  0  0  0  0  0  0
   -3.3250   15.3700   -1.5590 C   0  0  0  0  0  0  0  0  0  0  0  0
   -2.4710   15.7430   -0.3800 C   0  0  1  0  0  0  0  0  0  0  0  0
   -0.4910   14.2860   -0.2370 N   0  0  0  0  0  0  0  0  0  0  0  0
   -2.7670   15.2390    1.0050 C   0  0  1  0  0  0  0  0  0  0  0  0
   -0.3540   14.4030    1.1550 C   0  0  0  0  0  0  0  0  0  0  0  0
   -2.0620   12.4410   -3.5450 C   0  0  0  0  0  0  0  0  0  0  0  0
   -3.7770   14.2150    1.0340 N   0  0  0  0  0  0  0  0  0  0  0  0
   -1.6420   14.7230    1.7760 N   0  0  0  0  0  0  0  0  0  0  0  0
   -2.4630   11.0090   -3.2640 C   0  0  0  0  0  0  0  0  0  0  0  0
   -0.7870   12.5290   -4.3740 C   0  0  0  0  0  0  0  0  0  0  0  0
   -2.8030   10.2830   -4.5550 C   0  0  0  0  0  0  0  0  0  0  0  0
   -0.9110   11.6380   -5.6060 C   0  0  0  0  0  0  0  0  0  0  0  0
   -2.3140   11.0480   -5.7810 C   0  0  0  0  0  0  0  0  0  0  0  0
  1  2  1  1
  1  3  1  0
  1  4  1  0
  4  5  1  0
  4  6  1  0
  5  7  1  1
  5  8  1  0
  6  9  1  0
  9  8  1  6
  6 10  1  6
  9 11  1  0
 10 12  1  0
  7 13  1  0
 11 14  1  6
 11 15  1  0
 12 15  1  0
 13 16  1  0
 13 17  1  0
 16 18  1  0
 17 19  1  0
 18 20  1  0
 19 20  1  0
M  CHG  1   3  -1
M  END
