ucsf442-ucsf338
     RDKit          3D

 15 16  0  0  0  0  0  0  0  0999 V2000
   -0.3270   13.9000    0.6160 O   0  0  0  0  0  0  0  0  0  0  0  0
   -1.3430   14.8300    0.4170 C   0  0  1  0  0  0  0  0  0  0  0  0
   -1.7050   14.7320   -0.9960 N   0  0  0  0  0  0  0  0  0  0  0  0
   -2.4310   14.4810    1.2780 N   0  0  0  0  0  0  0  0  0  0  0  0
   -3.4880   15.3530    0.9160 C   0  0  1  0  0  0  0  0  0  0  0  0
   -3.1400   14.7050   -1.4280 C   0  0  2  0  0  0  0  0  0  0  0  0
   -3.3430   15.7180   -2.3930 O   0  0  0  0  0  0  0  0  0  0  0  0
   -4.1870   14.7280   -0.2810 C   0  0  2  0  0  0  0  0  0  0  0  0
   -4.5210   15.4420    1.9350 N   0  0  0  0  0  0  0  0  0  0  0  0
   -5.5250   15.3420   -0.1230 N   0  0  0  0  0  0  0  0  0  0  0  0
   -5.6820   14.9020    1.2540 C   0  0  0  0  0  0  0  0  0  0  0  0
   -6.7010   14.9530   -0.8750 C   0  0  2  0  0  0  0  0  0  0  0  0
   -7.5120   14.0550   -0.0520 N   0  0  0  0  0  0  0  0  0  0  0  0
   -6.3930   14.2620   -2.0500 O   0  0  0  0  0  0  0  0  0  0  0  0
   -8.9170   14.4450   -0.1670 O   0  0  0  0  0  0  0  0  0  0  0  0
  2  1  1  6
  2  3  1  0
  2  4  1  0
  5  4  1  1
  3  6  1  0
  6  7  1  6
  5  8  1  0
  6  8  1  0
  5  9  1  0
  8 10  1  6
  9 11  1  0
 10 11  1  0
 10 12  1  0
 12 13  1  0
 12 14  1  6
 13 15  1  0
M  END
