ucsf135-ucsf422
     RDKit          3D

 25 28  0  0  0  0  0  0  0  0999 V2000
    1.5990   11.4650   -7.2200 O   0  0  0  0  0  0  0  0  0  0  0  0
    0.2650   11.7430   -6.9350 C   0  0  2  0  0  0  0  0  0  0  0  0
    0.1220   12.3170   -5.6220 N   0  0  0  0  0  0  0  0  0  0  0  0
   -0.7250   10.5600   -7.1160 C   0  0  2  0  0  0  0  0  0  0  0  0
   -0.8120   11.4070   -4.6460 S   0  0  2  0  0  0  0  0  0  0  0  0
   -1.4860   10.2280   -5.8020 C   0  0  2  0  0  0  0  0  0  0  0  0
   -0.1170    9.3320   -7.7930 C   0  0  0  0  0  0  0  0  0  0  0  0
   -2.0990   12.1740   -4.1020 O   0  0  0  0  0  0  0  0  0  0  0  0
    0.0210   10.8740   -3.4090 O   0  0  0  0  0  0  0  0  0  0  0  0
   -1.4710    8.7600   -5.5030 C   0  0  0  0  0  0  0  0  0  0  0  0
   -1.2170    8.3050   -8.0240 C   0  0  0  0  0  0  0  0  0  0  0  0
    0.8310   11.9300   -2.8710 C   0  0  2  0  0  0  0  0  0  0  0  0
   -1.9790    7.9910   -6.7280 C   0  0  0  0  0  0  0  0  0  0  0  0
    0.7300   11.9460   -1.4670 O   0  0  0  0  0  0  0  0  0  0  0  0
    0.3360   13.3120   -3.2860 C   0  0  0  0  0  0  0  0  0  0  0  0
    0.9540   14.1190   -4.4370 C   0  0  2  0  0  0  0  0  0  0  0  0
    1.9250   15.1530   -3.8690 C   0  0  0  0  0  0  0  0  0  0  0  0
   -0.0880   14.9880   -5.1530 C   0  0  2  0  0  0  0  0  0  0  0  0
    1.1930   16.4130   -3.9050 N   0  0  0  0  0  0  0  0  0  0  0  0
    0.5410   16.3840   -5.1840 C   0  0  2  0  0  0  0  0  0  0  0  0
   -1.4880   14.9610   -4.5230 C   0  0  0  0  0  0  0  0  0  0  0  0
   -0.3860   17.5830   -5.3940 C   0  0  0  0  0  0  0  0  0  0  0  0
   -2.4690   16.0610   -4.9500 C   0  0  2  0  0  0  0  0  0  0  0  0
   -3.8940   15.2830   -6.0570 Br  0  0  0  0  0  0  0  0  0  0  0  0
   -1.8790   17.2950   -5.6260 C   0  0  0  0  0  0  0  0  0  0  0  0
  2  1  1  1
  2  3  1  0
  2  4  1  0
  3  5  1  0
  4  6  1  0
  5  6  1  0
  4  7  1  1
  5  8  1  1
  5  9  1  0
  6 10  1  1
  7 11  1  0
  9 12  1  0
 10 13  1  0
 11 13  1  0
 12 14  1  1
 12 15  1  0
 16 15  1  1
 16 17  1  0
 16 18  1  0
 17 19  1  0
 18 20  1  0
 19 20  1  0
 18 21  1  1
 20 22  1  1
 21 23  1  0
 23 24  1  6
 22 25  1  0
 23 25  1  0
M  END
