ucsf333-ucsf173
     RDKit          3D

 24 27  0  0  0  0  0  0  0  0999 V2000
   -6.3640   15.6110   -1.5720 Cl  0  0  0  0  0  0  0  0  0  0  0  0
   -4.8020   14.8610   -1.1610 C   0  0  1  0  0  0  0  0  0  0  0  0
   -3.6810   15.1930   -2.1550 C   0  0  0  0  0  0  0  0  0  0  0  0
   -4.3900   15.1870    0.2690 C   0  0  0  0  0  0  0  0  0  0  0  0
   -2.3970   14.4400   -1.7550 C   0  0  1  0  0  0  0  0  0  0  0  0
   -3.2000   14.3060    0.6650 C   0  0  0  0  0  0  0  0  0  0  0  0
   -1.1660   14.8410   -2.4080 N   0  0  0  0  0  0  0  0  0  0  0  0
   -2.0420   14.5750   -0.2660 C   0  0  1  0  0  0  0  0  0  0  0  0
   -0.1720   13.8840   -1.8790 C   0  0  2  0  0  0  0  0  0  0  0  0
   -0.5570   13.6090   -0.1190 S   0  0  0  0  0  0  0  0  0  0  0  0
    1.3070   14.2210   -2.0350 C   0  0  0  0  0  0  0  0  0  0  0  0
    1.8930   12.9630   -2.6360 C   0  0  0  0  0  0  0  0  0  0  0  0
    1.0950   12.6310   -3.8530 C   0  0  1  0  0  0  0  0  0  0  0  0
    1.9500   12.2790   -4.7340 O   0  0  0  0  0  0  0  0  0  0  0  0
    0.2390   11.5200   -3.5360 O   0  0  0  0  0  0  0  0  0  0  0  0
    0.3370   13.9400   -4.2090 C   0  0  2  0  0  0  0  0  0  0  0  0
   -1.0520   14.1030   -4.8520 C   0  0  0  0  0  0  0  0  0  0  0  0
    1.0810   15.0960   -4.8380 C   0  0  0  0  0  0  0  0  0  0  0  0
   -1.2890   15.6140   -4.5300 C   0  0  1  0  0  0  0  0  0  0  0  0
    0.1460   16.2290   -4.4350 C   0  0  2  0  0  0  0  0  0  0  0  0
   -2.3290   16.3240   -5.4250 C   0  0  0  0  0  0  0  0  0  0  0  0
    0.4020   17.5350   -5.1510 C   0  0  0  0  0  0  0  0  0  0  0  0
   -1.9070   17.6660   -6.0400 C   0  0  0  0  0  0  0  0  0  0  0  0
   -0.8370   18.3890   -5.2560 C   0  0  0  0  0  0  0  0  0  0  0  0
  2  1  1  6
  2  3  1  0
  2  4  1  0
  5  3  1  6
  4  6  1  0
  5  7  1  0
  5  8  1  0
  8  6  1  1
  7  9  1  0
  8 10  1  0
  9 10  1  0
  9 11  1  1
 11 12  1  0
 12 13  1  0
 13 14  1  6
 13 15  1  0
 13 16  1  0
 16 17  1  6
 16 18  1  0
 19 17  1  6
 20 18  1  6
 19 20  1  0
 19 21  1  0
 20 22  1  0
 21 23  1  0
 22 24  1  0
 23 24  1  0
M  CHG  1  14  -1
M  END
