ucsf424-ucsf303
     RDKit          3D

 30 33  0  0  0  0  0  0  0  0999 V2000
    1.4340   12.5890   -2.3470 O   0  0  0  0  0  0  0  0  0  0  0  0
    0.8060   11.7340   -3.1260 C   0  0  1  0  0  0  0  0  0  0  0  0
   -0.5370   11.6510   -2.6450 O   0  0  0  0  0  0  0  0  0  0  0  0
    0.6870   12.2930   -4.5680 C   0  0  0  0  0  0  0  0  0  0  0  0
   -0.9000   12.7880   -1.8540 C   0  0  0  0  0  0  0  0  0  0  0  0
    0.8480   11.2000   -5.6230 C   0  0  2  0  0  0  0  0  0  0  0  0
   -1.1370   14.0220   -2.7320 C   0  0  0  0  0  0  0  0  0  0  0  0
    1.0170   11.7310   -6.9820 N   0  0  0  0  0  0  0  0  0  0  0  0
   -0.2540   10.1490   -5.7460 C   0  0  2  0  0  0  0  0  0  0  0  0
   -2.4550   14.0550   -3.2860 O   0  0  0  0  0  0  0  0  0  0  0  0
    0.7030   10.6160   -7.8770 O   0  0  0  0  0  0  0  0  0  0  0  0
    0.0240    9.5930   -7.1330 C   0  0  2  0  0  0  0  0  0  0  0  0
   -1.7040   10.6490   -5.6350 C   0  0  0  0  0  0  0  0  0  0  0  0
   -3.7890   14.3170   -2.4100 S   0  0  1  0  0  0  0  0  0  0  0  0
   -1.2310    9.1540   -7.8670 C   0  0  0  0  0  0  0  0  0  0  0  0
   -2.7220    9.5300   -5.8590 C   0  0  0  0  0  0  0  0  0  0  0  0
   -4.3110   15.7930   -2.7110 O   0  0  0  0  0  0  0  0  0  0  0  0
   -4.9790   13.2110   -2.6190 N   0  0  0  0  0  0  0  0  0  0  0  0
   -2.2680    8.5410   -6.9310 C   0  0  0  0  0  0  0  0  0  0  0  0
   -3.3940   14.3930   -0.6820 C   0  0  0  0  0  0  0  0  0  0  0  0
   -4.8600   11.9870   -1.8860 C   0  0  1  0  0  0  0  0  0  0  0  0
   -1.9160   14.4970   -0.2980 C   0  0  0  0  0  0  0  0  0  0  0  0
   -4.3290   15.4120   -0.0310 C   0  0  0  0  0  0  0  0  0  0  0  0
   -5.9560   11.0830   -2.1770 N   0  0  0  0  0  0  0  0  0  0  0  0
   -3.3180   11.2070   -2.3400 S   0  0  0  0  0  0  0  0  0  0  0  0
   -1.7150   14.7970    1.1810 C   0  0  0  0  0  0  0  0  0  0  0  0
   -4.0730   15.6310    1.4420 C   0  0  0  0  0  0  0  0  0  0  0  0
   -4.0800    9.5880   -2.3600 C   0  0  0  0  0  0  0  0  0  0  0  0
   -5.4850    9.6990   -1.9230 N   0  0  0  0  0  0  0  0  0  0  0  0
   -3.0280   14.6800    1.9330 C   0  0  0  0  0  0  0  0  0  0  0  0
  2  1  1  1
  2  3  1  0
  2  4  1  0
  3  5  1  0
  6  4  1  1
  5  7  1  0
  6  8  1  0
  6  9  1  0
  7 10  1  0
  8 11  1  0
  9 12  1  0
 11 12  1  0
  9 13  1  6
 14 10  1  0
 12 15  1  6
 13 16  1  0
 14 17  1  6
 14 18  1  0
 15 19  1  0
 16 19  1  0
 14 20  1  0
 21 18  1  6
 20 22  1  0
 20 23  1  0
 21 24  1  0
 21 25  1  0
 22 26  1  0
 23 27  1  0
 25 28  1  0
 24 29  1  0
 28 29  1  0
 26 30  1  0
 27 30  1  0
M  CHG  1   1  -1
M  END
