ucsf115-ucsf365
     RDKit          3D

 26 29  0  0  0  0  0  0  0  0999 V2000
   -2.5880   13.0050   -2.4950 C   0  0  0  0  0  0  0  0  0  0  0  0
   -1.9890   14.3530   -2.5110 N   0  0  0  0  0  0  0  0  0  0  0  0
   -2.1060   15.0020   -1.2290 C   0  0  2  0  0  0  0  0  0  0  0  0
   -1.5970   12.0210   -3.0980 C   0  0  2  0  0  0  0  0  0  0  0  0
   -1.1320   10.9770   -2.2000 O   0  0  0  0  0  0  0  0  0  0  0  0
   -0.3430   12.7390   -3.4170 C   0  0  0  0  0  0  0  0  0  0  0  0
    0.5560   11.5830   -3.6870 C   0  0  2  0  0  0  0  0  0  0  0  0
    0.3030   10.8750   -2.3910 C   0  0  0  0  0  0  0  0  0  0  0  0
   -0.7520   15.0660   -0.6830 N   0  0  0  0  0  0  0  0  0  0  0  0
   -3.0910   14.2230   -0.3270 C   0  0  1  0  0  0  0  0  0  0  0  0
   -0.6460   14.6260    0.6990 C   0  0  0  0  0  0  0  0  0  0  0  0
   -3.0190   14.7730    1.0670 C   0  0  1  0  0  0  0  0  0  0  0  0
   -4.5100   14.4340   -0.7110 N   0  0  0  0  0  0  0  0  0  0  0  0
    1.9220   12.1790   -3.9660 C   0  0  2  0  0  0  0  0  0  0  0  0
   -1.7210   15.1650    1.4820 N   0  0  0  0  0  0  0  0  0  0  0  0
   -3.8970   15.9260    1.0100 N   0  0  0  0  0  0  0  0  0  0  0  0
   -4.9980   15.4860    0.1570 C   0  0  0  0  0  0  0  0  0  0  0  0
    2.4510   12.6980   -2.7500 O   0  0  0  0  0  0  0  0  0  0  0  0
    1.5940   13.3020   -4.9700 C   0  0  0  0  0  0  0  0  0  0  0  0
    0.0790   13.7050   -4.9830 C   0  0  2  0  0  0  0  0  0  0  0  0
   -0.8690   12.7350   -5.7640 C   0  0  2  0  0  0  0  0  0  0  0  0
   -0.1670   15.2210   -5.1290 C   0  0  0  0  0  0  0  0  0  0  0  0
   -0.2210   12.1660   -6.9140 O   0  0  0  0  0  0  0  0  0  0  0  0
   -2.2310   13.3100   -6.1580 C   0  0  0  0  0  0  0  0  0  0  0  0
   -1.6440   15.6420   -5.0960 C   0  0  0  0  0  0  0  0  0  0  0  0
   -2.6800   14.5350   -5.3520 C   0  0  0  0  0  0  0  0  0  0  0  0
  1  2  1  0
  3  2  1  6
  4  1  1  1
  4  5  1  0
  4  6  1  0
  7  6  1  1
  5  8  1  0
  7  8  1  0
  3  9  1  0
  3 10  1  0
  9 11  1  0
 10 12  1  0
 10 13  1  6
  7 14  1  0
 11 15  1  0
 12 15  1  6
 12 16  1  0
 13 17  1  0
 16 17  1  0
 14 18  1  1
 14 19  1  0
 20 19  1  6
 20 21  1  0
 20 22  1  0
 21 23  1  6
 21 24  1  0
 22 25  1  0
 24 26  1  0
 25 26  1  0
M  END
