ucsf278-ucsf264
     RDKit          3D

 28 31  0  0  0  0  0  0  0  0999 V2000
   -1.8130   14.5150   -1.4790 Cl  0  0  0  0  0  0  0  0  0  0  0  0
   -0.2250   13.9720   -2.1300 C   0  0  1  0  0  0  0  0  0  0  0  0
   -0.2520   12.9730   -3.3290 C   0  0  1  0  0  0  0  0  0  0  0  0
    0.7560   15.1370   -2.2940 C   0  0  0  0  0  0  0  0  0  0  0  0
   -1.6840   12.6620   -3.8590 C   0  0  0  0  0  0  0  0  0  0  0  0
    0.2720   13.7720   -4.5590 C   0  0  2  0  0  0  0  0  0  0  0  0
    2.0180   14.7860   -3.1000 C   0  0  0  0  0  0  0  0  0  0  0  0
    0.5000   11.6220   -3.0350 C   0  0  2  0  0  0  0  0  0  0  0  0
   -1.6110   12.8560   -5.3940 C   0  0  1  0  0  0  0  0  0  0  0  0
   -0.1830   12.9550   -5.6960 N   0  0  0  0  0  0  0  0  0  0  0  0
    1.7220   14.1800   -4.4510 C   0  0  0  0  0  0  0  0  0  0  0  0
    0.4820   11.2860   -1.7470 O   0  0  0  0  0  0  0  0  0  0  0  0
    1.8540   11.8700   -3.2730 O   0  0  0  0  0  0  0  0  0  0  0  0
   -2.3730   11.8480   -6.2700 C   0  0  0  0  0  0  0  0  0  0  0  0
    0.4040   11.6910   -5.9860 N   0  0  0  0  0  0  0  0  0  0  0  0
   -3.2920   11.0320   -5.5490 O   0  0  0  0  0  0  0  0  0  0  0  0
    1.2340   11.5940   -7.1400 N   0  0  0  0  0  0  0  0  0  0  0  0
   -0.3930   10.4500   -5.7780 C   0  0  2  0  0  0  0  0  0  0  0  0
    1.0240   10.2750   -7.7700 C   0  0  1  0  0  0  0  0  0  0  0  0
   -0.2110    9.6750   -7.0930 C   0  0  2  0  0  0  0  0  0  0  0  0
   -1.8500   10.4600   -5.3400 C   0  0  0  0  0  0  0  0  0  0  0  0
    1.0320   10.1770   -9.3040 C   0  0  0  0  0  0  0  0  0  0  0  0
   -1.5010    9.5220   -7.8890 C   0  0  0  0  0  0  0  0  0  0  0  0
   -2.4700    9.0770   -5.5820 C   0  0  0  0  0  0  0  0  0  0  0  0
    1.6750    9.0460   -9.6790 F   0  0  0  0  0  0  0  0  0  0  0  0
   -0.1910   10.1430   -9.8590 F   0  0  0  0  0  0  0  0  0  0  0  0
    1.6690   11.1930   -9.9090 F   0  0  0  0  0  0  0  0  0  0  0  0
   -2.5010    8.7100   -7.0620 C   0  0  0  0  0  0  0  0  0  0  0  0
  2  1  1  6
  2  3  1  0
  2  4  1  0
  3  5  1  6
  3  6  1  0
  4  7  1  0
  3  8  1  0
  5  9  1  0
  6 10  1  0
  9 10  1  0
  6 11  1  1
  7 11  1  0
  8 12  1  1
  8 13  1  0
  9 14  1  6
 10 15  1  0
 14 16  1  0
 15 17  1  0
 15 18  1  0
 17 19  1  0
 18 20  1  0
 19 20  1  0
 18 21  1  6
 19 22  1  6
 20 23  1  6
 21 24  1  0
 22 25  1  0
 22 26  1  0
 22 27  1  0
 23 28  1  0
 24 28  1  0
M  CHG  1  12  -1
M  END
