ucsf123-ucsf338
     RDKit          3D

 26 27  0  0  0  0  0  0  0  0999 V2000
   -1.9670   18.8750   -5.1410 N   0  0  0  0  0  0  0  0  0  0  0  0
   -1.5750   17.3520   -5.5700 S   0  0  0  0  0  0  0  0  0  0  0  0
   -0.2560   17.4830   -6.4490 O   0  0  0  0  0  0  0  0  0  0  0  0
   -2.6810   16.7740   -6.5650 O   0  0  0  0  0  0  0  0  0  0  0  0
   -1.1240   16.1500   -4.3100 C   0  0  2  0  0  0  0  0  0  0  0  0
    0.3950   16.0020   -4.1870 C   0  0  0  0  0  0  0  0  0  0  0  0
   -1.8030   14.7530   -4.1870 C   0  0  1  0  0  0  0  0  0  0  0  0
   -3.2390   14.5850   -4.7210 C   0  0  0  0  0  0  0  0  0  0  0  0
    0.7710   14.9290   -3.1500 C   0  0  0  0  0  0  0  0  0  0  0  0
   -0.8120   13.6440   -4.5980 C   0  0  0  0  0  0  0  0  0  0  0  0
   -4.2600   15.0840   -3.7020 C   0  0  0  0  0  0  0  0  0  0  0  0
    0.3470   13.4960   -3.5790 C   0  0  2  0  0  0  0  0  0  0  0  0
   -0.0680   12.5840   -2.3590 C   0  0  2  0  0  0  0  0  0  0  0  0
   -4.2420   14.3630   -2.4910 O   0  0  0  0  0  0  0  0  0  0  0  0
    0.7000   12.8570   -1.2080 O   0  0  0  0  0  0  0  0  0  0  0  0
    0.2770   11.3250   -2.5400 O   0  0  0  0  0  0  0  0  0  0  0  0
   -4.1350   15.1730   -1.3220 C   0  0  1  0  0  0  0  0  0  0  0  0
   -5.1440   14.6850   -0.2560 C   0  0  2  0  0  0  0  0  0  0  0  0
   -2.6510   15.1530   -0.8630 C   0  0  0  0  0  0  0  0  0  0  0  0
   -6.6380   14.9950   -0.5520 C   0  0  2  0  0  0  0  0  0  0  0  0
   -2.3090   15.3330    0.6240 C   0  0  0  0  0  0  0  0  0  0  0  0
   -4.7290   15.2930    1.0940 C   0  0  0  0  0  0  0  0  0  0  0  0
   -7.5790   14.5500    0.4680 N   0  0  0  0  0  0  0  0  0  0  0  0
   -7.0380   14.3750   -1.7590 O   0  0  0  0  0  0  0  0  0  0  0  0
   -3.3740   14.8110    1.5470 C   0  0  0  0  0  0  0  0  0  0  0  0
   -8.8100   14.1490   -0.2050 O   0  0  0  0  0  0  0  0  0  0  0  0
  1  2  1  0
  2  3  1  0
  2  4  1  0
  5  2  1  6
  5  6  1  0
  5  7  1  0
  7  8  1  6
  6  9  1  0
  7 10  1  0
  8 11  1  0
 12  9  1  1
 10 12  1  0
 12 13  1  0
 11 14  1  0
 13 15  1  1
 13 16  1  0
 17 14  1  6
 17 18  1  0
 17 19  1  0
 18 20  1  0
 19 21  1  0
 18 22  1  1
 20 23  1  0
 20 24  1  6
 21 25  1  0
 22 25  1  0
 23 26  1  0
M  CHG  1  16  -1
M  END
