ucsf520-ucsf422
     RDKit          3D

 24 27  0  0  0  0  0  0  0  0999 V2000
   -4.6130   15.4510    1.2930 N   0  0  0  0  0  0  0  0  0  0  0  0
   -3.7400   14.8300    0.3140 C   0  0  2  0  0  0  0  0  0  0  0  0
   -2.2730   15.1980    0.5260 C   0  0  2  0  0  0  0  0  0  0  0  0
   -4.1720   15.2740   -0.9990 N   0  0  0  0  0  0  0  0  0  0  0  0
   -3.3020   14.8060   -2.0900 C   0  0  0  0  0  0  0  0  0  0  0  0
   -1.5240   14.5200   -0.5840 C   0  0  1  0  0  0  0  0  0  0  0  0
   -1.5760   14.7130    1.7120 N   0  0  0  0  0  0  0  0  0  0  0  0
   -1.8900   15.1410   -1.8170 N   0  0  0  0  0  0  0  0  0  0  0  0
   -0.1700   14.7700   -0.1480 N   0  0  0  0  0  0  0  0  0  0  0  0
   -0.2310   14.3970    1.2440 C   0  0  0  0  0  0  0  0  0  0  0  0
   -1.0020   14.5650   -2.8280 C   0  0  0  0  0  0  0  0  0  0  0  0
   -1.3020   14.9130   -4.2740 C   0  0  1  0  0  0  0  0  0  0  0  0
   -1.9430   16.1950   -4.5780 N   0  0  0  0  0  0  0  0  0  0  0  0
   -0.1130   14.8130   -5.2020 C   0  0  1  0  0  0  0  0  0  0  0  0
   -3.3130   15.9160   -5.8130 Br  0  0  0  0  0  0  0  0  0  0  0  0
    0.3970   16.2510   -5.2310 C   0  0  1  0  0  0  0  0  0  0  0  0
   -0.8640   17.1200   -5.0060 C   0  0  0  0  0  0  0  0  0  0  0  0
    1.1290   14.0190   -4.8880 C   0  0  2  0  0  0  0  0  0  0  0  0
    0.9350   12.5430   -4.5110 C   0  0  0  0  0  0  0  0  0  0  0  0
    1.8730   14.9310   -3.9270 C   0  0  0  0  0  0  0  0  0  0  0  0
    1.4210   16.3320   -4.1940 N   0  0  0  0  0  0  0  0  0  0  0  0
    1.3130   12.1210   -3.0670 C   0  0  2  0  0  0  0  0  0  0  0  0
    0.5450   11.1120   -2.6870 O   0  0  0  0  0  0  0  0  0  0  0  0
    0.9380   13.0880   -2.1360 O   0  0  0  0  0  0  0  0  0  0  0  0
  2  1  1  1
  2  3  1  0
  2  4  1  0
  4  5  1  0
  3  6  1  0
  3  7  1  1
  5  8  1  0
  6  8  1  0
  6  9  1  1
  7 10  1  0
  9 10  1  0
  8 11  1  0
 12 11  1  1
 12 13  1  0
 14 12  1  1
 13 15  1  0
 14 16  1  0
 13 17  1  0
 16 17  1  1
 14 18  1  0
 18 19  1  1
 18 20  1  0
 16 21  1  0
 20 21  1  0
 19 22  1  0
 22 23  1  1
 22 24  1  0
M  CHG  1  23  -1
M  END
