ucsf422-ucsf170
     RDKit          3D

 24 26  0  0  0  0  0  0  0  0999 V2000
    0.2720   10.5500   -2.6650 O   0  0  0  0  0  0  0  0  0  0  0  0
    0.8600   11.7470   -2.7340 C   0  0  2  0  0  0  0  0  0  0  0  0
    0.4510   12.5310   -1.6210 O   0  0  0  0  0  0  0  0  0  0  0  0
    0.5160   12.5090   -4.0690 C   0  0  0  0  0  0  0  0  0  0  0  0
    0.4590   13.9300   -1.8720 C   0  0  0  0  0  0  0  0  0  0  0  0
    0.5730   14.0680   -4.0910 C   0  0  1  0  0  0  0  0  0  0  0  0
    1.9140   14.7570   -3.9650 C   0  0  0  0  0  0  0  0  0  0  0  0
   -0.0630   14.7990   -5.2840 C   0  0  2  0  0  0  0  0  0  0  0  0
   -0.9040   14.5790   -1.6170 C   0  0  2  0  0  0  0  0  0  0  0  0
    1.5250   16.1840   -4.1170 N   0  0  0  0  0  0  0  0  0  0  0  0
    0.5750   16.2150   -5.2330 C   0  0  2  0  0  0  0  0  0  0  0  0
   -1.6020   14.6730   -5.3110 C   0  0  0  0  0  0  0  0  0  0  0  0
   -1.6860   13.8630   -0.5380 C   0  0  0  0  0  0  0  0  0  0  0  0
   -1.8070   14.7680   -2.8510 C   0  0  1  0  0  0  0  0  0  0  0  0
   -1.7130   13.6220   -3.6990 O   0  0  0  0  0  0  0  0  0  0  0  0
   -0.3470   17.4370   -5.1400 C   0  0  0  0  0  0  0  0  0  0  0  0
   -2.4420   15.9540   -5.2710 C   0  0  2  0  0  0  0  0  0  0  0  0
   -2.8240   14.7310   -0.0460 C   0  0  2  0  0  0  0  0  0  0  0  0
   -3.3160   14.9870   -2.5910 C   0  0  0  0  0  0  0  0  0  0  0  0
   -4.0100   15.6030   -6.4050 Br  0  0  0  0  0  0  0  0  0  0  0  0
   -3.6550   14.0270    1.4170 S   0  0  0  0  0  0  0  0  0  0  0  0
   -1.7630   17.2620   -5.6740 C   0  0  0  0  0  0  0  0  0  0  0  0
   -3.8040   15.1740   -1.1380 C   0  0  0  0  0  0  0  0  0  0  0  0
   -5.0480   15.1650    1.5740 C   0  0  0  0  0  0  0  0  0  0  0  0
  2  1  1  6
  2  3  1  0
  2  4  1  0
  3  5  1  0
  6  4  1  6
  6  7  1  0
  6  8  1  0
  9  5  1  6
  7 10  1  0
  8 11  1  0
 10 11  1  0
  8 12  1  1
  9 13  1  0
  9 14  1  0
 14 15  1  6
 11 16  1  1
 12 17  1  0
 13 18  1  0
 14 19  1  0
 17 20  1  6
 18 21  1  1
 16 22  1  0
 17 22  1  0
 18 23  1  0
 19 23  1  0
 21 24  1  0
M  CHG  1   1  -1
M  END
