ucsf385-ucsf147
     RDKit          3D

 23 25  0  0  0  0  0  0  0  0999 V2000
   -3.0950   15.9610   -1.1060 N   0  0  0  0  0  0  0  0  0  0  0  0
   -2.0690   15.6050   -0.1220 C   0  0  1  0  0  0  0  0  0  0  0  0
   -2.6940   14.9470    1.0980 C   0  0  0  0  0  0  0  0  0  0  0  0
   -0.9860   14.7100   -0.7490 C   0  0  1  0  0  0  0  0  0  0  0  0
   -0.4620   15.2600   -2.1080 C   0  0  1  0  0  0  0  0  0  0  0  0
    0.1320   14.5660    0.2800 C   0  0  0  0  0  0  0  0  0  0  0  0
   -1.8200   14.0260    1.8200 N   0  0  0  0  0  0  0  0  0  0  0  0
    0.1560   14.2520   -2.9870 N   0  0  0  0  0  0  0  0  0  0  0  0
   -1.4230   15.8860   -2.7890 O   0  0  0  0  0  0  0  0  0  0  0  0
   -0.3590   14.0470    1.6120 C   0  0  0  0  0  0  0  0  0  0  0  0
    0.7940   13.2950   -2.0510 O   0  0  0  0  0  0  0  0  0  0  0  0
   -0.6600   13.4040   -3.8460 C   0  0  2  0  0  0  0  0  0  0  0  0
   -0.1330   12.6860   -5.1020 C   0  0  2  0  0  0  0  0  0  0  0  0
   -2.0430   13.9670   -4.2620 C   0  0  1  0  0  0  0  0  0  0  0  0
    1.2620   12.9750   -5.6480 C   0  0  0  0  0  0  0  0  0  0  0  0
   -1.0420   13.1210   -6.1520 O   0  0  0  0  0  0  0  0  0  0  0  0
   -2.3580   13.2980   -5.5400 N   0  0  0  0  0  0  0  0  0  0  0  0
   -3.2330   13.8400   -3.2590 C   0  0  0  0  0  0  0  0  0  0  0  0
   -2.8150   13.4390   -1.8380 C   0  0  0  0  0  0  0  0  0  0  0  0
   -4.1400   15.0920   -3.2330 C   0  0  0  0  0  0  0  0  0  0  0  0
   -3.9990   13.3670   -0.8620 C   0  0  0  0  0  0  0  0  0  0  0  0
   -5.3170   15.0350   -2.2450 C   0  0  0  0  0  0  0  0  0  0  0  0
   -4.9240   14.5920   -0.8470 C   0  0  0  0  0  0  0  0  0  0  0  0
  2  1  1  6
  2  3  1  0
  2  4  1  0
  4  5  1  0
  4  6  1  1
  3  7  1  0
  5  8  1  0
  5  9  1  6
  6 10  1  0
  7 10  1  0
  8 11  1  0
 12  8  1  6
 12 13  1  0
 12 14  1  0
 13 15  1  6
 13 16  1  0
 14 17  1  0
 16 17  1  0
 14 18  1  1
 18 19  1  0
 18 20  1  0
 19 21  1  0
 20 22  1  0
 21 23  1  0
 22 23  1  0
M  CHG  1   9  -1
M  END
