ucsf396-ucsf110
     RDKit          3D

 18 20  0  0  0  0  0  0  0  0999 V2000
   -4.2100   13.1530   -0.6200 N   0  0  0  0  0  0  0  0  0  0  0  0
   -3.9650   14.0050    0.5540 C   0  0  2  0  0  0  0  0  0  0  0  0
   -5.0770   15.0650    0.6510 C   0  0  1  0  0  0  0  0  0  0  0  0
   -2.5050   14.4360    0.3290 C   0  0  1  0  0  0  0  0  0  0  0  0
   -5.8260   15.2920   -0.6750 C   0  0  0  0  0  0  0  0  0  0  0  0
   -5.9980   14.6420    1.8200 C   0  0  0  0  0  0  0  0  0  0  0  0
   -2.2860   15.4240   -0.7500 C   0  0  2  0  0  0  0  0  0  0  0  0
   -1.6550   14.7730    1.4570 N   0  0  0  0  0  0  0  0  0  0  0  0
   -7.0260   14.4800   -0.8210 N   0  0  0  0  0  0  0  0  0  0  0  0
   -7.5240   14.6080    1.6130 C   0  0  0  0  0  0  0  0  0  0  0  0
   -3.1300   15.3770   -2.0080 C   0  0  0  0  0  0  0  0  0  0  0  0
   -0.9270   15.0390   -1.2190 C   0  0  1  0  0  0  0  0  0  0  0  0
   -0.2640   14.6250    1.0540 C   0  0  0  0  0  0  0  0  0  0  0  0
   -8.0320   14.7540    0.1850 C   0  0  0  0  0  0  0  0  0  0  0  0
   -0.7870   15.7750   -2.4560 N   0  0  0  0  0  0  0  0  0  0  0  0
   -2.1110   15.6830   -3.1090 C   0  0  0  0  0  0  0  0  0  0  0  0
    0.0480   15.3300   -0.1930 N   0  0  0  0  0  0  0  0  0  0  0  0
    0.2690   15.2550   -3.3130 C   0  0  0  0  0  0  0  0  0  0  0  0
  2  1  1  6
  2  3  1  0
  2  4  1  0
  3  5  1  6
  3  6  1  0
  4  7  1  0
  4  8  1  1
  5  9  1  0
  6 10  1  0
  7 11  1  6
  7 12  1  0
  8 13  1  0
  9 14  1  0
 10 14  1  0
 12 15  1  0
 11 16  1  0
 15 16  1  0
 12 17  1  1
 13 17  1  0
 15 18  1  0
M  END
