ucsf151-ucsf339
     RDKit          3D

 22 24  0  0  0  0  0  0  0  0999 V2000
    0.7910   13.1750   -2.7310 O   0  0  0  0  0  0  0  0  0  0  0  0
    0.0750   14.2670   -2.8810 C   0  0  1  0  0  0  0  0  0  0  0  0
    0.8930   15.4220   -2.7300 O   0  0  0  0  0  0  0  0  0  0  0  0
   -0.7600   14.3370   -4.2020 C   0  0  1  0  0  0  0  0  0  0  0  0
   -1.1070   14.3130   -1.9000 C   0  0  1  0  0  0  0  0  0  0  0  0
   -0.9950   15.6770   -4.8930 C   0  0  0  0  0  0  0  0  0  0  0  0
   -0.9460   13.1620   -5.1610 C   0  0  0  0  0  0  0  0  0  0  0  0
   -1.6700   15.5880   -1.2830 C   0  0  0  0  0  0  0  0  0  0  0  0
   -2.2560   13.7580   -2.7570 C   0  0  0  0  0  0  0  0  0  0  0  0
   -2.4340   15.7100   -5.4250 C   0  0  1  0  0  0  0  0  0  0  0  0
   -2.3890   13.0330   -5.5140 N   0  0  0  0  0  0  0  0  0  0  0  0
   -3.2070   15.4590   -1.0930 C   0  0  1  0  0  0  0  0  0  0  0  0
   -3.0000   14.7860   -3.4660 N   0  0  0  0  0  0  0  0  0  0  0  0
   -2.5530   16.8020   -6.3850 O   0  0  0  0  0  0  0  0  0  0  0  0
   -2.9630   14.3380   -6.0120 C   0  0  0  0  0  0  0  0  0  0  0  0
   -3.8800   15.3100   -2.4670 C   0  0  0  0  0  0  0  0  0  0  0  0
   -3.5580   14.2830   -0.1460 C   0  0  0  0  0  0  0  0  0  0  0  0
   -3.3410   14.6590    1.3320 C   0  0  0  0  0  0  0  0  0  0  0  0
   -4.9490   13.6390   -0.4260 C   0  0  0  0  0  0  0  0  0  0  0  0
   -4.5130   15.4410    1.8590 C   0  0  0  0  0  0  0  0  0  0  0  0
   -6.1100   14.3410    0.2650 C   0  0  0  0  0  0  0  0  0  0  0  0
   -5.7820   14.6130    1.7240 C   0  0  0  0  0  0  0  0  0  0  0  0
  2  1  1  6
  2  3  1  0
  2  4  1  0
  2  5  1  0
  4  6  1  6
  4  7  1  0
  5  8  1  6
  5  9  1  0
  6 10  1  0
  7 11  1  0
  8 12  1  0
  9 13  1  0
 10 14  1  6
 10 15  1  0
 11 15  1  0
 12 16  1  0
 13 16  1  0
 12 17  1  1
 17 18  1  0
 17 19  1  0
 18 20  1  0
 19 21  1  0
 20 22  1  0
 21 22  1  0
M  CHG  1   1  -1
M  END
