ucsf190-ucsf173
     RDKit          3D

 19 21  0  0  0  0  0  0  0  0999 V2000
    0.5780   10.5080   -2.4380 O   0  0  0  0  0  0  0  0  0  0  0  0
    1.0590   11.7530   -2.5100 C   0  0  2  0  0  0  0  0  0  0  0  0
    0.1800   12.4160   -1.6290 O   0  0  0  0  0  0  0  0  0  0  0  0
    1.0030   12.3130   -3.9590 C   0  0  0  0  0  0  0  0  0  0  0  0
    0.7030   13.8220   -4.0950 C   0  0  2  0  0  0  0  0  0  0  0  0
   -0.2520   14.2500   -5.2470 C   0  0  2  0  0  0  0  0  0  0  0  0
    1.9340   14.6300   -4.0430 N   0  0  0  0  0  0  0  0  0  0  0  0
   -0.8180   15.6630   -4.8150 C   0  0  2  0  0  0  0  0  0  0  0  0
    1.7160   15.9060   -4.7040 N   0  0  0  0  0  0  0  0  0  0  0  0
   -1.3000   13.1330   -5.4500 C   0  0  0  0  0  0  0  0  0  0  0  0
    0.4310   16.5530   -4.4240 C   0  0  2  0  0  0  0  0  0  0  0  0
   -1.9400   15.3460   -3.8070 C   0  0  0  0  0  0  0  0  0  0  0  0
   -2.7230   13.6180   -5.5630 C   0  0  0  0  0  0  0  0  0  0  0  0
   -1.5560   16.5890   -5.8000 C   0  0  0  0  0  0  0  0  0  0  0  0
    0.4130   16.9420   -3.1050 O   0  0  0  0  0  0  0  0  0  0  0  0
   -3.1070   14.5770   -4.4460 C   0  0  0  0  0  0  0  0  0  0  0  0
   -1.9790   17.8330   -5.1890 C   0  0  0  0  0  0  0  0  0  0  0  0
    0.4960   17.8690   -5.2100 C   0  0  0  0  0  0  0  0  0  0  0  0
   -0.7640   18.6620   -4.9740 C   0  0  0  0  0  0  0  0  0  0  0  0
  2  1  1  6
  2  3  1  0
  2  4  1  0
  5  4  1  6
  5  6  1  0
  5  7  1  0
  6  8  1  0
  7  9  1  0
  6 10  1  1
  8 11  1  0
  9 11  1  0
  8 12  1  1
 10 13  1  0
  8 14  1  0
 11 15  1  1
 12 16  1  0
 13 16  1  0
 14 17  1  0
 11 18  1  0
 17 19  1  0
 18 19  1  0
M  CHG  1   1  -1
M  END
