ucsf348-ucsf422
     RDKit          3D

 28 31  0  0  0  0  0  0  0  0999 V2000
   -6.8650   14.3910    2.3010 N   0  0  0  0  0  0  0  0  0  0  0  0
   -6.0210   14.7410    1.2140 C   0  0  1  0  0  0  0  0  0  0  0  0
   -5.0020   13.7840    1.1780 N   0  0  0  0  0  0  0  0  0  0  0  0
   -6.7620   14.6230    0.0120 N   0  0  0  0  0  0  0  0  0  0  0  0
   -5.9210   15.0740   -1.0940 C   0  0  2  0  0  0  0  0  0  0  0  0
   -3.9480   14.2290    0.2640 C   0  0  1  0  0  0  0  0  0  0  0  0
   -5.9700   14.1530   -2.1860 O   0  0  0  0  0  0  0  0  0  0  0  0
   -4.4400   15.2960   -0.7000 C   0  0  1  0  0  0  0  0  0  0  0  0
   -2.7020   14.7480    0.9700 C   0  0  0  0  0  0  0  0  0  0  0  0
   -5.6160   14.8970   -3.3470 C   0  0  0  0  0  0  0  0  0  0  0  0
   -1.6700   15.2990   -0.0230 C   0  0  0  0  0  0  0  0  0  0  0  0
   -3.4870   15.2970   -1.8880 C   0  0  0  0  0  0  0  0  0  0  0  0
   -4.6090   14.3070   -4.3640 C   0  0  0  0  0  0  0  0  0  0  0  0
   -2.0180   15.1330   -1.5100 C   0  0  0  0  0  0  0  0  0  0  0  0
   -3.9840   15.3680   -5.1590 O   0  0  0  0  0  0  0  0  0  0  0  0
   -2.6390   15.7060   -4.7270 C   0  0  2  0  0  0  0  0  0  0  0  0
   -2.0970   17.0070   -5.3740 C   0  0  0  0  0  0  0  0  0  0  0  0
   -1.6970   14.5290   -5.0060 C   0  0  0  0  0  0  0  0  0  0  0  0
   -0.3140   14.8710   -4.4920 C   0  0  1  0  0  0  0  0  0  0  0  0
   -0.6480   17.3480   -4.9700 C   0  0  0  0  0  0  0  0  0  0  0  0
    0.8360   13.9690   -4.8190 C   0  0  2  0  0  0  0  0  0  0  0  0
    0.2790   16.1440   -5.0660 C   0  0  1  0  0  0  0  0  0  0  0  0
    0.7420   12.4850   -4.4360 C   0  0  0  0  0  0  0  0  0  0  0  0
    1.9070   14.7920   -4.1050 C   0  0  0  0  0  0  0  0  0  0  0  0
    1.5480   16.2230   -4.3430 N   0  0  0  0  0  0  0  0  0  0  0  0
    1.1420   12.1140   -2.9900 C   0  0  2  0  0  0  0  0  0  0  0  0
    0.4530   11.0650   -2.5870 O   0  0  0  0  0  0  0  0  0  0  0  0
    0.6760   13.0920   -2.0910 O   0  0  0  0  0  0  0  0  0  0  0  0
  2  1  1  1
  2  3  1  0
  2  4  1  0
  4  5  1  0
  3  6  1  0
  5  7  1  6
  5  8  1  0
  6  8  1  0
  6  9  1  1
  7 10  1  0
  9 11  1  0
  8 12  1  6
 10 13  1  0
 11 14  1  0
 12 14  1  0
 13 15  1  0
 16 15  1  6
 16 17  1  0
 16 18  1  0
 19 18  1  6
 17 20  1  0
 19 21  1  0
 19 22  1  0
 22 20  1  1
 21 23  1  1
 21 24  1  0
 22 25  1  0
 24 25  1  0
 23 26  1  0
 26 27  1  1
 26 28  1  0
M  CHG  1  27  -1
M  END
