ucsf138-ucsf006
     RDKit          3D

 27 29  0  0  0  0  0  0  0  0999 V2000
    1.6900   12.4810   -2.7480 O   0  0  0  0  0  0  0  0  0  0  0  0
    0.6690   12.7250   -3.5470 C   0  0  2  0  0  0  0  0  0  0  0  0
   -0.3750   12.3390   -2.6880 O   0  0  0  0  0  0  0  0  0  0  0  0
    0.7100   11.7690   -4.7300 C   0  0  0  0  0  0  0  0  0  0  0  0
    0.6950   14.2140   -4.0030 C   0  0  0  0  0  0  0  0  0  0  0  0
   -0.1110   11.8500   -5.9420 N   0  0  0  0  0  0  0  0  0  0  0  0
    0.0430   15.1900   -3.0290 C   0  0  0  0  0  0  0  0  0  0  0  0
    0.5350   11.0800   -6.9560 C   0  0  2  0  0  0  0  0  0  0  0  0
   -1.2960   14.6770   -2.6230 N   0  0  0  0  0  0  0  0  0  0  0  0
    1.8220   11.5600   -7.1080 O   0  0  0  0  0  0  0  0  0  0  0  0
   -0.1420   10.9260   -8.1910 N   0  0  0  0  0  0  0  0  0  0  0  0
   -2.3530   15.3560   -3.3670 C   0  0  0  0  0  0  0  0  0  0  0  0
   -1.4760   14.6280   -1.1750 C   0  0  2  0  0  0  0  0  0  0  0  0
    0.7320   10.2910   -9.1870 C   0  0  0  0  0  0  0  0  0  0  0  0
   -2.5410   15.5210   -0.5730 C   0  0  2  0  0  0  0  0  0  0  0  0
   -0.2800   15.1570   -0.5640 N   0  0  0  0  0  0  0  0  0  0  0  0
   -0.0430   10.1680  -10.4970 C   0  0  0  0  0  0  0  0  0  0  0  0
    1.2580    8.9100   -8.7270 C   0  0  0  0  0  0  0  0  0  0  0  0
   -2.5410   15.3710    0.9390 C   0  0  2  0  0  0  0  0  0  0  0  0
   -0.1590   14.7290    0.8050 C   0  0  0  0  0  0  0  0  0  0  0  0
   -3.9910   15.2470   -0.9750 C   0  0  0  0  0  0  0  0  0  0  0  0
    0.7610    9.4080  -11.5560 C   0  0  0  0  0  0  0  0  0  0  0  0
    2.0350    8.1310   -9.8050 C   0  0  0  0  0  0  0  0  0  0  0  0
   -1.4120   14.7190    1.5530 N   0  0  0  0  0  0  0  0  0  0  0  0
   -3.6610   14.4940    1.1650 N   0  0  0  0  0  0  0  0  0  0  0  0
   -4.6910   15.1160    0.3650 C   0  0  0  0  0  0  0  0  0  0  0  0
    1.2430    8.0350  -11.0980 C   0  0  0  0  0  0  0  0  0  0  0  0
  2  1  1  1
  2  3  1  0
  2  4  1  0
  2  5  1  0
  4  6  1  0
  5  7  1  0
  6  8  1  0
  7  9  1  0
  8 10  1  6
  8 11  1  0
  9 12  1  0
 13  9  1  6
 11 14  1  0
 13 15  1  0
 13 16  1  0
 14 17  1  0
 14 18  1  0
 15 19  1  0
 16 20  1  0
 15 21  1  6
 17 22  1  0
 18 23  1  0
 19 24  1  6
 20 24  1  0
 19 25  1  0
 21 26  1  0
 25 26  1  0
 22 27  1  0
 23 27  1  0
M  CHG  1   1  -1
M  END
