ucsf248-ucsf147
     RDKit          3D

 21 23  0  0  0  0  0  0  0  0999 V2000
   -8.0920   12.5900    2.1630 N   0  0  0  0  0  0  0  0  0  0  0  0
   -7.8790   14.1820    1.7630 S   0  0  0  0  0  0  0  0  0  0  0  0
   -7.3920   14.9650    3.0780 O   0  0  0  0  0  0  0  0  0  0  0  0
   -9.2910   14.8440    1.3790 O   0  0  0  0  0  0  0  0  0  0  0  0
   -6.6770   14.6510    0.4280 C   0  0  1  0  0  0  0  0  0  0  0  0
   -5.3780   15.0220    0.9330 N   0  0  0  0  0  0  0  0  0  0  0  0
   -6.2850   13.7130   -0.6410 N   0  0  0  0  0  0  0  0  0  0  0  0
   -4.7580   15.4730   -0.3050 C   0  0  2  0  0  0  0  0  0  0  0  0
   -5.1560   14.4430   -1.3530 C   0  0  1  0  0  0  0  0  0  0  0  0
   -3.2550   15.5680   -0.3060 C   0  0  0  0  0  0  0  0  0  0  0  0
   -3.9040   13.5960   -1.8770 C   0  0  0  0  0  0  0  0  0  0  0  0
   -2.7940   15.7470   -1.7660 C   0  0  0  0  0  0  0  0  0  0  0  0
   -2.7330   14.4380   -2.5740 C   0  0  2  0  0  0  0  0  0  0  0  0
   -3.0860   14.6290   -4.0360 N   0  0  0  0  0  0  0  0  0  0  0  0
   -1.1480   14.1080   -2.7460 C   0  0  1  0  0  0  0  0  0  0  0  0
   -0.2700   13.0320   -2.0450 C   0  0  2  0  0  0  0  0  0  0  0  0
   -0.8330   14.1620   -4.2590 C   0  0  2  0  0  0  0  0  0  0  0  0
   -2.0990   13.8870   -4.8590 O   0  0  0  0  0  0  0  0  0  0  0  0
    0.2530   13.2550   -4.8730 C   0  0  0  0  0  0  0  0  0  0  0  0
   -0.4140   12.9440   -0.6530 O   0  0  0  0  0  0  0  0  0  0  0  0
    0.9580   13.5010   -2.0860 O   0  0  0  0  0  0  0  0  0  0  0  0
  1  2  1  0
  2  3  1  0
  2  4  1  0
  5  2  1  1
  5  6  1  0
  5  7  1  0
  6  8  1  0
  7  9  1  0
  8  9  1  0
  8 10  1  1
  9 11  1  1
 10 12  1  0
 13 11  1  1
 12 13  1  0
 13 14  1  0
 13 15  1  0
 15 16  1  6
 15 17  1  0
 14 18  1  0
 17 18  1  0
 17 19  1  1
 16 20  1  1
 16 21  1  0
M  CHG  1  21  -1
M  END
