ucsf364
     RDKit          3D

 11 11  0  0  0  0  0  0  0  0999 V2000
    2.3580   13.1820   -4.6950 C   0  0  0  0  0  0  0  0  0  0  0  0
    1.0190   12.4960   -4.9470 C   0  0  0  0  0  0  0  0  0  0  0  0
    0.8360   11.8340   -6.1410 C   0  0  0  0  0  0  0  0  0  0  0  0
    1.8610   11.8370   -7.0850 O   0  0  0  0  0  0  0  0  0  0  0  0
   -0.3500   11.2200   -6.4460 C   0  0  0  0  0  0  0  0  0  0  0  0
   -1.3400   11.2260   -5.5020 C   0  0  0  0  0  0  0  0  0  0  0  0
   -1.1370   11.8700   -4.2840 C   0  0  0  0  0  0  0  0  0  0  0  0
    0.0240   12.5200   -3.9960 C   0  0  0  0  0  0  0  0  0  0  0  0
    0.1970   13.2580   -2.6460 C   0  0  0  0  0  0  0  0  0  0  0  0
   -0.5250   14.2240   -2.3400 O   0  0  0  0  0  0  0  0  0  0  0  0
    1.0500   12.9450   -1.8190 O   0  0  0  0  0  0  0  0  0  0  0  0
  1  2  1  0
  2  3  1  0
  3  4  1  0
  3  5  1  0
  5  6  1  0
  6  7  1  0
  2  8  1  0
  7  8  1  0
  8  9  1  0
  9 10  1  0
  9 11  1  0
M  CHG  1  11  -1
M  END
