ucsf584-ucsf115
     RDKit          3D

 23 26  0  0  0  0  0  0  0  0999 V2000
   -1.7200   13.9080   -3.4990 C   0  0  0  0  0  0  0  0  0  0  0  0
   -1.1570   14.7230   -2.4330 N   0  0  0  0  0  0  0  0  0  0  0  0
   -1.5810   14.5690   -1.0350 C   0  0  1  0  0  0  0  0  0  0  0  0
   -1.4320   12.4510   -3.1640 C   0  0  1  0  0  0  0  0  0  0  0  0
   -1.0530   11.7050   -4.3150 O   0  0  0  0  0  0  0  0  0  0  0  0
   -0.2670   12.3400   -2.1890 C   0  0  0  0  0  0  0  0  0  0  0  0
   -3.0440   14.9320   -0.5570 C   0  0  2  0  0  0  0  0  0  0  0  0
    0.5170   11.1730   -2.6900 C   0  0  0  0  0  0  0  0  0  0  0  0
   -0.3650   10.5970   -3.7690 C   0  0  0  0  0  0  0  0  0  0  0  0
   -0.8630   13.6220   -0.2540 N   0  0  0  0  0  0  0  0  0  0  0  0
   -4.1840   13.9250   -0.3190 C   0  0  0  0  0  0  0  0  0  0  0  0
   -3.6000   15.8170   -1.5970 N   0  0  0  0  0  0  0  0  0  0  0  0
   -0.6560   14.1350    1.0840 C   0  0  0  0  0  0  0  0  0  0  0  0
   -2.7740   15.4430    0.8990 C   0  0  0  0  0  0  0  0  0  0  0  0
   -4.5230   15.1240   -2.4900 C   0  0  0  0  0  0  0  0  0  0  0  0
   -5.4650   14.8070   -0.3720 C   0  0  2  0  0  0  0  0  0  0  0  0
   -1.3570   15.3880    1.3060 N   0  0  0  0  0  0  0  0  0  0  0  0
   -6.5790   14.5890    0.6610 C   0  0  0  0  0  0  0  0  0  0  0  0
   -5.8670   14.9380   -1.8240 C   0  0  0  0  0  0  0  0  0  0  0  0
   -6.7130   13.3140    1.2890 N   0  0  0  0  0  0  0  0  0  0  0  0
   -7.9140   14.7550    0.1250 N   0  0  0  0  0  0  0  0  0  0  0  0
   -8.7400   14.5180    1.3070 C   0  0  0  0  0  0  0  0  0  0  0  0
   -7.8430   13.6360    2.1750 C   0  0  0  0  0  0  0  0  0  0  0  0
  1  2  1  0
  3  2  1  6
  4  1  1  6
  4  5  1  0
  4  6  1  0
  3  7  1  0
  6  8  1  0
  5  9  1  0
  8  9  1  0
  3 10  1  0
  7 11  1  1
  7 12  1  0
 10 13  1  0
  7 14  1  0
 12 15  1  0
 11 16  1  0
 13 17  1  0
 14 17  1  0
 16 18  1  1
 15 19  1  0
 16 19  1  0
 18 20  1  0
 18 21  1  0
 21 22  1  0
 20 23  1  0
 22 23  1  0
M  END
