ucsf357-ucsf320
     RDKit          3D

 11 11  0  0  0  0  0  0  0  0999 V2000
   -6.0050   15.2500   -2.0450 O   0  0  0  0  0  0  0  0  0  0  0  0
   -5.4870   14.5420   -1.0780 C   0  0  2  0  0  0  0  0  0  0  0  0
   -5.9030   15.2550    0.0630 O   0  0  0  0  0  0  0  0  0  0  0  0
   -3.9400   14.5780   -1.1750 C   0  0  1  0  0  0  0  0  0  0  0  0
   -3.4930   15.0790   -2.5650 C   0  0  0  0  0  0  0  0  0  0  0  0
   -3.2770   15.3440   -0.0070 C   0  0  0  0  0  0  0  0  0  0  0  0
   -2.0190   15.3990   -2.6430 C   0  0  2  0  0  0  0  0  0  0  0  0
   -1.7520   15.2810   -0.0610 C   0  0  0  0  0  0  0  0  0  0  0  0
   -1.5170   14.7910   -3.7650 F   0  0  0  0  0  0  0  0  0  0  0  0
   -1.2150   14.8840   -1.4480 C   0  0  2  0  0  0  0  0  0  0  0  0
    0.1410   15.3270   -1.5750 O   0  0  0  0  0  0  0  0  0  0  0  0
  2  1  1  6
  2  3  1  0
  2  4  1  0
  4  5  1  6
  4  6  1  0
  5  7  1  0
  6  8  1  0
  7  9  1  6
  7 10  1  0
  8 10  1  0
 10 11  1  6
M  CHG  1   1  -1
M  END
