ucsf493-ucsf274
     RDKit          3D

 27 30  0  0  0  0  0  0  0  0999 V2000
   -4.2320   15.3150   -5.9520 C   0  0  0  0  0  0  0  0  0  0  0  0
   -3.4590   16.5080   -5.9740 O   0  0  0  0  0  0  0  0  0  0  0  0
   -2.3630   16.5270   -5.0490 C   0  0  1  0  0  0  0  0  0  0  0  0
   -1.6670   15.1680   -4.9450 C   0  0  0  0  0  0  0  0  0  0  0  0
   -1.4260   17.6730   -5.4960 C   0  0  0  0  0  0  0  0  0  0  0  0
   -0.1640   15.2920   -5.1190 C   0  0  1  0  0  0  0  0  0  0  0  0
   -0.0540   17.7530   -4.7820 C   0  0  0  0  0  0  0  0  0  0  0  0
    0.4220   16.3880   -4.2910 C   0  0  2  0  0  0  0  0  0  0  0  0
    0.7480   14.0770   -4.9440 C   0  0  2  0  0  0  0  0  0  0  0  0
    0.0470   12.8310   -4.3900 C   0  0  2  0  0  0  0  0  0  0  0  0
    1.8210   16.1000   -4.5120 N   0  0  0  0  0  0  0  0  0  0  0  0
    1.9220   14.6610   -4.1840 C   0  0  0  0  0  0  0  0  0  0  0  0
    0.5860   12.1140   -3.1100 C   0  0  1  0  0  0  0  0  0  0  0  0
   -0.7300   12.0310   -5.4980 C   0  0  2  0  0  0  0  0  0  0  0  0
    0.3720   10.7160   -3.1120 O   0  0  0  0  0  0  0  0  0  0  0  0
    1.8620   12.2100   -2.9050 O   0  0  0  0  0  0  0  0  0  0  0  0
   -0.1010   12.6600   -1.8820 C   0  0  0  0  0  0  0  0  0  0  0  0
   -2.1980   11.6800   -5.0520 C   0  0  2  0  0  0  0  0  0  0  0  0
    0.1440   11.0050   -6.1860 N   0  0  0  0  0  0  0  0  0  0  0  0
   -2.4610   12.0200   -3.7040 O   0  0  0  0  0  0  0  0  0  0  0  0
   -2.5710   10.2680   -5.1700 N   0  0  0  0  0  0  0  0  0  0  0  0
   -0.5120    9.7370   -6.5350 C   0  0  1  0  0  0  0  0  0  0  0  0
   -2.0440    9.7300   -6.4200 C   0  0  1  0  0  0  0  0  0  0  0  0
   -0.0560    9.2730   -7.9300 C   0  0  0  0  0  0  0  0  0  0  0  0
   -1.0070    8.2530   -8.5690 C   0  0  0  0  0  0  0  0  0  0  0  0
   -2.6010    8.3080   -6.5860 C   0  0  0  0  0  0  0  0  0  0  0  0
   -1.7870    7.4420   -7.5450 C   0  0  0  0  0  0  0  0  0  0  0  0
  1  2  1  0
  3  2  1  6
  3  4  1  0
  3  5  1  0
  6  4  1  1
  5  7  1  0
  6  8  1  0
  8  7  1  6
  6  9  1  0
  9 10  1  0
  8 11  1  0
  9 12  1  1
 11 12  1  0
 10 13  1  6
 10 14  1  0
 13 15  1  0
 13 16  1  0
 13 17  1  1
 14 18  1  0
 14 19  1  1
 18 20  1  1
 18 21  1  0
 19 22  1  0
 21 23  1  0
 22 23  1  0
 22 24  1  6
 24 25  1  0
 23 26  1  1
 25 27  1  0
 26 27  1  0
M  CHG  1  16  -1
M  END
