ucsf357-ucsf364
     RDKit          3D

 21 22  0  0  0  0  0  0  0  0999 V2000
   -6.0600   15.3610   -2.0090 O   0  0  0  0  0  0  0  0  0  0  0  0
   -5.5840   14.5980   -1.0580 C   0  0  2  0  0  0  0  0  0  0  0  0
   -5.9410   15.2880    0.1060 O   0  0  0  0  0  0  0  0  0  0  0  0
   -4.0460   14.4830   -1.2240 C   0  0  1  0  0  0  0  0  0  0  0  0
   -3.4680   15.1410   -2.4770 C   0  0  0  0  0  0  0  0  0  0  0  0
   -3.2220   14.9350   -0.0030 C   0  0  0  0  0  0  0  0  0  0  0  0
   -2.0100   14.7940   -2.7140 C   0  0  2  0  0  0  0  0  0  0  0  0
   -1.7400   14.5730   -0.1480 C   0  0  0  0  0  0  0  0  0  0  0  0
   -1.9960   14.0510   -3.8620 F   0  0  0  0  0  0  0  0  0  0  0  0
   -1.4000   14.0040   -1.5460 C   0  0  2  0  0  0  0  0  0  0  0  0
    0.0250   13.9750   -1.6730 O   0  0  0  0  0  0  0  0  0  0  0  0
    0.4890   12.7080   -2.1820 C   0  0  2  0  0  0  0  0  0  0  0  0
    1.7950   12.6790   -2.0970 O   0  0  0  0  0  0  0  0  0  0  0  0
   -0.0020   12.5750   -3.6690 C   0  0  1  0  0  0  0  0  0  0  0  0
    0.9830   12.9720   -4.8370 C   0  0  1  0  0  0  0  0  0  0  0  0
   -0.8080   11.2830   -3.8940 C   0  0  0  0  0  0  0  0  0  0  0  0
    2.4820   12.9660   -4.4940 C   0  0  0  0  0  0  0  0  0  0  0  0
   -1.4120   11.2460   -5.2830 C   0  0  0  0  0  0  0  0  0  0  0  0
    0.6880   12.3000   -6.2120 C   0  0  1  0  0  0  0  0  0  0  0  0
    1.8850   11.8880   -6.8540 O   0  0  0  0  0  0  0  0  0  0  0  0
   -0.3200   11.1580   -6.3180 C   0  0  0  0  0  0  0  0  0  0  0  0
  2  1  1  6
  2  3  1  0
  2  4  1  0
  4  5  1  6
  4  6  1  0
  5  7  1  0
  6  8  1  0
  7  9  1  6
  7 10  1  0
  8 10  1  0
 10 11  1  6
 11 12  1  0
 12 13  1  6
 12 14  1  0
 14 15  1  0
 14 16  1  6
 15 17  1  1
 16 18  1  0
 15 19  1  0
 19 20  1  1
 18 21  1  0
 19 21  1  0
M  CHG  2   1  -1  13  -1
M  END
