ucsf422-ucsf303
     RDKit          3D

 30 33  0  0  0  0  0  0  0  0999 V2000
    0.3210   11.0930   -2.5840 O   0  0  0  0  0  0  0  0  0  0  0  0
    0.4210   12.3750   -2.8740 C   0  0  1  0  0  0  0  0  0  0  0  0
    1.6050   12.7220   -2.1910 O   0  0  0  0  0  0  0  0  0  0  0  0
    0.6610   12.5640   -4.3920 C   0  0  0  0  0  0  0  0  0  0  0  0
    0.8970   14.0270   -4.8520 C   0  0  2  0  0  0  0  0  0  0  0  0
    1.9540   14.7890   -4.0580 C   0  0  0  0  0  0  0  0  0  0  0  0
   -0.2260   15.0040   -4.5510 C   0  0  1  0  0  0  0  0  0  0  0  0
    1.6410   16.2500   -4.2290 N   0  0  0  0  0  0  0  0  0  0  0  0
    0.4620   16.2400   -5.0800 C   0  0  2  0  0  0  0  0  0  0  0  0
   -1.6160   14.7330   -5.0820 C   0  0  0  0  0  0  0  0  0  0  0  0
   -0.4080   17.4940   -5.0920 C   0  0  0  0  0  0  0  0  0  0  0  0
   -2.5150   15.9620   -4.9750 C   0  0  2  0  0  0  0  0  0  0  0  0
   -3.7570   15.7060   -5.6000 O   0  0  0  0  0  0  0  0  0  0  0  0
   -1.8700   17.2520   -5.5230 C   0  0  0  0  0  0  0  0  0  0  0  0
   -4.2920   14.5500   -4.9880 C   0  0  0  0  0  0  0  0  0  0  0  0
   -3.5910   14.3130   -3.7560 O   0  0  0  0  0  0  0  0  0  0  0  0
   -4.4220   14.4100   -2.3890 S   0  0  1  0  0  0  0  0  0  0  0  0
   -5.4070   15.6300   -2.6250 O   0  0  0  0  0  0  0  0  0  0  0  0
   -5.3510   13.1040   -2.1020 N   0  0  0  0  0  0  0  0  0  0  0  0
   -3.4560   15.1010   -1.0790 C   0  0  0  0  0  0  0  0  0  0  0  0
   -4.8060   11.9300   -1.5430 C   0  0  1  0  0  0  0  0  0  0  0  0
   -2.2000   14.2840   -0.6670 C   0  0  0  0  0  0  0  0  0  0  0  0
   -4.4600   15.4240    0.0320 C   0  0  0  0  0  0  0  0  0  0  0  0
   -5.8560   10.9340   -1.7270 N   0  0  0  0  0  0  0  0  0  0  0  0
   -3.3210   11.4090   -2.3710 S   0  0  0  0  0  0  0  0  0  0  0  0
   -1.7190   14.5580    0.7610 C   0  0  0  0  0  0  0  0  0  0  0  0
   -3.8250   15.6900    1.3650 C   0  0  0  0  0  0  0  0  0  0  0  0
   -3.8750    9.7170   -2.4220 C   0  0  0  0  0  0  0  0  0  0  0  0
   -5.2960    9.6210   -2.0470 N   0  0  0  0  0  0  0  0  0  0  0  0
   -2.9080   14.5390    1.6780 C   0  0  0  0  0  0  0  0  0  0  0  0
  2  1  1  6
  2  3  1  0
  2  4  1  0
  5  4  1  1
  5  6  1  0
  5  7  1  0
  6  8  1  0
  7  9  1  0
  8  9  1  0
  7 10  1  6
  9 11  1  1
 10 12  1  0
 12 13  1  6
 11 14  1  0
 12 14  1  0
 13 15  1  0
 15 16  1  0
 17 16  1  0
 17 18  1  6
 17 19  1  0
 17 20  1  0
 21 19  1  6
 20 22  1  0
 20 23  1  0
 21 24  1  0
 21 25  1  0
 22 26  1  0
 23 27  1  0
 25 28  1  0
 24 29  1  0
 28 29  1  0
 26 30  1  0
 27 30  1  0
M  CHG  1   1  -1
M  END
