ucsf387-ucsf424
     RDKit          3D

 21 23  0  0  0  0  0  0  0  0999 V2000
    0.9220   17.7340   -5.8180 Cl  0  0  0  0  0  0  0  0  0  0  0  0
    0.4600   16.4940   -4.6070 C   0  0  1  0  0  0  0  0  0  0  0  0
   -1.0500   16.5090   -4.3950 C   0  0  0  0  0  0  0  0  0  0  0  0
    0.9940   15.0610   -4.8300 C   0  0  0  0  0  0  0  0  0  0  0  0
   -0.1150   14.1310   -4.2970 C   0  0  0  0  0  0  0  0  0  0  0  0
   -1.8990   15.6300   -5.2490 C   0  0  2  0  0  0  0  0  0  0  0  0
   -3.5030   15.4030   -4.5370 Cl  0  0  0  0  0  0  0  0  0  0  0  0
   -0.0230   12.5820   -4.0170 C   0  0  2  0  0  0  0  0  0  0  0  0
   -1.2630   14.2630   -5.3010 C   0  0  0  0  0  0  0  0  0  0  0  0
    0.4530   12.0940   -2.5700 C   0  0  1  0  0  0  0  0  0  0  0  0
    0.2230   11.5360   -5.1910 C   0  0  2  0  0  0  0  0  0  0  0  0
    0.5140   10.7690   -2.4390 O   0  0  0  0  0  0  0  0  0  0  0  0
    1.7490   12.5400   -2.2620 O   0  0  0  0  0  0  0  0  0  0  0  0
    1.1240   11.8750   -6.3060 N   0  0  0  0  0  0  0  0  0  0  0  0
   -1.0120   11.0390   -5.9310 C   0  0  1  0  0  0  0  0  0  0  0  0
    0.9240   10.7890   -7.2720 O   0  0  0  0  0  0  0  0  0  0  0  0
   -0.4800   10.5010   -7.2610 C   0  0  1  0  0  0  0  0  0  0  0  0
   -1.7660    9.9720   -5.1350 C   0  0  0  0  0  0  0  0  0  0  0  0
   -0.7430    9.0080   -7.4860 C   0  0  0  0  0  0  0  0  0  0  0  0
   -2.8110    9.2780   -5.9970 C   0  0  0  0  0  0  0  0  0  0  0  0
   -2.2090    8.6440   -7.2490 C   0  0  0  0  0  0  0  0  0  0  0  0
  2  1  1  6
  2  3  1  0
  2  4  1  0
  4  5  1  0
  3  6  1  0
  6  7  1  1
  8  5  1  6
  5  9  1  0
  6  9  1  0
  8 10  1  0
  8 11  1  0
 10 12  1  6
 10 13  1  0
 11 14  1  6
 11 15  1  0
 14 16  1  0
 15 17  1  0
 16 17  1  0
 15 18  1  1
 17 19  1  1
 18 20  1  0
 19 21  1  0
 20 21  1  0
M  CHG  1  12  -1
M  END
