ucsf364-ucsf013
     RDKit          3D

 23 25  0  0  0  0  0  0  0  0999 V2000
    2.1770   13.5130   -4.6680 C   0  0  0  0  0  0  0  0  0  0  0  0
    1.1070   12.4230   -4.5520 C   0  0  2  0  0  0  0  0  0  0  0  0
    0.7350   11.7750   -5.9020 C   0  0  2  0  0  0  0  0  0  0  0  0
   -0.1490   12.9040   -3.7880 C   0  0  2  0  0  0  0  0  0  0  0  0
    1.7930   11.8870   -6.8680 O   0  0  0  0  0  0  0  0  0  0  0  0
    0.0700   13.2400   -2.2490 C   0  0  1  0  0  0  0  0  0  0  0  0
   -1.2890   11.8740   -4.0380 C   0  0  0  0  0  0  0  0  0  0  0  0
   -0.5900   12.2410   -6.4340 C   0  0  0  0  0  0  0  0  0  0  0  0
   -1.1100   13.8830   -1.7360 O   0  0  0  0  0  0  0  0  0  0  0  0
    0.2890   12.1040   -1.5760 O   0  0  0  0  0  0  0  0  0  0  0  0
   -1.6860   11.7290   -5.5110 C   0  0  0  0  0  0  0  0  0  0  0  0
   -1.8920   14.5740   -2.7200 C   0  0  0  0  0  0  0  0  0  0  0  0
   -3.2290   15.0670   -2.1240 C   0  0  1  0  0  0  0  0  0  0  0  0
   -4.3880   14.6810   -3.0330 C   0  0  0  0  0  0  0  0  0  0  0  0
   -3.4920   14.6040   -0.6960 C   0  0  0  0  0  0  0  0  0  0  0  0
   -4.7060   15.3570   -0.1320 C   0  0  2  0  0  0  0  0  0  0  0  0
   -5.7910   14.6550   -2.4010 C   0  0  0  0  0  0  0  0  0  0  0  0
   -4.9540   15.0580    1.3460 C   0  0  2  0  0  0  0  0  0  0  0  0
   -5.9630   15.3400   -1.0390 C   0  0  1  0  0  0  0  0  0  0  0  0
   -4.3020   13.8830    1.8330 N   0  0  0  0  0  0  0  0  0  0  0  0
   -7.2030   14.8440   -0.3980 N   0  0  0  0  0  0  0  0  0  0  0  0
   -6.3140   14.7850    1.7340 N   0  0  0  0  0  0  0  0  0  0  0  0
   -7.0010   13.9900    0.7520 C   0  0  0  0  0  0  0  0  0  0  0  0
  2  1  1  6
  2  3  1  0
  2  4  1  0
  3  5  1  6
  4  6  1  0
  4  7  1  1
  3  8  1  0
  6  9  1  0
  6 10  1  1
  7 11  1  0
  8 11  1  0
  9 12  1  0
 13 12  1  6
 13 14  1  0
 13 15  1  0
 16 15  1  6
 14 17  1  0
 16 18  1  0
 16 19  1  0
 19 17  1  6
 18 20  1  6
 19 21  1  0
 18 22  1  0
 21 23  1  0
 22 23  1  0
M  CHG  1  10  -1
M  END
