ucsf491
     RDKit          3D

 11 12  0  0  0  0  0  0  0  0999 V2000
    7.0200   24.5710   17.9280 C   0  0  0  0  0  0  0  0  0  0  0  0
    7.2840   25.9090   18.0090 C   0  0  0  0  0  0  0  0  0  0  0  0
    8.9490   26.0730   17.4230 S   0  0  0  0  0  0  0  0  0  0  0  0
    9.1350   24.4010   17.1240 C   0  0  0  0  0  0  0  0  0  0  0  0
   10.3800   23.9100   16.6250 N   0  0  0  0  0  0  0  0  0  0  0  0
   11.3100   23.0870   17.5070 C   0  0  0  0  0  0  0  0  0  0  0  0
   12.7040   23.6450   17.7660 C   0  0  0  0  0  0  0  0  0  0  0  0
   13.2130   24.2510   16.6120 N   0  0  0  0  0  0  0  0  0  0  0  0
   12.4410   25.3650   16.2390 C   0  0  0  0  0  0  0  0  0  0  0  0
   11.0870   24.8910   15.7340 C   0  0  0  0  0  0  0  0  0  0  0  0
    8.0280   23.7730   17.4640 N   0  0  0  0  0  0  0  0  0  0  0  0
  1  2  1  0
  2  3  1  0
  3  4  1  0
  4  5  1  0
  5  6  1  0
  6  7  1  0
  7  8  1  0
  8  9  1  0
  5 10  1  0
  9 10  1  0
  1 11  1  0
  4 11  1  0
M  END
