ucsf278
     RDKit          3D

 12 13  0  0  0  0  0  0  0  0999 V2000
   -1.3990   14.4480   -1.4040 Cl  0  0  0  0  0  0  0  0  0  0  0  0
   -2.2750   10.3450   -5.3600 O   0  0  0  0  0  0  0  0  0  0  0  0
   -1.3040   10.9580   -6.1620 C   0  0  0  0  0  0  0  0  0  0  0  0
   -0.6170   12.0470   -5.3380 C   0  0  0  0  0  0  0  0  0  0  0  0
   -1.0920   12.6010   -4.1600 C   0  0  0  0  0  0  0  0  0  0  0  0
   -0.1580   13.5660   -3.7300 C   0  0  0  0  0  0  0  0  0  0  0  0
   -0.0900   14.4430   -2.6190 C   0  0  0  0  0  0  0  0  0  0  0  0
    0.9970   15.3010   -2.4730 C   0  0  0  0  0  0  0  0  0  0  0  0
    2.0200   15.2970   -3.4220 C   0  0  0  0  0  0  0  0  0  0  0  0
    1.9540   14.4380   -4.5120 C   0  0  0  0  0  0  0  0  0  0  0  0
    0.8460   13.5620   -4.6610 C   0  0  0  0  0  0  0  0  0  0  0  0
    0.5450   12.6340   -5.6240 N   0  0  0  0  0  0  0  0  0  0  0  0
  2  3  1  0
  3  4  1  0
  4  5  1  0
  5  6  1  0
  1  7  1  0
  6  7  1  0
  7  8  1  0
  8  9  1  0
  9 10  1  0
  6 11  1  0
 10 11  1  0
  4 12  1  0
 11 12  1  0
M  END
