ucsf135-ucsf487
     RDKit          3D

 25 28  0  0  0  0  0  0  0  0999 V2000
    1.6990   11.6910   -7.1220 O   0  0  0  0  0  0  0  0  0  0  0  0
    0.4890   11.9600   -6.4800 C   0  0  2  0  0  0  0  0  0  0  0  0
    0.7270   11.8620   -5.0470 N   0  0  0  0  0  0  0  0  0  0  0  0
   -0.6190   10.9380   -6.8890 C   0  0  2  0  0  0  0  0  0  0  0  0
   -0.6760   11.3930   -4.3160 S   0  0  2  0  0  0  0  0  0  0  0  0
   -1.4890   10.5540   -5.6570 C   0  0  2  0  0  0  0  0  0  0  0  0
   -0.2010    9.6960   -7.6830 C   0  0  0  0  0  0  0  0  0  0  0  0
   -1.5980   12.6270   -3.8620 O   0  0  0  0  0  0  0  0  0  0  0  0
   -0.4290   10.3290   -3.1530 O   0  0  0  0  0  0  0  0  0  0  0  0
   -1.7130    9.0550   -5.5480 C   0  0  0  0  0  0  0  0  0  0  0  0
   -1.4140    8.8270   -8.0630 C   0  0  0  0  0  0  0  0  0  0  0  0
   -3.0080   12.6730   -4.0440 C   0  0  0  0  0  0  0  0  0  0  0  0
   -2.2710    8.4690   -6.8490 C   0  0  0  0  0  0  0  0  0  0  0  0
   -3.5100   14.0960   -3.7470 C   0  0  0  0  0  0  0  0  0  0  0  0
   -4.1010   14.2750   -2.3290 C   0  0  2  0  0  0  0  0  0  0  0  0
   -5.4820   14.9180   -2.2950 C   0  0  0  0  0  0  0  0  0  0  0  0
   -3.2080   15.0890   -1.4250 C   0  0  0  0  0  0  0  0  0  0  0  0
   -6.0760   15.1280   -0.8940 C   0  0  2  0  0  0  0  0  0  0  0  0
   -3.6180   14.8460    0.0130 C   0  0  0  0  0  0  0  0  0  0  0  0
   -5.0930   15.1750    0.3100 C   0  0  2  0  0  0  0  0  0  0  0  0
   -7.1940   14.2080   -0.6760 N   0  0  0  0  0  0  0  0  0  0  0  0
   -5.6090   14.3490    1.5090 C   0  0  0  0  0  0  0  0  0  0  0  0
   -7.9720   14.5290    0.5170 C   0  0  0  0  0  0  0  0  0  0  0  0
   -7.1140   14.5400    1.7940 C   0  0  1  0  0  0  0  0  0  0  0  0
   -7.5770   13.5400    2.7480 N   0  0  0  0  0  0  0  0  0  0  0  0
  2  1  1  6
  2  3  1  0
  2  4  1  0
  3  5  1  0
  4  6  1  0
  5  6  1  0
  4  7  1  1
  5  8  1  0
  5  9  1  1
  6 10  1  1
  7 11  1  0
  8 12  1  0
 10 13  1  0
 11 13  1  0
 12 14  1  0
 15 14  1  6
 15 16  1  0
 15 17  1  0
 18 16  1  6
 17 19  1  0
 18 20  1  0
 20 19  1  6
 18 21  1  0
 20 22  1  0
 21 23  1  0
 22 24  1  0
 23 24  1  0
 24 25  1  1
M  END
