ucsf213-ucsf303
     RDKit          3D

 28 31  0  0  0  0  0  0  0  0999 V2000
    0.5930   10.4170   -2.2720 O   0  0  0  0  0  0  0  0  0  0  0  0
    0.2160   11.6610   -2.4680 C   0  0  1  0  0  0  0  0  0  0  0  0
    0.5960   12.3130   -1.2830 O   0  0  0  0  0  0  0  0  0  0  0  0
    0.8390   12.3750   -3.6980 C   0  0  0  0  0  0  0  0  0  0  0  0
    0.2780   13.7510   -4.1160 C   0  0  1  0  0  0  0  0  0  0  0  0
    1.0520   15.0430   -4.2480 C   0  0  0  0  0  0  0  0  0  0  0  0
   -1.0370   13.9160   -5.3550 S   0  0  0  0  0  0  0  0  0  0  0  0
    0.0100   16.1740   -4.3380 C   0  0  2  0  0  0  0  0  0  0  0  0
   -1.4080   15.5000   -4.5420 C   0  0  2  0  0  0  0  0  0  0  0  0
   -2.0340   15.1100   -3.2550 O   0  0  0  0  0  0  0  0  0  0  0  0
    0.5080   17.2760   -5.3020 C   0  0  0  0  0  0  0  0  0  0  0  0
   -2.4310   16.3720   -5.3170 C   0  0  0  0  0  0  0  0  0  0  0  0
   -3.5190   14.7080   -2.6860 S   0  0  1  0  0  0  0  0  0  0  0  0
   -0.5740   18.0370   -6.0460 C   0  0  0  0  0  0  0  0  0  0  0  0
   -1.9730   17.8340   -5.5010 C   0  0  0  0  0  0  0  0  0  0  0  0
   -4.5810   15.8360   -2.9330 O   0  0  0  0  0  0  0  0  0  0  0  0
   -4.2320   13.2510   -3.0260 N   0  0  0  0  0  0  0  0  0  0  0  0
   -3.2920   14.9700   -0.9610 C   0  0  0  0  0  0  0  0  0  0  0  0
   -4.3310   12.2060   -2.0420 C   0  0  1  0  0  0  0  0  0  0  0  0
   -2.0460   14.3090   -0.3920 C   0  0  0  0  0  0  0  0  0  0  0  0
   -4.4990   14.7920   -0.0530 C   0  0  0  0  0  0  0  0  0  0  0  0
   -5.6410   11.5370   -2.1220 N   0  0  0  0  0  0  0  0  0  0  0  0
   -3.0470   11.0020   -2.4130 S   0  0  0  0  0  0  0  0  0  0  0  0
   -2.2550   14.0110    1.0660 C   0  0  0  0  0  0  0  0  0  0  0  0
   -4.2510   15.4970    1.2610 C   0  0  0  0  0  0  0  0  0  0  0  0
   -4.2330    9.6920   -2.6720 C   0  0  0  0  0  0  0  0  0  0  0  0
   -5.4740   10.0810   -2.0060 N   0  0  0  0  0  0  0  0  0  0  0  0
   -2.8510   15.1970    1.7310 C   0  0  0  0  0  0  0  0  0  0  0  0
  2  1  1  1
  2  3  1  0
  2  4  1  0
  5  4  1  6
  5  6  1  0
  5  7  1  0
  8  6  1  6
  7  9  1  0
  8  9  1  0
  9 10  1  1
  8 11  1  0
  9 12  1  0
 13 10  1  0
 11 14  1  0
 12 15  1  0
 14 15  1  0
 13 16  1  6
 13 17  1  0
 13 18  1  0
 19 17  1  6
 18 20  1  0
 18 21  1  0
 19 22  1  0
 19 23  1  0
 20 24  1  0
 21 25  1  0
 23 26  1  0
 22 27  1  0
 26 27  1  0
 24 28  1  0
 25 28  1  0
M  CHG  1   1  -1
M  END
