ucsf030-ucsf303
     RDKit          3D

 25 28  0  0  0  0  0  0  0  0999 V2000
   -3.7160   14.4450   -1.9340 C   0  0  0  0  0  0  0  0  0  0  0  0
   -3.0320   13.8610   -3.0160 O   0  0  0  0  0  0  0  0  0  0  0  0
   -4.2880   15.6150   -2.4540 O   0  0  0  0  0  0  0  0  0  0  0  0
   -4.7880   13.5460   -1.5270 N   0  0  0  0  0  0  0  0  0  0  0  0
   -2.6890   14.8340   -0.7860 C   0  0  1  0  0  0  0  0  0  0  0  0
   -2.9040   14.3980    0.6880 C   0  0  2  0  0  0  0  0  0  0  0  0
   -1.1280   14.6700   -1.0480 C   0  0  1  0  0  0  0  0  0  0  0  0
   -4.5890   12.1240   -1.5550 C   0  0  1  0  0  0  0  0  0  0  0  0
   -3.9950   15.1030    1.3420 N   0  0  0  0  0  0  0  0  0  0  0  0
   -0.6140   13.6040   -0.2150 N   0  0  0  0  0  0  0  0  0  0  0  0
   -1.7500   14.6660    1.5230 N   0  0  0  0  0  0  0  0  0  0  0  0
   -0.6730   14.5890   -2.4610 N   0  0  0  0  0  0  0  0  0  0  0  0
   -5.8310   11.3570   -1.5550 N   0  0  0  0  0  0  0  0  0  0  0  0
   -3.5530   11.4660   -2.8240 S   0  0  0  0  0  0  0  0  0  0  0  0
   -0.4760   14.1410    1.1140 C   0  0  0  0  0  0  0  0  0  0  0  0
    0.5200   15.3680   -2.8520 C   0  0  0  0  0  0  0  0  0  0  0  0
   -0.6030   13.3350   -3.2320 C   0  0  0  0  0  0  0  0  0  0  0  0
   -4.1500    9.8260   -2.4300 C   0  0  0  0  0  0  0  0  0  0  0  0
   -5.5310    9.9490   -1.9280 N   0  0  0  0  0  0  0  0  0  0  0  0
    0.9180   15.1800   -4.3250 C   0  0  0  0  0  0  0  0  0  0  0  0
    0.7920   12.6300   -3.3260 C   0  0  0  0  0  0  0  0  0  0  0  0
   -1.0800   12.0400   -2.4950 C   0  0  0  0  0  0  0  0  0  0  0  0
   -1.1420   13.6930   -4.6160 C   0  0  0  0  0  0  0  0  0  0  0  0
   -0.2620   14.7870   -5.2150 C   0  0  0  0  0  0  0  0  0  0  0  0
    0.3880   11.8310   -2.0740 C   0  0  0  0  0  0  0  0  0  0  0  0
  1  2  1  0
  1  3  1  0
  1  4  1  0
  5  1  1  6
  5  6  1  0
  5  7  1  0
  8  4  1  6
  6  9  1  1
  7 10  1  0
  6 11  1  0
  7 12  1  6
  8 13  1  0
  8 14  1  0
 10 15  1  0
 11 15  1  0
 12 16  1  0
 17 12  1  0
 14 18  1  0
 13 19  1  0
 18 19  1  0
 16 20  1  0
 17 21  1  0
 17 22  1  0
 17 23  1  0
 20 24  1  0
 23 24  1  0
 21 25  1  0
 22 25  1  0
M  END
