ucsf584-ucsf339
     RDKit          3D

 18 20  0  0  0  0  0  0  0  0999 V2000
    1.2480   13.9870   -3.7330 O   0  0  0  0  0  0  0  0  0  0  0  0
    0.5740   14.3780   -2.6870 C   0  0  2  0  0  0  0  0  0  0  0  0
    1.0550   13.5720   -1.6060 O   0  0  0  0  0  0  0  0  0  0  0  0
   -0.9590   14.0990   -2.8160 C   0  0  1  0  0  0  0  0  0  0  0  0
   -1.5210   14.0790   -1.4120 C   0  0  0  0  0  0  0  0  0  0  0  0
   -1.7860   14.9930   -3.7890 C   0  0  0  0  0  0  0  0  0  0  0  0
   -2.6370   14.9880   -1.2630 N   0  0  0  0  0  0  0  0  0  0  0  0
   -3.2690   15.0750   -3.5180 N   0  0  0  0  0  0  0  0  0  0  0  0
   -2.9330   14.9630    0.1770 C   0  0  0  0  0  0  0  0  0  0  0  0
   -3.6620   14.5590   -2.1980 C   0  0  2  0  0  0  0  0  0  0  0  0
   -4.3190   15.4010    0.5670 C   0  0  0  0  0  0  0  0  0  0  0  0
   -5.0850   15.0100   -1.7260 C   0  0  0  0  0  0  0  0  0  0  0  0
   -5.2410   14.5470   -0.2570 C   0  0  2  0  0  0  0  0  0  0  0  0
   -6.6000   14.3080    0.4370 C   0  0  0  0  0  0  0  0  0  0  0  0
   -6.6250   14.7850    1.8070 N   0  0  0  0  0  0  0  0  0  0  0  0
   -7.7930   14.8800   -0.1540 N   0  0  0  0  0  0  0  0  0  0  0  0
   -8.7840   14.8560    0.9350 C   0  0  0  0  0  0  0  0  0  0  0  0
   -8.0050   14.5920    2.2200 C   0  0  0  0  0  0  0  0  0  0  0  0
  2  1  1  6
  2  3  1  0
  2  4  1  0
  4  5  1  1
  4  6  1  0
  5  7  1  0
  6  8  1  0
  7  9  1  0
  7 10  1  0
  8 10  1  0
  9 11  1  0
 10 12  1  1
 11 13  1  0
 12 13  1  0
 13 14  1  1
 14 15  1  0
 14 16  1  0
 16 17  1  0
 15 18  1  0
 17 18  1  0
M  CHG  1   1  -1
M  END
