ucsf339-ucsf422
     RDKit          3D

 28 31  0  0  0  0  0  0  0  0999 V2000
    1.5840   14.8670   -2.0060 O   0  0  0  0  0  0  0  0  0  0  0  0
    0.4240   14.3580   -2.3950 C   0  0  1  0  0  0  0  0  0  0  0  0
    0.4120   12.9830   -1.9730 O   0  0  0  0  0  0  0  0  0  0  0  0
   -0.7660   15.1300   -1.7000 C   0  0  2  0  0  0  0  0  0  0  0  0
    0.1360   12.0910   -3.0800 C   0  0  2  0  0  0  0  0  0  0  0  0
   -1.6150   14.2560   -0.7680 C   0  0  0  0  0  0  0  0  0  0  0  0
   -1.7420   15.8780   -2.6330 C   0  0  0  0  0  0  0  0  0  0  0  0
    0.4520   10.8560   -2.6890 O   0  0  0  0  0  0  0  0  0  0  0  0
    1.0120   12.5340   -4.3130 C   0  0  0  0  0  0  0  0  0  0  0  0
   -3.0420   13.9620   -1.2840 C   0  0  2  0  0  0  0  0  0  0  0  0
   -2.6020   15.0640   -3.5020 N   0  0  0  0  0  0  0  0  0  0  0  0
   -3.0800   13.8820   -2.8140 C   0  0  0  0  0  0  0  0  0  0  0  0
   -4.1680   14.9140   -0.8150 C   0  0  0  0  0  0  0  0  0  0  0  0
    0.9260   13.9990   -4.8380 C   0  0  2  0  0  0  0  0  0  0  0  0
   -3.9150   15.6830    0.4920 C   0  0  0  0  0  0  0  0  0  0  0  0
   -5.4650   14.0820   -0.7730 C   0  0  0  0  0  0  0  0  0  0  0  0
    1.8780   14.9840   -4.1420 C   0  0  0  0  0  0  0  0  0  0  0  0
   -0.3640   14.8100   -4.7340 C   0  0  1  0  0  0  0  0  0  0  0  0
   -4.3630   14.9660    1.7570 C   0  0  0  0  0  0  0  0  0  0  0  0
   -6.4220   14.3760    0.3660 C   0  0  0  0  0  0  0  0  0  0  0  0
    1.3180   16.3620   -4.3250 N   0  0  0  0  0  0  0  0  0  0  0  0
    0.1760   16.1450   -5.2070 C   0  0  2  0  0  0  0  0  0  0  0  0
   -1.6140   14.3060   -5.4680 C   0  0  0  0  0  0  0  0  0  0  0  0
   -5.7550   14.3320    1.7220 C   0  0  0  0  0  0  0  0  0  0  0  0
   -0.8540   17.2740   -5.2410 C   0  0  0  0  0  0  0  0  0  0  0  0
   -2.6580   15.4050   -5.7700 C   0  0  1  0  0  0  0  0  0  0  0  0
   -4.4220   14.7760   -5.2370 Br  0  0  0  0  0  0  0  0  0  0  0  0
   -2.3380   16.8300   -5.2730 C   0  0  0  0  0  0  0  0  0  0  0  0
  2  1  1  1
  2  3  1  0
  2  4  1  0
  3  5  1  0
  4  6  1  6
  4  7  1  0
  5  8  1  1
  5  9  1  0
  6 10  1  0
  7 11  1  0
 10 12  1  0
 11 12  1  0
 10 13  1  6
 14  9  1  1
 13 15  1  0
 13 16  1  0
 14 17  1  0
 14 18  1  0
 15 19  1  0
 16 20  1  0
 17 21  1  0
 18 22  1  0
 21 22  1  0
 18 23  1  6
 19 24  1  0
 20 24  1  0
 22 25  1  1
 23 26  1  0
 26 27  1  1
 25 28  1  0
 26 28  1  0
M  CHG  2   1  -1   8  -1
M  END
