ucsf243-ucsf264
     RDKit          3D

 29 31  0  0  0  0  0  0  0  0999 V2000
   -3.8520   15.6630    0.8380 C   0  0  0  0  0  0  0  0  0  0  0  0
   -4.0060   14.6610   -0.3110 C   0  0  1  0  0  0  0  0  0  0  0  0
   -4.6050   15.3020   -1.5700 C   0  0  0  0  0  0  0  0  0  0  0  0
   -2.7030   13.9070   -0.6080 C   0  0  0  0  0  0  0  0  0  0  0  0
   -1.8310   14.5990   -1.6540 C   0  0  1  0  0  0  0  0  0  0  0  0
   -4.0370   14.8150   -2.9110 C   0  0  0  0  0  0  0  0  0  0  0  0
   -0.3060   14.2810   -1.6830 C   0  0  1  0  0  0  0  0  0  0  0  0
   -2.5210   14.8630   -3.0100 C   0  0  2  0  0  0  0  0  0  0  0  0
   -2.0920   13.9370   -4.0310 O   0  0  0  0  0  0  0  0  0  0  0  0
   -0.0600   13.8120   -2.9730 O   0  0  0  0  0  0  0  0  0  0  0  0
    0.4290   15.3460   -1.4900 O   0  0  0  0  0  0  0  0  0  0  0  0
   -0.2520   12.4320   -2.9320 C   0  0  0  0  0  0  0  0  0  0  0  0
    0.9960   11.8640   -2.6900 O   0  0  0  0  0  0  0  0  0  0  0  0
    1.6050   11.6600   -3.9240 C   0  0  1  0  0  0  0  0  0  0  0  0
    1.2400   10.3260   -4.2220 O   0  0  0  0  0  0  0  0  0  0  0  0
    1.0850   12.6370   -5.0220 C   0  0  0  0  0  0  0  0  0  0  0  0
    0.2910   12.0530   -6.1270 N   0  0  0  0  0  0  0  0  0  0  0  0
    1.2100   11.6680   -7.1900 N   0  0  0  0  0  0  0  0  0  0  0  0
   -0.5680   10.8590   -5.8980 C   0  0  2  0  0  0  0  0  0  0  0  0
    0.3350   10.9420   -8.1180 C   0  0  2  0  0  0  0  0  0  0  0  0
   -0.3390    9.9910   -7.1470 C   0  0  2  0  0  0  0  0  0  0  0  0
   -2.0710   10.9960   -5.5750 C   0  0  0  0  0  0  0  0  0  0  0  0
    0.9470   10.3110   -9.3820 C   0  0  0  0  0  0  0  0  0  0  0  0
   -1.5760    9.2380   -7.6240 C   0  0  0  0  0  0  0  0  0  0  0  0
   -2.8040    9.6440   -5.4530 C   0  0  0  0  0  0  0  0  0  0  0  0
    1.6420    9.1810   -9.1040 F   0  0  0  0  0  0  0  0  0  0  0  0
    0.0110    9.9780  -10.2830 F   0  0  0  0  0  0  0  0  0  0  0  0
    1.7630   11.1660  -10.0290 F   0  0  0  0  0  0  0  0  0  0  0  0
   -2.3510    8.6060   -6.4680 C   0  0  0  0  0  0  0  0  0  0  0  0
  2  1  1  1
  2  3  1  0
  2  4  1  0
  5  4  1  6
  3  6  1  0
  5  7  1  0
  5  8  1  0
  6  8  1  0
  8  9  1  6
  7 10  1  0
  7 11  1  6
 10 12  1  0
 12 13  1  0
 13 14  1  0
 14 15  1  6
 14 16  1  0
 16 17  1  0
 17 18  1  0
 17 19  1  0
 18 20  1  0
 19 21  1  0
 20 21  1  0
 19 22  1  6
 20 23  1  6
 21 24  1  6
 22 25  1  0
 23 26  1  0
 23 27  1  0
 23 28  1  0
 24 29  1  0
 25 29  1  0
M  CHG  1  11  -1
M  END
