ucsf274-ucsf345
     RDKit          3D

 27 29  0  0  0  0  0  0  0  0999 V2000
    0.6340   11.3380   -2.6810 O   0  0  0  0  0  0  0  0  0  0  0  0
    1.4030   12.3860   -2.9190 C   0  0  2  0  0  0  0  0  0  0  0  0
    1.4630   12.9490   -1.6350 O   0  0  0  0  0  0  0  0  0  0  0  0
    0.7370   13.4850   -3.7760 C   0  0  0  0  0  0  0  0  0  0  0  0
    0.3490   13.0730   -5.2000 C   0  0  0  0  0  0  0  0  0  0  0  0
   -0.1590   11.6270   -5.2520 C   0  0  1  0  0  0  0  0  0  0  0  0
   -1.5940   11.4050   -4.6210 C   0  0  1  0  0  0  0  0  0  0  0  0
   -0.0840   11.1480   -6.6550 N   0  0  0  0  0  0  0  0  0  0  0  0
   -2.1820   12.6720   -4.3120 O   0  0  0  0  0  0  0  0  0  0  0  0
   -2.5410   10.6850   -5.4850 N   0  0  0  0  0  0  0  0  0  0  0  0
   -0.5670    9.7630   -6.7560 C   0  0  1  0  0  0  0  0  0  0  0  0
   -2.0740   13.0270   -2.9300 C   0  0  0  0  0  0  0  0  0  0  0  0
   -1.9000    9.4650   -6.0060 C   0  0  2  0  0  0  0  0  0  0  0  0
   -0.6100    9.3710   -8.2360 C   0  0  0  0  0  0  0  0  0  0  0  0
   -2.0860   14.5540   -2.8140 C   0  0  0  0  0  0  0  0  0  0  0  0
   -0.9620    7.9050   -8.4200 C   0  0  0  0  0  0  0  0  0  0  0  0
   -2.8450    8.6590   -6.8920 C   0  0  0  0  0  0  0  0  0  0  0  0
   -2.1640    7.4780   -7.5770 C   0  0  0  0  0  0  0  0  0  0  0  0
   -3.3210   15.1090   -2.0820 C   0  0  1  0  0  0  0  0  0  0  0  0
   -4.5810   14.4520   -2.6890 C   0  0  0  0  0  0  0  0  0  0  0  0
   -3.1680   14.9180   -0.6220 N   0  0  0  0  0  0  0  0  0  0  0  0
   -5.8530   14.8700   -2.0950 N   0  0  0  0  0  0  0  0  0  0  0  0
   -4.4510   14.5810    0.0190 C   0  0  0  0  0  0  0  0  0  0  0  0
   -5.7060   15.1920   -0.6430 C   0  0  2  0  0  0  0  0  0  0  0  0
   -7.0260   14.8650    0.1380 C   0  0  2  0  0  0  0  0  0  0  0  0
   -6.9010   14.6290    1.5610 N   0  0  0  0  0  0  0  0  0  0  0  0
   -7.6210   13.7210   -0.4220 O   0  0  0  0  0  0  0  0  0  0  0  0
  2  1  1  1
  2  3  1  0
  2  4  1  0
  4  5  1  0
  6  5  1  6
  6  7  1  0
  6  8  1  0
  7  9  1  6
  7 10  1  0
  8 11  1  0
  9 12  1  0
 10 13  1  0
 11 13  1  0
 11 14  1  6
 12 15  1  0
 14 16  1  0
 13 17  1  6
 16 18  1  0
 17 18  1  0
 19 15  1  6
 19 20  1  0
 19 21  1  0
 20 22  1  0
 21 23  1  0
 22 24  1  0
 24 23  1  1
 24 25  1  0
 25 26  1  1
 25 27  1  0
M  CHG  1   1  -1
M  END
