ucsf320-ucsf396
     RDKit          3D

 18 19  0  0  0  0  0  0  0  0999 V2000
   -1.7230   14.9680   -1.4190 O   0  0  0  0  0  0  0  0  0  0  0  0
   -2.8870   14.3490   -1.4790 C   0  0  1  0  0  0  0  0  0  0  0  0
   -2.6420   13.3940   -2.4850 O   0  0  0  0  0  0  0  0  0  0  0  0
   -3.1390   13.7390   -0.0380 C   0  0  1  0  0  0  0  0  0  0  0  0
   -4.0010   15.3540   -1.9230 C   0  0  2  0  0  0  0  0  0  0  0  0
   -2.9420   14.7400    0.9860 O   0  0  0  0  0  0  0  0  0  0  0  0
   -4.7070   15.9390   -0.6870 C   0  0  0  0  0  0  0  0  0  0  0  0
   -5.0870   14.7680   -2.8840 C   0  0  0  0  0  0  0  0  0  0  0  0
   -4.4200   12.9080    0.2570 C   0  0  2  0  0  0  0  0  0  0  0  0
   -5.7180   14.9760   -0.1310 C   0  0  0  0  0  0  0  0  0  0  0  0
   -6.5270   15.1780   -2.5290 C   0  0  0  0  0  0  0  0  0  0  0  0
   -5.4570   12.9190   -0.8710 C   0  0  0  0  0  0  0  0  0  0  0  0
   -5.0670   13.1190    1.6230 C   0  0  0  0  0  0  0  0  0  0  0  0
   -6.9130   14.9090   -1.0810 C   0  0  2  0  0  0  0  0  0  0  0  0
   -6.6560   12.1130   -0.5510 N   0  0  0  0  0  0  0  0  0  0  0  0
   -6.5570   13.4770    1.5690 C   0  0  0  0  0  0  0  0  0  0  0  0
   -7.9020   15.8670   -0.7000 O   0  0  0  0  0  0  0  0  0  0  0  0
   -7.3740   12.5870    0.6430 C   0  0  0  0  0  0  0  0  0  0  0  0
  2  1  1  1
  2  3  1  0
  2  4  1  0
  2  5  1  0
  4  6  1  1
  5  7  1  1
  5  8  1  0
  4  9  1  0
  7 10  1  0
  8 11  1  0
  9 12  1  6
  9 13  1  0
 10 14  1  0
 11 14  1  0
 12 15  1  0
 13 16  1  0
 14 17  1  1
 15 18  1  0
 16 18  1  0
M  CHG  1   1  -1
M  END
