ucsf337-ucsf345
     RDKit          3D

  9  9  0  0  0  0  0  0  0  0999 V2000
   -7.5850   14.6430    0.8670 C   0  0  0  0  0  0  0  0  0  0  0  0
   -6.4390   14.3120   -0.1010 C   0  0  1  0  0  0  0  0  0  0  0  0
   -6.7140   14.7890   -1.4720 N   0  0  0  0  0  0  0  0  0  0  0  0
   -4.9940   14.6790    0.2990 C   0  0  2  0  0  0  0  0  0  0  0  0
   -4.7330   15.2440    2.1160 Br  0  0  0  0  0  0  0  0  0  0  0  0
   -4.4250   15.7740   -0.5590 C   0  0  0  0  0  0  0  0  0  0  0  0
   -5.6060   14.5640   -2.3780 C   0  0  1  0  0  0  0  0  0  0  0  0
   -6.0390   14.7950   -3.7300 N   0  0  0  0  0  0  0  0  0  0  0  0
   -4.3110   15.2560   -1.9730 C   0  0  0  0  0  0  0  0  0  0  0  0
  2  1  1  1
  2  3  1  0
  2  4  1  0
  4  5  1  1
  4  6  1  0
  3  7  1  0
  7  8  1  6
  6  9  1  0
  7  9  1  0
M  END
