ucsf241-ucsf115
     RDKit          3D

 16 18  0  0  0  0  0  0  0  0999 V2000
   -1.7800   14.0900   -3.2860 C   0  0  0  0  0  0  0  0  0  0  0  0
   -1.2480   15.3600   -2.7600 N   0  0  0  0  0  0  0  0  0  0  0  0
   -1.0850   15.4950   -1.2930 C   0  0  1  0  0  0  0  0  0  0  0  0
   -0.6450   13.0770   -3.5090 C   0  0  2  0  0  0  0  0  0  0  0  0
   -1.1370   11.8680   -4.1330 O   0  0  0  0  0  0  0  0  0  0  0  0
    0.0290   12.6390   -2.2310 C   0  0  0  0  0  0  0  0  0  0  0  0
   -2.4280   15.5560   -0.5720 C   0  0  1  0  0  0  0  0  0  0  0  0
   -0.2370   14.4110   -0.5650 C   0  0  0  0  0  0  0  0  0  0  0  0
    0.6040   11.3360   -2.6310 C   0  0  0  0  0  0  0  0  0  0  0  0
   -0.4750   10.7560   -3.5090 C   0  0  0  0  0  0  0  0  0  0  0  0
   -3.7520   15.2130   -1.2020 C   0  0  0  0  0  0  0  0  0  0  0  0
   -2.4860   14.6830    0.6500 C   0  0  2  0  0  0  0  0  0  0  0  0
   -0.1670   14.5930    0.9570 C   0  0  0  0  0  0  0  0  0  0  0  0
   -4.6370   15.3460    0.0380 C   0  0  0  0  0  0  0  0  0  0  0  0
   -3.7520   15.1140    1.1990 N   0  0  0  0  0  0  0  0  0  0  0  0
   -1.4340   14.9990    1.5560 N   0  0  0  0  0  0  0  0  0  0  0  0
  1  2  1  0
  3  2  1  6
  4  1  1  1
  4  5  1  0
  4  6  1  0
  3  7  1  0
  3  8  1  0
  6  9  1  0
  5 10  1  0
  9 10  1  0
  7 11  1  6
  7 12  1  0
  8 13  1  0
 11 14  1  0
 12 15  1  1
 14 15  1  0
 12 16  1  0
 13 16  1  0
M  END
