ucsf405
     RDKit          3D

 11 11  0  0  0  0  0  0  0  0999 V2000
   14.9260    5.8050   12.2100 N   0  0  0  0  0  0  0  0  0  0  0  0
   14.9560    5.0560   10.9810 C   0  0  0  0  0  0  0  0  0  0  0  0
   14.9310    3.6690   10.9680 C   0  0  0  0  0  0  0  0  0  0  0  0
   14.9820    2.9890    9.7640 C   0  0  0  0  0  0  0  0  0  0  0  0
   15.0590    3.6680    8.5870 C   0  0  1  0  0  0  0  0  0  0  0  0
   15.0760    2.9760    7.2280 C   0  0  0  0  0  0  0  0  0  0  0  0
   15.0250    1.7230    7.1200 O   0  0  0  0  0  0  0  0  0  0  0  0
   15.1230    3.6560    6.1980 O   0  0  0  0  0  0  0  0  0  0  0  0
   15.0600    5.0140    8.6060 C   0  0  0  0  0  0  0  0  0  0  0  0
   15.1170    5.6540    7.3810 O   0  0  0  0  0  0  0  0  0  0  0  0
   15.0260    5.7230    9.7820 C   0  0  0  0  0  0  0  0  0  0  0  0
  1  2  1  0
  2  3  1  0
  3  4  1  0
  4  5  1  0
  5  6  1  6
  6  7  1  0
  6  8  1  0
  5  9  1  0
  9 10  1  0
  2 11  1  0
  9 11  1  0
M  CHG  1   8  -1
M  END
