ucsf028-ucsf115
     RDKit          3D

 19 21  0  0  0  0  0  0  0  0999 V2000
   -4.5150   14.9800    1.4000 N   0  0  0  0  0  0  0  0  0  0  0  0
   -3.5890   15.3870    0.3690 C   0  0  1  0  0  0  0  0  0  0  0  0
   -2.0890   15.1060    0.6070 C   0  0  2  0  0  0  0  0  0  0  0  0
   -4.0670   14.7570   -0.8340 N   0  0  0  0  0  0  0  0  0  0  0  0
   -3.3650   15.2200   -2.0060 C   0  0  0  0  0  0  0  0  0  0  0  0
   -1.4840   14.4500   -0.6390 C   0  0  1  0  0  0  0  0  0  0  0  0
   -1.5760   14.2000    1.6030 N   0  0  0  0  0  0  0  0  0  0  0  0
   -1.9290   14.9260   -1.9480 N   0  0  0  0  0  0  0  0  0  0  0  0
   -0.1180   14.5960   -0.2290 N   0  0  0  0  0  0  0  0  0  0  0  0
   -0.1640   14.2130    1.1830 C   0  0  0  0  0  0  0  0  0  0  0  0
   -1.5600   14.2760   -3.2200 C   0  0  1  0  0  0  0  0  0  0  0  0
   -1.8080   15.1330   -4.4590 C   0  0  0  0  0  0  0  0  0  0  0  0
   -0.2360   13.4800   -3.3970 C   0  0  2  0  0  0  0  0  0  0  0  0
   -0.2310   12.7060   -4.6920 C   0  0  0  0  0  0  0  0  0  0  0  0
    0.0510   12.5010   -2.3880 O   0  0  0  0  0  0  0  0  0  0  0  0
    0.0020   11.1640   -3.0030 N   0  0  0  0  0  0  0  0  0  0  0  0
   -0.7380   11.3670   -4.2360 C   0  0  2  0  0  0  0  0  0  0  0  0
   -0.4520   10.3750   -5.2090 O   0  0  0  0  0  0  0  0  0  0  0  0
   -0.2890   10.9160   -6.5160 C   0  0  0  0  0  0  0  0  0  0  0  0
  2  1  1  1
  2  3  1  0
  2  4  1  0
  4  5  1  0
  3  6  1  0
  3  7  1  1
  5  8  1  0
  6  8  1  0
  6  9  1  6
  7 10  1  0
  9 10  1  0
  8 11  1  0
 11 12  1  6
 11 13  1  0
 13 14  1  6
 13 15  1  0
 15 16  1  0
 14 17  1  0
 16 17  1  0
 17 18  1  6
 18 19  1  0
M  END
