ucsf520-ucsf115
     RDKit          3D

 22 26  0  0  0  0  0  0  0  0999 V2000
   -4.5590   14.7800    1.0460 N   0  0  0  0  0  0  0  0  0  0  0  0
   -3.7740   15.6820    0.2500 C   0  0  1  0  0  0  0  0  0  0  0  0
   -2.2660   15.4040    0.3090 C   0  0  2  0  0  0  0  0  0  0  0  0
   -4.2600   15.4580   -1.1030 N   0  0  0  0  0  0  0  0  0  0  0  0
   -3.2410   15.5500   -2.1500 C   0  0  0  0  0  0  0  0  0  0  0  0
   -1.9830   14.2390   -0.6230 C   0  0  1  0  0  0  0  0  0  0  0  0
   -1.5430   15.0000    1.5040 N   0  0  0  0  0  0  0  0  0  0  0  0
   -2.2220   14.5830   -1.9910 N   0  0  0  0  0  0  0  0  0  0  0  0
   -0.5540   14.0250   -0.4430 N   0  0  0  0  0  0  0  0  0  0  0  0
   -0.2570   14.5820    0.9020 C   0  0  0  0  0  0  0  0  0  0  0  0
   -0.9490   14.5330   -2.7090 C   0  0  2  0  0  0  0  0  0  0  0  0
   -0.0100   14.8040   -1.5780 N   0  0  0  0  0  0  0  0  0  0  0  0
   -0.5760   15.6630   -3.7610 C   0  0  2  0  0  0  0  0  0  0  0  0
   -0.9080   12.9810   -2.9870 C   0  0  1  0  0  0  0  0  0  0  0  0
   -1.5940   16.4420   -4.3930 O   0  0  0  0  0  0  0  0  0  0  0  0
    0.4370   15.4360   -4.8680 C   0  0  0  0  0  0  0  0  0  0  0  0
   -0.6070   12.4760   -4.2970 O   0  0  0  0  0  0  0  0  0  0  0  0
   -0.0540   12.1960   -2.0070 C   0  0  0  0  0  0  0  0  0  0  0  0
    0.5660   16.8820   -5.3040 C   0  0  0  0  0  0  0  0  0  0  0  0
   -0.8650   17.3970   -5.1850 C   0  0  0  0  0  0  0  0  0  0  0  0
    0.6090   11.1720   -2.8470 C   0  0  0  0  0  0  0  0  0  0  0  0
   -0.2640   11.1150   -4.0650 C   0  0  0  0  0  0  0  0  0  0  0  0
  2  1  1  1
  2  3  1  0
  2  4  1  0
  4  5  1  0
  3  6  1  0
  3  7  1  1
  5  8  1  0
  6  8  1  6
  6  9  1  0
  7 10  1  0
  9 10  1  0
 11  8  1  0
  9 12  1  0
 11 12  1  1
 11 13  1  0
 11 14  1  0
 13 15  1  0
 13 16  1  6
 14 17  1  0
 14 18  1  1
 16 19  1  0
 15 20  1  0
 19 20  1  0
 18 21  1  0
 17 22  1  0
 21 22  1  0
M  END
