ucsf110-ucsf241
     RDKit          3D

 15 17  0  0  0  0  0  0  0  0999 V2000
    0.4750   14.5600   -3.3490 C   0  0  0  0  0  0  0  0  0  0  0  0
   -0.4570   15.3060   -2.5210 N   0  0  0  0  0  0  0  0  0  0  0  0
   -1.7430   15.2880   -3.2130 C   0  0  0  0  0  0  0  0  0  0  0  0
   -0.6650   14.6520   -1.2970 C   0  0  2  0  0  0  0  0  0  0  0  0
   -2.7070   15.1270   -2.0880 C   0  0  0  0  0  0  0  0  0  0  0  0
   -1.8370   15.3030   -0.8560 C   0  0  1  0  0  0  0  0  0  0  0  0
    0.4240   14.7110   -0.3470 N   0  0  0  0  0  0  0  0  0  0  0  0
   -2.8730   15.0330    0.5580 S   0  0  0  0  0  0  0  0  0  0  0  0
   -0.2430   15.4460    0.7430 C   0  0  0  0  0  0  0  0  0  0  0  0
   -2.5770   13.7650    1.9110 N   0  0  0  0  0  0  0  0  0  0  0  0
   -1.3790   16.1330    0.5510 N   0  0  0  0  0  0  0  0  0  0  0  0
   -4.2110   14.3340   -0.3360 C   0  0  0  0  0  0  0  0  0  0  0  0
   -4.3550   16.1230    0.8130 N   0  0  0  0  0  0  0  0  0  0  0  0
   -5.1770   16.0480   -0.2890 C   0  0  0  0  0  0  0  0  0  0  0  0
   -4.5310   15.3940   -1.3340 C   0  0  0  0  0  0  0  0  0  0  0  0
  1  2  1  0
  2  3  1  0
  2  4  1  0
  3  5  1  0
  4  6  1  0
  6  5  1  6
  4  7  1  1
  6  8  1  0
  7  9  1  0
  8 10  1  0
  8 11  1  0
  9 11  1  0
  8 12  1  0
  8 13  1  0
 13 14  1  0
 12 15  1  0
 14 15  1  0
M  END
