ucsf320-ucsf340
     RDKit          3D

 24 26  0  0  0  0  0  0  0  0999 V2000
   -0.5220   14.5140   -2.6910 N   0  0  0  0  0  0  0  0  0  0  0  0
   -1.7360   15.2450   -2.2370 C   0  0  1  0  0  0  0  0  0  0  0  0
   -2.1730   16.1120   -3.2410 O   0  0  0  0  0  0  0  0  0  0  0  0
   -0.6410   13.0300   -2.9580 C   0  0  0  0  0  0  0  0  0  0  0  0
    0.0480   15.1340   -3.9340 C   0  0  2  0  0  0  0  0  0  0  0  0
    0.4520   12.0600   -2.3770 C   0  0  1  0  0  0  0  0  0  0  0  0
   -3.0200   14.5360   -1.6860 C   0  0  1  0  0  0  0  0  0  0  0  0
    0.7220   16.5510   -3.9630 C   0  0  0  0  0  0  0  0  0  0  0  0
   -1.0160   15.3470   -5.0250 C   0  0  2  0  0  0  0  0  0  0  0  0
    0.6100   12.4480   -1.0430 O   0  0  0  0  0  0  0  0  0  0  0  0
    0.0040   10.8100   -2.2290 O   0  0  0  0  0  0  0  0  0  0  0  0
   -3.3720   15.0750   -0.2740 C   0  0  0  0  0  0  0  0  0  0  0  0
   -4.2280   14.7530   -2.6370 C   0  0  0  0  0  0  0  0  0  0  0  0
    0.2990   17.0920   -5.2840 N   0  0  0  0  0  0  0  0  0  0  0  0
   -1.1140   16.8830   -5.1020 C   0  0  1  0  0  0  0  0  0  0  0  0
   -2.3510   14.6050   -4.9040 C   0  0  0  0  0  0  0  0  0  0  0  0
    0.7390   18.4390   -5.5760 C   0  0  0  0  0  0  0  0  0  0  0  0
   -4.7040   14.6070    0.3250 C   0  0  0  0  0  0  0  0  0  0  0  0
   -5.4610   15.3060   -1.9280 C   0  0  0  0  0  0  0  0  0  0  0  0
   -3.5190   15.5210   -5.1910 C   0  0  0  0  0  0  0  0  0  0  0  0
   -2.0840   17.4310   -6.1320 C   0  0  0  0  0  0  0  0  0  0  0  0
   -5.8310   14.5130   -0.6960 C   0  0  2  0  0  0  0  0  0  0  0  0
   -3.2610   16.4750   -6.3420 C   0  0  0  0  0  0  0  0  0  0  0  0
   -7.0500   15.0190   -0.1590 O   0  0  0  0  0  0  0  0  0  0  0  0
  1  2  1  0
  2  3  1  6
  1  4  1  0
  5  1  1  1
  4  6  1  0
  2  7  1  0
  5  8  1  0
  5  9  1  0
  6 10  1  1
  6 11  1  0
  7 12  1  1
  7 13  1  0
  8 14  1  0
  9 15  1  0
 14 15  1  0
  9 16  1  1
 14 17  1  0
 12 18  1  0
 13 19  1  0
 16 20  1  0
 15 21  1  6
 18 22  1  0
 19 22  1  0
 20 23  1  0
 21 23  1  0
 22 24  1  1
M  CHG  1  11  -1
M  END
