ucsf135-ucsf278
     RDKit          3D

 24 27  0  0  0  0  0  0  0  0999 V2000
    1.3710   10.4490   -9.3870 O   0  0  0  0  0  0  0  0  0  0  0  0
    0.5360   11.0010   -8.4110 C   0  0  2  0  0  0  0  0  0  0  0  0
    1.2880   11.2620   -7.2010 N   0  0  0  0  0  0  0  0  0  0  0  0
   -0.6320   10.0640   -7.9940 C   0  0  2  0  0  0  0  0  0  0  0  0
    0.1630   11.5710   -6.0590 S   0  0  0  0  0  0  0  0  0  0  0  0
   -1.2580   10.7190   -6.7240 C   0  0  2  0  0  0  0  0  0  0  0  0
   -0.1520    8.6270   -7.7590 C   0  0  0  0  0  0  0  0  0  0  0  0
   -0.2100   13.1160   -5.9520 O   0  0  0  0  0  0  0  0  0  0  0  0
    0.3840   10.9270   -4.6170 O   0  0  0  0  0  0  0  0  0  0  0  0
   -2.0890    9.8190   -5.7980 C   0  0  2  0  0  0  0  0  0  0  0  0
   -1.2050    7.8040   -7.0510 C   0  0  0  0  0  0  0  0  0  0  0  0
   -2.4140   10.5610   -4.4660 C   0  0  2  0  0  0  0  0  0  0  0  0
   -1.5300    8.3960   -5.6860 C   0  0  0  0  0  0  0  0  0  0  0  0
   -3.6610   11.2610   -4.5260 O   0  0  0  0  0  0  0  0  0  0  0  0
   -1.3450   11.5360   -3.9100 C   0  0  2  0  0  0  0  0  0  0  0  0
   -1.3220   11.8650   -2.4320 C   0  0  0  0  0  0  0  0  0  0  0  0
   -1.2770   12.8830   -4.5320 N   0  0  0  0  0  0  0  0  0  0  0  0
   -0.1370   12.8260   -2.4480 C   0  0  1  0  0  0  0  0  0  0  0  0
   -0.3840   13.6910   -3.6750 C   0  0  1  0  0  0  0  0  0  0  0  0
    0.2050   13.6890   -1.2470 C   0  0  2  0  0  0  0  0  0  0  0  0
    0.9370   14.1950   -4.2520 C   0  0  0  0  0  0  0  0  0  0  0  0
   -1.2180   14.4030   -0.4250 Cl  0  0  0  0  0  0  0  0  0  0  0  0
    1.1660   14.7880   -1.7300 C   0  0  0  0  0  0  0  0  0  0  0  0
    1.8740   14.5520   -3.0900 C   0  0  0  0  0  0  0  0  0  0  0  0
  2  1  1  6
  2  3  1  0
  2  4  1  0
  3  5  1  0
  4  6  1  0
  6  5  1  1
  4  7  1  1
  5  8  1  0
  5  9  1  0
  6 10  1  0
  7 11  1  0
 10 12  1  0
 10 13  1  1
 11 13  1  0
 12 14  1  6
 12 15  1  0
 15 16  1  1
 15 17  1  0
 18 16  1  1
 17 19  1  0
 18 19  1  0
 18 20  1  0
 19 21  1  6
 20 22  1  6
 20 23  1  0
 21 24  1  0
 23 24  1  0
M  END
