ucsf017-ucsf412
     RDKit          3D

 24 28  0  0  0  0  0  0  0  0999 V2000
   -7.4740   13.8470   -0.6850 O   0  0  0  0  0  0  0  0  0  0  0  0
   -7.0840   15.0140   -0.0270 C   0  0  1  0  0  0  0  0  0  0  0  0
   -7.2480   14.7400    1.4000 N   0  0  0  0  0  0  0  0  0  0  0  0
   -5.6740   15.4560   -0.5040 C   0  0  0  0  0  0  0  0  0  0  0  0
   -4.4910   14.7320    0.1510 C   0  0  2  0  0  0  0  0  0  0  0  0
   -6.0220   14.4370    2.1270 C   0  0  0  0  0  0  0  0  0  0  0  0
   -3.5270   15.6300    0.7750 N   0  0  0  0  0  0  0  0  0  0  0  0
   -3.6080   14.0930   -0.9260 C   0  0  0  0  0  0  0  0  0  0  0  0
   -4.9960   13.7640    1.2330 C   0  0  0  0  0  0  0  0  0  0  0  0
   -2.3960   14.7580    1.0090 C   0  0  1  0  0  0  0  0  0  0  0  0
   -2.2370   13.9560   -0.2680 C   0  0  2  0  0  0  0  0  0  0  0  0
   -1.2570   15.5370    1.2480 N   0  0  0  0  0  0  0  0  0  0  0  0
   -1.0180   14.4020   -1.1140 C   0  0  2  0  0  0  0  0  0  0  0  0
   -0.6570   13.5110   -2.1980 N   0  0  0  0  0  0  0  0  0  0  0  0
    0.1690   14.4040   -0.2880 N   0  0  0  0  0  0  0  0  0  0  0  0
   -0.0530   14.7830    1.0750 C   0  0  0  0  0  0  0  0  0  0  0  0
   -0.9030   13.9170   -3.5800 C   0  0  2  0  0  0  0  0  0  0  0  0
    0.4970   12.6380   -2.0690 C   0  0  0  0  0  0  0  0  0  0  0  0
   -2.1210   14.7020   -4.0810 C   0  0  0  0  0  0  0  0  0  0  0  0
   -1.0570   12.7110   -4.4850 C   0  0  1  0  0  0  0  0  0  0  0  0
    0.1980   11.3510   -2.8290 C   0  0  0  0  0  0  0  0  0  0  0  0
   -1.1920   13.4180   -5.7970 C   0  0  0  0  0  0  0  0  0  0  0  0
   -2.1740   14.4390   -5.5110 O   0  0  0  0  0  0  0  0  0  0  0  0
    0.0290   11.6580   -4.3190 C   0  0  0  0  0  0  0  0  0  0  0  0
  2  1  1  6
  2  3  1  0
  2  4  1  0
  5  4  1  6
  3  6  1  0
  5  7  1  0
  5  8  1  0
  5  9  1  0
  6  9  1  0
 10  7  1  6
 11  8  1  6
 10 11  1  0
 10 12  1  0
 11 13  1  0
 13 14  1  6
 13 15  1  0
 12 16  1  0
 15 16  1  0
 14 17  1  0
 14 18  1  0
 17 19  1  1
 17 20  1  0
 18 21  1  0
 20 22  1  6
 19 23  1  0
 22 23  1  0
 20 24  1  0
 21 24  1  0
M  END
