ucsf333-ucsf274
     RDKit          3D

 26 29  0  0  0  0  0  0  0  0999 V2000
   -6.1940   15.6120   -1.3580 Cl  0  0  0  0  0  0  0  0  0  0  0  0
   -4.6370   14.7750   -1.0880 C   0  0  1  0  0  0  0  0  0  0  0  0
   -3.7880   14.7240   -2.3730 C   0  0  0  0  0  0  0  0  0  0  0  0
   -3.8810   15.3310    0.1170 C   0  0  0  0  0  0  0  0  0  0  0  0
   -2.5080   15.5840   -2.3530 C   0  0  2  0  0  0  0  0  0  0  0  0
   -2.4120   14.8600    0.0900 C   0  0  0  0  0  0  0  0  0  0  0  0
   -1.7130   15.3440   -3.5670 N   0  0  0  0  0  0  0  0  0  0  0  0
   -1.6390   15.4590   -1.0880 C   0  0  1  0  0  0  0  0  0  0  0  0
   -0.9220   14.1250   -3.2760 C   0  0  2  0  0  0  0  0  0  0  0  0
   -0.1560   14.5800   -1.6440 S   0  0  0  0  0  0  0  0  0  0  0  0
   -0.0190   13.5250   -4.4460 C   0  0  1  0  0  0  0  0  0  0  0  0
    1.3430   13.0350   -3.8960 C   0  0  0  0  0  0  0  0  0  0  0  0
   -0.8070   12.3790   -5.2950 C   0  0  2  0  0  0  0  0  0  0  0  0
    1.4330   12.1040   -2.6760 C   0  0  1  0  0  0  0  0  0  0  0  0
   -1.7460   11.4660   -4.3910 C   0  0  1  0  0  0  0  0  0  0  0  0
    0.0420   11.5170   -6.1880 N   0  0  0  0  0  0  0  0  0  0  0  0
    0.8330   12.5620   -1.5950 O   0  0  0  0  0  0  0  0  0  0  0  0
    0.6650   10.9350   -2.8770 O   0  0  0  0  0  0  0  0  0  0  0  0
   -2.8420   12.1980   -3.8620 O   0  0  0  0  0  0  0  0  0  0  0  0
   -2.4380   10.3800   -5.0770 N   0  0  0  0  0  0  0  0  0  0  0  0
   -0.7640   10.5000   -6.9060 C   0  0  2  0  0  0  0  0  0  0  0  0
   -1.5450    9.6040   -5.9190 C   0  0  2  0  0  0  0  0  0  0  0  0
    0.1250    9.6570   -7.8500 C   0  0  0  0  0  0  0  0  0  0  0  0
   -0.3070    8.1860   -7.9840 C   0  0  0  0  0  0  0  0  0  0  0  0
   -2.4060    8.5330   -6.6200 C   0  0  0  0  0  0  0  0  0  0  0  0
   -1.8170    8.0110   -7.9200 C   0  0  0  0  0  0  0  0  0  0  0  0
  2  1  1  6
  2  3  1  0
  2  4  1  0
  5  3  1  1
  4  6  1  0
  5  7  1  0
  5  8  1  0
  8  6  1  1
  9  7  1  6
  8 10  1  0
  9 10  1  0
  9 11  1  0
 11 12  1  1
 11 13  1  0
 12 14  1  0
 13 15  1  0
 13 16  1  1
 14 17  1  1
 14 18  1  0
 15 19  1  6
 15 20  1  0
 16 21  1  0
 20 22  1  0
 21 22  1  0
 21 23  1  1
 23 24  1  0
 22 25  1  6
 24 26  1  0
 25 26  1  0
M  CHG  1  17  -1
M  END
