ucsf442-ucsf385
     RDKit          3D

 14 15  0  0  0  0  0  0  0  0999 V2000
    0.0940   15.3580    0.3620 O   0  0  0  0  0  0  0  0  0  0  0  0
   -1.1040   14.6240    0.2360 C   0  0  2  0  0  0  0  0  0  0  0  0
   -1.5240   14.4290   -1.1460 N   0  0  0  0  0  0  0  0  0  0  0  0
   -2.1550   15.2750    0.9980 N   0  0  0  0  0  0  0  0  0  0  0  0
   -0.6180   14.8860   -2.1830 C   0  0  1  0  0  0  0  0  0  0  0  0
   -3.3230   14.4500    1.0390 C   0  0  2  0  0  0  0  0  0  0  0  0
   -2.9530   14.5090   -1.4790 C   0  0  2  0  0  0  0  0  0  0  0  0
   -3.3970   15.7770   -1.9310 O   0  0  0  0  0  0  0  0  0  0  0  0
    0.2880   13.9000   -2.5830 O   0  0  0  0  0  0  0  0  0  0  0  0
   -1.2930   15.1010   -3.2910 O   0  0  0  0  0  0  0  0  0  0  0  0
   -3.8010   13.9530   -0.3280 C   0  0  2  0  0  0  0  0  0  0  0  0
   -4.4380   15.2390    1.5590 N   0  0  0  0  0  0  0  0  0  0  0  0
   -5.2640   14.0640   -0.2990 N   0  0  0  0  0  0  0  0  0  0  0  0
   -5.4820   15.1950    0.5540 C   0  0  0  0  0  0  0  0  0  0  0  0
  2  1  1  6
  2  3  1  0
  2  4  1  0
  3  5  1  0
  6  4  1  6
  3  7  1  0
  7  8  1  1
  5  9  1  6
  5 10  1  0
  6 11  1  0
  7 11  1  0
  6 12  1  0
 11 13  1  6
 12 14  1  0
 13 14  1  0
M  CHG  1  10  -1
M  END
