ucsf367-ucsf340
     RDKit          3D

 22 24  0  0  0  0  0  0  0  0999 V2000
    0.5680   10.5780   -2.6050 O   0  0  0  0  0  0  0  0  0  0  0  0
    0.4550   11.9060   -2.5690 C   0  0  1  0  0  0  0  0  0  0  0  0
    1.7330   12.3280   -2.1560 O   0  0  0  0  0  0  0  0  0  0  0  0
    0.1800   12.6960   -3.9050 C   0  0  2  0  0  0  0  0  0  0  0  0
    0.4750   12.0260   -5.1730 O   0  0  0  0  0  0  0  0  0  0  0  0
    0.6820   14.1880   -3.8150 C   0  0  0  0  0  0  0  0  0  0  0  0
   -0.3440   10.8550   -5.3810 C   0  0  0  0  0  0  0  0  0  0  0  0
    0.3170   15.1860   -4.9190 C   0  0  2  0  0  0  0  0  0  0  0  0
   -0.3110   10.2920   -6.8050 C   0  0  0  0  0  0  0  0  0  0  0  0
   -1.7830   11.2560   -5.0800 C   0  0  0  0  0  0  0  0  0  0  0  0
    1.0500   16.5310   -4.8970 C   0  0  0  0  0  0  0  0  0  0  0  0
   -1.1630   15.5870   -4.9970 C   0  0  2  0  0  0  0  0  0  0  0  0
   -1.1740    9.0290   -6.9260 C   0  0  0  0  0  0  0  0  0  0  0  0
   -2.7420   10.0710   -5.2110 C   0  0  0  0  0  0  0  0  0  0  0  0
    0.0820   17.6060   -5.1880 N   0  0  0  0  0  0  0  0  0  0  0  0
   -1.2740   17.1020   -5.1020 C   0  0  1  0  0  0  0  0  0  0  0  0
   -2.1910   15.0010   -4.0920 C   0  0  0  0  0  0  0  0  0  0  0  0
    0.4550   18.4840   -6.2840 C   0  0  0  0  0  0  0  0  0  0  0  0
   -2.6230    9.2970   -6.5280 C   0  0  0  0  0  0  0  0  0  0  0  0
   -3.5050   15.4450   -4.7170 C   0  0  0  0  0  0  0  0  0  0  0  0
   -2.3240   17.3890   -6.1270 C   0  0  0  0  0  0  0  0  0  0  0  0
   -3.3650   16.2300   -6.0690 C   0  0  0  0  0  0  0  0  0  0  0  0
  2  1  1  6
  2  3  1  0
  2  4  1  0
  4  5  1  0
  4  6  1  1
  5  7  1  0
  8  6  1  1
  7  9  1  0
  7 10  1  0
  8 11  1  0
  8 12  1  0
  9 13  1  0
 10 14  1  0
 11 15  1  0
 12 16  1  0
 15 16  1  0
 12 17  1  1
 15 18  1  0
 13 19  1  0
 14 19  1  0
 17 20  1  0
 16 21  1  6
 20 22  1  0
 21 22  1  0
M  CHG  1   1  -1
M  END
