ucsf012-ucsf357
     RDKit          3D

 21 23  0  0  0  0  0  0  0  0999 V2000
   -3.4460   14.8820   -4.1620 C   0  0  0  0  0  0  0  0  0  0  0  0
   -2.8200   15.1490   -2.7820 C   0  0  1  0  0  0  0  0  0  0  0  0
   -3.6020   14.6150   -1.5530 C   0  0  2  0  0  0  0  0  0  0  0  0
   -1.5190   14.4680   -2.4920 N   0  0  0  0  0  0  0  0  0  0  0  0
   -5.1200   14.8320   -1.3420 C   0  0  2  0  0  0  0  0  0  0  0  0
   -0.4250   14.4860   -3.4540 C   0  0  0  0  0  0  0  0  0  0  0  0
   -2.6330   15.1650   -0.5080 C   0  0  2  0  0  0  0  0  0  0  0  0
   -1.2640   14.7910   -1.1010 C   0  0  2  0  0  0  0  0  0  0  0  0
   -5.6450   15.4610   -2.3540 O   0  0  0  0  0  0  0  0  0  0  0  0
   -5.4510   15.6490   -0.2470 O   0  0  0  0  0  0  0  0  0  0  0  0
   -0.3590   15.8590   -1.2180 O   0  0  0  0  0  0  0  0  0  0  0  0
   -2.6850   14.6920    0.9240 C   0  0  2  0  0  0  0  0  0  0  0  0
   -0.5530   13.8490   -0.2960 N   0  0  0  0  0  0  0  0  0  0  0  0
    0.0870   13.0700   -3.8640 C   0  0  1  0  0  0  0  0  0  0  0  0
   -3.6700   15.3890    1.7340 N   0  0  0  0  0  0  0  0  0  0  0  0
   -1.4470   14.9670    1.6150 N   0  0  0  0  0  0  0  0  0  0  0  0
   -0.2590   14.4210    1.0040 C   0  0  0  0  0  0  0  0  0  0  0  0
    0.7250   12.2990   -2.6990 C   0  0  0  0  0  0  0  0  0  0  0  0
   -0.9980   12.2400   -4.3320 O   0  0  0  0  0  0  0  0  0  0  0  0
   -0.6340   10.8960   -4.0470 C   0  0  0  0  0  0  0  0  0  0  0  0
    0.0450   10.9390   -2.7020 C   0  0  0  0  0  0  0  0  0  0  0  0
  2  1  1  6
  2  3  1  0
  2  4  1  0
  3  5  1  1
  4  6  1  0
  3  7  1  0
  4  8  1  0
  7  8  1  0
  5  9  1  6
  5 10  1  0
  8 11  1  6
  7 12  1  1
  8 13  1  0
 14  6  1  1
 12 15  1  1
 12 16  1  0
 13 17  1  0
 16 17  1  0
 14 18  1  0
 14 19  1  0
 19 20  1  0
 18 21  1  0
 20 21  1  0
M  CHG  1   9  -1
M  END
