ucsf030-ucsf172
     RDKit          3D

 30 33  0  0  0  0  0  0  0  0999 V2000
   -2.0570   15.9230   -2.1840 Cl  0  0  0  0  0  0  0  0  0  0  0  0
   -1.8900   14.5360   -1.0380 C   0  0  2  0  0  0  0  0  0  0  0  0
   -2.5530   14.9680    0.3350 C   0  0  1  0  0  0  0  0  0  0  0  0
   -0.3900   14.0480   -1.0400 C   0  0  2  0  0  0  0  0  0  0  0  0
   -4.0620   15.0450    0.3650 N   0  0  0  0  0  0  0  0  0  0  0  0
    0.0490   13.6410    0.3040 N   0  0  0  0  0  0  0  0  0  0  0  0
   -1.9460   14.2140    1.4200 N   0  0  0  0  0  0  0  0  0  0  0  0
    0.6050   14.8980   -1.8290 N   0  0  0  0  0  0  0  0  0  0  0  0
   -5.1950   13.9930    1.0700 S   0  0  0  0  0  0  0  0  0  0  0  0
   -0.5150   14.4120    1.3740 C   0  0  0  0  0  0  0  0  0  0  0  0
    0.2580   15.1880   -3.2640 C   0  0  0  0  0  0  0  0  0  0  0  0
    1.7940   14.0210   -2.0160 C   0  0  0  0  0  0  0  0  0  0  0  0
   -4.4480   15.3440   -1.0060 C   0  0  2  0  0  0  0  0  0  0  0  0
   -6.4480   14.5830    2.1490 C   0  0  0  0  0  0  0  0  0  0  0  0
   -4.6400   12.7630    1.9080 O   0  0  0  0  0  0  0  0  0  0  0  0
   -6.0800   13.3190   -0.0910 O   0  0  0  0  0  0  0  0  0  0  0  0
   -0.3900   14.0070   -3.9520 C   0  0  0  0  0  0  0  0  0  0  0  0
   -0.1690   16.6850   -3.5420 C   0  0  0  0  0  0  0  0  0  0  0  0
    1.5630   15.5780   -4.0640 C   0  0  0  0  0  0  0  0  0  0  0  0
    1.5390   12.7380   -2.8610 C   0  0  0  0  0  0  0  0  0  0  0  0
   -5.9610   15.4760   -1.2570 C   0  0  0  0  0  0  0  0  0  0  0  0
   -3.8250   14.3280   -1.9510 C   0  0  0  0  0  0  0  0  0  0  0  0
    0.6650   12.9130   -4.1080 C   0  0  0  0  0  0  0  0  0  0  0  0
   -4.0970   14.8560   -3.3440 C   0  0  1  0  0  0  0  0  0  0  0  0
   -6.5140   14.7270   -2.4970 C   0  0  0  0  0  0  0  0  0  0  0  0
    0.8130   16.7400   -4.7240 C   0  0  0  0  0  0  0  0  0  0  0  0
   -3.0100   14.4710   -4.3900 C   0  0  1  0  0  0  0  0  0  0  0  0
   -5.5390   14.4440   -3.6620 C   0  0  0  0  0  0  0  0  0  0  0  0
   -2.8010   13.0710   -4.3350 O   0  0  0  0  0  0  0  0  0  0  0  0
   -3.4550   14.6430   -5.6130 O   0  0  0  0  0  0  0  0  0  0  0  0
  2  1  1  6
  2  3  1  0
  2  4  1  0
  3  5  1  6
  4  6  1  0
  3  7  1  0
  4  8  1  1
  5  9  1  0
  6 10  1  0
  7 10  1  0
 11  8  1  0
  8 12  1  0
 13  5  1  1
  9 14  1  0
  9 15  1  0
  9 16  1  0
 11 17  1  0
 11 18  1  0
 11 19  1  0
 12 20  1  0
 13 21  1  0
 13 22  1  0
 17 23  1  0
 20 23  1  0
 24 22  1  1
 21 25  1  0
 18 26  1  0
 19 26  1  0
 24 27  1  0
 24 28  1  0
 25 28  1  0
 27 29  1  6
 27 30  1  0
M  CHG  1  30  -1
M  END
