ucsf247-ucsf340
     RDKit          3D

 26 28  0  0  0  0  0  0  0  0999 V2000
    1.0750   13.8280   -2.2940 O   0  0  0  0  0  0  0  0  0  0  0  0
    0.3330   14.1320   -3.4540 C   0  0  1  0  0  0  0  0  0  0  0  0
    0.9130   13.5210   -4.6040 O   0  0  0  0  0  0  0  0  0  0  0  0
    1.3970   12.4210   -2.2900 C   0  0  0  0  0  0  0  0  0  0  0  0
   -1.0650   13.5260   -3.1830 C   0  0  0  0  0  0  0  0  0  0  0  0
    0.4410   11.7260   -1.6550 O   0  0  0  0  0  0  0  0  0  0  0  0
    0.0560   15.5960   -3.8300 C   0  0  1  0  0  0  0  0  0  0  0  0
   -1.8900   14.1300   -2.1040 N   0  0  0  0  0  0  0  0  0  0  0  0
    1.1090   16.4960   -4.4520 C   0  0  0  0  0  0  0  0  0  0  0  0
   -0.9450   15.6520   -4.9610 C   0  0  2  0  0  0  0  0  0  0  0  0
   -3.2470   14.4860   -2.4380 C   0  0  2  0  0  0  0  0  0  0  0  0
    0.2840   17.6830   -4.8250 N   0  0  0  0  0  0  0  0  0  0  0  0
   -0.7670   17.0390   -5.6010 C   0  0  2  0  0  0  0  0  0  0  0  0
   -2.3500   15.3370   -4.4600 C   0  0  0  0  0  0  0  0  0  0  0  0
   -3.3180   15.5940   -3.3000 O   0  0  0  0  0  0  0  0  0  0  0  0
    1.0550   18.5140   -5.7310 C   0  0  0  0  0  0  0  0  0  0  0  0
   -4.0620   14.9420   -1.2350 C   0  0  1  0  0  0  0  0  0  0  0  0
   -3.3960   15.4690   -5.5130 C   0  0  0  0  0  0  0  0  0  0  0  0
   -2.1050   17.7200   -5.7800 C   0  0  0  0  0  0  0  0  0  0  0  0
   -5.4670   14.3650   -1.2120 C   0  0  0  0  0  0  0  0  0  0  0  0
   -3.3690   14.8130    0.1270 C   0  0  0  0  0  0  0  0  0  0  0  0
   -3.1650   16.7250   -6.2970 C   0  0  0  0  0  0  0  0  0  0  0  0
   -6.2870   15.0080   -0.1420 C   0  0  1  0  0  0  0  0  0  0  0  0
   -4.2030   15.3980    1.2510 C   0  0  0  0  0  0  0  0  0  0  0  0
   -7.5970   14.4530   -0.1080 O   0  0  0  0  0  0  0  0  0  0  0  0
   -5.6110   14.8170    1.2220 C   0  0  0  0  0  0  0  0  0  0  0  0
  2  1  1  0
  2  3  1  6
  1  4  1  0
  2  5  1  0
  4  6  1  0
  2  7  1  0
  5  8  1  0
  7  9  1  6
  7 10  1  0
  8 11  1  0
  9 12  1  0
 10 13  1  0
 12 13  1  0
 10 14  1  1
 11 15  1  6
 12 16  1  0
 11 17  1  0
 14 18  1  0
 13 19  1  1
 17 20  1  1
 17 21  1  0
 18 22  1  0
 19 22  1  0
 20 23  1  0
 21 24  1  0
 23 25  1  1
 23 26  1  0
 24 26  1  0
M  CHG  1   6  -1
M  END
