ucsf371-ucsf016
     RDKit          3D

 22 25  0  0  0  0  0  0  0  0999 V2000
   -4.6410   15.8510   -0.1610 C   0  0  0  0  0  0  0  0  0  0  0  0
   -3.9000   15.3830   -1.3920 C   0  0  2  0  0  0  0  0  0  0  0  0
   -4.6810   14.3160   -2.0410 N   0  0  0  0  0  0  0  0  0  0  0  0
   -2.2980   14.7110   -1.0810 S   0  0  2  0  0  0  0  0  0  0  0  0
   -3.8820   13.0540   -2.0480 C   0  0  0  0  0  0  0  0  0  0  0  0
   -2.4030   13.4240   -2.2850 C   0  0  2  0  0  0  0  0  0  0  0  0
   -2.1330   14.2360    0.5810 C   0  0  0  0  0  0  0  0  0  0  0  0
   -0.8840   15.7060   -1.4070 C   0  0  2  0  0  0  0  0  0  0  0  0
   -1.3340   12.3010   -2.1520 C   0  0  1  0  0  0  0  0  0  0  0  0
   -0.5260   15.8880   -2.8390 N   0  0  0  0  0  0  0  0  0  0  0  0
    0.2290   15.0940   -0.6640 N   0  0  0  0  0  0  0  0  0  0  0  0
   -1.2800   15.2350    1.1860 N   0  0  0  0  0  0  0  0  0  0  0  0
   -0.5190   12.3950   -3.3150 O   0  0  0  0  0  0  0  0  0  0  0  0
   -0.4110   12.5650   -1.2260 O   0  0  0  0  0  0  0  0  0  0  0  0
    0.4910   14.9190   -3.3210 C   0  0  0  0  0  0  0  0  0  0  0  0
   -1.6190   16.1840   -3.8200 C   0  0  0  0  0  0  0  0  0  0  0  0
    0.0540   14.8780    0.7700 C   0  0  0  0  0  0  0  0  0  0  0  0
   -2.0870   15.0420   -4.7540 C   0  0  0  0  0  0  0  0  0  0  0  0
    0.3450   14.5880   -4.8120 C   0  0  0  0  0  0  0  0  0  0  0  0
   -3.5200   14.5560   -4.6120 C   0  0  0  0  0  0  0  0  0  0  0  0
   -3.1400   15.3690   -5.8070 C   0  0  0  0  0  0  0  0  0  0  0  0
   -1.0320   14.0420   -5.1460 C   0  0  0  0  0  0  0  0  0  0  0  0
  2  1  1  1
  2  3  1  0
  2  4  1  0
  3  5  1  0
  4  6  1  0
  6  5  1  1
  4  7  1  1
  4  8  1  0
  6  9  1  0
  8 10  1  6
  8 11  1  0
  7 12  1  0
  9 13  1  6
  9 14  1  0
 10 15  1  0
 10 16  1  0
 11 17  1  0
 12 17  1  0
 18 16  1  0
 15 19  1  0
 18 20  1  0
 18 21  1  0
 20 21  1  0
 18 22  1  0
 19 22  1  0
M  CHG  1  14  -1
M  END
