ucsf213-ucsf396
     RDKit          3D

 24 26  0  0  0  0  0  0  0  0999 V2000
    0.6260   10.5810   -2.2350 O   0  0  0  0  0  0  0  0  0  0  0  0
    0.0470   11.7560   -2.2900 C   0  0  1  0  0  0  0  0  0  0  0  0
    0.5180   12.3520   -1.1050 O   0  0  0  0  0  0  0  0  0  0  0  0
    0.5110   12.7220   -3.4040 C   0  0  0  0  0  0  0  0  0  0  0  0
   -0.4940   13.8730   -3.6570 C   0  0  1  0  0  0  0  0  0  0  0  0
   -0.5860   15.2660   -2.9740 C   0  0  1  0  0  0  0  0  0  0  0  0
   -1.2740   14.1000   -5.2840 S   0  0  0  0  0  0  0  0  0  0  0  0
   -0.0960   15.5910   -1.5570 C   0  0  0  0  0  0  0  0  0  0  0  0
   -0.7130   16.4500   -3.9660 C   0  0  2  0  0  0  0  0  0  0  0  0
   -1.1170   15.9110   -5.2820 C   0  0  2  0  0  0  0  0  0  0  0  0
   -1.1080   15.2780   -0.4200 C   0  0  0  0  0  0  0  0  0  0  0  0
    0.3100   17.5330   -4.2750 C   0  0  0  0  0  0  0  0  0  0  0  0
   -2.2510   16.8020   -5.7250 C   0  0  0  0  0  0  0  0  0  0  0  0
   -2.5450   15.1700   -0.7770 N   0  0  0  0  0  0  0  0  0  0  0  0
   -0.1570   18.2190   -5.5860 C   0  0  0  0  0  0  0  0  0  0  0  0
   -1.6970   18.2240   -5.7680 C   0  0  0  0  0  0  0  0  0  0  0  0
   -3.5570   15.2580    0.2960 C   0  0  2  0  0  0  0  0  0  0  0  0
   -2.9720   14.7800    1.5070 O   0  0  0  0  0  0  0  0  0  0  0  0
   -4.9800   14.6580    0.0560 C   0  0  2  0  0  0  0  0  0  0  0  0
   -5.8410   15.4500   -0.9570 C   0  0  0  0  0  0  0  0  0  0  0  0
   -5.7170   14.4430    1.3850 C   0  0  0  0  0  0  0  0  0  0  0  0
   -7.2970   15.1790   -1.0140 N   0  0  0  0  0  0  0  0  0  0  0  0
   -7.2380   14.3650    1.3110 C   0  0  0  0  0  0  0  0  0  0  0  0
   -7.7440   14.1420   -0.1000 C   0  0  0  0  0  0  0  0  0  0  0  0
  2  1  1  6
  2  3  1  0
  2  4  1  0
  5  4  1  6
  5  6  1  0
  5  7  1  0
  6  8  1  6
  6  9  1  0
  7 10  1  0
  9 10  1  0
  8 11  1  0
  9 12  1  6
 10 13  1  1
 11 14  1  0
 12 15  1  0
 13 16  1  0
 15 16  1  0
 14 17  1  0
 17 18  1  1
 17 19  1  0
 19 20  1  6
 19 21  1  0
 20 22  1  0
 21 23  1  0
 22 24  1  0
 23 24  1  0
M  CHG  1   1  -1
M  END
