ucsf243-ucsf248
     RDKit          3D

 19 20  0  0  0  0  0  0  0  0999 V2000
   -3.9190   15.9030    1.2540 C   0  0  0  0  0  0  0  0  0  0  0  0
   -3.6370   15.6040   -0.2190 C   0  0  2  0  0  0  0  0  0  0  0  0
   -4.6610   14.6820   -0.8610 C   0  0  1  0  0  0  0  0  0  0  0  0
   -2.1850   15.1490   -0.4320 C   0  0  0  0  0  0  0  0  0  0  0  0
   -1.7550   15.1670   -1.9110 C   0  0  1  0  0  0  0  0  0  0  0  0
   -4.2880   14.6090   -2.3940 C   0  0  0  0  0  0  0  0  0  0  0  0
   -4.5810   13.3580   -0.1060 C   0  0  0  0  0  0  0  0  0  0  0  0
   -6.1160   15.0750   -0.4870 N   0  0  0  0  0  0  0  0  0  0  0  0
   -0.2430   14.7460   -2.0440 C   0  0  2  0  0  0  0  0  0  0  0  0
   -2.7790   14.3660   -2.7550 C   0  0  1  0  0  0  0  0  0  0  0  0
   -6.6330   14.0170    0.4260 C   0  0  1  0  0  0  0  0  0  0  0  0
   -5.4170   13.5870    1.0640 N   0  0  0  0  0  0  0  0  0  0  0  0
   -2.6020   14.6170   -4.1600 O   0  0  0  0  0  0  0  0  0  0  0  0
   -0.0040   14.1460   -3.3020 O   0  0  0  0  0  0  0  0  0  0  0  0
    0.0650   13.7630   -1.2180 O   0  0  0  0  0  0  0  0  0  0  0  0
   -7.9170   14.3450    1.7000 S   0  0  0  0  0  0  0  0  0  0  0  0
   -8.5940   13.0480    2.4680 N   0  0  0  0  0  0  0  0  0  0  0  0
   -7.1710   15.2190    2.8250 O   0  0  0  0  0  0  0  0  0  0  0  0
   -9.0670   15.2280    1.0090 O   0  0  0  0  0  0  0  0  0  0  0  0
  2  1  1  1
  2  3  1  0
  2  4  1  0
  5  4  1  1
  3  6  1  6
  3  7  1  0
  3  8  1  0
  5  9  1  0
  5 10  1  0
  6 10  1  0
  8 11  1  0
  7 12  1  0
 11 12  1  0
 10 13  1  6
  9 14  1  6
  9 15  1  0
 11 16  1  1
 16 17  1  0
 16 18  1  0
 16 19  1  0
M  CHG  1  15  -1
M  END
