ucsf367-ucsf365
     RDKit          3D

 18 19  0  0  0  0  0  0  0  0999 V2000
    0.8040   11.2410   -2.1010 O   0  0  0  0  0  0  0  0  0  0  0  0
    0.8120   12.3430   -2.8300 C   0  0  1  0  0  0  0  0  0  0  0  0
    2.1590   12.4500   -3.2170 O   0  0  0  0  0  0  0  0  0  0  0  0
   -0.1400   12.1290   -4.0440 C   0  0  2  0  0  0  0  0  0  0  0  0
    0.3680   11.4040   -5.1850 O   0  0  0  0  0  0  0  0  0  0  0  0
   -1.0040   13.2910   -4.6080 C   0  0  2  0  0  0  0  0  0  0  0  0
   -0.4090   10.2060   -5.3750 C   0  0  0  0  0  0  0  0  0  0  0  0
   -1.6570   12.9420   -5.9190 C   0  0  1  0  0  0  0  0  0  0  0  0
   -0.4640   14.7040   -4.7490 C   0  0  0  0  0  0  0  0  0  0  0  0
   -1.8930   11.5670   -6.0760 O   0  0  0  0  0  0  0  0  0  0  0  0
   -0.5260    9.8670   -6.8650 C   0  0  0  0  0  0  0  0  0  0  0  0
   -1.7760   10.4160   -4.6990 C   0  0  0  0  0  0  0  0  0  0  0  0
   -3.0140   13.6200   -5.9470 C   0  0  0  0  0  0  0  0  0  0  0  0
   -1.6440   15.6730   -4.9830 C   0  0  0  0  0  0  0  0  0  0  0  0
   -1.4320    8.6640   -7.1590 C   0  0  0  0  0  0  0  0  0  0  0  0
   -2.9530    9.7990   -5.4610 C   0  0  0  0  0  0  0  0  0  0  0  0
   -2.9540   15.1140   -5.5960 C   0  0  0  0  0  0  0  0  0  0  0  0
   -2.5980    8.5130   -6.1920 C   0  0  0  0  0  0  0  0  0  0  0  0
  2  1  1  1
  2  3  1  0
  2  4  1  0
  4  5  1  6
  4  6  1  0
  5  7  1  0
  6  8  1  0
  6  9  1  6
  8 10  1  1
  7 11  1  0
  7 12  1  0
  8 13  1  0
  9 14  1  0
 11 15  1  0
 12 16  1  0
 13 17  1  0
 14 17  1  0
 15 18  1  0
 16 18  1  0
M  CHG  1   1  -1
M  END
