ucsf364-ucsf371
     RDKit          3D

 19 20  0  0  0  0  0  0  0  0999 V2000
    2.4860   13.0010   -4.6120 C   0  0  0  0  0  0  0  0  0  0  0  0
    0.9740   12.8870   -4.8670 C   0  0  1  0  0  0  0  0  0  0  0  0
    0.6770   12.2390   -6.2350 C   0  0  1  0  0  0  0  0  0  0  0  0
    0.2660   12.2170   -3.6640 C   0  0  1  0  0  0  0  0  0  0  0  0
    1.8720   11.8610   -6.8870 O   0  0  0  0  0  0  0  0  0  0  0  0
    0.5190   12.9500   -2.2820 C   0  0  1  0  0  0  0  0  0  0  0  0
   -1.1900   11.8550   -4.0120 C   0  0  0  0  0  0  0  0  0  0  0  0
   -0.3170   11.0670   -6.3160 C   0  0  0  0  0  0  0  0  0  0  0  0
   -0.1110   14.2540   -2.2770 O   0  0  0  0  0  0  0  0  0  0  0  0
   -0.0260   12.2730   -1.2850 O   0  0  0  0  0  0  0  0  0  0  0  0
   -1.3920   10.9700   -5.2360 C   0  0  0  0  0  0  0  0  0  0  0  0
   -1.2730   14.4370   -3.0750 C   0  0  2  0  0  0  0  0  0  0  0  0
   -0.7900   14.9730   -4.3080 O   0  0  0  0  0  0  0  0  0  0  0  0
   -2.2820   15.4100   -2.4540 C   0  0  1  0  0  0  0  0  0  0  0  0
   -3.7120   15.0670   -2.8980 C   0  0  0  0  0  0  0  0  0  0  0  0
   -2.3560   15.4090   -0.6190 S   0  0  0  0  0  0  0  0  0  0  0  0
   -4.0520   14.8150   -0.5830 C   0  0  2  0  0  0  0  0  0  0  0  0
   -4.6910   15.2830   -1.8070 N   0  0  0  0  0  0  0  0  0  0  0  0
   -4.7770   15.3130    0.6600 C   0  0  0  0  0  0  0  0  0  0  0  0
  2  1  1  1
  2  3  1  0
  2  4  1  0
  3  5  1  1
  4  6  1  0
  4  7  1  6
  3  8  1  0
  6  9  1  0
  6 10  1  1
  7 11  1  0
  8 11  1  0
  9 12  1  0
 12 13  1  6
 12 14  1  0
 14 15  1  6
 14 16  1  0
 16 17  1  0
 15 18  1  0
 17 18  1  0
 17 19  1  1
M  CHG  1  10  -1
M  END
