ucsf247-ucsf442
     RDKit          3D

 19 20  0  0  0  0  0  0  0  0999 V2000
    0.5400   13.2770   -1.8890 O   0  0  0  0  0  0  0  0  0  0  0  0
    0.2550   13.7710   -3.0840 C   0  0  2  0  0  0  0  0  0  0  0  0
    1.5060   14.3070   -3.4770 O   0  0  0  0  0  0  0  0  0  0  0  0
   -0.7930   14.9370   -3.0080 C   0  0  0  0  0  0  0  0  0  0  0  0
   -2.1340   14.4580   -3.3940 N   0  0  0  0  0  0  0  0  0  0  0  0
   -3.3110   15.2440   -3.1490 C   0  0  1  0  0  0  0  0  0  0  0  0
   -4.1680   15.1920   -4.2530 O   0  0  0  0  0  0  0  0  0  0  0  0
   -4.0470   14.7330   -1.8850 C   0  0  2  0  0  0  0  0  0  0  0  0
   -5.4380   15.2830   -1.5400 C   0  0  0  0  0  0  0  0  0  0  0  0
   -3.1550   14.7230   -0.6570 C   0  0  2  0  0  0  0  0  0  0  0  0
   -5.9970   14.6470   -0.2710 C   0  0  2  0  0  0  0  0  0  0  0  0
   -3.6930   14.4150    0.7280 C   0  0  2  0  0  0  0  0  0  0  0  0
   -2.3240   15.9430   -0.4940 C   0  0  0  0  0  0  0  0  0  0  0  0
   -7.3330   15.1010   -0.0490 O   0  0  0  0  0  0  0  0  0  0  0  0
   -5.0970   14.9730    0.9280 C   0  0  0  0  0  0  0  0  0  0  0  0
   -2.6390   14.7380    1.6880 N   0  0  0  0  0  0  0  0  0  0  0  0
   -1.0880   15.6410    0.1510 N   0  0  0  0  0  0  0  0  0  0  0  0
   -1.3220   14.5890    1.0820 C   0  0  1  0  0  0  0  0  0  0  0  0
   -0.3580   14.5780    2.0690 O   0  0  0  0  0  0  0  0  0  0  0  0
  2  1  1  1
  2  3  1  0
  2  4  1  0
  4  5  1  0
  5  6  1  0
  6  7  1  6
  6  8  1  0
  8  9  1  1
  8 10  1  0
  9 11  1  0
 10 12  1  0
 10 13  1  1
 11 14  1  1
 11 15  1  0
 12 15  1  1
 12 16  1  0
 13 17  1  0
 16 18  1  0
 17 18  1  0
 18 19  1  1
M  CHG  1   1  -1
M  END
