ucsf385-ucsf224
     RDKit          3D

 23 24  0  0  0  0  0  0  0  0999 V2000
   -3.6720   13.9310   -1.2310 N   0  0  0  0  0  0  0  0  0  0  0  0
   -2.7600   14.7680   -0.4240 C   0  0  1  0  0  0  0  0  0  0  0  0
   -2.8620   14.3990    1.0620 C   0  0  0  0  0  0  0  0  0  0  0  0
   -1.2550   14.6980   -0.8120 C   0  0  2  0  0  0  0  0  0  0  0  0
   -0.9480   14.7320   -2.3310 C   0  0  1  0  0  0  0  0  0  0  0  0
   -0.5210   13.6260   -0.0030 C   0  0  0  0  0  0  0  0  0  0  0  0
   -1.6730   14.8000    1.8140 N   0  0  0  0  0  0  0  0  0  0  0  0
    0.3690   15.2920   -2.4620 O   0  0  0  0  0  0  0  0  0  0  0  0
   -0.9040   13.4830   -2.7320 O   0  0  0  0  0  0  0  0  0  0  0  0
   -0.4850   14.0320    1.4600 C   0  0  0  0  0  0  0  0  0  0  0  0
    1.3900   14.4060   -2.0070 C   0  0  0  0  0  0  0  0  0  0  0  0
    0.8770   13.0990   -1.9800 O   0  0  0  0  0  0  0  0  0  0  0  0
    1.3730   12.2370   -2.9910 C   0  0  1  0  0  0  0  0  0  0  0  0
    0.6630   11.1150   -2.8920 O   0  0  0  0  0  0  0  0  0  0  0  0
    1.2000   12.7780   -4.4720 C   0  0  0  0  0  0  0  0  0  0  0  0
    0.7350   14.2400   -4.8570 C   0  0  1  0  0  0  0  0  0  0  0  0
   -0.8010   14.3140   -4.9840 C   0  0  0  0  0  0  0  0  0  0  0  0
    1.3120   15.4660   -4.1190 C   0  0  0  0  0  0  0  0  0  0  0  0
   -1.4070   15.7090   -4.7540 C   0  0  2  0  0  0  0  0  0  0  0  0
    0.8970   16.8320   -4.6840 C   0  0  0  0  0  0  0  0  0  0  0  0
   -3.0260   15.7620   -5.5570 Cl  0  0  0  0  0  0  0  0  0  0  0  0
   -0.5100   16.8520   -5.2520 C   0  0  2  0  0  0  0  0  0  0  0  0
   -1.2820   18.4610   -5.0430 Cl  0  0  0  0  0  0  0  0  0  0  0  0
  2  1  1  6
  2  3  1  0
  2  4  1  0
  4  5  1  0
  4  6  1  6
  3  7  1  0
  5  8  1  0
  5  9  1  1
  6 10  1  0
  7 10  1  0
  8 11  1  0
 11 12  1  0
 12 13  1  0
 13 14  1  6
 13 15  1  0
 16 15  1  1
 16 17  1  0
 16 18  1  0
 17 19  1  0
 18 20  1  0
 19 21  1  6
 19 22  1  0
 20 22  1  0
 22 23  1  1
M  CHG  2   9  -1  14  -1
M  END
