ucsf224-ucsf169
     RDKit          3D

 14 14  0  0  0  0  0  0  0  0999 V2000
   -1.3850   17.9450   -5.1640 Cl  0  0  0  0  0  0  0  0  0  0  0  0
   -0.5830   16.4390   -4.5520 C   0  0  1  0  0  0  0  0  0  0  0  0
   -1.2390   15.1560   -5.0050 C   0  0  2  0  0  0  0  0  0  0  0  0
    0.8960   16.4240   -4.8180 C   0  0  2  0  0  0  0  0  0  0  0  0
   -3.0280   15.3410   -5.2060 Cl  0  0  0  0  0  0  0  0  0  0  0  0
    1.0590   17.1650   -6.0120 O   0  0  0  0  0  0  0  0  0  0  0  0
   -0.9050   14.1250   -3.9700 C   0  0  0  0  0  0  0  0  0  0  0  0
    1.3630   14.9550   -4.7710 C   0  0  0  0  0  0  0  0  0  0  0  0
    1.1320   18.5330   -5.7050 C   0  0  0  0  0  0  0  0  0  0  0  0
    0.6160   14.0830   -3.7210 C   0  0  2  0  0  0  0  0  0  0  0  0
    1.0710   12.6070   -3.5270 C   0  0  0  0  0  0  0  0  0  0  0  0
    0.2230   11.8370   -2.4710 C   0  0  1  0  0  0  0  0  0  0  0  0
    0.5710   10.5800   -2.2700 O   0  0  0  0  0  0  0  0  0  0  0  0
    0.4560   12.4290   -1.2130 O   0  0  0  0  0  0  0  0  0  0  0  0
  2  1  1  6
  2  3  1  0
  2  4  1  0
  3  5  1  1
  4  6  1  6
  3  7  1  0
  4  8  1  0
  6  9  1  0
  7 10  1  0
  8 10  1  0
 10 11  1  6
 11 12  1  0
 12 13  1  1
 12 14  1  0
M  CHG  1  13  -1
M  END
