ucsf123-ucsf404
     RDKit          3D

 25 27  0  0  0  0  0  0  0  0999 V2000
   -1.7660   18.7090   -4.8120 N   0  0  0  0  0  0  0  0  0  0  0  0
   -1.3670   17.4400   -5.7510 S   0  0  0  0  0  0  0  0  0  0  0  0
   -0.3040   17.9700   -6.8080 O   0  0  0  0  0  0  0  0  0  0  0  0
   -2.6270   16.9900   -6.6220 O   0  0  0  0  0  0  0  0  0  0  0  0
   -0.6250   15.9700   -5.0370 C   0  0  1  0  0  0  0  0  0  0  0  0
    0.4960   16.2820   -4.0530 C   0  0  0  0  0  0  0  0  0  0  0  0
   -1.6840   15.0430   -4.4440 C   0  0  0  0  0  0  0  0  0  0  0  0
    1.1070   14.9970   -3.5040 C   0  0  0  0  0  0  0  0  0  0  0  0
   -1.0970   13.8160   -3.7060 C   0  0  1  0  0  0  0  0  0  0  0  0
    0.0570   14.1550   -2.7360 C   0  0  1  0  0  0  0  0  0  0  0  0
   -2.2060   13.0360   -2.9990 C   0  0  0  0  0  0  0  0  0  0  0  0
    0.6220   12.8930   -1.9750 C   0  0  2  0  0  0  0  0  0  0  0  0
   -3.1590   13.7550   -2.0170 C   0  0  2  0  0  0  0  0  0  0  0  0
    1.9980   12.7710   -2.2110 O   0  0  0  0  0  0  0  0  0  0  0  0
    0.1660   11.7370   -2.4300 O   0  0  0  0  0  0  0  0  0  0  0  0
   -4.1810   14.6710   -2.7130 C   0  0  0  0  0  0  0  0  0  0  0  0
   -2.7120   14.4330   -0.7200 C   0  0  0  0  0  0  0  0  0  0  0  0
   -3.9790   14.4260    0.1310 C   0  0  2  0  0  0  0  0  0  0  0  0
   -5.4510   14.5130   -1.9000 C   0  0  2  0  0  0  0  0  0  0  0  0
   -6.9090   15.2040   -2.6330 Cl  0  0  0  0  0  0  0  0  0  0  0  0
   -5.2140   15.0720   -0.5180 C   0  0  1  0  0  0  0  0  0  0  0  0
   -4.0620   15.3550    1.6540 S   0  0  0  0  0  0  0  0  0  0  0  0
   -5.6950   14.5740    1.6500 C   0  0  2  0  0  0  0  0  0  0  0  0
   -6.3270   14.8690    0.4160 N   0  0  0  0  0  0  0  0  0  0  0  0
   -6.5180   15.0170    2.7260 N   0  0  0  0  0  0  0  0  0  0  0  0
  1  2  1  0
  2  3  1  0
  2  4  1  0
  5  2  1  1
  5  6  1  0
  5  7  1  0
  6  8  1  0
  7  9  1  0
 10  8  1  6
  9 10  1  0
  9 11  1  1
 10 12  1  0
 13 11  1  6
 12 14  1  6
 12 15  1  0
 13 16  1  0
 13 17  1  0
 18 17  1  6
 16 19  1  0
 19 20  1  6
 18 21  1  0
 19 21  1  0
 18 22  1  0
 22 23  1  0
 21 24  1  1
 23 24  1  0
 23 25  1  1
M  CHG  1  15  -1
M  END
