ucsf333-ucsf258
     RDKit          3D

 20 22  0  0  0  0  0  0  0  0999 V2000
   -6.4420   14.2460    0.7590 Cl  0  0  0  0  0  0  0  0  0  0  0  0
   -4.9610   14.0020   -0.2350 C   0  0  1  0  0  0  0  0  0  0  0  0
   -4.7640   15.2250   -1.2080 C   0  0  1  0  0  0  0  0  0  0  0  0
   -3.7410   13.6890    0.6720 C   0  0  0  0  0  0  0  0  0  0  0  0
   -5.3450   16.4000   -0.6220 O   0  0  0  0  0  0  0  0  0  0  0  0
   -3.2820   15.5350   -1.5200 C   0  0  1  0  0  0  0  0  0  0  0  0
   -2.5530   14.1910   -0.1310 C   0  0  2  0  0  0  0  0  0  0  0  0
   -1.2290   13.3380   -0.6470 C   0  0  1  0  0  0  0  0  0  0  0  0
   -2.5640   15.7010   -0.2770 C   0  0  1  0  0  0  0  0  0  0  0  0
   -2.4560   14.2820   -1.8930 C   0  0  0  0  0  0  0  0  0  0  0  0
   -0.2070   14.0790   -1.7370 C   0  0  1  0  0  0  0  0  0  0  0  0
   -0.4850   12.9100    0.3620 O   0  0  0  0  0  0  0  0  0  0  0  0
   -1.7110   13.5880   -0.6890 N   0  0  0  0  0  0  0  0  0  0  0  0
   -0.8690   15.9290   -0.2810 S   0  0  2  0  0  0  0  0  0  0  0  0
   -0.1710   13.2680   -3.0830 C   0  0  0  0  0  0  0  0  0  0  0  0
   -0.4050   15.6250   -1.9150 C   0  0  0  0  0  0  0  0  0  0  0  0
   -0.8900   14.3660    0.3650 C   0  0  0  0  0  0  0  0  0  0  0  0
    0.6380   11.9430   -3.0470 C   0  0  2  0  0  0  0  0  0  0  0  0
    1.9330   12.1600   -3.1680 O   0  0  0  0  0  0  0  0  0  0  0  0
    0.3820   11.2740   -4.2740 O   0  0  0  0  0  0  0  0  0  0  0  0
  2  1  1  1
  2  3  1  0
  2  4  1  0
  3  5  1  1
  3  6  1  0
  7  4  1  1
  7  8  1  0
  6  9  1  0
  7  9  1  0
  6 10  1  1
  8 11  1  0
  8 12  1  1
 10 13  1  0
  9 14  1  6
 11 15  1  6
 11 16  1  0
 14 16  1  6
 13 17  1  0
 14 17  1  0
 15 18  1  0
 18 19  1  6
 18 20  1  0
M  CHG  2  12  -1  19  -1
M  END
