ucsf365-ucsf520
     RDKit          3D

 27 30  0  0  0  0  0  0  0  0999 V2000
    0.5910   10.5520   -2.1610 O   0  0  0  0  0  0  0  0  0  0  0  0
    0.4900   11.8430   -2.4090 C   0  0  1  0  0  0  0  0  0  0  0  0
    1.7670   12.3630   -2.1300 O   0  0  0  0  0  0  0  0  0  0  0  0
    0.2760   12.1110   -3.8980 C   0  0  0  0  0  0  0  0  0  0  0  0
   -1.1990   12.4940   -4.1730 C   0  0  2  0  0  0  0  0  0  0  0  0
   -1.8040   11.6730   -5.3110 C   0  0  1  0  0  0  0  0  0  0  0  0
   -1.3150   13.9360   -4.5820 C   0  0  2  0  0  0  0  0  0  0  0  0
   -1.6020   10.2940   -5.0160 O   0  0  0  0  0  0  0  0  0  0  0  0
   -1.6600   15.0810   -3.6290 C   0  0  1  0  0  0  0  0  0  0  0  0
   -3.2890   11.9830   -5.5420 C   0  0  0  0  0  0  0  0  0  0  0  0
   -2.2140   14.1770   -5.7910 C   0  0  0  0  0  0  0  0  0  0  0  0
   -3.5250   13.4600   -5.7780 C   0  0  0  0  0  0  0  0  0  0  0  0
   -2.2140   15.0870   -2.1960 N   0  0  0  0  0  0  0  0  0  0  0  0
   -0.8920   16.2090   -4.3380 C   0  0  1  0  0  0  0  0  0  0  0  0
   -3.6430   14.7930   -2.1820 C   0  0  0  0  0  0  0  0  0  0  0  0
   -1.5720   14.4710   -1.0210 C   0  0  2  0  0  0  0  0  0  0  0  0
   -1.5430   17.4950   -4.4960 O   0  0  0  0  0  0  0  0  0  0  0  0
    0.5480   16.4750   -4.0920 C   0  0  0  0  0  0  0  0  0  0  0  0
   -4.2890   15.2100   -0.9420 N   0  0  0  0  0  0  0  0  0  0  0  0
   -2.2070   14.8150    0.3270 C   0  0  1  0  0  0  0  0  0  0  0  0
   -0.2250   14.8800   -0.6600 N   0  0  0  0  0  0  0  0  0  0  0  0
    0.7710   17.5520   -5.1230 C   0  0  0  0  0  0  0  0  0  0  0  0
   -0.6220   18.1230   -5.3940 C   0  0  0  0  0  0  0  0  0  0  0  0
   -3.7400   14.6560    0.2720 C   0  0  1  0  0  0  0  0  0  0  0  0
   -1.3800   14.0290    1.2240 N   0  0  0  0  0  0  0  0  0  0  0  0
   -0.0550   14.3430    0.6850 C   0  0  0  0  0  0  0  0  0  0  0  0
   -4.4630   15.3720    1.3100 N   0  0  0  0  0  0  0  0  0  0  0  0
  2  1  1  6
  2  3  1  0
  2  4  1  0
  5  4  1  6
  5  6  1  0
  5  7  1  0
  6  8  1  1
  7  9  1  0
  6 10  1  0
  7 11  1  6
 10 12  1  0
 11 12  1  0
  9 13  1  1
  9 14  1  0
 13 15  1  0
 13 16  1  0
 14 17  1  0
 14 18  1  1
 15 19  1  0
 16 20  1  0
 16 21  1  1
 18 22  1  0
 17 23  1  0
 22 23  1  0
 19 24  1  0
 20 24  1  0
 20 25  1  1
 21 26  1  0
 25 26  1  0
 24 27  1  1
M  CHG  1   1  -1
M  END
