ucsf274-ucsf422
     RDKit          3D

 26 29  0  0  0  0  0  0  0  0999 V2000
    0.4570   10.6560   -2.0240 O   0  0  0  0  0  0  0  0  0  0  0  0
    0.8520   11.9180   -2.1560 C   0  0  2  0  0  0  0  0  0  0  0  0
    0.5090   12.5040   -0.9340 O   0  0  0  0  0  0  0  0  0  0  0  0
   -0.0420   12.6300   -3.1440 C   0  0  0  0  0  0  0  0  0  0  0  0
    0.5660   12.6820   -4.5520 C   0  0  1  0  0  0  0  0  0  0  0  0
   -0.4390   12.0010   -5.5260 C   0  0  2  0  0  0  0  0  0  0  0  0
    0.8970   14.1380   -4.8980 C   0  0  2  0  0  0  0  0  0  0  0  0
   -1.6180   11.2660   -4.7880 C   0  0  1  0  0  0  0  0  0  0  0  0
    0.2130   11.1080   -6.5290 N   0  0  0  0  0  0  0  0  0  0  0  0
    1.8130   14.9160   -3.9720 C   0  0  0  0  0  0  0  0  0  0  0  0
   -0.2540   15.0700   -5.1420 C   0  0  2  0  0  0  0  0  0  0  0  0
   -2.2860   12.1930   -3.9270 O   0  0  0  0  0  0  0  0  0  0  0  0
   -2.6320   10.6890   -5.6250 N   0  0  0  0  0  0  0  0  0  0  0  0
   -0.7000   10.2390   -7.3090 C   0  0  2  0  0  0  0  0  0  0  0  0
    1.4790   16.3430   -4.1740 N   0  0  0  0  0  0  0  0  0  0  0  0
    0.4900   16.4020   -5.2440 C   0  0  2  0  0  0  0  0  0  0  0  0
   -1.4920   15.1250   -4.2630 C   0  0  0  0  0  0  0  0  0  0  0  0
   -2.1050    9.8710   -6.7160 C   0  0  1  0  0  0  0  0  0  0  0  0
    0.0230    9.0230   -7.9250 C   0  0  0  0  0  0  0  0  0  0  0  0
   -0.4060   17.6260   -5.1320 C   0  0  0  0  0  0  0  0  0  0  0  0
   -2.5080   16.1500   -4.7500 C   0  0  2  0  0  0  0  0  0  0  0  0
   -3.8010   15.2770   -5.9510 Br  0  0  0  0  0  0  0  0  0  0  0  0
   -0.9050    7.9670   -8.5060 C   0  0  0  0  0  0  0  0  0  0  0  0
   -2.1320    8.4000   -6.3110 C   0  0  0  0  0  0  0  0  0  0  0  0
   -1.8800   17.3610   -5.4660 C   0  0  0  0  0  0  0  0  0  0  0  0
   -1.9400    7.4660   -7.5030 C   0  0  0  0  0  0  0  0  0  0  0  0
  2  1  1  1
  2  3  1  0
  2  4  1  0
  5  4  1  1
  5  6  1  0
  5  7  1  0
  6  8  1  0
  6  9  1  1
  7 10  1  1
  7 11  1  0
  8 12  1  1
  8 13  1  0
  9 14  1  0
 10 15  1  0
 11 16  1  0
 15 16  1  0
 11 17  1  1
 13 18  1  0
 14 18  1  0
 14 19  1  1
 16 20  1  1
 17 21  1  0
 21 22  1  6
 19 23  1  0
 18 24  1  1
 20 25  1  0
 21 25  1  0
 23 26  1  0
 24 26  1  0
M  CHG  1   1  -1
M  END
