ucsf424-ucsf333
     RDKit          3D

 24 27  0  0  0  0  0  0  0  0999 V2000
    1.5170   12.0620   -2.7380 O   0  0  0  0  0  0  0  0  0  0  0  0
    0.5110   11.5460   -3.4140 C   0  0  1  0  0  0  0  0  0  0  0  0
   -0.4870   11.3780   -2.4370 O   0  0  0  0  0  0  0  0  0  0  0  0
    0.0080   12.5430   -4.4990 C   0  0  1  0  0  0  0  0  0  0  0  0
    0.4580   13.9880   -4.0910 C   0  0  0  0  0  0  0  0  0  0  0  0
    0.0560   12.1990   -6.0400 C   0  0  1  0  0  0  0  0  0  0  0  0
    1.2900   11.7300   -6.7150 N   0  0  0  0  0  0  0  0  0  0  0  0
   -1.0380   11.1850   -6.4810 C   0  0  1  0  0  0  0  0  0  0  0  0
   -0.5480   14.2960   -2.9880 C   0  0  2  0  0  0  0  0  0  0  0  0
    0.9220   10.5890   -7.5530 O   0  0  0  0  0  0  0  0  0  0  0  0
   -0.2290   10.0110   -6.9430 C   0  0  2  0  0  0  0  0  0  0  0  0
   -2.0970   10.6540   -5.4940 C   0  0  0  0  0  0  0  0  0  0  0  0
   -1.7350   14.9950   -3.4060 N   0  0  0  0  0  0  0  0  0  0  0  0
   -0.1440   15.1620   -1.4420 S   0  0  0  0  0  0  0  0  0  0  0  0
   -1.0140    9.1210   -7.8820 C   0  0  0  0  0  0  0  0  0  0  0  0
   -2.5330    9.2150   -5.8030 C   0  0  0  0  0  0  0  0  0  0  0  0
   -2.6110   14.5580   -2.3340 C   0  0  1  0  0  0  0  0  0  0  0  0
   -1.8640   14.7400   -0.9780 C   0  0  2  0  0  0  0  0  0  0  0  0
   -2.3980    8.8370   -7.2860 C   0  0  0  0  0  0  0  0  0  0  0  0
   -3.9550   15.2510   -2.3660 C   0  0  0  0  0  0  0  0  0  0  0  0
   -2.5720   15.7200   -0.0490 C   0  0  0  0  0  0  0  0  0  0  0  0
   -4.7650   14.9240   -1.1170 C   0  0  1  0  0  0  0  0  0  0  0  0
   -4.0750   15.4280    0.1500 C   0  0  0  0  0  0  0  0  0  0  0  0
   -6.4320   15.5690   -1.2660 Cl  0  0  0  0  0  0  0  0  0  0  0  0
  2  1  1  1
  2  3  1  0
  2  4  1  0
  4  5  1  6
  4  6  1  0
  6  7  1  1
  6  8  1  0
  9  5  1  6
  7 10  1  0
  8 11  1  0
 10 11  1  0
  8 12  1  1
  9 13  1  0
  9 14  1  0
 11 15  1  6
 12 16  1  0
 13 17  1  0
 14 18  1  0
 17 18  1  0
 15 19  1  0
 16 19  1  0
 17 20  1  1
 18 21  1  1
 20 22  1  0
 21 23  1  0
 22 23  1  0
 22 24  1  6
M  CHG  1   1  -1
M  END
