ucsf365-ucsf333
     RDKit          3D

 22 24  0  0  0  0  0  0  0  0999 V2000
    0.1070   10.7870   -2.5000 O   0  0  0  0  0  0  0  0  0  0  0  0
    0.7890   11.9330   -2.5420 C   0  0  2  0  0  0  0  0  0  0  0  0
    0.4580   12.4880   -1.2810 O   0  0  0  0  0  0  0  0  0  0  0  0
    0.5200   12.9850   -3.7070 C   0  0  2  0  0  0  0  0  0  0  0  0
    1.0380   14.4180   -3.3410 C   0  0  0  0  0  0  0  0  0  0  0  0
   -0.9520   13.2470   -4.2340 C   0  0  2  0  0  0  0  0  0  0  0  0
   -1.7210   12.1050   -4.9460 C   0  0  2  0  0  0  0  0  0  0  0  0
   -0.9410   14.4800   -5.1560 C   0  0  0  0  0  0  0  0  0  0  0  0
   -0.0020   15.3440   -2.6520 C   0  0  1  0  0  0  0  0  0  0  0  0
   -0.8330   11.1140   -5.4590 O   0  0  0  0  0  0  0  0  0  0  0  0
   -2.5890   12.6220   -6.1200 C   0  0  0  0  0  0  0  0  0  0  0  0
   -2.3610   15.0320   -5.3490 C   0  0  0  0  0  0  0  0  0  0  0  0
   -1.3900   15.2150   -3.1190 N   0  0  0  0  0  0  0  0  0  0  0  0
   -0.0880   15.0660   -0.8190 S   0  0  0  0  0  0  0  0  0  0  0  0
   -3.3200   13.9480   -5.8230 C   0  0  0  0  0  0  0  0  0  0  0  0
   -2.3760   15.4610   -2.0860 C   0  0  2  0  0  0  0  0  0  0  0  0
   -1.8780   14.7270   -0.8570 C   0  0  2  0  0  0  0  0  0  0  0  0
   -3.8310   15.0790   -2.3890 C   0  0  0  0  0  0  0  0  0  0  0  0
   -2.6980   15.1310    0.3570 C   0  0  0  0  0  0  0  0  0  0  0  0
   -4.7020   15.5100   -1.2030 C   0  0  2  0  0  0  0  0  0  0  0  0
   -4.2130   14.9530    0.1480 C   0  0  0  0  0  0  0  0  0  0  0  0
   -6.4150   15.0870   -1.4770 Cl  0  0  0  0  0  0  0  0  0  0  0  0
  2  1  1  6
  2  3  1  0
  2  4  1  0
  4  5  1  1
  4  6  1  0
  6  7  1  0
  6  8  1  6
  9  5  1  6
  7 10  1  6
  7 11  1  0
  8 12  1  0
  9 13  1  0
  9 14  1  0
 11 15  1  0
 12 15  1  0
 13 16  1  0
 14 17  1  0
 16 17  1  0
 16 18  1  6
 17 19  1  1
 18 20  1  0
 19 21  1  0
 20 21  1  0
 20 22  1  6
M  CHG  1   1  -1
M  END
