ucsf006-ucsf135
     RDKit          3D

 27 30  0  0  0  0  0  0  0  0999 V2000
   -2.2170   15.3390   -3.3090 C   0  0  0  0  0  0  0  0  0  0  0  0
   -1.0370   14.9000   -2.5560 N   0  0  0  0  0  0  0  0  0  0  0  0
    0.2220   15.3610   -3.1750 C   0  0  0  0  0  0  0  0  0  0  0  0
   -1.1120   15.2820   -1.1400 C   0  0  1  0  0  0  0  0  0  0  0  0
    0.4320   15.1680   -4.6860 C   0  0  0  0  0  0  0  0  0  0  0  0
   -2.4720   15.4830   -0.4590 C   0  0  2  0  0  0  0  0  0  0  0  0
   -0.3510   14.2720   -0.4000 N   0  0  0  0  0  0  0  0  0  0  0  0
    1.0840   13.8060   -4.9930 C   0  0  2  0  0  0  0  0  0  0  0  0
   -2.5040   14.7030    0.8030 C   0  0  1  0  0  0  0  0  0  0  0  0
   -0.1560   14.5850    1.0070 C   0  0  0  0  0  0  0  0  0  0  0  0
   -3.7980   15.0270   -1.0290 C   0  0  0  0  0  0  0  0  0  0  0  0
    0.0540   12.9740   -5.4860 O   0  0  0  0  0  0  0  0  0  0  0  0
    1.4970   13.1960   -3.8810 O   0  0  0  0  0  0  0  0  0  0  0  0
   -1.3840   15.0420    1.6140 N   0  0  0  0  0  0  0  0  0  0  0  0
   -3.7170   15.2430    1.3930 N   0  0  0  0  0  0  0  0  0  0  0  0
   -4.6540   15.1950    0.2380 C   0  0  0  0  0  0  0  0  0  0  0  0
    0.4880   11.6710   -5.0640 N   0  0  0  0  0  0  0  0  0  0  0  0
    0.8450   11.0160   -6.3290 C   0  0  2  0  0  0  0  0  0  0  0  0
   -0.8740   10.9080   -4.3530 S   0  0  2  0  0  0  0  0  0  0  0  0
    1.4860   11.8750   -7.2400 O   0  0  0  0  0  0  0  0  0  0  0  0
   -0.3320   10.1380   -3.0490 O   0  0  0  0  0  0  0  0  0  0  0  0
   -1.0360    9.6850   -5.6020 C   0  0  2  0  0  0  0  0  0  0  0  0
   -0.4760   10.4160   -6.8360 C   0  0  2  0  0  0  0  0  0  0  0  0
   -2.4020    9.1010   -5.8580 C   0  0  0  0  0  0  0  0  0  0  0  0
   -0.3660    9.4670   -8.0200 C   0  0  0  0  0  0  0  0  0  0  0  0
   -2.3780    8.1630   -7.0680 C   0  0  0  0  0  0  0  0  0  0  0  0
   -1.6970    8.7540   -8.3080 C   0  0  0  0  0  0  0  0  0  0  0  0
  1  2  1  0
  2  3  1  0
  4  2  1  6
  3  5  1  0
  4  6  1  0
  4  7  1  0
  5  8  1  0
  6  9  1  0
  7 10  1  0
  6 11  1  6
  8 12  1  0
  8 13  1  1
  9 14  1  1
 10 14  1  0
  9 15  1  0
 11 16  1  0
 15 16  1  0
 12 17  1  0
 17 18  1  0
 17 19  1  0
 18 20  1  6
 19 21  1  1
 19 22  1  0
 18 23  1  0
 22 23  1  0
 22 24  1  6
 23 25  1  6
 24 26  1  0
 25 27  1  0
 26 27  1  0
M  CHG  1  13  -1
M  END
