ucsf412-ucsf523
     RDKit          3D

 19 21  0  0  0  0  0  0  0  0999 V2000
   -7.9360   14.4690   -0.0370 O   0  0  0  0  0  0  0  0  0  0  0  0
   -6.8290   13.8680    0.5990 C   0  0  2  0  0  0  0  0  0  0  0  0
   -6.6330   14.6440    1.8010 N   0  0  0  0  0  0  0  0  0  0  0  0
   -5.6460   13.7160   -0.4030 C   0  0  2  0  0  0  0  0  0  0  0  0
   -4.1470   13.8600    0.1390 C   0  0  2  0  0  0  0  0  0  0  0  0
   -5.2670   15.1160    1.9500 C   0  0  0  0  0  0  0  0  0  0  0  0
   -6.0010   14.6400   -1.5230 C   0  0  1  0  0  0  0  0  0  0  0  0
   -6.4670   15.7920   -0.8140 O   0  0  0  0  0  0  0  0  0  0  0  0
   -4.2700   14.0220    1.6650 C   0  0  0  0  0  0  0  0  0  0  0  0
   -3.1440   14.9310   -0.5250 C   0  0  2  0  0  0  0  0  0  0  0  0
   -4.8220   14.9680   -2.3850 C   0  0  0  0  0  0  0  0  0  0  0  0
   -3.8650   15.7600   -1.5660 C   0  0  0  0  0  0  0  0  0  0  0  0
   -1.7800   14.5330   -1.1770 C   0  0  2  0  0  0  0  0  0  0  0  0
   -2.6000   15.8110    0.5780 C   0  0  0  0  0  0  0  0  0  0  0  0
   -1.9100   13.8310   -2.3960 O   0  0  0  0  0  0  0  0  0  0  0  0
   -0.8020   13.8950   -0.3230 N   0  0  0  0  0  0  0  0  0  0  0  0
   -1.7950   15.0250    1.4800 N   0  0  0  0  0  0  0  0  0  0  0  0
   -0.5890   14.5960    0.9000 C   0  0  1  0  0  0  0  0  0  0  0  0
    0.0680   13.7960    1.8450 N   0  0  0  0  0  0  0  0  0  0  0  0
  2  1  1  6
  2  3  1  0
  4  2  1  1
  4  5  1  0
  3  6  1  0
  4  7  1  0
  7  8  1  1
  5  9  1  1
  6  9  1  0
  5 10  1  0
  7 11  1  0
 10 12  1  6
 11 12  1  0
 10 13  1  0
 10 14  1  0
 13 15  1  6
 13 16  1  0
 14 17  1  0
 16 18  1  0
 17 18  1  0
 18 19  1  1
M  END
