ucsf190-ucsf264
     RDKit          3D

 28 31  0  0  0  0  0  0  0  0999 V2000
    0.6410   10.4640   -2.6430 O   0  0  0  0  0  0  0  0  0  0  0  0
    0.4860   11.7550   -2.9800 C   0  0  1  0  0  0  0  0  0  0  0  0
    1.3040   12.3800   -2.0080 O   0  0  0  0  0  0  0  0  0  0  0  0
    1.0240   12.2010   -4.4600 C   0  0  2  0  0  0  0  0  0  0  0  0
    0.9490   13.7650   -4.6670 C   0  0  1  0  0  0  0  0  0  0  0  0
    0.3520   11.6490   -5.7150 N   0  0  0  0  0  0  0  0  0  0  0  0
   -0.5190   14.1650   -4.4230 C   0  0  1  0  0  0  0  0  0  0  0  0
    1.9000   14.6730   -3.9830 N   0  0  0  0  0  0  0  0  0  0  0  0
    1.2500   11.5500   -6.8860 N   0  0  0  0  0  0  0  0  0  0  0  0
   -0.5160   10.4720   -5.7630 C   0  0  2  0  0  0  0  0  0  0  0  0
   -0.8100   15.6680   -4.2550 C   0  0  1  0  0  0  0  0  0  0  0  0
    1.6830   15.9620   -4.6630 N   0  0  0  0  0  0  0  0  0  0  0  0
   -1.4250   13.4410   -5.4280 C   0  0  0  0  0  0  0  0  0  0  0  0
    0.3570   11.0860   -7.9740 C   0  0  2  0  0  0  0  0  0  0  0  0
   -0.8440   10.4530   -7.2530 C   0  0  1  0  0  0  0  0  0  0  0  0
   -1.8320   10.5000   -4.9680 C   0  0  0  0  0  0  0  0  0  0  0  0
    0.9120   10.2380   -9.1270 C   0  0  0  0  0  0  0  0  0  0  0  0
    0.4460   16.5800   -4.2050 C   0  0  1  0  0  0  0  0  0  0  0  0
   -1.9800   16.2380   -5.0840 C   0  0  0  0  0  0  0  0  0  0  0  0
   -2.8860   13.8050   -5.2490 C   0  0  0  0  0  0  0  0  0  0  0  0
   -1.3290    9.0730   -7.6540 C   0  0  0  0  0  0  0  0  0  0  0  0
   -2.8900    9.6140   -5.6530 C   0  0  0  0  0  0  0  0  0  0  0  0
    0.2510   17.7330   -5.0020 O   0  0  0  0  0  0  0  0  0  0  0  0
    1.5720    9.1240   -8.7480 F   0  0  0  0  0  0  0  0  0  0  0  0
   -0.0630    9.8590   -9.9780 F   0  0  0  0  0  0  0  0  0  0  0  0
    1.7250   10.9690   -9.9130 F   0  0  0  0  0  0  0  0  0  0  0  0
   -3.1690   15.3040   -5.3200 C   0  0  0  0  0  0  0  0  0  0  0  0
   -2.2720    8.5250   -6.5680 C   0  0  0  0  0  0  0  0  0  0  0  0
  2  1  1  6
  2  3  1  0
  2  4  1  0
  4  5  1  0
  4  6  1  6
  5  7  1  0
  5  8  1  1
  6  9  1  0
  6 10  1  0
  7 11  1  0
  8 12  1  0
  7 13  1  6
  9 14  1  0
 10 15  1  0
 14 15  1  0
 10 16  1  1
 14 17  1  6
 11 18  1  0
 12 18  1  0
 11 19  1  6
 13 20  1  0
 15 21  1  6
 16 22  1  0
 18 23  1  6
 17 24  1  0
 17 25  1  0
 17 26  1  0
 19 27  1  0
 20 27  1  0
 21 28  1  0
 22 28  1  0
M  CHG  1   1  -1
M  END
