ucsf005-ucsf345
     RDKit          3D

 15 16  0  0  0  0  0  0  0  0999 V2000
   -2.0460   14.9150   -3.5220 C   0  0  0  0  0  0  0  0  0  0  0  0
   -2.6970   14.2470   -2.3940 N   0  0  0  0  0  0  0  0  0  0  0  0
   -4.1520   14.5720   -2.2910 C   0  0  0  0  0  0  0  0  0  0  0  0
   -2.1630   14.6510   -1.0930 C   0  0  1  0  0  0  0  0  0  0  0  0
   -4.5040   14.4750   -0.8650 N   0  0  0  0  0  0  0  0  0  0  0  0
   -3.3900   15.2700   -0.3700 C   0  0  1  0  0  0  0  0  0  0  0  0
   -1.3160   13.6940   -0.4020 N   0  0  0  0  0  0  0  0  0  0  0  0
   -5.8470   14.9180   -0.4710 C   0  0  2  0  0  0  0  0  0  0  0  0
   -3.0270   15.4220    1.1140 C   0  0  1  0  0  0  0  0  0  0  0  0
   -1.0490   13.9950    0.9710 C   0  0  1  0  0  0  0  0  0  0  0  0
   -4.1770   15.6380    1.9610 N   0  0  0  0  0  0  0  0  0  0  0  0
   -0.1790   15.1130    0.9570 N   0  0  0  0  0  0  0  0  0  0  0  0
   -6.0120   14.7390    0.9450 N   0  0  0  0  0  0  0  0  0  0  0  0
   -6.9280   14.2380   -1.0460 O   0  0  0  0  0  0  0  0  0  0  0  0
   -2.2260   14.3660    1.6830 N   0  0  0  0  0  0  0  0  0  0  0  0
  1  2  1  0
  2  3  1  0
  2  4  1  0
  3  5  1  0
  4  6  1  0
  6  5  1  1
  4  7  1  1
  5  8  1  0
  6  9  1  0
  7 10  1  0
  9 11  1  1
 10 12  1  6
  8 13  1  1
  8 14  1  0
  9 15  1  0
 10 15  1  0
M  END
