ucsf493-ucsf387
     RDKit          3D

 16 17  0  0  0  0  0  0  0  0999 V2000
   -4.3650   15.1610   -5.8490 C   0  0  0  0  0  0  0  0  0  0  0  0
   -3.5150   16.2990   -5.8670 O   0  0  0  0  0  0  0  0  0  0  0  0
   -2.4360   16.2480   -4.9220 C   0  0  1  0  0  0  0  0  0  0  0  0
   -1.8110   14.8220   -4.8430 C   0  0  0  0  0  0  0  0  0  0  0  0
   -1.5240   17.4450   -5.3170 C   0  0  0  0  0  0  0  0  0  0  0  0
   -0.2720   14.7530   -4.9280 C   0  0  1  0  0  0  0  0  0  0  0  0
   -0.0460   17.1220   -5.4460 C   0  0  1  0  0  0  0  0  0  0  0  0
    1.0420   18.5050   -5.2850 Cl  0  0  0  0  0  0  0  0  0  0  0  0
    0.3580   16.0420   -4.5090 C   0  0  2  0  0  0  0  0  0  0  0  0
    0.4790   13.8430   -3.9460 C   0  0  1  0  0  0  0  0  0  0  0  0
    0.2240   12.3210   -3.9830 C   0  0  0  0  0  0  0  0  0  0  0  0
    1.8010   15.7440   -4.4490 N   0  0  0  0  0  0  0  0  0  0  0  0
    1.9130   14.2780   -4.2120 C   0  0  0  0  0  0  0  0  0  0  0  0
   -0.1390   11.6370   -2.6250 C   0  0  1  0  0  0  0  0  0  0  0  0
    0.5010   10.3800   -2.5300 O   0  0  0  0  0  0  0  0  0  0  0  0
    0.4150   12.2430   -1.5880 O   0  0  0  0  0  0  0  0  0  0  0  0
  1  2  1  0
  3  2  1  6
  3  4  1  0
  3  5  1  0
  6  4  1  1
  5  7  1  0
  7  8  1  1
  6  9  1  0
  7  9  1  0
  6 10  1  0
 10 11  1  6
  9 12  1  6
 10 13  1  0
 12 13  1  0
 11 14  1  0
 14 15  1  6
 14 16  1  0
M  CHG  1  16  -1
M  END
