ucsf371-ucsf278
     RDKit          3D

 20 22  0  0  0  0  0  0  0  0999 V2000
   -4.8190   14.8020    0.7140 C   0  0  0  0  0  0  0  0  0  0  0  0
   -4.1600   15.2710   -0.5730 C   0  0  2  0  0  0  0  0  0  0  0  0
   -4.6710   14.5610   -1.7620 N   0  0  0  0  0  0  0  0  0  0  0  0
   -2.3730   15.0280   -0.5450 S   0  0  0  0  0  0  0  0  0  0  0  0
   -3.5930   14.6190   -2.8060 C   0  0  0  0  0  0  0  0  0  0  0  0
   -2.4500   15.5140   -2.2990 C   0  0  2  0  0  0  0  0  0  0  0  0
   -1.1800   15.6340   -3.1870 C   0  0  1  0  0  0  0  0  0  0  0  0
   -1.6070   15.8200   -4.5220 O   0  0  0  0  0  0  0  0  0  0  0  0
   -0.6050   16.7700   -2.9350 O   0  0  0  0  0  0  0  0  0  0  0  0
   -0.0200   14.6190   -3.2620 C   0  0  2  0  0  0  0  0  0  0  0  0
   -0.1270   13.2220   -3.8050 C   0  0  1  0  0  0  0  0  0  0  0  0
    1.0640   14.5900   -2.1830 C   0  0  0  0  0  0  0  0  0  0  0  0
   -1.2990   12.7450   -4.6430 C   0  0  0  0  0  0  0  0  0  0  0  0
    1.0350   13.2340   -4.7810 C   0  0  2  0  0  0  0  0  0  0  0  0
    2.3790   14.4610   -2.9540 C   0  0  0  0  0  0  0  0  0  0  0  0
   -0.6350   12.0750   -5.8560 C   0  0  1  0  0  0  0  0  0  0  0  0
    0.8260   12.0330   -5.5890 N   0  0  0  0  0  0  0  0  0  0  0  0
    2.3700   13.3460   -4.0310 C   0  0  0  0  0  0  0  0  0  0  0  0
   -1.1710   10.6720   -6.1550 C   0  0  0  0  0  0  0  0  0  0  0  0
   -2.3070   10.3670   -5.3440 O   0  0  0  0  0  0  0  0  0  0  0  0
  2  1  1  1
  2  3  1  0
  2  4  1  0
  3  5  1  0
  4  6  1  0
  6  5  1  6
  6  7  1  0
  7  8  1  6
  7  9  1  0
  7 10  1  0
 10 11  1  0
 10 12  1  1
 11 13  1  6
 11 14  1  0
 12 15  1  0
 13 16  1  0
 14 17  1  0
 16 17  1  0
 14 18  1  1
 15 18  1  0
 16 19  1  1
 19 20  1  0
M  CHG  1   9  -1
M  END
