ucsf348-ucsf170
     RDKit          3D

 17 18  0  0  0  0  0  0  0  0999 V2000
   -6.7020   14.6940    2.2200 N   0  0  0  0  0  0  0  0  0  0  0  0
   -5.9050   14.2440    1.1090 C   0  0  2  0  0  0  0  0  0  0  0  0
   -4.5360   14.7340    1.2160 N   0  0  0  0  0  0  0  0  0  0  0  0
   -6.5890   14.8690    0.0460 N   0  0  0  0  0  0  0  0  0  0  0  0
   -5.9040   14.5770   -1.1790 C   0  0  1  0  0  0  0  0  0  0  0  0
   -3.8100   15.3220    0.0390 C   0  0  2  0  0  0  0  0  0  0  0  0
   -4.3540   15.6410    2.3130 C   0  0  0  0  0  0  0  0  0  0  0  0
   -6.7260   14.9660   -2.2690 O   0  0  0  0  0  0  0  0  0  0  0  0
   -4.5670   15.2960   -1.2950 C   0  0  1  0  0  0  0  0  0  0  0  0
   -2.3480   14.7640   -0.0290 C   0  0  0  0  0  0  0  0  0  0  0  0
   -1.4920   15.1210   -1.3210 C   0  0  1  0  0  0  0  0  0  0  0  0
   -3.7600   14.7850   -2.4780 C   0  0  0  0  0  0  0  0  0  0  0  0
   -0.2140   14.2250   -1.6150 C   0  0  2  0  0  0  0  0  0  0  0  0
   -2.3730   15.3920   -2.5650 C   0  0  2  0  0  0  0  0  0  0  0  0
   -1.7780   14.9910   -3.8120 O   0  0  0  0  0  0  0  0  0  0  0  0
    0.9850   14.9450   -1.4390 O   0  0  0  0  0  0  0  0  0  0  0  0
   -0.0720   13.9150   -2.8960 O   0  0  0  0  0  0  0  0  0  0  0  0
  2  1  1  1
  2  3  1  0
  2  4  1  0
  4  5  1  0
  3  6  1  0
  3  7  1  0
  5  8  1  6
  5  9  1  0
  6  9  1  0
  6 10  1  6
 11 10  1  1
  9 12  1  6
 11 13  1  0
 11 14  1  0
 12 14  1  0
 14 15  1  6
 13 16  1  6
 13 17  1  0
M  CHG  1  17  -1
M  END
