ucsf387-ucsf213
     RDKit          3D

 15 16  0  0  0  0  0  0  0  0999 V2000
    0.5790   17.5350   -3.7550 Cl  0  0  0  0  0  0  0  0  0  0  0  0
    0.0830   16.4060   -5.0470 C   0  0  1  0  0  0  0  0  0  0  0  0
    1.0330   15.2050   -4.9970 C   0  0  0  0  0  0  0  0  0  0  0  0
   -1.3290   15.8040   -4.7330 C   0  0  1  0  0  0  0  0  0  0  0  0
    0.1850   17.4990   -6.1170 C   0  0  0  0  0  0  0  0  0  0  0  0
   -2.4460   14.7750   -5.7130 Cl  0  0  0  0  0  0  0  0  0  0  0  0
    0.5160   14.4390   -3.7520 C   0  0  0  0  0  0  0  0  0  0  0  0
   -0.9490   14.9280   -3.5260 C   0  0  0  0  0  0  0  0  0  0  0  0
   -0.6150   18.6400   -5.5990 C   0  0  0  0  0  0  0  0  0  0  0  0
   -2.2060   16.9910   -4.4260 C   0  0  0  0  0  0  0  0  0  0  0  0
    0.7880   12.9070   -3.6500 C   0  0  0  0  0  0  0  0  0  0  0  0
   -2.0440   18.1790   -5.4120 C   0  0  0  0  0  0  0  0  0  0  0  0
    0.1030   12.0700   -2.5190 C   0  0  1  0  0  0  0  0  0  0  0  0
    0.5250   10.8170   -2.4280 O   0  0  0  0  0  0  0  0  0  0  0  0
    0.4390   12.5850   -1.2530 O   0  0  0  0  0  0  0  0  0  0  0  0
  2  1  1  1
  2  3  1  0
  2  4  1  0
  2  5  1  0
  4  6  1  6
  3  7  1  0
  4  8  1  0
  7  8  1  0
  5  9  1  0
  4 10  1  0
  7 11  1  0
  9 12  1  0
 10 12  1  0
 11 13  1  0
 13 14  1  1
 13 15  1  0
M  CHG  1  14  -1
M  END
