ucsf224-ucsf387
     RDKit          3D

 13 13  0  0  0  0  0  0  0  0999 V2000
   -1.7240   17.8270   -5.8770 Cl  0  0  0  0  0  0  0  0  0  0  0  0
   -0.9240   16.4830   -4.9900 C   0  0  1  0  0  0  0  0  0  0  0  0
   -1.6080   15.1140   -5.0410 C   0  0  2  0  0  0  0  0  0  0  0  0
    0.6050   16.5420   -4.9950 C   0  0  1  0  0  0  0  0  0  0  0  0
   -3.3410   15.2370   -4.6140 Cl  0  0  0  0  0  0  0  0  0  0  0  0
    1.0780   18.1480   -4.4000 Cl  0  0  0  0  0  0  0  0  0  0  0  0
   -0.8390   14.1120   -4.1810 C   0  0  0  0  0  0  0  0  0  0  0  0
    1.2850   15.4130   -4.1920 C   0  0  0  0  0  0  0  0  0  0  0  0
    0.6460   14.0730   -4.5710 C   0  0  1  0  0  0  0  0  0  0  0  0
    1.4350   12.8250   -4.0840 C   0  0  0  0  0  0  0  0  0  0  0  0
    1.2430   12.3960   -2.5990 C   0  0  2  0  0  0  0  0  0  0  0  0
    0.4650   11.3310   -2.5180 O   0  0  0  0  0  0  0  0  0  0  0  0
    0.4940   13.3390   -1.8830 O   0  0  0  0  0  0  0  0  0  0  0  0
  2  1  1  6
  2  3  1  0
  2  4  1  0
  3  5  1  1
  4  6  1  1
  3  7  1  0
  4  8  1  0
  7  9  1  0
  8  9  1  0
  9 10  1  1
 10 11  1  0
 11 12  1  6
 11 13  1  0
M  CHG  1  12  -1
M  END
