ucsf247-ucsf278
     RDKit          3D

 25 27  0  0  0  0  0  0  0  0999 V2000
    0.4090   12.5710   -0.8580 O   0  0  0  0  0  0  0  0  0  0  0  0
   -0.2190   12.4650   -1.9870 C   0  0  2  0  0  0  0  0  0  0  0  0
    0.6540   13.1110   -2.9220 O   0  0  0  0  0  0  0  0  0  0  0  0
   -1.5930   13.2340   -1.8630 C   0  0  0  0  0  0  0  0  0  0  0  0
   -1.5370   14.6280   -2.2520 N   0  0  0  0  0  0  0  0  0  0  0  0
   -2.7970   15.3380   -2.3660 C   0  0  1  0  0  0  0  0  0  0  0  0
   -0.4560   14.6500   -3.2160 C   0  0  1  0  0  0  0  0  0  0  0  0
   -3.4170   15.2180   -3.6370 O   0  0  0  0  0  0  0  0  0  0  0  0
   -3.7700   14.8940   -1.2330 C   0  0  2  0  0  0  0  0  0  0  0  0
   -0.5860   13.9950   -4.5880 C   0  0  2  0  0  0  0  0  0  0  0  0
    0.4480   15.8720   -3.2850 C   0  0  0  0  0  0  0  0  0  0  0  0
   -5.1990   15.4400   -1.2530 C   0  0  0  0  0  0  0  0  0  0  0  0
   -3.1270   15.1780    0.1470 C   0  0  0  0  0  0  0  0  0  0  0  0
   -1.3830   12.7080   -4.7300 C   0  0  0  0  0  0  0  0  0  0  0  0
    0.7580   13.7010   -5.2730 C   0  0  2  0  0  0  0  0  0  0  0  0
    1.7640   15.5510   -4.0000 C   0  0  0  0  0  0  0  0  0  0  0  0
   -6.0280   14.6650   -0.2260 C   0  0  2  0  0  0  0  0  0  0  0  0
   -4.1160   15.4770    1.2710 C   0  0  0  0  0  0  0  0  0  0  0  0
   -0.7090   12.0420   -5.9190 C   0  0  1  0  0  0  0  0  0  0  0  0
    0.7190   12.2920   -5.6740 N   0  0  0  0  0  0  0  0  0  0  0  0
    1.9070   14.0770   -4.3550 C   0  0  0  0  0  0  0  0  0  0  0  0
   -7.3770   15.1280   -0.1860 O   0  0  0  0  0  0  0  0  0  0  0  0
   -1.0310   10.5490   -6.0260 C   0  0  0  0  0  0  0  0  0  0  0  0
   -5.4170   14.6800    1.1800 C   0  0  0  0  0  0  0  0  0  0  0  0
   -2.3330   10.2660   -5.5160 O   0  0  0  0  0  0  0  0  0  0  0  0
  2  1  1  1
  2  3  1  0
  2  4  1  0
  4  5  1  0
  5  6  1  0
  7  5  1  6
  6  8  1  6
  6  9  1  0
  7 10  1  0
  7 11  1  0
  9 12  1  1
  9 13  1  0
 10 14  1  1
 10 15  1  0
 11 16  1  0
 12 17  1  0
 13 18  1  0
 14 19  1  0
 15 20  1  0
 19 20  1  0
 15 21  1  1
 16 21  1  0
 17 22  1  1
 19 23  1  1
 17 24  1  0
 18 24  1  0
 23 25  1  0
M  CHG  1   1  -1
M  END
