ucsf190-ucsf110
     RDKit          3D

 26 29  0  0  0  0  0  0  0  0999 V2000
    0.6080   10.4990   -2.6400 O   0  0  0  0  0  0  0  0  0  0  0  0
    0.4570   11.8100   -2.8190 C   0  0  1  0  0  0  0  0  0  0  0  0
    0.8740   12.3710   -1.5790 O   0  0  0  0  0  0  0  0  0  0  0  0
    1.3440   12.4270   -3.9980 C   0  0  0  0  0  0  0  0  0  0  0  0
    0.9310   13.7430   -4.7750 C   0  0  1  0  0  0  0  0  0  0  0  0
   -0.5970   14.0660   -4.6190 C   0  0  1  0  0  0  0  0  0  0  0  0
    1.8120   14.8780   -4.4420 N   0  0  0  0  0  0  0  0  0  0  0  0
   -1.0290   15.5800   -4.5160 C   0  0  1  0  0  0  0  0  0  0  0  0
    1.0790   15.8110   -3.5650 N   0  0  0  0  0  0  0  0  0  0  0  0
   -1.4230   13.2280   -5.5900 C   0  0  0  0  0  0  0  0  0  0  0  0
    0.3160   14.9140   -2.6860 C   0  0  0  0  0  0  0  0  0  0  0  0
    0.1490   16.5640   -4.3730 C   0  0  1  0  0  0  0  0  0  0  0  0
   -2.2340   16.0580   -5.3650 C   0  0  0  0  0  0  0  0  0  0  0  0
   -2.8970   13.5290   -5.4400 C   0  0  0  0  0  0  0  0  0  0  0  0
    0.6490   17.0350   -5.6160 O   0  0  0  0  0  0  0  0  0  0  0  0
   -3.2090   14.9670   -5.8440 C   0  0  0  0  0  0  0  0  0  0  0  0
   -0.8910   15.4470   -2.0110 N   0  0  0  0  0  0  0  0  0  0  0  0
   -2.1840   15.5440   -2.7490 C   0  0  0  0  0  0  0  0  0  0  0  0
   -1.2520   14.5930   -0.9500 C   0  0  2  0  0  0  0  0  0  0  0  0
   -3.2850   15.3240   -1.6890 C   0  0  0  0  0  0  0  0  0  0  0  0
   -2.4480   15.3230   -0.4310 C   0  0  1  0  0  0  0  0  0  0  0  0
   -0.1660   14.4760   -0.0370 N   0  0  0  0  0  0  0  0  0  0  0  0
   -2.8800   14.6430    0.8320 C   0  0  2  0  0  0  0  0  0  0  0  0
   -0.5010   14.9910    1.2200 C   0  0  0  0  0  0  0  0  0  0  0  0
   -3.8790   15.3780    1.5930 N   0  0  0  0  0  0  0  0  0  0  0  0
   -1.7690   14.4800    1.7200 N   0  0  0  0  0  0  0  0  0  0  0  0
  2  1  1  1
  2  3  1  0
  2  4  1  0
  5  4  1  1
  5  6  1  0
  5  7  1  0
  6  8  1  0
  7  9  1  0
  6 10  1  6
  9 11  1  0
  8 12  1  0
  9 12  1  0
  8 13  1  6
 10 14  1  0
 12 15  1  6
 13 16  1  0
 14 16  1  0
 11 17  1  0
 17 18  1  0
 17 19  1  0
 18 20  1  0
 19 21  1  0
 21 20  1  6
 19 22  1  1
 21 23  1  0
 22 24  1  0
 23 25  1  1
 23 26  1  0
 24 26  1  0
M  CHG  1   1  -1
M  END
