ucsf213-ucsf147
     RDKit          3D

 19 21  0  0  0  0  0  0  0  0999 V2000
    0.5260   11.4410   -1.6390 O   0  0  0  0  0  0  0  0  0  0  0  0
    0.8300   12.6160   -2.3650 C   0  0  0  0  0  0  0  0  0  0  0  0
    2.2050   12.5690   -2.3880 O   0  0  0  0  0  0  0  0  0  0  0  0
    0.2020   12.5710   -3.7440 C   0  0  0  0  0  0  0  0  0  0  0  0
    0.5150   13.7650   -1.6430 O   0  0  0  0  0  0  0  0  0  0  0  0
   -0.4180   13.8680   -4.3150 C   0  0  2  0  0  0  0  0  0  0  0  0
    0.6190   14.9870   -4.6690 C   0  0  0  0  0  0  0  0  0  0  0  0
   -1.7100   14.7330   -3.3060 S   0  0  0  0  0  0  0  0  0  0  0  0
    0.0850   16.3860   -4.2690 C   0  0  2  0  0  0  0  0  0  0  0  0
   -1.4430   16.3290   -4.0570 C   0  0  1  0  0  0  0  0  0  0  0  0
   -1.4790   14.7800   -1.5180 C   0  0  0  0  0  0  0  0  0  0  0  0
   -3.4350   14.3200   -3.5240 C   0  0  0  0  0  0  0  0  0  0  0  0
    0.4760   17.5170   -5.2150 C   0  0  0  0  0  0  0  0  0  0  0  0
   -2.2770   16.5700   -5.3060 C   0  0  0  0  0  0  0  0  0  0  0  0
   -2.7620   14.6970   -0.6510 C   0  0  0  0  0  0  0  0  0  0  0  0
   -4.2360   15.3300   -2.7310 C   0  0  0  0  0  0  0  0  0  0  0  0
   -0.6600   18.5040   -5.4030 C   0  0  0  0  0  0  0  0  0  0  0  0
   -1.8760   17.8560   -6.0320 C   0  0  0  0  0  0  0  0  0  0  0  0
   -4.0860   15.2420   -1.2090 C   0  0  0  0  0  0  0  0  0  0  0  0
  2  1  1  0
  2  3  1  0
  2  4  1  0
  2  5  1  0
  6  4  1  1
  6  7  1  0
  6  8  1  0
  9  7  1  6
  8 10  1  0
  9 10  1  0
  8 11  1  0
  8 12  1  0
  9 13  1  0
 10 14  1  6
 11 15  1  0
 12 16  1  0
 13 17  1  0
 14 18  1  0
 17 18  1  0
 15 19  1  0
 16 19  1  0
M  CHG  2   1  -1   5  -1
M  END
