ucsf520-ucsf224
     RDKit          3D

 22 24  0  0  0  0  0  0  0  0999 V2000
   -4.5360   15.5430    1.4440 N   0  0  0  0  0  0  0  0  0  0  0  0
   -3.7560   14.8270    0.4500 C   0  0  2  0  0  0  0  0  0  0  0  0
   -2.2670   15.2110    0.4590 C   0  0  2  0  0  0  0  0  0  0  0  0
   -4.3440   15.2120   -0.8270 N   0  0  0  0  0  0  0  0  0  0  0  0
   -3.6450   14.5770   -1.9590 C   0  0  0  0  0  0  0  0  0  0  0  0
   -1.6540   14.4120   -0.6360 C   0  0  1  0  0  0  0  0  0  0  0  0
   -1.4570   14.7710    1.6030 N   0  0  0  0  0  0  0  0  0  0  0  0
   -2.2020   14.7540   -1.9020 N   0  0  0  0  0  0  0  0  0  0  0  0
   -0.2570   14.7460   -0.4370 N   0  0  0  0  0  0  0  0  0  0  0  0
   -0.1300   14.5690    0.9960 C   0  0  0  0  0  0  0  0  0  0  0  0
   -1.4620   14.1590   -3.0180 C   0  0  0  0  0  0  0  0  0  0  0  0
   -0.5640   15.2410   -3.5890 C   0  0  2  0  0  0  0  0  0  0  0  0
   -1.3310   16.3930   -4.1230 N   0  0  0  0  0  0  0  0  0  0  0  0
    0.3470   14.8670   -4.7480 C   0  0  2  0  0  0  0  0  0  0  0  0
   -2.6070   15.9720   -5.2760 Cl  0  0  0  0  0  0  0  0  0  0  0  0
    1.4680   13.7860   -4.5200 C   0  0  0  0  0  0  0  0  0  0  0  0
    0.8330   16.2920   -5.0960 C   0  0  0  0  0  0  0  0  0  0  0  0
   -0.2880   17.2470   -4.6490 C   0  0  1  0  0  0  0  0  0  0  0  0
   -1.0380   18.2110   -5.9470 Cl  0  0  0  0  0  0  0  0  0  0  0  0
    1.3830   12.6640   -3.4160 C   0  0  2  0  0  0  0  0  0  0  0  0
    0.3280   11.8920   -3.5810 O   0  0  0  0  0  0  0  0  0  0  0  0
    1.1200   13.2050   -2.1440 O   0  0  0  0  0  0  0  0  0  0  0  0
  2  1  1  1
  2  3  1  0
  2  4  1  0
  4  5  1  0
  3  6  1  0
  3  7  1  1
  5  8  1  0
  6  8  1  0
  6  9  1  6
  7 10  1  0
  9 10  1  0
  8 11  1  0
 12 11  1  6
 12 13  1  0
 12 14  1  0
 13 15  1  0
 14 16  1  1
 14 17  1  0
 13 18  1  0
 17 18  1  0
 18 19  1  6
 16 20  1  0
 20 21  1  6
 20 22  1  0
M  CHG  1  21  -1
M  END
