ucsf396-ucsf404
     RDKit          3D

 16 17  0  0  0  0  0  0  0  0999 V2000
   -2.2450   15.2190    0.7260 N   0  0  0  0  0  0  0  0  0  0  0  0
   -3.4640   14.9670    1.2710 C   0  0  2  0  0  0  0  0  0  0  0  0
   -3.0880   13.9350    2.1370 O   0  0  0  0  0  0  0  0  0  0  0  0
   -4.7760   14.3150    0.0140 S   0  0  0  0  0  0  0  0  0  0  0  0
   -6.1620   15.5400   -0.5680 C   0  0  0  0  0  0  0  0  0  0  0  0
   -6.2520   14.4100    1.0550 C   0  0  2  0  0  0  0  0  0  0  0  0
   -4.8210   13.9410   -1.8560 C   0  0  2  0  0  0  0  0  0  0  0  0
   -3.3900   14.8130   -0.9620 C   0  0  0  0  0  0  0  0  0  0  0  0
   -6.2400   14.9150    2.4240 N   0  0  0  0  0  0  0  0  0  0  0  0
   -6.4110   13.4230   -2.4480 Cl  0  0  0  0  0  0  0  0  0  0  0  0
   -7.4070   15.1050   -0.7320 N   0  0  0  0  0  0  0  0  0  0  0  0
   -7.3800   13.5670    0.8490 C   0  0  0  0  0  0  0  0  0  0  0  0
   -3.7390   13.9340   -2.7920 C   0  0  0  0  0  0  0  0  0  0  0  0
   -3.8020   15.7030   -1.9020 C   0  0  0  0  0  0  0  0  0  0  0  0
   -8.3220   14.3920    0.0760 C   0  0  0  0  0  0  0  0  0  0  0  0
   -3.2980   15.2600   -3.2230 C   0  0  0  0  0  0  0  0  0  0  0  0
  2  1  1  6
  2  3  1  0
  2  4  1  0
  4  5  1  0
  4  6  1  0
  4  7  1  0
  4  8  1  0
  6  9  1  1
  7 10  1  1
  5 11  1  0
  6 12  1  0
  7 13  1  0
  8 14  1  0
 11 15  1  0
 12 15  1  0
 13 16  1  0
 14 16  1  0
M  END
