ucsf005-ucsf520
     RDKit          3D

 17 19  0  0  0  0  0  0  0  0999 V2000
   -1.2220   14.5340   -3.3050 C   0  0  0  0  0  0  0  0  0  0  0  0
   -2.1230   15.1550   -2.3280 N   0  0  0  0  0  0  0  0  0  0  0  0
   -3.5270   15.2150   -2.7080 C   0  0  0  0  0  0  0  0  0  0  0  0
   -0.8890   15.4120   -4.5270 C   0  0  1  0  0  0  0  0  0  0  0  0
   -2.1650   14.4520   -1.0600 C   0  0  2  0  0  0  0  0  0  0  0  0
   -1.5320   16.6920   -4.3220 O   0  0  0  0  0  0  0  0  0  0  0  0
    0.5900   15.7090   -4.7530 C   0  0  0  0  0  0  0  0  0  0  0  0
   -4.3110   15.2270   -1.4510 N   0  0  0  0  0  0  0  0  0  0  0  0
   -3.2320   15.2850   -0.4280 C   0  0  1  0  0  0  0  0  0  0  0  0
   -0.8950   14.5580   -0.4040 N   0  0  0  0  0  0  0  0  0  0  0  0
    0.5860   17.1150   -5.3060 C   0  0  0  0  0  0  0  0  0  0  0  0
   -0.6430   17.7430   -4.7060 C   0  0  0  0  0  0  0  0  0  0  0  0
   -3.4550   14.7240    0.9620 C   0  0  2  0  0  0  0  0  0  0  0  0
   -0.9630   14.8670    0.9950 C   0  0  2  0  0  0  0  0  0  0  0  0
   -4.3140   15.5670    1.7770 N   0  0  0  0  0  0  0  0  0  0  0  0
    0.0040   14.0740    1.6690 N   0  0  0  0  0  0  0  0  0  0  0  0
   -2.2140   14.6190    1.6770 N   0  0  0  0  0  0  0  0  0  0  0  0
  1  2  1  0
  2  3  1  0
  4  1  1  1
  2  5  1  0
  4  6  1  0
  4  7  1  0
  3  8  1  0
  5  9  1  0
  9  8  1  6
  5 10  1  1
  7 11  1  0
  6 12  1  0
 11 12  1  0
  9 13  1  0
 10 14  1  0
 13 15  1  1
 14 16  1  1
 13 17  1  0
 14 17  1  0
M  END
