ucsf404-ucsf519
     RDKit          3D

 21 22  0  0  0  0  0  0  0  0999 V2000
   -6.7690   15.0180   -2.4130 Cl  0  0  0  0  0  0  0  0  0  0  0  0
   -5.2360   15.5190   -1.6170 C   0  0  1  0  0  0  0  0  0  0  0  0
   -4.9860   14.6540   -0.4250 C   0  0  2  0  0  0  0  0  0  0  0  0
   -4.0760   15.4610   -2.5730 C   0  0  0  0  0  0  0  0  0  0  0  0
   -5.9630   14.9510    0.6180 N   0  0  0  0  0  0  0  0  0  0  0  0
   -3.5600   14.7760    0.1100 C   0  0  1  0  0  0  0  0  0  0  0  0
   -3.0760   14.3220   -2.3880 C   0  0  1  0  0  0  0  0  0  0  0  0
   -2.2480   14.3670   -3.7090 C   0  0  2  0  0  0  0  0  0  0  0  0
   -5.2680   15.0790    1.8460 C   0  0  2  0  0  0  0  0  0  0  0  0
   -3.8160   14.0260    1.7250 S   0  0  0  0  0  0  0  0  0  0  0  0
   -2.5430   14.2420   -0.9240 C   0  0  1  0  0  0  0  0  0  0  0  0
   -6.3350   14.7570    2.7390 N   0  0  0  0  0  0  0  0  0  0  0  0
   -0.7260   14.6530   -3.7510 C   0  0  2  0  0  0  0  0  0  0  0  0
   -2.9210   15.1820   -4.6610 O   0  0  0  0  0  0  0  0  0  0  0  0
   -1.3070   15.0010   -0.8330 O   0  0  0  0  0  0  0  0  0  0  0  0
   -0.2860   15.9740   -4.4060 C   0  0  0  0  0  0  0  0  0  0  0  0
   -0.1280   13.3250   -4.8770 S   0  0  0  0  0  0  0  0  0  0  0  0
    1.2060   12.5770   -3.8420 C   0  0  0  0  0  0  0  0  0  0  0  0
    1.0220   11.8270   -2.4770 C   0  0  1  0  0  0  0  0  0  0  0  0
    0.2050   12.4780   -1.5340 O   0  0  0  0  0  0  0  0  0  0  0  0
    0.4840   10.6060   -2.5070 O   0  0  0  0  0  0  0  0  0  0  0  0
  2  1  1  6
  2  3  1  0
  2  4  1  0
  3  5  1  1
  3  6  1  0
  7  4  1  1
  7  8  1  0
  5  9  1  0
  6 10  1  1
  9 10  1  0
  6 11  1  0
  7 11  1  0
  9 12  1  1
  8 13  1  0
  8 14  1  6
 11 15  1  6
 13 16  1  6
 13 17  1  0
 17 18  1  0
 18 19  1  0
 19 20  1  1
 19 21  1  0
M  CHG  1  21  -1
M  END
