ucsf357-ucsf348
     RDKit          3D

 16 17  0  0  0  0  0  0  0  0999 V2000
   -6.0650   15.4500   -2.7390 O   0  0  0  0  0  0  0  0  0  0  0  0
   -5.6380   15.6600   -1.5300 C   0  0  1  0  0  0  0  0  0  0  0  0
   -6.7930   15.4080   -0.7530 O   0  0  0  0  0  0  0  0  0  0  0  0
   -4.5730   14.6290   -1.1020 C   0  0  1  0  0  0  0  0  0  0  0  0
   -3.7470   14.1990   -2.3620 C   0  0  0  0  0  0  0  0  0  0  0  0
   -3.7140   15.1520    0.0800 C   0  0  2  0  0  0  0  0  0  0  0  0
   -5.3810   13.4400   -0.6020 C   0  0  0  0  0  0  0  0  0  0  0  0
   -2.3180   14.6860   -2.3870 C   0  0  2  0  0  0  0  0  0  0  0  0
   -2.2840   14.5530    0.2190 C   0  0  0  0  0  0  0  0  0  0  0  0
   -6.3310   13.8640    0.3960 N   0  0  0  0  0  0  0  0  0  0  0  0
   -4.5100   15.1830    1.3620 N   0  0  0  0  0  0  0  0  0  0  0  0
   -1.6440   14.2670   -3.4940 F   0  0  0  0  0  0  0  0  0  0  0  0
   -1.5240   14.3540   -1.1190 C   0  0  2  0  0  0  0  0  0  0  0  0
   -5.6400   14.2760    1.5430 C   0  0  1  0  0  0  0  0  0  0  0  0
   -0.2560   15.0440   -1.1330 O   0  0  0  0  0  0  0  0  0  0  0  0
   -6.5920   14.8150    2.4740 N   0  0  0  0  0  0  0  0  0  0  0  0
  2  1  1  6
  2  3  1  0
  2  4  1  0
  4  5  1  6
  4  6  1  0
  4  7  1  0
  5  8  1  0
  6  9  1  1
  7 10  1  0
  6 11  1  0
  8 12  1  6
  8 13  1  0
  9 13  1  0
 10 14  1  0
 11 14  1  0
 13 15  1  1
 14 16  1  1
M  CHG  1   1  -1
M  END
