ucsf243-ucsf320
     RDKit          3D

 12 12  0  0  0  0  0  0  0  0999 V2000
   -4.0450   15.7780    0.8250 C   0  0  0  0  0  0  0  0  0  0  0  0
   -3.4830   14.8940   -0.2830 C   0  0  1  0  0  0  0  0  0  0  0  0
   -4.5370   14.6880   -1.3950 C   0  0  1  0  0  0  0  0  0  0  0  0
   -2.1220   15.4710   -0.7260 C   0  0  0  0  0  0  0  0  0  0  0  0
   -5.8060   15.3040   -1.0490 O   0  0  0  0  0  0  0  0  0  0  0  0
   -1.5610   15.0860   -2.1240 C   0  0  1  0  0  0  0  0  0  0  0  0
   -4.0350   15.1260   -2.7690 C   0  0  0  0  0  0  0  0  0  0  0  0
   -0.2780   14.2130   -2.0190 C   0  0  1  0  0  0  0  0  0  0  0  0
   -2.6640   14.5220   -3.0400 C   0  0  1  0  0  0  0  0  0  0  0  0
   -2.3050   14.8020   -4.4170 O   0  0  0  0  0  0  0  0  0  0  0  0
    0.3430   14.0560   -3.2730 O   0  0  0  0  0  0  0  0  0  0  0  0
    0.6480   14.8500   -1.3370 O   0  0  0  0  0  0  0  0  0  0  0  0
  2  1  1  1
  2  3  1  0
  2  4  1  0
  3  5  1  1
  6  4  1  1
  3  7  1  0
  6  8  1  0
  6  9  1  0
  7  9  1  0
  9 10  1  6
  8 11  1  6
  8 12  1  0
M  CHG  1  12  -1
M  END
