ucsf147-ucsf260
     RDKit          3D

 27 31  0  0  0  0  0  0  0  0999 V2000
    1.2500   13.1780   -4.5220 C   0  0  1  0  0  0  0  0  0  0  0  0
    1.3760   12.3480   -3.1720 C   0  0  2  0  0  0  0  0  0  0  0  0
    0.8610   11.1200   -3.2350 O   0  0  0  0  0  0  0  0  0  0  0  0
    0.9160   12.4490   -5.8090 C   0  0  0  0  0  0  0  0  0  0  0  0
    0.2490   14.3410   -4.5510 C   0  0  1  0  0  0  0  0  0  0  0  0
    0.7840   12.9550   -2.0110 O   0  0  0  0  0  0  0  0  0  0  0  0
   -0.8760   14.0960   -5.4530 O   0  0  0  0  0  0  0  0  0  0  0  0
   -0.3510   14.7410   -3.2440 C   0  0  2  0  0  0  0  0  0  0  0  0
   -0.0030   11.3180   -5.6710 N   0  0  0  0  0  0  0  0  0  0  0  0
    0.4930   14.3440   -2.0230 C   0  0  2  0  0  0  0  0  0  0  0  0
   -2.1410   14.3170   -4.7270 N   0  0  0  0  0  0  0  0  0  0  0  0
   -1.7150   14.0760   -3.3380 C   0  0  2  0  0  0  0  0  0  0  0  0
   -1.3260   11.5360   -5.0800 C   0  0  0  0  0  0  0  0  0  0  0  0
   -0.3510   10.8020   -6.9410 C   0  0  2  0  0  0  0  0  0  0  0  0
    1.6130   15.0430   -2.0140 O   0  0  0  0  0  0  0  0  0  0  0  0
   -2.7350   14.5850   -2.3010 C   0  0  0  0  0  0  0  0  0  0  0  0
   -2.1550   10.3990   -5.6080 N   0  0  0  0  0  0  0  0  0  0  0  0
   -1.1400    9.6610   -6.3750 C   0  0  1  0  0  0  0  0  0  0  0  0
    0.8090   10.4120   -7.8410 C   0  0  0  0  0  0  0  0  0  0  0  0
   -2.8240   13.7380   -1.0280 C   0  0  0  0  0  0  0  0  0  0  0  0
   -4.1230   14.8790   -2.8990 C   0  0  0  0  0  0  0  0  0  0  0  0
   -1.6440    8.7400   -7.4580 C   0  0  0  0  0  0  0  0  0  0  0  0
    0.4370    9.3570   -8.8710 C   0  0  0  0  0  0  0  0  0  0  0  0
   -3.6380   14.4520    0.0540 C   0  0  0  0  0  0  0  0  0  0  0  0
   -5.1650   15.1850   -1.8200 C   0  0  0  0  0  0  0  0  0  0  0  0
   -0.4690    8.2490   -8.3130 C   0  0  0  0  0  0  0  0  0  0  0  0
   -4.4930   15.5720   -0.5160 C   0  0  0  0  0  0  0  0  0  0  0  0
  1  2  1  0
  2  3  1  6
  1  4  1  6
  1  5  1  0
  2  6  1  0
  5  7  1  6
  5  8  1  0
  4  9  1  0
  6 10  1  0
  8 10  1  1
  7 11  1  0
  8 12  1  0
 11 12  1  0
  9 13  1  0
  9 14  1  0
 10 15  1  6
 12 16  1  1
 13 17  1  0
 14 18  1  0
 17 18  1  0
 14 19  1  1
 16 20  1  0
 16 21  1  0
 18 22  1  6
 19 23  1  0
 20 24  1  0
 21 25  1  0
 22 26  1  0
 23 26  1  0
 24 27  1  0
 25 27  1  0
M  CHG  2   3  -1  15  -1
M  END
