ucsf422-ucsf338
     RDKit          3D

 27 29  0  0  0  0  0  0  0  0999 V2000
    0.2860   11.1190   -2.5000 O   0  0  0  0  0  0  0  0  0  0  0  0
    0.4330   12.3910   -2.8070 C   0  0  1  0  0  0  0  0  0  0  0  0
    1.6380   12.6760   -2.1440 O   0  0  0  0  0  0  0  0  0  0  0  0
    0.6560   12.5670   -4.3280 C   0  0  0  0  0  0  0  0  0  0  0  0
    1.1060   13.9820   -4.7520 C   0  0  2  0  0  0  0  0  0  0  0  0
    1.7420   14.8540   -3.6800 C   0  0  0  0  0  0  0  0  0  0  0  0
   -0.0390   14.8640   -5.2330 C   0  0  2  0  0  0  0  0  0  0  0  0
    1.4660   16.2660   -4.0520 N   0  0  0  0  0  0  0  0  0  0  0  0
    0.5590   16.2650   -5.2080 C   0  0  2  0  0  0  0  0  0  0  0  0
   -1.4180   14.6760   -4.5840 C   0  0  0  0  0  0  0  0  0  0  0  0
   -0.4200   17.4410   -5.1280 C   0  0  0  0  0  0  0  0  0  0  0  0
   -2.3870   15.8860   -4.5650 C   0  0  2  0  0  0  0  0  0  0  0  0
   -3.6920   15.5640   -5.0750 O   0  0  0  0  0  0  0  0  0  0  0  0
   -1.8790   17.0840   -5.3730 C   0  0  0  0  0  0  0  0  0  0  0  0
   -4.2520   14.3220   -4.6190 C   0  0  0  0  0  0  0  0  0  0  0  0
   -5.2180   14.5260   -3.4370 C   0  0  0  0  0  0  0  0  0  0  0  0
   -4.6310   15.3540   -2.4280 O   0  0  0  0  0  0  0  0  0  0  0  0
   -4.0650   14.6400   -1.3190 C   0  0  2  0  0  0  0  0  0  0  0  0
   -5.0970   14.4090   -0.1780 C   0  0  2  0  0  0  0  0  0  0  0  0
   -2.8310   15.4600   -0.8440 C   0  0  0  0  0  0  0  0  0  0  0  0
   -6.5970   14.3510   -0.5930 C   0  0  1  0  0  0  0  0  0  0  0  0
   -2.3090   15.2070    0.5890 C   0  0  0  0  0  0  0  0  0  0  0  0
   -4.7540   15.3020    1.0100 C   0  0  0  0  0  0  0  0  0  0  0  0
   -7.5710   14.6310    0.4550 N   0  0  0  0  0  0  0  0  0  0  0  0
   -6.9160   15.1580   -1.6940 O   0  0  0  0  0  0  0  0  0  0  0  0
   -3.4120   14.8830    1.5700 C   0  0  0  0  0  0  0  0  0  0  0  0
   -8.8610   14.1090    0.0460 O   0  0  0  0  0  0  0  0  0  0  0  0
  2  1  1  6
  2  3  1  0
  2  4  1  0
  5  4  1  1
  5  6  1  0
  5  7  1  0
  6  8  1  0
  7  9  1  0
  8  9  1  0
  7 10  1  1
  9 11  1  1
 10 12  1  0
 12 13  1  6
 11 14  1  0
 12 14  1  0
 13 15  1  0
 15 16  1  0
 16 17  1  0
 18 17  1  6
 18 19  1  0
 18 20  1  0
 19 21  1  0
 20 22  1  0
 19 23  1  1
 21 24  1  0
 21 25  1  6
 22 26  1  0
 23 26  1  0
 24 27  1  0
M  CHG  1   1  -1
M  END
