ucsf403-ucsf523
     RDKit          3D

 28 30  0  0  0  0  0  0  0  0999 V2000
    0.6370    9.0150   -7.8910 Cl  0  0  0  0  0  0  0  0  0  0  0  0
   -0.5040    9.4120   -6.5470 C   0  0  1  0  0  0  0  0  0  0  0  0
   -0.5300   10.9430   -6.2710 C   0  0  2  0  0  0  0  0  0  0  0  0
   -1.8650    8.8290   -6.8930 C   0  0  0  0  0  0  0  0  0  0  0  0
    0.7880   11.3160   -5.8270 O   0  0  0  0  0  0  0  0  0  0  0  0
   -1.5630   11.3680   -5.1730 C   0  0  1  0  0  0  0  0  0  0  0  0
   -3.0130    9.5330   -6.1820 C   0  0  0  0  0  0  0  0  0  0  0  0
   -2.2680   12.7060   -5.5330 C   0  0  0  0  0  0  0  0  0  0  0  0
    0.9070   12.4990   -5.0040 C   0  0  0  0  0  0  0  0  0  0  0  0
   -2.5820   10.2550   -4.9070 C   0  0  0  0  0  0  0  0  0  0  0  0
    0.7240   12.1630   -3.4920 C   0  0  2  0  0  0  0  0  0  0  0  0
   -1.7210   14.0200   -4.9380 C   0  0  0  0  0  0  0  0  0  0  0  0
    1.8630   12.2690   -2.8490 O   0  0  0  0  0  0  0  0  0  0  0  0
    0.4420   10.7820   -3.3130 O   0  0  0  0  0  0  0  0  0  0  0  0
   -2.3640   14.4620   -3.6210 C   0  0  0  0  0  0  0  0  0  0  0  0
   -1.3550   14.4810   -2.6160 O   0  0  0  0  0  0  0  0  0  0  0  0
   -1.6730   15.2460   -1.4640 C   0  0  2  0  0  0  0  0  0  0  0  0
   -0.4720   15.2930   -0.6470 N   0  0  0  0  0  0  0  0  0  0  0  0
   -2.9440   14.6780   -0.8050 C   0  0  1  0  0  0  0  0  0  0  0  0
   -0.4900   14.8280    0.6940 C   0  0  2  0  0  0  0  0  0  0  0  0
   -2.8750   15.1360    0.6590 C   0  0  2  0  0  0  0  0  0  0  0  0
   -4.1980   15.1200   -1.4970 N   0  0  0  0  0  0  0  0  0  0  0  0
    0.1750   13.5980    0.7270 N   0  0  0  0  0  0  0  0  0  0  0  0
   -1.7260   14.6410    1.3520 N   0  0  0  0  0  0  0  0  0  0  0  0
   -3.9600   14.5880    1.4070 N   0  0  0  0  0  0  0  0  0  0  0  0
   -5.3630   14.8620   -0.6240 C   0  0  0  0  0  0  0  0  0  0  0  0
   -5.1210   15.2180    0.8610 C   0  0  1  0  0  0  0  0  0  0  0  0
   -6.2040   14.8800    1.6980 O   0  0  0  0  0  0  0  0  0  0  0  0
  2  1  1  6
  2  3  1  0
  2  4  1  0
  3  5  1  1
  3  6  1  0
  4  7  1  0
  6  8  1  6
  5  9  1  0
  6 10  1  0
  7 10  1  0
  9 11  1  0
  8 12  1  0
 11 13  1  1
 11 14  1  0
 12 15  1  0
 15 16  1  0
 17 16  1  6
 17 18  1  0
 17 19  1  0
 18 20  1  0
 19 21  1  0
 19 22  1  6
 20 23  1  6
 20 24  1  0
 21 24  1  1
 21 25  1  0
 22 26  1  0
 25 27  1  0
 26 27  1  0
 27 28  1  1
M  CHG  1  13  -1
M  END
