ucsf404-ucsf320
     RDKit          3D

 15 16  0  0  0  0  0  0  0  0999 V2000
   -6.8120   15.6460   -2.2380 Cl  0  0  0  0  0  0  0  0  0  0  0  0
   -5.5670   14.6020   -1.5270 C   0  0  1  0  0  0  0  0  0  0  0  0
   -5.2340   15.0770   -0.1410 C   0  0  1  0  0  0  0  0  0  0  0  0
   -6.3350   13.4270   -1.3090 O   0  0  0  0  0  0  0  0  0  0  0  0
   -4.3520   14.3610   -2.4310 C   0  0  0  0  0  0  0  0  0  0  0  0
   -6.3320   14.7920    0.7960 N   0  0  0  0  0  0  0  0  0  0  0  0
   -4.0350   14.3080    0.3830 C   0  0  2  0  0  0  0  0  0  0  0  0
   -3.0090   14.8880   -1.8470 C   0  0  2  0  0  0  0  0  0  0  0  0
   -1.7780   14.4890   -2.6830 C   0  0  2  0  0  0  0  0  0  0  0  0
   -5.7720   14.4540    2.0540 C   0  0  1  0  0  0  0  0  0  0  0  0
   -4.0580   14.9990    2.0310 S   0  0  0  0  0  0  0  0  0  0  0  0
   -2.7450   14.5360   -0.3650 C   0  0  0  0  0  0  0  0  0  0  0  0
   -6.5780   15.0870    3.0460 N   0  0  0  0  0  0  0  0  0  0  0  0
   -0.6640   14.8310   -2.0820 O   0  0  0  0  0  0  0  0  0  0  0  0
   -1.7450   15.2620   -3.8630 O   0  0  0  0  0  0  0  0  0  0  0  0
  2  1  1  0
  2  3  1  0
  2  4  1  1
  2  5  1  0
  3  6  1  1
  3  7  1  0
  8  5  1  6
  8  9  1  0
  6 10  1  0
  7 11  1  0
 10 11  1  0
  7 12  1  6
  8 12  1  0
 10 13  1  1
  9 14  1  1
  9 15  1  0
M  CHG  1  14  -1
M  END
