ucsf028-ucsf006
     RDKit          3D

 23 26  0  0  0  0  0  0  0  0999 V2000
   -4.7320   15.1100    1.1000 N   0  0  0  0  0  0  0  0  0  0  0  0
   -3.5270   15.4780    0.3620 C   0  0  1  0  0  0  0  0  0  0  0  0
   -2.3480   14.4890    0.5370 C   0  0  1  0  0  0  0  0  0  0  0  0
   -4.0370   15.6240   -0.9890 N   0  0  0  0  0  0  0  0  0  0  0  0
   -3.3560   14.8620   -2.0400 C   0  0  0  0  0  0  0  0  0  0  0  0
   -1.4640   14.3520   -0.7270 C   0  0  1  0  0  0  0  0  0  0  0  0
   -1.3950   14.8230    1.6150 N   0  0  0  0  0  0  0  0  0  0  0  0
   -1.9070   14.9210   -1.9750 N   0  0  0  0  0  0  0  0  0  0  0  0
   -0.1960   14.9380   -0.3430 N   0  0  0  0  0  0  0  0  0  0  0  0
   -0.0850   14.6160    1.0380 C   0  0  0  0  0  0  0  0  0  0  0  0
   -1.2270   14.2760   -3.1520 C   0  0  1  0  0  0  0  0  0  0  0  0
   -2.2510   14.6490   -4.2840 C   0  0  0  0  0  0  0  0  0  0  0  0
    0.1390   14.8840   -3.6500 C   0  0  0  0  0  0  0  0  0  0  0  0
   -1.0710   12.6950   -3.1030 C   0  0  2  0  0  0  0  0  0  0  0  0
    0.7980   14.3660   -4.9460 C   0  0  0  0  0  0  0  0  0  0  0  0
    0.1800   12.1770   -2.5970 O   0  0  0  0  0  0  0  0  0  0  0  0
   -1.4390   11.6780   -4.2220 C   0  0  1  0  0  0  0  0  0  0  0  0
   -1.1540   11.9700   -5.5530 O   0  0  0  0  0  0  0  0  0  0  0  0
    1.2150   12.8870   -5.1610 C   0  0  2  0  0  0  0  0  0  0  0  0
   -0.6790   10.4730   -3.8710 N   0  0  0  0  0  0  0  0  0  0  0  0
   -0.1030   10.7930   -2.5900 C   0  0  0  0  0  0  0  0  0  0  0  0
    0.2170   11.9480   -5.9320 C   0  0  0  0  0  0  0  0  0  0  0  0
    1.5880   12.3700   -3.9940 O   0  0  0  0  0  0  0  0  0  0  0  0
  2  1  1  1
  2  3  1  0
  2  4  1  0
  4  5  1  0
  3  6  1  0
  3  7  1  1
  5  8  1  0
  6  8  1  0
  6  9  1  1
  7 10  1  0
  9 10  1  0
  8 11  1  0
 11 12  1  6
 11 13  1  0
 11 14  1  0
 13 15  1  0
 14 16  1  6
 14 17  1  0
 17 18  1  0
 15 19  1  0
 17 20  1  1
 16 21  1  0
 20 21  1  0
 18 22  1  0
 19 22  1  0
 19 23  1  1
M  CHG  1  23  -1
M  END
