ucsf422-ucsf213
     RDKit          3D

 14 15  0  0  0  0  0  0  0  0999 V2000
    0.4570   10.5620   -2.4420 O   0  0  0  0  0  0  0  0  0  0  0  0
    0.0080   11.7970   -2.6060 C   0  0  1  0  0  0  0  0  0  0  0  0
    0.5100   12.3970   -1.4250 O   0  0  0  0  0  0  0  0  0  0  0  0
    0.6650   12.5310   -3.8030 C   0  0  0  0  0  0  0  0  0  0  0  0
    0.7720   14.0890   -3.7050 C   0  0  1  0  0  0  0  0  0  0  0  0
    1.7130   14.5490   -4.7930 C   0  0  0  0  0  0  0  0  0  0  0  0
   -0.3820   15.0400   -4.0450 C   0  0  1  0  0  0  0  0  0  0  0  0
    1.6740   16.0220   -4.7320 N   0  0  0  0  0  0  0  0  0  0  0  0
    0.3000   16.3760   -4.3560 C   0  0  1  0  0  0  0  0  0  0  0  0
   -1.5260   14.6590   -4.9470 C   0  0  0  0  0  0  0  0  0  0  0  0
   -0.4020   17.2610   -5.3910 C   0  0  0  0  0  0  0  0  0  0  0  0
   -2.5330   15.7960   -4.9760 C   0  0  2  0  0  0  0  0  0  0  0  0
   -4.0410   15.2390   -6.0980 Br  0  0  0  0  0  0  0  0  0  0  0  0
   -1.9400   17.1210   -5.4790 C   0  0  0  0  0  0  0  0  0  0  0  0
  2  1  1  1
  2  3  1  0
  2  4  1  0
  5  4  1  6
  5  6  1  0
  5  7  1  0
  6  8  1  0
  7  9  1  0
  8  9  1  0
  7 10  1  6
  9 11  1  6
 10 12  1  0
 12 13  1  6
 11 14  1  0
 12 14  1  0
M  CHG  1   1  -1
M  END
