ucsf241-ucsf516
     RDKit          3D

 17 20  0  0  0  0  0  0  0  0999 V2000
   -4.4850   15.3740    0.2980 C   0  0  0  0  0  0  0  0  0  0  0  0
   -3.8410   15.2120   -1.0810 C   0  0  0  0  0  0  0  0  0  0  0  0
   -2.4410   14.6670   -0.7760 C   0  0  2  0  0  0  0  0  0  0  0  0
   -3.5850   14.6830    1.2260 N   0  0  0  0  0  0  0  0  0  0  0  0
   -2.3080   15.0680    0.7140 C   0  0  1  0  0  0  0  0  0  0  0  0
   -1.2450   14.9020   -1.7990 C   0  0  2  0  0  0  0  0  0  0  0  0
   -1.3260   14.3360    1.4070 N   0  0  0  0  0  0  0  0  0  0  0  0
   -0.4810   13.8380   -0.9330 C   0  0  0  0  0  0  0  0  0  0  0  0
   -0.1720   14.2260    0.5390 C   0  0  0  0  0  0  0  0  0  0  0  0
   -0.8610   14.1120   -3.1220 C   0  0  2  0  0  0  0  0  0  0  0  0
   -2.4160   14.9170   -2.9120 C   0  0  0  0  0  0  0  0  0  0  0  0
   -0.1300   12.7980   -3.3110 C   0  0  0  0  0  0  0  0  0  0  0  0
   -0.4800   15.1210   -4.1730 C   0  0  0  0  0  0  0  0  0  0  0  0
   -1.9100   15.5050   -4.2680 C   0  0  0  0  0  0  0  0  0  0  0  0
    1.2250   12.3390   -2.7320 C   0  0  0  0  0  0  0  0  0  0  0  0
   -0.7340   11.6560   -2.4540 C   0  0  0  0  0  0  0  0  0  0  0  0
    0.5410   10.9430   -2.8290 C   0  0  0  0  0  0  0  0  0  0  0  0
  1  2  1  0
  3  2  1  6
  1  4  1  0
  3  5  1  0
  5  4  1  1
  3  6  1  0
  5  7  1  0
  6  8  1  1
  7  9  1  0
  8  9  1  0
  6 10  1  0
  6 11  1  0
 10 12  1  1
 10 13  1  0
 11 14  1  0
 13 14  1  0
 12 15  1  0
 12 16  1  0
 15 17  1  0
 16 17  1  0
M  END
