ucsf422-ucsf387
     RDKit          3D

 15 16  0  0  0  0  0  0  0  0999 V2000
    0.3810   11.0350   -2.6530 O   0  0  0  0  0  0  0  0  0  0  0  0
    0.4600   12.3210   -2.9190 C   0  0  1  0  0  0  0  0  0  0  0  0
    1.5790   12.6950   -2.1570 O   0  0  0  0  0  0  0  0  0  0  0  0
    0.7640   12.5360   -4.4170 C   0  0  0  0  0  0  0  0  0  0  0  0
    1.1830   13.9650   -4.7960 C   0  0  2  0  0  0  0  0  0  0  0  0
    1.9140   14.7430   -3.7100 C   0  0  0  0  0  0  0  0  0  0  0  0
    0.0810   14.9530   -5.1990 C   0  0  2  0  0  0  0  0  0  0  0  0
    1.6340   16.1430   -4.0350 N   0  0  0  0  0  0  0  0  0  0  0  0
    0.2020   16.1150   -4.2480 C   0  0  1  0  0  0  0  0  0  0  0  0
   -1.3420   14.4590   -5.2980 C   0  0  0  0  0  0  0  0  0  0  0  0
   -0.4660   17.3660   -4.8060 C   0  0  1  0  0  0  0  0  0  0  0  0
   -2.3540   15.5790   -5.4820 C   0  0  1  0  0  0  0  0  0  0  0  0
   -3.7980   15.1190   -4.2600 Br  0  0  0  0  0  0  0  0  0  0  0  0
    0.6170   18.2110   -5.9570 Cl  0  0  0  0  0  0  0  0  0  0  0  0
   -1.8680   17.0660   -5.3990 C   0  0  0  0  0  0  0  0  0  0  0  0
  2  1  1  6
  2  3  1  0
  2  4  1  0
  5  4  1  1
  5  6  1  0
  5  7  1  0
  6  8  1  0
  7  9  1  0
  9  8  1  6
  7 10  1  1
  9 11  1  0
 10 12  1  0
 12 13  1  1
 11 14  1  6
 11 15  1  0
 12 15  1  0
M  CHG  1   1  -1
M  END
