ucsf123-ucsf013
     RDKit          3D

 25 27  0  0  0  0  0  0  0  0999 V2000
   -1.8340   18.6120   -4.8390 N   0  0  0  0  0  0  0  0  0  0  0  0
   -1.5130   17.3170   -5.7660 S   0  0  0  0  0  0  0  0  0  0  0  0
   -0.3270   17.7810   -6.7180 O   0  0  0  0  0  0  0  0  0  0  0  0
   -2.7510   17.0120   -6.7120 O   0  0  0  0  0  0  0  0  0  0  0  0
   -0.9670   15.7680   -5.0430 C   0  0  1  0  0  0  0  0  0  0  0  0
    0.5400   15.7590   -4.7850 C   0  0  0  0  0  0  0  0  0  0  0  0
   -1.7680   15.2990   -3.8480 C   0  0  0  0  0  0  0  0  0  0  0  0
    1.0110   14.4900   -4.0880 C   0  0  0  0  0  0  0  0  0  0  0  0
   -0.8720   15.3060   -2.6060 C   0  0  1  0  0  0  0  0  0  0  0  0
   -1.5730   15.4010   -1.2330 C   0  0  0  0  0  0  0  0  0  0  0  0
    0.2830   14.2620   -2.7540 C   0  0  1  0  0  0  0  0  0  0  0  0
   -0.0470   12.8070   -2.2720 C   0  0  2  0  0  0  0  0  0  0  0  0
   -3.1140   15.2810   -1.1530 C   0  0  1  0  0  0  0  0  0  0  0  0
    0.5300   12.6460   -1.0050 O   0  0  0  0  0  0  0  0  0  0  0  0
    0.5940   11.8800   -2.9510 O   0  0  0  0  0  0  0  0  0  0  0  0
   -3.9220   15.2800   -2.4530 C   0  0  0  0  0  0  0  0  0  0  0  0
   -3.4250   14.0060   -0.3700 C   0  0  0  0  0  0  0  0  0  0  0  0
   -4.9060   13.8630    0.0060 C   0  0  1  0  0  0  0  0  0  0  0  0
   -5.3890   15.4150   -2.0710 C   0  0  0  0  0  0  0  0  0  0  0  0
   -5.2500   14.3760    1.4120 C   0  0  1  0  0  0  0  0  0  0  0  0
   -5.8890   14.3220   -1.1210 C   0  0  2  0  0  0  0  0  0  0  0  0
   -4.4100   15.4510    1.8870 N   0  0  0  0  0  0  0  0  0  0  0  0
   -7.1760   14.8030   -0.6100 N   0  0  0  0  0  0  0  0  0  0  0  0
   -6.6080   14.7930    1.6480 N   0  0  0  0  0  0  0  0  0  0  0  0
   -7.5050   14.2510    0.6640 C   0  0  0  0  0  0  0  0  0  0  0  0
  1  2  1  0
  2  3  1  0
  2  4  1  0
  5  2  1  1
  5  6  1  0
  5  7  1  0
  6  8  1  0
  7  9  1  0
  9 10  1  1
 11  8  1  6
  9 11  1  0
 11 12  1  0
 13 10  1  6
 12 14  1  1
 12 15  1  0
 13 16  1  0
 13 17  1  0
 18 17  1  6
 16 19  1  0
 18 20  1  0
 18 21  1  0
 21 19  1  1
 20 22  1  6
 21 23  1  0
 20 24  1  0
 23 25  1  0
 24 25  1  0
M  CHG  1  15  -1
M  END
