ucsf151-ucsf345
     RDKit          3D

 18 19  0  0  0  0  0  0  0  0999 V2000
    0.5900   13.1380   -2.0530 O   0  0  0  0  0  0  0  0  0  0  0  0
   -0.0840   13.9540   -2.8440 C   0  0  2  0  0  0  0  0  0  0  0  0
    0.0380   15.1480   -2.0880 O   0  0  0  0  0  0  0  0  0  0  0  0
   -1.5890   13.4690   -2.9640 C   0  0  1  0  0  0  0  0  0  0  0  0
   -2.8540   14.4680   -2.9600 C   0  0  1  0  0  0  0  0  0  0  0  0
   -1.6800   12.5310   -4.2020 C   0  0  0  0  0  0  0  0  0  0  0  0
   -2.9600   15.2340   -4.3620 C   0  0  1  0  0  0  0  0  0  0  0  0
   -2.7390   12.8830   -5.1570 N   0  0  0  0  0  0  0  0  0  0  0  0
   -4.2390   13.7260   -2.7790 C   0  0  0  0  0  0  0  0  0  0  0  0
   -2.7900   15.2760   -1.6500 N   0  0  0  0  0  0  0  0  0  0  0  0
   -2.2000   16.4310   -4.5590 O   0  0  0  0  0  0  0  0  0  0  0  0
   -2.6270   14.2860   -5.5340 C   0  0  0  0  0  0  0  0  0  0  0  0
   -5.4470   14.5540   -2.4370 N   0  0  0  0  0  0  0  0  0  0  0  0
   -3.8320   14.9840   -0.6220 C   0  0  0  0  0  0  0  0  0  0  0  0
   -5.2690   15.2360   -1.1410 C   0  0  2  0  0  0  0  0  0  0  0  0
   -6.4560   14.8840   -0.1600 C   0  0  2  0  0  0  0  0  0  0  0  0
   -6.1020   14.7570    1.2480 N   0  0  0  0  0  0  0  0  0  0  0  0
   -7.1370   13.7000   -0.4870 O   0  0  0  0  0  0  0  0  0  0  0  0
  2  1  1  1
  2  3  1  0
  2  4  1  0
  4  5  1  0
  4  6  1  6
  5  7  1  0
  6  8  1  0
  5  9  1  1
  5 10  1  0
  7 11  1  1
  7 12  1  0
  8 12  1  0
  9 13  1  0
 10 14  1  0
 13 15  1  0
 15 14  1  1
 15 16  1  0
 16 17  1  1
 16 18  1  0
M  CHG  1   1  -1
M  END
