ucsf511-ucsf247
     RDKit          3D

 20 22  0  0  0  0  0  0  0  0999 V2000
    0.7070   13.4490   -1.7180 O   0  0  0  0  0  0  0  0  0  0  0  0
    1.8680   13.7610   -2.4750 C   0  0  1  0  0  0  0  0  0  0  0  0
    2.1670   12.6650   -3.3140 O   0  0  0  0  0  0  0  0  0  0  0  0
   -0.3930   14.1030   -2.2930 C   0  0  2  0  0  0  0  0  0  0  0  0
    1.5700   14.9960   -3.3860 C   0  0  0  0  0  0  0  0  0  0  0  0
   -1.8150   13.7660   -1.8760 C   0  0  2  0  0  0  0  0  0  0  0  0
   -0.2610   13.8080   -3.7390 N   0  0  0  0  0  0  0  0  0  0  0  0
    0.3840   15.7880   -3.0130 N   0  0  0  0  0  0  0  0  0  0  0  0
   -2.5180   14.3400   -3.0970 C   0  0  1  0  0  0  0  0  0  0  0  0
   -1.2020   12.8870   -4.3450 C   0  0  0  0  0  0  0  0  0  0  0  0
   -2.3650   14.4130   -0.7090 O   0  0  0  0  0  0  0  0  0  0  0  0
   -2.5730   13.3480   -4.1500 N   0  0  0  0  0  0  0  0  0  0  0  0
   -3.5630   15.1590   -1.0980 C   0  0  1  0  0  0  0  0  0  0  0  0
   -3.7770   15.0100   -2.6100 C   0  0  2  0  0  0  0  0  0  0  0  0
   -5.1300   14.4380   -3.0110 C   0  0  0  0  0  0  0  0  0  0  0  0
   -4.7300   14.6290   -0.2940 C   0  0  0  0  0  0  0  0  0  0  0  0
   -3.6830   16.2630   -3.2680 O   0  0  0  0  0  0  0  0  0  0  0  0
   -6.3250   14.9810   -2.2340 C   0  0  0  0  0  0  0  0  0  0  0  0
   -6.0180   15.2860   -0.7670 C   0  0  1  0  0  0  0  0  0  0  0  0
   -7.1140   14.8370    0.0260 O   0  0  0  0  0  0  0  0  0  0  0  0
  1  2  1  0
  2  3  1  6
  4  1  1  1
  2  5  1  0
  4  6  1  0
  4  7  1  0
  5  8  1  0
  6  9  1  0
  7 10  1  0
  6 11  1  1
  9 12  1  6
 10 12  1  0
 11 13  1  0
  9 14  1  0
 13 14  1  0
 14 15  1  0
 13 16  1  1
 14 17  1  6
 15 18  1  0
 16 19  1  0
 18 19  1  0
 19 20  1  1
M  END
