ucsf248-ucsf028
     RDKit          3D

 26 29  0  0  0  0  0  0  0  0999 V2000
   -8.3080   12.4880    2.3740 N   0  0  0  0  0  0  0  0  0  0  0  0
   -7.9050   14.0440    2.0320 S   0  0  0  0  0  0  0  0  0  0  0  0
   -7.6570   14.8330    3.4060 O   0  0  0  0  0  0  0  0  0  0  0  0
   -9.1180   14.8000    1.2900 O   0  0  0  0  0  0  0  0  0  0  0  0
   -6.3740   14.4520    1.0900 C   0  0  1  0  0  0  0  0  0  0  0  0
   -5.1630   13.6610    1.3570 N   0  0  0  0  0  0  0  0  0  0  0  0
   -6.5290   14.4690   -0.3990 N   0  0  0  0  0  0  0  0  0  0  0  0
   -4.3580   14.4100    0.3980 C   0  0  2  0  0  0  0  0  0  0  0  0
   -5.1600   14.0660   -0.8670 C   0  0  2  0  0  0  0  0  0  0  0  0
   -2.7890   14.5770    0.2340 C   0  0  1  0  0  0  0  0  0  0  0  0
   -4.6530   14.6710   -2.2050 C   0  0  0  0  0  0  0  0  0  0  0  0
   -3.0260   15.7970   -0.6180 C   0  0  1  0  0  0  0  0  0  0  0  0
   -3.2800   15.4150   -2.1200 C   0  0  1  0  0  0  0  0  0  0  0  0
   -1.9440   14.8830    1.4300 N   0  0  0  0  0  0  0  0  0  0  0  0
   -1.8910   13.6800   -0.5910 C   0  0  0  0  0  0  0  0  0  0  0  0
   -4.2860   16.2600    0.0060 N   0  0  0  0  0  0  0  0  0  0  0  0
   -1.9670   14.8790   -2.8920 C   0  0  0  0  0  0  0  0  0  0  0  0
   -0.5360   14.1830   -0.3200 N   0  0  0  0  0  0  0  0  0  0  0  0
   -0.5450   14.6680    1.0370 C   0  0  0  0  0  0  0  0  0  0  0  0
   -1.5890   13.3630   -3.0520 C   0  0  1  0  0  0  0  0  0  0  0  0
   -1.5860   12.7660   -4.4390 C   0  0  0  0  0  0  0  0  0  0  0  0
   -0.2690   13.0080   -2.5770 O   0  0  0  0  0  0  0  0  0  0  0  0
    0.1770   11.8220   -3.3410 N   0  0  0  0  0  0  0  0  0  0  0  0
   -1.0030   11.4150   -4.0910 C   0  0  2  0  0  0  0  0  0  0  0  0
   -0.7310   10.6230   -5.2410 O   0  0  0  0  0  0  0  0  0  0  0  0
   -0.1750   11.3350   -6.3390 C   0  0  0  0  0  0  0  0  0  0  0  0
  1  2  1  0
  2  3  1  0
  2  4  1  0
  5  2  1  1
  5  6  1  0
  5  7  1  0
  8  6  1  1
  7  9  1  0
  8  9  1  0
  8 10  1  0
  9 11  1  6
 10 12  1  0
 11 13  1  0
 12 13  1  0
 10 14  1  0
 10 15  1  6
 12 16  1  1
 13 17  1  1
 15 18  1  0
 14 19  1  0
 18 19  1  0
 20 17  1  6
 20 21  1  0
 20 22  1  0
 22 23  1  0
 21 24  1  0
 23 24  1  0
 24 25  1  6
 25 26  1  0
M  END
