ucsf378-ucsf173
     RDKit          3D

 17 18  0  0  0  0  0  0  0  0999 V2000
   -2.2740   14.3120   -3.4350 Cl  0  0  0  0  0  0  0  0  0  0  0  0
   -0.5550   14.8020   -3.2960 C   0  0  1  0  0  0  0  0  0  0  0  0
    0.4230   13.5890   -3.0530 C   0  0  1  0  0  0  0  0  0  0  0  0
   -0.2030   15.8630   -4.3960 C   0  0  0  0  0  0  0  0  0  0  0  0
    0.0020   12.1770   -3.5150 C   0  0  0  0  0  0  0  0  0  0  0  0
    1.8960   13.9580   -3.3930 C   0  0  1  0  0  0  0  0  0  0  0  0
    1.0160   15.4130   -5.1660 C   0  0  0  0  0  0  0  0  0  0  0  0
    0.0910   17.3540   -4.1270 C   0  0  0  0  0  0  0  0  0  0  0  0
   -1.3870   15.9380   -5.3170 C   0  0  0  0  0  0  0  0  0  0  0  0
    2.8960   12.7610   -4.2460 Cl  0  0  0  0  0  0  0  0  0  0  0  0
   -0.3790   11.2750   -2.3260 C   0  0  2  0  0  0  0  0  0  0  0  0
    2.0470   15.2460   -4.1220 C   0  0  0  0  0  0  0  0  0  0  0  0
   -2.4720   16.8730   -4.9410 C   0  0  0  0  0  0  0  0  0  0  0  0
   -0.4290   18.2010   -5.3070 C   0  0  0  0  0  0  0  0  0  0  0  0
    0.0080   11.9070   -1.2430 O   0  0  0  0  0  0  0  0  0  0  0  0
    0.3990   10.0940   -2.3840 O   0  0  0  0  0  0  0  0  0  0  0  0
   -1.9530   18.2040   -5.4300 C   0  0  0  0  0  0  0  0  0  0  0  0
  2  1  1  6
  2  3  1  0
  2  4  1  0
  3  5  1  6
  3  6  1  0
  4  7  1  0
  4  8  1  0
  4  9  1  0
  6 10  1  6
  5 11  1  0
  6 12  1  0
  7 12  1  0
  9 13  1  0
  8 14  1  0
 11 15  1  1
 11 16  1  0
 13 17  1  0
 14 17  1  0
M  CHG  1  15  -1
M  END
