ucsf260-ucsf385
     RDKit          3D

 25 27  0  0  0  0  0  0  0  0999 V2000
    0.9050   11.2040   -3.1360 O   0  0  0  0  0  0  0  0  0  0  0  0
    1.7270   12.2450   -3.1120 C   0  0  2  0  0  0  0  0  0  0  0  0
    1.2080   13.0890   -2.0800 O   0  0  0  0  0  0  0  0  0  0  0  0
    1.7300   12.9370   -4.5240 C   0  0  0  0  0  0  0  0  0  0  0  0
    0.3750   12.9620   -5.2570 C   0  0  0  0  0  0  0  0  0  0  0  0
    1.5230   14.4820   -2.2030 C   0  0  0  0  0  0  0  0  0  0  0  0
    0.3280   15.2410   -2.4380 O   0  0  0  0  0  0  0  0  0  0  0  0
   -0.2450   11.6310   -5.4360 N   0  0  0  0  0  0  0  0  0  0  0  0
   -0.8750   14.4510   -2.4530 C   0  0  2  0  0  0  0  0  0  0  0  0
   -1.5370   11.5540   -4.7610 C   0  0  0  0  0  0  0  0  0  0  0  0
   -0.5330   11.3120   -6.8240 C   0  0  2  0  0  0  0  0  0  0  0  0
   -1.8790   15.1680   -2.9510 O   0  0  0  0  0  0  0  0  0  0  0  0
   -2.4180   10.6550   -5.5440 N   0  0  0  0  0  0  0  0  0  0  0  0
   -1.6250   10.2490   -6.7180 C   0  0  2  0  0  0  0  0  0  0  0  0
    0.5680   11.0260   -7.8600 C   0  0  0  0  0  0  0  0  0  0  0  0
   -1.1950   14.0910   -0.9580 C   0  0  2  0  0  0  0  0  0  0  0  0
   -1.0590    8.8490   -6.6810 C   0  0  0  0  0  0  0  0  0  0  0  0
    0.7730    9.5500   -8.2710 C   0  0  0  0  0  0  0  0  0  0  0  0
   -2.6660   14.3410   -0.5080 C   0  0  2  0  0  0  0  0  0  0  0  0
   -0.1800   14.6760    0.0480 C   0  0  0  0  0  0  0  0  0  0  0  0
   -3.4890   15.1440   -1.4370 N   0  0  0  0  0  0  0  0  0  0  0  0
   -0.4030    8.6050   -8.0280 C   0  0  0  0  0  0  0  0  0  0  0  0
   -0.4550   14.1470    1.4390 C   0  0  0  0  0  0  0  0  0  0  0  0
   -2.7240   14.9200    0.9200 C   0  0  0  0  0  0  0  0  0  0  0  0
   -1.8360   14.2920    1.8890 N   0  0  0  0  0  0  0  0  0  0  0  0
  2  1  1  6
  2  3  1  0
  2  4  1  0
  4  5  1  0
  3  6  1  0
  6  7  1  0
  5  8  1  0
  7  9  1  0
  8 10  1  0
  8 11  1  0
  9 12  1  1
 10 13  1  0
 11 14  1  0
 13 14  1  0
 11 15  1  1
  9 16  1  0
 14 17  1  1
 15 18  1  0
 16 19  1  0
 16 20  1  1
 19 21  1  6
 17 22  1  0
 18 22  1  0
 20 23  1  0
 19 24  1  0
 23 25  1  0
 24 25  1  0
M  CHG  2   1  -1  12  -1
M  END
