ucsf345-ucsf303
     RDKit          3D

 23 26  0  0  0  0  0  0  0  0999 V2000
   -6.7050   14.6910    0.7340 N   0  0  0  0  0  0  0  0  0  0  0  0
   -7.5090   15.0200   -0.4370 C   0  0  2  0  0  0  0  0  0  0  0  0
   -8.1730   13.8220   -0.7660 O   0  0  0  0  0  0  0  0  0  0  0  0
   -6.8010   15.6620   -1.7380 C   0  0  2  0  0  0  0  0  0  0  0  0
   -6.9300   14.8250   -2.9400 N   0  0  0  0  0  0  0  0  0  0  0  0
   -5.3930   15.9280   -1.6250 N   0  0  0  0  0  0  0  0  0  0  0  0
   -5.5790   14.5780   -3.5020 C   0  0  0  0  0  0  0  0  0  0  0  0
   -4.5740   15.2830   -2.6450 C   0  0  2  0  0  0  0  0  0  0  0  0
   -4.9720   15.9970   -0.2730 C   0  0  0  0  0  0  0  0  0  0  0  0
   -3.4980   14.1590   -1.9670 S   0  0  2  0  0  0  0  0  0  0  0  0
   -3.5870   15.6030    0.1710 C   0  0  1  0  0  0  0  0  0  0  0  0
   -2.5040   13.8440   -3.2050 O   0  0  0  0  0  0  0  0  0  0  0  0
   -4.2470   12.7950   -1.4440 N   0  0  0  0  0  0  0  0  0  0  0  0
   -3.8580   14.5270    1.1540 C   0  0  0  0  0  0  0  0  0  0  0  0
   -2.5730   15.1160   -0.8580 C   0  0  1  0  0  0  0  0  0  0  0  0
   -4.6690   11.7780   -2.3490 C   0  0  2  0  0  0  0  0  0  0  0  0
   -1.4310   14.3500   -0.2060 C   0  0  0  0  0  0  0  0  0  0  0  0
   -2.6740   14.4000    1.9920 C   0  0  0  0  0  0  0  0  0  0  0  0
   -5.7080   10.9110   -1.7610 N   0  0  0  0  0  0  0  0  0  0  0  0
   -3.2190   10.7920   -2.7000 S   0  0  0  0  0  0  0  0  0  0  0  0
   -1.3600   14.6890    1.2730 C   0  0  0  0  0  0  0  0  0  0  0  0
   -3.9080    9.3640   -1.8630 C   0  0  0  0  0  0  0  0  0  0  0  0
   -5.0540    9.8010   -1.0700 N   0  0  0  0  0  0  0  0  0  0  0  0
  2  1  1  1
  2  3  1  0
  2  4  1  0
  4  5  1  6
  4  6  1  0
  5  7  1  0
  6  8  1  0
  8  7  1  6
  6  9  1  0
  8 10  1  0
 11  9  1  6
 10 12  1  6
 10 13  1  0
 11 14  1  0
 10 15  1  0
 11 15  1  0
 16 13  1  1
 15 17  1  1
 14 18  1  0
 16 19  1  0
 16 20  1  0
 17 21  1  0
 18 21  1  0
 20 22  1  0
 19 23  1  0
 22 23  1  0
M  END
