ucsf385-ucsf190
     RDKit          3D

 25 27  0  0  0  0  0  0  0  0999 V2000
   -4.0190   14.8150   -1.1050 N   0  0  0  0  0  0  0  0  0  0  0  0
   -2.8510   15.0890   -0.2420 C   0  0  1  0  0  0  0  0  0  0  0  0
   -3.0190   14.3700    1.0810 C   0  0  0  0  0  0  0  0  0  0  0  0
   -1.5620   14.6110   -0.9270 C   0  0  1  0  0  0  0  0  0  0  0  0
   -1.3420   15.4820   -2.1280 C   0  0  1  0  0  0  0  0  0  0  0  0
   -0.2950   14.6490   -0.0380 C   0  0  0  0  0  0  0  0  0  0  0  0
   -1.8580   14.6280    1.9040 N   0  0  0  0  0  0  0  0  0  0  0  0
   -0.1450   15.0090   -2.7050 O   0  0  0  0  0  0  0  0  0  0  0  0
   -2.4220   15.4460   -3.0740 O   0  0  0  0  0  0  0  0  0  0  0  0
   -0.5680   14.1930    1.3760 C   0  0  0  0  0  0  0  0  0  0  0  0
   -1.9770   15.8270   -4.3820 C   0  0  1  0  0  0  0  0  0  0  0  0
   -0.5250   15.4690   -4.1580 C   0  0  1  0  0  0  0  0  0  0  0  0
   -2.8150   15.0030   -5.3890 C   0  0  0  0  0  0  0  0  0  0  0  0
   -0.3160   13.9500   -4.2420 C   0  0  2  0  0  0  0  0  0  0  0  0
    0.6020   16.4450   -4.5650 C   0  0  2  0  0  0  0  0  0  0  0  0
   -2.3760   13.5480   -5.6010 C   0  0  0  0  0  0  0  0  0  0  0  0
    0.4940   17.0260   -5.8360 O   0  0  0  0  0  0  0  0  0  0  0  0
    1.1390   13.6680   -3.8730 C   0  0  1  0  0  0  0  0  0  0  0  0
    1.9280   15.8370   -4.4110 N   0  0  0  0  0  0  0  0  0  0  0  0
   -0.8680   13.3170   -5.5100 C   0  0  0  0  0  0  0  0  0  0  0  0
    1.3980   12.1700   -3.7090 C   0  0  0  0  0  0  0  0  0  0  0  0
    1.9530   14.4120   -4.8020 N   0  0  0  0  0  0  0  0  0  0  0  0
    0.4510   11.4850   -2.6710 C   0  0  1  0  0  0  0  0  0  0  0  0
    0.7060   10.2210   -2.3930 O   0  0  0  0  0  0  0  0  0  0  0  0
    0.6410   12.1420   -1.4380 O   0  0  0  0  0  0  0  0  0  0  0  0
  2  1  1  6
  2  3  1  0
  2  4  1  0
  4  5  1  0
  4  6  1  1
  3  7  1  0
  5  8  1  6
  5  9  1  0
  6 10  1  0
  7 10  1  0
 11  9  1  1
 12 11  1  6
 11 13  1  0
 12 14  1  0
 12 15  1  0
 13 16  1  0
 15 17  1  6
 14 18  1  0
 15 19  1  0
 14 20  1  6
 16 20  1  0
 18 21  1  6
 18 22  1  0
 19 22  1  0
 21 23  1  0
 23 24  1  1
 23 25  1  0
M  CHG  1  24  -1
M  END
