ucsf339-ucsf357
     RDKit          3D

 18 19  0  0  0  0  0  0  0  0999 V2000
    1.0730   14.8890   -2.9160 O   0  0  0  0  0  0  0  0  0  0  0  0
    0.5110   13.7070   -2.7710 C   0  0  1  0  0  0  0  0  0  0  0  0
    0.8070   13.3960   -1.4230 O   0  0  0  0  0  0  0  0  0  0  0  0
   -1.0490   13.7030   -3.0080 C   0  0  1  0  0  0  0  0  0  0  0  0
   -1.8220   13.7100   -1.6700 C   0  0  0  0  0  0  0  0  0  0  0  0
   -1.6450   14.7680   -3.9450 C   0  0  0  0  0  0  0  0  0  0  0  0
   -2.9390   14.7700   -1.5240 C   0  0  1  0  0  0  0  0  0  0  0  0
   -3.1170   14.6070   -4.0360 N   0  0  0  0  0  0  0  0  0  0  0  0
   -3.7820   15.0370   -2.7740 C   0  0  1  0  0  0  0  0  0  0  0  0
   -3.9330   14.6530   -0.3670 C   0  0  0  0  0  0  0  0  0  0  0  0
   -5.2970   14.5660   -2.5480 C   0  0  2  0  0  0  0  0  0  0  0  0
   -3.5930   15.5150    0.8330 C   0  0  0  0  0  0  0  0  0  0  0  0
   -4.5140   13.2740   -0.0190 C   0  0  0  0  0  0  0  0  0  0  0  0
   -6.1210   15.0740   -3.4040 O   0  0  0  0  0  0  0  0  0  0  0  0
   -5.8860   15.0010   -1.3190 O   0  0  0  0  0  0  0  0  0  0  0  0
   -4.4320   15.1180    1.9890 C   0  0  0  0  0  0  0  0  0  0  0  0
   -5.7350   13.3100    0.8910 C   0  0  0  0  0  0  0  0  0  0  0  0
   -5.8140   14.6510    1.5610 C   0  0  0  0  0  0  0  0  0  0  0  0
  2  1  1  1
  2  3  1  0
  2  4  1  0
  4  5  1  1
  4  6  1  0
  5  7  1  0
  6  8  1  0
  7  9  1  0
  9  8  1  6
  7 10  1  1
  9 11  1  0
 10 12  1  0
 10 13  1  0
 11 14  1  6
 11 15  1  0
 12 16  1  0
 13 17  1  0
 16 18  1  0
 17 18  1  0
M  CHG  2   1  -1  14  -1
M  END
