ucsf170-ucsf411
     RDKit          3D

 25 28  0  0  0  0  0  0  0  0999 V2000
   -5.1910   14.8300    1.5610 C   0  0  0  0  0  0  0  0  0  0  0  0
   -3.4110   15.1970    1.3660 S   0  0  0  0  0  0  0  0  0  0  0  0
   -3.1750   14.4710   -0.2940 C   0  0  2  0  0  0  0  0  0  0  0  0
   -1.6720   14.4220   -0.5780 C   0  0  0  0  0  0  0  0  0  0  0  0
   -3.9870   15.2900   -1.2870 C   0  0  0  0  0  0  0  0  0  0  0  0
   -1.2160   14.6180   -2.0400 C   0  0  1  0  0  0  0  0  0  0  0  0
   -3.7840   14.7510   -2.6720 C   0  0  0  0  0  0  0  0  0  0  0  0
   -0.3380   13.4870   -2.5530 C   0  0  2  0  0  0  0  0  0  0  0  0
   -2.3310   14.8890   -3.0770 C   0  0  2  0  0  0  0  0  0  0  0  0
   -2.1060   14.0840   -4.2110 O   0  0  0  0  0  0  0  0  0  0  0  0
    0.4970   12.9220   -1.5610 O   0  0  0  0  0  0  0  0  0  0  0  0
    0.5600   13.8690   -3.6270 N   0  0  0  0  0  0  0  0  0  0  0  0
    1.2070   11.9770   -2.3720 C   0  0  2  0  0  0  0  0  0  0  0  0
    1.1830   12.5460   -3.8200 C   0  0  0  0  0  0  0  0  0  0  0  0
   -0.0220   14.4670   -4.8470 C   0  0  2  0  0  0  0  0  0  0  0  0
    0.5690   10.7960   -2.2820 O   0  0  0  0  0  0  0  0  0  0  0  0
   -0.2480   15.9930   -4.5870 C   0  0  2  0  0  0  0  0  0  0  0  0
   -1.1670   13.6620   -5.5360 C   0  0  0  0  0  0  0  0  0  0  0  0
   -1.4030   16.6190   -5.3450 C   0  0  1  0  0  0  0  0  0  0  0  0
   -2.5560   14.3090   -5.7450 C   0  0  0  0  0  0  0  0  0  0  0  0
    1.0430   16.7530   -4.9210 C   0  0  0  0  0  0  0  0  0  0  0  0
   -2.7110   15.8210   -5.4540 C   0  0  0  0  0  0  0  0  0  0  0  0
   -1.5550   18.1090   -5.1830 C   0  0  0  0  0  0  0  0  0  0  0  0
    0.8990   18.2630   -5.0550 C   0  0  0  0  0  0  0  0  0  0  0  0
   -0.3320   18.6710   -5.8570 C   0  0  0  0  0  0  0  0  0  0  0  0
  1  2  1  0
  3  2  1  1
  3  4  1  0
  3  5  1  0
  6  4  1  1
  5  7  1  0
  6  8  1  0
  6  9  1  0
  7  9  1  0
  9 10  1  6
  8 11  1  1
  8 12  1  0
 11 13  1  0
 12 14  1  0
 13 14  1  0
 15 12  1  1
 13 16  1  6
 15 17  1  0
 15 18  1  0
 17 19  1  0
 18 20  1  0
 17 21  1  6
 19 22  1  1
 20 22  1  0
 19 23  1  0
 21 24  1  0
 23 25  1  0
 24 25  1  0
M  CHG  1  16  -1
M  END
