ucsf012-ucsf013
     RDKit          3D

 28 32  0  0  0  0  0  0  0  0999 V2000
   -2.6440   15.5520   -4.5250 C   0  0  0  0  0  0  0  0  0  0  0  0
   -2.1290   15.5370   -3.0860 C   0  0  1  0  0  0  0  0  0  0  0  0
   -3.1010   14.7970   -2.1580 C   0  0  2  0  0  0  0  0  0  0  0  0
   -0.8650   14.8800   -2.7860 N   0  0  0  0  0  0  0  0  0  0  0  0
   -4.3250   15.5900   -1.8270 C   0  0  0  0  0  0  0  0  0  0  0  0
   -0.3960   13.8400   -3.6740 C   0  0  0  0  0  0  0  0  0  0  0  0
   -2.3010   14.3380   -0.9350 C   0  0  1  0  0  0  0  0  0  0  0  0
   -0.8520   14.6050   -1.3640 C   0  0  2  0  0  0  0  0  0  0  0  0
   -2.5870   15.1210    0.3660 C   0  0  1  0  0  0  0  0  0  0  0  0
   -0.3160   15.7700   -0.7460 N   0  0  0  0  0  0  0  0  0  0  0  0
   -1.2020   12.5320   -3.5080 C   0  0  2  0  0  0  0  0  0  0  0  0
   -3.6590   14.5470    1.1950 N   0  0  0  0  0  0  0  0  0  0  0  0
   -1.4210   15.0590    1.2280 N   0  0  0  0  0  0  0  0  0  0  0  0
   -0.2350   15.6830    0.6750 C   0  0  0  0  0  0  0  0  0  0  0  0
   -0.7900   11.7080   -2.2940 C   0  0  0  0  0  0  0  0  0  0  0  0
   -1.0680   11.6670   -4.6520 O   0  0  0  0  0  0  0  0  0  0  0  0
   -0.5610   10.4270   -4.1600 C   0  0  0  0  0  0  0  0  0  0  0  0
    0.2070   10.7940   -2.9170 C   0  0  0  0  0  0  0  0  0  0  0  0
   -5.0400   14.6090    0.6800 C   0  0  1  0  0  0  0  0  0  0  0  0
   -5.5850   13.4790   -0.2240 C   0  0  1  0  0  0  0  0  0  0  0  0
   -5.9440   14.8320    1.7900 N   0  0  0  0  0  0  0  0  0  0  0  0
   -6.8990   13.9680   -0.8620 C   0  0  1  0  0  0  0  0  0  0  0  0
   -7.3130   14.4470    1.5050 C   0  0  0  0  0  0  0  0  0  0  0  0
   -4.5590   12.9690   -1.2470 C   0  0  0  0  0  0  0  0  0  0  0  0
   -7.6950   14.7000    0.1230 N   0  0  0  0  0  0  0  0  0  0  0  0
   -6.6960   14.8160   -2.1410 C   0  0  0  0  0  0  0  0  0  0  0  0
   -5.1420   12.8690   -2.6610 C   0  0  0  0  0  0  0  0  0  0  0  0
   -5.7620   14.1710   -3.1690 C   0  0  0  0  0  0  0  0  0  0  0  0
  2  1  1  6
  2  3  1  0
  2  4  1  0
  3  5  1  1
  4  6  1  0
  3  7  1  0
  4  8  1  0
  7  8  1  0
  7  9  1  1
  8 10  1  1
 11  6  1  6
  9 12  1  1
  9 13  1  0
 10 14  1  0
 13 14  1  0
 11 15  1  0
 11 16  1  0
 16 17  1  0
 15 18  1  0
 17 18  1  0
 19 12  1  1
 19 20  1  0
 19 21  1  0
 20 22  1  0
 21 23  1  0
 20 24  1  6
 22 25  1  0
 23 25  1  0
 22 26  1  6
 24 27  1  0
 26 28  1  0
 27 28  1  0
M  END
