ucsf412-ucsf364
     RDKit          3D

 23 25  0  0  0  0  0  0  0  0999 V2000
   -7.9520   15.2700   -0.5160 O   0  0  0  0  0  0  0  0  0  0  0  0
   -7.0350   14.4500    0.1640 C   0  0  2  0  0  0  0  0  0  0  0  0
   -7.1620   14.8210    1.5560 N   0  0  0  0  0  0  0  0  0  0  0  0
   -5.6380   14.5410   -0.4680 C   0  0  2  0  0  0  0  0  0  0  0  0
   -4.5590   15.2550    0.3590 C   0  0  1  0  0  0  0  0  0  0  0  0
   -5.9970   14.5710    2.3970 C   0  0  0  0  0  0  0  0  0  0  0  0
   -5.6250   15.1760   -1.8620 C   0  0  0  0  0  0  0  0  0  0  0  0
   -4.6570   15.0830    1.8660 C   0  0  0  0  0  0  0  0  0  0  0  0
   -3.2020   14.7400   -0.1370 C   0  0  0  0  0  0  0  0  0  0  0  0
   -4.2050   15.2310   -2.4400 C   0  0  0  0  0  0  0  0  0  0  0  0
   -3.2150   14.3880   -1.6440 C   0  0  1  0  0  0  0  0  0  0  0  0
   -1.8140   14.4050   -2.2510 C   0  0  0  0  0  0  0  0  0  0  0  0
   -1.0900   13.3570   -1.6340 O   0  0  0  0  0  0  0  0  0  0  0  0
    0.1790   13.0790   -2.2230 C   0  0  1  0  0  0  0  0  0  0  0  0
    0.6660   12.0010   -1.6180 O   0  0  0  0  0  0  0  0  0  0  0  0
   -0.1110   12.8220   -3.7550 C   0  0  1  0  0  0  0  0  0  0  0  0
    1.1530   12.4270   -4.5600 C   0  0  2  0  0  0  0  0  0  0  0  0
   -1.2900   11.8400   -4.0050 C   0  0  0  0  0  0  0  0  0  0  0  0
    2.1350   13.5830   -4.7030 C   0  0  0  0  0  0  0  0  0  0  0  0
   -1.6830   11.7520   -5.4850 C   0  0  0  0  0  0  0  0  0  0  0  0
    0.7570   11.7670   -5.8910 C   0  0  2  0  0  0  0  0  0  0  0  0
    1.7960   11.8430   -6.8740 O   0  0  0  0  0  0  0  0  0  0  0  0
   -0.5680   12.2420   -6.4080 C   0  0  0  0  0  0  0  0  0  0  0  0
  2  1  1  6
  2  3  1  0
  2  4  1  0
  4  5  1  0
  3  6  1  0
  4  7  1  6
  5  8  1  1
  6  8  1  0
  5  9  1  0
  7 10  1  0
  9 11  1  0
 10 11  1  0
 11 12  1  6
 12 13  1  0
 13 14  1  0
 14 15  1  1
 14 16  1  0
 16 17  1  0
 16 18  1  1
 17 19  1  6
 18 20  1  0
 17 21  1  0
 21 22  1  6
 20 23  1  0
 21 23  1  0
M  CHG  1  15  -1
M  END
