ucsf274-ucsf303
     RDKit          3D

 32 35  0  0  0  0  0  0  0  0999 V2000
    0.4500   10.8760   -2.3860 O   0  0  0  0  0  0  0  0  0  0  0  0
    0.9910   12.0960   -2.3900 C   0  0  2  0  0  0  0  0  0  0  0  0
    0.5950   12.5650   -1.1260 O   0  0  0  0  0  0  0  0  0  0  0  0
    0.4010   13.0780   -3.4480 C   0  0  0  0  0  0  0  0  0  0  0  0
    0.5870   12.7620   -4.9500 C   0  0  0  0  0  0  0  0  0  0  0  0
   -0.1890   11.5170   -5.3980 C   0  0  1  0  0  0  0  0  0  0  0  0
   -1.7300   11.7790   -5.5270 C   0  0  2  0  0  0  0  0  0  0  0  0
    0.3260   10.9360   -6.6530 N   0  0  0  0  0  0  0  0  0  0  0  0
   -2.2870   12.2580   -4.3270 O   0  0  0  0  0  0  0  0  0  0  0  0
   -2.4840   10.5800   -5.9170 N   0  0  0  0  0  0  0  0  0  0  0  0
   -0.3230    9.6390   -6.8690 C   0  0  1  0  0  0  0  0  0  0  0  0
   -2.8760   13.5320   -4.5300 C   0  0  0  0  0  0  0  0  0  0  0  0
   -1.5880    9.4120   -5.9900 C   0  0  2  0  0  0  0  0  0  0  0  0
   -0.5300    9.3820   -8.3640 C   0  0  0  0  0  0  0  0  0  0  0  0
   -2.7950   14.2950   -3.3570 O   0  0  0  0  0  0  0  0  0  0  0  0
   -1.0980    7.9940   -8.6080 C   0  0  0  0  0  0  0  0  0  0  0  0
   -2.3870    8.1600   -6.4020 C   0  0  0  0  0  0  0  0  0  0  0  0
   -4.0600   14.4600   -2.3980 S   0  0  1  0  0  0  0  0  0  0  0  0
   -2.4260    7.8210   -7.9000 C   0  0  0  0  0  0  0  0  0  0  0  0
   -4.8800   15.7170   -2.8690 O   0  0  0  0  0  0  0  0  0  0  0  0
   -5.1010   13.1810   -2.3290 N   0  0  0  0  0  0  0  0  0  0  0  0
   -3.4160   15.0830   -0.8970 C   0  0  0  0  0  0  0  0  0  0  0  0
   -4.7430   12.0240   -1.5610 C   0  0  1  0  0  0  0  0  0  0  0  0
   -2.0930   14.4020   -0.4630 C   0  0  0  0  0  0  0  0  0  0  0  0
   -4.5540   15.1740    0.1150 C   0  0  0  0  0  0  0  0  0  0  0  0
   -5.8760   11.1160   -1.7230 N   0  0  0  0  0  0  0  0  0  0  0  0
   -3.2720   11.2770   -2.2500 S   0  0  0  0  0  0  0  0  0  0  0  0
   -1.7110   14.7000    0.9830 C   0  0  0  0  0  0  0  0  0  0  0  0
   -4.0260   15.6080    1.4410 C   0  0  0  0  0  0  0  0  0  0  0  0
   -4.0790    9.6940   -2.4700 C   0  0  0  0  0  0  0  0  0  0  0  0
   -5.4080    9.7220   -1.8460 N   0  0  0  0  0  0  0  0  0  0  0  0
   -2.9600   14.6250    1.8250 C   0  0  0  0  0  0  0  0  0  0  0  0
  2  1  1  6
  2  3  1  0
  2  4  1  0
  4  5  1  0
  6  5  1  6
  6  7  1  0
  6  8  1  0
  7  9  1  1
  7 10  1  0
  8 11  1  0
  9 12  1  0
 10 13  1  0
 11 13  1  0
 11 14  1  6
 12 15  1  0
 14 16  1  0
 13 17  1  6
 18 15  1  0
 16 19  1  0
 17 19  1  0
 18 20  1  6
 18 21  1  0
 18 22  1  0
 23 21  1  6
 22 24  1  0
 22 25  1  0
 23 26  1  0
 23 27  1  0
 24 28  1  0
 25 29  1  0
 27 30  1  0
 26 31  1  0
 30 31  1  0
 28 32  1  0
 29 32  1  0
M  CHG  1   1  -1
M  END
