ucsf493-ucsf114
     RDKit          3D

 32 36  0  0  0  0  0  0  0  0999 V2000
   -5.1790   14.7390   -5.5900 C   0  0  0  0  0  0  0  0  0  0  0  0
   -4.1290   15.4850   -6.1750 O   0  0  0  0  0  0  0  0  0  0  0  0
   -2.9850   15.5770   -5.3420 C   0  0  1  0  0  0  0  0  0  0  0  0
   -2.1460   14.2770   -5.1930 C   0  0  0  0  0  0  0  0  0  0  0  0
   -2.2170   16.7900   -5.8460 C   0  0  0  0  0  0  0  0  0  0  0  0
   -0.7710   14.5200   -4.5750 C   0  0  2  0  0  0  0  0  0  0  0  0
   -0.7020   16.7090   -5.7140 C   0  0  1  0  0  0  0  0  0  0  0  0
   -0.6220   17.1700   -4.3740 N   0  0  0  0  0  0  0  0  0  0  0  0
   -0.0400   15.3630   -5.5050 C   0  0  1  0  0  0  0  0  0  0  0  0
    0.4110   13.6130   -4.0830 C   0  0  1  0  0  0  0  0  0  0  0  0
    0.3690   12.0940   -4.1700 C   0  0  0  0  0  0  0  0  0  0  0  0
   -0.1440   18.4450   -4.6140 C   0  0  0  0  0  0  0  0  0  0  0  0
    0.1110   16.0310   -3.8340 C   0  0  1  0  0  0  0  0  0  0  0  0
    1.0910   15.6650   -4.7470 N   0  0  0  0  0  0  0  0  0  0  0  0
    1.6560   14.3350   -4.6730 C   0  0  0  0  0  0  0  0  0  0  0  0
   -0.0360   11.4260   -2.8050 C   0  0  1  0  0  0  0  0  0  0  0  0
   -1.1570   19.2000   -5.4790 C   0  0  0  0  0  0  0  0  0  0  0  0
    1.0950   18.4000   -5.4600 C   0  0  0  0  0  0  0  0  0  0  0  0
    0.2460   15.6320   -2.3930 C   0  0  0  0  0  0  0  0  0  0  0  0
    0.4460   10.1170   -2.6820 O   0  0  0  0  0  0  0  0  0  0  0  0
    0.5840   11.9580   -1.7760 O   0  0  0  0  0  0  0  0  0  0  0  0
   -0.1780   14.3400   -1.9310 N   0  0  0  0  0  0  0  0  0  0  0  0
   -1.5900   14.2600   -1.5560 C   0  0  1  0  0  0  0  0  0  0  0  0
    0.7260   13.9350   -0.9230 C   0  0  1  0  0  0  0  0  0  0  0  0
    2.4700   14.0740   -1.5050 S   0  0  0  0  0  0  0  0  0  0  0  0
   -1.9110   14.5290   -0.0860 C   0  0  1  0  0  0  0  0  0  0  0  0
    0.6090   14.9140    0.1240 N   0  0  0  0  0  0  0  0  0  0  0  0
   -2.4890   15.2290   -2.3140 C   0  0  0  0  0  0  0  0  0  0  0  0
   -0.7110   15.0850    0.7010 C   0  0  2  0  0  0  0  0  0  0  0  0
   -3.0840   15.4400   -0.0360 N   0  0  0  0  0  0  0  0  0  0  0  0
   -3.6700   15.3490   -1.3810 C   0  0  0  0  0  0  0  0  0  0  0  0
   -0.7380   14.4300    1.9630 O   0  0  0  0  0  0  0  0  0  0  0  0
  1  2  1  0
  3  2  1  6
  3  4  1  0
  3  5  1  0
  6  4  1  6
  7  5  1  1
  7  8  1  0
  6  9  1  0
  7  9  1  0
  6 10  1  0
 10 11  1  6
  8 12  1  0
  8 13  1  0
  9 14  1  1
 13 14  1  0
 10 15  1  0
 14 15  1  0
 11 16  1  0
 12 17  1  0
 12 18  1  0
 13 19  1  1
 16 20  1  6
 16 21  1  0
 19 22  1  0
 22 23  1  0
 22 24  1  0
 24 25  1  6
 23 26  1  0
 24 27  1  0
 23 28  1  6
 26 29  1  0
 27 29  1  0
 26 30  1  6
 28 31  1  0
 30 31  1  0
 29 32  1  1
M  CHG  1  21  -1
M  END
