ucsf017-ucsf012
     RDKit          3D

 22 26  0  0  0  0  0  0  0  0999 V2000
   -3.4550   14.7480   -3.1590 C   0  0  0  0  0  0  0  0  0  0  0  0
   -2.6050   14.9270   -1.8520 C   0  0  1  0  0  0  0  0  0  0  0  0
   -2.2820   13.7110   -0.9630 C   0  0  2  0  0  0  0  0  0  0  0  0
   -1.1840   15.5500   -2.3180 C   0  0  0  0  0  0  0  0  0  0  0  0
   -3.6930   15.5960   -0.9140 C   0  0  1  0  0  0  0  0  0  0  0  0
   -5.0770   15.8020   -1.5010 C   0  0  0  0  0  0  0  0  0  0  0  0
    0.0530   14.5230   -2.5080 C   0  0  2  0  0  0  0  0  0  0  0  0
   -2.7880   13.9830    0.3980 C   0  0  2  0  0  0  0  0  0  0  0  0
   -0.8780   13.2310   -0.9080 C   0  0  1  0  0  0  0  0  0  0  0  0
   -3.9930   14.7090    0.2090 N   0  0  0  0  0  0  0  0  0  0  0  0
    0.7620   14.4800   -3.8820 C   0  0  0  0  0  0  0  0  0  0  0  0
   -0.3340   13.2160   -2.2110 N   0  0  0  0  0  0  0  0  0  0  0  0
   -0.0390   14.0580   -0.0290 N   0  0  0  0  0  0  0  0  0  0  0  0
   -1.9680   14.8560    1.1430 N   0  0  0  0  0  0  0  0  0  0  0  0
   -2.8300   14.9460    2.3000 N   0  0  0  0  0  0  0  0  0  0  0  0
   -1.1990   12.7630   -3.3130 C   0  0  1  0  0  0  0  0  0  0  0  0
    0.9840   13.0440   -4.3670 C   0  0  0  0  0  0  0  0  0  0  0  0
   -0.6250   14.2700    1.2950 C   0  0  0  0  0  0  0  0  0  0  0  0
   -2.1630   13.7940   -3.9100 C   0  0  0  0  0  0  0  0  0  0  0  0
   -0.3540   12.3700   -4.5080 C   0  0  2  0  0  0  0  0  0  0  0  0
   -1.0980   12.8800   -5.7370 C   0  0  0  0  0  0  0  0  0  0  0  0
   -2.2740   13.5660   -5.3170 O   0  0  0  0  0  0  0  0  0  0  0  0
  2  1  1  6
  2  3  1  0
  2  4  1  0
  2  5  1  0
  5  6  1  6
  7  4  1  6
  3  8  1  1
  3  9  1  0
  5 10  1  0
  8 10  1  6
  7 11  1  0
  7 12  1  0
  9 12  1  0
  9 13  1  1
  8 14  1  0
 14 15  1  0
 12 16  1  0
 11 17  1  0
 13 18  1  0
 14 18  1  0
 16 19  1  6
 16 20  1  0
 20 17  1  1
 20 21  1  0
 19 22  1  0
 21 22  1  0
M  END
