ucsf005-ucsf260
     RDKit          3D

 29 32  0  0  0  0  0  0  0  0999 V2000
   -1.8270   14.7190   -3.4770 C   0  0  0  0  0  0  0  0  0  0  0  0
   -2.7820   15.2000   -2.4930 N   0  0  0  0  0  0  0  0  0  0  0  0
   -4.1680   14.8490   -2.7540 C   0  0  0  0  0  0  0  0  0  0  0  0
   -2.6250   14.6180   -1.2030 C   0  0  2  0  0  0  0  0  0  0  0  0
   -4.8830   14.8380   -1.4510 N   0  0  0  0  0  0  0  0  0  0  0  0
   -3.8100   15.2240   -0.5210 C   0  0  1  0  0  0  0  0  0  0  0  0
   -1.4470   14.9270   -0.5170 N   0  0  0  0  0  0  0  0  0  0  0  0
   -3.7950   14.8070    0.9710 C   0  0  2  0  0  0  0  0  0  0  0  0
   -1.5580   14.2710    0.7240 C   0  0  1  0  0  0  0  0  0  0  0  0
   -4.7090   15.5060    1.8340 N   0  0  0  0  0  0  0  0  0  0  0  0
   -0.2620   14.3800    1.1750 N   0  0  0  0  0  0  0  0  0  0  0  0
   -2.4880   14.9300    1.5570 N   0  0  0  0  0  0  0  0  0  0  0  0
    0.3050   13.8680   -0.0620 C   0  0  0  0  0  0  0  0  0  0  0  0
    1.1480   14.8490   -0.8540 C   0  0  0  0  0  0  0  0  0  0  0  0
    1.9270   14.1210   -1.9450 C   0  0  0  0  0  0  0  0  0  0  0  0
    0.9960   13.2020   -2.4870 O   0  0  0  0  0  0  0  0  0  0  0  0
    1.5490   12.1700   -3.2790 C   0  0  1  0  0  0  0  0  0  0  0  0
    0.8210   11.0810   -3.0900 O   0  0  0  0  0  0  0  0  0  0  0  0
    1.5020   12.6590   -4.7740 C   0  0  0  0  0  0  0  0  0  0  0  0
    0.1910   13.2980   -5.2740 C   0  0  0  0  0  0  0  0  0  0  0  0
   -0.8110   12.3390   -5.8350 N   0  0  0  0  0  0  0  0  0  0  0  0
   -1.7320   11.8350   -4.8160 C   0  0  0  0  0  0  0  0  0  0  0  0
   -0.2400   11.0960   -6.3420 C   0  0  1  0  0  0  0  0  0  0  0  0
   -2.2320   10.5270   -5.3020 N   0  0  0  0  0  0  0  0  0  0  0  0
   -1.5320   10.3570   -6.5820 C   0  0  2  0  0  0  0  0  0  0  0  0
    0.6120   11.0840   -7.6050 C   0  0  0  0  0  0  0  0  0  0  0  0
   -1.2630    8.8970   -6.9490 C   0  0  0  0  0  0  0  0  0  0  0  0
    0.8010    9.7040   -8.2440 C   0  0  0  0  0  0  0  0  0  0  0  0
   -0.4540    8.8160   -8.2420 C   0  0  0  0  0  0  0  0  0  0  0  0
  1  2  1  0
  2  3  1  0
  2  4  1  0
  3  5  1  0
  4  6  1  0
  6  5  1  6
  4  7  1  1
  6  8  1  0
  7  9  1  0
  8 10  1  1
  9 11  1  1
  8 12  1  0
  9 12  1  0
 11 13  1  0
 13 14  1  0
 14 15  1  0
 15 16  1  0
 16 17  1  0
 17 18  1  6
 17 19  1  0
 19 20  1  0
 20 21  1  0
 21 22  1  0
 21 23  1  0
 22 24  1  0
 23 25  1  0
 24 25  1  0
 23 26  1  6
 25 27  1  1
 26 28  1  0
 27 29  1  0
 28 29  1  0
M  CHG  1  18  -1
M  END
