ucsf028-ucsf172
     RDKit          3D

 24 26  0  0  0  0  0  0  0  0999 V2000
   -4.8810   15.0340    1.1990 N   0  0  0  0  0  0  0  0  0  0  0  0
   -6.4570   14.4570    1.1270 S   0  0  0  0  0  0  0  0  0  0  0  0
   -7.5900   14.8500    2.4270 C   0  0  0  0  0  0  0  0  0  0  0  0
   -3.8620   14.7200    0.1730 C   0  0  1  0  0  0  0  0  0  0  0  0
   -6.4550   12.8600    1.1930 O   0  0  0  0  0  0  0  0  0  0  0  0
   -7.2180   14.8510   -0.2350 O   0  0  0  0  0  0  0  0  0  0  0  0
   -4.3040   15.3220   -1.0870 N   0  0  0  0  0  0  0  0  0  0  0  0
   -2.3870   15.1610    0.3640 C   0  0  2  0  0  0  0  0  0  0  0  0
   -3.1700   15.5700   -2.0040 C   0  0  0  0  0  0  0  0  0  0  0  0
   -1.6230   14.3680   -0.6920 C   0  0  1  0  0  0  0  0  0  0  0  0
   -1.5630   14.8420    1.5670 N   0  0  0  0  0  0  0  0  0  0  0  0
   -2.1770   14.5060   -2.0170 N   0  0  0  0  0  0  0  0  0  0  0  0
   -0.3340   14.9620   -0.4130 N   0  0  0  0  0  0  0  0  0  0  0  0
   -0.2110   14.6490    0.9830 C   0  0  0  0  0  0  0  0  0  0  0  0
   -1.1850   14.6500   -3.0900 C   0  0  2  0  0  0  0  0  0  0  0  0
   -0.1750   15.5140   -2.6560 O   0  0  0  0  0  0  0  0  0  0  0  0
   -1.7220   15.3370   -4.0850 O   0  0  0  0  0  0  0  0  0  0  0  0
   -0.3900   13.4310   -3.6560 C   0  0  2  0  0  0  0  0  0  0  0  0
   -1.0260   12.5730   -4.7190 C   0  0  0  0  0  0  0  0  0  0  0  0
    0.0180   12.4950   -2.6200 O   0  0  0  0  0  0  0  0  0  0  0  0
   -0.1040   11.1310   -3.1600 N   0  0  0  0  0  0  0  0  0  0  0  0
   -0.1490   11.3680   -4.5930 C   0  0  1  0  0  0  0  0  0  0  0  0
   -0.6970   10.2820   -5.3150 O   0  0  0  0  0  0  0  0  0  0  0  0
   -0.4860   10.4870   -6.7040 C   0  0  0  0  0  0  0  0  0  0  0  0
  1  2  1  0
  2  3  1  0
  4  1  1  1
  2  5  1  0
  2  6  1  0
  4  7  1  0
  4  8  1  0
  7  9  1  0
  8 10  1  0
  8 11  1  1
  9 12  1  0
 10 12  1  0
 10 13  1  6
 11 14  1  0
 13 14  1  0
 12 15  1  0
 15 16  1  1
 15 17  1  0
 15 18  1  0
 18 19  1  6
 18 20  1  0
 20 21  1  0
 19 22  1  0
 21 22  1  0
 22 23  1  6
 23 24  1  0
M  CHG  1  17  -1
M  END
