ucsf147-ucsf396
     RDKit          3D

 23 25  0  0  0  0  0  0  0  0999 V2000
    1.4550   13.1310   -5.4640 C   0  0  0  0  0  0  0  0  0  0  0  0
    0.1700   12.8940   -4.6820 C   0  0  2  0  0  0  0  0  0  0  0  0
   -0.9260   12.9700   -5.6070 O   0  0  0  0  0  0  0  0  0  0  0  0
   -0.1020   13.9810   -3.6310 C   0  0  2  0  0  0  0  0  0  0  0  0
    0.6190   13.6510   -2.2770 C   0  0  2  0  0  0  0  0  0  0  0  0
   -2.0970   13.1830   -4.7590 N   0  0  0  0  0  0  0  0  0  0  0  0
   -1.6230   14.2420   -3.8540 C   0  0  1  0  0  0  0  0  0  0  0  0
   -0.1170   12.7530   -1.4540 O   0  0  0  0  0  0  0  0  0  0  0  0
    0.7660   14.7270   -1.5360 O   0  0  0  0  0  0  0  0  0  0  0  0
   -2.6570   14.6410   -2.7630 C   0  0  2  0  0  0  0  0  0  0  0  0
   -2.6170   13.9680   -1.3490 C   0  0  0  0  0  0  0  0  0  0  0  0
   -4.0800   14.6360   -3.3340 C   0  0  0  0  0  0  0  0  0  0  0  0
   -3.2690   14.9670   -0.3770 C   0  0  1  0  0  0  0  0  0  0  0  0
   -5.0360   15.0660   -2.2510 C   0  0  0  0  0  0  0  0  0  0  0  0
   -4.2610   15.8010   -1.1720 C   0  0  0  0  0  0  0  0  0  0  0  0
   -3.8810   14.6450    0.9790 C   0  0  2  0  0  0  0  0  0  0  0  0
   -2.8670   14.1090    1.8580 O   0  0  0  0  0  0  0  0  0  0  0  0
   -5.2230   13.8870    1.0410 C   0  0  2  0  0  0  0  0  0  0  0  0
   -5.9120   13.6870   -0.3220 C   0  0  0  0  0  0  0  0  0  0  0  0
   -6.1850   14.3850    2.1150 C   0  0  0  0  0  0  0  0  0  0  0  0
   -6.8400   14.7870   -0.6060 N   0  0  0  0  0  0  0  0  0  0  0  0
   -7.6670   14.3590    1.7410 C   0  0  0  0  0  0  0  0  0  0  0  0
   -7.9850   14.7300    0.2860 C   0  0  0  0  0  0  0  0  0  0  0  0
  2  1  1  6
  2  3  1  0
  2  4  1  0
  4  5  1  1
  3  6  1  0
  4  7  1  0
  7  6  1  1
  5  8  1  1
  5  9  1  0
  7 10  1  0
 10 11  1  1
 10 12  1  0
 13 11  1  6
 12 14  1  0
 13 15  1  0
 14 15  1  0
 13 16  1  0
 16 17  1  1
 16 18  1  0
 18 19  1  6
 18 20  1  0
 19 21  1  0
 20 22  1  0
 21 23  1  0
 22 23  1  0
M  CHG  1   9  -1
M  END
