ucsf264-ucsf224
     RDKit          3D

 25 27  0  0  0  0  0  0  0  0999 V2000
    1.7160   12.4280   -2.4940 O   0  0  0  0  0  0  0  0  0  0  0  0
    0.6810   12.1340   -3.2520 C   0  0  2  0  0  0  0  0  0  0  0  0
    0.5560   10.7380   -3.0920 O   0  0  0  0  0  0  0  0  0  0  0  0
    0.8910   12.6030   -4.7730 C   0  0  1  0  0  0  0  0  0  0  0  0
    0.0740   11.9720   -5.8970 N   0  0  0  0  0  0  0  0  0  0  0  0
    0.5050   14.1240   -4.8820 C   0  0  1  0  0  0  0  0  0  0  0  0
    0.6260   12.0420   -7.2670 N   0  0  0  0  0  0  0  0  0  0  0  0
   -0.5580   10.6590   -5.7250 C   0  0  2  0  0  0  0  0  0  0  0  0
   -0.9460   14.3000   -4.4370 C   0  0  0  0  0  0  0  0  0  0  0  0
    1.3600   15.1930   -4.1810 C   0  0  0  0  0  0  0  0  0  0  0  0
    0.8310   10.6560   -7.7310 C   0  0  1  0  0  0  0  0  0  0  0  0
   -0.2630    9.8540   -7.0090 C   0  0  2  0  0  0  0  0  0  0  0  0
   -2.0650   10.8080   -5.4550 C   0  0  0  0  0  0  0  0  0  0  0  0
   -1.5690   15.5420   -5.0280 C   0  0  1  0  0  0  0  0  0  0  0  0
    0.6500   16.5750   -4.1720 C   0  0  0  0  0  0  0  0  0  0  0  0
    0.9610   10.3520   -9.2320 C   0  0  0  0  0  0  0  0  0  0  0  0
   -3.0690   15.9110   -4.1430 Cl  0  0  0  0  0  0  0  0  0  0  0  0
   -1.5280    9.4790   -7.7860 C   0  0  0  0  0  0  0  0  0  0  0  0
   -2.8490    9.5050   -5.6130 C   0  0  0  0  0  0  0  0  0  0  0  0
   -0.5460   16.6950   -5.1440 C   0  0  2  0  0  0  0  0  0  0  0  0
    1.5970    9.1600   -9.3820 F   0  0  0  0  0  0  0  0  0  0  0  0
   -0.2030   10.2400   -9.8930 F   0  0  0  0  0  0  0  0  0  0  0  0
    1.6820   11.2510   -9.9290 F   0  0  0  0  0  0  0  0  0  0  0  0
   -1.3070   18.3170   -5.1010 Cl  0  0  0  0  0  0  0  0  0  0  0  0
   -2.5560    8.7630   -6.9170 C   0  0  0  0  0  0  0  0  0  0  0  0
  2  1  1  1
  2  3  1  0
  2  4  1  0
  4  5  1  6
  4  6  1  0
  5  7  1  0
  5  8  1  0
  6  9  1  1
  6 10  1  0
  7 11  1  0
  8 12  1  0
 11 12  1  0
  8 13  1  6
  9 14  1  0
 10 15  1  0
 11 16  1  6
 14 17  1  1
 12 18  1  6
 13 19  1  0
 14 20  1  0
 15 20  1  0
 16 21  1  0
 16 22  1  0
 16 23  1  0
 20 24  1  1
 18 25  1  0
 19 25  1  0
M  CHG  1   1  -1
M  END
