ucsf520-ucsf135
     RDKit          3D

 29 33  0  0  0  0  0  0  0  0999 V2000
   -4.7030   15.2280    1.1740 N   0  0  0  0  0  0  0  0  0  0  0  0
   -3.6630   15.2260    0.1490 C   0  0  1  0  0  0  0  0  0  0  0  0
   -2.3750   14.4800    0.4950 C   0  0  1  0  0  0  0  0  0  0  0  0
   -4.2590   14.6910   -1.0480 N   0  0  0  0  0  0  0  0  0  0  0  0
   -3.4500   14.8220   -2.2610 C   0  0  0  0  0  0  0  0  0  0  0  0
   -1.5800   14.0950   -0.7760 C   0  0  1  0  0  0  0  0  0  0  0  0
   -1.4310   15.2040    1.3680 N   0  0  0  0  0  0  0  0  0  0  0  0
   -2.0040   14.7300   -2.0390 N   0  0  0  0  0  0  0  0  0  0  0  0
   -0.2130   14.5750   -0.4680 N   0  0  0  0  0  0  0  0  0  0  0  0
   -0.1480   14.6780    0.9780 C   0  0  0  0  0  0  0  0  0  0  0  0
   -1.1870   14.2900   -3.2430 C   0  0  1  0  0  0  0  0  0  0  0  0
   -1.8770   13.3960   -4.3340 C   0  0  0  0  0  0  0  0  0  0  0  0
   -0.5040   15.5500   -3.8670 C   0  0  2  0  0  0  0  0  0  0  0  0
   -1.8020   12.0020   -4.0670 O   0  0  0  0  0  0  0  0  0  0  0  0
   -1.4160   16.4950   -4.4740 O   0  0  0  0  0  0  0  0  0  0  0  0
    0.5870   15.3850   -4.9050 C   0  0  0  0  0  0  0  0  0  0  0  0
    0.7990   16.8430   -5.2490 C   0  0  0  0  0  0  0  0  0  0  0  0
   -0.6100   17.4170   -5.2110 C   0  0  0  0  0  0  0  0  0  0  0  0
   -0.4420   11.2150   -4.3860 S   0  0  2  0  0  0  0  0  0  0  0  0
    0.2370   10.5600   -3.1000 O   0  0  0  0  0  0  0  0  0  0  0  0
    0.5700   12.0630   -5.3830 N   0  0  0  0  0  0  0  0  0  0  0  0
   -0.8520    9.8320   -5.4170 C   0  0  2  0  0  0  0  0  0  0  0  0
    1.1480   11.1340   -6.3450 C   0  0  1  0  0  0  0  0  0  0  0  0
    0.1250    9.9840   -6.6110 C   0  0  2  0  0  0  0  0  0  0  0  0
   -2.2920    9.6340   -5.8410 C   0  0  0  0  0  0  0  0  0  0  0  0
    1.4150   11.8160   -7.5380 O   0  0  0  0  0  0  0  0  0  0  0  0
   -2.4230    8.5190   -6.8850 C   0  0  0  0  0  0  0  0  0  0  0  0
   -0.6300   10.0020   -7.9440 C   0  0  0  0  0  0  0  0  0  0  0  0
   -1.5390    8.7690   -8.1060 C   0  0  0  0  0  0  0  0  0  0  0  0
  2  1  1  1
  2  3  1  0
  2  4  1  0
  4  5  1  0
  3  6  1  0
  3  7  1  1
  5  8  1  0
  6  8  1  0
  6  9  1  1
  7 10  1  0
  9 10  1  0
  8 11  1  0
 11 12  1  6
 11 13  1  0
 12 14  1  0
 13 15  1  0
 13 16  1  6
 16 17  1  0
 15 18  1  0
 17 18  1  0
 19 14  1  0
 19 20  1  1
 19 21  1  0
 19 22  1  0
 21 23  1  0
 22 24  1  0
 23 24  1  0
 22 25  1  6
 23 26  1  6
 25 27  1  0
 24 28  1  6
 27 29  1  0
 28 29  1  0
M  END
