ucsf303-ucsf115
     RDKit          3D

 24 27  0  0  0  0  0  0  0  0999 V2000
   -2.6120   13.2420   -3.3600 O   0  0  0  0  0  0  0  0  0  0  0  0
   -3.4970   14.3470   -2.7170 S   0  0  1  0  0  0  0  0  0  0  0  0
   -3.9490   15.2920   -3.5970 O   0  0  0  0  0  0  0  0  0  0  0  0
   -1.1860   13.2080   -3.5240 C   0  0  2  0  0  0  0  0  0  0  0  0
   -4.8540   13.5400   -2.6060 N   0  0  0  0  0  0  0  0  0  0  0  0
   -3.0830   14.6080   -0.7500 S   0  0  0  0  0  0  0  0  0  0  0  0
   -0.9520   12.1540   -4.4450 O   0  0  0  0  0  0  0  0  0  0  0  0
   -0.4820   12.7660   -2.2520 C   0  0  0  0  0  0  0  0  0  0  0  0
   -5.0160   12.1360   -2.8340 C   0  0  2  0  0  0  0  0  0  0  0  0
   -3.6150   12.7940   -0.4360 C   0  0  0  0  0  0  0  0  0  0  0  0
   -4.5230   15.4670    0.1540 C   0  0  0  0  0  0  0  0  0  0  0  0
    0.3600   11.5840   -2.6490 C   0  0  0  0  0  0  0  0  0  0  0  0
   -0.4550   11.0380   -3.7680 C   0  0  0  0  0  0  0  0  0  0  0  0
   -2.4470   14.8640    0.6660 C   0  0  2  0  0  0  0  0  0  0  0  0
   -1.2350   14.5390   -0.9140 C   0  0  0  0  0  0  0  0  0  0  0  0
   -5.6360   11.3930   -1.7550 N   0  0  0  0  0  0  0  0  0  0  0  0
   -3.3810   11.3180   -2.6710 S   0  0  0  0  0  0  0  0  0  0  0  0
   -1.1990   14.2190    1.2470 C   0  0  0  0  0  0  0  0  0  0  0  0
   -3.2900   14.7100    1.9220 C   0  0  0  0  0  0  0  0  0  0  0  0
   -4.2690   15.7700    1.5150 C   0  0  0  0  0  0  0  0  0  0  0  0
   -0.3700   15.3620   -0.3360 N   0  0  0  0  0  0  0  0  0  0  0  0
   -4.1250    9.6660   -2.3900 C   0  0  0  0  0  0  0  0  0  0  0  0
   -5.4870   10.0350   -1.9680 N   0  0  0  0  0  0  0  0  0  0  0  0
    0.1430   14.6270    0.7480 C   0  0  0  0  0  0  0  0  0  0  0  0
  2  1  1  0
  2  3  1  6
  4  1  1  1
  2  5  1  0
  2  6  1  0
  4  7  1  0
  4  8  1  0
  9  5  1  1
  6 10  1  0
  6 11  1  0
  8 12  1  0
  7 13  1  0
 12 13  1  0
  6 14  1  0
  6 15  1  0
  9 16  1  0
  9 17  1  0
 14 18  1  1
 14 19  1  0
 11 20  1  0
 19 20  1  0
 15 21  1  0
 17 22  1  0
 16 23  1  0
 22 23  1  0
 18 24  1  0
 21 24  1  0
M  END
