ucsf147-ucsf115
     RDKit          3D

 26 29  0  0  0  0  0  0  0  0999 V2000
    1.1560   12.9280   -5.8620 C   0  0  0  0  0  0  0  0  0  0  0  0
   -0.1850   12.9390   -5.1440 C   0  0  2  0  0  0  0  0  0  0  0  0
   -1.2300   13.4200   -6.0140 O   0  0  0  0  0  0  0  0  0  0  0  0
   -0.3090   13.8240   -3.9270 C   0  0  1  0  0  0  0  0  0  0  0  0
    0.5640   15.0980   -3.8950 C   0  0  1  0  0  0  0  0  0  0  0  0
   -2.2600   14.0830   -5.1830 N   0  0  0  0  0  0  0  0  0  0  0  0
   -1.8500   13.8730   -3.7580 C   0  0  2  0  0  0  0  0  0  0  0  0
    0.0980   15.9150   -2.8460 O   0  0  0  0  0  0  0  0  0  0  0  0
    1.7800   14.8130   -3.4560 O   0  0  0  0  0  0  0  0  0  0  0  0
   -2.5640   14.8670   -2.7430 C   0  0  2  0  0  0  0  0  0  0  0  0
   -2.0810   14.8990   -1.1990 C   0  0  1  0  0  0  0  0  0  0  0  0
   -4.1020   14.7890   -2.9100 C   0  0  0  0  0  0  0  0  0  0  0  0
   -0.7060   15.4200   -1.1430 N   0  0  0  0  0  0  0  0  0  0  0  0
   -3.1120   15.6100   -0.2370 C   0  0  1  0  0  0  0  0  0  0  0  0
   -4.8490   14.4820   -1.6330 C   0  0  0  0  0  0  0  0  0  0  0  0
   -1.6780   13.6720   -0.5280 N   0  0  0  0  0  0  0  0  0  0  0  0
    0.3900   14.4020   -1.2460 C   0  0  0  0  0  0  0  0  0  0  0  0
   -4.5940   15.5700   -0.6330 C   0  0  0  0  0  0  0  0  0  0  0  0
   -0.8890   13.9430    0.6670 C   0  0  0  0  0  0  0  0  0  0  0  0
   -2.9900   14.9960    1.1610 C   0  0  0  0  0  0  0  0  0  0  0  0
   -0.0420   13.1610   -2.0700 C   0  0  2  0  0  0  0  0  0  0  0  0
   -1.6030   14.8250    1.5550 N   0  0  0  0  0  0  0  0  0  0  0  0
   -0.7780   12.1880   -1.3050 O   0  0  0  0  0  0  0  0  0  0  0  0
    1.0890   12.2980   -2.6300 C   0  0  0  0  0  0  0  0  0  0  0  0
    0.3980   10.9480   -2.8280 C   0  0  0  0  0  0  0  0  0  0  0  0
   -0.9760   11.1660   -2.2680 C   0  0  0  0  0  0  0  0  0  0  0  0
  2  1  1  6
  2  3  1  0
  2  4  1  0
  4  5  1  6
  3  6  1  0
  4  7  1  0
  7  6  1  6
  5  8  1  1
  5  9  1  0
  7 10  1  0
 10 11  1  0
 10 12  1  1
 11 13  1  6
 11 14  1  0
 12 15  1  0
 11 16  1  0
 13 17  1  0
 14 18  1  6
 15 18  1  0
 16 19  1  0
 14 20  1  0
 21 17  1  1
 19 22  1  0
 20 22  1  0
 21 23  1  0
 21 24  1  0
 24 25  1  0
 23 26  1  0
 25 26  1  0
M  CHG  1   9  -1
M  END
