ucsf333-ucsf385
     RDKit          3D

 24 26  0  0  0  0  0  0  0  0999 V2000
   -7.0140   14.3960   -1.6290 Cl  0  0  0  0  0  0  0  0  0  0  0  0
   -5.4850   15.1300   -2.1730 C   0  0  2  0  0  0  0  0  0  0  0  0
   -4.9140   14.3620   -3.4210 C   0  0  0  0  0  0  0  0  0  0  0  0
   -4.5780   15.3390   -0.9500 C   0  0  0  0  0  0  0  0  0  0  0  0
   -3.3830   14.1760   -3.4440 C   0  0  1  0  0  0  0  0  0  0  0  0
   -3.1280   14.9390   -1.2330 C   0  0  0  0  0  0  0  0  0  0  0  0
   -2.6760   14.2280   -4.7190 N   0  0  0  0  0  0  0  0  0  0  0  0
   -2.8090   15.2730   -2.6770 C   0  0  1  0  0  0  0  0  0  0  0  0
   -1.2350   13.8370   -4.4710 C   0  0  1  0  0  0  0  0  0  0  0  0
   -1.1430   15.3140   -3.3770 S   0  0  0  0  0  0  0  0  0  0  0  0
   -0.3320   13.3160   -3.3180 C   0  0  2  0  0  0  0  0  0  0  0  0
    0.3290   11.9320   -3.6150 C   0  0  0  0  0  0  0  0  0  0  0  0
   -1.1440   13.1460   -1.9090 C   0  0  1  0  0  0  0  0  0  0  0  0
    0.0950   11.0450   -2.3800 C   0  0  2  0  0  0  0  0  0  0  0  0
   -0.5450   12.2830   -1.1100 O   0  0  0  0  0  0  0  0  0  0  0  0
   -1.2660   14.3940   -1.0060 C   0  0  1  0  0  0  0  0  0  0  0  0
    0.7910   11.5190   -1.3750 O   0  0  0  0  0  0  0  0  0  0  0  0
    0.6540    9.8000   -2.4950 O   0  0  0  0  0  0  0  0  0  0  0  0
   -2.5470   14.3890   -0.0650 C   0  0  1  0  0  0  0  0  0  0  0  0
    0.0720   14.7240   -0.3360 C   0  0  0  0  0  0  0  0  0  0  0  0
   -3.5210   13.3340   -0.4380 N   0  0  0  0  0  0  0  0  0  0  0  0
   -0.1250   15.1240    1.0810 C   0  0  0  0  0  0  0  0  0  0  0  0
   -2.2580   14.2820    1.4470 C   0  0  0  0  0  0  0  0  0  0  0  0
   -0.8530   14.0960    1.8020 N   0  0  0  0  0  0  0  0  0  0  0  0
  2  1  1  1
  2  3  1  0
  2  4  1  0
  5  3  1  6
  4  6  1  0
  5  7  1  0
  5  8  1  0
  8  6  1  1
  9  7  1  1
  8 10  1  0
  9 10  1  0
  9 11  1  0
 11 12  1  6
 11 13  1  0
 12 14  1  0
 13 15  1  1
 13 16  1  0
 14 17  1  1
 14 18  1  0
 16 19  1  0
 16 20  1  1
 19 21  1  6
 20 22  1  0
 19 23  1  0
 22 24  1  0
 23 24  1  0
M  CHG  2  15  -1  17  -1
M  END
