ucsf487-ucsf365
     RDKit          3D

 23 25  0  0  0  0  0  0  0  0999 V2000
   -7.4120   13.6020    2.8770 N   0  0  0  0  0  0  0  0  0  0  0  0
   -7.1900   14.5800    1.8210 C   0  0  2  0  0  0  0  0  0  0  0  0
   -8.0720   14.2980    0.5820 C   0  0  0  0  0  0  0  0  0  0  0  0
   -5.6790   14.6480    1.4790 C   0  0  0  0  0  0  0  0  0  0  0  0
   -5.2450   15.2550    0.1380 C   0  0  2  0  0  0  0  0  0  0  0  0
   -7.2850   13.9990   -0.6110 N   0  0  0  0  0  0  0  0  0  0  0  0
   -6.3760   15.1010   -0.9050 C   0  0  2  0  0  0  0  0  0  0  0  0
   -3.8270   14.8290   -0.2510 C   0  0  0  0  0  0  0  0  0  0  0  0
   -5.9210   15.0210   -2.3630 C   0  0  0  0  0  0  0  0  0  0  0  0
   -3.4870   15.2330   -1.6560 C   0  0  0  0  0  0  0  0  0  0  0  0
   -4.4650   14.6410   -2.6680 C   0  0  2  0  0  0  0  0  0  0  0  0
   -4.0240   15.0150   -4.1050 C   0  0  0  0  0  0  0  0  0  0  0  0
   -2.7090   14.4310   -4.5770 C   0  0  1  0  0  0  0  0  0  0  0  0
   -2.7050   13.1790   -5.4420 C   0  0  0  0  0  0  0  0  0  0  0  0
   -1.6400   15.4400   -4.9570 C   0  0  0  0  0  0  0  0  0  0  0  0
   -1.5600   12.3370   -4.9030 C   0  0  1  0  0  0  0  0  0  0  0  0
   -0.3290   14.6550   -5.0640 C   0  0  0  0  0  0  0  0  0  0  0  0
   -1.0650   11.4680   -5.9170 O   0  0  0  0  0  0  0  0  0  0  0  0
   -0.4540   13.2840   -4.3500 C   0  0  2  0  0  0  0  0  0  0  0  0
    0.9290   12.6230   -4.2330 C   0  0  0  0  0  0  0  0  0  0  0  0
    1.3000   12.1140   -2.8420 C   0  0  2  0  0  0  0  0  0  0  0  0
    0.5290   11.1250   -2.4510 O   0  0  0  0  0  0  0  0  0  0  0  0
    1.0100   13.1190   -1.8980 O   0  0  0  0  0  0  0  0  0  0  0  0
  2  1  1  1
  2  3  1  0
  2  4  1  0
  5  4  1  1
  3  6  1  0
  5  7  1  0
  6  7  1  0
  5  8  1  0
  7  9  1  6
  8 10  1  0
  9 11  1  0
 10 11  1  0
 11 12  1  6
 13 12  1  6
 13 14  1  0
 13 15  1  0
 14 16  1  0
 15 17  1  0
 16 18  1  6
 16 19  1  0
 17 19  1  0
 19 20  1  6
 20 21  1  0
 21 22  1  1
 21 23  1  0
M  CHG  1  22  -1
M  END
