ucsf138-ucsf411
     RDKit          3D

 25 27  0  0  0  0  0  0  0  0999 V2000
    0.3710   12.5620   -1.8660 O   0  0  0  0  0  0  0  0  0  0  0  0
    1.0960   11.9250   -2.7630 C   0  0  1  0  0  0  0  0  0  0  0  0
    0.5460   10.6030   -2.6080 O   0  0  0  0  0  0  0  0  0  0  0  0
    1.0520   12.4060   -4.2970 C   0  0  1  0  0  0  0  0  0  0  0  0
    0.2490   11.6580   -5.3050 N   0  0  0  0  0  0  0  0  0  0  0  0
    0.8920   13.8420   -4.3470 O   0  0  0  0  0  0  0  0  0  0  0  0
    0.7930   11.4420   -6.6280 C   0  0  2  0  0  0  0  0  0  0  0  0
   -0.1950   14.3800   -5.0930 C   0  0  2  0  0  0  0  0  0  0  0  0
    0.7080   12.6250   -7.2900 O   0  0  0  0  0  0  0  0  0  0  0  0
    0.1480   10.4060   -7.3990 N   0  0  0  0  0  0  0  0  0  0  0  0
   -0.2810   15.8730   -4.7060 C   0  0  2  0  0  0  0  0  0  0  0  0
   -1.4580   13.6410   -4.6850 C   0  0  0  0  0  0  0  0  0  0  0  0
    0.7840    9.9860   -8.6620 C   0  0  0  0  0  0  0  0  0  0  0  0
   -1.5700   16.5750   -5.1990 C   0  0  1  0  0  0  0  0  0  0  0  0
   -2.7360   14.3450   -5.1520 C   0  0  0  0  0  0  0  0  0  0  0  0
    1.0090   16.6170   -5.1120 C   0  0  0  0  0  0  0  0  0  0  0  0
   -0.0610   10.2450   -9.9280 C   0  0  0  0  0  0  0  0  0  0  0  0
    1.3810    8.5660   -8.6000 C   0  0  0  0  0  0  0  0  0  0  0  0
   -2.8190   15.8300   -4.7690 C   0  0  0  0  0  0  0  0  0  0  0  0
   -1.5050   18.0560   -4.9380 C   0  0  0  0  0  0  0  0  0  0  0  0
    0.9270   18.1370   -5.2990 C   0  0  0  0  0  0  0  0  0  0  0  0
    0.6510    9.7570  -11.1960 C   0  0  0  0  0  0  0  0  0  0  0  0
    2.0630    8.0920   -9.8810 C   0  0  0  0  0  0  0  0  0  0  0  0
   -0.4160   18.5960   -5.8340 C   0  0  0  0  0  0  0  0  0  0  0  0
    1.1750    8.3220  -11.0950 C   0  0  0  0  0  0  0  0  0  0  0  0
  2  1  1  1
  2  3  1  0
  2  4  1  0
  4  5  1  6
  4  6  1  0
  5  7  1  0
  8  6  1  1
  7  9  1  6
  7 10  1  0
  8 11  1  0
  8 12  1  0
 10 13  1  0
 11 14  1  0
 12 15  1  0
 11 16  1  6
 13 17  1  0
 13 18  1  0
 14 19  1  1
 15 19  1  0
 14 20  1  0
 16 21  1  0
 17 22  1  0
 18 23  1  0
 20 24  1  0
 21 24  1  0
 22 25  1  0
 23 25  1  0
M  CHG  1   1  -1
M  END
