ucsf337-ucsf147
     RDKit          3D

 17 18  0  0  0  0  0  0  0  0999 V2000
   -6.8340   14.5280    0.1540 C   0  0  0  0  0  0  0  0  0  0  0  0
   -5.6330   14.7830   -0.7930 C   0  0  2  0  0  0  0  0  0  0  0  0
   -5.6660   13.8710   -1.9440 N   0  0  0  0  0  0  0  0  0  0  0  0
   -4.2470   14.7110   -0.1920 C   0  0  2  0  0  0  0  0  0  0  0  0
   -4.1600   15.5880    1.5480 Br  0  0  0  0  0  0  0  0  0  0  0  0
   -3.1460   15.1720   -1.1730 C   0  0  0  0  0  0  0  0  0  0  0  0
   -4.5190   13.8490   -2.9260 C   0  0  1  0  0  0  0  0  0  0  0  0
   -5.1590   14.5570   -4.0200 N   0  0  0  0  0  0  0  0  0  0  0  0
   -3.0260   14.3870   -2.5710 C   0  0  1  0  0  0  0  0  0  0  0  0
   -2.7900   15.2990   -3.7720 N   0  0  0  0  0  0  0  0  0  0  0  0
   -1.6080   13.5230   -2.7820 C   0  0  2  0  0  0  0  0  0  0  0  0
   -0.2980   13.6300   -1.8920 C   0  0  2  0  0  0  0  0  0  0  0  0
   -1.0450   14.0040   -4.1550 C   0  0  2  0  0  0  0  0  0  0  0  0
   -2.2110   14.4280   -4.8220 O   0  0  0  0  0  0  0  0  0  0  0  0
   -0.2300   12.9970   -4.9870 C   0  0  0  0  0  0  0  0  0  0  0  0
   -0.4140   13.1070   -0.5910 O   0  0  0  0  0  0  0  0  0  0  0  0
    0.0500   14.8910   -1.7080 O   0  0  0  0  0  0  0  0  0  0  0  0
  2  1  1  1
  2  3  1  0
  2  4  1  0
  4  5  1  1
  4  6  1  0
  3  7  1  0
  7  8  1  6
  9  6  1  1
  7  9  1  0
  9 10  1  0
  9 11  1  0
 11 12  1  1
 11 13  1  0
 10 14  1  0
 13 14  1  0
 13 15  1  6
 12 16  1  1
 12 17  1  0
M  CHG  1  17  -1
M  END
