ucsf404-ucsf017
     RDKit          3D

 25 29  0  0  0  0  0  0  0  0999 V2000
   -6.8270   14.6550   -2.2460 Cl  0  0  0  0  0  0  0  0  0  0  0  0
   -5.3530   15.4190   -1.5820 C   0  0  1  0  0  0  0  0  0  0  0  0
   -5.1930   15.1950   -0.0850 C   0  0  1  0  0  0  0  0  0  0  0  0
   -4.1480   15.1010   -2.4350 C   0  0  0  0  0  0  0  0  0  0  0  0
   -6.3080   14.4130    0.4870 N   0  0  0  0  0  0  0  0  0  0  0  0
   -3.8150   14.6960    0.4280 C   0  0  1  0  0  0  0  0  0  0  0  0
   -2.8480   15.5400   -1.7970 C   0  0  0  0  0  0  0  0  0  0  0  0
   -5.9240   13.8240    1.7260 C   0  0  1  0  0  0  0  0  0  0  0  0
   -4.2130   13.3170    1.5510 S   0  0  0  0  0  0  0  0  0  0  0  0
   -2.5230   14.8470   -0.4870 C   0  0  1  0  0  0  0  0  0  0  0  0
   -6.1480   14.8450    2.7090 N   0  0  0  0  0  0  0  0  0  0  0  0
   -1.7680   15.8030    0.3970 C   0  0  0  0  0  0  0  0  0  0  0  0
   -1.3650   13.7610   -0.6770 C   0  0  1  0  0  0  0  0  0  0  0  0
   -1.1320   13.1690   -2.0310 N   0  0  0  0  0  0  0  0  0  0  0  0
   -0.0760   14.2480   -0.1850 N   0  0  0  0  0  0  0  0  0  0  0  0
   -1.3250   15.0610    1.5430 N   0  0  0  0  0  0  0  0  0  0  0  0
   -1.0950   13.8580   -3.3570 C   0  0  2  0  0  0  0  0  0  0  0  0
    0.2230   12.5770   -2.0000 C   0  0  0  0  0  0  0  0  0  0  0  0
   -0.0850   14.4660    1.2360 C   0  0  0  0  0  0  0  0  0  0  0  0
   -2.2840   14.5590   -4.0310 C   0  0  0  0  0  0  0  0  0  0  0  0
   -0.9700   12.7580   -4.4380 C   0  0  1  0  0  0  0  0  0  0  0  0
    0.2070   11.3260   -2.8400 C   0  0  0  0  0  0  0  0  0  0  0  0
   -0.9790   13.5830   -5.6820 C   0  0  0  0  0  0  0  0  0  0  0  0
   -2.0820   14.4730   -5.4650 O   0  0  0  0  0  0  0  0  0  0  0  0
    0.1650   11.7600   -4.2890 C   0  0  0  0  0  0  0  0  0  0  0  0
  2  1  1  6
  2  3  1  0
  2  4  1  0
  3  5  1  6
  3  6  1  0
  4  7  1  0
  5  8  1  0
  6  9  1  6
  8  9  1  0
  6 10  1  0
 10  7  1  6
  8 11  1  1
 10 12  1  0
 10 13  1  0
 13 14  1  6
 13 15  1  0
 12 16  1  0
 14 17  1  0
 14 18  1  0
 15 19  1  0
 16 19  1  0
 17 20  1  6
 17 21  1  0
 18 22  1  0
 21 23  1  6
 20 24  1  0
 23 24  1  0
 21 25  1  0
 22 25  1  0
M  END
