ucsf412-ucsf006
     RDKit          3D

 23 25  0  0  0  0  0  0  0  0999 V2000
   -7.9310   15.2260   -0.5050 O   0  0  0  0  0  0  0  0  0  0  0  0
   -6.7380   14.7020    0.0340 C   0  0  2  0  0  0  0  0  0  0  0  0
   -6.8330   14.9020    1.4610 N   0  0  0  0  0  0  0  0  0  0  0  0
   -5.5060   15.3490   -0.6540 C   0  0  1  0  0  0  0  0  0  0  0  0
   -4.2550   14.9270    0.1390 C   0  0  2  0  0  0  0  0  0  0  0  0
   -5.5650   14.8490    2.1890 C   0  0  0  0  0  0  0  0  0  0  0  0
   -5.5420   14.9010   -2.1180 C   0  0  0  0  0  0  0  0  0  0  0  0
   -4.3290   15.4880    1.5450 C   0  0  0  0  0  0  0  0  0  0  0  0
   -2.8680   14.6140   -0.5730 C   0  0  1  0  0  0  0  0  0  0  0  0
   -4.2100   14.4980   -2.7090 C   0  0  0  0  0  0  0  0  0  0  0  0
   -3.3260   13.7130   -1.7400 C   0  0  0  0  0  0  0  0  0  0  0  0
   -1.7730   15.5990   -1.1710 C   0  0  2  0  0  0  0  0  0  0  0  0
   -2.1110   13.8410    0.5350 C   0  0  0  0  0  0  0  0  0  0  0  0
   -1.3650   15.2730   -2.5590 N   0  0  0  0  0  0  0  0  0  0  0  0
   -1.2010   14.6140    1.3720 N   0  0  0  0  0  0  0  0  0  0  0  0
   -0.5740   15.9110   -0.3900 N   0  0  0  0  0  0  0  0  0  0  0  0
   -2.1820   15.6290   -3.6990 C   0  0  0  0  0  0  0  0  0  0  0  0
    0.0870   15.2460   -2.9090 C   0  0  0  0  0  0  0  0  0  0  0  0
   -0.0810   14.9980    0.5860 C   0  0  0  0  0  0  0  0  0  0  0  0
    0.4870   14.5830   -4.2590 C   0  0  0  0  0  0  0  0  0  0  0  0
    0.3960   13.0380   -4.2170 C   0  0  1  0  0  0  0  0  0  0  0  0
    0.0700   12.5650   -5.5140 O   0  0  0  0  0  0  0  0  0  0  0  0
    1.5830   12.5030   -4.0150 O   0  0  0  0  0  0  0  0  0  0  0  0
  2  1  1  6
  2  3  1  0
  2  4  1  0
  4  5  1  0
  3  6  1  0
  4  7  1  6
  5  8  1  1
  6  8  1  0
  5  9  1  0
  7 10  1  0
  9 11  1  6
 10 11  1  0
  9 12  1  0
  9 13  1  0
 12 14  1  6
 13 15  1  0
 12 16  1  0
 14 17  1  0
 14 18  1  0
 15 19  1  0
 16 19  1  0
 18 20  1  0
 20 21  1  0
 21 22  1  6
 21 23  1  0
M  CHG  1  23  -1
M  END
