ucsf147-ucsf387
     RDKit          3D

 24 26  0  0  0  0  0  0  0  0999 V2000
    1.0120   13.5340   -4.9490 C   0  0  0  0  0  0  0  0  0  0  0  0
   -0.0380   12.4780   -4.6600 C   0  0  2  0  0  0  0  0  0  0  0  0
   -1.1540   12.6540   -5.5560 O   0  0  0  0  0  0  0  0  0  0  0  0
    0.3710   14.8520   -4.5260 C   0  0  2  0  0  0  0  0  0  0  0  0
   -0.6710   12.5220   -3.2720 C   0  0  1  0  0  0  0  0  0  0  0  0
   -1.0720   14.8140   -4.9670 C   0  0  0  0  0  0  0  0  0  0  0  0
    1.1440   16.0830   -4.9300 C   0  0  0  0  0  0  0  0  0  0  0  0
    0.2860   12.8270   -2.1540 C   0  0  0  0  0  0  0  0  0  0  0  0
   -2.2420   13.3600   -4.8540 N   0  0  0  0  0  0  0  0  0  0  0  0
   -2.0740   13.1380   -3.3900 C   0  0  2  0  0  0  0  0  0  0  0  0
   -1.8330   16.1160   -4.8660 C   0  0  2  0  0  0  0  0  0  0  0  0
    0.3840   17.3960   -4.8010 C   0  0  1  0  0  0  0  0  0  0  0  0
   -0.1710   12.7970   -0.8590 O   0  0  0  0  0  0  0  0  0  0  0  0
    0.9800   14.0430   -2.2630 O   0  0  0  0  0  0  0  0  0  0  0  0
    1.1920   11.7730   -2.1820 O   0  0  0  0  0  0  0  0  0  0  0  0
    1.1970   18.6070   -5.8130 Cl  0  0  0  0  0  0  0  0  0  0  0  0
   -3.3310   15.9280   -5.8200 Cl  0  0  0  0  0  0  0  0  0  0  0  0
   -2.5120   14.3740   -2.5310 C   0  0  0  0  0  0  0  0  0  0  0  0
   -1.0640   17.3630   -5.2520 C   0  0  0  0  0  0  0  0  0  0  0  0
   -2.3050   14.0790   -1.0110 C   0  0  0  0  0  0  0  0  0  0  0  0
   -3.9890   14.7560   -2.8420 C   0  0  0  0  0  0  0  0  0  0  0  0
   -3.2450   14.7550    0.0100 C   0  0  0  0  0  0  0  0  0  0  0  0
   -4.6670   15.6080   -1.7970 C   0  0  0  0  0  0  0  0  0  0  0  0
   -4.6730   14.9840   -0.4450 C   0  0  0  0  0  0  0  0  0  0  0  0
  2  1  1  1
  2  3  1  0
  4  1  1  6
  2  5  1  0
  4  6  1  0
  4  7  1  0
  5  8  1  1
  3  9  1  0
  5 10  1  0
  9 10  1  0
  6 11  1  0
  7 12  1  0
  8 13  1  0
  8 14  1  0
  8 15  1  0
 12 16  1  6
 11 17  1  6
 10 18  1  1
 11 19  1  0
 12 19  1  0
 18 20  1  0
 18 21  1  0
 20 22  1  0
 21 23  1  0
 22 24  1  0
 23 24  1  0
M  CHG  2  14  -1  15  -1
M  END
