ucsf378-ucsf123
     RDKit          3D

 17 17  0  0  0  0  0  0  0  0999 V2000
   -2.5140   14.2320   -4.6510 Cl  0  0  0  0  0  0  0  0  0  0  0  0
   -0.9290   14.8350   -4.0650 C   0  0  1  0  0  0  0  0  0  0  0  0
    0.0000   13.6760   -3.5300 C   0  0  1  0  0  0  0  0  0  0  0  0
   -0.2920   15.8430   -5.0480 C   0  0  1  0  0  0  0  0  0  0  0  0
   -0.4240   12.2030   -3.7900 C   0  0  0  0  0  0  0  0  0  0  0  0
   -1.3190   17.2230   -5.6610 S   0  0  0  0  0  0  0  0  0  0  0  0
    1.4870   13.8950   -3.8730 C   0  0  1  0  0  0  0  0  0  0  0  0
    1.0220   16.3730   -4.5290 C   0  0  0  0  0  0  0  0  0  0  0  0
    2.1070   12.9050   -5.2200 Cl  0  0  0  0  0  0  0  0  0  0  0  0
   -0.5260   11.4110   -2.4700 C   0  0  2  0  0  0  0  0  0  0  0  0
   -1.7330   18.4630   -4.7120 N   0  0  0  0  0  0  0  0  0  0  0  0
   -0.4240   17.8970   -6.7850 O   0  0  0  0  0  0  0  0  0  0  0  0
   -2.5900   16.6920   -6.4690 O   0  0  0  0  0  0  0  0  0  0  0  0
    1.9620   15.3220   -3.9580 C   0  0  0  0  0  0  0  0  0  0  0  0
   -0.0960   12.2100   -1.3630 O   0  0  0  0  0  0  0  0  0  0  0  0
    0.2670   10.2330   -2.4860 O   0  0  0  0  0  0  0  0  0  0  0  0
    1.2270   12.7240   -1.6940 O   0  0  0  0  0  0  0  0  0  0  0  0
  2  1  1  6
  2  3  1  0
  2  4  1  0
  3  5  1  6
  4  6  1  1
  3  7  1  0
  4  8  1  0
  7  9  1  6
  5 10  1  0
  6 11  1  0
  6 12  1  0
  6 13  1  0
  7 14  1  0
  8 14  1  0
 10 15  1  0
 10 16  1  6
 15 17  1  0
M  END
