ucsf364-ucsf241
     RDKit          3D

 20 22  0  0  0  0  0  0  0  0999 V2000
    2.1250   13.2910   -4.7730 C   0  0  0  0  0  0  0  0  0  0  0  0
    0.9640   12.2970   -4.6930 C   0  0  2  0  0  0  0  0  0  0  0  0
    0.6940   11.6380   -6.0640 C   0  0  2  0  0  0  0  0  0  0  0  0
   -0.3670   12.8230   -4.0910 C   0  0  2  0  0  0  0  0  0  0  0  0
    1.7780   11.7570   -6.9780 O   0  0  0  0  0  0  0  0  0  0  0  0
   -0.2750   13.1450   -2.5590 C   0  0  2  0  0  0  0  0  0  0  0  0
   -1.4710   11.7640   -4.3360 C   0  0  0  0  0  0  0  0  0  0  0  0
   -0.6060   12.0910   -6.6570 C   0  0  0  0  0  0  0  0  0  0  0  0
   -0.6140   14.5390   -2.4480 O   0  0  0  0  0  0  0  0  0  0  0  0
    0.9780   12.9840   -2.1650 O   0  0  0  0  0  0  0  0  0  0  0  0
   -1.7420   11.5290   -5.8190 C   0  0  0  0  0  0  0  0  0  0  0  0
   -0.8680   14.9990   -1.1200 C   0  0  1  0  0  0  0  0  0  0  0  0
   -2.2670   14.7060   -0.5940 C   0  0  2  0  0  0  0  0  0  0  0  0
    0.1100   14.2200   -0.2500 C   0  0  0  0  0  0  0  0  0  0  0  0
   -3.4700   15.3700   -1.2440 C   0  0  0  0  0  0  0  0  0  0  0  0
   -2.3600   15.2390    0.7980 C   0  0  1  0  0  0  0  0  0  0  0  0
   -0.1780   14.3080    1.2510 C   0  0  0  0  0  0  0  0  0  0  0  0
   -4.4750   15.4790   -0.0990 C   0  0  0  0  0  0  0  0  0  0  0  0
   -3.7630   15.0880    1.1390 N   0  0  0  0  0  0  0  0  0  0  0  0
   -1.5640   14.4660    1.6890 N   0  0  0  0  0  0  0  0  0  0  0  0
  2  1  1  6
  2  3  1  0
  2  4  1  0
  3  5  1  6
  4  6  1  0
  4  7  1  1
  3  8  1  0
  6  9  1  0
  6 10  1  6
  7 11  1  0
  8 11  1  0
 12  9  1  6
 12 13  1  0
 12 14  1  0
 13 15  1  6
 13 16  1  0
 14 17  1  0
 15 18  1  0
 16 19  1  1
 18 19  1  0
 16 20  1  0
 17 20  1  0
M  CHG  1  10  -1
M  END
