ucsf339-ucsf248
     RDKit          3D

 24 26  0  0  0  0  0  0  0  0999 V2000
    1.5790   14.3950   -2.6650 O   0  0  0  0  0  0  0  0  0  0  0  0
    0.8070   13.3420   -2.4640 C   0  0  1  0  0  0  0  0  0  0  0  0
    0.7330   13.2370   -1.0490 O   0  0  0  0  0  0  0  0  0  0  0  0
   -0.6300   13.5580   -3.0320 C   0  0  1  0  0  0  0  0  0  0  0  0
   -1.6570   13.2880   -1.8970 C   0  0  0  0  0  0  0  0  0  0  0  0
   -0.8370   14.9220   -3.7400 C   0  0  0  0  0  0  0  0  0  0  0  0
   -2.8320   14.2410   -2.0100 C   0  0  1  0  0  0  0  0  0  0  0  0
   -2.1950   15.1150   -4.2940 N   0  0  0  0  0  0  0  0  0  0  0  0
   -3.1950   14.4270   -3.4910 C   0  0  0  0  0  0  0  0  0  0  0  0
   -4.0770   14.0920   -1.0530 C   0  0  1  0  0  0  0  0  0  0  0  0
   -4.1710   13.0020    0.0370 C   0  0  0  0  0  0  0  0  0  0  0  0
   -4.1660   15.4650   -0.4260 C   0  0  2  0  0  0  0  0  0  0  0  0
   -5.2810   13.5440   -1.9170 C   0  0  0  0  0  0  0  0  0  0  0  0
   -3.9200   15.4290    1.0860 C   0  0  0  0  0  0  0  0  0  0  0  0
   -5.5420   12.8440    0.7170 C   0  0  0  0  0  0  0  0  0  0  0  0
   -5.5290   16.0520   -0.6750 C   0  0  0  0  0  0  0  0  0  0  0  0
   -6.5530   14.3290   -1.9130 C   0  0  0  0  0  0  0  0  0  0  0  0
   -5.1680   15.0980    1.8760 C   0  0  0  0  0  0  0  0  0  0  0  0
   -5.8610   13.7540    1.8890 C   0  0  1  0  0  0  0  0  0  0  0  0
   -6.1210   15.7240   -1.9910 C   0  0  0  0  0  0  0  0  0  0  0  0
   -7.6060   13.9140    2.3300 S   0  0  0  0  0  0  0  0  0  0  0  0
   -8.4970   12.5890    2.7160 N   0  0  0  0  0  0  0  0  0  0  0  0
   -7.6010   14.9020    3.5820 O   0  0  0  0  0  0  0  0  0  0  0  0
   -8.3890   14.7190    1.1820 O   0  0  0  0  0  0  0  0  0  0  0  0
  2  1  1  1
  2  3  1  0
  2  4  1  0
  4  5  1  1
  4  6  1  0
  7  5  1  6
  6  8  1  0
  7  9  1  0
  8  9  1  0
  7 10  1  0
 10 11  1  1
 10 12  1  0
 10 13  1  0
 12 14  1  1
 11 15  1  0
 12 16  1  0
 13 17  1  0
 14 18  1  0
 15 19  1  0
 18 19  1  0
 16 20  1  0
 17 20  1  0
 19 21  1  6
 21 22  1  0
 21 23  1  0
 21 24  1  0
M  CHG  1   1  -1
M  END
