ucsf016-ucsf028
     RDKit          3D

 25 29  0  0  0  0  0  0  0  0999 V2000
   -2.7900   13.1420   -2.0260 C   0  0  0  0  0  0  0  0  0  0  0  0
   -1.4930   13.0040   -2.8800 C   0  0  2  0  0  0  0  0  0  0  0  0
   -1.7080   12.1410   -4.1080 C   0  0  0  0  0  0  0  0  0  0  0  0
   -3.2620   14.5400   -1.5070 C   0  0  2  0  0  0  0  0  0  0  0  0
   -2.1580   15.4480   -1.0420 C   0  0  1  0  0  0  0  0  0  0  0  0
   -4.2050   14.4730   -0.2680 C   0  0  0  0  0  0  0  0  0  0  0  0
   -0.4560   12.2920   -2.1470 O   0  0  0  0  0  0  0  0  0  0  0  0
   -2.2250   15.4300    0.4800 C   0  0  1  0  0  0  0  0  0  0  0  0
   -0.7460   15.0870   -1.4360 C   0  0  1  0  0  0  0  0  0  0  0  0
   -3.6410   15.3430    0.7790 N   0  0  0  0  0  0  0  0  0  0  0  0
   -0.0580   11.1040   -2.9150 N   0  0  0  0  0  0  0  0  0  0  0  0
   -0.3830   11.4480   -4.2880 C   0  0  1  0  0  0  0  0  0  0  0  0
   -0.5560   10.3420   -5.1480 O   0  0  0  0  0  0  0  0  0  0  0  0
   -0.3520   15.4970   -2.7940 N   0  0  0  0  0  0  0  0  0  0  0  0
    0.1700   15.3940   -0.3590 N   0  0  0  0  0  0  0  0  0  0  0  0
   -1.4690   14.3730    1.0700 N   0  0  0  0  0  0  0  0  0  0  0  0
   -0.3680   10.7110   -6.5090 C   0  0  0  0  0  0  0  0  0  0  0  0
    0.7440   14.7210   -3.4070 C   0  0  0  0  0  0  0  0  0  0  0  0
   -1.4120   15.9680   -3.7240 C   0  0  0  0  0  0  0  0  0  0  0  0
   -0.0540   14.5520    0.8050 C   0  0  0  0  0  0  0  0  0  0  0  0
   -1.9310   14.9280   -4.7310 C   0  0  0  0  0  0  0  0  0  0  0  0
    0.5200   14.4480   -4.9010 C   0  0  0  0  0  0  0  0  0  0  0  0
   -3.3480   14.4030   -4.5440 C   0  0  0  0  0  0  0  0  0  0  0  0
   -3.0540   15.3190   -5.6910 C   0  0  0  0  0  0  0  0  0  0  0  0
   -0.8800   13.9730   -5.2480 C   0  0  0  0  0  0  0  0  0  0  0  0
  2  1  1  1
  2  3  1  0
  4  1  1  1
  5  4  1  6
  4  6  1  0
  2  7  1  0
  5  8  1  0
  5  9  1  0
  6 10  1  0
  8 10  1  6
  7 11  1  0
  3 12  1  0
 11 12  1  0
 12 13  1  6
  9 14  1  6
  9 15  1  0
  8 16  1  0
 13 17  1  0
 14 18  1  0
 14 19  1  0
 15 20  1  0
 16 20  1  0
 21 19  1  0
 18 22  1  0
 21 23  1  0
 21 24  1  0
 23 24  1  0
 21 25  1  0
 22 25  1  0
M  END
