ucsf248-ucsf511
     RDKit          3D

 22 25  0  0  0  0  0  0  0  0999 V2000
   -8.5620   12.9490    2.4600 N   0  0  0  0  0  0  0  0  0  0  0  0
   -8.2270   14.4650    1.8920 S   0  0  0  0  0  0  0  0  0  0  0  0
   -8.1910   15.4870    3.1260 O   0  0  0  0  0  0  0  0  0  0  0  0
   -9.3760   14.9920    0.9170 O   0  0  0  0  0  0  0  0  0  0  0  0
   -6.5930   14.7110    1.0910 C   0  0  1  0  0  0  0  0  0  0  0  0
   -5.8680   13.4770    1.1570 N   0  0  0  0  0  0  0  0  0  0  0  0
   -6.5720   15.1420   -0.3220 N   0  0  0  0  0  0  0  0  0  0  0  0
   -4.8950   13.5590    0.0730 C   0  0  1  0  0  0  0  0  0  0  0  0
   -5.4280   14.4790   -1.0050 C   0  0  2  0  0  0  0  0  0  0  0  0
   -3.5720   14.0500    0.5990 C   0  0  0  0  0  0  0  0  0  0  0  0
   -4.2600   15.3310   -1.6450 C   0  0  0  0  0  0  0  0  0  0  0  0
   -2.5150   13.7360   -0.4450 C   0  0  1  0  0  0  0  0  0  0  0  0
   -2.7790   14.6320   -1.7250 C   0  0  2  0  0  0  0  0  0  0  0  0
   -1.5230   15.5040   -1.7270 C   0  0  2  0  0  0  0  0  0  0  0  0
   -2.6440   13.9220   -3.0640 N   0  0  0  0  0  0  0  0  0  0  0  0
   -1.1100   13.8630    0.2170 C   0  0  0  0  0  0  0  0  0  0  0  0
   -0.3780   14.5170   -2.0720 C   0  0  2  0  0  0  0  0  0  0  0  0
   -1.6230   14.3810   -4.0290 C   0  0  0  0  0  0  0  0  0  0  0  0
   -0.8130   15.1860    0.5940 O   0  0  0  0  0  0  0  0  0  0  0  0
   -1.2640   16.1130   -0.3630 C   0  0  0  0  0  0  0  0  0  0  0  0
    0.8760   14.9630   -1.6130 O   0  0  0  0  0  0  0  0  0  0  0  0
   -0.2840   14.3020   -3.4800 N   0  0  0  0  0  0  0  0  0  0  0  0
  1  2  1  0
  2  3  1  0
  2  4  1  0
  5  2  1  6
  5  6  1  0
  5  7  1  0
  6  8  1  0
  7  9  1  0
  8  9  1  0
  8 10  1  1
  9 11  1  1
 12 10  1  1
 13 11  1  1
 12 13  1  0
 13 14  1  0
 13 15  1  0
 12 16  1  0
 14 17  1  0
 15 18  1  0
 16 19  1  0
 14 20  1  1
 19 20  1  0
 17 21  1  6
 17 22  1  0
 18 22  1  0
M  END
