ucsf387-ucsf424
     RDKit          3D

 21 23  0  0  0  0  0  0  0  0999 V2000
    0.9100   17.7310   -5.8240 Cl  0  0  0  0  0  0  0  0  0  0  0  0
    0.4460   16.4940   -4.6100 C   0  0  1  0  0  0  0  0  0  0  0  0
   -1.0660   16.5020   -4.4000 C   0  0  0  0  0  0  0  0  0  0  0  0
    0.9900   15.0620   -4.8300 C   0  0  0  0  0  0  0  0  0  0  0  0
   -0.1160   14.1290   -4.2880 C   0  0  0  0  0  0  0  0  0  0  0  0
   -1.9070   15.6150   -5.2520 C   0  0  2  0  0  0  0  0  0  0  0  0
   -3.5170   15.3850   -4.5480 Cl  0  0  0  0  0  0  0  0  0  0  0  0
   -0.0280   12.5790   -4.0070 C   0  0  2  0  0  0  0  0  0  0  0  0
   -1.2610   14.2510   -5.3000 C   0  0  0  0  0  0  0  0  0  0  0  0
    0.4540   12.0790   -2.5680 C   0  0  1  0  0  0  0  0  0  0  0  0
    0.2160   11.5370   -5.1810 C   0  0  2  0  0  0  0  0  0  0  0  0
    0.5210   10.7530   -2.4520 O   0  0  0  0  0  0  0  0  0  0  0  0
    1.7480   12.5290   -2.2660 O   0  0  0  0  0  0  0  0  0  0  0  0
    1.1210   11.8800   -6.2940 N   0  0  0  0  0  0  0  0  0  0  0  0
   -1.0160   11.0470   -5.9260 C   0  0  1  0  0  0  0  0  0  0  0  0
    0.9210   10.8000   -7.2620 O   0  0  0  0  0  0  0  0  0  0  0  0
   -0.4830   10.5130   -7.2560 C   0  0  1  0  0  0  0  0  0  0  0  0
   -1.7730    9.9730   -5.1340 C   0  0  0  0  0  0  0  0  0  0  0  0
   -0.7390    9.0210   -7.4770 C   0  0  0  0  0  0  0  0  0  0  0  0
   -2.8150    9.2820   -5.9970 C   0  0  0  0  0  0  0  0  0  0  0  0
   -2.2040    8.6470   -7.2480 C   0  0  0  0  0  0  0  0  0  0  0  0
  2  1  1  6
  2  3  1  0
  2  4  1  0
  4  5  1  0
  3  6  1  0
  6  7  1  1
  8  5  1  6
  5  9  1  0
  6  9  1  0
  8 10  1  0
  8 11  1  0
 10 12  1  6
 10 13  1  0
 11 14  1  6
 11 15  1  0
 14 16  1  0
 15 17  1  0
 16 17  1  0
 15 18  1  1
 17 19  1  1
 18 20  1  0
 19 21  1  0
 20 21  1  0
M  CHG  1  12  -1
M  END
