ucsf170-ucsf380
     RDKit          3D

 20 21  0  0  0  0  0  0  0  0999 V2000
   -4.5510   15.3710    1.4180 C   0  0  0  0  0  0  0  0  0  0  0  0
   -2.8210   15.4460    0.9050 S   0  0  0  0  0  0  0  0  0  0  0  0
   -3.0990   14.6180   -0.7230 C   0  0  2  0  0  0  0  0  0  0  0  0
   -1.9380   14.1000   -1.5700 C   0  0  2  0  0  0  0  0  0  0  0  0
   -3.9270   15.4430   -1.7010 C   0  0  0  0  0  0  0  0  0  0  0  0
   -1.6070   12.6440   -1.6810 C   0  0  0  0  0  0  0  0  0  0  0  0
   -0.9390   15.0840   -2.1100 C   0  0  1  0  0  0  0  0  0  0  0  0
   -3.3180   15.4630   -3.1230 C   0  0  0  0  0  0  0  0  0  0  0  0
    0.4210   14.4300   -2.4200 C   0  0  0  0  0  0  0  0  0  0  0  0
   -1.7800   15.6330   -3.2840 C   0  0  2  0  0  0  0  0  0  0  0  0
   -1.8340   12.2210   -3.1430 C   0  0  0  0  0  0  0  0  0  0  0  0
   -1.4230   15.1630   -4.5880 O   0  0  0  0  0  0  0  0  0  0  0  0
    0.7050   13.3230   -1.6320 O   0  0  0  0  0  0  0  0  0  0  0  0
    0.6220   14.0040   -3.7190 O   0  0  0  0  0  0  0  0  0  0  0  0
    1.4700   15.2670   -2.1170 O   0  0  0  0  0  0  0  0  0  0  0  0
   -2.6730   10.9460   -3.1610 C   0  0  0  0  0  0  0  0  0  0  0  0
   -0.5550   12.1020   -3.9910 C   0  0  0  0  0  0  0  0  0  0  0  0
   -3.0810   10.5860   -4.5740 C   0  0  0  0  0  0  0  0  0  0  0  0
   -0.8560   11.5890   -5.3900 C   0  0  0  0  0  0  0  0  0  0  0  0
   -2.3600   11.4440   -5.6170 C   0  0  0  0  0  0  0  0  0  0  0  0
  1  2  1  0
  3  2  1  1
  3  4  1  0
  3  5  1  0
  4  6  1  1
  4  7  1  0
  5  8  1  0
  7  9  1  6
  7 10  1  0
  8 10  1  0
  6 11  1  0
 10 12  1  6
  9 13  1  0
  9 14  1  0
  9 15  1  0
 11 16  1  0
 11 17  1  0
 16 18  1  0
 17 19  1  0
 18 20  1  0
 19 20  1  0
M  CHG  2  14  -1  15  -1
M  END
