ucsf110-ucsf516
     RDKit          3D

 23 27  0  0  0  0  0  0  0  0999 V2000
   -1.2700   14.0930   -4.0930 C   0  0  0  0  0  0  0  0  0  0  0  0
   -2.0150   13.8050   -2.8760 N   0  0  0  0  0  0  0  0  0  0  0  0
   -3.3170   14.3090   -3.0150 C   0  0  0  0  0  0  0  0  0  0  0  0
   -1.4510   14.2420   -1.6890 C   0  0  2  0  0  0  0  0  0  0  0  0
   -3.2280   15.6090   -2.3980 C   0  0  0  0  0  0  0  0  0  0  0  0
   -2.2440   15.3920   -1.2660 C   0  0  1  0  0  0  0  0  0  0  0  0
   -0.3270   15.1470   -1.8630 C   0  0  1  0  0  0  0  0  0  0  0  0
   -3.1110   14.8870    0.1580 S   0  0  0  0  0  0  0  0  0  0  0  0
   -0.3750   15.6720   -0.3440 C   0  0  0  0  0  0  0  0  0  0  0  0
    0.7830   14.4720   -2.5130 C   0  0  1  0  0  0  0  0  0  0  0  0
   -0.7730   16.1800   -2.8680 C   0  0  0  0  0  0  0  0  0  0  0  0
   -3.5290   13.2380    1.0630 N   0  0  0  0  0  0  0  0  0  0  0  0
   -1.3920   14.9680    0.4920 N   0  0  0  0  0  0  0  0  0  0  0  0
    0.9020   13.0300   -2.3470 C   0  0  0  0  0  0  0  0  0  0  0  0
    0.8250   14.9080   -4.0020 C   0  0  0  0  0  0  0  0  0  0  0  0
   -0.5130   15.5680   -4.2120 C   0  0  0  0  0  0  0  0  0  0  0  0
   -3.5330   16.3110    1.0290 N   0  0  0  0  0  0  0  0  0  0  0  0
   -4.7970   15.5690   -0.0360 C   0  0  0  0  0  0  0  0  0  0  0  0
    1.4230   12.3290   -3.6090 C   0  0  0  0  0  0  0  0  0  0  0  0
   -0.2760   12.1450   -2.3460 C   0  0  0  0  0  0  0  0  0  0  0  0
   -5.2260   15.0750    1.2780 C   0  0  0  0  0  0  0  0  0  0  0  0
   -4.2240   15.7600    2.1030 C   0  0  0  0  0  0  0  0  0  0  0  0
    0.4670   11.1650   -3.2340 C   0  0  0  0  0  0  0  0  0  0  0  0
  1  2  1  0
  2  3  1  0
  4  2  1  6
  3  5  1  0
  4  6  1  0
  6  5  1  6
  4  7  1  0
  6  8  1  0
  7  9  1  1
  7 10  1  0
  7 11  1  0
  8 12  1  0
  8 13  1  0
  9 13  1  0
 10 14  1  6
 10 15  1  0
 11 16  1  0
 15 16  1  0
  8 17  1  0
  8 18  1  0
 14 19  1  0
 14 20  1  0
 18 21  1  0
 17 22  1  0
 21 22  1  0
 19 23  1  0
 20 23  1  0
M  END
