ucsf258-ucsf378
     RDKit          3D

 20 22  0  0  0  0  0  0  0  0999 V2000
    0.1390   12.4720   -1.5820 O   0  0  0  0  0  0  0  0  0  0  0  0
   -0.1180   13.7750   -2.0580 C   0  0  2  0  0  0  0  0  0  0  0  0
    0.9870   14.6200   -1.7980 O   0  0  0  0  0  0  0  0  0  0  0  0
    0.3830   11.6050   -2.6750 C   0  0  1  0  0  0  0  0  0  0  0  0
   -0.0650   10.2960   -2.3500 O   0  0  0  0  0  0  0  0  0  0  0  0
   -0.3210   12.0200   -3.9870 C   0  0  0  0  0  0  0  0  0  0  0  0
   -1.4280   14.4690   -1.6180 C   0  0  1  0  0  0  0  0  0  0  0  0
   -2.5580   14.2320   -2.6150 C   0  0  2  0  0  0  0  0  0  0  0  0
   -1.8800   14.1300   -0.2640 N   0  0  0  0  0  0  0  0  0  0  0  0
    0.1460   13.3780   -4.6210 C   0  0  2  0  0  0  0  0  0  0  0  0
   -2.1790   14.1120   -3.9890 O   0  0  0  0  0  0  0  0  0  0  0  0
   -3.7520   15.1530   -2.3440 C   0  0  0  0  0  0  0  0  0  0  0  0
   -3.0760   14.8580    0.1820 C   0  0  0  0  0  0  0  0  0  0  0  0
    1.5150   13.7880   -3.9880 C   0  0  1  0  0  0  0  0  0  0  0  0
   -0.9470   14.5180   -4.5840 C   0  0  1  0  0  0  0  0  0  0  0  0
    2.8650   12.9100   -4.7560 Cl  0  0  0  0  0  0  0  0  0  0  0  0
   -4.1460   15.2370   -0.8610 C   0  0  0  0  0  0  0  0  0  0  0  0
    1.9230   15.2500   -4.0170 C   0  0  0  0  0  0  0  0  0  0  0  0
   -0.4030   15.9030   -4.2410 C   0  0  0  0  0  0  0  0  0  0  0  0
    0.9830   16.1440   -4.7730 C   0  0  0  0  0  0  0  0  0  0  0  0
  1  2  1  0
  2  3  1  1
  1  4  1  0
  4  5  1  1
  4  6  1  0
  2  7  1  0
  7  8  1  0
  7  9  1  1
 10  6  1  1
  8 11  1  0
  8 12  1  6
  9 13  1  0
 10 14  1  0
 10 15  1  0
 11 15  1  0
 14 16  1  6
 12 17  1  0
 13 17  1  0
 14 18  1  0
 15 19  1  1
 18 20  1  0
 19 20  1  0
M  END
