ucsf124-ucsf520
     RDKit          3D

 32 36  0  0  0  0  0  0  0  0999 V2000
    0.6890   10.7400   -2.4170 O   0  0  0  0  0  0  0  0  0  0  0  0
    0.2480   11.9320   -2.8560 C   0  0  1  0  0  0  0  0  0  0  0  0
    0.8010   12.9520   -2.0010 O   0  0  0  0  0  0  0  0  0  0  0  0
    0.7380   12.2760   -4.3320 C   0  0  0  0  0  0  0  0  0  0  0  0
    0.9220   14.2440   -2.6150 C   0  0  0  0  0  0  0  0  0  0  0  0
   -0.0810   11.7060   -5.4330 N   0  0  0  0  0  0  0  0  0  0  0  0
   -0.3110   15.2000   -2.4520 C   0  0  2  0  0  0  0  0  0  0  0  0
   -0.8770   10.5870   -4.9590 C   0  0  1  0  0  0  0  0  0  0  0  0
    0.6870   11.2940   -6.6120 C   0  0  2  0  0  0  0  0  0  0  0  0
   -2.1620   10.9910   -4.5620 O   0  0  0  0  0  0  0  0  0  0  0  0
    0.5340   12.2000   -7.6460 O   0  0  0  0  0  0  0  0  0  0  0  0
   -0.9430    9.5430   -6.0890 C   0  0  2  0  0  0  0  0  0  0  0  0
    0.1790    9.9120   -7.0740 C   0  0  1  0  0  0  0  0  0  0  0  0
   -1.5890   14.5420   -2.0040 N   0  0  0  0  0  0  0  0  0  0  0  0
   -0.3030   16.2540   -3.5850 C   0  0  2  0  0  0  0  0  0  0  0  0
   -2.3010    9.3570   -6.7720 C   0  0  0  0  0  0  0  0  0  0  0  0
   -0.2600    9.8030   -8.5400 C   0  0  0  0  0  0  0  0  0  0  0  0
   -2.8260   15.3140   -2.1660 C   0  0  0  0  0  0  0  0  0  0  0  0
   -1.3790   14.1540   -0.6570 C   0  0  2  0  0  0  0  0  0  0  0  0
   -1.5290   16.6880   -4.1810 O   0  0  0  0  0  0  0  0  0  0  0  0
    0.5800   15.9360   -4.7740 C   0  0  0  0  0  0  0  0  0  0  0  0
   -2.2560    8.3560   -7.9240 C   0  0  0  0  0  0  0  0  0  0  0  0
   -1.0320    8.5190   -8.8200 C   0  0  0  0  0  0  0  0  0  0  0  0
   -3.9690   14.9300   -1.2690 N   0  0  0  0  0  0  0  0  0  0  0  0
   -2.1210   15.0550    0.2860 C   0  0  1  0  0  0  0  0  0  0  0  0
   -0.0130   14.3250   -0.2030 N   0  0  0  0  0  0  0  0  0  0  0  0
    0.4160   17.2690   -5.4530 C   0  0  0  0  0  0  0  0  0  0  0  0
   -1.0760   17.5410   -5.2520 C   0  0  0  0  0  0  0  0  0  0  0  0
   -3.5890   14.6750    0.1160 C   0  0  1  0  0  0  0  0  0  0  0  0
   -1.5100   14.7460    1.5820 N   0  0  0  0  0  0  0  0  0  0  0  0
   -0.1360   14.4000    1.2370 C   0  0  0  0  0  0  0  0  0  0  0  0
   -4.4830   15.4420    0.9820 N   0  0  0  0  0  0  0  0  0  0  0  0
  2  1  1  1
  2  3  1  0
  2  4  1  0
  3  5  1  0
  4  6  1  0
  7  5  1  6
  6  8  1  0
  6  9  1  0
  8 10  1  6
  9 11  1  6
  8 12  1  0
  9 13  1  0
 12 13  1  0
  7 14  1  0
  7 15  1  0
 12 16  1  6
 13 17  1  6
 14 18  1  0
 14 19  1  0
 15 20  1  0
 15 21  1  6
 16 22  1  0
 17 23  1  0
 22 23  1  0
 18 24  1  0
 19 25  1  0
 19 26  1  1
 21 27  1  0
 20 28  1  0
 27 28  1  0
 24 29  1  0
 25 29  1  0
 25 30  1  1
 26 31  1  0
 30 31  1  0
 29 32  1  1
M  CHG  1   1  -1
M  END
