ucsf371-ucsf039
     RDKit          3D

 19 21  0  0  0  0  0  0  0  0999 V2000
   -4.5420   15.3850    0.6360 C   0  0  0  0  0  0  0  0  0  0  0  0
   -3.9220   14.6230   -0.5210 C   0  0  1  0  0  0  0  0  0  0  0  0
   -4.6190   14.9230   -1.7860 N   0  0  0  0  0  0  0  0  0  0  0  0
   -2.2030   14.9480   -0.7480 S   0  0  1  0  0  0  0  0  0  0  0  0
   -3.6000   14.9630   -2.8620 C   0  0  0  0  0  0  0  0  0  0  0  0
   -2.2770   15.6090   -2.3940 C   0  0  2  0  0  0  0  0  0  0  0  0
   -1.3830   15.7930    0.5160 N   0  0  0  0  0  0  0  0  0  0  0  0
   -1.1550   13.5560   -0.6440 C   0  0  0  0  0  0  0  0  0  0  0  0
   -1.0210   15.3410   -3.2880 C   0  0  2  0  0  0  0  0  0  0  0  0
    0.1340   14.1750   -0.2900 N   0  0  0  0  0  0  0  0  0  0  0  0
   -0.1340   15.0640    0.8250 C   0  0  0  0  0  0  0  0  0  0  0  0
   -1.2070   14.3120   -4.2340 O   0  0  0  0  0  0  0  0  0  0  0  0
   -0.0210   14.8960   -2.5560 O   0  0  0  0  0  0  0  0  0  0  0  0
   -0.4890   16.5620   -4.0890 C   0  0  1  0  0  0  0  0  0  0  0  0
    0.9540   16.5250   -4.5680 C   0  0  0  0  0  0  0  0  0  0  0  0
   -1.3270   16.8570   -5.2740 N   0  0  0  0  0  0  0  0  0  0  0  0
   -0.6700   17.9070   -6.0390 C   0  0  2  0  0  0  0  0  0  0  0  0
    1.0080   18.1470   -5.3880 S   0  0  0  0  0  0  0  0  0  0  0  0
   -1.5000   19.1700   -6.0160 C   0  0  0  0  0  0  0  0  0  0  0  0
  2  1  1  1
  2  3  1  0
  2  4  1  0
  3  5  1  0
  4  6  1  0
  6  5  1  6
  4  7  1  0
  4  8  1  6
  6  9  1  0
  8 10  1  0
  7 11  1  0
 10 11  1  0
  9 12  1  6
  9 13  1  0
  9 14  1  0
 14 15  1  6
 14 16  1  0
 16 17  1  0
 15 18  1  0
 17 18  1  0
 17 19  1  1
M  CHG  1  13  -1
M  END
