ucsf013-ucsf385
     RDKit          3D

 20 22  0  0  0  0  0  0  0  0999 V2000
   -4.5250   15.5540    2.1030 N   0  0  0  0  0  0  0  0  0  0  0  0
   -5.1360   14.8430    1.0160 C   0  0  1  0  0  0  0  0  0  0  0  0
   -6.5010   14.7010    1.5110 N   0  0  0  0  0  0  0  0  0  0  0  0
   -4.9470   15.5710   -0.3220 C   0  0  2  0  0  0  0  0  0  0  0  0
   -6.1590   15.3060   -1.2320 C   0  0  2  0  0  0  0  0  0  0  0  0
   -7.5570   14.5150    0.5350 C   0  0  0  0  0  0  0  0  0  0  0  0
   -3.5820   15.3490   -1.0830 C   0  0  2  0  0  0  0  0  0  0  0  0
   -6.9970   14.1920   -0.7550 N   0  0  0  0  0  0  0  0  0  0  0  0
   -5.7130   15.0960   -2.6640 C   0  0  0  0  0  0  0  0  0  0  0  0
   -3.6140   14.0720   -1.9640 C   0  0  0  0  0  0  0  0  0  0  0  0
   -2.2820   15.3230   -0.2340 C   0  0  2  0  0  0  0  0  0  0  0  0
   -4.8580   13.8840   -2.8070 C   0  0  0  0  0  0  0  0  0  0  0  0
   -0.9180   15.0080   -0.9710 C   0  0  2  0  0  0  0  0  0  0  0  0
   -2.4980   14.2920    0.8830 C   0  0  0  0  0  0  0  0  0  0  0  0
   -0.9060   14.6940   -2.4920 C   0  0  2  0  0  0  0  0  0  0  0  0
   -0.0860   13.9580   -0.2000 C   0  0  0  0  0  0  0  0  0  0  0  0
   -1.4560   14.2980    1.8590 N   0  0  0  0  0  0  0  0  0  0  0  0
    0.4260   14.8840   -2.9620 O   0  0  0  0  0  0  0  0  0  0  0  0
   -1.6600   15.5220   -3.1790 O   0  0  0  0  0  0  0  0  0  0  0  0
   -0.1380   14.1800    1.2950 C   0  0  0  0  0  0  0  0  0  0  0  0
  2  1  1  1
  2  3  1  0
  4  2  1  1
  4  5  1  0
  3  6  1  0
  4  7  1  0
  5  8  1  0
  6  8  1  0
  5  9  1  6
  7 10  1  1
  7 11  1  0
  9 12  1  0
 10 12  1  0
 11 13  1  0
 11 14  1  1
 13 15  1  0
 13 16  1  1
 14 17  1  0
 15 18  1  6
 15 19  1  0
 16 20  1  0
 17 20  1  0
M  CHG  1  19  -1
M  END
