ucsf135-ucsf224
     RDKit          3D

 23 25  0  0  0  0  0  0  0  0999 V2000
    1.5490   11.3310   -7.6640 O   0  0  0  0  0  0  0  0  0  0  0  0
    0.3820   11.6340   -7.0030 C   0  0  2  0  0  0  0  0  0  0  0  0
    0.7380   11.9660   -5.6450 N   0  0  0  0  0  0  0  0  0  0  0  0
   -0.5620   10.4120   -7.0080 C   0  0  2  0  0  0  0  0  0  0  0  0
   -0.5030   11.4260   -4.7320 S   0  0  2  0  0  0  0  0  0  0  0  0
   -0.7990    9.9010   -5.5700 C   0  0  1  0  0  0  0  0  0  0  0  0
   -0.1830    9.2430   -7.8870 C   0  0  0  0  0  0  0  0  0  0  0  0
   -1.8620   12.2270   -4.9820 O   0  0  0  0  0  0  0  0  0  0  0  0
   -0.0640   11.2340   -3.2090 O   0  0  0  0  0  0  0  0  0  0  0  0
   -2.1510    9.2350   -5.5360 C   0  0  0  0  0  0  0  0  0  0  0  0
   -1.2770    8.1750   -7.7470 C   0  0  0  0  0  0  0  0  0  0  0  0
    0.8990   12.1640   -2.6870 C   0  0  2  0  0  0  0  0  0  0  0  0
   -2.4880    8.6310   -6.9160 C   0  0  0  0  0  0  0  0  0  0  0  0
    0.4590   12.8790   -1.5440 O   0  0  0  0  0  0  0  0  0  0  0  0
    1.5740   13.0820   -3.7200 C   0  0  0  0  0  0  0  0  0  0  0  0
    0.8280   14.2750   -4.3780 C   0  0  1  0  0  0  0  0  0  0  0  0
   -0.6320   14.4810   -3.9510 C   0  0  0  0  0  0  0  0  0  0  0  0
    1.5710   15.5760   -4.1560 C   0  0  0  0  0  0  0  0  0  0  0  0
   -1.3360   15.4190   -4.9290 C   0  0  1  0  0  0  0  0  0  0  0  0
    0.6800   16.8180   -4.1890 C   0  0  0  0  0  0  0  0  0  0  0  0
   -3.0360   15.7410   -4.4710 Cl  0  0  0  0  0  0  0  0  0  0  0  0
   -0.4940   16.6960   -5.1550 C   0  0  2  0  0  0  0  0  0  0  0  0
   -1.4530   18.2090   -5.2020 Cl  0  0  0  0  0  0  0  0  0  0  0  0
  2  1  1  6
  2  3  1  0
  2  4  1  0
  3  5  1  0
  4  6  1  0
  5  6  1  0
  4  7  1  6
  5  8  1  1
  5  9  1  0
  6 10  1  6
  7 11  1  0
  9 12  1  0
 10 13  1  0
 11 13  1  0
 12 14  1  1
 12 15  1  0
 16 15  1  1
 16 17  1  0
 16 18  1  0
 17 19  1  0
 18 20  1  0
 19 21  1  1
 19 22  1  0
 20 22  1  0
 22 23  1  1
M  END
