ucsf173-ucsf278
     RDKit          3D

 18 20  0  0  0  0  0  0  0  0999 V2000
    0.2950   12.3230   -1.2030 O   0  0  0  0  0  0  0  0  0  0  0  0
   -0.2260   11.9670   -2.3330 C   0  0  2  0  0  0  0  0  0  0  0  0
    0.2860   10.6390   -2.4450 O   0  0  0  0  0  0  0  0  0  0  0  0
    0.0550   13.0620   -3.9220 S   0  0  0  0  0  0  0  0  0  0  0  0
   -1.1400   14.3490   -3.5280 C   0  0  1  0  0  0  0  0  0  0  0  0
    0.9390   14.7390   -3.8600 C   0  0  0  0  0  0  0  0  0  0  0  0
    0.3180   12.4360   -5.7270 C   0  0  0  0  0  0  0  0  0  0  0  0
   -1.0510   12.1580   -4.9780 N   0  0  0  0  0  0  0  0  0  0  0  0
   -0.7050   15.0290   -2.0120 Cl  0  0  0  0  0  0  0  0  0  0  0  0
   -1.1580   15.2020   -4.8000 C   0  0  2  0  0  0  0  0  0  0  0  0
    0.2160   15.5580   -4.8920 C   0  0  1  0  0  0  0  0  0  0  0  0
   -0.2370   11.1400   -5.2630 C   0  0  1  0  0  0  0  0  0  0  0  0
   -0.8820   10.2450   -6.2360 C   0  0  0  0  0  0  0  0  0  0  0  0
   -2.2170   16.2580   -4.7890 C   0  0  0  0  0  0  0  0  0  0  0  0
    0.4150   17.0160   -4.4960 C   0  0  0  0  0  0  0  0  0  0  0  0
   -2.2140   10.0240   -5.9570 O   0  0  0  0  0  0  0  0  0  0  0  0
   -1.8230   17.5400   -5.4890 C   0  0  0  0  0  0  0  0  0  0  0  0
   -0.3820   17.8970   -5.3810 C   0  0  0  0  0  0  0  0  0  0  0  0
  2  1  1  1
  2  3  1  0
  2  4  1  0
  4  5  1  0
  4  6  1  0
  4  7  1  0
  4  8  1  0
  5  9  1  1
  5 10  1  0
 11  6  1  1
 10 11  1  0
  7 12  1  0
  8 12  1  0
 12 13  1  6
 10 14  1  1
 11 15  1  0
 13 16  1  0
 14 17  1  0
 15 18  1  0
 17 18  1  0
M  CHG  1   1  -1
M  END
