ucsf016-ucsf320
     RDKit          3D

 27 32  0  0  0  0  0  0  0  0999 V2000
   -1.2610   12.2820   -1.5580 O   0  0  0  0  0  0  0  0  0  0  0  0
   -1.9950   13.1910   -2.1990 C   0  0  0  0  0  0  0  0  0  0  0  0
   -3.4480   13.2870   -1.6170 C   0  0  1  0  0  0  0  0  0  0  0  0
   -4.0970   14.6710   -1.4910 C   0  0  1  0  0  0  0  0  0  0  0  0
   -4.4770   12.3550   -2.2520 C   0  0  0  0  0  0  0  0  0  0  0  0
   -5.3010   14.6670   -0.5440 C   0  0  1  0  0  0  0  0  0  0  0  0
   -5.9440   12.6720   -1.9290 C   0  0  0  0  0  0  0  0  0  0  0  0
   -3.2860   15.8700   -0.9180 C   0  0  2  0  0  0  0  0  0  0  0  0
   -6.1950   13.4670   -0.6560 C   0  0  2  0  0  0  0  0  0  0  0  0
   -1.9220   15.5900   -0.3540 C   0  0  1  0  0  0  0  0  0  0  0  0
   -4.5810   14.8990    0.7850 C   0  0  2  0  0  0  0  0  0  0  0  0
   -4.1350   16.2360    0.3140 C   0  0  0  0  0  0  0  0  0  0  0  0
   -7.5540   13.8970   -0.5610 O   0  0  0  0  0  0  0  0  0  0  0  0
   -2.1410   14.9230    0.9880 C   0  0  1  0  0  0  0  0  0  0  0  0
   -0.6680   15.3380   -1.2310 C   0  0  2  0  0  0  0  0  0  0  0  0
   -3.3600   14.1070    1.1070 N   0  0  0  0  0  0  0  0  0  0  0  0
   -0.7390   14.8810   -2.6530 N   0  0  0  0  0  0  0  0  0  0  0  0
    0.3410   14.6280   -0.4640 N   0  0  0  0  0  0  0  0  0  0  0  0
   -0.9710   14.3030    1.5260 N   0  0  0  0  0  0  0  0  0  0  0  0
    0.5630   14.5850   -3.2760 C   0  0  0  0  0  0  0  0  0  0  0  0
   -1.5790   15.6930   -3.5600 C   0  0  0  0  0  0  0  0  0  0  0  0
   -0.1850   13.6910    0.4990 C   0  0  0  0  0  0  0  0  0  0  0  0
   -2.0380   14.8020   -4.7120 C   0  0  0  0  0  0  0  0  0  0  0  0
    0.4250   14.3240   -4.7860 C   0  0  0  0  0  0  0  0  0  0  0  0
   -3.4690   14.2990   -4.6590 C   0  0  0  0  0  0  0  0  0  0  0  0
   -3.0780   15.2860   -5.7150 C   0  0  0  0  0  0  0  0  0  0  0  0
   -0.9720   13.8260   -5.1640 C   0  0  0  0  0  0  0  0  0  0  0  0
  1  2  1  0
  3  2  1  6
  4  3  1  1
  3  5  1  0
  4  6  1  0
  5  7  1  0
  4  8  1  0
  6  9  1  1
  7  9  1  0
  8 10  1  0
  6 11  1  0
  8 12  1  1
 11 12  1  0
  9 13  1  6
 10 14  1  0
 10 15  1  6
 11 16  1  6
 14 16  1  6
 15 17  1  6
 15 18  1  0
 14 19  1  0
 17 20  1  0
 17 21  1  0
 18 22  1  0
 19 22  1  0
 23 21  1  0
 20 24  1  0
 23 25  1  0
 23 26  1  0
 25 26  1  0
 23 27  1  0
 24 27  1  0
M  CHG  1   1  -1
M  END
