ucsf109-ucsf005
     RDKit          3D

 19 22  0  0  0  0  0  0  0  0999 V2000
   -4.1090   14.9630    1.1870 N   0  0  0  0  0  0  0  0  0  0  0  0
   -5.2290   15.1910    0.3040 C   0  0  2  0  0  0  0  0  0  0  0  0
   -6.4360   14.9540    1.0840 N   0  0  0  0  0  0  0  0  0  0  0  0
   -2.8780   14.4150    0.6850 C   0  0  1  0  0  0  0  0  0  0  0  0
   -5.4440   14.3010   -0.9280 C   0  0  1  0  0  0  0  0  0  0  0  0
   -2.7070   13.9180   -0.7950 C   0  0  1  0  0  0  0  0  0  0  0  0
   -1.9470   15.4320    1.0860 N   0  0  0  0  0  0  0  0  0  0  0  0
   -7.4830   14.7840    0.1070 C   0  0  1  0  0  0  0  0  0  0  0  0
   -6.9150   14.1470   -1.0540 N   0  0  0  0  0  0  0  0  0  0  0  0
   -4.7550   14.9320   -2.1370 C   0  0  0  0  0  0  0  0  0  0  0  0
   -3.2520   14.5620   -2.1230 C   0  0  1  0  0  0  0  0  0  0  0  0
   -6.4820   13.7410    1.8540 N   0  0  0  0  0  0  0  0  0  0  0  0
   -0.5880   15.1790    0.7660 C   0  0  1  0  0  0  0  0  0  0  0  0
   -1.2150   13.6720   -0.9640 C   0  0  0  0  0  0  0  0  0  0  0  0
   -2.3570   15.6000   -2.8140 C   0  0  0  0  0  0  0  0  0  0  0  0
   -0.0880   14.1490    1.6050 N   0  0  0  0  0  0  0  0  0  0  0  0
   -8.4350   13.8840    0.7140 N   0  0  0  0  0  0  0  0  0  0  0  0
   -7.9110   13.6800    2.0630 C   0  0  0  0  0  0  0  0  0  0  0  0
   -0.4220   14.8210   -0.5910 N   0  0  0  0  0  0  0  0  0  0  0  0
  2  1  1  1
  2  3  1  0
  4  1  1  6
  2  5  1  0
  4  6  1  0
  4  7  1  0
  3  8  1  0
  5  9  1  0
  8  9  1  6
  5 10  1  6
  6 11  1  0
 10 11  1  0
  3 12  1  0
  7 13  1  0
  6 14  1  6
 11 15  1  1
 13 16  1  1
  8 17  1  0
 12 18  1  0
 17 18  1  0
 13 19  1  0
 14 19  1  0
M  END
