ucsf264-ucsf213
     RDKit          3D

 27 30  0  0  0  0  0  0  0  0999 V2000
    1.6270   12.3440   -2.7460 O   0  0  0  0  0  0  0  0  0  0  0  0
    0.6590   12.7460   -3.7230 C   0  0  2  0  0  0  0  0  0  0  0  0
   -0.4140   11.8180   -3.5020 O   0  0  0  0  0  0  0  0  0  0  0  0
    0.9520   12.6580   -1.4670 O   0  0  0  0  0  0  0  0  0  0  0  0
    1.0590   12.5580   -5.2170 C   0  0  0  0  0  0  0  0  0  0  0  0
    0.2210   14.1910   -3.3720 C   0  0  1  0  0  0  0  0  0  0  0  0
   -0.0020   12.0080   -6.0840 N   0  0  0  0  0  0  0  0  0  0  0  0
    1.0330   15.3000   -4.0580 C   0  0  0  0  0  0  0  0  0  0  0  0
   -1.5350   14.6340   -3.5590 S   0  0  0  0  0  0  0  0  0  0  0  0
    0.2830   11.9790   -7.4940 N   0  0  0  0  0  0  0  0  0  0  0  0
   -0.6060   10.7050   -5.7640 C   0  0  2  0  0  0  0  0  0  0  0  0
    0.1940   16.0960   -5.0610 C   0  0  1  0  0  0  0  0  0  0  0  0
   -1.2680   15.6030   -5.0600 C   0  0  2  0  0  0  0  0  0  0  0  0
    0.7740   10.6280   -7.7690 C   0  0  1  0  0  0  0  0  0  0  0  0
   -0.2560    9.8070   -6.9820 C   0  0  2  0  0  0  0  0  0  0  0  0
   -2.1060   10.7210   -5.4130 C   0  0  0  0  0  0  0  0  0  0  0  0
    0.3700   17.6190   -4.9830 C   0  0  0  0  0  0  0  0  0  0  0  0
   -2.3440   16.6770   -5.2460 C   0  0  0  0  0  0  0  0  0  0  0  0
    1.0060   10.2190   -9.2320 C   0  0  0  0  0  0  0  0  0  0  0  0
   -1.5000    9.3830   -7.7570 C   0  0  0  0  0  0  0  0  0  0  0  0
   -2.7540    9.3440   -5.5320 C   0  0  0  0  0  0  0  0  0  0  0  0
   -0.4820   18.3460   -5.9920 C   0  0  0  0  0  0  0  0  0  0  0  0
   -1.9610   18.0480   -5.8350 C   0  0  0  0  0  0  0  0  0  0  0  0
    1.6670    9.0460   -9.3390 F   0  0  0  0  0  0  0  0  0  0  0  0
   -0.1580   10.0810   -9.8970 F   0  0  0  0  0  0  0  0  0  0  0  0
    1.6890   11.1450   -9.9280 F   0  0  0  0  0  0  0  0  0  0  0  0
   -2.4550    8.6240   -6.8440 C   0  0  0  0  0  0  0  0  0  0  0  0
  2  1  1  0
  2  3  1  1
  1  4  1  0
  2  5  1  0
  2  6  1  0
  5  7  1  0
  6  8  1  6
  6  9  1  0
  7 10  1  0
  7 11  1  0
 12  8  1  1
  9 13  1  0
 12 13  1  0
 10 14  1  0
 11 15  1  0
 14 15  1  0
 11 16  1  6
 12 17  1  0
 13 18  1  1
 14 19  1  6
 15 20  1  6
 16 21  1  0
 17 22  1  0
 18 23  1  0
 22 23  1  0
 19 24  1  0
 19 25  1  0
 19 26  1  0
 20 27  1  0
 21 27  1  0
M  END
