ucsf422-ucsf345
     RDKit          3D

 25 27  0  0  0  0  0  0  0  0999 V2000
    0.4050   11.0380   -2.5330 O   0  0  0  0  0  0  0  0  0  0  0  0
    1.1050   12.1000   -2.8880 C   0  0  2  0  0  0  0  0  0  0  0  0
    0.7280   13.1210   -1.9780 O   0  0  0  0  0  0  0  0  0  0  0  0
    0.7010   12.5630   -4.3080 C   0  0  0  0  0  0  0  0  0  0  0  0
    1.1640   13.9670   -4.7510 C   0  0  2  0  0  0  0  0  0  0  0  0
    1.8870   14.8210   -3.7120 C   0  0  0  0  0  0  0  0  0  0  0  0
    0.0640   14.9210   -5.1840 C   0  0  2  0  0  0  0  0  0  0  0  0
    1.6730   16.2190   -4.1640 N   0  0  0  0  0  0  0  0  0  0  0  0
    0.2440   16.2010   -4.4190 C   0  0  1  0  0  0  0  0  0  0  0  0
   -1.3820   14.5060   -5.1570 C   0  0  0  0  0  0  0  0  0  0  0  0
   -0.3710   17.3470   -5.2160 C   0  0  0  0  0  0  0  0  0  0  0  0
   -2.3620   15.6870   -5.0270 C   0  0  2  0  0  0  0  0  0  0  0  0
   -3.5740   15.2800   -5.6650 O   0  0  0  0  0  0  0  0  0  0  0  0
   -1.8590   17.0660   -5.5260 C   0  0  0  0  0  0  0  0  0  0  0  0
   -4.1470   14.2280   -4.8700 C   0  0  0  0  0  0  0  0  0  0  0  0
   -4.6550   15.0050   -3.6940 C   0  0  0  0  0  0  0  0  0  0  0  0
   -4.4010   14.7290   -2.2310 C   0  0  1  0  0  0  0  0  0  0  0  0
   -5.3730   13.8610   -1.5830 N   0  0  0  0  0  0  0  0  0  0  0  0
   -2.9540   14.5220   -1.7680 C   0  0  0  0  0  0  0  0  0  0  0  0
   -5.2750   14.0590   -0.1100 C   0  0  2  0  0  0  0  0  0  0  0  0
   -2.8040   14.6390   -0.3180 N   0  0  0  0  0  0  0  0  0  0  0  0
   -6.6390   14.6380    0.3510 C   0  0  2  0  0  0  0  0  0  0  0  0
   -4.1030   14.9890    0.3050 C   0  0  0  0  0  0  0  0  0  0  0  0
   -6.8530   14.6760    1.7880 N   0  0  0  0  0  0  0  0  0  0  0  0
   -7.7120   13.9110   -0.2100 O   0  0  0  0  0  0  0  0  0  0  0  0
  2  1  1  1
  2  3  1  0
  2  4  1  0
  5  4  1  1
  5  6  1  0
  5  7  1  0
  6  8  1  0
  7  9  1  0
  8  9  1  0
  7 10  1  1
  9 11  1  6
 10 12  1  0
 12 13  1  6
 11 14  1  0
 12 14  1  0
 13 15  1  0
 15 16  1  0
 17 16  1  6
 17 18  1  0
 17 19  1  0
 18 20  1  0
 19 21  1  0
 20 22  1  0
 20 23  1  6
 21 23  1  0
 22 24  1  1
 22 25  1  0
M  CHG  1   1  -1
M  END
