ucsf004-ucsf357
     RDKit          3D

 21 23  0  0  0  0  0  0  0  0999 V2000
   -1.8000   12.1270   -4.8780 F   0  0  0  0  0  0  0  0  0  0  0  0
   -1.4410   13.4430   -4.8750 C   0  0  2  0  0  0  0  0  0  0  0  0
    0.0220   13.5660   -5.2430 C   0  0  0  0  0  0  0  0  0  0  0  0
   -1.6860   14.0240   -3.4860 C   0  0  0  0  0  0  0  0  0  0  0  0
   -0.4910   13.9790   -2.6030 N   0  0  0  0  0  0  0  0  0  0  0  0
    0.5690   14.8780   -4.6950 C   0  0  0  0  0  0  0  0  0  0  0  0
    0.5290   14.9060   -3.1590 C   0  0  0  0  0  0  0  0  0  0  0  0
   -0.8560   14.3540   -1.1990 C   0  0  2  0  0  0  0  0  0  0  0  0
   -0.0600   13.6840   -0.1870 N   0  0  0  0  0  0  0  0  0  0  0  0
   -2.3120   14.1770   -0.8390 C   0  0  1  0  0  0  0  0  0  0  0  0
   -0.1920   14.3460    1.1160 C   0  0  0  0  0  0  0  0  0  0  0  0
   -2.5570   14.1920    0.6440 C   0  0  1  0  0  0  0  0  0  0  0  0
   -2.9990   15.3670   -1.3690 C   0  0  1  0  0  0  0  0  0  0  0  0
   -1.9490   16.3070   -1.4950 O   0  0  0  0  0  0  0  0  0  0  0  0
   -3.3740   15.1560   -2.6510 F   0  0  0  0  0  0  0  0  0  0  0  0
   -1.5160   14.8930    1.3570 N   0  0  0  0  0  0  0  0  0  0  0  0
   -3.8040   14.8760    0.8950 N   0  0  0  0  0  0  0  0  0  0  0  0
   -4.0810   15.7130   -0.3130 C   0  0  2  0  0  0  0  0  0  0  0  0
   -5.5470   15.5840   -0.8730 C   0  0  1  0  0  0  0  0  0  0  0  0
   -5.5710   14.8430   -1.9560 O   0  0  0  0  0  0  0  0  0  0  0  0
   -6.3380   14.8150    0.0190 O   0  0  0  0  0  0  0  0  0  0  0  0
  2  1  1  1
  2  3  1  0
  2  4  1  0
  4  5  1  0
  3  6  1  0
  5  7  1  0
  6  7  1  0
  8  5  1  6
  8  9  1  0
 10  8  1  1
  9 11  1  0
 10 12  1  0
 10 13  1  0
 13 14  1  6
 13 15  1  0
 11 16  1  0
 12 16  1  1
 12 17  1  0
 13 18  1  0
 18 17  1  1
 18 19  1  0
 19 20  1  6
 19 21  1  0
M  CHG  1  20  -1
M  END
