ucsf012-ucsf364
     RDKit          3D

 22 24  0  0  0  0  0  0  0  0999 V2000
   -3.1470   14.2820   -3.9890 C   0  0  0  0  0  0  0  0  0  0  0  0
   -2.8930   14.9600   -2.6490 C   0  0  1  0  0  0  0  0  0  0  0  0
   -3.7420   14.4810   -1.4530 C   0  0  2  0  0  0  0  0  0  0  0  0
   -1.4730   14.7700   -2.2120 N   0  0  0  0  0  0  0  0  0  0  0  0
   -5.1590   15.0210   -1.3910 C   0  0  0  0  0  0  0  0  0  0  0  0
   -0.8070   13.5410   -2.6660 C   0  0  2  0  0  0  0  0  0  0  0  0
   -2.8980   15.0250   -0.3380 C   0  0  2  0  0  0  0  0  0  0  0  0
   -1.4440   14.8360   -0.7720 C   0  0  1  0  0  0  0  0  0  0  0  0
    0.3910   13.1890   -1.6700 C   0  0  0  0  0  0  0  0  0  0  0  0
   -2.9660   14.6390    1.1050 C   0  0  2  0  0  0  0  0  0  0  0  0
   -0.9090   13.7180   -0.0760 N   0  0  0  0  0  0  0  0  0  0  0  0
   -0.1880   13.3900   -4.0600 C   0  0  1  0  0  0  0  0  0  0  0  0
   -3.9350   15.3910    1.8620 N   0  0  0  0  0  0  0  0  0  0  0  0
    0.3550   11.9030   -1.3340 O   0  0  0  0  0  0  0  0  0  0  0  0
   -1.6890   14.9470    1.7220 N   0  0  0  0  0  0  0  0  0  0  0  0
   -0.5820   14.1340    1.2540 C   0  0  0  0  0  0  0  0  0  0  0  0
    1.0190   12.4890   -3.8240 C   0  0  2  0  0  0  0  0  0  0  0  0
   -1.0060   12.6580   -5.0380 O   0  0  0  0  0  0  0  0  0  0  0  0
    2.1650   12.6960   -4.8090 C   0  0  0  0  0  0  0  0  0  0  0  0
   -0.4480   11.3630   -5.1430 C   0  0  2  0  0  0  0  0  0  0  0  0
    0.1930   11.2060   -3.8020 C   0  0  0  0  0  0  0  0  0  0  0  0
    0.4840   11.3380   -6.2270 O   0  0  0  0  0  0  0  0  0  0  0  0
  2  1  1  6
  2  3  1  0
  2  4  1  0
  3  5  1  6
  4  6  1  0
  3  7  1  0
  4  8  1  0
  7  8  1  0
  6  9  1  1
  7 10  1  1
  8 11  1  1
  6 12  1  0
 10 13  1  1
  9 14  1  0
 10 15  1  0
 11 16  1  0
 15 16  1  0
 12 17  1  0
 12 18  1  6
 17 19  1  6
 18 20  1  0
 17 21  1  0
 20 21  1  0
 20 22  1  6
M  CHG  1  14  -1
M  END
