ucsf039-ucsf170
     RDKit          3D

 21 23  0  0  0  0  0  0  0  0999 V2000
   -4.5350   15.6260    0.2810 N   0  0  0  0  0  0  0  0  0  0  0  0
   -5.2240   14.9460    1.3490 C   0  0  0  0  0  0  0  0  0  0  0  0
   -3.4300   14.8560   -0.2750 C   0  0  1  0  0  0  0  0  0  0  0  0
   -3.7030   14.8360   -1.6930 N   0  0  0  0  0  0  0  0  0  0  0  0
   -2.0140   15.3520    0.1270 C   0  0  2  0  0  0  0  0  0  0  0  0
   -2.5930   15.1550   -2.5830 C   0  0  2  0  0  0  0  0  0  0  0  0
   -0.8970   15.0360   -0.8700 C   0  0  2  0  0  0  0  0  0  0  0  0
   -1.5030   14.8330    1.4290 N   0  0  0  0  0  0  0  0  0  0  0  0
   -2.8930   14.7330   -3.9000 O   0  0  0  0  0  0  0  0  0  0  0  0
   -1.3190   14.6400   -2.1720 N   0  0  0  0  0  0  0  0  0  0  0  0
   -0.0590   14.0640   -0.2050 N   0  0  0  0  0  0  0  0  0  0  0  0
   -0.1240   14.4420    1.1720 C   0  0  0  0  0  0  0  0  0  0  0  0
   -0.2670   14.7720   -3.1420 C   0  0  1  0  0  0  0  0  0  0  0  0
    0.9610   14.5810   -2.4560 O   0  0  0  0  0  0  0  0  0  0  0  0
   -0.1760   13.8040   -4.0190 O   0  0  0  0  0  0  0  0  0  0  0  0
   -0.1470   16.1860   -3.8440 C   0  0  1  0  0  0  0  0  0  0  0  0
    1.1880   16.3970   -4.5020 C   0  0  0  0  0  0  0  0  0  0  0  0
   -1.1940   16.6150   -4.8320 N   0  0  0  0  0  0  0  0  0  0  0  0
   -0.6550   17.6680   -5.6930 C   0  0  2  0  0  0  0  0  0  0  0  0
    0.9850   18.1090   -5.0710 S   0  0  0  0  0  0  0  0  0  0  0  0
   -1.5550   18.8850   -5.8610 C   0  0  0  0  0  0  0  0  0  0  0  0
  1  2  1  0
  3  1  1  1
  3  4  1  0
  3  5  1  0
  4  6  1  0
  5  7  1  0
  5  8  1  1
  6  9  1  6
  6 10  1  0
  7 10  1  0
  7 11  1  1
  8 12  1  0
 11 12  1  0
 10 13  1  0
 13 14  1  1
 13 15  1  0
 13 16  1  0
 16 17  1  6
 16 18  1  0
 18 19  1  0
 17 20  1  0
 19 20  1  0
 19 21  1  1
M  CHG  1  15  -1
M  END
