ucsf411-ucsf371
     RDKit          3D

 24 26  0  0  0  0  0  0  0  0999 V2000
    0.7410   11.0490   -2.7860 O   0  0  0  0  0  0  0  0  0  0  0  0
    0.7880   12.3320   -3.0970 C   0  0  1  0  0  0  0  0  0  0  0  0
    1.5190   12.8060   -1.9850 O   0  0  0  0  0  0  0  0  0  0  0  0
    1.5940   12.6490   -4.4280 C   0  0  0  0  0  0  0  0  0  0  0  0
    1.1880   13.8720   -5.0960 O   0  0  0  0  0  0  0  0  0  0  0  0
    0.1230   14.4810   -4.3700 C   0  0  1  0  0  0  0  0  0  0  0  0
   -0.1710   15.9840   -4.6150 C   0  0  2  0  0  0  0  0  0  0  0  0
   -1.1490   13.6890   -4.4840 C   0  0  1  0  0  0  0  0  0  0  0  0
   -1.9660   14.1720   -3.4620 O   0  0  0  0  0  0  0  0  0  0  0  0
   -1.6020   16.4450   -5.0730 C   0  0  2  0  0  0  0  0  0  0  0  0
   -2.0300   13.9680   -5.6750 C   0  0  0  0  0  0  0  0  0  0  0  0
    0.9970   16.6540   -5.2730 C   0  0  0  0  0  0  0  0  0  0  0  0
   -1.3430   14.8030   -2.3390 C   0  0  1  0  0  0  0  0  0  0  0  0
   -2.5850   15.3960   -5.6320 C   0  0  0  0  0  0  0  0  0  0  0  0
   -1.5500   17.7010   -5.9450 C   0  0  0  0  0  0  0  0  0  0  0  0
    0.8690   18.1710   -5.3570 C   0  0  0  0  0  0  0  0  0  0  0  0
   -0.4070   15.6490   -2.6940 O   0  0  0  0  0  0  0  0  0  0  0  0
   -0.5760   18.6690   -5.3380 C   0  0  0  0  0  0  0  0  0  0  0  0
   -2.5380   15.6200   -1.8540 C   0  0  1  0  0  0  0  0  0  0  0  0
   -3.8480   15.1510   -2.5160 C   0  0  0  0  0  0  0  0  0  0  0  0
   -2.8130   15.4300   -0.0550 S   0  0  0  0  0  0  0  0  0  0  0  0
   -4.3970   14.6380   -0.3320 C   0  0  2  0  0  0  0  0  0  0  0  0
   -4.9650   15.1670   -1.5600 N   0  0  0  0  0  0  0  0  0  0  0  0
   -5.3150   14.8910    0.8460 C   0  0  0  0  0  0  0  0  0  0  0  0
  2  1  1  1
  2  3  1  0
  2  4  1  0
  4  5  1  0
  6  5  1  6
  6  7  1  0
  6  8  1  0
  8  9  1  1
  7 10  1  0
  8 11  1  0
  7 12  1  6
  9 13  1  0
 10 14  1  6
 11 14  1  0
 10 15  1  0
 12 16  1  0
 13 17  1  6
 15 18  1  0
 16 18  1  0
 13 19  1  0
 19 20  1  6
 19 21  1  0
 21 22  1  0
 20 23  1  0
 22 23  1  0
 22 24  1  1
M  CHG  2   1  -1  17  -1
M  END
