ucsf516-ucsf348
     RDKit          3D

 24 28  0  0  0  0  0  0  0  0999 V2000
   -7.0880   13.5430    2.0460 N   0  0  0  0  0  0  0  0  0  0  0  0
   -6.7400   14.5530    1.1160 C   0  0  1  0  0  0  0  0  0  0  0  0
   -5.5510   15.1090    1.6110 N   0  0  0  0  0  0  0  0  0  0  0  0
   -6.6330   14.0790   -0.2350 N   0  0  0  0  0  0  0  0  0  0  0  0
   -4.3370   14.5720    1.1220 C   0  0  2  0  0  0  0  0  0  0  0  0
   -5.5400   14.6260   -1.0350 C   0  0  1  0  0  0  0  0  0  0  0  0
   -5.8060   15.9570   -1.3830 O   0  0  0  0  0  0  0  0  0  0  0  0
   -3.4250   15.6210    1.4810 N   0  0  0  0  0  0  0  0  0  0  0  0
   -4.1780   14.3840   -0.3810 C   0  0  1  0  0  0  0  0  0  0  0  0
   -2.3230   15.0800    0.7900 C   0  0  1  0  0  0  0  0  0  0  0  0
   -2.8000   15.0910   -0.6350 C   0  0  1  0  0  0  0  0  0  0  0  0
   -1.1330   15.8110    0.8850 N   0  0  0  0  0  0  0  0  0  0  0  0
   -1.6580   14.3980   -1.3910 C   0  0  1  0  0  0  0  0  0  0  0  0
   -1.3070   14.9800   -2.6670 N   0  0  0  0  0  0  0  0  0  0  0  0
   -0.3830   14.1920   -0.6580 N   0  0  0  0  0  0  0  0  0  0  0  0
   -0.1140   14.8480    0.6130 C   0  0  0  0  0  0  0  0  0  0  0  0
   -0.0030   14.6930   -3.3070 C   0  0  1  0  0  0  0  0  0  0  0  0
   -2.3930   14.9830   -3.6480 C   0  0  0  0  0  0  0  0  0  0  0  0
    0.6460   13.3860   -2.8130 C   0  0  0  0  0  0  0  0  0  0  0  0
   -0.3570   14.6290   -4.8080 C   0  0  0  0  0  0  0  0  0  0  0  0
   -1.8260   14.2530   -4.8450 C   0  0  0  0  0  0  0  0  0  0  0  0
    1.3380   12.4130   -3.8260 C   0  0  0  0  0  0  0  0  0  0  0  0
   -0.4150   12.2590   -2.5510 C   0  0  0  0  0  0  0  0  0  0  0  0
    0.4470   11.2570   -3.2990 C   0  0  0  0  0  0  0  0  0  0  0  0
  2  1  1  1
  2  3  1  0
  2  4  1  0
  5  3  1  6
  4  6  1  0
  6  7  1  1
  5  8  1  0
  5  9  1  0
  9  6  1  6
 10  8  1  1
  9 11  1  0
 10 11  1  0
 10 12  1  0
 11 13  1  6
 13 14  1  6
 13 15  1  0
 12 16  1  0
 15 16  1  0
 14 17  1  0
 14 18  1  0
 17 19  1  1
 17 20  1  0
 18 21  1  0
 20 21  1  0
 19 22  1  0
 19 23  1  0
 22 24  1  0
 23 24  1  0
M  END
