ucsf339-ucsf039
     RDKit          3D

 26 29  0  0  0  0  0  0  0  0999 V2000
    0.6960   13.6670   -3.7410 O   0  0  0  0  0  0  0  0  0  0  0  0
    0.2550   14.6980   -3.0660 C   0  0  2  0  0  0  0  0  0  0  0  0
    1.1640   14.7260   -1.9680 O   0  0  0  0  0  0  0  0  0  0  0  0
   -1.2170   14.6050   -2.5960 C   0  0  2  0  0  0  0  0  0  0  0  0
    0.3620   16.0390   -3.8780 C   0  0  1  0  0  0  0  0  0  0  0  0
   -1.6160   14.6850   -1.0870 C   0  0  1  0  0  0  0  0  0  0  0  0
   -2.1820   13.7850   -3.4530 C   0  0  0  0  0  0  0  0  0  0  0  0
    1.2510   16.0550   -5.0640 C   0  0  0  0  0  0  0  0  0  0  0  0
   -0.9290   16.5190   -4.4860 N   0  0  0  0  0  0  0  0  0  0  0  0
   -3.1320   15.1310   -1.0530 C   0  0  1  0  0  0  0  0  0  0  0  0
   -3.4940   14.4510   -3.5470 N   0  0  0  0  0  0  0  0  0  0  0  0
   -1.4560   13.4550   -0.1870 C   0  0  0  0  0  0  0  0  0  0  0  0
   -0.7030   15.6600   -0.3870 N   0  0  0  0  0  0  0  0  0  0  0  0
   -0.6350   17.8550   -4.9900 C   0  0  1  0  0  0  0  0  0  0  0  0
    1.0520   17.7830   -5.6410 S   0  0  0  0  0  0  0  0  0  0  0  0
   -3.1320   16.3110   -0.1740 N   0  0  0  0  0  0  0  0  0  0  0  0
   -1.5920   18.2870   -6.0900 C   0  0  0  0  0  0  0  0  0  0  0  0
   -3.6360   15.4860   -2.5090 C   0  0  0  0  0  0  0  0  0  0  0  0
   -4.2330   14.4970   -0.1380 C   0  0  0  0  0  0  0  0  0  0  0  0
   -0.9540   14.0080    1.0810 N   0  0  0  0  0  0  0  0  0  0  0  0
    0.0420   14.8730    0.5590 C   0  0  0  0  0  0  0  0  0  0  0  0
   -3.9750   14.5640    1.3530 C   0  0  0  0  0  0  0  0  0  0  0  0
   -5.0150   13.2050   -0.4730 C   0  0  0  0  0  0  0  0  0  0  0  0
   -5.3490   14.7820    1.9180 C   0  0  0  0  0  0  0  0  0  0  0  0
   -6.3290   13.1090    0.3340 C   0  0  0  0  0  0  0  0  0  0  0  0
   -6.1770   13.5270    1.7980 C   0  0  0  0  0  0  0  0  0  0  0  0
  2  1  1  6
  2  3  1  0
  2  4  1  0
  2  5  1  0
  4  6  1  0
  4  7  1  1
  5  8  1  6
  5  9  1  0
  6 10  1  0
  7 11  1  0
  6 12  1  1
  6 13  1  0
  9 14  1  0
  8 15  1  0
 14 15  1  0
 10 16  1  1
 14 17  1  6
 10 18  1  0
 11 18  1  0
 10 19  1  0
 12 20  1  0
 13 21  1  0
 20 21  1  0
 19 22  1  0
 19 23  1  0
 22 24  1  0
 23 25  1  0
 24 26  1  0
 25 26  1  0
M  CHG  1   1  -1
M  END
