ucsf016-ucsf442
     RDKit          3D

 22 26  0  0  0  0  0  0  0  0999 V2000
   -2.5870   13.4530   -1.5260 O   0  0  0  0  0  0  0  0  0  0  0  0
   -3.2230   14.6940   -1.2800 C   0  0  0  0  0  0  0  0  0  0  0  0
   -2.0630   15.5490   -0.8740 C   0  0  1  0  0  0  0  0  0  0  0  0
   -3.8990   15.1160   -2.4470 O   0  0  0  0  0  0  0  0  0  0  0  0
   -4.0930   14.6340    0.0110 C   0  0  1  0  0  0  0  0  0  0  0  0
   -2.1500   15.5970    0.6320 C   0  0  1  0  0  0  0  0  0  0  0  0
   -0.7800   14.8970   -1.3290 C   0  0  1  0  0  0  0  0  0  0  0  0
   -3.6050   15.6700    0.8670 N   0  0  0  0  0  0  0  0  0  0  0  0
   -5.5070   14.8950    0.1080 N   0  0  0  0  0  0  0  0  0  0  0  0
   -0.3740   15.1650   -2.7170 N   0  0  0  0  0  0  0  0  0  0  0  0
    0.2450   14.9870   -0.3090 N   0  0  0  0  0  0  0  0  0  0  0  0
   -1.5590   14.4120    1.1990 N   0  0  0  0  0  0  0  0  0  0  0  0
   -4.2500   15.1680    2.0610 N   0  0  0  0  0  0  0  0  0  0  0  0
   -5.5640   14.7060    1.5610 C   0  0  0  0  0  0  0  0  0  0  0  0
    0.7100   14.4050   -3.3430 C   0  0  0  0  0  0  0  0  0  0  0  0
   -1.4290   15.7000   -3.6110 C   0  0  0  0  0  0  0  0  0  0  0  0
   -0.1230   14.4020    0.9780 C   0  0  0  0  0  0  0  0  0  0  0  0
   -1.8150   14.6970   -4.7130 C   0  0  0  0  0  0  0  0  0  0  0  0
    0.2250   13.3470   -4.3400 C   0  0  0  0  0  0  0  0  0  0  0  0
   -3.1220   13.9230   -4.6060 C   0  0  0  0  0  0  0  0  0  0  0  0
   -3.0130   15.0430   -5.5920 C   0  0  0  0  0  0  0  0  0  0  0  0
   -0.6420   14.0120   -5.3830 C   0  0  0  0  0  0  0  0  0  0  0  0
  2  1  1  0
  3  2  1  1
  2  4  1  0
  2  5  1  0
  3  6  1  0
  3  7  1  0
  5  8  1  0
  6  8  1  0
  5  9  1  6
  7 10  1  6
  7 11  1  0
  6 12  1  1
  8 13  1  0
  9 14  1  0
 13 14  1  0
 10 15  1  0
 10 16  1  0
 11 17  1  0
 12 17  1  0
 18 16  1  0
 15 19  1  0
 18 20  1  0
 18 21  1  0
 20 21  1  0
 18 22  1  0
 19 22  1  0
M  END
