ucsf247-ucsf169
     RDKit          3D

 24 25  0  0  0  0  0  0  0  0999 V2000
    0.8400   12.9710   -1.3170 O   0  0  0  0  0  0  0  0  0  0  0  0
    0.2010   13.1210   -2.5700 C   0  0  0  0  0  0  0  0  0  0  0  0
    1.0600   13.5300   -3.6440 O   0  0  0  0  0  0  0  0  0  0  0  0
   -0.9180   14.2110   -2.4030 C   0  0  0  0  0  0  0  0  0  0  0  0
   -0.3810   11.8600   -2.8490 O   0  0  0  0  0  0  0  0  0  0  0  0
   -2.3600   13.8630   -2.4380 N   0  0  0  0  0  0  0  0  0  0  0  0
    0.4540   14.2900   -4.7240 C   0  0  1  0  0  0  0  0  0  0  0  0
   -3.2330   14.9900   -2.5450 C   0  0  1  0  0  0  0  0  0  0  0  0
   -1.0560   13.9280   -4.9880 C   0  0  0  0  0  0  0  0  0  0  0  0
    0.7460   15.7590   -4.3980 C   0  0  0  0  0  0  0  0  0  0  0  0
   -4.1430   14.6210   -3.5630 O   0  0  0  0  0  0  0  0  0  0  0  0
   -4.0640   15.2480   -1.2900 C   0  0  1  0  0  0  0  0  0  0  0  0
   -0.1860   16.7250   -5.0930 C   0  0  2  0  0  0  0  0  0  0  0  0
   -2.0880   15.0690   -5.1960 C   0  0  0  0  0  0  0  0  0  0  0  0
    0.2090   18.0500   -4.7220 O   0  0  0  0  0  0  0  0  0  0  0  0
   -5.3880   14.5020   -1.3180 C   0  0  0  0  0  0  0  0  0  0  0  0
   -3.3260   14.9030    0.0110 C   0  0  0  0  0  0  0  0  0  0  0  0
   -1.5970   16.3890   -4.6720 C   0  0  2  0  0  0  0  0  0  0  0  0
    1.2130   18.5000   -5.6040 C   0  0  0  0  0  0  0  0  0  0  0  0
   -2.4780   17.5040   -4.9250 O   0  0  0  0  0  0  0  0  0  0  0  0
   -6.2640   14.9680   -0.1880 C   0  0  1  0  0  0  0  0  0  0  0  0
   -4.1570   15.3540    1.2040 C   0  0  0  0  0  0  0  0  0  0  0  0
   -7.5240   14.3100   -0.2020 O   0  0  0  0  0  0  0  0  0  0  0  0
   -5.5780   14.7750    1.1710 C   0  0  0  0  0  0  0  0  0  0  0  0
  2  1  1  0
  2  3  1  0
  2  4  1  0
  2  5  1  0
  4  6  1  0
  7  3  1  1
  6  8  1  0
  7  9  1  0
  7 10  1  0
  8 11  1  6
  8 12  1  0
 10 13  1  0
  9 14  1  0
 13 15  1  1
 12 16  1  6
 12 17  1  0
 13 18  1  0
 14 18  1  0
 15 19  1  0
 18 20  1  6
 16 21  1  0
 17 22  1  0
 21 23  1  1
 21 24  1  0
 22 24  1  0
M  CHG  2   1  -1   5  -1
M  END
