ucsf264-ucsf348
     RDKit          3D

 32 35  0  0  0  0  0  0  0  0999 V2000
    1.8310   12.3530   -2.7220 O   0  0  0  0  0  0  0  0  0  0  0  0
    0.6400   12.1390   -3.2360 C   0  0  2  0  0  0  0  0  0  0  0  0
    0.5310   10.7320   -3.1760 O   0  0  0  0  0  0  0  0  0  0  0  0
    0.5190   12.6020   -4.7350 C   0  0  0  0  0  0  0  0  0  0  0  0
   -0.4160   12.6900   -2.2780 C   0  0  0  0  0  0  0  0  0  0  0  0
   -1.7690   12.0020   -2.4490 C   0  0  0  0  0  0  0  0  0  0  0  0
    0.4610   11.4920   -5.7340 N   0  0  0  0  0  0  0  0  0  0  0  0
   -2.9390   12.8940   -2.0630 C   0  0  0  0  0  0  0  0  0  0  0  0
    1.1880   11.7060   -7.0150 N   0  0  0  0  0  0  0  0  0  0  0  0
   -0.8790   11.0650   -6.1240 C   0  0  1  0  0  0  0  0  0  0  0  0
    0.3480   11.0610   -8.0680 C   0  0  2  0  0  0  0  0  0  0  0  0
   -0.4990   10.1120   -7.2330 C   0  0  2  0  0  0  0  0  0  0  0  0
   -1.6840   10.3770   -5.0170 C   0  0  0  0  0  0  0  0  0  0  0  0
   -2.6020   14.3570   -1.7350 C   0  0  2  0  0  0  0  0  0  0  0  0
    0.9760   10.4020   -9.3010 C   0  0  0  0  0  0  0  0  0  0  0  0
   -1.7080    9.3880   -7.8290 C   0  0  0  0  0  0  0  0  0  0  0  0
   -2.8550    9.5540   -5.5610 C   0  0  0  0  0  0  0  0  0  0  0  0
   -1.9110   14.4790   -0.3700 C   0  0  0  0  0  0  0  0  0  0  0  0
   -3.7930   15.2900   -1.9740 C   0  0  0  0  0  0  0  0  0  0  0  0
    1.6220    9.2470   -9.0120 F   0  0  0  0  0  0  0  0  0  0  0  0
   -0.0120   10.0470  -10.1610 F   0  0  0  0  0  0  0  0  0  0  0  0
    1.7790   11.1820  -10.0400 F   0  0  0  0  0  0  0  0  0  0  0  0
   -2.5040    8.6550   -6.7560 C   0  0  0  0  0  0  0  0  0  0  0  0
   -4.7300   15.5330   -0.7750 C   0  0  1  0  0  0  0  0  0  0  0  0
   -2.9160   14.4630    0.7690 C   0  0  0  0  0  0  0  0  0  0  0  0
   -5.9420   14.5960   -0.9310 C   0  0  2  0  0  0  0  0  0  0  0  0
   -4.0730   15.4560    0.6260 C   0  0  2  0  0  0  0  0  0  0  0  0
   -6.6220   14.8760   -2.1440 O   0  0  0  0  0  0  0  0  0  0  0  0
   -6.8790   14.7640    0.1530 N   0  0  0  0  0  0  0  0  0  0  0  0
   -5.0930   15.2360    1.6470 N   0  0  0  0  0  0  0  0  0  0  0  0
   -6.1710   14.3710    1.3170 C   0  0  1  0  0  0  0  0  0  0  0  0
   -7.0560   14.5290    2.4160 N   0  0  0  0  0  0  0  0  0  0  0  0
  2  1  1  1
  2  3  1  0
  2  4  1  0
  2  5  1  0
  5  6  1  0
  4  7  1  0
  6  8  1  0
  7  9  1  0
  7 10  1  0
  9 11  1  0
 10 12  1  0
 11 12  1  0
 10 13  1  1
 14  8  1  1
 11 15  1  6
 12 16  1  6
 13 17  1  0
 14 18  1  0
 14 19  1  0
 15 20  1  0
 15 21  1  0
 15 22  1  0
 16 23  1  0
 17 23  1  0
 24 19  1  6
 18 25  1  0
 24 26  1  0
 24 27  1  0
 27 25  1  6
 26 28  1  6
 26 29  1  0
 27 30  1  0
 29 31  1  0
 30 31  1  0
 31 32  1  1
M  CHG  1   1  -1
M  END
