ucsf364-ucsf258
     RDKit          3D

 18 19  0  0  0  0  0  0  0  0999 V2000
    2.3340   13.0080   -4.3530 C   0  0  0  0  0  0  0  0  0  0  0  0
    0.8500   12.8210   -4.7200 C   0  0  1  0  0  0  0  0  0  0  0  0
    0.7310   12.3340   -6.1790 C   0  0  1  0  0  0  0  0  0  0  0  0
    0.0320   11.9160   -3.7150 C   0  0  1  0  0  0  0  0  0  0  0  0
    1.9880   12.0120   -6.7560 O   0  0  0  0  0  0  0  0  0  0  0  0
   -0.1750   12.3930   -2.2310 C   0  0  2  0  0  0  0  0  0  0  0  0
   -1.3890   11.5250   -4.2210 C   0  0  0  0  0  0  0  0  0  0  0  0
   -0.2280   11.1730   -6.4170 C   0  0  0  0  0  0  0  0  0  0  0  0
   -0.5530   13.7680   -2.2190 O   0  0  0  0  0  0  0  0  0  0  0  0
    0.8720   12.2120   -1.4740 O   0  0  0  0  0  0  0  0  0  0  0  0
   -1.5520   11.3530   -5.7140 C   0  0  0  0  0  0  0  0  0  0  0  0
   -1.8560   13.9050   -1.6610 C   0  0  2  0  0  0  0  0  0  0  0  0
   -2.8540   14.3920   -2.7380 C   0  0  2  0  0  0  0  0  0  0  0  0
   -1.7180   14.7750   -0.4900 N   0  0  0  0  0  0  0  0  0  0  0  0
   -2.2400   14.9910   -3.8800 O   0  0  0  0  0  0  0  0  0  0  0  0
   -3.8890   15.3450   -2.1640 C   0  0  0  0  0  0  0  0  0  0  0  0
   -2.9790   14.9850    0.2200 C   0  0  0  0  0  0  0  0  0  0  0  0
   -4.2040   15.1670   -0.6730 C   0  0  0  0  0  0  0  0  0  0  0  0
  2  1  1  1
  2  3  1  0
  2  4  1  0
  3  5  1  1
  4  6  1  0
  4  7  1  6
  3  8  1  0
  6  9  1  0
  6 10  1  1
  7 11  1  0
  8 11  1  0
 12  9  1  6
 12 13  1  0
 12 14  1  0
 13 15  1  6
 13 16  1  0
 14 17  1  0
 16 18  1  0
 17 18  1  0
M  CHG  1  10  -1
M  END
