ucsf337-ucsf333
     RDKit          3D

 23 25  0  0  0  0  0  0  0  0999 V2000
   -7.6930   14.7290    0.4060 C   0  0  0  0  0  0  0  0  0  0  0  0
   -6.2500   14.2690    0.1080 C   0  0  1  0  0  0  0  0  0  0  0  0
   -6.0450   13.9810   -1.3220 N   0  0  0  0  0  0  0  0  0  0  0  0
   -5.1510   15.2920    0.3860 C   0  0  1  0  0  0  0  0  0  0  0  0
   -4.3760   15.4600    2.1280 Br  0  0  0  0  0  0  0  0  0  0  0  0
   -4.0860   15.2220   -0.6200 C   0  0  0  0  0  0  0  0  0  0  0  0
   -6.0960   15.1590   -2.1130 C   0  0  2  0  0  0  0  0  0  0  0  0
   -4.6910   13.4390   -1.4590 C   0  0  1  0  0  0  0  0  0  0  0  0
   -6.2310   14.8640   -3.5310 N   0  0  0  0  0  0  0  0  0  0  0  0
   -4.7870   15.8550   -1.7710 C   0  0  0  0  0  0  0  0  0  0  0  0
   -3.8820   14.0760   -2.6500 C   0  0  0  0  0  0  0  0  0  0  0  0
   -3.8290   13.3450   -0.1300 C   0  0  0  0  0  0  0  0  0  0  0  0
   -2.3790   13.9830   -2.4740 C   0  0  1  0  0  0  0  0  0  0  0  0
   -2.4600   14.0430    0.0400 C   0  0  0  0  0  0  0  0  0  0  0  0
   -1.4980   14.5060   -3.5040 N   0  0  0  0  0  0  0  0  0  0  0  0
   -1.9960   14.7300   -1.2190 C   0  0  1  0  0  0  0  0  0  0  0  0
   -0.2550   14.0760   -2.9100 C   0  0  2  0  0  0  0  0  0  0  0  0
   -0.1740   14.8810   -1.2910 S   0  0  0  0  0  0  0  0  0  0  0  0
    0.9800   13.9340   -3.7790 C   0  0  0  0  0  0  0  0  0  0  0  0
    1.3760   12.4490   -3.6770 C   0  0  0  0  0  0  0  0  0  0  0  0
    0.4770   11.7220   -2.6060 C   0  0  2  0  0  0  0  0  0  0  0  0
    0.8190   12.1090   -1.4020 O   0  0  0  0  0  0  0  0  0  0  0  0
    0.5730   10.3040   -2.6130 O   0  0  0  0  0  0  0  0  0  0  0  0
  2  1  1  6
  2  3  1  0
  2  4  1  0
  4  5  1  1
  4  6  1  0
  3  7  1  0
  8  3  1  1
  7  9  1  6
  6 10  1  0
  7 10  1  0
  8 11  1  0
  8 12  1  0
 13 11  1  6
 12 14  1  0
 13 15  1  0
 13 16  1  0
 16 14  1  1
 15 17  1  0
 16 18  1  0
 17 18  1  0
 17 19  1  6
 19 20  1  0
 20 21  1  0
 21 22  1  1
 21 23  1  0
M  CHG  1  22  -1
M  END
