ucsf385-ucsf172
     RDKit          3D

 22 23  0  0  0  0  0  0  0  0999 V2000
   -2.4510   16.0630   -1.2820 N   0  0  0  0  0  0  0  0  0  0  0  0
   -2.1990   14.8970   -0.4280 C   0  0  2  0  0  0  0  0  0  0  0  0
   -2.0160   15.3270    1.0220 C   0  0  0  0  0  0  0  0  0  0  0  0
   -1.0100   14.0430   -0.8840 C   0  0  1  0  0  0  0  0  0  0  0  0
   -0.7600   14.1390   -2.4050 C   0  0  2  0  0  0  0  0  0  0  0  0
    0.1940   14.3500    0.0180 C   0  0  0  0  0  0  0  0  0  0  0  0
   -1.5130   14.2400    1.8320 N   0  0  0  0  0  0  0  0  0  0  0  0
    0.2050   15.1300   -2.7220 O   0  0  0  0  0  0  0  0  0  0  0  0
   -1.9590   14.4700   -3.1400 N   0  0  0  0  0  0  0  0  0  0  0  0
   -0.1140   14.0660    1.4970 C   0  0  0  0  0  0  0  0  0  0  0  0
   -2.0790   13.8630   -4.4310 O   0  0  0  0  0  0  0  0  0  0  0  0
   -3.1740   14.3760   -2.3210 C   0  0  2  0  0  0  0  0  0  0  0  0
   -3.4690   13.0680   -1.5520 C   0  0  0  0  0  0  0  0  0  0  0  0
   -4.4600   15.0430   -2.8130 C   0  0  0  0  0  0  0  0  0  0  0  0
   -4.2200   13.4000   -0.2600 C   0  0  0  0  0  0  0  0  0  0  0  0
   -5.4280   15.2240   -1.6380 C   0  0  0  0  0  0  0  0  0  0  0  0
   -4.7760   14.8430   -0.2860 C   0  0  1  0  0  0  0  0  0  0  0  0
   -5.6790   15.0580    0.8410 N   0  0  0  0  0  0  0  0  0  0  0  0
   -7.0640   14.2420    1.1550 S   0  0  0  0  0  0  0  0  0  0  0  0
   -8.1560   14.9110    2.3570 C   0  0  0  0  0  0  0  0  0  0  0  0
   -6.7240   12.8090    1.7600 O   0  0  0  0  0  0  0  0  0  0  0  0
   -7.9700   14.0400   -0.1450 O   0  0  0  0  0  0  0  0  0  0  0  0
  2  1  1  6
  2  3  1  0
  2  4  1  0
  4  5  1  0
  4  6  1  1
  3  7  1  0
  5  8  1  1
  5  9  1  0
  6 10  1  0
  7 10  1  0
  9 11  1  0
 12  9  1  6
 12 13  1  0
 12 14  1  0
 13 15  1  0
 14 16  1  0
 15 17  1  0
 16 17  1  0
 17 18  1  1
 18 19  1  0
 19 20  1  0
 19 21  1  0
 19 22  1  0
M  CHG  1  11  -1
M  END
