ucsf412-ucsf422
     RDKit          3D

 27 30  0  0  0  0  0  0  0  0999 V2000
   -8.0540   14.6470   -0.2250 O   0  0  0  0  0  0  0  0  0  0  0  0
   -7.0900   14.0950    0.6400 C   0  0  2  0  0  0  0  0  0  0  0  0
   -7.1480   14.9010    1.8080 N   0  0  0  0  0  0  0  0  0  0  0  0
   -5.7160   14.0210   -0.0800 C   0  0  2  0  0  0  0  0  0  0  0  0
   -4.4310   14.2800    0.7440 C   0  0  2  0  0  0  0  0  0  0  0  0
   -5.9480   14.8150    2.5950 C   0  0  0  0  0  0  0  0  0  0  0  0
   -5.7090   14.9100   -1.2730 C   0  0  0  0  0  0  0  0  0  0  0  0
   -4.7230   15.2750    1.8210 C   0  0  0  0  0  0  0  0  0  0  0  0
   -3.1930   14.7870   -0.0180 C   0  0  0  0  0  0  0  0  0  0  0  0
   -4.5920   14.4330   -2.1220 C   0  0  2  0  0  0  0  0  0  0  0  0
   -3.2790   14.9230   -1.5360 C   0  0  0  0  0  0  0  0  0  0  0  0
   -4.8070   15.0460   -3.4450 C   0  0  0  0  0  0  0  0  0  0  0  0
   -4.3000   14.4440   -4.7090 C   0  0  0  0  0  0  0  0  0  0  0  0
   -4.0470   15.5400   -5.5530 O   0  0  0  0  0  0  0  0  0  0  0  0
   -2.6990   15.8420   -5.8220 C   0  0  1  0  0  0  0  0  0  0  0  0
   -2.1990   17.1950   -5.2970 C   0  0  0  0  0  0  0  0  0  0  0  0
   -1.8340   14.6460   -5.3200 C   0  0  0  0  0  0  0  0  0  0  0  0
   -0.5420   14.9240   -4.5350 C   0  0  1  0  0  0  0  0  0  0  0  0
   -0.6890   17.3660   -5.4030 C   0  0  0  0  0  0  0  0  0  0  0  0
    0.6760   14.0540   -4.9000 C   0  0  2  0  0  0  0  0  0  0  0  0
    0.0520   16.3500   -4.5430 C   0  0  2  0  0  0  0  0  0  0  0  0
    0.6340   12.5620   -4.5070 C   0  0  0  0  0  0  0  0  0  0  0  0
    1.7760   14.9000   -4.2940 C   0  0  0  0  0  0  0  0  0  0  0  0
    1.4710   16.2030   -4.9110 N   0  0  0  0  0  0  0  0  0  0  0  0
    1.1460   12.1820   -3.0970 C   0  0  2  0  0  0  0  0  0  0  0  0
    0.5090   11.1260   -2.6420 O   0  0  0  0  0  0  0  0  0  0  0  0
    0.7330   13.1470   -2.1480 O   0  0  0  0  0  0  0  0  0  0  0  0
  2  1  1  6
  2  3  1  0
  2  4  1  0
  4  5  1  0
  3  6  1  0
  4  7  1  6
  5  8  1  1
  6  8  1  0
  5  9  1  0
  7 10  1  0
  9 11  1  0
 10 11  1  0
 10 12  1  6
 12 13  1  0
 13 14  1  0
 15 14  1  1
 15 16  1  0
 15 17  1  0
 18 17  1  6
 16 19  1  0
 18 20  1  0
 18 21  1  0
 21 19  1  6
 20 22  1  1
 20 23  1  0
 21 24  1  0
 23 24  1  0
 22 25  1  0
 25 26  1  1
 25 27  1  0
M  CHG  1  26  -1
M  END
