ucsf012-ucsf278
     RDKit          3D

 26 29  0  0  0  0  0  0  0  0999 V2000
   -3.5930   15.1580   -3.4860 C   0  0  0  0  0  0  0  0  0  0  0  0
   -3.1720   14.1950   -2.3720 C   0  0  2  0  0  0  0  0  0  0  0  0
   -4.0640   14.4310   -1.1540 C   0  0  2  0  0  0  0  0  0  0  0  0
   -1.8380   14.2690   -1.9100 N   0  0  0  0  0  0  0  0  0  0  0  0
   -4.6910   15.7540   -1.1280 C   0  0  0  0  0  0  0  0  0  0  0  0
   -0.7710   14.6770   -2.5650 C   0  0  0  0  0  0  0  0  0  0  0  0
   -3.0850   14.1700   -0.0450 C   0  0  1  0  0  0  0  0  0  0  0  0
   -1.7440   14.3440   -0.6380 C   0  0  1  0  0  0  0  0  0  0  0  0
   -3.0460   15.0440    1.0660 C   0  0  1  0  0  0  0  0  0  0  0  0
   -0.7980   13.7250    0.1460 N   0  0  0  0  0  0  0  0  0  0  0  0
    0.0600   13.1820   -3.3720 S   0  0  0  0  0  0  0  0  0  0  0  0
   -4.3750   15.1870    1.6580 N   0  0  0  0  0  0  0  0  0  0  0  0
   -2.1190   14.4920    2.0040 N   0  0  0  0  0  0  0  0  0  0  0  0
   -0.7730   14.3040    1.4290 C   0  0  0  0  0  0  0  0  0  0  0  0
   -0.1040   11.4960   -2.4820 C   0  0  0  0  0  0  0  0  0  0  0  0
   -1.4540   12.2360   -3.6540 O   0  0  0  0  0  0  0  0  0  0  0  0
   -0.0500   14.2380   -4.7290 C   0  0  1  0  0  0  0  0  0  0  0  0
    1.4760   12.9880   -4.4610 C   0  0  0  0  0  0  0  0  0  0  0  0
   -1.4820   15.0940   -4.9060 Cl  0  0  0  0  0  0  0  0  0  0  0  0
   -1.3450   11.0170   -4.1100 C   0  0  2  0  0  0  0  0  0  0  0  0
   -0.0260   10.6830   -3.7210 C   0  0  0  0  0  0  0  0  0  0  0  0
    1.0840   15.2370   -4.5990 C   0  0  0  0  0  0  0  0  0  0  0  0
    2.5960   13.6000   -4.1020 C   0  0  0  0  0  0  0  0  0  0  0  0
   -1.3120   11.1330   -5.6500 C   0  0  0  0  0  0  0  0  0  0  0  0
    2.1320   14.9760   -3.5660 C   0  0  0  0  0  0  0  0  0  0  0  0
   -2.3000   10.3430   -6.1630 O   0  0  0  0  0  0  0  0  0  0  0  0
  2  1  1  6
  2  3  1  0
  2  4  1  0
  3  5  1  1
  4  6  1  0
  3  7  1  0
  4  8  1  0
  7  8  1  0
  7  9  1  1
  8 10  1  1
  6 11  1  0
  9 12  1  1
  9 13  1  0
 10 14  1  0
 13 14  1  0
 11 15  1  0
 11 16  1  0
 11 17  1  0
 11 18  1  0
 17 19  1  1
 16 20  1  0
 15 21  1  0
 20 21  1  0
 17 22  1  0
 18 23  1  0
 20 24  1  6
 22 25  1  0
 23 25  1  0
 24 26  1  0
M  END
