ucsf151-ucsf357
     RDKit          3D

 20 21  0  0  0  0  0  0  0  0999 V2000
    0.8900   12.8830   -2.2430 O   0  0  0  0  0  0  0  0  0  0  0  0
   -0.1800   13.6180   -2.4980 C   0  0  1  0  0  0  0  0  0  0  0  0
    0.0020   14.9060   -1.8890 O   0  0  0  0  0  0  0  0  0  0  0  0
   -0.3780   13.8090   -4.0570 C   0  0  2  0  0  0  0  0  0  0  0  0
   -0.8610   15.2000   -4.5990 C   0  0  0  0  0  0  0  0  0  0  0  0
   -1.1280   12.6240   -4.7340 C   0  0  0  0  0  0  0  0  0  0  0  0
   -1.2430   15.4340   -1.3950 C   0  0  1  0  0  0  0  0  0  0  0  0
   -2.3590   15.2550   -5.0390 C   0  0  1  0  0  0  0  0  0  0  0  0
   -2.5890   12.7790   -4.9470 N   0  0  0  0  0  0  0  0  0  0  0  0
   -2.2140   15.3470   -2.5690 C   0  0  1  0  0  0  0  0  0  0  0  0
   -1.7860   14.7060   -0.1410 C   0  0  0  0  0  0  0  0  0  0  0  0
   -2.5800   16.3520   -5.9510 O   0  0  0  0  0  0  0  0  0  0  0  0
   -1.6740   14.5600   -3.5400 F   0  0  0  0  0  0  0  0  0  0  0  0
   -2.8790   13.9740   -5.7120 C   0  0  0  0  0  0  0  0  0  0  0  0
   -3.5470   14.7270   -2.2180 C   0  0  0  0  0  0  0  0  0  0  0  0
   -3.2560   15.0310    0.2430 C   0  0  0  0  0  0  0  0  0  0  0  0
   -4.0850   15.4290   -0.9910 C   0  0  2  0  0  0  0  0  0  0  0  0
   -5.6350   15.4730   -0.9650 C   0  0  1  0  0  0  0  0  0  0  0  0
   -6.1610   14.7640   -1.9330 O   0  0  0  0  0  0  0  0  0  0  0  0
   -6.1330   14.8120    0.1780 O   0  0  0  0  0  0  0  0  0  0  0  0
  2  1  1  6
  2  3  1  0
  2  4  1  0
  4  5  1  1
  4  6  1  0
  7  3  1  6
  5  8  1  0
  6  9  1  0
  7 10  1  0
  7 11  1  0
  8 12  1  6
 10 13  1  6
  8 14  1  0
  9 14  1  0
 10 15  1  0
 11 16  1  0
 17 15  1  6
 16 17  1  0
 17 18  1  0
 18 19  1  6
 18 20  1  0
M  CHG  2   1  -1  19  -1
M  END
