ucsf004-ucsf169
     RDKit          3D

 23 25  0  0  0  0  0  0  0  0999 V2000
   -2.1430   12.6590   -4.4740 F   0  0  0  0  0  0  0  0  0  0  0  0
   -1.7830   13.9680   -4.7310 C   0  0  2  0  0  0  0  0  0  0  0  0
   -0.2960   14.1670   -4.6380 C   0  0  1  0  0  0  0  0  0  0  0  0
   -2.2200   14.9280   -3.5820 C   0  0  2  0  0  0  0  0  0  0  0  0
    0.7680   13.0510   -4.5270 C   0  0  0  0  0  0  0  0  0  0  0  0
   -2.7250   16.1900   -4.0710 O   0  0  0  0  0  0  0  0  0  0  0  0
   -1.0400   15.1420   -2.6720 N   0  0  0  0  0  0  0  0  0  0  0  0
   -0.0280   15.6800   -4.8010 C   0  0  2  0  0  0  0  0  0  0  0  0
    1.1150   16.3220   -5.3910 O   0  0  0  0  0  0  0  0  0  0  0  0
    0.7250   12.4000   -3.1120 C   0  0  2  0  0  0  0  0  0  0  0  0
   -0.0800   16.0640   -3.3250 C   0  0  0  0  0  0  0  0  0  0  0  0
   -1.1560   15.3430   -1.2260 C   0  0  2  0  0  0  0  0  0  0  0  0
    1.0280   17.7490   -5.3460 C   0  0  0  0  0  0  0  0  0  0  0  0
    1.9470   12.5560   -2.4450 O   0  0  0  0  0  0  0  0  0  0  0  0
    0.5400   11.1080   -3.0950 O   0  0  0  0  0  0  0  0  0  0  0  0
   -0.4890   14.2150   -0.5080 N   0  0  0  0  0  0  0  0  0  0  0  0
   -2.4970   15.4930   -0.5460 C   0  0  2  0  0  0  0  0  0  0  0  0
   -0.2350   14.4860    0.9040 C   0  0  0  0  0  0  0  0  0  0  0  0
   -2.5630   14.6970    0.7150 C   0  0  1  0  0  0  0  0  0  0  0  0
   -3.8550   15.2180   -1.1040 C   0  0  0  0  0  0  0  0  0  0  0  0
   -1.4400   15.0050    1.5340 N   0  0  0  0  0  0  0  0  0  0  0  0
   -3.7530   15.2650    1.3150 N   0  0  0  0  0  0  0  0  0  0  0  0
   -4.6610   15.4860    0.1620 C   0  0  0  0  0  0  0  0  0  0  0  0
  2  1  1  1
  2  3  1  0
  2  4  1  0
  3  5  1  6
  4  6  1  6
  4  7  1  0
  3  8  1  0
  8  9  1  1
  5 10  1  0
  7 11  1  0
  8 11  1  0
 12  7  1  6
  9 13  1  0
 10 14  1  6
 10 15  1  0
 12 16  1  0
 12 17  1  0
 16 18  1  0
 17 19  1  0
 17 20  1  6
 18 21  1  0
 19 21  1  1
 19 22  1  0
 20 23  1  0
 22 23  1  0
M  CHG  1  15  -1
M  END
