ucsf338-ucsf241
     RDKit          3D

 15 16  0  0  0  0  0  0  0  0999 V2000
   -8.7060   13.9440   -0.3190 O   0  0  0  0  0  0  0  0  0  0  0  0
   -7.7300   14.8430    0.2710 N   0  0  0  0  0  0  0  0  0  0  0  0
   -6.6340   15.0750   -0.6810 C   0  0  2  0  0  0  0  0  0  0  0  0
   -7.0890   14.5480   -1.9060 O   0  0  0  0  0  0  0  0  0  0  0  0
   -5.3020   14.3860   -0.2800 C   0  0  1  0  0  0  0  0  0  0  0  0
   -4.0820   14.6790   -1.2150 C   0  0  1  0  0  0  0  0  0  0  0  0
   -4.9340   14.5800    1.1950 C   0  0  0  0  0  0  0  0  0  0  0  0
   -4.2070   15.9470   -1.8570 O   0  0  0  0  0  0  0  0  0  0  0  0
   -2.6990   14.5650   -0.5060 C   0  0  2  0  0  0  0  0  0  0  0  0
   -3.8560   15.6120    1.5000 C   0  0  0  0  0  0  0  0  0  0  0  0
   -2.5510   15.4280    0.7190 C   0  0  1  0  0  0  0  0  0  0  0  0
   -1.4600   14.8060   -1.3820 C   0  0  0  0  0  0  0  0  0  0  0  0
   -0.1710   14.4480   -0.6260 C   0  0  0  0  0  0  0  0  0  0  0  0
   -1.5320   14.8220    1.5500 N   0  0  0  0  0  0  0  0  0  0  0  0
   -0.2290   14.6290    0.9050 C   0  0  0  0  0  0  0  0  0  0  0  0
  1  2  1  0
  2  3  1  0
  3  4  1  6
  3  5  1  0
  5  6  1  0
  5  7  1  1
  6  8  1  1
  6  9  1  0
  7 10  1  0
  9 11  1  0
 11 10  1  1
  9 12  1  6
 12 13  1  0
 11 14  1  0
 13 15  1  0
 14 15  1  0
M  END
