ucsf169-ucsf422
     RDKit          3D

 17 18  0  0  0  0  0  0  0  0999 V2000
    1.2290   18.5060   -5.6110 C   0  0  0  0  0  0  0  0  0  0  0  0
    0.2070   18.1160   -4.7240 O   0  0  0  0  0  0  0  0  0  0  0  0
   -0.2560   16.8160   -5.0940 C   0  0  2  0  0  0  0  0  0  0  0  0
   -1.7810   16.8400   -5.3040 C   0  0  2  0  0  0  0  0  0  0  0  0
    0.2780   15.7780   -4.0790 C   0  0  1  0  0  0  0  0  0  0  0  0
   -2.3120   18.0600   -4.7630 O   0  0  0  0  0  0  0  0  0  0  0  0
   -2.4450   15.5420   -4.8200 C   0  0  1  0  0  0  0  0  0  0  0  0
   -0.2430   14.3220   -4.2950 C   0  0  1  0  0  0  0  0  0  0  0  0
    1.7540   15.7130   -4.3010 N   0  0  0  0  0  0  0  0  0  0  0  0
   -0.4580   13.5890   -2.9310 C   0  0  0  0  0  0  0  0  0  0  0  0
   -4.0580   15.2300   -5.8950 Br  0  0  0  0  0  0  0  0  0  0  0  0
   -1.5900   14.2900   -5.0160 C   0  0  0  0  0  0  0  0  0  0  0  0
    0.9160   13.7110   -5.0670 C   0  0  0  0  0  0  0  0  0  0  0  0
    2.0570   14.2840   -4.2810 C   0  0  0  0  0  0  0  0  0  0  0  0
    0.5150   12.4740   -2.4860 C   0  0  1  0  0  0  0  0  0  0  0  0
    0.7150   12.7220   -1.1220 O   0  0  0  0  0  0  0  0  0  0  0  0
   -0.0950   11.3080   -2.4030 O   0  0  0  0  0  0  0  0  0  0  0  0
  1  2  1  0
  3  2  1  1
  3  4  1  0
  3  5  1  0
  4  6  1  1
  4  7  1  0
  5  8  1  0
  5  9  1  6
  8 10  1  1
  7 11  1  6
  7 12  1  0
  8 12  1  0
  8 13  1  0
  9 14  1  0
 13 14  1  0
 10 15  1  0
 15 16  1  1
 15 17  1  0
M  CHG  1  17  -1
M  END
