ucsf371-ucsf124
     RDKit          3D

 25 27  0  0  0  0  0  0  0  0999 V2000
   -4.6640   15.6680    0.3520 C   0  0  0  0  0  0  0  0  0  0  0  0
   -4.1430   14.6580   -0.6440 C   0  0  1  0  0  0  0  0  0  0  0  0
   -4.6810   14.9500   -1.9730 N   0  0  0  0  0  0  0  0  0  0  0  0
   -2.3350   14.6930   -0.7160 S   0  0  0  0  0  0  0  0  0  0  0  0
   -3.5870   15.1850   -2.9410 C   0  0  0  0  0  0  0  0  0  0  0  0
   -2.3690   14.3710   -2.5160 C   0  0  1  0  0  0  0  0  0  0  0  0
   -1.0610   14.7330   -3.2620 C   0  0  1  0  0  0  0  0  0  0  0  0
   -1.3070   15.7280   -4.2510 O   0  0  0  0  0  0  0  0  0  0  0  0
   -0.0780   15.3150   -2.4240 O   0  0  0  0  0  0  0  0  0  0  0  0
    1.1200   14.5360   -2.3530 C   0  0  0  0  0  0  0  0  0  0  0  0
    0.8330   13.1910   -2.0040 O   0  0  0  0  0  0  0  0  0  0  0  0
    1.2550   12.1930   -2.9660 C   0  0  1  0  0  0  0  0  0  0  0  0
    0.7350   11.0280   -2.5680 O   0  0  0  0  0  0  0  0  0  0  0  0
    0.6590   12.5580   -4.3870 C   0  0  0  0  0  0  0  0  0  0  0  0
    0.3260   11.4120   -5.2540 N   0  0  0  0  0  0  0  0  0  0  0  0
   -0.9080   10.7150   -4.9820 C   0  0  1  0  0  0  0  0  0  0  0  0
    0.4630   11.5330   -6.6890 C   0  0  1  0  0  0  0  0  0  0  0  0
   -2.0380   11.5580   -4.9780 O   0  0  0  0  0  0  0  0  0  0  0  0
    1.8080   11.7580   -7.0160 O   0  0  0  0  0  0  0  0  0  0  0  0
   -0.9530    9.6470   -6.0970 C   0  0  2  0  0  0  0  0  0  0  0  0
    0.0640   10.1240   -7.1660 C   0  0  1  0  0  0  0  0  0  0  0  0
   -2.3380    9.3360   -6.6770 C   0  0  0  0  0  0  0  0  0  0  0  0
   -0.5200   10.0690   -8.5740 C   0  0  0  0  0  0  0  0  0  0  0  0
   -2.2220    8.3200   -7.8080 C   0  0  0  0  0  0  0  0  0  0  0  0
   -1.1600    8.7060   -8.8380 C   0  0  0  0  0  0  0  0  0  0  0  0
  2  1  1  1
  2  3  1  0
  2  4  1  0
  3  5  1  0
  4  6  1  0
  6  5  1  6
  6  7  1  0
  7  8  1  6
  7  9  1  0
  9 10  1  0
 10 11  1  0
 11 12  1  0
 12 13  1  1
 12 14  1  0
 14 15  1  0
 15 16  1  0
 15 17  1  0
 16 18  1  6
 17 19  1  1
 16 20  1  0
 17 21  1  0
 20 21  1  0
 20 22  1  6
 21 23  1  6
 22 24  1  0
 23 25  1  0
 24 25  1  0
M  CHG  1  13  -1
M  END
