ucsf392-ucsf114
     RDKit          3D

 20 21  0  0  0  0  0  0  0  0999 V2000
   -5.0670   15.5580   -0.3520 C   0  0  0  0  0  0  0  0  0  0  0  0
   -3.5620   15.6410   -0.0940 C   0  0  2  0  0  0  0  0  0  0  0  0
   -2.8100   15.3720   -1.3670 C   0  0  0  0  0  0  0  0  0  0  0  0
   -3.0420   14.7290    0.9920 C   0  0  1  0  0  0  0  0  0  0  0  0
   -4.0160   13.8110    1.4850 N   0  0  0  0  0  0  0  0  0  0  0  0
   -1.8500   13.9900    0.6080 N   0  0  0  0  0  0  0  0  0  0  0  0
   -1.3830   15.5380   -1.1790 N   0  0  0  0  0  0  0  0  0  0  0  0
   -0.8160   14.6980   -0.1340 C   0  0  1  0  0  0  0  0  0  0  0  0
   -0.7880   15.5630   -2.4900 C   0  0  0  0  0  0  0  0  0  0  0  0
    0.0470   15.4670    0.8270 C   0  0  0  0  0  0  0  0  0  0  0  0
    0.0850   14.4670   -2.7010 N   0  0  0  0  0  0  0  0  0  0  0  0
    0.2050   13.7540   -0.5770 N   0  0  0  0  0  0  0  0  0  0  0  0
    0.5100   14.2630   -4.0730 C   0  0  0  0  0  0  0  0  0  0  0  0
    0.9920   14.3300   -1.6390 C   0  0  1  0  0  0  0  0  0  0  0  0
    0.7450   15.5040   -4.9370 C   0  0  0  0  0  0  0  0  0  0  0  0
    2.6610   13.7420   -1.9510 S   0  0  0  0  0  0  0  0  0  0  0  0
   -0.4970   16.2160   -5.0920 O   0  0  0  0  0  0  0  0  0  0  0  0
   -0.2850   17.5810   -5.4510 C   0  0  0  0  0  0  0  0  0  0  0  0
    0.7420   18.1800   -4.5050 C   0  0  0  0  0  0  0  0  0  0  0  0
   -1.6360   18.2850   -5.3630 C   0  0  0  0  0  0  0  0  0  0  0  0
  2  1  1  6
  2  3  1  0
  2  4  1  0
  4  5  1  6
  4  6  1  0
  3  7  1  0
  8  6  1  0
  7  8  1  0
  7  9  1  0
  8 10  1  1
  9 11  1  0
  8 12  1  0
 11 13  1  0
 11 14  1  0
 12 14  1  0
 13 15  1  0
 14 16  1  6
 15 17  1  0
 17 18  1  0
 18 19  1  0
 18 20  1  0
M  END
