ucsf224-ucsf303
     RDKit          3D

 28 30  0  0  0  0  0  0  0  0999 V2000
   -1.0810   18.3100   -5.0890 Cl  0  0  0  0  0  0  0  0  0  0  0  0
   -0.5250   16.7970   -4.2850 C   0  0  1  0  0  0  0  0  0  0  0  0
   -1.1290   15.5910   -4.9640 C   0  0  2  0  0  0  0  0  0  0  0  0
    0.9920   16.6720   -4.4160 C   0  0  0  0  0  0  0  0  0  0  0  0
   -2.6490   15.6770   -5.2410 C   0  0  0  0  0  0  0  0  0  0  0  0
   -0.7330   14.3200   -4.2210 C   0  0  0  0  0  0  0  0  0  0  0  0
    1.5230   15.3380   -3.8430 C   0  0  0  0  0  0  0  0  0  0  0  0
   -3.3480   14.3750   -4.9120 C   0  0  0  0  0  0  0  0  0  0  0  0
    0.7690   14.0800   -4.3230 C   0  0  1  0  0  0  0  0  0  0  0  0
    1.2560   12.7810   -3.5810 C   0  0  0  0  0  0  0  0  0  0  0  0
   -3.0710   13.9940   -3.5920 O   0  0  0  0  0  0  0  0  0  0  0  0
    0.2760   12.1280   -2.5420 C   0  0  1  0  0  0  0  0  0  0  0  0
   -4.1110   14.3490   -2.4350 S   0  0  1  0  0  0  0  0  0  0  0  0
    0.5430   10.8330   -2.3640 O   0  0  0  0  0  0  0  0  0  0  0  0
    0.5670   12.6140   -1.2450 O   0  0  0  0  0  0  0  0  0  0  0  0
   -4.9920   15.5760   -2.9050 O   0  0  0  0  0  0  0  0  0  0  0  0
   -5.2080   13.1760   -2.1060 N   0  0  0  0  0  0  0  0  0  0  0  0
   -3.2490   15.0600   -1.0630 C   0  0  0  0  0  0  0  0  0  0  0  0
   -4.8150   11.9350   -1.5430 C   0  0  1  0  0  0  0  0  0  0  0  0
   -2.1000   14.1890   -0.4860 C   0  0  0  0  0  0  0  0  0  0  0  0
   -4.3870   15.3810   -0.0830 C   0  0  0  0  0  0  0  0  0  0  0  0
   -5.8880   11.0010   -1.8510 N   0  0  0  0  0  0  0  0  0  0  0  0
   -3.3280   11.3530   -2.3460 S   0  0  0  0  0  0  0  0  0  0  0  0
   -1.6790   14.5720    0.9320 C   0  0  0  0  0  0  0  0  0  0  0  0
   -4.1950   14.6650    1.2040 C   0  0  0  0  0  0  0  0  0  0  0  0
   -3.9300    9.6670   -2.4090 C   0  0  0  0  0  0  0  0  0  0  0  0
   -5.3610    9.6290   -2.0660 N   0  0  0  0  0  0  0  0  0  0  0  0
   -2.8680   15.1340    1.6800 C   0  0  0  0  0  0  0  0  0  0  0  0
  2  1  1  6
  2  3  1  0
  2  4  1  0
  3  5  1  1
  3  6  1  0
  4  7  1  0
  5  8  1  0
  6  9  1  0
  7  9  1  0
  9 10  1  1
  8 11  1  0
 10 12  1  0
 13 11  1  0
 12 14  1  1
 12 15  1  0
 13 16  1  6
 13 17  1  0
 13 18  1  0
 19 17  1  6
 18 20  1  0
 18 21  1  0
 19 22  1  0
 19 23  1  0
 20 24  1  0
 21 25  1  0
 23 26  1  0
 22 27  1  0
 26 27  1  0
 24 28  1  0
 25 28  1  0
M  CHG  1  14  -1
M  END
