ucsf013-ucsf017
     RDKit          3D

 28 33  0  0  0  0  0  0  0  0999 V2000
   -4.7050   15.0220    1.8790 N   0  0  0  0  0  0  0  0  0  0  0  0
   -5.4060   14.1180    1.0170 C   0  0  1  0  0  0  0  0  0  0  0  0
   -6.7290   14.6500    1.2970 N   0  0  0  0  0  0  0  0  0  0  0  0
   -4.9310   14.1440   -0.4550 C   0  0  1  0  0  0  0  0  0  0  0  0
   -6.1210   14.6690   -1.2860 C   0  0  2  0  0  0  0  0  0  0  0  0
   -7.8340   14.3490    0.4210 C   0  0  0  0  0  0  0  0  0  0  0  0
   -3.6410   14.9640   -0.8240 C   0  0  2  0  0  0  0  0  0  0  0  0
   -7.3860   14.0400   -0.9110 N   0  0  0  0  0  0  0  0  0  0  0  0
   -5.8860   14.5080   -2.7960 C   0  0  0  0  0  0  0  0  0  0  0  0
   -3.8340   15.6740   -2.1460 C   0  0  0  0  0  0  0  0  0  0  0  0
   -2.1700   14.8390   -0.3730 C   0  0  1  0  0  0  0  0  0  0  0  0
   -3.7960   16.0010    0.3030 C   0  0  0  0  0  0  0  0  0  0  0  0
   -4.4410   14.7690   -3.1900 C   0  0  0  0  0  0  0  0  0  0  0  0
   -2.3580   14.3980    1.0290 C   0  0  2  0  0  0  0  0  0  0  0  0
   -0.8070   14.3880   -0.9740 C   0  0  2  0  0  0  0  0  0  0  0  0
   -3.3300   15.3310    1.5090 N   0  0  0  0  0  0  0  0  0  0  0  0
   -0.5760   13.6390   -2.1980 N   0  0  0  0  0  0  0  0  0  0  0  0
   -0.0670   13.6480    0.0340 N   0  0  0  0  0  0  0  0  0  0  0  0
   -1.2510   14.6230    1.8370 N   0  0  0  0  0  0  0  0  0  0  0  0
   -1.5170   13.6670   -3.3140 C   0  0  1  0  0  0  0  0  0  0  0  0
    0.5770   12.7560   -2.2820 C   0  0  0  0  0  0  0  0  0  0  0  0
    0.0100   14.3300    1.2890 C   0  0  0  0  0  0  0  0  0  0  0  0
   -1.7290   14.9670   -4.1050 C   0  0  0  0  0  0  0  0  0  0  0  0
   -1.3330   12.6090   -4.4410 C   0  0  1  0  0  0  0  0  0  0  0  0
    0.1450   11.4010   -2.7750 C   0  0  0  0  0  0  0  0  0  0  0  0
   -1.0330   13.4670   -5.6480 C   0  0  0  0  0  0  0  0  0  0  0  0
   -1.8950   14.5880   -5.4770 O   0  0  0  0  0  0  0  0  0  0  0  0
   -0.2500   11.5360   -4.2300 C   0  0  0  0  0  0  0  0  0  0  0  0
  2  1  1  1
  2  3  1  0
  4  2  1  1
  4  5  1  0
  3  6  1  0
  4  7  1  0
  5  8  1  0
  6  8  1  0
  5  9  1  6
  7 10  1  6
  7 11  1  0
  7 12  1  0
  9 13  1  0
 10 13  1  0
 11 14  1  0
 11 15  1  6
 12 16  1  0
 14 16  1  1
 15 17  1  6
 15 18  1  0
 14 19  1  0
 17 20  1  0
 17 21  1  0
 18 22  1  0
 19 22  1  0
 20 23  1  6
 20 24  1  0
 21 25  1  0
 24 26  1  6
 23 27  1  0
 26 27  1  0
 24 28  1  0
 25 28  1  0
M  END
