ucsf247-ucsf260
     RDKit          3D

 26 28  0  0  0  0  0  0  0  0999 V2000
    0.6690   13.4630   -1.5730 O   0  0  0  0  0  0  0  0  0  0  0  0
    0.0540   13.6460   -2.7420 C   0  0  2  0  0  0  0  0  0  0  0  0
    0.9510   13.5050   -3.9220 N   0  0  0  0  0  0  0  0  0  0  0  0
   -0.8130   14.9590   -2.7320 C   0  0  0  0  0  0  0  0  0  0  0  0
   -2.2080   14.6060   -2.9040 N   0  0  0  0  0  0  0  0  0  0  0  0
    1.7560   12.2740   -3.7330 C   0  0  0  0  0  0  0  0  0  0  0  0
    0.2840   13.5290   -5.2800 C   0  0  0  0  0  0  0  0  0  0  0  0
   -3.2000   15.4520   -2.3900 C   0  0  1  0  0  0  0  0  0  0  0  0
    1.1200   11.4050   -2.9230 O   0  0  0  0  0  0  0  0  0  0  0  0
   -0.6470   12.4150   -5.7190 N   0  0  0  0  0  0  0  0  0  0  0  0
   -4.0760   15.6860   -3.4650 O   0  0  0  0  0  0  0  0  0  0  0  0
   -3.9590   15.1280   -1.1010 C   0  0  2  0  0  0  0  0  0  0  0  0
   -1.6800   12.0690   -4.7610 C   0  0  0  0  0  0  0  0  0  0  0  0
   -0.0630   11.1290   -6.0560 C   0  0  1  0  0  0  0  0  0  0  0  0
   -5.4280   15.5080   -1.1120 C   0  0  0  0  0  0  0  0  0  0  0  0
   -3.2920   15.5190    0.2100 C   0  0  0  0  0  0  0  0  0  0  0  0
   -2.3650   10.9230   -5.3840 N   0  0  0  0  0  0  0  0  0  0  0  0
   -1.2240   10.1290   -5.9160 C   0  0  1  0  0  0  0  0  0  0  0  0
    0.5380   11.1790   -7.4790 C   0  0  0  0  0  0  0  0  0  0  0  0
   -6.1800   14.6090   -0.1540 C   0  0  2  0  0  0  0  0  0  0  0  0
   -4.0580   14.9600    1.4060 C   0  0  0  0  0  0  0  0  0  0  0  0
   -1.5330    9.3740   -7.2010 C   0  0  0  0  0  0  0  0  0  0  0  0
    0.7860    9.8140   -8.1350 C   0  0  0  0  0  0  0  0  0  0  0  0
   -7.5450   15.0070   -0.0920 O   0  0  0  0  0  0  0  0  0  0  0  0
   -5.5680   14.6250    1.2520 C   0  0  0  0  0  0  0  0  0  0  0  0
   -0.3060    8.7810   -7.8780 C   0  0  0  0  0  0  0  0  0  0  0  0
  2  1  1  1
  2  3  1  0
  2  4  1  0
  4  5  1  0
  3  6  1  0
  3  7  1  0
  5  8  1  0
  6  9  1  0
  7 10  1  0
  8 11  1  6
  8 12  1  0
 10 13  1  0
 10 14  1  0
 12 15  1  6
 12 16  1  0
 13 17  1  0
 14 18  1  0
 17 18  1  0
 14 19  1  6
 15 20  1  0
 16 21  1  0
 18 22  1  6
 19 23  1  0
 20 24  1  1
 20 25  1  0
 21 25  1  0
 22 26  1  0
 23 26  1  0
M  CHG  2   1  -1   9  -1
M  END
