ucsf028-ucsf320
     RDKit          3D

 27 30  0  0  0  0  0  0  0  0999 V2000
   -3.7640   15.6260    1.8630 N   0  0  0  0  0  0  0  0  0  0  0  0
   -3.2980   15.0260    0.6220 C   0  0  2  0  0  0  0  0  0  0  0  0
   -1.9850   14.2640    0.7130 C   0  0  1  0  0  0  0  0  0  0  0  0
   -3.2580   16.1340   -0.2430 N   0  0  0  0  0  0  0  0  0  0  0  0
   -2.7720   15.7690   -1.5430 C   0  0  0  0  0  0  0  0  0  0  0  0
   -1.2460   14.1040   -0.6300 C   0  0  1  0  0  0  0  0  0  0  0  0
   -0.9470   14.7640    1.6410 N   0  0  0  0  0  0  0  0  0  0  0  0
   -1.5170   15.0870   -1.6380 N   0  0  0  0  0  0  0  0  0  0  0  0
    0.1510   14.4030   -0.2920 N   0  0  0  0  0  0  0  0  0  0  0  0
   -0.0160   15.3850    0.7350 C   0  0  0  0  0  0  0  0  0  0  0  0
   -1.2740   14.7320   -3.0500 C   0  0  2  0  0  0  0  0  0  0  0  0
   -2.6990   14.7950   -3.7260 C   0  0  2  0  0  0  0  0  0  0  0  0
   -0.3460   13.4720   -3.3150 C   0  0  2  0  0  0  0  0  0  0  0  0
   -2.7980   15.9550   -4.3440 O   0  0  0  0  0  0  0  0  0  0  0  0
   -0.7000   12.7740   -4.6160 C   0  0  0  0  0  0  0  0  0  0  0  0
   -0.3850   12.3930   -2.3730 O   0  0  0  0  0  0  0  0  0  0  0  0
   -3.9410   14.6380   -2.7320 C   0  0  2  0  0  0  0  0  0  0  0  0
   -0.0070   11.1420   -3.0640 N   0  0  0  0  0  0  0  0  0  0  0  0
    0.0340   11.4750   -4.4850 C   0  0  1  0  0  0  0  0  0  0  0  0
   -3.9140   13.5940   -1.5860 C   0  0  0  0  0  0  0  0  0  0  0  0
   -5.2960   14.4770   -3.4450 C   0  0  0  0  0  0  0  0  0  0  0  0
   -0.5990   10.5030   -5.3140 O   0  0  0  0  0  0  0  0  0  0  0  0
   -5.1630   13.7140   -0.6920 C   0  0  0  0  0  0  0  0  0  0  0  0
   -6.4350   14.9430   -2.5480 C   0  0  0  0  0  0  0  0  0  0  0  0
   -0.3120   10.7180   -6.6880 C   0  0  0  0  0  0  0  0  0  0  0  0
   -6.0440   14.9170   -1.0700 C   0  0  1  0  0  0  0  0  0  0  0  0
   -7.2530   14.8910   -0.3020 O   0  0  0  0  0  0  0  0  0  0  0  0
  2  1  1  1
  2  3  1  0
  2  4  1  0
  4  5  1  0
  3  6  1  0
  3  7  1  1
  5  8  1  0
  6  8  1  0
  6  9  1  1
  7 10  1  0
  9 10  1  0
 11  8  1  1
 11 12  1  0
 11 13  1  0
 12 14  1  1
 13 15  1  6
 13 16  1  0
 12 17  1  0
 16 18  1  0
 15 19  1  0
 18 19  1  0
 17 20  1  6
 17 21  1  0
 19 22  1  6
 20 23  1  0
 21 24  1  0
 22 25  1  0
 23 26  1  0
 24 26  1  0
 26 27  1  1
M  CHG  1  14  -1
M  END
