ucsf005-ucsf392
     RDKit          3D

 13 14  0  0  0  0  0  0  0  0999 V2000
   -1.3410   14.9630   -3.6400 C   0  0  0  0  0  0  0  0  0  0  0  0
   -2.2060   15.0150   -2.4770 N   0  0  0  0  0  0  0  0  0  0  0  0
   -3.6190   15.0500   -2.7480 C   0  0  0  0  0  0  0  0  0  0  0  0
   -1.9010   14.0960   -1.3960 C   0  0  2  0  0  0  0  0  0  0  0  0
   -4.2840   14.2470   -1.7320 N   0  0  0  0  0  0  0  0  0  0  0  0
   -3.2680   13.9120   -0.6910 C   0  0  2  0  0  0  0  0  0  0  0  0
   -0.8640   14.6720   -0.5550 N   0  0  0  0  0  0  0  0  0  0  0  0
   -3.4460   14.7480    0.5920 C   0  0  2  0  0  0  0  0  0  0  0  0
   -1.0900   14.2960    0.7770 C   0  0  1  0  0  0  0  0  0  0  0  0
   -4.3870   14.1860    1.5220 N   0  0  0  0  0  0  0  0  0  0  0  0
    0.0270   14.7220    1.5190 N   0  0  0  0  0  0  0  0  0  0  0  0
   -4.1770   16.0130    0.1790 C   0  0  0  0  0  0  0  0  0  0  0  0
   -2.2030   15.0200    1.3040 N   0  0  0  0  0  0  0  0  0  0  0  0
  1  2  1  0
  2  3  1  0
  2  4  1  0
  3  5  1  0
  4  6  1  0
  6  5  1  6
  4  7  1  1
  6  8  1  0
  7  9  1  0
  8 10  1  0
  9 11  1  1
  8 12  1  6
  8 13  1  0
  9 13  1  0
M  END
