ucsf274-ucsf260
     RDKit          3D

 16 17  0  0  0  0  0  0  0  0999 V2000
    0.4440   10.7720   -2.2790 O   0  0  0  0  0  0  0  0  0  0  0  0
    0.9010   12.0250   -2.3770 C   0  0  2  0  0  0  0  0  0  0  0  0
    0.6030   12.5360   -1.1020 O   0  0  0  0  0  0  0  0  0  0  0  0
    0.0680   12.8770   -3.3590 C   0  0  0  0  0  0  0  0  0  0  0  0
    0.5530   12.8410   -4.8240 C   0  0  0  0  0  0  0  0  0  0  0  0
   -0.4660   12.2140   -5.8020 C   0  0  2  0  0  0  0  0  0  0  0  0
   -1.8980   11.8850   -5.2060 C   0  0  2  0  0  0  0  0  0  0  0  0
    0.1690   11.0540   -6.4610 N   0  0  0  0  0  0  0  0  0  0  0  0
   -2.1450   12.3840   -3.9140 O   0  0  0  0  0  0  0  0  0  0  0  0
   -2.2350   10.4760   -5.1750 N   0  0  0  0  0  0  0  0  0  0  0  0
   -0.7400   10.2470   -7.2720 C   0  0  2  0  0  0  0  0  0  0  0  0
   -2.0470    9.8700   -6.5040 C   0  0  1  0  0  0  0  0  0  0  0  0
   -0.0220    8.9900   -7.7820 C   0  0  0  0  0  0  0  0  0  0  0  0
   -0.9330    7.9960   -8.5000 C   0  0  0  0  0  0  0  0  0  0  0  0
   -2.2110    8.3480   -6.3360 C   0  0  0  0  0  0  0  0  0  0  0  0
   -2.1110    7.5650   -7.6420 C   0  0  0  0  0  0  0  0  0  0  0  0
  2  1  1  1
  2  3  1  0
  2  4  1  0
  4  5  1  0
  6  5  1  1
  6  7  1  0
  6  8  1  0
  7  9  1  1
  7 10  1  0
  8 11  1  0
 10 12  1  0
 11 12  1  0
 11 13  1  1
 13 14  1  0
 12 15  1  1
 14 16  1  0
 15 16  1  0
M  CHG  1   1  -1
M  END
