ucsf584-ucsf338
     RDKit          3D

 15 16  0  0  0  0  0  0  0  0999 V2000
   -9.1050   14.6460   -0.5160 O   0  0  0  0  0  0  0  0  0  0  0  0
   -8.0280   13.8880   -1.1230 N   0  0  0  0  0  0  0  0  0  0  0  0
   -7.0280   14.7980   -1.6820 C   0  0  2  0  0  0  0  0  0  0  0  0
   -7.1220   14.6710   -3.0850 O   0  0  0  0  0  0  0  0  0  0  0  0
   -5.5610   14.5660   -1.2650 C   0  0  1  0  0  0  0  0  0  0  0  0
   -4.5240   15.0120   -2.3190 C   0  0  0  0  0  0  0  0  0  0  0  0
   -5.2270   15.1410    0.1110 C   0  0  1  0  0  0  0  0  0  0  0  0
   -6.3070   14.8030    1.1820 C   0  0  0  0  0  0  0  0  0  0  0  0
   -3.7960   14.7260    0.5340 C   0  0  0  0  0  0  0  0  0  0  0  0
   -3.1560   15.2200   -1.8280 N   0  0  0  0  0  0  0  0  0  0  0  0
   -6.3450   13.4990    1.7530 N   0  0  0  0  0  0  0  0  0  0  0  0
   -7.6670   14.9020    0.6360 N   0  0  0  0  0  0  0  0  0  0  0  0
   -2.8450   14.4450   -0.6310 C   0  0  0  0  0  0  0  0  0  0  0  0
   -8.5340   14.2990    1.6390 C   0  0  0  0  0  0  0  0  0  0  0  0
   -7.5740   13.5590    2.5430 C   0  0  0  0  0  0  0  0  0  0  0  0
  1  2  1  0
  2  3  1  0
  3  4  1  6
  3  5  1  0
  5  6  1  6
  5  7  1  0
  7  8  1  1
  7  9  1  0
  6 10  1  0
  8 11  1  0
  8 12  1  0
  9 13  1  0
 10 13  1  0
 12 14  1  0
 11 15  1  0
 14 15  1  0
M  END
