ucsf147-ucsf584
     RDKit          3D

 19 21  0  0  0  0  0  0  0  0999 V2000
    1.2450   13.7400   -5.2820 C   0  0  0  0  0  0  0  0  0  0  0  0
   -0.0890   13.3100   -4.6960 C   0  0  2  0  0  0  0  0  0  0  0  0
   -1.1550   13.5990   -5.6230 O   0  0  0  0  0  0  0  0  0  0  0  0
   -0.5170   14.0330   -3.4130 C   0  0  2  0  0  0  0  0  0  0  0  0
    0.4850   13.6350   -2.2750 C   0  0  2  0  0  0  0  0  0  0  0  0
   -2.3730   13.8340   -4.8180 N   0  0  0  0  0  0  0  0  0  0  0  0
   -1.9690   13.4910   -3.4290 C   0  0  2  0  0  0  0  0  0  0  0  0
   -0.1730   13.0000   -1.1860 O   0  0  0  0  0  0  0  0  0  0  0  0
    0.9370   14.7420   -1.7200 O   0  0  0  0  0  0  0  0  0  0  0  0
   -3.0820   13.9350   -2.3770 C   0  0  0  0  0  0  0  0  0  0  0  0
   -2.6750   14.0440   -0.9080 C   0  0  0  0  0  0  0  0  0  0  0  0
   -3.9800   15.1630   -2.6600 C   0  0  0  0  0  0  0  0  0  0  0  0
   -3.8940   13.7130   -0.0330 C   0  0  0  0  0  0  0  0  0  0  0  0
   -4.7820   15.6450   -1.4070 C   0  0  0  0  0  0  0  0  0  0  0  0
   -5.1390   14.6000   -0.3000 C   0  0  0  0  0  0  0  0  0  0  0  0
   -5.4570   15.1860    1.0160 N   0  0  0  0  0  0  0  0  0  0  0  0
   -6.4100   13.8700   -0.6300 N   0  0  0  0  0  0  0  0  0  0  0  0
   -7.4500   14.3270    0.3200 C   0  0  0  0  0  0  0  0  0  0  0  0
   -6.6450   14.5250    1.5720 C   0  0  0  0  0  0  0  0  0  0  0  0
  2  1  1  6
  2  3  1  0
  2  4  1  0
  4  5  1  1
  3  6  1  0
  4  7  1  0
  6  7  1  0
  5  8  1  1
  5  9  1  0
  7 10  1  1
 10 11  1  0
 10 12  1  0
 11 13  1  0
 12 14  1  0
 13 15  1  0
 14 15  1  0
 15 16  1  0
 15 17  1  0
 17 18  1  0
 16 19  1  0
 18 19  1  0
M  CHG  1   9  -1
M  END
