ucsf004-ucsf260
     RDKit          3D

 30 34  0  0  0  0  0  0  0  0999 V2000
   -3.1610   13.1660   -5.1060 F   0  0  0  0  0  0  0  0  0  0  0  0
   -2.2110   13.3710   -4.1480 C   0  0  1  0  0  0  0  0  0  0  0  0
   -0.8130   13.2170   -4.7810 C   0  0  2  0  0  0  0  0  0  0  0  0
   -2.4660   14.7610   -3.5500 C   0  0  0  0  0  0  0  0  0  0  0  0
   -1.3310   15.3400   -2.8270 N   0  0  0  0  0  0  0  0  0  0  0  0
   -0.2570   14.6480   -5.0320 C   0  0  0  0  0  0  0  0  0  0  0  0
   -0.5270   11.9490   -5.5340 N   0  0  0  0  0  0  0  0  0  0  0  0
    0.0940   12.9700   -3.6030 C   0  0  0  0  0  0  0  0  0  0  0  0
   -0.0920   15.3860   -3.6650 C   0  0  0  0  0  0  0  0  0  0  0  0
   -1.2980   15.2720   -1.3340 C   0  0  2  0  0  0  0  0  0  0  0  0
   -1.0660   10.8390   -4.7690 C   0  0  0  0  0  0  0  0  0  0  0  0
   -0.7870   11.5740   -6.9330 C   0  0  2  0  0  0  0  0  0  0  0  0
    1.5300   13.0040   -4.0930 C   0  0  0  0  0  0  0  0  0  0  0  0
   -0.1380   14.5400   -0.8120 N   0  0  0  0  0  0  0  0  0  0  0  0
   -2.5540   14.6300   -0.7380 C   0  0  1  0  0  0  0  0  0  0  0  0
   -2.3030   10.5060   -5.4520 N   0  0  0  0  0  0  0  0  0  0  0  0
   -1.7770   10.3740   -6.8080 C   0  0  2  0  0  0  0  0  0  0  0  0
    0.4140   11.2580   -7.8600 C   0  0  0  0  0  0  0  0  0  0  0  0
    2.1810   12.1270   -3.1050 C   0  0  2  0  0  0  0  0  0  0  0  0
   -0.0300   14.6090    0.6400 C   0  0  0  0  0  0  0  0  0  0  0  0
   -2.4400   14.6350    0.7880 C   0  0  1  0  0  0  0  0  0  0  0  0
   -3.8940   15.2600   -1.0530 C   0  0  0  0  0  0  0  0  0  0  0  0
   -1.1990    8.9690   -6.9880 C   0  0  0  0  0  0  0  0  0  0  0  0
    0.7410    9.8190   -8.2580 C   0  0  0  0  0  0  0  0  0  0  0  0
    1.3330   11.1320   -2.8900 O   0  0  0  0  0  0  0  0  0  0  0  0
    2.0790   12.8390   -1.9060 O   0  0  0  0  0  0  0  0  0  0  0  0
   -1.2140   15.2000    1.2360 N   0  0  0  0  0  0  0  0  0  0  0  0
   -3.5590   15.3760    1.3440 N   0  0  0  0  0  0  0  0  0  0  0  0
   -4.5780   15.4320    0.2870 C   0  0  0  0  0  0  0  0  0  0  0  0
   -0.4550    8.8910   -8.2970 C   0  0  0  0  0  0  0  0  0  0  0  0
  2  1  1  6
  2  3  1  0
  2  4  1  0
  4  5  1  0
  3  6  1  0
  3  7  1  0
  3  8  1  1
  5  9  1  0
  6  9  1  0
 10  5  1  6
  7 11  1  0
  7 12  1  0
  8 13  1  0
 10 14  1  0
 10 15  1  0
 11 16  1  0
 12 17  1  0
 16 17  1  0
 12 18  1  1
 13 19  1  0
 14 20  1  0
 15 21  1  0
 15 22  1  1
 17 23  1  1
 18 24  1  0
 19 25  1  1
 19 26  1  0
 20 27  1  0
 21 27  1  6
 21 28  1  0
 22 29  1  0
 28 29  1  0
 23 30  1  0
 24 30  1  0
M  CHG  1  25  -1
M  END
