ucsf123-ucsf365
     RDKit          3D

 15 15  0  0  0  0  0  0  0  0999 V2000
   -1.9520   18.6120   -4.9820 N   0  0  0  0  0  0  0  0  0  0  0  0
   -1.5790   17.1420   -5.5990 S   0  0  0  0  0  0  0  0  0  0  0  0
   -0.2680   17.3670   -6.4690 O   0  0  0  0  0  0  0  0  0  0  0  0
   -2.7440   16.6980   -6.6030 O   0  0  0  0  0  0  0  0  0  0  0  0
   -1.1970   15.7700   -4.4910 C   0  0  2  0  0  0  0  0  0  0  0  0
    0.1290   16.0810   -3.8290 C   0  0  0  0  0  0  0  0  0  0  0  0
   -1.1250   14.2910   -5.0320 C   0  0  2  0  0  0  0  0  0  0  0  0
   -2.1440   13.4320   -4.4780 O   0  0  0  0  0  0  0  0  0  0  0  0
    0.3890   15.0440   -2.7530 C   0  0  0  0  0  0  0  0  0  0  0  0
    0.2620   13.6220   -4.8140 C   0  0  2  0  0  0  0  0  0  0  0  0
    0.3930   12.2090   -5.3570 C   0  0  0  0  0  0  0  0  0  0  0  0
    0.9290   13.7660   -3.4050 C   0  0  2  0  0  0  0  0  0  0  0  0
    1.0330   12.5600   -2.3870 C   0  0  1  0  0  0  0  0  0  0  0  0
    0.5630   12.8820   -1.1000 O   0  0  0  0  0  0  0  0  0  0  0  0
    0.2290   11.5730   -2.6900 O   0  0  0  0  0  0  0  0  0  0  0  0
  1  2  1  0
  2  3  1  0
  2  4  1  0
  5  2  1  6
  5  6  1  0
  5  7  1  0
  7  8  1  1
  6  9  1  0
  7 10  1  0
 10 11  1  1
 12  9  1  1
 10 12  1  0
 12 13  1  0
 13 14  1  1
 13 15  1  0
M  CHG  1  15  -1
M  END
