ucsf013-ucsf147
     RDKit          3D

 19 21  0  0  0  0  0  0  0  0999 V2000
   -3.7380   15.0700    1.8080 N   0  0  0  0  0  0  0  0  0  0  0  0
   -4.5680   14.4110    0.8470 C   0  0  1  0  0  0  0  0  0  0  0  0
   -5.9210   14.7760    1.2470 N   0  0  0  0  0  0  0  0  0  0  0  0
   -4.1640   14.7630   -0.5960 C   0  0  2  0  0  0  0  0  0  0  0  0
   -5.3470   14.3540   -1.4630 C   0  0  1  0  0  0  0  0  0  0  0  0
   -6.9800   14.3900    0.3440 C   0  0  0  0  0  0  0  0  0  0  0  0
   -2.8560   14.0600   -1.1130 C   0  0  0  0  0  0  0  0  0  0  0  0
   -6.6660   14.8430   -0.9830 N   0  0  0  0  0  0  0  0  0  0  0  0
   -5.0790   14.7990   -2.8890 C   0  0  0  0  0  0  0  0  0  0  0  0
   -2.4950   14.2970   -2.6460 C   0  0  2  0  0  0  0  0  0  0  0  0
   -3.6140   15.2430   -3.1830 C   0  0  0  0  0  0  0  0  0  0  0  0
   -2.6860   13.0620   -3.5050 N   0  0  0  0  0  0  0  0  0  0  0  0
   -0.9380   14.4350   -3.0000 C   0  0  1  0  0  0  0  0  0  0  0  0
    0.2360   13.9280   -2.1030 C   0  0  2  0  0  0  0  0  0  0  0  0
   -0.7930   14.1120   -4.4970 C   0  0  2  0  0  0  0  0  0  0  0  0
   -1.9190   13.2540   -4.7690 O   0  0  0  0  0  0  0  0  0  0  0  0
    0.4800   13.4550   -5.0620 C   0  0  0  0  0  0  0  0  0  0  0  0
   -0.2330   13.1950   -0.9730 O   0  0  0  0  0  0  0  0  0  0  0  0
    0.9060   14.9110   -1.5620 O   0  0  0  0  0  0  0  0  0  0  0  0
  2  1  1  1
  2  3  1  0
  2  4  1  0
  4  5  1  0
  3  6  1  0
  4  7  1  6
  5  8  1  0
  6  8  1  0
  5  9  1  6
 10  7  1  1
  9 11  1  0
 10 11  1  0
 10 12  1  0
 10 13  1  0
 13 14  1  1
 13 15  1  0
 12 16  1  0
 15 16  1  0
 15 17  1  1
 14 18  1  1
 14 19  1  0
M  CHG  1  19  -1
M  END
