ucsf030-ucsf333
     RDKit          3D

 27 29  0  0  0  0  0  0  0  0999 V2000
   -4.6050   14.3140   -0.6690 Cl  0  0  0  0  0  0  0  0  0  0  0  0
   -3.1240   13.7040    0.1520 C   0  0  2  0  0  0  0  0  0  0  0  0
   -2.9060   14.4780    1.4760 C   0  0  2  0  0  0  0  0  0  0  0  0
   -1.8280   13.7190   -0.7360 C   0  0  1  0  0  0  0  0  0  0  0  0
   -3.9160   15.4390    1.8780 N   0  0  0  0  0  0  0  0  0  0  0  0
   -0.6130   14.2160   -0.1140 N   0  0  0  0  0  0  0  0  0  0  0  0
   -1.7030   15.2600    1.5550 N   0  0  0  0  0  0  0  0  0  0  0  0
   -1.4130   12.4780   -1.3620 N   0  0  0  0  0  0  0  0  0  0  0  0
   -0.5710   14.4290    1.2810 C   0  0  0  0  0  0  0  0  0  0  0  0
   -0.1400   12.6940   -2.0110 C   0  0  0  0  0  0  0  0  0  0  0  0
   -2.4130   11.8890   -2.2860 C   0  0  0  0  0  0  0  0  0  0  0  0
   -0.5420   13.0840   -3.4020 C   0  0  2  0  0  0  0  0  0  0  0  0
   -1.7710   11.0520   -3.4270 C   0  0  0  0  0  0  0  0  0  0  0  0
   -0.8170   11.8860   -4.2730 C   0  0  0  0  0  0  0  0  0  0  0  0
   -0.0780   14.4020   -4.0080 C   0  0  1  0  0  0  0  0  0  0  0  0
    0.8650   14.1800   -5.2150 C   0  0  0  0  0  0  0  0  0  0  0  0
   -1.3260   15.3390   -4.2110 C   0  0  1  0  0  0  0  0  0  0  0  0
    1.8480   12.9960   -5.0160 C   0  0  0  0  0  0  0  0  0  0  0  0
   -2.7220   14.6090   -4.1030 C   0  0  0  0  0  0  0  0  0  0  0  0
   -1.3380   16.4190   -3.1410 C   0  0  0  0  0  0  0  0  0  0  0  0
    2.2830   12.6290   -3.5610 C   0  0  1  0  0  0  0  0  0  0  0  0
   -3.7220   15.3280   -3.1770 C   0  0  1  0  0  0  0  0  0  0  0  0
   -1.7160   15.8390   -1.7830 C   0  0  0  0  0  0  0  0  0  0  0  0
    2.1220   13.6410   -2.7410 O   0  0  0  0  0  0  0  0  0  0  0  0
    1.4000   11.6690   -3.0340 O   0  0  0  0  0  0  0  0  0  0  0  0
   -5.3530   14.5780   -3.1510 Cl  0  0  0  0  0  0  0  0  0  0  0  0
   -3.1930   15.5030   -1.7560 C   0  0  0  0  0  0  0  0  0  0  0  0
  2  1  1  6
  2  3  1  0
  2  4  1  0
  3  5  1  6
  4  6  1  0
  3  7  1  0
  4  8  1  1
  6  9  1  0
  7  9  1  0
  8 10  1  0
  8 11  1  0
 12 10  1  1
 11 13  1  0
 12 14  1  0
 13 14  1  0
 12 15  1  0
 15 16  1  6
 15 17  1  0
 16 18  1  0
 17 19  1  1
 17 20  1  0
 18 21  1  0
 19 22  1  0
 20 23  1  0
 21 24  1  1
 21 25  1  0
 22 26  1  1
 22 27  1  0
 23 27  1  0
M  CHG  1  24  -1
M  END
