ucsf422-ucsf320
     RDKit          3D

 24 26  0  0  0  0  0  0  0  0999 V2000
    0.4610   10.9980   -2.7510 O   0  0  0  0  0  0  0  0  0  0  0  0
    1.2680   12.0140   -2.9930 C   0  0  2  0  0  0  0  0  0  0  0  0
    0.9100   12.8680   -1.9350 O   0  0  0  0  0  0  0  0  0  0  0  0
    0.9760   12.6900   -4.3560 C   0  0  0  0  0  0  0  0  0  0  0  0
    0.7380   14.1740   -4.1100 C   0  0  1  0  0  0  0  0  0  0  0  0
    1.9780   15.0480   -4.0770 C   0  0  0  0  0  0  0  0  0  0  0  0
   -0.2450   14.9680   -4.9460 C   0  0  2  0  0  0  0  0  0  0  0  0
    1.6070   16.3220   -4.7460 N   0  0  0  0  0  0  0  0  0  0  0  0
    0.1560   16.3910   -4.6430 C   0  0  1  0  0  0  0  0  0  0  0  0
   -1.7290   14.7950   -4.7930 C   0  0  1  0  0  0  0  0  0  0  0  0
   -2.0810   14.2140   -3.5490 O   0  0  0  0  0  0  0  0  0  0  0  0
   -0.5090   17.4490   -5.5210 C   0  0  0  0  0  0  0  0  0  0  0  0
   -2.6370   15.9710   -5.1370 C   0  0  2  0  0  0  0  0  0  0  0  0
   -4.1560   15.3440   -6.1860 Br  0  0  0  0  0  0  0  0  0  0  0  0
   -1.9330   15.0780   -2.4040 C   0  0  2  0  0  0  0  0  0  0  0  0
   -2.0180   17.2670   -5.7210 C   0  0  0  0  0  0  0  0  0  0  0  0
   -1.1360   14.5240   -1.5150 O   0  0  0  0  0  0  0  0  0  0  0  0
   -3.3720   15.2220   -1.8300 C   0  0  2  0  0  0  0  0  0  0  0  0
   -3.4940   14.7960   -0.3560 C   0  0  0  0  0  0  0  0  0  0  0  0
   -4.4990   14.6460   -2.7120 C   0  0  0  0  0  0  0  0  0  0  0  0
   -4.9220   14.6290    0.1300 C   0  0  0  0  0  0  0  0  0  0  0  0
   -5.9080   14.9030   -2.2090 C   0  0  0  0  0  0  0  0  0  0  0  0
   -5.9350   15.3440   -0.7560 C   0  0  1  0  0  0  0  0  0  0  0  0
   -7.2460   15.1030   -0.2330 O   0  0  0  0  0  0  0  0  0  0  0  0
  2  1  1  1
  2  3  1  0
  2  4  1  0
  5  4  1  6
  5  6  1  0
  7  5  1  1
  6  8  1  0
  7  9  1  0
  8  9  1  0
  7 10  1  0
 10 11  1  1
  9 12  1  6
 10 13  1  0
 13 14  1  6
 11 15  1  0
 12 16  1  0
 13 16  1  0
 15 17  1  1
 15 18  1  0
 18 19  1  1
 18 20  1  0
 19 21  1  0
 20 22  1  0
 21 23  1  0
 22 23  1  0
 23 24  1  1
M  CHG  2   1  -1  17  -1
M  END
