ucsf584-ucsf012
     RDKit          3D

 24 27  0  0  0  0  0  0  0  0999 V2000
   -3.6530   15.3130   -4.2110 C   0  0  0  0  0  0  0  0  0  0  0  0
   -3.8160   14.7640   -2.7830 C   0  0  1  0  0  0  0  0  0  0  0  0
   -2.6580   15.0520   -1.9670 N   0  0  0  0  0  0  0  0  0  0  0  0
   -5.1450   15.0740   -2.1130 C   0  0  0  0  0  0  0  0  0  0  0  0
   -1.3990   14.6280   -2.7040 C   0  0  0  0  0  0  0  0  0  0  0  0
   -2.7640   14.4180   -0.6040 C   0  0  2  0  0  0  0  0  0  0  0  0
   -5.4520   14.1370   -0.9450 C   0  0  2  0  0  0  0  0  0  0  0  0
   -6.4930   14.7430    0.0140 C   0  0  0  0  0  0  0  0  0  0  0  0
   -4.1040   13.6160   -0.3540 C   0  0  0  0  0  0  0  0  0  0  0  0
   -1.1280   13.0970   -2.9090 C   0  0  2  0  0  0  0  0  0  0  0  0
   -2.6120   15.2280    0.7690 C   0  0  2  0  0  0  0  0  0  0  0  0
   -1.5460   13.4860   -0.3880 C   0  0  0  0  0  0  0  0  0  0  0  0
   -3.6080   16.2440    1.0320 N   0  0  0  0  0  0  0  0  0  0  0  0
   -6.2340   14.5090    1.4330 N   0  0  0  0  0  0  0  0  0  0  0  0
   -7.8260   14.2210   -0.2000 N   0  0  0  0  0  0  0  0  0  0  0  0
    0.2160   12.6410   -2.3410 C   0  0  0  0  0  0  0  0  0  0  0  0
   -1.0780   12.6780   -4.2840 O   0  0  0  0  0  0  0  0  0  0  0  0
   -1.2970   15.7220    1.1470 N   0  0  0  0  0  0  0  0  0  0  0  0
   -0.2660   14.1450   -0.3340 N   0  0  0  0  0  0  0  0  0  0  0  0
   -8.5730   14.5790    0.9990 C   0  0  0  0  0  0  0  0  0  0  0  0
   -7.5440   14.4790    2.1130 C   0  0  0  0  0  0  0  0  0  0  0  0
   -0.4620   11.3930   -4.2620 C   0  0  0  0  0  0  0  0  0  0  0  0
    0.6230   11.4910   -3.2120 C   0  0  0  0  0  0  0  0  0  0  0  0
   -0.1510   14.8750    0.8930 C   0  0  0  0  0  0  0  0  0  0  0  0
  2  1  1  6
  2  3  1  0
  2  4  1  0
  3  5  1  0
  6  3  1  0
  4  7  1  0
  7  8  1  1
  6  9  1  1
  7  9  1  0
 10  5  1  6
  6 11  1  0
  6 12  1  0
 11 13  1  6
  8 14  1  0
  8 15  1  0
 10 16  1  0
 10 17  1  0
 11 18  1  0
 12 19  1  0
 15 20  1  0
 14 21  1  0
 20 21  1  0
 17 22  1  0
 16 23  1  0
 22 23  1  0
 18 24  1  0
 19 24  1  0
M  END
