ucsf357-ucsf339
     RDKit          3D

 17 18  0  0  0  0  0  0  0  0999 V2000
   -5.6800   15.6300   -2.4100 O   0  0  0  0  0  0  0  0  0  0  0  0
   -5.1760   15.5720   -1.2020 C   0  0  1  0  0  0  0  0  0  0  0  0
   -6.3610   15.4100   -0.4470 O   0  0  0  0  0  0  0  0  0  0  0  0
   -4.3110   14.2850   -1.0080 C   0  0  1  0  0  0  0  0  0  0  0  0
   -3.5480   13.9610   -2.3260 C   0  0  0  0  0  0  0  0  0  0  0  0
   -3.3860   14.2950    0.2510 C   0  0  1  0  0  0  0  0  0  0  0  0
   -5.3110   13.1550   -0.6860 C   0  0  0  0  0  0  0  0  0  0  0  0
   -2.1890   14.6250   -2.4270 C   0  0  2  0  0  0  0  0  0  0  0  0
   -1.8590   14.5790    0.1410 C   0  0  0  0  0  0  0  0  0  0  0  0
   -4.0870   15.0590    1.3730 C   0  0  0  0  0  0  0  0  0  0  0  0
   -5.8220   13.1990    0.7690 C   0  0  0  0  0  0  0  0  0  0  0  0
   -1.6870   14.3560   -3.6740 F   0  0  0  0  0  0  0  0  0  0  0  0
   -1.2510   14.2190   -1.2470 C   0  0  2  0  0  0  0  0  0  0  0  0
   -5.4850   14.4580    1.5980 C   0  0  0  0  0  0  0  0  0  0  0  0
    0.2240   14.4250   -1.4320 N   0  0  0  0  0  0  0  0  0  0  0  0
    0.5880   14.4320   -2.8200 O   0  0  0  0  0  0  0  0  0  0  0  0
    0.8520   13.1970   -0.9750 O   0  0  0  0  0  0  0  0  0  0  0  0
  2  1  1  6
  2  3  1  0
  2  4  1  0
  4  5  1  6
  4  6  1  0
  4  7  1  0
  5  8  1  0
  6  9  1  6
  6 10  1  0
  7 11  1  0
  8 12  1  6
  8 13  1  0
  9 13  1  0
 10 14  1  0
 11 14  1  0
 13 15  1  6
 15 16  1  0
 15 17  1  0
M  CHG  2   1  -1  16  -1
M  END
