ucsf169-ucsf493
     RDKit          3D

 17 18  0  0  0  0  0  0  0  0999 V2000
    1.1720   18.3580   -5.7220 C   0  0  0  0  0  0  0  0  0  0  0  0
    0.0420   17.5390   -5.8480 O   0  0  0  0  0  0  0  0  0  0  0  0
   -0.4000   16.9370   -4.6260 C   0  0  1  0  0  0  0  0  0  0  0  0
   -1.7850   16.4200   -4.9840 C   0  0  2  0  0  0  0  0  0  0  0  0
    0.4830   15.7550   -4.1050 C   0  0  1  0  0  0  0  0  0  0  0  0
   -2.8890   17.1880   -5.2850 O   0  0  0  0  0  0  0  0  0  0  0  0
   -2.2940   15.2400   -4.2180 C   0  0  0  0  0  0  0  0  0  0  0  0
   -0.0890   14.2840   -4.1880 C   0  0  1  0  0  0  0  0  0  0  0  0
    1.8200   15.6300   -4.7270 N   0  0  0  0  0  0  0  0  0  0  0  0
   -0.1630   13.6370   -2.8030 C   0  0  0  0  0  0  0  0  0  0  0  0
   -3.7360   16.2210   -5.9600 C   0  0  0  0  0  0  0  0  0  0  0  0
   -1.4930   14.1020   -4.7420 C   0  0  0  0  0  0  0  0  0  0  0  0
    0.9790   13.5270   -4.9630 C   0  0  0  0  0  0  0  0  0  0  0  0
    2.1700   14.2380   -4.4200 C   0  0  0  0  0  0  0  0  0  0  0  0
    0.7990   12.5290   -2.3840 C   0  0  1  0  0  0  0  0  0  0  0  0
    0.7150   12.6590   -0.9950 O   0  0  0  0  0  0  0  0  0  0  0  0
    0.2660   11.3360   -2.5480 O   0  0  0  0  0  0  0  0  0  0  0  0
  1  2  1  0
  3  2  1  6
  3  4  1  0
  3  5  1  0
  4  6  1  1
  4  7  1  0
  5  8  1  0
  5  9  1  6
  8 10  1  1
  6 11  1  0
  7 12  1  0
  8 12  1  0
  8 13  1  0
  9 14  1  0
 13 14  1  0
 10 15  1  0
 15 16  1  1
 15 17  1  0
M  CHG  1  17  -1
M  END
