ucsf487-ucsf012
     RDKit          3D

 29 33  0  0  0  0  0  0  0  0999 V2000
   -9.1420   13.9410    2.4230 N   0  0  0  0  0  0  0  0  0  0  0  0
   -8.1450   13.4860    1.4520 C   0  0  1  0  0  0  0  0  0  0  0  0
   -8.3350   14.1740    0.0600 C   0  0  0  0  0  0  0  0  0  0  0  0
   -6.7660   13.7390    2.0480 C   0  0  0  0  0  0  0  0  0  0  0  0
   -6.0050   14.5640    1.0680 C   0  0  2  0  0  0  0  0  0  0  0  0
   -7.2680   13.8920   -0.9230 N   0  0  0  0  0  0  0  0  0  0  0  0
   -5.9620   13.8450   -0.2590 C   0  0  1  0  0  0  0  0  0  0  0  0
   -4.6690   15.1370    1.6000 C   0  0  0  0  0  0  0  0  0  0  0  0
   -4.7470   14.4220   -0.9910 C   0  0  1  0  0  0  0  0  0  0  0  0
   -3.9600   16.0670    0.6180 C   0  0  0  0  0  0  0  0  0  0  0  0
   -4.3810   13.9780   -2.3730 C   0  0  0  0  0  0  0  0  0  0  0  0
   -4.5690   15.9050   -0.7620 C   0  0  0  0  0  0  0  0  0  0  0  0
   -2.8630   13.9090   -2.4460 C   0  0  1  0  0  0  0  0  0  0  0  0
   -2.1790   14.7340   -3.5500 C   0  0  1  0  0  0  0  0  0  0  0  0
   -2.0140   14.1820   -1.1410 C   0  0  1  0  0  0  0  0  0  0  0  0
   -2.9670   15.9360   -4.0330 C   0  0  0  0  0  0  0  0  0  0  0  0
   -1.1090   15.3130   -1.5640 C   0  0  2  0  0  0  0  0  0  0  0  0
   -0.8920   15.1820   -2.9970 N   0  0  0  0  0  0  0  0  0  0  0  0
   -2.5150   14.6590    0.2320 C   0  0  1  0  0  0  0  0  0  0  0  0
   -3.0910   13.6840    1.1230 N   0  0  0  0  0  0  0  0  0  0  0  0
    0.1560   14.2350   -3.3510 C   0  0  0  0  0  0  0  0  0  0  0  0
   -1.3780   15.0650    1.0370 N   0  0  0  0  0  0  0  0  0  0  0  0
    0.1430   15.1490   -0.8810 N   0  0  0  0  0  0  0  0  0  0  0  0
   -0.0490   14.7860    0.5120 C   0  0  0  0  0  0  0  0  0  0  0  0
   -0.2440   12.7670   -3.1960 C   0  0  2  0  0  0  0  0  0  0  0  0
    0.8030   11.9120   -2.5480 C   0  0  0  0  0  0  0  0  0  0  0  0
   -0.5220   12.0730   -4.4140 O   0  0  0  0  0  0  0  0  0  0  0  0
   -0.5460   10.6870   -4.0490 C   0  0  0  0  0  0  0  0  0  0  0  0
    0.0900   10.5960   -2.6710 C   0  0  0  0  0  0  0  0  0  0  0  0
  2  1  1  1
  2  3  1  0
  2  4  1  0
  5  4  1  1
  3  6  1  0
  5  7  1  0
  7  6  1  6
  5  8  1  0
  7  9  1  0
  8 10  1  0
  9 11  1  6
  9 12  1  0
 10 12  1  0
 13 11  1  1
 13 14  1  0
 13 15  1  0
 14 16  1  1
 15 17  1  0
 14 18  1  0
 17 18  1  0
 15 19  1  1
 19 20  1  1
 18 21  1  0
 19 22  1  0
 17 23  1  1
 22 24  1  0
 23 24  1  0
 25 21  1  6
 25 26  1  0
 25 27  1  0
 27 28  1  0
 26 29  1  0
 28 29  1  0
M  END
