ucsf278-ucsf411
     RDKit          3D

 26 29  0  0  0  0  0  0  0  0999 V2000
   -1.3580   13.7740   -1.1030 Cl  0  0  0  0  0  0  0  0  0  0  0  0
   -0.4610   14.3080   -2.5580 C   0  0  2  0  0  0  0  0  0  0  0  0
   -0.5650   13.3020   -3.7570 C   0  0  2  0  0  0  0  0  0  0  0  0
    1.0110   14.6830   -2.1520 C   0  0  0  0  0  0  0  0  0  0  0  0
   -1.5190   12.1430   -3.8620 C   0  0  0  0  0  0  0  0  0  0  0  0
    0.7910   12.8050   -4.3050 C   0  0  1  0  0  0  0  0  0  0  0  0
    1.9220   14.8930   -3.3720 C   0  0  0  0  0  0  0  0  0  0  0  0
   -0.8710   11.3400   -4.9980 C   0  0  2  0  0  0  0  0  0  0  0  0
    0.3570   12.0440   -5.4810 N   0  0  0  0  0  0  0  0  0  0  0  0
    1.0570   14.2500   -4.4380 C   0  0  2  0  0  0  0  0  0  0  0  0
    1.4760   11.9820   -3.2360 C   0  0  0  0  0  0  0  0  0  0  0  0
   -1.7840   11.1100   -6.1990 C   0  0  0  0  0  0  0  0  0  0  0  0
    0.0280   14.9450   -5.3040 C   0  0  2  0  0  0  0  0  0  0  0  0
    0.4060   11.4090   -2.3070 C   0  0  1  0  0  0  0  0  0  0  0  0
   -2.8030   10.1940   -5.8050 O   0  0  0  0  0  0  0  0  0  0  0  0
   -0.2540   16.3340   -4.8150 C   0  0  2  0  0  0  0  0  0  0  0  0
   -1.2240   14.0390   -5.5470 C   0  0  0  0  0  0  0  0  0  0  0  0
    0.6710   10.1900   -1.9440 O   0  0  0  0  0  0  0  0  0  0  0  0
    0.4750   12.1710   -1.1310 O   0  0  0  0  0  0  0  0  0  0  0  0
   -1.5140   16.9210   -5.4480 C   0  0  1  0  0  0  0  0  0  0  0  0
   -2.6390   14.6390   -5.5560 C   0  0  0  0  0  0  0  0  0  0  0  0
    1.0140   17.0700   -5.1330 C   0  0  0  0  0  0  0  0  0  0  0  0
   -2.7620   16.1030   -5.1560 C   0  0  0  0  0  0  0  0  0  0  0  0
   -1.6070   18.4000   -5.2450 C   0  0  0  0  0  0  0  0  0  0  0  0
    0.8390   18.5320   -5.2650 C   0  0  0  0  0  0  0  0  0  0  0  0
   -0.4260   18.9080   -6.0220 C   0  0  0  0  0  0  0  0  0  0  0  0
  2  1  1  1
  2  3  1  0
  2  4  1  0
  3  5  1  1
  3  6  1  0
  4  7  1  0
  5  8  1  0
  6  9  1  0
  8  9  1  0
  6 10  1  0
 10  7  1  1
  6 11  1  1
  8 12  1  6
 10 13  1  0
 11 14  1  0
 12 15  1  0
 13 16  1  0
 13 17  1  1
 14 18  1  1
 14 19  1  0
 16 20  1  0
 17 21  1  0
 16 22  1  6
 20 23  1  1
 21 23  1  0
 20 24  1  0
 22 25  1  0
 24 26  1  0
 25 26  1  0
M  CHG  1  18  -1
M  END
