ucsf004-ucsf005
     RDKit          3D

 18 20  0  0  0  0  0  0  0  0999 V2000
   -1.7000   12.0780   -4.6220 F   0  0  0  0  0  0  0  0  0  0  0  0
   -1.3950   13.3720   -4.9150 C   0  0  2  0  0  0  0  0  0  0  0  0
    0.0800   13.4800   -5.2590 C   0  0  0  0  0  0  0  0  0  0  0  0
   -1.7990   14.2490   -3.7250 C   0  0  0  0  0  0  0  0  0  0  0  0
   -0.7970   14.5450   -2.6460 N   0  0  0  0  0  0  0  0  0  0  0  0
    0.6790   14.7440   -4.6630 C   0  0  0  0  0  0  0  0  0  0  0  0
    0.5860   14.6800   -3.1430 C   0  0  0  0  0  0  0  0  0  0  0  0
   -1.0590   13.9270   -1.3290 C   0  0  1  0  0  0  0  0  0  0  0  0
   -0.2500   14.5780   -0.2960 N   0  0  0  0  0  0  0  0  0  0  0  0
   -2.5860   13.9370   -1.0700 C   0  0  1  0  0  0  0  0  0  0  0  0
   -0.7570   14.3940    1.0630 C   0  0  0  0  0  0  0  0  0  0  0  0
   -2.9680   14.0790    0.3860 C   0  0  1  0  0  0  0  0  0  0  0  0
   -3.4850   14.9540   -1.7750 C   0  0  2  0  0  0  0  0  0  0  0  0
   -2.8320   15.7930   -2.8670 C   0  0  0  0  0  0  0  0  0  0  0  0
   -2.1130   14.9580    1.0890 N   0  0  0  0  0  0  0  0  0  0  0  0
   -4.2730   14.7430    0.4070 N   0  0  0  0  0  0  0  0  0  0  0  0
   -4.0630   15.7540   -0.6040 C   0  0  0  0  0  0  0  0  0  0  0  0
   -2.8730   14.9370    2.3260 N   0  0  0  0  0  0  0  0  0  0  0  0
  2  1  1  1
  2  3  1  0
  2  4  1  0
  4  5  1  0
  3  6  1  0
  5  7  1  0
  6  7  1  0
  8  5  1  6
  8  9  1  0
 10  8  1  1
  9 11  1  0
 10 12  1  0
 10 13  1  0
 13 14  1  6
 11 15  1  0
 12 15  1  0
 12 16  1  6
 13 17  1  0
 16 17  1  0
 15 18  1  0
M  END
