ucsf224-ucsf371
     RDKit          3D

 20 21  0  0  0  0  0  0  0  0999 V2000
   -1.3220   18.3810   -6.0370 Cl  0  0  0  0  0  0  0  0  0  0  0  0
   -0.6700   17.3290   -4.7440 C   0  0  1  0  0  0  0  0  0  0  0  0
   -1.5050   16.1310   -4.3190 C   0  0  1  0  0  0  0  0  0  0  0  0
    0.8400   17.0270   -4.9150 C   0  0  0  0  0  0  0  0  0  0  0  0
   -2.7930   15.5920   -5.4660 Cl  0  0  0  0  0  0  0  0  0  0  0  0
   -0.5820   15.1040   -3.6790 C   0  0  2  0  0  0  0  0  0  0  0  0
    1.2750   15.5500   -5.1110 C   0  0  0  0  0  0  0  0  0  0  0  0
    0.3200   14.4170   -4.7180 C   0  0  1  0  0  0  0  0  0  0  0  0
   -0.8640   14.4800   -2.2970 C   0  0  1  0  0  0  0  0  0  0  0  0
    1.0790   13.1300   -4.1620 C   0  0  0  0  0  0  0  0  0  0  0  0
   -0.2960   15.2840   -1.4240 O   0  0  0  0  0  0  0  0  0  0  0  0
   -2.3640   14.3280   -1.9220 C   0  0  2  0  0  0  0  0  0  0  0  0
    0.4890   12.4600   -2.8760 C   0  0  1  0  0  0  0  0  0  0  0  0
   -3.4680   15.0150   -2.7430 C   0  0  0  0  0  0  0  0  0  0  0  0
   -2.6560   15.2020   -0.3560 S   0  0  0  0  0  0  0  0  0  0  0  0
    0.6420   11.1490   -2.8700 O   0  0  0  0  0  0  0  0  0  0  0  0
    1.2820   12.8270   -1.7730 O   0  0  0  0  0  0  0  0  0  0  0  0
   -4.3500   14.6770   -0.5760 C   0  0  2  0  0  0  0  0  0  0  0  0
   -4.7390   14.8690   -1.9820 N   0  0  0  0  0  0  0  0  0  0  0  0
   -5.2200   15.4990    0.3120 C   0  0  0  0  0  0  0  0  0  0  0  0
  2  1  1  6
  2  3  1  0
  2  4  1  0
  3  5  1  6
  3  6  1  0
  4  7  1  0
  6  8  1  6
  7  8  1  0
  6  9  1  0
  8 10  1  1
  9 11  1  1
  9 12  1  0
 10 13  1  0
 12 14  1  6
 12 15  1  0
 13 16  1  6
 13 17  1  0
 15 18  1  0
 14 19  1  0
 18 19  1  0
 18 20  1  1
M  CHG  2  11  -1  16  -1
M  END
