ucsf422-ucsf516
     RDKit          3D

 32 37  0  0  0  0  0  0  0  0999 V2000
    0.4580   10.9730   -6.1960 O   0  0  0  0  0  0  0  0  0  0  0  0
    0.8930   11.9830   -5.4810 C   0  0  1  0  0  0  0  0  0  0  0  0
    2.2400   12.1680   -5.8070 O   0  0  0  0  0  0  0  0  0  0  0  0
    0.1800   13.2280   -5.8140 C   0  0  0  0  0  0  0  0  0  0  0  0
    0.7070   11.6570   -4.0120 C   0  0  2  0  0  0  0  0  0  0  0  0
    0.8000   14.5200   -5.3120 C   0  0  2  0  0  0  0  0  0  0  0  0
   -0.1190   10.3990   -3.6340 C   0  0  0  0  0  0  0  0  0  0  0  0
   -0.2140   12.3920   -3.0030 C   0  0  2  0  0  0  0  0  0  0  0  0
    1.7230   14.5960   -4.1050 C   0  0  0  0  0  0  0  0  0  0  0  0
   -0.1050   15.6630   -5.0530 C   0  0  2  0  0  0  0  0  0  0  0  0
   -0.2840   11.0350   -2.2630 C   0  0  0  0  0  0  0  0  0  0  0  0
   -1.4870   13.1230   -3.3270 C   0  0  1  0  0  0  0  0  0  0  0  0
    1.8270   16.0690   -3.8500 N   0  0  0  0  0  0  0  0  0  0  0  0
    0.8920   16.7190   -4.7780 C   0  0  2  0  0  0  0  0  0  0  0  0
   -1.1100   15.5870   -3.9560 C   0  0  0  0  0  0  0  0  0  0  0  0
   -2.3840   12.2780   -4.2170 C   0  0  0  0  0  0  0  0  0  0  0  0
   -2.3650   13.4950   -2.2650 N   0  0  0  0  0  0  0  0  0  0  0  0
    0.1760   17.9490   -4.2570 C   0  0  0  0  0  0  0  0  0  0  0  0
   -2.0550   16.6680   -4.3140 C   0  0  2  0  0  0  0  0  0  0  0  0
   -3.6030   13.8940   -2.9530 C   0  0  0  0  0  0  0  0  0  0  0  0
   -3.6370   13.1140   -4.2610 C   0  0  0  0  0  0  0  0  0  0  0  0
   -1.7940   14.4010   -1.3040 C   0  0  2  0  0  0  0  0  0  0  0  0
   -3.1950   15.9910   -5.7710 Br  0  0  0  0  0  0  0  0  0  0  0  0
   -1.2850   17.9290   -4.7710 C   0  0  0  0  0  0  0  0  0  0  0  0
   -1.0130   13.6350   -0.3260 N   0  0  0  0  0  0  0  0  0  0  0  0
   -2.7540   15.3330   -0.6430 C   0  0  2  0  0  0  0  0  0  0  0  0
   -0.4660   14.4430    0.7590 C   0  0  0  0  0  0  0  0  0  0  0  0
   -2.7840   14.9390    0.8000 C   0  0  1  0  0  0  0  0  0  0  0  0
   -4.2180   15.2270   -0.9850 C   0  0  0  0  0  0  0  0  0  0  0  0
   -1.5130   15.2120    1.4010 N   0  0  0  0  0  0  0  0  0  0  0  0
   -3.8070   15.8280    1.3160 N   0  0  0  0  0  0  0  0  0  0  0  0
   -4.8390   15.7980    0.2530 C   0  0  0  0  0  0  0  0  0  0  0  0
  2  1  1  6
  2  3  1  0
  2  4  1  0
  2  5  1  0
  6  4  1  1
  5  7  1  6
  5  8  1  0
  6  9  1  0
  6 10  1  0
  7 11  1  0
  8 11  1  1
  8 12  1  0
  9 13  1  0
 10 14  1  0
 13 14  1  0
 10 15  1  1
 12 16  1  6
 12 17  1  0
 14 18  1  1
 15 19  1  0
 17 20  1  0
 16 21  1  0
 20 21  1  0
 22 17  1  6
 19 23  1  6
 18 24  1  0
 19 24  1  0
 22 25  1  0
 22 26  1  0
 25 27  1  0
 26 28  1  0
 26 29  1  6
 27 30  1  0
 28 30  1  1
 28 31  1  0
 29 32  1  0
 31 32  1  0
M  CHG  1   1  -1
M  END
