ucsf357-ucsf396
     RDKit          3D

 18 20  0  0  0  0  0  0  0  0999 V2000
   -5.8040   15.2750   -2.6120 O   0  0  0  0  0  0  0  0  0  0  0  0
   -5.3200   15.4680   -1.3950 C   0  0  2  0  0  0  0  0  0  0  0  0
   -3.7870   15.5620   -1.5190 C   0  0  2  0  0  0  0  0  0  0  0  0
   -5.7110   14.2550   -0.5230 C   0  0  1  0  0  0  0  0  0  0  0  0
   -3.2610   14.6090   -2.5730 C   0  0  0  0  0  0  0  0  0  0  0  0
   -2.9770   15.4890   -0.2000 C   0  0  2  0  0  0  0  0  0  0  0  0
   -5.0290   14.2500    0.8670 C   0  0  1  0  0  0  0  0  0  0  0  0
   -7.1440   13.9200   -0.6010 N   0  0  0  0  0  0  0  0  0  0  0  0
   -1.8040   14.9220   -2.7500 C   0  0  2  0  0  0  0  0  0  0  0  0
   -1.6720   14.6450   -0.2060 C   0  0  0  0  0  0  0  0  0  0  0  0
   -3.7690   15.1380    1.0500 C   0  0  1  0  0  0  0  0  0  0  0  0
   -7.9680   14.6590    0.3050 C   0  0  0  0  0  0  0  0  0  0  0  0
   -6.0100   14.4450    2.0330 C   0  0  0  0  0  0  0  0  0  0  0  0
   -1.3190   14.3310   -3.8780 F   0  0  0  0  0  0  0  0  0  0  0  0
   -0.9650   14.4770   -1.5540 C   0  0  2  0  0  0  0  0  0  0  0  0
   -2.8400   14.4920    1.9460 O   0  0  0  0  0  0  0  0  0  0  0  0
   -7.5150   14.5040    1.7550 C   0  0  0  0  0  0  0  0  0  0  0  0
    0.2890   15.1590   -1.5050 O   0  0  0  0  0  0  0  0  0  0  0  0
  2  1  1  6
  2  3  1  0
  2  4  1  0
  3  5  1  6
  3  6  1  0
  4  7  1  0
  4  8  1  1
  5  9  1  0
  6 10  1  6
  6 11  1  0
  7 11  1  0
  8 12  1  0
  7 13  1  1
  9 14  1  6
  9 15  1  0
 10 15  1  0
 11 16  1  1
 12 17  1  0
 13 17  1  0
 15 18  1  1
M  CHG  1   1  -1
M  END
