ucsf123-ucsf411
     RDKit          3D

 19 21  0  0  0  0  0  0  0  0999 V2000
   -2.2290   18.6780   -5.3410 N   0  0  0  0  0  0  0  0  0  0  0  0
   -1.7180   17.5820   -6.1320 S   0  0  0  0  0  0  0  0  0  0  0  0
   -1.1070   18.0040   -7.2570 O   0  0  0  0  0  0  0  0  0  0  0  0
   -2.9050   16.8760   -6.7440 O   0  0  0  0  0  0  0  0  0  0  0  0
   -0.6570   16.2590   -4.8630 S   0  0  0  0  0  0  0  0  0  0  0  0
   -0.4710   14.5670   -5.2060 C   0  0  0  0  0  0  0  0  0  0  0  0
   -1.6580   15.0660   -3.9750 C   0  0  0  0  0  0  0  0  0  0  0  0
    0.5190   16.9040   -3.8080 C   0  0  0  0  0  0  0  0  0  0  0  0
    1.0530   16.8210   -5.3740 C   0  0  0  0  0  0  0  0  0  0  0  0
    0.4180   13.8530   -4.4230 C   0  0  2  0  0  0  0  0  0  0  0  0
   -1.2480   14.1340   -2.9630 C   0  0  0  0  0  0  0  0  0  0  0  0
    0.3300   18.3660   -4.1860 C   0  0  0  0  0  0  0  0  0  0  0  0
    0.9540   18.2720   -5.4400 C   0  0  0  0  0  0  0  0  0  0  0  0
    1.5570   13.2430   -4.6120 O   0  0  0  0  0  0  0  0  0  0  0  0
   -0.3890   12.9630   -3.4740 C   0  0  2  0  0  0  0  0  0  0  0  0
    0.6680   12.4830   -2.5820 C   0  0  1  0  0  0  0  0  0  0  0  0
    1.9760   12.8950   -3.3210 C   0  0  0  0  0  0  0  0  0  0  0  0
    0.6590   12.8940   -1.2740 O   0  0  0  0  0  0  0  0  0  0  0  0
    0.6120   11.0730   -2.6100 O   0  0  0  0  0  0  0  0  0  0  0  0
  1  2  1  0
  2  3  1  0
  2  4  1  0
  2  5  1  0
  5  6  1  0
  5  7  1  0
  5  8  1  0
  5  9  1  0
 10  6  1  6
  7 11  1  0
  8 12  1  0
  9 13  1  0
 12 13  1  0
 10 14  1  0
 10 15  1  0
 15 11  1  1
 15 16  1  0
 14 17  1  0
 16 17  1  0
 16 18  1  1
 16 19  1  0
M  CHG  1  19  -1
M  END
