ucsf303-ucsf241
     RDKit          3D

 18 20  0  0  0  0  0  0  0  0999 V2000
   -2.5410   13.8450   -3.1660 O   0  0  0  0  0  0  0  0  0  0  0  0
   -3.8450   14.4580   -2.4720 S   0  0  0  0  0  0  0  0  0  0  0  0
   -4.4210   15.4780   -3.5110 O   0  0  0  0  0  0  0  0  0  0  0  0
   -4.9780   13.3080   -2.1590 N   0  0  0  0  0  0  0  0  0  0  0  0
   -3.3120   15.4240   -1.0930 C   0  0  2  0  0  0  0  0  0  0  0  0
   -4.6490   12.0210   -1.6350 C   0  0  1  0  0  0  0  0  0  0  0  0
   -1.8660   15.3100   -0.5680 C   0  0  1  0  0  0  0  0  0  0  0  0
   -4.4330   15.4390   -0.0260 C   0  0  0  0  0  0  0  0  0  0  0  0
   -5.7920   11.1330   -1.7700 N   0  0  0  0  0  0  0  0  0  0  0  0
   -3.2180   11.3200   -2.4370 S   0  0  0  0  0  0  0  0  0  0  0  0
   -1.6280   15.1050    0.9290 C   0  0  1  0  0  0  0  0  0  0  0  0
   -3.9890   15.5230    1.4150 C   0  0  0  0  0  0  0  0  0  0  0  0
   -0.8970   14.3680   -1.2490 C   0  0  0  0  0  0  0  0  0  0  0  0
   -3.9050    9.6730   -2.3320 C   0  0  0  0  0  0  0  0  0  0  0  0
   -5.3510    9.7440   -2.0660 N   0  0  0  0  0  0  0  0  0  0  0  0
   -2.8430   14.5820    1.6560 C   0  0  0  0  0  0  0  0  0  0  0  0
    0.2760   14.2530   -0.3040 C   0  0  0  0  0  0  0  0  0  0  0  0
   -0.3260   14.3240    1.0930 C   0  0  0  0  0  0  0  0  0  0  0  0
  2  1  1  0
  2  3  1  0
  2  4  1  0
  5  2  1  6
  6  4  1  6
  5  7  1  0
  5  8  1  0
  6  9  1  0
  6 10  1  0
  7 11  1  0
  8 12  1  0
  7 13  1  6
 10 14  1  0
  9 15  1  0
 14 15  1  0
 11 16  1  6
 12 16  1  0
 13 17  1  0
 11 18  1  0
 17 18  1  0
M  END
