ucsf422-ucsf039
     RDKit          3D

 26 29  0  0  0  0  0  0  0  0999 V2000
    0.3310   10.8180   -3.0840 O   0  0  0  0  0  0  0  0  0  0  0  0
    0.3170   12.0910   -2.7920 C   0  0  1  0  0  0  0  0  0  0  0  0
    1.5190   12.2930   -2.1000 O   0  0  0  0  0  0  0  0  0  0  0  0
    0.3240   13.0330   -3.9990 C   0  0  0  0  0  0  0  0  0  0  0  0
    0.7210   14.5090   -3.6840 C   0  0  1  0  0  0  0  0  0  0  0  0
    1.8610   14.8610   -4.6290 C   0  0  0  0  0  0  0  0  0  0  0  0
   -0.1640   15.7490   -3.9200 C   0  0  1  0  0  0  0  0  0  0  0  0
    1.6820   16.2690   -5.0760 N   0  0  0  0  0  0  0  0  0  0  0  0
    0.2680   16.3130   -5.2480 C   0  0  2  0  0  0  0  0  0  0  0  0
   -1.6490   15.9550   -3.8280 C   0  0  2  0  0  0  0  0  0  0  0  0
   -2.3140   15.5980   -2.5270 C   0  0  0  0  0  0  0  0  0  0  0  0
   -0.5160   17.6170   -5.5450 C   0  0  1  0  0  0  0  0  0  0  0  0
   -2.2100   15.7800   -5.2190 C   0  0  1  0  0  0  0  0  0  0  0  0
   -4.0580   15.1270   -5.4820 Br  0  0  0  0  0  0  0  0  0  0  0  0
   -0.0040   18.4640   -6.7050 C   0  0  0  0  0  0  0  0  0  0  0  0
   -1.9840   17.1890   -5.8030 C   0  0  0  0  0  0  0  0  0  0  0  0
   -2.0990   14.2210   -2.0900 N   0  0  0  0  0  0  0  0  0  0  0  0
   -3.4690   13.7510   -1.9110 C   0  0  0  0  0  0  0  0  0  0  0  0
   -1.5070   14.2090   -0.7550 C   0  0  2  0  0  0  0  0  0  0  0  0
   -4.2200   14.6030   -0.9690 N   0  0  0  0  0  0  0  0  0  0  0  0
   -2.1820   15.1870    0.1780 C   0  0  1  0  0  0  0  0  0  0  0  0
   -0.1580   14.6920   -0.6300 N   0  0  0  0  0  0  0  0  0  0  0  0
   -3.6030   14.6430    0.3370 C   0  0  1  0  0  0  0  0  0  0  0  0
   -1.3110   15.1660    1.3590 N   0  0  0  0  0  0  0  0  0  0  0  0
   -0.0030   14.7930    0.8060 C   0  0  0  0  0  0  0  0  0  0  0  0
   -4.4610   15.4290    1.2090 N   0  0  0  0  0  0  0  0  0  0  0  0
  2  1  1  6
  2  3  1  0
  2  4  1  0
  5  4  1  6
  5  6  1  0
  7  5  1  6
  6  8  1  0
  7  9  1  0
  9  8  1  1
  7 10  1  0
 10 11  1  1
  9 12  1  0
 10 13  1  0
 13 14  1  1
 12 15  1  6
 12 16  1  0
 13 16  1  0
 11 17  1  0
 17 18  1  0
 17 19  1  0
 18 20  1  0
 19 21  1  0
 19 22  1  6
 20 23  1  0
 21 23  1  0
 21 24  1  1
 22 25  1  0
 24 25  1  0
 23 26  1  1
M  CHG  1   1  -1
M  END
