ucsf124-ucsf170
     RDKit          3D

 25 27  0  0  0  0  0  0  0  0999 V2000
    0.7610   11.1630   -2.4200 O   0  0  0  0  0  0  0  0  0  0  0  0
    0.2340   12.2780   -2.9050 C   0  0  1  0  0  0  0  0  0  0  0  0
    0.7720   13.3870   -2.1680 O   0  0  0  0  0  0  0  0  0  0  0  0
    0.6800   12.4390   -4.4100 C   0  0  0  0  0  0  0  0  0  0  0  0
    0.4690   14.6400   -2.8080 C   0  0  0  0  0  0  0  0  0  0  0  0
    0.3770   11.2380   -5.2180 N   0  0  0  0  0  0  0  0  0  0  0  0
   -0.9680   10.6650   -5.0830 C   0  0  1  0  0  0  0  0  0  0  0  0
    0.7160   11.2840   -6.6310 C   0  0  2  0  0  0  0  0  0  0  0  0
   -0.8490   15.2360   -2.2760 C   0  0  2  0  0  0  0  0  0  0  0  0
   -1.9220   11.5910   -4.6000 O   0  0  0  0  0  0  0  0  0  0  0  0
    0.1800   12.4360   -7.1780 O   0  0  0  0  0  0  0  0  0  0  0  0
   -1.3670   10.2630   -6.5120 C   0  0  1  0  0  0  0  0  0  0  0  0
    0.0030   10.0230   -7.1330 C   0  0  1  0  0  0  0  0  0  0  0  0
   -1.3260   14.6940   -0.9190 C   0  0  0  0  0  0  0  0  0  0  0  0
   -1.9840   15.3810   -3.3160 C   0  0  1  0  0  0  0  0  0  0  0  0
   -1.6550   14.8240   -4.5850 O   0  0  0  0  0  0  0  0  0  0  0  0
   -2.2770    9.0350   -6.6170 C   0  0  0  0  0  0  0  0  0  0  0  0
   -0.0660    9.7010   -8.6160 C   0  0  0  0  0  0  0  0  0  0  0  0
   -2.6030   15.3690   -0.4380 C   0  0  2  0  0  0  0  0  0  0  0  0
   -3.3150   14.7760   -2.8500 C   0  0  0  0  0  0  0  0  0  0  0  0
   -3.0100   14.8810    1.2840 S   0  0  0  0  0  0  0  0  0  0  0  0
   -1.8600    8.0650   -7.7180 C   0  0  0  0  0  0  0  0  0  0  0  0
   -1.1900    8.7170   -8.9420 C   0  0  0  0  0  0  0  0  0  0  0  0
   -3.7550   15.2140   -1.4440 C   0  0  0  0  0  0  0  0  0  0  0  0
   -4.7850   15.1950    1.2810 C   0  0  0  0  0  0  0  0  0  0  0  0
  2  1  1  1
  2  3  1  0
  2  4  1  0
  3  5  1  0
  4  6  1  0
  6  7  1  0
  6  8  1  0
  9  5  1  6
  7 10  1  6
  8 11  1  6
  7 12  1  0
  8 13  1  0
 12 13  1  0
  9 14  1  0
  9 15  1  0
 15 16  1  6
 12 17  1  1
 13 18  1  6
 14 19  1  0
 15 20  1  0
 19 21  1  1
 17 22  1  0
 18 23  1  0
 22 23  1  0
 19 24  1  0
 20 24  1  0
 21 25  1  0
M  CHG  1   1  -1
M  END
