ucsf387-ucsf224
     RDKit          3D

 13 13  0  0  0  0  0  0  0  0999 V2000
    1.1430   18.3370   -5.2690 Cl  0  0  0  0  0  0  0  0  0  0  0  0
    0.3670   16.9220   -4.5310 C   0  0  1  0  0  0  0  0  0  0  0  0
   -0.8930   16.7920   -5.3430 C   0  0  2  0  0  0  0  0  0  0  0  0
    1.1970   15.6420   -4.4550 C   0  0  0  0  0  0  0  0  0  0  0  0
   -1.7940   18.3470   -5.1970 Cl  0  0  0  0  0  0  0  0  0  0  0  0
    0.3880   14.3970   -4.0920 C   0  0  2  0  0  0  0  0  0  0  0  0
   -1.7150   15.4850   -5.1760 C   0  0  2  0  0  0  0  0  0  0  0  0
   -3.0510   15.5970   -3.9860 Cl  0  0  0  0  0  0  0  0  0  0  0  0
    1.1030   13.0620   -3.6820 C   0  0  0  0  0  0  0  0  0  0  0  0
   -0.8860   14.2150   -4.9280 C   0  0  0  0  0  0  0  0  0  0  0  0
    0.3860   12.2030   -2.6210 C   0  0  1  0  0  0  0  0  0  0  0  0
    0.7110   10.9290   -2.5700 O   0  0  0  0  0  0  0  0  0  0  0  0
    0.6760   12.6640   -1.3240 O   0  0  0  0  0  0  0  0  0  0  0  0
  2  1  1  6
  2  3  1  0
  2  4  1  0
  3  5  1  1
  4  6  1  0
  3  7  1  0
  7  8  1  1
  6  9  1  6
  6 10  1  0
  7 10  1  0
  9 11  1  0
 11 12  1  1
 11 13  1  0
M  CHG  1  12  -1
M  END
