ucsf385-ucsf412
     RDKit          3D

 22 24  0  0  0  0  0  0  0  0999 V2000
   -2.8950   13.4060   -0.5900 N   0  0  0  0  0  0  0  0  0  0  0  0
   -2.2660   14.7400   -0.5890 C   0  0  1  0  0  0  0  0  0  0  0  0
   -2.1500   15.2800    0.8370 C   0  0  0  0  0  0  0  0  0  0  0  0
   -0.8760   14.7630   -1.2340 C   0  0  2  0  0  0  0  0  0  0  0  0
   -0.8260   14.0940   -2.6370 C   0  0  2  0  0  0  0  0  0  0  0  0
    0.1040   14.0050   -0.2850 C   0  0  0  0  0  0  0  0  0  0  0  0
   -1.5210   14.2580    1.6300 N   0  0  0  0  0  0  0  0  0  0  0  0
    0.5500   13.9860   -3.0020 O   0  0  0  0  0  0  0  0  0  0  0  0
   -1.4830   14.8580   -3.6580 O   0  0  0  0  0  0  0  0  0  0  0  0
   -0.1350   14.1410    1.2400 C   0  0  0  0  0  0  0  0  0  0  0  0
   -2.6090   15.6340   -3.2390 C   0  0  0  0  0  0  0  0  0  0  0  0
   -3.5750   14.7890   -2.3880 C   0  0  1  0  0  0  0  0  0  0  0  0
   -3.7160   15.4220   -0.9820 C   0  0  0  0  0  0  0  0  0  0  0  0
   -4.8810   14.5310   -3.1460 C   0  0  0  0  0  0  0  0  0  0  0  0
   -5.0390   15.3110   -0.2160 C   0  0  1  0  0  0  0  0  0  0  0  0
   -6.1870   14.5060   -2.3490 C   0  0  0  0  0  0  0  0  0  0  0  0
   -6.3010   15.3450   -1.0700 C   0  0  1  0  0  0  0  0  0  0  0  0
   -5.0820   14.1220    0.7510 C   0  0  0  0  0  0  0  0  0  0  0  0
   -7.5870   14.9930   -0.2690 C   0  0  1  0  0  0  0  0  0  0  0  0
   -6.2300   14.2460    1.7490 C   0  0  0  0  0  0  0  0  0  0  0  0
   -8.2790   13.9180   -0.8620 O   0  0  0  0  0  0  0  0  0  0  0  0
   -7.5160   14.6420    1.1520 N   0  0  0  0  0  0  0  0  0  0  0  0
  2  1  1  1
  2  3  1  0
  2  4  1  0
  4  5  1  0
  4  6  1  1
  3  7  1  0
  5  8  1  6
  5  9  1  0
  6 10  1  0
  7 10  1  0
  9 11  1  0
 12 11  1  6
 12 13  1  0
 12 14  1  0
 15 13  1  6
 14 16  1  0
 15 17  1  0
 17 16  1  6
 15 18  1  0
 17 19  1  0
 18 20  1  0
 19 21  1  6
 19 22  1  0
 20 22  1  0
M  END
