ucsf403-ucsf336
     RDKit          3D

 14 14  0  0  0  0  0  0  0  0999 V2000
    0.8940    9.2900   -7.9250 Cl  0  0  0  0  0  0  0  0  0  0  0  0
   -0.6000    9.8760   -7.1140 C   0  0  2  0  0  0  0  0  0  0  0  0
   -0.5540   11.1540   -6.2250 C   0  0  2  0  0  0  0  0  0  0  0  0
   -1.2220    8.7160   -6.3310 C   0  0  0  0  0  0  0  0  0  0  0  0
    0.4750   11.1530   -5.2220 O   0  0  0  0  0  0  0  0  0  0  0  0
   -1.9570   11.5400   -5.7160 C   0  0  2  0  0  0  0  0  0  0  0  0
   -2.6180    9.0580   -5.8170 C   0  0  0  0  0  0  0  0  0  0  0  0
   -2.0920   12.9970   -4.6680 Cl  0  0  0  0  0  0  0  0  0  0  0  0
    0.4940   12.2940   -4.2770 C   0  0  1  0  0  0  0  0  0  0  0  0
   -2.6130   10.3480   -4.9940 C   0  0  0  0  0  0  0  0  0  0  0  0
    0.9180   11.7510   -2.8050 C   0  0  1  0  0  0  0  0  0  0  0  0
    1.4190   13.1540   -4.7380 O   0  0  0  0  0  0  0  0  0  0  0  0
    0.2230   12.2110   -1.7550 O   0  0  0  0  0  0  0  0  0  0  0  0
    0.5460   10.3630   -2.6800 O   0  0  0  0  0  0  0  0  0  0  0  0
  2  1  1  1
  2  3  1  0
  2  4  1  0
  3  5  1  1
  3  6  1  0
  4  7  1  0
  6  8  1  1
  5  9  1  0
  6 10  1  0
  7 10  1  0
  9 11  1  0
  9 12  1  6
 11 13  1  1
 11 14  1  0
M  CHG  2  12  -1  13  -1
M  END
