ucsf336-ucsf172
     RDKit          3D

 27 28  0  0  0  0  0  0  0  0999 V2000
    2.5380   13.5980   -4.3760 O   0  0  0  0  0  0  0  0  0  0  0  0
    1.3160   13.3710   -3.8950 C   0  0  2  0  0  0  0  0  0  0  0  0
    1.4580   13.1890   -2.4830 O   0  0  0  0  0  0  0  0  0  0  0  0
    0.7490   12.0040   -4.5230 C   0  0  1  0  0  0  0  0  0  0  0  0
    0.3950   11.0860   -3.4740 O   0  0  0  0  0  0  0  0  0  0  0  0
   -0.3550   12.0420   -5.4670 N   0  0  0  0  0  0  0  0  0  0  0  0
    0.2290   13.5210   -1.8570 C   0  0  0  0  0  0  0  0  0  0  0  0
   -0.7850   13.4420   -2.8520 O   0  0  0  0  0  0  0  0  0  0  0  0
   -0.8490   10.7190   -5.8550 C   0  0  0  0  0  0  0  0  0  0  0  0
   -1.6110   14.5890   -2.9150 C   0  0  1  0  0  0  0  0  0  0  0  0
   -0.5600   10.3860   -7.3300 C   0  0  0  0  0  0  0  0  0  0  0  0
   -2.3060   10.4420   -5.4610 C   0  0  0  0  0  0  0  0  0  0  0  0
   -2.1330   14.7110   -4.1300 O   0  0  0  0  0  0  0  0  0  0  0  0
   -1.0210    8.9710   -7.6870 C   0  0  0  0  0  0  0  0  0  0  0  0
   -2.7380    9.0300   -5.8350 C   0  0  0  0  0  0  0  0  0  0  0  0
   -2.7630   14.3320   -1.8840 C   0  0  1  0  0  0  0  0  0  0  0  0
   -2.4770    8.7250   -7.3060 C   0  0  0  0  0  0  0  0  0  0  0  0
   -2.2750   14.2760   -0.4260 C   0  0  0  0  0  0  0  0  0  0  0  0
   -3.9530   15.3000   -2.0780 C   0  0  0  0  0  0  0  0  0  0  0  0
   -3.3660   14.2950    0.6430 C   0  0  0  0  0  0  0  0  0  0  0  0
   -5.0470   15.2600   -1.0080 C   0  0  0  0  0  0  0  0  0  0  0  0
   -4.4510   15.3330    0.4020 C   0  0  1  0  0  0  0  0  0  0  0  0
   -5.4980   15.2490    1.4360 N   0  0  0  0  0  0  0  0  0  0  0  0
   -6.9140   14.4170    1.2570 S   0  0  0  0  0  0  0  0  0  0  0  0
   -8.2500   14.8860    2.2890 C   0  0  0  0  0  0  0  0  0  0  0  0
   -6.6500   12.9100    1.6910 O   0  0  0  0  0  0  0  0  0  0  0  0
   -7.5240   14.4120   -0.2280 O   0  0  0  0  0  0  0  0  0  0  0  0
  2  1  1  6
  2  3  1  0
  2  4  1  0
  4  5  1  1
  4  6  1  0
  3  7  1  0
  7  8  1  0
  6  9  1  0
  8 10  1  0
  9 11  1  0
  9 12  1  0
 10 13  1  6
 11 14  1  0
 12 15  1  0
 10 16  1  0
 14 17  1  0
 15 17  1  0
 16 18  1  1
 16 19  1  0
 18 20  1  0
 19 21  1  0
 20 22  1  0
 21 22  1  0
 22 23  1  1
 23 24  1  0
 24 25  1  0
 24 26  1  0
 24 27  1  0
M  CHG  2   1  -1  13  -1
M  END
