ucsf336-ucsf584
     RDKit          3D

 26 28  0  0  0  0  0  0  0  0999 V2000
    1.6320   13.8480   -4.3590 O   0  0  0  0  0  0  0  0  0  0  0  0
    1.5340   12.7520   -3.6100 C   0  0  1  0  0  0  0  0  0  0  0  0
    1.4880   13.1030   -2.2120 O   0  0  0  0  0  0  0  0  0  0  0  0
    0.2020   11.9620   -4.0560 C   0  0  2  0  0  0  0  0  0  0  0  0
    0.1340   10.7640   -3.2750 O   0  0  0  0  0  0  0  0  0  0  0  0
    0.2620   11.6610   -5.4920 N   0  0  0  0  0  0  0  0  0  0  0  0
    0.2030   13.0820   -1.5960 C   0  0  0  0  0  0  0  0  0  0  0  0
   -0.6750   14.2350   -2.0870 C   0  0  0  0  0  0  0  0  0  0  0  0
   -0.8630   10.9840   -6.1320 C   0  0  0  0  0  0  0  0  0  0  0  0
   -2.1900   13.9390   -2.1300 C   0  0  0  0  0  0  0  0  0  0  0  0
   -0.4150   10.2370   -7.4030 C   0  0  0  0  0  0  0  0  0  0  0  0
   -1.5120    9.9910   -5.1500 C   0  0  0  0  0  0  0  0  0  0  0  0
   -1.0650    8.8610   -7.5620 C   0  0  0  0  0  0  0  0  0  0  0  0
   -2.7480    9.2950   -5.7320 C   0  0  0  0  0  0  0  0  0  0  0  0
   -3.0450   15.0550   -1.7070 N   0  0  0  0  0  0  0  0  0  0  0  0
   -2.5390    8.8790   -7.1840 C   0  0  0  0  0  0  0  0  0  0  0  0
   -3.1430   15.1850   -0.2440 C   0  0  0  0  0  0  0  0  0  0  0  0
   -4.3380   15.0870   -2.4000 C   0  0  0  0  0  0  0  0  0  0  0  0
   -4.1390   14.2640    0.4160 C   0  0  0  0  0  0  0  0  0  0  0  0
   -5.4980   15.3220   -1.4300 C   0  0  0  0  0  0  0  0  0  0  0  0
   -5.4640   14.2260   -0.3500 C   0  0  0  0  0  0  0  0  0  0  0  0
   -6.6740   14.1270    0.5960 C   0  0  0  0  0  0  0  0  0  0  0  0
   -6.5710   14.8030    1.8670 N   0  0  0  0  0  0  0  0  0  0  0  0
   -7.9100   14.6440    0.0250 N   0  0  0  0  0  0  0  0  0  0  0  0
   -8.7890   14.8270    1.1850 C   0  0  0  0  0  0  0  0  0  0  0  0
   -7.9060   14.6850    2.4220 C   0  0  0  0  0  0  0  0  0  0  0  0
  2  1  1  6
  2  3  1  0
  2  4  1  0
  4  5  1  1
  4  6  1  0
  3  7  1  0
  7  8  1  0
  6  9  1  0
  8 10  1  0
  9 11  1  0
  9 12  1  0
 11 13  1  0
 12 14  1  0
 10 15  1  0
 13 16  1  0
 14 16  1  0
 15 17  1  0
 15 18  1  0
 17 19  1  0
 18 20  1  0
 19 21  1  0
 20 21  1  0
 21 22  1  0
 22 23  1  0
 22 24  1  0
 24 25  1  0
 23 26  1  0
 25 26  1  0
M  CHG  1   1  -1
M  END
