ucsf493-ucsf039
     RDKit          3D

 27 30  0  0  0  0  0  0  0  0999 V2000
   -4.2580   15.2910   -5.6200 C   0  0  0  0  0  0  0  0  0  0  0  0
   -3.5300   16.2560   -4.8590 O   0  0  0  0  0  0  0  0  0  0  0  0
   -2.1460   16.1930   -5.1330 C   0  0  2  0  0  0  0  0  0  0  0  0
   -1.3790   15.4220   -4.0530 C   0  0  1  0  0  0  0  0  0  0  0  0
   -1.4440   17.5830   -5.2710 C   0  0  2  0  0  0  0  0  0  0  0  0
   -2.1180   14.3240   -3.3240 C   0  0  0  0  0  0  0  0  0  0  0  0
   -1.9190   18.4210   -6.4570 C   0  0  0  0  0  0  0  0  0  0  0  0
   -0.1370   14.9980   -4.7360 C   0  0  1  0  0  0  0  0  0  0  0  0
    0.1040   17.4480   -5.3660 C   0  0  0  0  0  0  0  0  0  0  0  0
    0.6500   16.2660   -4.5540 C   0  0  2  0  0  0  0  0  0  0  0  0
    0.7680   13.8110   -4.2970 C   0  0  2  0  0  0  0  0  0  0  0  0
   -2.4750   14.7930   -2.0090 N   0  0  0  0  0  0  0  0  0  0  0  0
    0.5160   13.1920   -2.8960 C   0  0  0  0  0  0  0  0  0  0  0  0
    1.9520   15.8290   -4.8990 N   0  0  0  0  0  0  0  0  0  0  0  0
    2.1200   14.5030   -4.2580 C   0  0  0  0  0  0  0  0  0  0  0  0
   -3.9160   14.7180   -1.8660 C   0  0  0  0  0  0  0  0  0  0  0  0
   -1.6930   14.4770   -0.8110 C   0  0  2  0  0  0  0  0  0  0  0  0
   -0.0180   11.7420   -2.6910 C   0  0  1  0  0  0  0  0  0  0  0  0
   -4.3890   15.4340   -0.7000 N   0  0  0  0  0  0  0  0  0  0  0  0
   -2.2010   15.2320    0.3950 C   0  0  1  0  0  0  0  0  0  0  0  0
   -0.2990   14.8710   -0.6870 N   0  0  0  0  0  0  0  0  0  0  0  0
    0.4440   10.8540   -3.6710 O   0  0  0  0  0  0  0  0  0  0  0  0
    0.5130   11.2070   -1.5950 O   0  0  0  0  0  0  0  0  0  0  0  0
   -3.7040   14.9590    0.4720 C   0  0  1  0  0  0  0  0  0  0  0  0
   -1.3120   14.7490    1.4520 N   0  0  0  0  0  0  0  0  0  0  0  0
   -0.0390   14.6480    0.7310 C   0  0  0  0  0  0  0  0  0  0  0  0
   -4.3760   15.6090    1.5710 N   0  0  0  0  0  0  0  0  0  0  0  0
  1  2  1  0
  3  2  1  1
  3  4  1  0
  3  5  1  0
  4  6  1  6
  5  7  1  6
  4  8  1  0
  5  9  1  0
  8 10  1  0
 10  9  1  6
  8 11  1  1
  6 12  1  0
 11 13  1  1
 10 14  1  0
 11 15  1  0
 14 15  1  0
 12 16  1  0
 12 17  1  0
 13 18  1  0
 16 19  1  0
 17 20  1  0
 17 21  1  6
 18 22  1  6
 18 23  1  0
 19 24  1  0
 20 24  1  0
 20 25  1  1
 21 26  1  0
 25 26  1  0
 24 27  1  1
M  CHG  1  23  -1
M  END
