ucsf520-ucsf487
     RDKit          3D

 22 25  0  0  0  0  0  0  0  0999 V2000
   -4.0410   16.7260    1.3830 N   0  0  0  0  0  0  0  0  0  0  0  0
   -4.0730   15.0690    0.1690 S   0  0  0  0  0  0  0  0  0  0  0  0
   -2.2410   14.8740    0.2410 C   0  0  2  0  0  0  0  0  0  0  0  0
   -3.2340   15.4060   -1.0940 N   0  0  0  0  0  0  0  0  0  0  0  0
   -5.1810   13.6150    0.6470 C   0  0  0  0  0  0  0  0  0  0  0  0
   -5.6660   15.4120   -0.7120 C   0  0  0  0  0  0  0  0  0  0  0  0
   -3.0880   14.7570   -2.2470 C   0  0  0  0  0  0  0  0  0  0  0  0
   -1.2240   14.6100   -0.8470 C   0  0  2  0  0  0  0  0  0  0  0  0
   -1.6120   14.2350    1.2440 N   0  0  0  0  0  0  0  0  0  0  0  0
   -6.4780   14.1040    1.2000 C   0  0  2  0  0  0  0  0  0  0  0  0
   -6.7990   14.6840   -0.7470 N   0  0  0  0  0  0  0  0  0  0  0  0
   -7.0830   13.5800    2.4120 N   0  0  0  0  0  0  0  0  0  0  0  0
   -1.6200   14.6060   -2.2060 N   0  0  0  0  0  0  0  0  0  0  0  0
   -0.0120   14.1380   -0.3730 N   0  0  0  0  0  0  0  0  0  0  0  0
   -0.2050   14.2670    1.0990 C   0  0  0  0  0  0  0  0  0  0  0  0
   -7.5930   14.4470    0.3560 C   0  0  0  0  0  0  0  0  0  0  0  0
   -0.8820   14.3470   -3.2990 C   0  0  0  0  0  0  0  0  0  0  0  0
   -0.8350   15.2960   -4.4610 C   0  0  1  0  0  0  0  0  0  0  0  0
   -1.3650   16.5240   -4.1870 O   0  0  0  0  0  0  0  0  0  0  0  0
    0.6260   15.4800   -4.8240 C   0  0  0  0  0  0  0  0  0  0  0  0
    0.7270   16.9680   -5.1170 C   0  0  0  0  0  0  0  0  0  0  0  0
   -0.7080   17.4440   -4.9820 C   0  0  0  0  0  0  0  0  0  0  0  0
  1  2  1  0
  2  3  1  0
  2  4  1  0
  2  5  1  0
  2  6  1  0
  4  7  1  0
  3  8  1  0
  3  9  1  1
  5 10  1  0
  6 11  1  0
 10 12  1  1
  7 13  1  0
  8 13  1  0
  8 14  1  1
  9 15  1  0
 14 15  1  0
 10 16  1  0
 11 16  1  0
 13 17  1  0
 18 17  1  1
 18 19  1  0
 18 20  1  0
 20 21  1  0
 19 22  1  0
 21 22  1  0
M  END
