ucsf004-ucsf424
     RDKit          3D

 29 33  0  0  0  0  0  0  0  0999 V2000
   -2.1740   12.6210   -4.5660 F   0  0  0  0  0  0  0  0  0  0  0  0
   -1.7060   13.8950   -4.6710 C   0  0  2  0  0  0  0  0  0  0  0  0
   -0.2080   13.9290   -5.0170 C   0  0  2  0  0  0  0  0  0  0  0  0
   -2.1360   14.6870   -3.4430 C   0  0  0  0  0  0  0  0  0  0  0  0
    0.5220   12.5430   -4.9600 C   0  0  1  0  0  0  0  0  0  0  0  0
   -1.0840   14.9010   -2.4290 N   0  0  0  0  0  0  0  0  0  0  0  0
    0.4570   15.1440   -4.3950 C   0  0  0  0  0  0  0  0  0  0  0  0
    0.5540   11.8110   -3.5490 C   0  0  1  0  0  0  0  0  0  0  0  0
    0.2840   15.2280   -2.8870 C   0  0  0  0  0  0  0  0  0  0  0  0
   -1.2150   14.1950   -1.1580 C   0  0  1  0  0  0  0  0  0  0  0  0
    0.1550   11.7730   -6.2400 C   0  0  1  0  0  0  0  0  0  0  0  0
    1.4070   12.3060   -2.6760 O   0  0  0  0  0  0  0  0  0  0  0  0
   -0.6540   11.8780   -2.8440 O   0  0  0  0  0  0  0  0  0  0  0  0
   -0.0690   14.5240   -0.3270 N   0  0  0  0  0  0  0  0  0  0  0  0
   -2.6030   14.2260   -0.4550 C   0  0  1  0  0  0  0  0  0  0  0  0
    1.3050   11.3810   -7.1030 N   0  0  0  0  0  0  0  0  0  0  0  0
   -0.8480   10.6460   -6.3610 C   0  0  1  0  0  0  0  0  0  0  0  0
   -0.2260   14.4830    1.0900 C   0  0  0  0  0  0  0  0  0  0  0  0
   -2.5630   14.5350    1.0250 C   0  0  1  0  0  0  0  0  0  0  0  0
   -3.7180   15.1060   -1.0140 C   0  0  0  0  0  0  0  0  0  0  0  0
    0.7400   10.3810   -8.0150 O   0  0  0  0  0  0  0  0  0  0  0  0
   -0.1840    9.6300   -7.2250 C   0  0  2  0  0  0  0  0  0  0  0  0
   -1.6230    9.9590   -5.2690 C   0  0  0  0  0  0  0  0  0  0  0  0
   -1.4000   15.2150    1.4350 N   0  0  0  0  0  0  0  0  0  0  0  0
   -3.7130   15.3300    1.3770 N   0  0  0  0  0  0  0  0  0  0  0  0
   -4.5650   15.4700    0.1940 C   0  0  0  0  0  0  0  0  0  0  0  0
   -1.2690    8.9350   -8.0220 C   0  0  0  0  0  0  0  0  0  0  0  0
   -2.7480    9.1100   -5.8890 C   0  0  0  0  0  0  0  0  0  0  0  0
   -2.3090    8.2680   -7.1000 C   0  0  0  0  0  0  0  0  0  0  0  0
  2  1  1  1
  2  3  1  0
  2  4  1  0
  3  5  1  0
  4  6  1  0
  3  7  1  1
  5  8  1  1
  6  9  1  0
  7  9  1  0
 10  6  1  6
  5 11  1  0
  8 12  1  1
  8 13  1  0
 10 14  1  0
 10 15  1  0
 11 16  1  1
 11 17  1  0
 14 18  1  0
 15 19  1  0
 15 20  1  6
 16 21  1  0
 17 22  1  0
 21 22  1  0
 17 23  1  1
 18 24  1  0
 19 24  1  6
 19 25  1  0
 20 26  1  0
 25 26  1  0
 22 27  1  6
 23 28  1  0
 27 29  1  0
 28 29  1  0
M  CHG  1  12  -1
M  END
