ucsf114-ucsf424
     RDKit          3D

 29 32  0  0  0  0  0  0  0  0999 V2000
    0.8220   17.9550   -4.4440 C   0  0  0  0  0  0  0  0  0  0  0  0
   -0.2100   17.2160   -5.2810 C   0  0  0  0  0  0  0  0  0  0  0  0
   -1.5300   17.9990   -5.2900 C   0  0  0  0  0  0  0  0  0  0  0  0
   -0.4830   15.9110   -4.7330 O   0  0  0  0  0  0  0  0  0  0  0  0
    0.5700   14.8930   -4.7790 C   0  0  0  0  0  0  0  0  0  0  0  0
    0.2360   13.4150   -4.1660 C   0  0  1  0  0  0  0  0  0  0  0  0
    1.5080   12.5100   -3.7430 C   0  0  1  0  0  0  0  0  0  0  0  0
   -0.3200   13.4440   -2.6080 N   0  0  0  0  0  0  0  0  0  0  0  0
   -0.0310   12.2220   -5.3100 C   0  0  2  0  0  0  0  0  0  0  0  0
    2.1660   12.7130   -2.6440 O   0  0  0  0  0  0  0  0  0  0  0  0
    0.8590   11.3120   -3.3130 O   0  0  0  0  0  0  0  0  0  0  0  0
   -1.7200   13.7590   -2.1380 C   0  0  1  0  0  0  0  0  0  0  0  0
    0.7320   13.5210   -1.5230 C   0  0  1  0  0  0  0  0  0  0  0  0
    0.0540   12.4190   -6.7660 N   0  0  0  0  0  0  0  0  0  0  0  0
   -0.8770   10.9140   -5.2900 C   0  0  2  0  0  0  0  0  0  0  0  0
    2.2610   14.4720   -1.9720 S   0  0  0  0  0  0  0  0  0  0  0  0
   -1.7280   14.6460   -0.8920 C   0  0  2  0  0  0  0  0  0  0  0  0
    0.4530   14.3130   -0.3220 N   0  0  0  0  0  0  0  0  0  0  0  0
   -2.7090   14.6230   -2.9320 C   0  0  0  0  0  0  0  0  0  0  0  0
    0.5010   11.1150   -7.2440 O   0  0  0  0  0  0  0  0  0  0  0  0
   -0.3850   10.2020   -6.5890 C   0  0  2  0  0  0  0  0  0  0  0  0
   -2.4010   10.9420   -5.3270 C   0  0  0  0  0  0  0  0  0  0  0  0
   -0.8370   14.1570    0.2310 C   0  0  1  0  0  0  0  0  0  0  0  0
   -3.1360   14.9150   -0.5650 N   0  0  0  0  0  0  0  0  0  0  0  0
   -3.7510   15.0510   -1.8900 C   0  0  0  0  0  0  0  0  0  0  0  0
   -1.4470    9.7380   -7.5790 C   0  0  0  0  0  0  0  0  0  0  0  0
   -2.9770    9.5400   -5.5990 C   0  0  0  0  0  0  0  0  0  0  0  0
   -0.9760   14.8740    1.4610 O   0  0  0  0  0  0  0  0  0  0  0  0
   -2.4600    8.8650   -6.8690 C   0  0  0  0  0  0  0  0  0  0  0  0
  1  2  1  0
  2  3  1  0
  2  4  1  0
  4  5  1  0
  6  5  1  6
  6  7  1  0
  6  8  1  0
  6  9  1  0
  7 10  1  1
  7 11  1  0
  8 12  1  0
  8 13  1  0
  9 14  1  6
  9 15  1  0
 13 16  1  6
 12 17  1  0
 13 18  1  0
 12 19  1  6
 14 20  1  0
 15 21  1  0
 20 21  1  0
 15 22  1  6
 17 23  1  0
 18 23  1  0
 17 24  1  1
 19 25  1  0
 24 25  1  0
 21 26  1  6
 22 27  1  0
 23 28  1  1
 26 29  1  0
 27 29  1  0
M  CHG  1  10  -1
M  END
