ucsf173-ucsf138
     RDKit          3D

 23 25  0  0  0  0  0  0  0  0999 V2000
    1.2120   12.7990   -2.4510 O   0  0  0  0  0  0  0  0  0  0  0  0
    0.3120   12.6780   -3.4160 C   0  0  2  0  0  0  0  0  0  0  0  0
   -0.8440   12.2870   -2.7000 O   0  0  0  0  0  0  0  0  0  0  0  0
    0.6510   11.5810   -4.4210 C   0  0  0  0  0  0  0  0  0  0  0  0
    0.1150   13.9500   -4.2220 C   0  0  0  0  0  0  0  0  0  0  0  0
   -0.2020   11.6320   -5.6310 N   0  0  0  0  0  0  0  0  0  0  0  0
   -1.3470   14.2650   -4.5980 C   0  0  0  0  0  0  0  0  0  0  0  0
    0.7450   15.2750   -3.7670 C   0  0  0  0  0  0  0  0  0  0  0  0
    0.4510   11.5510   -6.9090 C   0  0  1  0  0  0  0  0  0  0  0  0
   -1.4000   15.7750   -4.5340 C   0  0  1  0  0  0  0  0  0  0  0  0
    0.0570   16.1830   -4.7700 C   0  0  1  0  0  0  0  0  0  0  0  0
    1.8080   11.8570   -6.8180 O   0  0  0  0  0  0  0  0  0  0  0  0
    0.2440   10.2480   -7.5100 N   0  0  0  0  0  0  0  0  0  0  0  0
   -2.4110   16.4430   -5.4450 C   0  0  0  0  0  0  0  0  0  0  0  0
    0.3340   17.6750   -4.6450 C   0  0  0  0  0  0  0  0  0  0  0  0
   -1.8660   17.7520   -6.0200 C   0  0  0  0  0  0  0  0  0  0  0  0
   -0.8610   18.4900   -5.1380 C   0  0  0  0  0  0  0  0  0  0  0  0
    0.8540    9.9620   -8.8210 C   0  0  0  0  0  0  0  0  0  0  0  0
   -0.0850   10.1070  -10.0370 C   0  0  0  0  0  0  0  0  0  0  0  0
    1.4520    8.5430   -8.7390 C   0  0  0  0  0  0  0  0  0  0  0  0
    0.5810    9.6350  -11.3310 C   0  0  0  0  0  0  0  0  0  0  0  0
    2.1380    8.0940  -10.0220 C   0  0  0  0  0  0  0  0  0  0  0  0
    1.1850    8.2330  -11.2060 C   0  0  0  0  0  0  0  0  0  0  0  0
  2  1  1  1
  2  3  1  0
  2  4  1  0
  2  5  1  0
  4  6  1  0
  5  7  1  0
  5  8  1  0
  6  9  1  0
 10  7  1  6
 11  8  1  1
 10 11  1  0
  9 12  1  1
  9 13  1  0
 10 14  1  0
 11 15  1  0
 14 16  1  0
 15 17  1  0
 16 17  1  0
 13 18  1  0
 18 19  1  0
 18 20  1  0
 19 21  1  0
 20 22  1  0
 21 23  1  0
 22 23  1  0
M  CHG  1   1  -1
M  END
