ucsf325-ucsf153
     RDKit          3D

 13 14  0  0  0  0  0  0  0  0999 V2000
   14.3070    0.8940    7.6400 O   0  0  0  0  0  0  0  0  0  0  0  0
   14.7870    1.8580    8.5770 C   0  0  2  0  0  0  0  0  0  0  0  0
   14.2650    1.5410    9.9880 C   0  0  0  0  0  0  0  0  0  0  0  0
   14.3270    3.2270    8.1140 C   0  0  0  0  0  0  0  0  0  0  0  0
   14.8220    4.2050    9.1530 C   0  0  2  0  0  0  0  0  0  0  0  0
   14.3730    2.7090   11.0140 C   0  0  0  0  0  0  0  0  0  0  0  0
   14.0660    4.0900   10.4310 C   0  0  1  0  0  0  0  0  0  0  0  0
   15.0700    5.6080    8.9080 N   0  0  0  0  0  0  0  0  0  0  0  0
   16.3820    5.6330    8.3640 C   0  0  2  0  0  0  0  0  0  0  0  0
   14.5500    5.1890   11.2090 O   0  0  0  0  0  0  0  0  0  0  0  0
   14.9070    6.1980   10.2450 C   0  0  0  0  0  0  0  0  0  0  0  0
   16.5040    4.3690    7.6900 N   0  0  0  0  0  0  0  0  0  0  0  0
   17.3410    5.5150    9.3570 O   0  0  0  0  0  0  0  0  0  0  0  0
  2  1  1  6
  2  3  1  0
  2  4  1  0
  5  4  1  6
  3  6  1  0
  5  7  1  0
  7  6  1  1
  5  8  1  0
  8  9  1  0
  7 10  1  0
  8 11  1  0
 10 11  1  0
  9 12  1  6
  9 13  1  0
M  END
