ucsf006-ucsf213
     RDKit          3D

 28 31  0  0  0  0  0  0  0  0999 V2000
   -2.7740   15.1000   -3.2060 C   0  0  0  0  0  0  0  0  0  0  0  0
   -1.5010   15.1590   -2.4970 N   0  0  0  0  0  0  0  0  0  0  0  0
   -0.6590   14.0080   -2.8350 C   0  0  0  0  0  0  0  0  0  0  0  0
   -1.6120   15.2930   -1.0570 C   0  0  1  0  0  0  0  0  0  0  0  0
   -1.2540   12.9660   -3.8010 C   0  0  0  0  0  0  0  0  0  0  0  0
   -2.6790   14.4600   -0.3620 C   0  0  1  0  0  0  0  0  0  0  0  0
   -0.3000   14.8190   -0.5790 N   0  0  0  0  0  0  0  0  0  0  0  0
   -0.1360   12.1630   -4.4860 C   0  0  1  0  0  0  0  0  0  0  0  0
   -2.5180   14.6390    1.1420 C   0  0  1  0  0  0  0  0  0  0  0  0
   -0.1900   14.8190    0.8560 C   0  0  0  0  0  0  0  0  0  0  0  0
   -4.1420   14.7070   -0.6350 C   0  0  0  0  0  0  0  0  0  0  0  0
   -0.3760   12.0400   -5.8790 O   0  0  0  0  0  0  0  0  0  0  0  0
    1.1670   12.6950   -4.2110 N   0  0  0  0  0  0  0  0  0  0  0  0
   -1.3750   15.4430    1.3930 N   0  0  0  0  0  0  0  0  0  0  0  0
   -3.7040   15.2790    1.6830 N   0  0  0  0  0  0  0  0  0  0  0  0
   -4.6210   15.5140    0.5600 C   0  0  0  0  0  0  0  0  0  0  0  0
    1.5990   12.3690   -2.8430 C   0  0  2  0  0  0  0  0  0  0  0  0
    1.1080   14.1020   -4.6930 C   0  0  2  0  0  0  0  0  0  0  0  0
    0.8400   11.3910   -2.3650 O   0  0  0  0  0  0  0  0  0  0  0  0
    1.3840   13.3700   -1.8900 O   0  0  0  0  0  0  0  0  0  0  0  0
    1.2690   15.4440   -3.8930 C   0  0  0  0  0  0  0  0  0  0  0  0
   -0.6380   14.3540   -5.3080 S   0  0  0  0  0  0  0  0  0  0  0  0
    0.7720   16.5440   -4.8540 C   0  0  1  0  0  0  0  0  0  0  0  0
   -0.6080   16.1500   -5.2490 C   0  0  2  0  0  0  0  0  0  0  0  0
    0.6510   18.0310   -4.5640 C   0  0  0  0  0  0  0  0  0  0  0  0
   -1.7830   16.9250   -4.6900 C   0  0  0  0  0  0  0  0  0  0  0  0
   -0.2810   18.5630   -5.6810 C   0  0  0  0  0  0  0  0  0  0  0  0
   -1.7420   18.2840   -5.3530 C   0  0  0  0  0  0  0  0  0  0  0  0
  1  2  1  0
  2  3  1  0
  4  2  1  6
  3  5  1  0
  4  6  1  0
  4  7  1  0
  5  8  1  0
  6  9  1  0
  7 10  1  0
  6 11  1  6
  8 12  1  6
  8 13  1  0
  9 14  1  6
 10 14  1  0
  9 15  1  0
 11 16  1  0
 15 16  1  0
 13 17  1  0
 18 13  1  1
 17 19  1  1
 17 20  1  0
 18 21  1  0
 18 22  1  0
 23 21  1  1
 22 24  1  0
 23 24  1  0
 23 25  1  0
 24 26  1  1
 25 27  1  0
 26 28  1  0
 27 28  1  0
M  CHG  1  19  -1
M  END
