ucsf028-ucsf124
     RDKit          3D

 31 35  0  0  0  0  0  0  0  0999 V2000
   -4.2850   15.5630    1.3500 N   0  0  0  0  0  0  0  0  0  0  0  0
   -3.7550   14.8030    0.2300 C   0  0  2  0  0  0  0  0  0  0  0  0
   -2.2790   14.3500    0.4510 C   0  0  1  0  0  0  0  0  0  0  0  0
   -4.0010   15.6190   -0.9400 N   0  0  0  0  0  0  0  0  0  0  0  0
   -3.3590   15.0560   -2.1200 C   0  0  0  0  0  0  0  0  0  0  0  0
   -1.4480   14.2920   -0.8300 C   0  0  1  0  0  0  0  0  0  0  0  0
   -1.4690   15.2370    1.3040 N   0  0  0  0  0  0  0  0  0  0  0  0
   -1.9180   15.0520   -1.9540 N   0  0  0  0  0  0  0  0  0  0  0  0
   -0.0920   14.7470   -0.4620 N   0  0  0  0  0  0  0  0  0  0  0  0
   -0.1300   14.8020    0.9840 C   0  0  0  0  0  0  0  0  0  0  0  0
   -1.1050   14.9430   -3.1920 C   0  0  0  0  0  0  0  0  0  0  0  0
   -0.7670   13.5140   -3.6270 C   0  0  2  0  0  0  0  0  0  0  0  0
   -1.8690   12.6870   -4.2070 C   0  0  0  0  0  0  0  0  0  0  0  0
   -0.2540   12.7440   -2.5220 O   0  0  0  0  0  0  0  0  0  0  0  0
   -0.7400   11.3610   -2.6250 N   0  0  0  0  0  0  0  0  0  0  0  0
   -1.4010   11.2800   -3.9300 C   0  0  2  0  0  0  0  0  0  0  0  0
   -0.5150   10.7020   -5.0580 C   0  0  2  0  0  0  0  0  0  0  0  0
    0.4890   11.6420   -5.5630 N   0  0  0  0  0  0  0  0  0  0  0  0
   -1.2550   10.3700   -6.4240 C   0  0  1  0  0  0  0  0  0  0  0  0
    1.3830   12.5060   -4.6920 C   0  0  0  0  0  0  0  0  0  0  0  0
   -0.1640   10.5220   -7.5100 C   0  0  1  0  0  0  0  0  0  0  0  0
    1.0330   11.0990   -6.7610 C   0  0  1  0  0  0  0  0  0  0  0  0
   -1.8270    8.9300   -6.4310 C   0  0  0  0  0  0  0  0  0  0  0  0
   -2.3540   11.3670   -6.7690 C   0  0  0  0  0  0  0  0  0  0  0  0
    1.7250   12.1350   -3.1910 C   0  0  2  0  0  0  0  0  0  0  0  0
    1.6050   12.1430   -7.4350 O   0  0  0  0  0  0  0  0  0  0  0  0
   -2.1570    8.3900   -7.8290 C   0  0  0  0  0  0  0  0  0  0  0  0
    0.1940    9.2220   -8.2520 C   0  0  0  0  0  0  0  0  0  0  0  0
    0.9400   11.1800   -2.7310 O   0  0  0  0  0  0  0  0  0  0  0  0
    1.4240   13.1990   -2.3160 O   0  0  0  0  0  0  0  0  0  0  0  0
   -1.0130    8.5190   -8.8410 C   0  0  0  0  0  0  0  0  0  0  0  0
  2  1  1  1
  2  3  1  0
  2  4  1  0
  4  5  1  0
  3  6  1  0
  3  7  1  1
  5  8  1  0
  6  8  1  0
  6  9  1  1
  7 10  1  0
  9 10  1  0
  8 11  1  0
 12 11  1  1
 12 13  1  0
 12 14  1  0
 14 15  1  0
 16 13  1  6
 15 16  1  0
 16 17  1  0
 17 18  1  6
 17 19  1  0
 18 20  1  0
 19 21  1  0
 18 22  1  0
 21 22  1  0
 19 23  1  0
 19 24  1  6
 20 25  1  0
 22 26  1  6
 23 27  1  0
 21 28  1  1
 25 29  1  1
 25 30  1  0
 27 31  1  0
 28 31  1  0
M  CHG  1  29  -1
M  END
