ucsf151-ucsf172
     RDKit          3D

 23 24  0  0  0  0  0  0  0  0999 V2000
    0.7170   13.0690   -2.8390 O   0  0  0  0  0  0  0  0  0  0  0  0
   -0.2560   13.9750   -2.8370 C   0  0  2  0  0  0  0  0  0  0  0  0
    0.4600   15.1880   -2.5540 O   0  0  0  0  0  0  0  0  0  0  0  0
   -1.4640   13.7590   -1.8450 C   0  0  2  0  0  0  0  0  0  0  0  0
   -0.9980   14.1580   -4.1730 C   0  0  1  0  0  0  0  0  0  0  0  0
   -2.3950   13.0450   -2.4780 O   0  0  0  0  0  0  0  0  0  0  0  0
   -1.0470   15.5180   -4.8340 C   0  0  0  0  0  0  0  0  0  0  0  0
   -1.0310   13.0780   -5.2380 C   0  0  0  0  0  0  0  0  0  0  0  0
   -2.2030   15.0780   -1.3830 C   0  0  2  0  0  0  0  0  0  0  0  0
   -2.4880   15.6200   -5.3760 C   0  0  1  0  0  0  0  0  0  0  0  0
   -2.3980   13.0070   -5.8450 N   0  0  0  0  0  0  0  0  0  0  0  0
   -2.0760   15.1500    0.1410 C   0  0  0  0  0  0  0  0  0  0  0  0
   -3.6780   15.1960   -1.9540 C   0  0  0  0  0  0  0  0  0  0  0  0
   -2.6280   16.7340   -6.3130 O   0  0  0  0  0  0  0  0  0  0  0  0
   -3.0680   14.3170   -6.0370 C   0  0  0  0  0  0  0  0  0  0  0  0
   -3.2450   14.5470    0.8390 C   0  0  0  0  0  0  0  0  0  0  0  0
   -4.8530   15.3600   -0.9720 C   0  0  0  0  0  0  0  0  0  0  0  0
   -4.4520   15.3940    0.5120 C   0  0  1  0  0  0  0  0  0  0  0  0
   -5.5390   15.1900    1.4680 N   0  0  0  0  0  0  0  0  0  0  0  0
   -6.9760   14.4280    1.2600 S   0  0  0  0  0  0  0  0  0  0  0  0
   -8.3410   14.8810    2.2640 C   0  0  0  0  0  0  0  0  0  0  0  0
   -6.6960   12.9190    1.7020 O   0  0  0  0  0  0  0  0  0  0  0  0
   -7.5430   14.3690   -0.2370 O   0  0  0  0  0  0  0  0  0  0  0  0
  2  1  1  6
  2  3  1  0
  2  4  1  0
  2  5  1  0
  4  6  1  6
  5  7  1  6
  5  8  1  0
  4  9  1  0
  7 10  1  0
  8 11  1  0
  9 12  1  1
  9 13  1  0
 10 14  1  6
 10 15  1  0
 11 15  1  0
 12 16  1  0
 13 17  1  0
 16 18  1  0
 17 18  1  0
 18 19  1  1
 19 20  1  0
 20 21  1  0
 20 22  1  0
 20 23  1  0
M  CHG  2   1  -1   6  -1
M  END
