ucsf403-ucsf243
     RDKit          3D

 23 24  0  0  0  0  0  0  0  0999 V2000
    0.4640    9.4770   -7.8150 Cl  0  0  0  0  0  0  0  0  0  0  0  0
   -0.6330    9.7730   -6.4000 C   0  0  1  0  0  0  0  0  0  0  0  0
   -0.8510   11.3020   -6.2070 C   0  0  2  0  0  0  0  0  0  0  0  0
   -1.8890    8.9210   -6.5980 C   0  0  0  0  0  0  0  0  0  0  0  0
    0.4780   11.7910   -5.9350 O   0  0  0  0  0  0  0  0  0  0  0  0
   -2.0310   11.6850   -5.1850 C   0  0  2  0  0  0  0  0  0  0  0  0
   -3.1840    9.6140   -6.2210 C   0  0  0  0  0  0  0  0  0  0  0  0
   -1.7890   12.4140   -3.7900 C   0  0  0  0  0  0  0  0  0  0  0  0
    0.7640   12.5220   -4.7380 C   0  0  0  0  0  0  0  0  0  0  0  0
   -3.0410   10.5250   -5.0160 C   0  0  0  0  0  0  0  0  0  0  0  0
    0.8520   11.7410   -3.3860 C   0  0  2  0  0  0  0  0  0  0  0  0
   -2.2560   13.8950   -3.4400 C   0  0  2  0  0  0  0  0  0  0  0  0
    1.7560   12.2370   -2.5720 O   0  0  0  0  0  0  0  0  0  0  0  0
    1.2860   10.4140   -3.5880 O   0  0  0  0  0  0  0  0  0  0  0  0
   -1.4900   14.5660   -2.2220 C   0  0  2  0  0  0  0  0  0  0  0  0
   -3.7850   14.1340   -3.2650 C   0  0  0  0  0  0  0  0  0  0  0  0
    0.0330   14.2400   -2.0990 C   0  0  1  0  0  0  0  0  0  0  0  0
   -2.1870   14.3240   -0.8360 C   0  0  0  0  0  0  0  0  0  0  0  0
   -4.1020   15.1810   -2.1820 C   0  0  0  0  0  0  0  0  0  0  0  0
    0.6900   14.5410   -3.3070 O   0  0  0  0  0  0  0  0  0  0  0  0
    0.6290   15.0890   -1.2890 O   0  0  0  0  0  0  0  0  0  0  0  0
   -3.6730   14.7030   -0.7970 C   0  0  2  0  0  0  0  0  0  0  0  0
   -3.9970   15.7050    0.3190 C   0  0  0  0  0  0  0  0  0  0  0  0
  2  1  1  6
  2  3  1  0
  2  4  1  0
  3  5  1  1
  3  6  1  0
  4  7  1  0
  6  8  1  1
  5  9  1  0
  6 10  1  0
  7 10  1  0
  9 11  1  0
 12  8  1  1
 11 13  1  1
 11 14  1  0
 12 15  1  0
 12 16  1  0
 15 17  1  0
 15 18  1  1
 16 19  1  0
 17 20  1  6
 17 21  1  0
 18 22  1  0
 19 22  1  0
 22 23  1  1
M  CHG  2  13  -1  21  -1
M  END
