ucsf392-ucsf442
     RDKit          3D

 13 14  0  0  0  0  0  0  0  0999 V2000
   -5.2570   15.8060   -1.1170 C   0  0  0  0  0  0  0  0  0  0  0  0
   -4.2080   14.8630   -0.4940 C   0  0  1  0  0  0  0  0  0  0  0  0
   -2.9360   14.9480   -1.3850 C   0  0  2  0  0  0  0  0  0  0  0  0
   -3.8140   15.1690    0.9570 C   0  0  2  0  0  0  0  0  0  0  0  0
   -4.9740   13.6310   -0.2720 N   0  0  0  0  0  0  0  0  0  0  0  0
   -3.6560   16.5390    1.2670 N   0  0  0  0  0  0  0  0  0  0  0  0
   -3.0570   14.1720   -2.5510 O   0  0  0  0  0  0  0  0  0  0  0  0
   -2.6230   14.5630    1.4420 N   0  0  0  0  0  0  0  0  0  0  0  0
   -1.6220   14.6180   -0.7820 N   0  0  0  0  0  0  0  0  0  0  0  0
   -5.0160   14.8850    1.6790 N   0  0  0  0  0  0  0  0  0  0  0  0
   -5.8440   14.0670    0.8160 C   0  0  0  0  0  0  0  0  0  0  0  0
   -1.4550   14.9240    0.6510 C   0  0  2  0  0  0  0  0  0  0  0  0
   -0.2150   14.2140    1.1770 C   0  0  0  0  0  0  0  0  0  0  0  0
  2  1  1  6
  2  3  1  0
  2  4  1  0
  2  5  1  0
  4  6  1  6
  3  7  1  6
  4  8  1  0
  3  9  1  0
  4 10  1  0
  5 11  1  0
 10 11  1  0
  8 12  1  0
  9 12  1  0
 12 13  1  1
M  END
