ucsf109-ucsf378
     RDKit          3D

 26 29  0  0  0  0  0  0  0  0999 V2000
   -3.9720   15.2690    1.7450 N   0  0  0  0  0  0  0  0  0  0  0  0
   -4.8040   14.2490    1.1310 C   0  0  2  0  0  0  0  0  0  0  0  0
   -4.3970   14.0490   -0.3520 C   0  0  1  0  0  0  0  0  0  0  0  0
   -6.1540   14.7550    1.2460 N   0  0  0  0  0  0  0  0  0  0  0  0
   -7.0730   14.0300    0.4260 C   0  0  2  0  0  0  0  0  0  0  0  0
   -5.5650   14.0720   -1.3990 C   0  0  1  0  0  0  0  0  0  0  0  0
   -3.3790   15.0770   -0.8690 C   0  0  0  0  0  0  0  0  0  0  0  0
   -6.7390   14.8530    2.5700 N   0  0  0  0  0  0  0  0  0  0  0  0
   -6.8860   14.4720   -0.9020 N   0  0  0  0  0  0  0  0  0  0  0  0
   -5.0930   15.0410   -2.4830 C   0  0  0  0  0  0  0  0  0  0  0  0
   -3.5780   15.0090   -2.3810 C   0  0  2  0  0  0  0  0  0  0  0  0
   -8.3600   14.4060    0.9240 N   0  0  0  0  0  0  0  0  0  0  0  0
   -8.1250   14.4220    2.3640 C   0  0  0  0  0  0  0  0  0  0  0  0
   -3.0060   13.7620   -3.0460 C   0  0  0  0  0  0  0  0  0  0  0  0
   -2.2480   14.1040   -4.3280 C   0  0  0  0  0  0  0  0  0  0  0  0
   -0.8070   14.5500   -4.0240 C   0  0  1  0  0  0  0  0  0  0  0  0
    0.2280   13.4080   -4.3220 C   0  0  2  0  0  0  0  0  0  0  0  0
   -0.4690   15.8950   -4.6790 C   0  0  0  0  0  0  0  0  0  0  0  0
   -0.3000   12.0750   -3.6970 C   0  0  0  0  0  0  0  0  0  0  0  0
    1.6060   13.7730   -3.7930 C   0  0  1  0  0  0  0  0  0  0  0  0
    1.0200   16.1070   -4.7900 C   0  0  0  0  0  0  0  0  0  0  0  0
    2.9210   12.9030   -4.6750 Cl  0  0  0  0  0  0  0  0  0  0  0  0
    0.4170   11.5080   -2.4510 C   0  0  1  0  0  0  0  0  0  0  0  0
    1.8360   15.2730   -3.8040 C   0  0  0  0  0  0  0  0  0  0  0  0
   -0.0820   11.9550   -1.3200 O   0  0  0  0  0  0  0  0  0  0  0  0
    0.1830   10.1240   -2.3820 O   0  0  0  0  0  0  0  0  0  0  0  0
  2  1  1  6
  2  3  1  0
  2  4  1  0
  4  5  1  0
  3  6  1  0
  3  7  1  6
  4  8  1  0
  5  9  1  6
  6  9  1  0
  6 10  1  6
  7 11  1  0
 10 11  1  0
  5 12  1  0
  8 13  1  0
 12 13  1  0
 11 14  1  1
 14 15  1  0
 16 15  1  6
 16 17  1  0
 16 18  1  0
 17 19  1  1
 17 20  1  0
 18 21  1  0
 20 22  1  6
 19 23  1  0
 20 24  1  0
 21 24  1  0
 23 25  1  1
 23 26  1  0
M  CHG  1  25  -1
M  END
