ucsf039-ucsf520
     RDKit          3D

 17 19  0  0  0  0  0  0  0  0999 V2000
   -4.3990   15.4040    1.0740 N   0  0  0  0  0  0  0  0  0  0  0  0
   -3.5450   14.8480    0.0370 C   0  0  2  0  0  0  0  0  0  0  0  0
   -2.0820   15.2510    0.2270 C   0  0  2  0  0  0  0  0  0  0  0  0
   -4.0170   15.3970   -1.2280 N   0  0  0  0  0  0  0  0  0  0  0  0
   -3.1580   15.0450   -2.3910 C   0  0  0  0  0  0  0  0  0  0  0  0
   -1.3240   14.6700   -0.9290 C   0  0  1  0  0  0  0  0  0  0  0  0
   -1.3680   14.6700    1.3560 N   0  0  0  0  0  0  0  0  0  0  0  0
   -1.7170   15.2500   -2.1930 N   0  0  0  0  0  0  0  0  0  0  0  0
    0.0540   14.8540   -0.5470 N   0  0  0  0  0  0  0  0  0  0  0  0
    0.0030   14.5720    0.8860 C   0  0  0  0  0  0  0  0  0  0  0  0
   -0.8680   14.7420   -3.3040 C   0  0  0  0  0  0  0  0  0  0  0  0
   -0.4040   15.7360   -4.4200 C   0  0  2  0  0  0  0  0  0  0  0  0
    0.7960   16.5860   -4.0120 C   0  0  0  0  0  0  0  0  0  0  0  0
   -1.4640   16.6510   -4.9230 N   0  0  0  0  0  0  0  0  0  0  0  0
   -0.8970   17.9740   -5.2270 C   0  0  1  0  0  0  0  0  0  0  0  0
    0.8890   17.7910   -5.3460 S   0  0  0  0  0  0  0  0  0  0  0  0
   -1.4630   18.5400   -6.5150 C   0  0  0  0  0  0  0  0  0  0  0  0
  2  1  1  1
  2  3  1  0
  2  4  1  0
  4  5  1  0
  3  6  1  0
  3  7  1  1
  5  8  1  0
  6  8  1  0
  6  9  1  1
  7 10  1  0
  9 10  1  0
  8 11  1  0
 12 11  1  1
 12 13  1  0
 12 14  1  0
 14 15  1  0
 13 16  1  0
 15 16  1  0
 15 17  1  6
M  END
