ucsf516-ucsf274
     RDKit          3D

 34 39  0  0  0  0  0  0  0  0999 V2000
    0.3350   10.3330   -2.2540 O   0  0  0  0  0  0  0  0  0  0  0  0
    0.6250   11.6010   -2.4900 C   0  0  2  0  0  0  0  0  0  0  0  0
    0.3420   12.2080   -1.2520 O   0  0  0  0  0  0  0  0  0  0  0  0
   -0.3000   12.2380   -3.5880 C   0  0  2  0  0  0  0  0  0  0  0  0
    0.1880   12.3400   -5.0500 C   0  0  0  0  0  0  0  0  0  0  0  0
   -0.9140   13.5950   -3.1730 C   0  0  1  0  0  0  0  0  0  0  0  0
   -0.1190   14.8170   -3.4630 C   0  0  2  0  0  0  0  0  0  0  0  0
   -2.1740   14.0800   -3.8700 C   0  0  0  0  0  0  0  0  0  0  0  0
   -0.9430   12.0110   -6.0040 C   0  0  2  0  0  0  0  0  0  0  0  0
    1.3740   14.5410   -3.2490 C   0  0  0  0  0  0  0  0  0  0  0  0
   -0.9390   15.7590   -2.6520 N   0  0  0  0  0  0  0  0  0  0  0  0
   -2.2550   15.5010   -3.3050 C   0  0  0  0  0  0  0  0  0  0  0  0
   -1.9970   11.2750   -5.1070 C   0  0  1  0  0  0  0  0  0  0  0  0
   -0.5600   11.1950   -7.1650 N   0  0  0  0  0  0  0  0  0  0  0  0
   -2.9060   12.1790   -4.5290 O   0  0  0  0  0  0  0  0  0  0  0  0
    1.9560   13.6240   -2.1390 C   0  0  0  0  0  0  0  0  0  0  0  0
    2.0230   13.5470   -4.2550 C   0  0  0  0  0  0  0  0  0  0  0  0
   -0.9900   15.6700   -1.1620 C   0  0  2  0  0  0  0  0  0  0  0  0
   -2.8410   10.2960   -5.7420 N   0  0  0  0  0  0  0  0  0  0  0  0
   -0.6360    9.7590   -6.8940 C   0  0  1  0  0  0  0  0  0  0  0  0
    2.1140   12.4880   -3.1690 C   0  0  0  0  0  0  0  0  0  0  0  0
   -0.3400   14.5140   -0.5690 N   0  0  0  0  0  0  0  0  0  0  0  0
   -2.4160   15.7210   -0.5430 C   0  0  2  0  0  0  0  0  0  0  0  0
   -1.9950    9.2520   -6.2900 C   0  0  2  0  0  0  0  0  0  0  0  0
   -0.2310    9.0460   -8.1860 C   0  0  0  0  0  0  0  0  0  0  0  0
   -0.1340   14.6710    0.8570 C   0  0  0  0  0  0  0  0  0  0  0  0
   -2.4890   14.8200    0.6430 C   0  0  1  0  0  0  0  0  0  0  0  0
   -3.7030   15.2320   -1.1780 C   0  0  0  0  0  0  0  0  0  0  0  0
   -0.5540    7.5630   -8.1270 C   0  0  0  0  0  0  0  0  0  0  0  0
   -2.8140    8.4640   -7.3040 C   0  0  0  0  0  0  0  0  0  0  0  0
   -1.3810   14.9500    1.5120 N   0  0  0  0  0  0  0  0  0  0  0  0
   -3.7670   15.1470    1.2370 N   0  0  0  0  0  0  0  0  0  0  0  0
   -4.6310   15.2920    0.0400 C   0  0  0  0  0  0  0  0  0  0  0  0
   -2.0410    7.2880   -7.8880 C   0  0  0  0  0  0  0  0  0  0  0  0
  2  1  1  1
  2  3  1  0
  2  4  1  0
  4  5  1  6
  4  6  1  0
  6  7  1  0
  6  8  1  6
  9  5  1  1
  7 10  1  1
  7 11  1  0
  8 12  1  0
 11 12  1  0
  9 13  1  0
  9 14  1  0
 13 15  1  6
 10 16  1  0
 10 17  1  0
 18 11  1  6
 13 19  1  0
 14 20  1  0
 16 21  1  0
 17 21  1  0
 18 22  1  0
 18 23  1  0
 19 24  1  0
 20 24  1  0
 20 25  1  6
 22 26  1  0
 23 27  1  0
 23 28  1  6
 25 29  1  0
 24 30  1  6
 26 31  1  0
 27 31  1  1
 27 32  1  0
 28 33  1  0
 32 33  1  0
 29 34  1  0
 30 34  1  0
M  CHG  1   1  -1
M  END
