ucsf247-ucsf017
     RDKit          3D

 28 31  0  0  0  0  0  0  0  0999 V2000
    0.2120   14.3430   -3.3000 O   0  0  0  0  0  0  0  0  0  0  0  0
   -0.0860   15.2400   -4.2210 C   0  0  2  0  0  0  0  0  0  0  0  0
    0.6490   16.3600   -3.7430 O   0  0  0  0  0  0  0  0  0  0  0  0
   -1.6290   15.5400   -4.1930 C   0  0  0  0  0  0  0  0  0  0  0  0
   -2.2480   15.0430   -2.9390 N   0  0  0  0  0  0  0  0  0  0  0  0
   -3.6240   15.3640   -2.6010 C   0  0  1  0  0  0  0  0  0  0  0  0
   -4.4980   14.5670   -3.3970 O   0  0  0  0  0  0  0  0  0  0  0  0
   -4.1140   15.3760   -1.1030 C   0  0  1  0  0  0  0  0  0  0  0  0
   -5.6600   15.4900   -1.0080 C   0  0  0  0  0  0  0  0  0  0  0  0
   -3.3370   14.3720   -0.1470 C   0  0  2  0  0  0  0  0  0  0  0  0
   -6.3450   14.5140   -0.0760 C   0  0  2  0  0  0  0  0  0  0  0  0
   -4.1760   13.8520    1.0680 C   0  0  0  0  0  0  0  0  0  0  0  0
   -2.1480   15.0780    0.4600 N   0  0  0  0  0  0  0  0  0  0  0  0
   -2.8240   13.2680   -1.0400 C   0  0  0  0  0  0  0  0  0  0  0  0
   -7.6920   14.9280    0.1900 O   0  0  0  0  0  0  0  0  0  0  0  0
   -5.5930   14.3840    1.2340 C   0  0  0  0  0  0  0  0  0  0  0  0
   -0.9960   14.2670    0.8730 C   0  0  0  0  0  0  0  0  0  0  0  0
   -1.3840   13.5800   -1.4410 C   0  0  2  0  0  0  0  0  0  0  0  0
   -0.8410   12.8670   -2.6210 N   0  0  0  0  0  0  0  0  0  0  0  0
   -0.5290   13.4620   -0.2540 N   0  0  0  0  0  0  0  0  0  0  0  0
   -1.9130   12.1620   -3.4280 C   0  0  1  0  0  0  0  0  0  0  0  0
    0.2910   11.9840   -2.3350 C   0  0  0  0  0  0  0  0  0  0  0  0
   -2.8140   13.0980   -4.2640 C   0  0  0  0  0  0  0  0  0  0  0  0
   -1.4900   11.2040   -4.5360 C   0  0  1  0  0  0  0  0  0  0  0  0
    0.0010   10.5450   -2.6950 C   0  0  0  0  0  0  0  0  0  0  0  0
   -1.3510   12.0970   -5.7520 C   0  0  0  0  0  0  0  0  0  0  0  0
   -2.4680   12.9840   -5.6650 O   0  0  0  0  0  0  0  0  0  0  0  0
   -0.2680   10.4280   -4.1770 C   0  0  0  0  0  0  0  0  0  0  0  0
  2  1  1  1
  2  3  1  0
  2  4  1  0
  4  5  1  0
  5  6  1  0
  6  7  1  6
  6  8  1  0
  8  9  1  6
  8 10  1  0
  9 11  1  0
 10 12  1  1
 10 13  1  0
 10 14  1  0
 11 15  1  1
 11 16  1  0
 12 16  1  0
 13 17  1  0
 14 18  1  0
 18 19  1  6
 17 20  1  0
 18 20  1  0
 19 21  1  0
 19 22  1  0
 21 23  1  6
 21 24  1  0
 22 25  1  0
 24 26  1  6
 23 27  1  0
 26 27  1  0
 24 28  1  0
 25 28  1  0
M  CHG  1   1  -1
M  END
