ucsf403-ucsf367
     RDKit          3D

 13 13  0  0  0  0  0  0  0  0999 V2000
    0.7700    8.9240   -7.7800 Cl  0  0  0  0  0  0  0  0  0  0  0  0
   -0.6860    9.6400   -7.0080 C   0  0  2  0  0  0  0  0  0  0  0  0
   -0.4560   10.5830   -5.8010 C   0  0  1  0  0  0  0  0  0  0  0  0
   -1.6690    8.5380   -6.6380 C   0  0  0  0  0  0  0  0  0  0  0  0
    0.6620   11.4780   -6.0270 O   0  0  0  0  0  0  0  0  0  0  0  0
   -1.7690   11.3580   -5.6490 C   0  0  2  0  0  0  0  0  0  0  0  0
   -3.0110    9.1290   -6.2070 C   0  0  0  0  0  0  0  0  0  0  0  0
   -1.7420   12.7240   -4.4850 Cl  0  0  0  0  0  0  0  0  0  0  0  0
    0.9470   12.5300   -5.0450 C   0  0  0  0  0  0  0  0  0  0  0  0
   -2.9070   10.3800   -5.3110 C   0  0  0  0  0  0  0  0  0  0  0  0
    0.7160   12.1060   -3.5500 C   0  0  2  0  0  0  0  0  0  0  0  0
    1.8210   12.3020   -2.8720 O   0  0  0  0  0  0  0  0  0  0  0  0
    0.4150   10.7170   -3.4470 O   0  0  0  0  0  0  0  0  0  0  0  0
  2  1  1  1
  2  3  1  0
  2  4  1  0
  3  5  1  6
  3  6  1  0
  4  7  1  0
  6  8  1  1
  5  9  1  0
  6 10  1  0
  7 10  1  0
  9 11  1  0
 11 12  1  1
 11 13  1  0
M  CHG  1  12  -1
M  END
