ucsf135-ucsf264
     RDKit          3D

 18 19  0  0  0  0  0  0  0  0999 V2000
    1.8740   11.9400   -6.9650 O   0  0  0  0  0  0  0  0  0  0  0  0
    0.5080   11.8720   -6.7150 C   0  0  2  0  0  0  0  0  0  0  0  0
    0.2860   12.1920   -5.3270 N   0  0  0  0  0  0  0  0  0  0  0  0
   -0.2240   10.5530   -7.2010 C   0  0  1  0  0  0  0  0  0  0  0  0
    0.6750    9.9500   -8.3250 C   0  0  0  0  0  0  0  0  0  0  0  0
   -0.6270   11.0090   -4.6570 S   0  0  2  0  0  0  0  0  0  0  0  0
   -0.6270    9.7030   -5.9040 C   0  0  1  0  0  0  0  0  0  0  0  0
   -1.5250   10.8220   -7.9620 C   0  0  0  0  0  0  0  0  0  0  0  0
   -2.1410   11.4300   -4.3820 O   0  0  0  0  0  0  0  0  0  0  0  0
    0.0060   10.4580   -3.3100 O   0  0  0  0  0  0  0  0  0  0  0  0
    1.4950    8.9410   -7.9430 F   0  0  0  0  0  0  0  0  0  0  0  0
   -0.0600    9.4730   -9.3580 F   0  0  0  0  0  0  0  0  0  0  0  0
    1.4350   10.8530   -8.9480 F   0  0  0  0  0  0  0  0  0  0  0  0
   -1.9720    8.9790   -5.9480 C   0  0  0  0  0  0  0  0  0  0  0  0
   -2.2420    9.5290   -8.3980 C   0  0  0  0  0  0  0  0  0  0  0  0
    0.4430   11.4450   -2.3480 C   0  0  0  0  0  0  0  0  0  0  0  0
   -2.3180    8.4460   -7.3230 C   0  0  0  0  0  0  0  0  0  0  0  0
    1.3360   12.2680   -2.8790 O   0  0  0  0  0  0  0  0  0  0  0  0
  2  1  1  1
  2  3  1  0
  2  4  1  0
  4  5  1  6
  3  6  1  0
  4  7  1  0
  6  7  1  0
  4  8  1  0
  6  9  1  1
  6 10  1  0
  5 11  1  0
  5 12  1  0
  5 13  1  0
  7 14  1  6
  8 15  1  0
 10 16  1  0
 14 17  1  0
 15 17  1  0
 16 18  1  0
M  CHG  1  18  -1
M  END
