ucsf380-ucsf138
     RDKit          3D

 29 31  0  0  0  0  0  0  0  0999 V2000
    0.6290   15.1890   -1.7870 O   0  0  0  0  0  0  0  0  0  0  0  0
    0.0970   14.1780   -2.4620 C   0  0  1  0  0  0  0  0  0  0  0  0
    0.8640   13.0200   -2.1010 O   0  0  0  0  0  0  0  0  0  0  0  0
   -1.3780   13.9080   -1.9610 C   0  0  0  0  0  0  0  0  0  0  0  0
    1.2450   12.1000   -3.1420 C   0  0  1  0  0  0  0  0  0  0  0  0
   -2.1340   15.1630   -1.3820 C   0  0  0  0  0  0  0  0  0  0  0  0
   -2.2400   13.1430   -3.0370 C   0  0  0  0  0  0  0  0  0  0  0  0
    0.5630   10.8780   -2.8790 O   0  0  0  0  0  0  0  0  0  0  0  0
    0.9420   12.5360   -4.6130 C   0  0  0  0  0  0  0  0  0  0  0  0
   -2.1760   15.2400    0.1650 C   0  0  0  0  0  0  0  0  0  0  0  0
   -3.4730   15.4050   -2.1240 C   0  0  0  0  0  0  0  0  0  0  0  0
   -2.3430   11.6290   -2.8590 C   0  0  0  0  0  0  0  0  0  0  0  0
   -1.8820   13.5190   -4.4940 C   0  0  0  0  0  0  0  0  0  0  0  0
    0.4270   11.3920   -5.4210 N   0  0  0  0  0  0  0  0  0  0  0  0
   -3.5040   14.9060    0.8230 C   0  0  0  0  0  0  0  0  0  0  0  0
   -4.7660   15.4470   -1.2940 C   0  0  0  0  0  0  0  0  0  0  0  0
   -3.1920   10.9900   -3.9580 C   0  0  0  0  0  0  0  0  0  0  0  0
   -1.5860   12.3200   -5.3910 C   0  0  0  0  0  0  0  0  0  0  0  0
    0.4170   11.5240   -6.8510 C   0  0  1  0  0  0  0  0  0  0  0  0
   -4.6360   15.6730    0.2090 C   0  0  0  0  0  0  0  0  0  0  0  0
   -2.6770   11.2610   -5.3730 C   0  0  0  0  0  0  0  0  0  0  0  0
    1.7030   11.4620   -7.3240 O   0  0  0  0  0  0  0  0  0  0  0  0
   -0.2900   10.3650   -7.3850 N   0  0  0  0  0  0  0  0  0  0  0  0
    0.0660    9.6570   -8.6360 C   0  0  0  0  0  0  0  0  0  0  0  0
   -0.2750   10.3500   -9.9720 C   0  0  0  0  0  0  0  0  0  0  0  0
    1.4870    9.2190   -8.7760 C   0  0  0  0  0  0  0  0  0  0  0  0
    0.4730    9.7450  -11.1900 C   0  0  0  0  0  0  0  0  0  0  0  0
    1.6910    8.0570   -9.7370 C   0  0  0  0  0  0  0  0  0  0  0  0
    0.9320    8.2880  -11.0380 C   0  0  0  0  0  0  0  0  0  0  0  0
  2  1  1  1
  2  3  1  0
  2  4  1  0
  3  5  1  0
  4  6  1  0
  4  7  1  0
  5  8  1  1
  5  9  1  0
  6 10  1  0
  6 11  1  0
  7 12  1  0
  7 13  1  0
  9 14  1  0
 10 15  1  0
 11 16  1  0
 12 17  1  0
 13 18  1  0
 14 19  1  0
 15 20  1  0
 16 20  1  0
 17 21  1  0
 18 21  1  0
 19 22  1  6
 19 23  1  0
 23 24  1  0
 24 25  1  0
 24 26  1  0
 25 27  1  0
 26 28  1  0
 27 29  1  0
 28 29  1  0
M  CHG  1   1  -1
M  END
