ucsf487-ucsf012
     RDKit          3D

 29 33  0  0  0  0  0  0  0  0999 V2000
   -9.1430   13.9090    2.4090 N   0  0  0  0  0  0  0  0  0  0  0  0
   -8.1370   13.4730    1.4380 C   0  0  1  0  0  0  0  0  0  0  0  0
   -8.3360   14.1720    0.0560 C   0  0  0  0  0  0  0  0  0  0  0  0
   -6.7620   13.7360    2.0390 C   0  0  0  0  0  0  0  0  0  0  0  0
   -6.0130   14.5680    1.0600 C   0  0  2  0  0  0  0  0  0  0  0  0
   -7.2710   13.9020   -0.9310 N   0  0  0  0  0  0  0  0  0  0  0  0
   -5.9670   13.8480   -0.2610 C   0  0  1  0  0  0  0  0  0  0  0  0
   -4.6760   15.1420    1.5970 C   0  0  0  0  0  0  0  0  0  0  0  0
   -4.7490   14.4210   -0.9880 C   0  0  1  0  0  0  0  0  0  0  0  0
   -3.9710   16.0700    0.6120 C   0  0  0  0  0  0  0  0  0  0  0  0
   -4.3860   13.9850   -2.3710 C   0  0  0  0  0  0  0  0  0  0  0  0
   -4.5770   15.9030   -0.7650 C   0  0  0  0  0  0  0  0  0  0  0  0
   -2.8650   13.9080   -2.4470 C   0  0  1  0  0  0  0  0  0  0  0  0
   -2.1810   14.7360   -3.5490 C   0  0  1  0  0  0  0  0  0  0  0  0
   -2.0140   14.1780   -1.1430 C   0  0  1  0  0  0  0  0  0  0  0  0
   -2.9620   15.9400   -4.0380 C   0  0  0  0  0  0  0  0  0  0  0  0
   -1.1120   15.3120   -1.5630 C   0  0  2  0  0  0  0  0  0  0  0  0
   -0.8920   15.1830   -2.9970 N   0  0  0  0  0  0  0  0  0  0  0  0
   -2.5170   14.6520    0.2300 C   0  0  1  0  0  0  0  0  0  0  0  0
   -3.0920   13.6740    1.1180 N   0  0  0  0  0  0  0  0  0  0  0  0
    0.1550   14.2380   -3.3550 C   0  0  0  0  0  0  0  0  0  0  0  0
   -1.3790   15.0600    1.0330 N   0  0  0  0  0  0  0  0  0  0  0  0
    0.1420   15.1480   -0.8840 N   0  0  0  0  0  0  0  0  0  0  0  0
   -0.0490   14.7820    0.5050 C   0  0  0  0  0  0  0  0  0  0  0  0
   -0.2440   12.7710   -3.2010 C   0  0  2  0  0  0  0  0  0  0  0  0
    0.8030   11.9170   -2.5530 C   0  0  0  0  0  0  0  0  0  0  0  0
   -0.5220   12.0770   -4.4200 O   0  0  0  0  0  0  0  0  0  0  0  0
   -0.5490   10.6910   -4.0520 C   0  0  0  0  0  0  0  0  0  0  0  0
    0.0950   10.5980   -2.6760 C   0  0  0  0  0  0  0  0  0  0  0  0
  2  1  1  1
  2  3  1  0
  2  4  1  0
  5  4  1  1
  3  6  1  0
  5  7  1  0
  7  6  1  6
  5  8  1  0
  7  9  1  0
  8 10  1  0
  9 11  1  6
  9 12  1  0
 10 12  1  0
 13 11  1  1
 13 14  1  0
 13 15  1  0
 14 16  1  1
 15 17  1  0
 14 18  1  0
 17 18  1  0
 15 19  1  1
 19 20  1  1
 18 21  1  0
 19 22  1  0
 17 23  1  1
 22 24  1  0
 23 24  1  0
 25 21  1  6
 25 26  1  0
 25 27  1  0
 27 28  1  0
 26 29  1  0
 28 29  1  0
M  END
