ucsf260-ucsf110
     RDKit          3D

 26 29  0  0  0  0  0  0  0  0999 V2000
    1.0810   11.1540   -2.9120 O   0  0  0  0  0  0  0  0  0  0  0  0
    1.8820   12.1550   -3.2410 C   0  0  2  0  0  0  0  0  0  0  0  0
    1.5030   13.0740   -2.2520 O   0  0  0  0  0  0  0  0  0  0  0  0
    1.5150   12.6760   -4.6570 C   0  0  0  0  0  0  0  0  0  0  0  0
    0.0260   13.0860   -4.6950 C   0  0  1  0  0  0  0  0  0  0  0  0
   -0.1860   14.6250   -4.7810 C   0  0  0  0  0  0  0  0  0  0  0  0
   -0.9090   12.2100   -5.4820 N   0  0  0  0  0  0  0  0  0  0  0  0
   -0.3710   15.3060   -3.3930 C   0  0  0  0  0  0  0  0  0  0  0  0
   -1.5940   11.2360   -4.6720 C   0  0  0  0  0  0  0  0  0  0  0  0
   -0.6350   11.5690   -6.8020 C   0  0  2  0  0  0  0  0  0  0  0  0
   -2.4890   10.5500   -5.5910 N   0  0  0  0  0  0  0  0  0  0  0  0
   -1.6740   10.4180   -6.8070 C   0  0  2  0  0  0  0  0  0  0  0  0
    0.7320   10.9920   -7.1850 C   0  0  0  0  0  0  0  0  0  0  0  0
   -1.5010   14.7120   -2.6340 N   0  0  0  0  0  0  0  0  0  0  0  0
   -1.0820    9.0070   -6.8930 C   0  0  0  0  0  0  0  0  0  0  0  0
    0.6050   10.0900   -8.4180 C   0  0  0  0  0  0  0  0  0  0  0  0
   -2.8280   15.2670   -2.9750 C   0  0  0  0  0  0  0  0  0  0  0  0
   -1.4110   14.6130   -1.1610 C   0  0  2  0  0  0  0  0  0  0  0  0
   -0.2760    8.8620   -8.1740 C   0  0  0  0  0  0  0  0  0  0  0  0
   -3.5910   15.2360   -1.6620 C   0  0  0  0  0  0  0  0  0  0  0  0
   -2.4860   15.5540   -0.6690 C   0  0  1  0  0  0  0  0  0  0  0  0
   -0.1700   14.9440   -0.5320 N   0  0  0  0  0  0  0  0  0  0  0  0
   -2.8040   15.2970    0.7960 C   0  0  1  0  0  0  0  0  0  0  0  0
   -0.3480   15.2470    0.8660 C   0  0  0  0  0  0  0  0  0  0  0  0
   -3.8980   14.3790    1.0490 N   0  0  0  0  0  0  0  0  0  0  0  0
   -1.6200   14.8020    1.4600 N   0  0  0  0  0  0  0  0  0  0  0  0
  2  1  1  1
  2  3  1  0
  2  4  1  0
  5  4  1  6
  5  6  1  0
  5  7  1  0
  6  8  1  0
  7  9  1  0
  7 10  1  0
  9 11  1  0
 10 12  1  0
 11 12  1  0
 10 13  1  1
  8 14  1  0
 12 15  1  1
 13 16  1  0
 14 17  1  0
 14 18  1  0
 15 19  1  0
 16 19  1  0
 17 20  1  0
 18 21  1  0
 21 20  1  6
 18 22  1  1
 21 23  1  0
 22 24  1  0
 23 25  1  6
 23 26  1  0
 24 26  1  0
M  CHG  1   1  -1
M  END
