ucsf357-ucsf013
     RDKit          3D

 17 18  0  0  0  0  0  0  0  0999 V2000
   -5.9530   15.4660   -2.6960 O   0  0  0  0  0  0  0  0  0  0  0  0
   -6.1330   15.8740   -1.3810 C   0  0  1  0  0  0  0  0  0  0  0  0
   -7.1830   15.2740   -0.8810 O   0  0  0  0  0  0  0  0  0  0  0  0
   -4.4970   14.8960   -0.5900 S   0  0  0  0  0  0  0  0  0  0  0  0
   -3.3050   15.1880   -2.0130 C   0  0  0  0  0  0  0  0  0  0  0  0
   -3.0140   14.5360   -1.1260 C   0  0  0  0  0  0  0  0  0  0  0  0
   -4.9090   14.3970    1.1960 C   0  0  1  0  0  0  0  0  0  0  0  0
   -5.4940   13.3940   -0.4910 C   0  0  0  0  0  0  0  0  0  0  0  0
   -3.8810   14.9250    2.0310 N   0  0  0  0  0  0  0  0  0  0  0  0
   -1.8700   14.6550   -2.3080 C   0  0  2  0  0  0  0  0  0  0  0  0
   -1.7910   14.5150   -0.2500 C   0  0  0  0  0  0  0  0  0  0  0  0
   -6.7580   13.5450   -0.1640 N   0  0  0  0  0  0  0  0  0  0  0  0
   -6.1950   14.7280    1.5420 N   0  0  0  0  0  0  0  0  0  0  0  0
   -1.5990   14.1880   -3.5720 F   0  0  0  0  0  0  0  0  0  0  0  0
   -1.0950   13.8090   -1.2710 C   0  0  2  0  0  0  0  0  0  0  0  0
   -7.3080   14.0530    0.9770 C   0  0  0  0  0  0  0  0  0  0  0  0
    0.1910   14.0680   -1.3460 O   0  0  0  0  0  0  0  0  0  0  0  0
  2  1  1  6
  2  3  1  0
  2  4  1  0
  4  5  1  0
  4  6  1  0
  4  7  1  0
  4  8  1  0
  7  9  1  1
  5 10  1  0
  6 11  1  0
  8 12  1  0
  7 13  1  0
 10 14  1  6
 10 15  1  0
 11 15  1  0
 12 16  1  0
 13 16  1  0
 15 17  1  1
M  CHG  1   1  -1
M  END
