ucsf378-ucsf109
     RDKit          3D

 27 30  0  0  0  0  0  0  0  0999 V2000
   -2.3000   14.0700   -4.9970 Cl  0  0  0  0  0  0  0  0  0  0  0  0
   -0.8310   14.3370   -4.0030 C   0  0  1  0  0  0  0  0  0  0  0  0
    0.2960   13.3420   -4.3620 C   0  0  2  0  0  0  0  0  0  0  0  0
   -0.4110   15.7990   -4.1740 C   0  0  0  0  0  0  0  0  0  0  0  0
    0.0320   11.8740   -3.9030 C   0  0  0  0  0  0  0  0  0  0  0  0
    1.6290   13.7970   -3.7610 C   0  0  1  0  0  0  0  0  0  0  0  0
    0.9030   15.9150   -4.8840 C   0  0  0  0  0  0  0  0  0  0  0  0
    2.9890   12.8480   -4.4220 Cl  0  0  0  0  0  0  0  0  0  0  0  0
   -0.6190   11.5770   -2.5380 C   0  0  2  0  0  0  0  0  0  0  0  0
    1.9350   15.2450   -4.0230 C   0  0  0  0  0  0  0  0  0  0  0  0
   -0.0690   12.3370   -1.4530 O   0  0  0  0  0  0  0  0  0  0  0  0
   -0.3510   10.2080   -2.3000 O   0  0  0  0  0  0  0  0  0  0  0  0
   -0.8470   13.4220   -0.8530 C   0  0  0  0  0  0  0  0  0  0  0  0
   -2.4030   13.3430   -0.9960 C   0  0  0  0  0  0  0  0  0  0  0  0
   -3.0370   14.7270   -1.3250 C   0  0  2  0  0  0  0  0  0  0  0  0
   -4.3850   15.2400   -0.7050 C   0  0  2  0  0  0  0  0  0  0  0  0
   -3.4230   14.7950   -2.8050 C   0  0  0  0  0  0  0  0  0  0  0  0
   -4.6880   15.1470    0.7930 C   0  0  2  0  0  0  0  0  0  0  0  0
   -5.5290   14.8220   -1.6650 C   0  0  1  0  0  0  0  0  0  0  0  0
   -4.8430   14.2450   -2.8870 C   0  0  0  0  0  0  0  0  0  0  0  0
   -3.5800   14.5260    1.4920 N   0  0  0  0  0  0  0  0  0  0  0  0
   -5.9180   14.3910    1.0690 N   0  0  0  0  0  0  0  0  0  0  0  0
   -6.6250   14.0260   -1.1430 N   0  0  0  0  0  0  0  0  0  0  0  0
   -6.9660   14.6120    0.0890 C   0  0  1  0  0  0  0  0  0  0  0  0
   -6.5870   14.7700    2.3020 N   0  0  0  0  0  0  0  0  0  0  0  0
   -8.0960   13.9540    0.6880 N   0  0  0  0  0  0  0  0  0  0  0  0
   -7.8860   14.1160    2.1330 C   0  0  0  0  0  0  0  0  0  0  0  0
  2  1  1  6
  2  3  1  0
  2  4  1  0
  3  5  1  1
  3  6  1  0
  4  7  1  0
  6  8  1  6
  5  9  1  0
  6 10  1  0
  7 10  1  0
  9 11  1  0
  9 12  1  1
 11 13  1  0
 13 14  1  0
 15 14  1  1
 16 15  1  1
 15 17  1  0
 16 18  1  0
 16 19  1  0
 17 20  1  0
 19 20  1  6
 18 21  1  1
 18 22  1  0
 19 23  1  0
 22 24  1  0
 24 23  1  6
 22 25  1  0
 24 26  1  0
 25 27  1  0
 26 27  1  0
M  END
