ucsf337-ucsf151
     RDKit          3D

 21 22  0  0  0  0  0  0  0  0999 V2000
   -7.4430   14.6100    0.5280 C   0  0  0  0  0  0  0  0  0  0  0  0
   -6.2080   14.9910   -0.3130 C   0  0  2  0  0  0  0  0  0  0  0  0
   -6.4210   14.4680   -1.6820 N   0  0  0  0  0  0  0  0  0  0  0  0
   -4.8540   14.5800    0.3240 C   0  0  2  0  0  0  0  0  0  0  0  0
   -4.3430   15.6850    1.8260 Br  0  0  0  0  0  0  0  0  0  0  0  0
   -3.6780   14.7910   -0.6110 C   0  0  0  0  0  0  0  0  0  0  0  0
   -5.1840   14.4200   -2.4440 C   0  0  1  0  0  0  0  0  0  0  0  0
   -5.5210   14.7370   -3.8060 N   0  0  0  0  0  0  0  0  0  0  0  0
   -4.1840   15.4050   -1.8890 C   0  0  0  0  0  0  0  0  0  0  0  0
   -4.3890   14.5170   -4.7490 C   0  0  0  0  0  0  0  0  0  0  0  0
   -3.7100   15.8130   -5.2660 C   0  0  0  0  0  0  0  0  0  0  0  0
   -2.4880   15.6550   -5.9280 O   0  0  0  0  0  0  0  0  0  0  0  0
   -1.6320   14.6970   -5.3280 C   0  0  1  0  0  0  0  0  0  0  0  0
   -1.4920   14.7960   -3.8250 C   0  0  0  0  0  0  0  0  0  0  0  0
   -2.1640   13.3280   -5.7630 C   0  0  0  0  0  0  0  0  0  0  0  0
   -0.5740   13.6440   -3.4070 C   0  0  1  0  0  0  0  0  0  0  0  0
   -2.4130   12.3920   -4.6660 N   0  0  0  0  0  0  0  0  0  0  0  0
   -0.0930   13.6860   -1.9310 C   0  0  1  0  0  0  0  0  0  0  0  0
   -1.2760   12.3040   -3.7220 C   0  0  0  0  0  0  0  0  0  0  0  0
    0.4460   12.5350   -1.5340 O   0  0  0  0  0  0  0  0  0  0  0  0
    0.9820   14.6050   -1.8630 O   0  0  0  0  0  0  0  0  0  0  0  0
  2  1  1  1
  2  3  1  0
  2  4  1  0
  4  5  1  1
  4  6  1  0
  3  7  1  0
  7  8  1  6
  6  9  1  0
  7  9  1  0
  8 10  1  0
 10 11  1  0
 11 12  1  0
 13 12  1  1
 13 14  1  0
 13 15  1  0
 16 14  1  1
 15 17  1  0
 16 18  1  0
 16 19  1  0
 17 19  1  0
 18 20  1  6
 18 21  1  0
M  CHG  1  20  -1
M  END
