ucsf442-ucsf422
     RDKit          3D

 27 30  0  0  0  0  0  0  0  0999 V2000
   -0.5240   14.2630    0.4060 O   0  0  0  0  0  0  0  0  0  0  0  0
   -1.3050   15.4250    0.3150 C   0  0  1  0  0  0  0  0  0  0  0  0
   -1.7550   15.6150   -1.0240 N   0  0  0  0  0  0  0  0  0  0  0  0
   -2.3640   15.4430    1.2700 N   0  0  0  0  0  0  0  0  0  0  0  0
   -3.5080   14.6260    0.9860 C   0  0  2  0  0  0  0  0  0  0  0  0
   -2.8360   14.7490   -1.4770 C   0  0  2  0  0  0  0  0  0  0  0  0
   -3.3880   15.3690   -2.6370 O   0  0  0  0  0  0  0  0  0  0  0  0
   -3.9820   14.4790   -0.4730 C   0  0  2  0  0  0  0  0  0  0  0  0
   -4.6940   15.1780    1.6440 N   0  0  0  0  0  0  0  0  0  0  0  0
   -4.5310   14.7490   -3.2190 C   0  0  0  0  0  0  0  0  0  0  0  0
   -5.2880   15.1670   -0.5190 N   0  0  0  0  0  0  0  0  0  0  0  0
   -5.7490   14.7180    0.7780 C   0  0  0  0  0  0  0  0  0  0  0  0
   -4.5830   14.7130   -4.7660 C   0  0  0  0  0  0  0  0  0  0  0  0
   -3.8730   15.7340   -5.4770 O   0  0  0  0  0  0  0  0  0  0  0  0
   -2.5980   16.0500   -4.9140 C   0  0  2  0  0  0  0  0  0  0  0  0
   -1.9510   17.2450   -5.6300 C   0  0  0  0  0  0  0  0  0  0  0  0
   -1.7410   14.7900   -4.9940 C   0  0  0  0  0  0  0  0  0  0  0  0
   -0.3730   14.9590   -4.3580 C   0  0  1  0  0  0  0  0  0  0  0  0
   -0.4150   17.3170   -5.4870 C   0  0  0  0  0  0  0  0  0  0  0  0
    0.7840   14.1080   -4.8660 C   0  0  2  0  0  0  0  0  0  0  0  0
    0.1630   16.4100   -4.4040 C   0  0  2  0  0  0  0  0  0  0  0  0
    0.8430   12.6130   -4.4900 C   0  0  0  0  0  0  0  0  0  0  0  0
    1.8980   14.8690   -4.1620 C   0  0  0  0  0  0  0  0  0  0  0  0
    1.6230   16.2830   -4.4290 N   0  0  0  0  0  0  0  0  0  0  0  0
    0.4470   12.2170   -3.0400 C   0  0  1  0  0  0  0  0  0  0  0  0
    0.3920   10.9180   -2.8430 O   0  0  0  0  0  0  0  0  0  0  0  0
    1.4580   12.5990   -2.1410 O   0  0  0  0  0  0  0  0  0  0  0  0
  2  1  1  6
  2  3  1  0
  2  4  1  0
  5  4  1  6
  3  6  1  0
  6  7  1  6
  5  8  1  0
  6  8  1  0
  5  9  1  0
  7 10  1  0
  8 11  1  6
  9 12  1  0
 11 12  1  0
 10 13  1  0
 13 14  1  0
 15 14  1  6
 15 16  1  0
 15 17  1  0
 18 17  1  6
 16 19  1  0
 18 20  1  0
 18 21  1  0
 21 19  1  6
 20 22  1  1
 20 23  1  0
 21 24  1  0
 23 24  1  0
 22 25  1  0
 25 26  1  6
 25 27  1  0
M  CHG  1  26  -1
M  END
