ucsf365-ucsf392
     RDKit          3D

 22 23  0  0  0  0  0  0  0  0999 V2000
    0.6230   10.4090   -2.4710 O   0  0  0  0  0  0  0  0  0  0  0  0
    0.2700   11.6760   -2.5700 C   0  0  1  0  0  0  0  0  0  0  0  0
    1.0770   12.5130   -1.7620 O   0  0  0  0  0  0  0  0  0  0  0  0
    0.4430   12.2640   -4.0020 C   0  0  0  0  0  0  0  0  0  0  0  0
    0.1910   13.4530   -1.2080 C   0  0  0  0  0  0  0  0  0  0  0  0
   -0.7870   13.1530   -4.3080 C   0  0  2  0  0  0  0  0  0  0  0  0
    0.9000   14.6870   -0.7110 C   0  0  0  0  0  0  0  0  0  0  0  0
   -1.9390   12.3870   -4.9750 C   0  0  2  0  0  0  0  0  0  0  0  0
   -0.4860   14.4510   -5.0590 C   0  0  0  0  0  0  0  0  0  0  0  0
   -1.4870   11.1560   -5.5450 O   0  0  0  0  0  0  0  0  0  0  0  0
    0.1870   15.0430    0.5930 C   0  0  0  0  0  0  0  0  0  0  0  0
   -2.6540   13.1710   -6.0830 C   0  0  0  0  0  0  0  0  0  0  0  0
   -1.7480   15.3250   -5.1040 C   0  0  0  0  0  0  0  0  0  0  0  0
   -2.9680   14.6160   -5.7060 C   0  0  0  0  0  0  0  0  0  0  0  0
   -1.2950   14.9890    0.2750 C   0  0  1  0  0  0  0  0  0  0  0  0
   -2.2160   15.3610    1.2820 N   0  0  0  0  0  0  0  0  0  0  0  0
   -1.6500   15.6920   -0.9230 N   0  0  0  0  0  0  0  0  0  0  0  0
   -3.5380   14.9070    1.0230 C   0  0  1  0  0  0  0  0  0  0  0  0
   -2.8710   15.1900   -1.5150 C   0  0  0  0  0  0  0  0  0  0  0  0
   -4.3930   15.6280    1.9230 N   0  0  0  0  0  0  0  0  0  0  0  0
   -3.9460   14.8570   -0.4700 C   0  0  2  0  0  0  0  0  0  0  0  0
   -5.2120   15.6530   -0.7660 C   0  0  0  0  0  0  0  0  0  0  0  0
  2  1  1  6
  2  3  1  0
  2  4  1  0
  3  5  1  0
  6  4  1  6
  5  7  1  0
  6  8  1  0
  6  9  1  0
  8 10  1  6
  7 11  1  0
  8 12  1  0
  9 13  1  0
 12 14  1  0
 13 14  1  0
 15 11  1  1
 15 16  1  0
 15 17  1  0
 16 18  1  0
 17 19  1  0
 18 20  1  1
 18 21  1  0
 19 21  1  0
 21 22  1  1
M  CHG  1   1  -1
M  END
