ucsf365-ucsf190
     RDKit          3D

 16 17  0  0  0  0  0  0  0  0999 V2000
    0.2880   10.9560   -2.1580 O   0  0  0  0  0  0  0  0  0  0  0  0
    1.0160   12.0520   -2.4120 C   0  0  2  0  0  0  0  0  0  0  0  0
    0.1600   13.0940   -2.0390 O   0  0  0  0  0  0  0  0  0  0  0  0
    1.3730   12.1980   -3.9120 C   0  0  0  0  0  0  0  0  0  0  0  0
    1.2330   13.5790   -4.5560 C   0  0  1  0  0  0  0  0  0  0  0  0
   -0.1870   13.8930   -5.1240 C   0  0  1  0  0  0  0  0  0  0  0  0
    1.8210   14.5880   -3.6450 N   0  0  0  0  0  0  0  0  0  0  0  0
   -1.3490   12.9240   -4.7540 C   0  0  2  0  0  0  0  0  0  0  0  0
   -0.5610   15.4100   -4.9880 C   0  0  1  0  0  0  0  0  0  0  0  0
    1.7060   15.9190   -4.1970 N   0  0  0  0  0  0  0  0  0  0  0  0
   -0.9770   11.5640   -5.0720 O   0  0  0  0  0  0  0  0  0  0  0  0
   -2.6350   13.2000   -5.5240 C   0  0  0  0  0  0  0  0  0  0  0  0
   -2.0740   15.6020   -4.7470 C   0  0  0  0  0  0  0  0  0  0  0  0
    0.3190   16.2620   -4.0630 C   0  0  1  0  0  0  0  0  0  0  0  0
    0.1940   17.6320   -4.4140 O   0  0  0  0  0  0  0  0  0  0  0  0
   -2.9980   14.6840   -5.5660 C   0  0  0  0  0  0  0  0  0  0  0  0
  2  1  1  6
  2  3  1  0
  2  4  1  0
  5  4  1  1
  6  5  1  1
  5  7  1  0
  6  8  1  0
  6  9  1  0
  7 10  1  0
  8 11  1  6
  8 12  1  0
  9 13  1  1
  9 14  1  0
 10 14  1  0
 14 15  1  6
 12 16  1  0
 13 16  1  0
M  CHG  1   1  -1
M  END
