ucsf004-ucsf340
     RDKit          3D

 30 34  0  0  0  0  0  0  0  0999 V2000
   -2.4030   12.9690   -5.1790 F   0  0  0  0  0  0  0  0  0  0  0  0
   -1.6140   12.5860   -4.1380 C   0  0  1  0  0  0  0  0  0  0  0  0
   -0.1310   12.6420   -4.5620 C   0  0  1  0  0  0  0  0  0  0  0  0
   -1.9790   13.4550   -2.9140 C   0  0  0  0  0  0  0  0  0  0  0  0
   -1.0800   14.5890   -2.6860 N   0  0  0  0  0  0  0  0  0  0  0  0
    0.6220   13.9430   -4.4430 C   0  0  0  0  0  0  0  0  0  0  0  0
    0.7620   11.6640   -3.8960 C   0  0  0  0  0  0  0  0  0  0  0  0
   -0.3190   14.9200   -3.9020 C   0  0  2  0  0  0  0  0  0  0  0  0
   -0.9550   15.0780   -1.3010 C   0  0  2  0  0  0  0  0  0  0  0  0
    0.8290   11.5080   -2.3670 C   0  0  1  0  0  0  0  0  0  0  0  0
   -0.2250   14.1360   -0.4350 N   0  0  0  0  0  0  0  0  0  0  0  0
   -2.3050   15.4150   -0.6220 C   0  0  2  0  0  0  0  0  0  0  0  0
   -0.4350   16.2680   -4.4910 C   0  0  2  0  0  0  0  0  0  0  0  0
   -0.0390   12.2980   -1.6110 O   0  0  0  0  0  0  0  0  0  0  0  0
    0.3460   10.3180   -2.0680 O   0  0  0  0  0  0  0  0  0  0  0  0
   -0.0890   14.5330    0.9560 C   0  0  0  0  0  0  0  0  0  0  0  0
   -2.4300   14.7020    0.6940 C   0  0  1  0  0  0  0  0  0  0  0  0
   -3.6930   15.1780   -1.1570 C   0  0  0  0  0  0  0  0  0  0  0  0
    0.4940   17.4060   -4.2040 C   0  0  0  0  0  0  0  0  0  0  0  0
   -1.7140   16.8640   -4.1410 C   0  0  1  0  0  0  0  0  0  0  0  0
   -1.3310   14.9860    1.5320 N   0  0  0  0  0  0  0  0  0  0  0  0
   -3.6160   15.3310    1.2570 N   0  0  0  0  0  0  0  0  0  0  0  0
   -4.5370   15.4270    0.1050 C   0  0  0  0  0  0  0  0  0  0  0  0
   -0.1700   18.3960   -5.0750 N   0  0  0  0  0  0  0  0  0  0  0  0
   -1.6380   18.0510   -5.0960 C   0  0  1  0  0  0  0  0  0  0  0  0
   -2.8560   15.8720   -4.1680 C   0  0  0  0  0  0  0  0  0  0  0  0
    0.5000   18.5280   -6.3580 C   0  0  0  0  0  0  0  0  0  0  0  0
   -3.1390   15.4370   -5.5520 C   0  0  0  0  0  0  0  0  0  0  0  0
   -2.2090   17.7490   -6.4670 C   0  0  0  0  0  0  0  0  0  0  0  0
   -3.2330   16.5800   -6.5150 C   0  0  0  0  0  0  0  0  0  0  0  0
  2  1  1  6
  2  3  1  0
  2  4  1  0
  4  5  1  0
  3  6  1  0
  3  7  1  1
  5  8  1  0
  8  6  1  1
  9  5  1  6
  7 10  1  0
  9 11  1  0
  9 12  1  0
  8 13  1  0
 10 14  1  1
 10 15  1  0
 11 16  1  0
 12 17  1  0
 12 18  1  6
 13 19  1  1
 13 20  1  0
 16 21  1  0
 17 21  1  1
 17 22  1  0
 18 23  1  0
 22 23  1  0
 19 24  1  0
 20 25  1  0
 24 25  1  0
 20 26  1  6
 24 27  1  0
 26 28  1  0
 25 29  1  6
 28 30  1  0
 29 30  1  0
M  CHG  1  15  -1
M  END
