ucsf169-ucsf412
     RDKit          3D

 25 27  0  0  0  0  0  0  0  0999 V2000
    1.0680   18.1160   -5.7330 C   0  0  0  0  0  0  0  0  0  0  0  0
    0.5780   18.1630   -4.4040 O   0  0  0  0  0  0  0  0  0  0  0  0
   -0.0810   16.9510   -3.9900 C   0  0  1  0  0  0  0  0  0  0  0  0
   -1.3940   16.7870   -4.7520 C   0  0  2  0  0  0  0  0  0  0  0  0
    0.8410   15.7180   -4.1620 C   0  0  0  0  0  0  0  0  0  0  0  0
   -2.2050   17.9780   -4.7280 O   0  0  0  0  0  0  0  0  0  0  0  0
   -2.0660   15.5300   -4.2040 C   0  0  2  0  0  0  0  0  0  0  0  0
    0.2200   14.4430   -4.8150 C   0  0  1  0  0  0  0  0  0  0  0  0
    0.8720   13.0550   -4.4640 C   0  0  0  0  0  0  0  0  0  0  0  0
   -1.9870   15.4770   -2.6580 C   0  0  0  0  0  0  0  0  0  0  0  0
   -1.3340   14.3060   -4.7490 C   0  0  0  0  0  0  0  0  0  0  0  0
    1.0490   12.6010   -2.9770 C   0  0  1  0  0  0  0  0  0  0  0  0
   -3.3360   15.4610   -1.9410 C   0  0  2  0  0  0  0  0  0  0  0  0
    0.4750   13.5250   -2.0880 O   0  0  0  0  0  0  0  0  0  0  0  0
    0.3020   11.5350   -2.7310 O   0  0  0  0  0  0  0  0  0  0  0  0
   -3.4050   15.2100   -0.4450 C   0  0  0  0  0  0  0  0  0  0  0  0
   -4.3620   14.6150   -2.6780 C   0  0  0  0  0  0  0  0  0  0  0  0
   -4.8240   15.4370    0.0840 C   0  0  1  0  0  0  0  0  0  0  0  0
   -5.7870   14.7850   -2.1390 C   0  0  0  0  0  0  0  0  0  0  0  0
   -5.8940   14.6100   -0.6320 C   0  0  2  0  0  0  0  0  0  0  0  0
   -4.9010   15.1870    1.5700 C   0  0  0  0  0  0  0  0  0  0  0  0
   -7.3050   14.9830   -0.1570 C   0  0  1  0  0  0  0  0  0  0  0  0
   -6.2630   14.5960    2.0260 C   0  0  0  0  0  0  0  0  0  0  0  0
   -8.2460   14.0950   -0.7010 O   0  0  0  0  0  0  0  0  0  0  0  0
   -7.4700   14.8970    1.2730 N   0  0  0  0  0  0  0  0  0  0  0  0
  1  2  1  0
  3  2  1  6
  3  4  1  0
  3  5  1  0
  4  6  1  1
  4  7  1  0
  5  8  1  0
  8  9  1  1
  7 10  1  1
  7 11  1  0
  8 11  1  0
  9 12  1  0
 13 10  1  6
 12 14  1  1
 12 15  1  0
 13 16  1  0
 13 17  1  0
 18 16  1  6
 17 19  1  0
 18 20  1  0
 20 19  1  6
 18 21  1  0
 20 22  1  0
 21 23  1  0
 22 24  1  6
 22 25  1  0
 23 25  1  0
M  CHG  1  15  -1
M  END
