ucsf135-ucsf392
     RDKit          3D

 23 25  0  0  0  0  0  0  0  0999 V2000
    1.7320   11.7000   -7.0410 O   0  0  0  0  0  0  0  0  0  0  0  0
    0.4880   11.9680   -6.4860 C   0  0  2  0  0  0  0  0  0  0  0  0
    0.6140   12.0490   -5.0380 N   0  0  0  0  0  0  0  0  0  0  0  0
   -0.6230   10.9550   -6.9380 C   0  0  2  0  0  0  0  0  0  0  0  0
   -0.7130   11.3450   -4.3310 S   0  0  2  0  0  0  0  0  0  0  0  0
   -1.4770   10.5020   -5.7120 C   0  0  2  0  0  0  0  0  0  0  0  0
   -0.1400    9.7320   -7.7340 C   0  0  0  0  0  0  0  0  0  0  0  0
   -1.8770   12.3090   -3.7750 O   0  0  0  0  0  0  0  0  0  0  0  0
   -0.2960   10.2620   -3.2410 O   0  0  0  0  0  0  0  0  0  0  0  0
   -1.6340    8.9940   -5.5750 C   0  0  0  0  0  0  0  0  0  0  0  0
   -1.3080    8.7970   -8.0790 C   0  0  0  0  0  0  0  0  0  0  0  0
   -1.7180   13.7410   -3.7180 C   0  0  0  0  0  0  0  0  0  0  0  0
   -2.1650    8.3950   -6.8720 C   0  0  0  0  0  0  0  0  0  0  0  0
   -2.8560   14.3580   -2.8800 C   0  0  0  0  0  0  0  0  0  0  0  0
   -2.7320   14.2380   -1.3370 C   0  0  2  0  0  0  0  0  0  0  0  0
   -3.9320   14.7030   -0.4680 C   0  0  2  0  0  0  0  0  0  0  0  0
   -1.4930   14.8250   -0.8660 N   0  0  0  0  0  0  0  0  0  0  0  0
   -4.9390   15.6150   -1.1730 C   0  0  0  0  0  0  0  0  0  0  0  0
   -3.4590   15.3830    0.8340 C   0  0  1  0  0  0  0  0  0  0  0  0
   -1.2110   14.4240    0.4880 C   0  0  1  0  0  0  0  0  0  0  0  0
    0.0740   15.1070    0.8890 C   0  0  0  0  0  0  0  0  0  0  0  0
   -4.4660   15.4770    1.8760 N   0  0  0  0  0  0  0  0  0  0  0  0
   -2.2710   14.8020    1.4070 N   0  0  0  0  0  0  0  0  0  0  0  0
  2  1  1  6
  2  3  1  0
  2  4  1  0
  3  5  1  0
  4  6  1  0
  5  6  1  0
  4  7  1  1
  5  8  1  0
  5  9  1  1
  6 10  1  1
  7 11  1  0
  8 12  1  0
 10 13  1  0
 11 13  1  0
 12 14  1  0
 15 14  1  6
 15 16  1  0
 15 17  1  0
 16 18  1  6
 16 19  1  0
 17 20  1  0
 20 21  1  1
 19 22  1  1
 19 23  1  0
 20 23  1  0
M  END
