ucsf385-ucsf123
     RDKit          3D

 23 24  0  0  0  0  0  0  0  0999 V2000
   -3.8230   14.7980   -0.9300 N   0  0  0  0  0  0  0  0  0  0  0  0
   -2.8180   14.0190   -0.1800 C   0  0  2  0  0  0  0  0  0  0  0  0
   -2.8150   14.5000    1.2830 C   0  0  0  0  0  0  0  0  0  0  0  0
   -1.4200   14.0420   -0.8540 C   0  0  1  0  0  0  0  0  0  0  0  0
   -1.4360   14.9810   -2.0490 C   0  0  1  0  0  0  0  0  0  0  0  0
   -0.1600   14.2060    0.0440 C   0  0  0  0  0  0  0  0  0  0  0  0
   -1.6040   15.1890    1.6620 N   0  0  0  0  0  0  0  0  0  0  0  0
   -0.1020   15.3870   -2.3230 O   0  0  0  0  0  0  0  0  0  0  0  0
   -2.0490   14.2630   -3.1150 O   0  0  0  0  0  0  0  0  0  0  0  0
   -0.4700   14.3170    1.5080 C   0  0  0  0  0  0  0  0  0  0  0  0
   -1.0650   13.6740   -3.9600 C   0  0  2  0  0  0  0  0  0  0  0  0
    0.3110   13.8280   -3.2640 C   0  0  1  0  0  0  0  0  0  0  0  0
   -1.1520   14.5210   -5.2050 C   0  0  0  0  0  0  0  0  0  0  0  0
    0.8630   12.4630   -2.7140 C   0  0  1  0  0  0  0  0  0  0  0  0
   -0.8360   15.9430   -4.7970 C   0  0  2  0  0  0  0  0  0  0  0  0
    1.2760   14.7270   -4.1120 C   0  0  0  0  0  0  0  0  0  0  0  0
   -1.7700   17.1760   -5.6660 S   0  0  0  0  0  0  0  0  0  0  0  0
    0.9270   12.6260   -1.3200 O   0  0  0  0  0  0  0  0  0  0  0  0
    0.0460   11.4350   -2.7740 O   0  0  0  0  0  0  0  0  0  0  0  0
    0.6610   16.0610   -4.6140 C   0  0  0  0  0  0  0  0  0  0  0  0
   -3.2840   16.8270   -6.0710 N   0  0  0  0  0  0  0  0  0  0  0  0
   -1.6870   18.4700   -4.7620 O   0  0  0  0  0  0  0  0  0  0  0  0
   -1.0490   17.6490   -6.9870 O   0  0  0  0  0  0  0  0  0  0  0  0
  2  1  1  6
  2  3  1  0
  2  4  1  0
  4  5  1  0
  4  6  1  1
  3  7  1  0
  5  8  1  6
  5  9  1  0
  6 10  1  0
  7 10  1  0
 11  9  1  1
 11 12  1  0
 11 13  1  0
 12 14  1  0
 13 15  1  0
 12 16  1  6
 15 17  1  6
 14 18  1  1
 14 19  1  0
 15 20  1  0
 16 20  1  0
 17 21  1  0
 17 22  1  0
 17 23  1  0
M  CHG  1  19  -1
M  END
