ucsf442-ucsf224
     RDKit          3D

 24 26  0  0  0  0  0  0  0  0999 V2000
   -0.5330   14.3920    0.4120 O   0  0  0  0  0  0  0  0  0  0  0  0
   -1.4480   15.4460    0.4770 C   0  0  1  0  0  0  0  0  0  0  0  0
   -1.7780   15.8270   -0.8720 N   0  0  0  0  0  0  0  0  0  0  0  0
   -2.5730   15.0890    1.3020 N   0  0  0  0  0  0  0  0  0  0  0  0
   -3.3870   14.1080    0.6450 C   0  0  2  0  0  0  0  0  0  0  0  0
   -2.7830   15.0610   -1.5920 C   0  0  2  0  0  0  0  0  0  0  0  0
   -3.3870   15.8250   -2.6400 O   0  0  0  0  0  0  0  0  0  0  0  0
   -3.9270   14.5540   -0.6920 C   0  0  2  0  0  0  0  0  0  0  0  0
   -4.6360   13.9520    1.3180 N   0  0  0  0  0  0  0  0  0  0  0  0
   -3.6380   15.0920   -3.8450 C   0  0  0  0  0  0  0  0  0  0  0  0
   -5.0250   15.4860   -0.3630 N   0  0  0  0  0  0  0  0  0  0  0  0
   -5.3580   15.1410    1.0120 C   0  0  0  0  0  0  0  0  0  0  0  0
   -2.7740   15.6240   -4.9860 C   0  0  0  0  0  0  0  0  0  0  0  0
   -1.2900   15.5970   -4.5630 C   0  0  1  0  0  0  0  0  0  0  0  0
   -0.6690   14.2090   -4.8570 C   0  0  0  0  0  0  0  0  0  0  0  0
   -0.4720   16.7600   -5.1660 C   0  0  1  0  0  0  0  0  0  0  0  0
   -1.2750   18.3510   -4.9720 Cl  0  0  0  0  0  0  0  0  0  0  0  0
    0.8620   14.2080   -4.7830 C   0  0  2  0  0  0  0  0  0  0  0  0
    0.9410   16.7790   -4.6260 C   0  0  0  0  0  0  0  0  0  0  0  0
    1.4080   12.8110   -4.3350 C   0  0  0  0  0  0  0  0  0  0  0  0
    1.3500   15.4360   -3.9930 C   0  0  0  0  0  0  0  0  0  0  0  0
    1.3390   12.4070   -2.8270 C   0  0  2  0  0  0  0  0  0  0  0  0
    0.5770   11.3370   -2.6650 O   0  0  0  0  0  0  0  0  0  0  0  0
    0.6330   13.3440   -2.0690 O   0  0  0  0  0  0  0  0  0  0  0  0
  2  1  1  6
  2  3  1  0
  2  4  1  0
  5  4  1  1
  3  6  1  0
  6  7  1  6
  5  8  1  0
  6  8  1  0
  5  9  1  0
  7 10  1  0
  8 11  1  1
  9 12  1  0
 11 12  1  0
 10 13  1  0
 14 13  1  6
 14 15  1  0
 14 16  1  0
 16 17  1  1
 15 18  1  0
 16 19  1  0
 18 20  1  1
 18 21  1  0
 19 21  1  0
 20 22  1  0
 22 23  1  6
 22 24  1  0
M  CHG  1  23  -1
M  END
