ucsf274-ucsf170
     RDKit          3D

 26 28  0  0  0  0  0  0  0  0999 V2000
    0.4770   11.2040   -2.6500 O   0  0  0  0  0  0  0  0  0  0  0  0
    1.1430   12.3180   -2.4630 C   0  0  2  0  0  0  0  0  0  0  0  0
    0.6110   12.6940   -1.2080 O   0  0  0  0  0  0  0  0  0  0  0  0
    0.8570   13.4690   -3.5030 C   0  0  1  0  0  0  0  0  0  0  0  0
    0.0600   13.1230   -4.8060 C   0  0  0  0  0  0  0  0  0  0  0  0
    0.4290   14.8310   -2.8440 C   0  0  0  0  0  0  0  0  0  0  0  0
   -0.2120   11.6160   -5.0560 C   0  0  1  0  0  0  0  0  0  0  0  0
   -1.0000   15.1610   -2.2810 C   0  0  2  0  0  0  0  0  0  0  0  0
   -1.6030   11.1360   -4.4780 C   0  0  1  0  0  0  0  0  0  0  0  0
    0.0210   11.2290   -6.4710 N   0  0  0  0  0  0  0  0  0  0  0  0
   -1.4430   14.1630   -1.1740 C   0  0  0  0  0  0  0  0  0  0  0  0
   -2.0830   15.4350   -3.3610 C   0  0  1  0  0  0  0  0  0  0  0  0
   -2.2820   12.1650   -3.7930 O   0  0  0  0  0  0  0  0  0  0  0  0
   -1.7370   14.8270   -4.6040 O   0  0  0  0  0  0  0  0  0  0  0  0
   -2.6090   10.5650   -5.3820 N   0  0  0  0  0  0  0  0  0  0  0  0
   -0.5560    9.9060   -6.6830 C   0  0  1  0  0  0  0  0  0  0  0  0
   -2.8560   14.4240   -0.6070 C   0  0  1  0  0  0  0  0  0  0  0  0
   -3.4760   14.9360   -3.0010 C   0  0  0  0  0  0  0  0  0  0  0  0
   -2.8530   15.1470    1.0900 S   0  0  0  0  0  0  0  0  0  0  0  0
   -2.0890    9.8700   -6.5620 C   0  0  1  0  0  0  0  0  0  0  0  0
   -0.1220    9.2960   -8.0170 C   0  0  0  0  0  0  0  0  0  0  0  0
   -3.7790   15.2110   -1.5440 C   0  0  0  0  0  0  0  0  0  0  0  0
   -4.6370   15.2820    1.3620 C   0  0  0  0  0  0  0  0  0  0  0  0
   -0.6320    7.8590   -8.1380 C   0  0  0  0  0  0  0  0  0  0  0  0
   -2.5490    8.4140   -6.5410 C   0  0  0  0  0  0  0  0  0  0  0  0
   -2.1270    7.7100   -7.8300 C   0  0  0  0  0  0  0  0  0  0  0  0
  2  1  1  6
  2  3  1  0
  2  4  1  0
  4  5  1  6
  4  6  1  0
  7  5  1  6
  8  6  1  6
  7  9  1  0
  7 10  1  0
  8 11  1  0
  8 12  1  0
  9 13  1  6
 12 14  1  6
  9 15  1  0
 10 16  1  0
 11 17  1  0
 12 18  1  0
 17 19  1  1
 15 20  1  0
 16 20  1  0
 16 21  1  6
 17 22  1  0
 18 22  1  0
 19 23  1  0
 21 24  1  0
 20 25  1  1
 24 26  1  0
 25 26  1  0
M  CHG  1   1  -1
M  END
