ucsf109-ucsf442
     RDKit          3D

 20 23  0  0  0  0  0  0  0  0999 V2000
   -4.6720   13.8280    1.8830 N   0  0  0  0  0  0  0  0  0  0  0  0
   -5.4000   13.5880    0.7120 C   0  0  2  0  0  0  0  0  0  0  0  0
   -4.2360   14.1590   -0.6930 S   0  0  0  0  0  0  0  0  0  0  0  0
   -6.3400   14.6630    1.0160 N   0  0  0  0  0  0  0  0  0  0  0  0
   -7.4750   14.7680    0.3120 C   0  0  1  0  0  0  0  0  0  0  0  0
   -5.8340   14.2470   -1.3850 C   0  0  1  0  0  0  0  0  0  0  0  0
   -4.4240   13.8020   -2.6000 C   0  0  0  0  0  0  0  0  0  0  0  0
   -6.8000   14.5280    2.2820 N   0  0  0  0  0  0  0  0  0  0  0  0
   -3.6540   15.4740    0.3200 C   0  0  0  0  0  0  0  0  0  0  0  0
   -2.5930   14.7220   -0.9560 C   0  0  2  0  0  0  0  0  0  0  0  0
   -2.1930   15.1350   -2.1620 O   0  0  0  0  0  0  0  0  0  0  0  0
   -7.0610   14.4880   -0.9060 N   0  0  0  0  0  0  0  0  0  0  0  0
   -5.8210   15.2810   -2.4360 C   0  0  0  0  0  0  0  0  0  0  0  0
   -4.5100   15.2370   -2.9680 C   0  0  0  0  0  0  0  0  0  0  0  0
   -8.3970   13.7540    0.8370 N   0  0  0  0  0  0  0  0  0  0  0  0
   -8.0600   13.8630    2.2560 C   0  0  0  0  0  0  0  0  0  0  0  0
   -2.6970   15.2980    1.3440 N   0  0  0  0  0  0  0  0  0  0  0  0
   -1.4480   14.3250   -0.3210 N   0  0  0  0  0  0  0  0  0  0  0  0
   -1.2460   15.1270    0.9090 C   0  0  2  0  0  0  0  0  0  0  0  0
   -0.5620   14.3970    1.8310 O   0  0  0  0  0  0  0  0  0  0  0  0
  2  1  1  1
  2  3  1  0
  2  4  1  0
  4  5  1  0
  3  6  1  0
  3  7  1  0
  4  8  1  0
  3  9  1  0
  3 10  1  0
 10 11  1  6
  5 12  1  6
  6 12  1  0
  6 13  1  6
  7 14  1  0
 13 14  1  0
  5 15  1  0
  8 16  1  0
 15 16  1  0
  9 17  1  0
 10 18  1  0
 17 19  1  0
 18 19  1  0
 19 20  1  1
M  END
