ucsf243-ucsf004
     RDKit          3D

 26 29  0  0  0  0  0  0  0  0999 V2000
   -5.3170   12.8190   -1.6630 C   0  0  0  0  0  0  0  0  0  0  0  0
   -4.0450   13.0100   -2.5000 C   0  0  2  0  0  0  0  0  0  0  0  0
   -4.3700   13.3980   -3.9430 C   0  0  0  0  0  0  0  0  0  0  0  0
   -3.0770   11.8080   -2.4030 C   0  0  0  0  0  0  0  0  0  0  0  0
   -1.7120   11.9750   -3.1570 C   0  0  2  0  0  0  0  0  0  0  0  0
   -3.1620   13.2880   -4.8680 C   0  0  0  0  0  0  0  0  0  0  0  0
   -0.3840   11.8830   -2.2830 C   0  0  2  0  0  0  0  0  0  0  0  0
   -1.8470   13.2580   -4.0710 C   0  0  1  0  0  0  0  0  0  0  0  0
    0.7160   11.6310   -3.1290 O   0  0  0  0  0  0  0  0  0  0  0  0
   -0.3150   10.8400   -1.4800 O   0  0  0  0  0  0  0  0  0  0  0  0
   -1.4750   14.6120   -3.3900 C   0  0  2  0  0  0  0  0  0  0  0  0
   -0.9690   15.5910   -4.4930 C   0  0  2  0  0  0  0  0  0  0  0  0
   -0.4200   14.4820   -2.2940 N   0  0  0  0  0  0  0  0  0  0  0  0
   -1.9400   15.7180   -5.4480 F   0  0  0  0  0  0  0  0  0  0  0  0
    0.8070   15.1850   -2.7280 C   0  0  0  0  0  0  0  0  0  0  0  0
    0.2960   15.0850   -5.1680 C   0  0  0  0  0  0  0  0  0  0  0  0
   -0.7950   14.6880   -0.8590 C   0  0  2  0  0  0  0  0  0  0  0  0
    1.3190   14.7600   -4.1010 C   0  0  0  0  0  0  0  0  0  0  0  0
   -0.3210   13.6290    0.0140 N   0  0  0  0  0  0  0  0  0  0  0  0
   -2.2990   14.8330   -0.5220 C   0  0  2  0  0  0  0  0  0  0  0  0
   -0.3300   14.1140    1.3700 C   0  0  0  0  0  0  0  0  0  0  0  0
   -2.3800   15.2680    0.9290 C   0  0  2  0  0  0  0  0  0  0  0  0
   -3.1950   13.6040   -0.4940 C   0  0  0  0  0  0  0  0  0  0  0  0
   -1.6940   14.3490    1.7770 N   0  0  0  0  0  0  0  0  0  0  0  0
   -3.7640   15.0900    1.2810 N   0  0  0  0  0  0  0  0  0  0  0  0
   -4.0850   13.7770    0.7450 C   0  0  0  0  0  0  0  0  0  0  0  0
  2  1  1  1
  2  3  1  0
  2  4  1  0
  5  4  1  1
  3  6  1  0
  5  7  1  0
  5  8  1  0
  8  6  1  1
  7  9  1  6
  7 10  1  0
  8 11  1  0
 11 12  1  0
 11 13  1  1
 12 14  1  6
 13 15  1  0
 12 16  1  0
 17 13  1  6
 15 18  1  0
 16 18  1  0
 17 19  1  0
 17 20  1  0
 19 21  1  0
 20 22  1  0
 20 23  1  1
 21 24  1  0
 22 24  1  1
 22 25  1  0
 23 26  1  0
 25 26  1  0
M  CHG  1  10  -1
M  END
