ucsf124-ucsf371
     RDKit          3D

 25 27  0  0  0  0  0  0  0  0999 V2000
    0.7180   10.9860   -2.4220 O   0  0  0  0  0  0  0  0  0  0  0  0
    0.4960   12.2160   -2.8590 C   0  0  1  0  0  0  0  0  0  0  0  0
    1.3190   13.1720   -2.1700 O   0  0  0  0  0  0  0  0  0  0  0  0
    0.8080   12.3270   -4.4010 C   0  0  0  0  0  0  0  0  0  0  0  0
    1.2670   14.4880   -2.7250 C   0  0  0  0  0  0  0  0  0  0  0  0
    0.2350   11.3100   -5.3070 N   0  0  0  0  0  0  0  0  0  0  0  0
    0.0200   15.1310   -2.3960 O   0  0  0  0  0  0  0  0  0  0  0  0
   -1.2030   11.3920   -5.4440 C   0  0  2  0  0  0  0  0  0  0  0  0
    0.7630   11.3700   -6.6490 C   0  0  2  0  0  0  0  0  0  0  0  0
   -1.8990   10.9400   -4.3120 O   0  0  0  0  0  0  0  0  0  0  0  0
    0.8850   12.6890   -7.0430 O   0  0  0  0  0  0  0  0  0  0  0  0
   -1.0700   14.6770   -3.1730 C   0  0  2  0  0  0  0  0  0  0  0  0
   -1.5000   10.5030   -6.6650 C   0  0  1  0  0  0  0  0  0  0  0  0
   -0.2480   10.6580   -7.5510 C   0  0  2  0  0  0  0  0  0  0  0  0
   -1.3050   15.7140   -4.1300 O   0  0  0  0  0  0  0  0  0  0  0  0
   -1.8920    9.0460   -6.3990 C   0  0  0  0  0  0  0  0  0  0  0  0
    0.2380    9.3060   -8.0800 C   0  0  0  0  0  0  0  0  0  0  0  0
   -2.4000   14.3750   -2.4400 C   0  0  2  0  0  0  0  0  0  0  0  0
   -2.0950    8.2940   -7.7090 C   0  0  0  0  0  0  0  0  0  0  0  0
   -0.9150    8.4890   -8.6710 C   0  0  0  0  0  0  0  0  0  0  0  0
   -3.6350   15.1260   -2.9400 C   0  0  0  0  0  0  0  0  0  0  0  0
   -2.4150   14.6660   -0.6300 S   0  0  0  0  0  0  0  0  0  0  0  0
   -4.1120   15.3140   -0.6240 C   0  0  1  0  0  0  0  0  0  0  0  0
   -4.6810   15.0430   -1.9300 N   0  0  0  0  0  0  0  0  0  0  0  0
   -4.9290   14.7230    0.5180 C   0  0  0  0  0  0  0  0  0  0  0  0
  2  1  1  1
  2  3  1  0
  2  4  1  0
  3  5  1  0
  4  6  1  0
  5  7  1  0
  6  8  1  0
  6  9  1  0
  8 10  1  1
  9 11  1  6
  7 12  1  0
  8 13  1  0
  9 14  1  0
 13 14  1  0
 12 15  1  6
 13 16  1  1
 14 17  1  1
 12 18  1  0
 16 19  1  0
 17 20  1  0
 19 20  1  0
 18 21  1  6
 18 22  1  0
 22 23  1  0
 21 24  1  0
 23 24  1  0
 23 25  1  1
M  CHG  1   1  -1
M  END
