ucsf333-ucsf006
     RDKit          3D

 25 27  0  0  0  0  0  0  0  0999 V2000
   -6.1920   14.7240   -1.3450 Cl  0  0  0  0  0  0  0  0  0  0  0  0
   -4.4490   14.8450   -1.8270 C   0  0  2  0  0  0  0  0  0  0  0  0
   -3.7360   13.4930   -1.8910 C   0  0  0  0  0  0  0  0  0  0  0  0
   -3.8060   15.8860   -0.9310 C   0  0  0  0  0  0  0  0  0  0  0  0
   -2.6610   13.4080   -3.0230 C   0  0  1  0  0  0  0  0  0  0  0  0
   -2.5240   15.6170   -0.0870 C   0  0  2  0  0  0  0  0  0  0  0  0
   -1.1590   13.3830   -2.5740 C   0  0  2  0  0  0  0  0  0  0  0  0
   -2.8370   12.1050   -3.8170 C   0  0  0  0  0  0  0  0  0  0  0  0
   -1.1110   15.7460   -0.7850 C   0  0  2  0  0  0  0  0  0  0  0  0
   -2.5130   14.3550    0.7440 C   0  0  0  0  0  0  0  0  0  0  0  0
   -0.1870   14.1000   -3.6030 C   0  0  2  0  0  0  0  0  0  0  0  0
   -1.0840   15.9760   -2.2510 N   0  0  0  0  0  0  0  0  0  0  0  0
   -0.9290   11.6150   -2.0930 S   0  0  0  0  0  0  0  0  0  0  0  0
   -1.4080   14.4420    1.6780 N   0  0  0  0  0  0  0  0  0  0  0  0
   -0.3350   14.5850   -0.4220 N   0  0  0  0  0  0  0  0  0  0  0  0
   -2.3810   10.9650   -2.9340 C   0  0  0  0  0  0  0  0  0  0  0  0
    1.1240   13.3980   -4.0790 C   0  0  1  0  0  0  0  0  0  0  0  0
   -2.2910   15.5710   -2.9820 C   0  0  0  0  0  0  0  0  0  0  0  0
    0.0990   15.5080   -3.0130 C   0  0  0  0  0  0  0  0  0  0  0  0
   -0.1400   14.4610    0.9900 C   0  0  0  0  0  0  0  0  0  0  0  0
    1.6030   12.2610   -3.1140 C   0  0  1  0  0  0  0  0  0  0  0  0
    0.9880   12.8600   -5.5130 C   0  0  0  0  0  0  0  0  0  0  0  0
    1.3690   12.5570   -1.8660 O   0  0  0  0  0  0  0  0  0  0  0  0
    0.7810   11.1240   -3.2760 O   0  0  0  0  0  0  0  0  0  0  0  0
   -0.2010   12.0840   -5.6570 O   0  0  0  0  0  0  0  0  0  0  0  0
  2  1  1  1
  2  3  1  0
  2  4  1  0
  5  3  1  1
  6  4  1  6
  5  7  1  0
  5  8  1  0
  6  9  1  0
  6 10  1  0
  7 11  1  0
  9 12  1  0
  7 13  1  6
 10 14  1  0
  9 15  1  6
  8 16  1  0
 13 16  1  0
 11 17  1  0
 12 18  1  0
 11 19  1  1
 12 19  1  0
 14 20  1  0
 15 20  1  0
 17 21  1  0
 17 22  1  6
 21 23  1  1
 21 24  1  0
 22 25  1  0
M  CHG  1  23  -1
M  END
