ucsf403-ucsf004
     RDKit          3D

 27 30  0  0  0  0  0  0  0  0999 V2000
    0.5410    9.1740   -7.8110 Cl  0  0  0  0  0  0  0  0  0  0  0  0
   -0.6000    9.3460   -6.4310 C   0  0  1  0  0  0  0  0  0  0  0  0
   -0.3500   10.5780   -5.4970 C   0  0  1  0  0  0  0  0  0  0  0  0
   -2.0170    9.1740   -6.9850 C   0  0  0  0  0  0  0  0  0  0  0  0
    0.6920   11.4160   -5.9780 O   0  0  0  0  0  0  0  0  0  0  0  0
   -1.5370   11.3550   -4.8600 C   0  0  2  0  0  0  0  0  0  0  0  0
   -3.0890    9.6910   -6.0490 C   0  0  0  0  0  0  0  0  0  0  0  0
    1.2790   12.3390   -5.0250 C   0  0  0  0  0  0  0  0  0  0  0  0
   -2.8230   11.1600   -5.7080 C   0  0  0  0  0  0  0  0  0  0  0  0
   -1.1640   12.8330   -4.3850 C   0  0  2  0  0  0  0  0  0  0  0  0
    1.0180   12.1860   -3.4780 C   0  0  2  0  0  0  0  0  0  0  0  0
   -1.9380   13.5790   -3.2870 C   0  0  0  0  0  0  0  0  0  0  0  0
   -0.8960   13.8310   -5.5180 C   0  0  0  0  0  0  0  0  0  0  0  0
    2.0920   12.3200   -2.7470 O   0  0  0  0  0  0  0  0  0  0  0  0
    0.5750   10.8890   -3.1130 O   0  0  0  0  0  0  0  0  0  0  0  0
   -1.1380   14.7170   -2.7640 N   0  0  0  0  0  0  0  0  0  0  0  0
   -0.1400   15.0740   -5.0280 C   0  0  0  0  0  0  0  0  0  0  0  0
    0.0790   15.0730   -3.5130 C   0  0  0  0  0  0  0  0  0  0  0  0
   -1.0600   14.9770   -1.3270 C   0  0  2  0  0  0  0  0  0  0  0  0
   -0.3880   13.9130   -0.5870 N   0  0  0  0  0  0  0  0  0  0  0  0
   -2.3580   15.4990   -0.6890 C   0  0  2  0  0  0  0  0  0  0  0  0
   -0.2640   14.2160    0.8240 C   0  0  0  0  0  0  0  0  0  0  0  0
   -2.2820   15.4710    0.8210 C   0  0  2  0  0  0  0  0  0  0  0  0
   -3.7090   14.8650   -0.9360 C   0  0  0  0  0  0  0  0  0  0  0  0
   -1.5480   14.4200    1.4330 N   0  0  0  0  0  0  0  0  0  0  0  0
   -3.6390   15.4610    1.3640 N   0  0  0  0  0  0  0  0  0  0  0  0
   -4.5480   15.3700    0.2140 C   0  0  0  0  0  0  0  0  0  0  0  0
  2  1  1  6
  2  3  1  0
  2  4  1  0
  3  5  1  6
  3  6  1  0
  4  7  1  0
  5  8  1  0
  6  9  1  6
  7  9  1  0
  6 10  1  0
  8 11  1  0
 10 12  1  6
 10 13  1  0
 11 14  1  1
 11 15  1  0
 12 16  1  0
 13 17  1  0
 16 18  1  0
 17 18  1  0
 19 16  1  6
 19 20  1  0
 19 21  1  0
 20 22  1  0
 21 23  1  0
 21 24  1  1
 22 25  1  0
 23 25  1  6
 23 26  1  0
 24 27  1  0
 26 27  1  0
M  CHG  1  14  -1
M  END
