ucsf385-ucsf336
     RDKit          3D

 23 24  0  0  0  0  0  0  0  0999 V2000
   -3.5830   14.8870   -1.2590 N   0  0  0  0  0  0  0  0  0  0  0  0
   -2.5590   14.0890   -0.5120 C   0  0  2  0  0  0  0  0  0  0  0  0
   -2.8070   14.3270    0.9850 C   0  0  0  0  0  0  0  0  0  0  0  0
   -1.1180   14.5160   -0.9230 C   0  0  2  0  0  0  0  0  0  0  0  0
   -0.8410   14.3980   -2.4570 C   0  0  2  0  0  0  0  0  0  0  0  0
   -0.0670   13.9260    0.0140 C   0  0  0  0  0  0  0  0  0  0  0  0
   -1.6340   14.9540    1.6180 N   0  0  0  0  0  0  0  0  0  0  0  0
    0.3570   15.1300   -2.7320 O   0  0  0  0  0  0  0  0  0  0  0  0
   -1.8580   14.9530   -3.1030 O   0  0  0  0  0  0  0  0  0  0  0  0
   -0.4260   14.1210    1.4720 C   0  0  0  0  0  0  0  0  0  0  0  0
    1.5560   14.5460   -2.2000 C   0  0  0  0  0  0  0  0  0  0  0  0
    1.4650   13.1260   -2.3190 O   0  0  0  0  0  0  0  0  0  0  0  0
    1.6330   12.6970   -3.6780 C   0  0  2  0  0  0  0  0  0  0  0  0
    1.7640   13.7690   -4.4520 O   0  0  0  0  0  0  0  0  0  0  0  0
    0.2700   11.9490   -4.0870 C   0  0  2  0  0  0  0  0  0  0  0  0
    0.1720   10.7170   -3.3460 O   0  0  0  0  0  0  0  0  0  0  0  0
    0.1630   11.6160   -5.5010 N   0  0  0  0  0  0  0  0  0  0  0  0
   -0.6290   10.4570   -5.9030 C   0  0  0  0  0  0  0  0  0  0  0  0
   -0.4620   10.0850   -7.3810 C   0  0  0  0  0  0  0  0  0  0  0  0
   -2.1050   10.4390   -5.4760 C   0  0  0  0  0  0  0  0  0  0  0  0
   -1.1830    8.7810   -7.7250 C   0  0  0  0  0  0  0  0  0  0  0  0
   -2.8170    9.1300   -5.8260 C   0  0  0  0  0  0  0  0  0  0  0  0
   -2.6480    8.7390   -7.2850 C   0  0  0  0  0  0  0  0  0  0  0  0
  2  1  1  6
  2  3  1  0
  2  4  1  0
  4  5  1  0
  4  6  1  1
  3  7  1  0
  5  8  1  0
  5  9  1  6
  6 10  1  0
  7 10  1  0
  8 11  1  0
 11 12  1  0
 12 13  1  0
 13 14  1  6
 13 15  1  0
 15 16  1  1
 15 17  1  0
 17 18  1  0
 18 19  1  0
 18 20  1  0
 19 21  1  0
 20 22  1  0
 21 23  1  0
 22 23  1  0
M  CHG  2   9  -1  14  -1
M  END
