ucsf387-ucsf012
     RDKit          3D

 29 32  0  0  0  0  0  0  0  0999 V2000
    0.9420   18.2560   -4.5080 Cl  0  0  0  0  0  0  0  0  0  0  0  0
    0.3790   16.7270   -5.1690 C   0  0  2  0  0  0  0  0  0  0  0  0
   -1.1510   16.7290   -5.1710 C   0  0  0  0  0  0  0  0  0  0  0  0
    1.0370   15.5660   -4.4660 C   0  0  0  0  0  0  0  0  0  0  0  0
    0.6820   14.2530   -5.1420 C   0  0  1  0  0  0  0  0  0  0  0  0
   -1.8180   15.3330   -5.1680 C   0  0  2  0  0  0  0  0  0  0  0  0
   -2.9080   15.1990   -4.0780 C   0  0  0  0  0  0  0  0  0  0  0  0
    1.4780   13.0640   -4.5090 C   0  0  0  0  0  0  0  0  0  0  0  0
   -0.8650   14.0920   -5.3130 C   0  0  0  0  0  0  0  0  0  0  0  0
    1.1560   12.7700   -3.0200 C   0  0  1  0  0  0  0  0  0  0  0  0
   -2.5790   15.6190   -2.6290 C   0  0  1  0  0  0  0  0  0  0  0  0
    1.1050   11.4730   -2.8400 O   0  0  0  0  0  0  0  0  0  0  0  0
    2.2500   13.0680   -2.1920 O   0  0  0  0  0  0  0  0  0  0  0  0
   -3.6060   15.4170   -1.4880 C   0  0  1  0  0  0  0  0  0  0  0  0
   -1.2700   15.1010   -2.1980 N   0  0  0  0  0  0  0  0  0  0  0  0
   -4.8980   14.7340   -1.9140 C   0  0  0  0  0  0  0  0  0  0  0  0
   -0.7290   14.2000   -3.2000 C   0  0  0  0  0  0  0  0  0  0  0  0
   -2.8110   14.6980   -0.4130 C   0  0  1  0  0  0  0  0  0  0  0  0
   -1.3890   14.4800   -0.9090 C   0  0  2  0  0  0  0  0  0  0  0  0
   -2.6830   15.2770    0.9690 C   0  0  1  0  0  0  0  0  0  0  0  0
   -0.4060   15.0210   -0.0100 N   0  0  0  0  0  0  0  0  0  0  0  0
   -1.1790   12.7310   -3.1280 C   0  0  2  0  0  0  0  0  0  0  0  0
   -3.9710   15.4330    1.6010 N   0  0  0  0  0  0  0  0  0  0  0  0
   -1.8260   14.4680    1.7970 N   0  0  0  0  0  0  0  0  0  0  0  0
   -0.4840   14.3260    1.2530 C   0  0  0  0  0  0  0  0  0  0  0  0
   -0.3610   11.8680   -2.1830 C   0  0  0  0  0  0  0  0  0  0  0  0
   -1.0810   12.1000   -4.4320 O   0  0  0  0  0  0  0  0  0  0  0  0
   -0.6160   10.7640   -4.2760 C   0  0  0  0  0  0  0  0  0  0  0  0
   -0.4430   10.5050   -2.8000 C   0  0  0  0  0  0  0  0  0  0  0  0
  2  1  1  1
  2  3  1  0
  2  4  1  0
  4  5  1  0
  3  6  1  0
  6  7  1  1
  5  8  1  1
  5  9  1  0
  6  9  1  0
  8 10  1  0
 11  7  1  6
 10 12  1  6
 10 13  1  0
 11 14  1  0
 11 15  1  0
 14 16  1  6
 15 17  1  0
 14 18  1  0
 15 19  1  0
 18 19  1  0
 18 20  1  1
 19 21  1  1
 22 17  1  6
 20 23  1  1
 20 24  1  0
 21 25  1  0
 24 25  1  0
 22 26  1  0
 22 27  1  0
 27 28  1  0
 26 29  1  0
 28 29  1  0
M  CHG  1  12  -1
M  END
