ucsf404-ucsf124
     RDKit          3D

 28 31  0  0  0  0  0  0  0  0999 V2000
   -6.6450   15.2590   -2.3090 Cl  0  0  0  0  0  0  0  0  0  0  0  0
   -5.0780   14.7320   -1.6230 C   0  0  2  0  0  0  0  0  0  0  0  0
   -4.8980   15.3450   -0.2400 C   0  0  1  0  0  0  0  0  0  0  0  0
   -3.9020   15.1360   -2.4730 C   0  0  0  0  0  0  0  0  0  0  0  0
   -6.0100   14.9000    0.6290 N   0  0  0  0  0  0  0  0  0  0  0  0
   -3.5370   14.9750    0.4120 C   0  0  1  0  0  0  0  0  0  0  0  0
   -2.6440   14.3730   -2.0240 C   0  0  2  0  0  0  0  0  0  0  0  0
   -2.5560   12.9030   -2.5430 C   0  0  0  0  0  0  0  0  0  0  0  0
   -5.4930   14.7920    1.9500 C   0  0  2  0  0  0  0  0  0  0  0  0
   -4.0270   13.8120    1.7110 S   0  0  0  0  0  0  0  0  0  0  0  0
   -2.4400   14.3490   -0.4710 C   0  0  0  0  0  0  0  0  0  0  0  0
   -6.5380   14.1520    2.6810 N   0  0  0  0  0  0  0  0  0  0  0  0
   -2.1070   12.7270   -4.0080 C   0  0  0  0  0  0  0  0  0  0  0  0
   -2.0320   11.3320   -4.3460 O   0  0  0  0  0  0  0  0  0  0  0  0
   -0.7540   10.8840   -4.8480 C   0  0  2  0  0  0  0  0  0  0  0  0
   -0.0090   11.9900   -5.4370 N   0  0  0  0  0  0  0  0  0  0  0  0
   -0.9260    9.7860   -5.9500 C   0  0  2  0  0  0  0  0  0  0  0  0
    0.9170   12.7590   -4.5500 C   0  0  0  0  0  0  0  0  0  0  0  0
    0.0170   10.1810   -7.0890 C   0  0  2  0  0  0  0  0  0  0  0  0
    0.4690   11.6030   -6.7570 C   0  0  2  0  0  0  0  0  0  0  0  0
   -2.3350    9.4790   -6.4680 C   0  0  0  0  0  0  0  0  0  0  0  0
    1.3960   12.2400   -3.1390 C   0  0  2  0  0  0  0  0  0  0  0  0
    1.8410   11.7830   -6.9290 O   0  0  0  0  0  0  0  0  0  0  0  0
   -2.3050    8.4240   -7.5850 C   0  0  0  0  0  0  0  0  0  0  0  0
   -0.5460   10.0040   -8.4950 C   0  0  0  0  0  0  0  0  0  0  0  0
    0.6810   11.2330   -2.6760 O   0  0  0  0  0  0  0  0  0  0  0  0
    1.1080   13.2170   -2.1560 O   0  0  0  0  0  0  0  0  0  0  0  0
   -1.1880    8.6280   -8.6120 C   0  0  0  0  0  0  0  0  0  0  0  0
  2  1  1  6
  2  3  1  0
  2  4  1  0
  3  5  1  1
  3  6  1  0
  4  7  1  0
  7  8  1  1
  5  9  1  0
  6 10  1  0
  9 10  1  0
  6 11  1  6
  7 11  1  0
  9 12  1  1
  8 13  1  0
 13 14  1  0
 15 14  1  6
 15 16  1  0
 15 17  1  0
 16 18  1  0
 17 19  1  0
 16 20  1  0
 19 20  1  0
 17 21  1  6
 18 22  1  0
 20 23  1  1
 21 24  1  0
 19 25  1  6
 22 26  1  1
 22 27  1  0
 24 28  1  0
 25 28  1  0
M  CHG  1  26  -1
M  END
