ucsf411-ucsf147
     RDKit          3D

 21 23  0  0  0  0  0  0  0  0999 V2000
    0.5750   11.1890   -2.4280 O   0  0  0  0  0  0  0  0  0  0  0  0
    1.1180   12.4620   -2.7270 C   0  0  0  0  0  0  0  0  0  0  0  0
    2.2580   12.6250   -1.9940 O   0  0  0  0  0  0  0  0  0  0  0  0
    1.4320   12.6390   -4.2350 C   0  0  0  0  0  0  0  0  0  0  0  0
    0.3330   13.4710   -2.1310 O   0  0  0  0  0  0  0  0  0  0  0  0
    1.3070   13.9890   -4.7190 O   0  0  0  0  0  0  0  0  0  0  0  0
    0.3330   14.6480   -3.9340 C   0  0  1  0  0  0  0  0  0  0  0  0
    0.1810   16.5140   -4.3720 C   0  0  2  0  0  0  0  0  0  0  0  0
   -1.2870   13.6980   -3.9040 C   0  0  0  0  0  0  0  0  0  0  0  0
   -1.3020   17.0000   -5.5370 C   0  0  1  0  0  0  0  0  0  0  0  0
   -2.7570   14.8060   -3.7270 C   0  0  0  0  0  0  0  0  0  0  0  0
    1.1640   16.3710   -5.3540 C   0  0  0  0  0  0  0  0  0  0  0  0
   -2.8620   15.9150   -5.2560 C   0  0  0  0  0  0  0  0  0  0  0  0
   -1.6970   18.1750   -4.8770 C   0  0  0  0  0  0  0  0  0  0  0  0
    1.0950   17.8880   -5.3690 C   0  0  0  0  0  0  0  0  0  0  0  0
   -2.3640   15.6270   -2.4270 C   0  0  0  0  0  0  0  0  0  0  0  0
   -4.1510   14.1760   -3.3410 C   0  0  0  0  0  0  0  0  0  0  0  0
   -0.7210   18.6240   -5.8790 C   0  0  0  0  0  0  0  0  0  0  0  0
   -2.8700   15.0810   -1.0820 C   0  0  0  0  0  0  0  0  0  0  0  0
   -5.0240   14.9550   -2.3240 C   0  0  0  0  0  0  0  0  0  0  0  0
   -4.3700   15.2080   -0.9780 C   0  0  0  0  0  0  0  0  0  0  0  0
  2  1  1  0
  2  3  1  0
  2  4  1  0
  2  5  1  0
  4  6  1  0
  7  6  1  6
  7  8  1  0
  7  9  1  0
  8 10  1  0
 11  9  1  0
  8 12  1  6
 10 13  1  1
 11 13  1  0
 10 14  1  0
 12 15  1  0
 11 16  1  0
 11 17  1  0
 14 18  1  0
 15 18  1  0
 16 19  1  0
 17 20  1  0
 19 21  1  0
 20 21  1  0
M  CHG  2   1  -1   5  -1
M  END
