ucsf172-ucsf523
     RDKit          3D

 19 20  0  0  0  0  0  0  0  0999 V2000
   -7.9030   14.9160    2.4500 C   0  0  0  0  0  0  0  0  0  0  0  0
   -6.7200   14.4300    1.2450 S   0  0  0  0  0  0  0  0  0  0  0  0
   -6.4510   12.9220    1.6630 O   0  0  0  0  0  0  0  0  0  0  0  0
   -7.5470   14.4810   -0.1310 O   0  0  0  0  0  0  0  0  0  0  0  0
   -5.2560   15.2190    1.2180 N   0  0  0  0  0  0  0  0  0  0  0  0
   -4.3170   15.4000    0.0820 C   0  0  1  0  0  0  0  0  0  0  0  0
   -3.0870   14.4220    0.0690 C   0  0  1  0  0  0  0  0  0  0  0  0
   -5.1520   15.3750   -1.2080 C   0  0  0  0  0  0  0  0  0  0  0  0
   -2.3110   14.4180   -1.2770 C   0  0  1  0  0  0  0  0  0  0  0  0
   -4.4950   14.7350   -2.4290 C   0  0  0  0  0  0  0  0  0  0  0  0
   -2.1890   14.6030    1.2590 N   0  0  0  0  0  0  0  0  0  0  0  0
   -2.9930   14.9970   -2.5140 C   0  0  2  0  0  0  0  0  0  0  0  0
   -0.7670   14.7830    1.0770 C   0  0  1  0  0  0  0  0  0  0  0  0
   -1.0090   15.1620   -1.1550 C   0  0  0  0  0  0  0  0  0  0  0  0
   -2.2810   14.3550   -3.7380 C   0  0  2  0  0  0  0  0  0  0  0  0
   -0.0440   14.0120    2.0070 N   0  0  0  0  0  0  0  0  0  0  0  0
   -0.2370   14.4820   -0.1760 N   0  0  0  0  0  0  0  0  0  0  0  0
   -0.9750   13.9380   -3.3670 O   0  0  0  0  0  0  0  0  0  0  0  0
   -2.0450   15.2670   -4.6500 O   0  0  0  0  0  0  0  0  0  0  0  0
  1  2  1  0
  2  3  1  0
  2  4  1  0
  2  5  1  0
  6  5  1  1
  6  7  1  0
  6  8  1  0
  7  9  1  0
  8 10  1  0
  7 11  1  1
  9 12  1  0
 12 10  1  1
 11 13  1  0
  9 14  1  1
 12 15  1  0
 13 16  1  1
 13 17  1  0
 14 17  1  0
 15 18  1  1
 15 19  1  0
M  CHG  1  19  -1
M  END
