ucsf424-ucsf411
     RDKit          3D

 24 27  0  0  0  0  0  0  0  0999 V2000
    0.7900   12.1880   -1.7790 O   0  0  0  0  0  0  0  0  0  0  0  0
    0.4020   11.6240   -2.9190 C   0  0  1  0  0  0  0  0  0  0  0  0
   -0.9960   11.8060   -2.8000 O   0  0  0  0  0  0  0  0  0  0  0  0
    0.9600   12.3280   -4.2390 C   0  0  2  0  0  0  0  0  0  0  0  0
    0.7940   13.7750   -4.2270 O   0  0  0  0  0  0  0  0  0  0  0  0
    0.5650   11.6220   -5.6160 C   0  0  2  0  0  0  0  0  0  0  0  0
    0.0400   12.3880   -6.7560 N   0  0  0  0  0  0  0  0  0  0  0  0
   -0.4260   10.4510   -5.7330 C   0  0  2  0  0  0  0  0  0  0  0  0
   -0.2100   14.3370   -5.0620 C   0  0  2  0  0  0  0  0  0  0  0  0
    0.0880   11.3530   -7.8180 O   0  0  0  0  0  0  0  0  0  0  0  0
   -0.1920   10.0950   -7.1910 C   0  0  2  0  0  0  0  0  0  0  0  0
   -1.9100   10.5910   -5.3890 C   0  0  0  0  0  0  0  0  0  0  0  0
   -0.3710   15.8100   -4.6550 C   0  0  2  0  0  0  0  0  0  0  0  0
   -1.4750   13.5490   -4.8040 C   0  0  0  0  0  0  0  0  0  0  0  0
   -1.3430    9.3790   -7.8740 C   0  0  0  0  0  0  0  0  0  0  0  0
   -2.6680    9.2910   -5.6770 C   0  0  0  0  0  0  0  0  0  0  0  0
   -1.7290   16.4430   -5.0670 C   0  0  2  0  0  0  0  0  0  0  0  0
   -2.5970   14.0180   -5.6920 C   0  0  0  0  0  0  0  0  0  0  0  0
    0.8580   16.6260   -5.0880 C   0  0  0  0  0  0  0  0  0  0  0  0
   -2.1370    8.5230   -6.8920 C   0  0  0  0  0  0  0  0  0  0  0  0
   -2.8420   15.5280   -5.6400 C   0  0  0  0  0  0  0  0  0  0  0  0
   -1.5220   17.6830   -5.9320 C   0  0  0  0  0  0  0  0  0  0  0  0
    0.7210   18.1280   -4.8590 C   0  0  0  0  0  0  0  0  0  0  0  0
   -0.6490   18.6850   -5.2370 C   0  0  0  0  0  0  0  0  0  0  0  0
  2  1  1  1
  2  3  1  0
  2  4  1  0
  4  5  1  6
  4  6  1  0
  6  7  1  6
  6  8  1  0
  9  5  1  1
  7 10  1  0
  8 11  1  0
 10 11  1  0
  8 12  1  6
  9 13  1  0
  9 14  1  0
 11 15  1  6
 12 16  1  0
 13 17  1  0
 14 18  1  0
 13 19  1  6
 15 20  1  0
 16 20  1  0
 17 21  1  6
 18 21  1  0
 17 22  1  0
 19 23  1  0
 22 24  1  0
 23 24  1  0
M  CHG  1   1  -1
M  END
