ucsf519-ucsf365
     RDKit          3D

 22 23  0  0  0  0  0  0  0  0999 V2000
   -0.1720   16.5270   -4.5330 C   0  0  0  0  0  0  0  0  0  0  0  0
   -0.1990   15.4060   -3.4760 C   0  0  2  0  0  0  0  0  0  0  0  0
    1.1720   14.2510   -4.0830 S   0  0  0  0  0  0  0  0  0  0  0  0
   -1.6880   14.8710   -3.2630 C   0  0  2  0  0  0  0  0  0  0  0  0
    0.4520   12.5450   -4.0770 C   0  0  1  0  0  0  0  0  0  0  0  0
   -2.6210   15.5480   -4.1090 O   0  0  0  0  0  0  0  0  0  0  0  0
   -2.2340   15.0240   -1.9420 N   0  0  0  0  0  0  0  0  0  0  0  0
    0.8140   11.7790   -2.7130 C   0  0  1  0  0  0  0  0  0  0  0  0
   -3.6600   15.0520   -1.7110 C   0  0  0  0  0  0  0  0  0  0  0  0
   -1.5700   14.4670   -0.8230 C   0  0  1  0  0  0  0  0  0  0  0  0
   -1.0120   12.8480   -4.5200 C   0  0  2  0  0  0  0  0  0  0  0  0
    0.2900   12.3890   -1.5490 O   0  0  0  0  0  0  0  0  0  0  0  0
    0.2810   10.5560   -2.5820 O   0  0  0  0  0  0  0  0  0  0  0  0
   -0.3050   15.0580   -0.6520 O   0  0  0  0  0  0  0  0  0  0  0  0
   -3.7280   15.1710   -0.1940 C   0  0  0  0  0  0  0  0  0  0  0  0
   -2.3770   14.8490    0.3230 N   0  0  0  0  0  0  0  0  0  0  0  0
   -1.6120   11.9060   -5.5480 C   0  0  1  0  0  0  0  0  0  0  0  0
   -1.0870   14.2980   -5.0910 C   0  0  0  0  0  0  0  0  0  0  0  0
   -1.6690   10.5640   -5.0750 O   0  0  0  0  0  0  0  0  0  0  0  0
   -3.0430   12.3410   -5.8830 C   0  0  0  0  0  0  0  0  0  0  0  0
   -2.4850   14.7700   -5.5180 C   0  0  0  0  0  0  0  0  0  0  0  0
   -3.1750   13.7650   -6.4060 C   0  0  0  0  0  0  0  0  0  0  0  0
  2  1  1  6
  2  3  1  0
  2  4  1  0
  5  3  1  1
  4  6  1  6
  4  7  1  0
  5  8  1  0
  7  9  1  0
  7 10  1  0
  5 11  1  0
  8 12  1  1
  8 13  1  0
 10 14  1  1
  9 15  1  0
 10 16  1  0
 15 16  1  0
 11 17  1  0
 11 18  1  6
 17 19  1  1
 17 20  1  0
 18 21  1  0
 20 22  1  0
 21 22  1  0
M  CHG  1  13  -1
M  END
