ucsf424-ucsf385
     RDKit          3D

 24 26  0  0  0  0  0  0  0  0999 V2000
    1.7350   12.2620   -2.9540 O   0  0  0  0  0  0  0  0  0  0  0  0
    0.9040   12.8660   -3.7840 C   0  0  2  0  0  0  0  0  0  0  0  0
   -0.3410   12.3410   -3.3600 O   0  0  0  0  0  0  0  0  0  0  0  0
    1.1310   12.5580   -5.2760 C   0  0  0  0  0  0  0  0  0  0  0  0
    1.0090   14.4410   -3.6520 C   0  0  0  0  0  0  0  0  0  0  0  0
    0.3610   14.9800   -2.4880 O   0  0  0  0  0  0  0  0  0  0  0  0
   -0.0120   11.9770   -6.1600 C   0  0  1  0  0  0  0  0  0  0  0  0
   -0.9960   14.5650   -2.3300 C   0  0  2  0  0  0  0  0  0  0  0  0
    0.5000   11.7680   -7.5460 N   0  0  0  0  0  0  0  0  0  0  0  0
   -0.6320   10.6170   -5.8140 C   0  0  2  0  0  0  0  0  0  0  0  0
   -1.8410   15.3090   -3.0330 O   0  0  0  0  0  0  0  0  0  0  0  0
    0.8510   10.3560   -7.6430 O   0  0  0  0  0  0  0  0  0  0  0  0
   -0.1690    9.6680   -6.9160 C   0  0  2  0  0  0  0  0  0  0  0  0
   -2.1600   10.6570   -5.8550 C   0  0  0  0  0  0  0  0  0  0  0  0
   -1.2900   14.6650   -0.7860 C   0  0  2  0  0  0  0  0  0  0  0  0
   -1.2670    9.2120   -7.8750 C   0  0  0  0  0  0  0  0  0  0  0  0
   -2.7360    9.2440   -5.8440 C   0  0  0  0  0  0  0  0  0  0  0  0
   -2.7690   14.9040   -0.3300 C   0  0  1  0  0  0  0  0  0  0  0  0
   -0.2050   15.1650    0.1730 C   0  0  0  0  0  0  0  0  0  0  0  0
   -3.7380   14.3760   -1.3140 N   0  0  0  0  0  0  0  0  0  0  0  0
   -2.3650    8.4810   -7.1120 C   0  0  0  0  0  0  0  0  0  0  0  0
   -0.3820   14.2940    1.3850 C   0  0  0  0  0  0  0  0  0  0  0  0
   -2.9480   14.2910    1.0450 C   0  0  0  0  0  0  0  0  0  0  0  0
   -1.7620   14.3280    1.9280 N   0  0  0  0  0  0  0  0  0  0  0  0
  2  1  1  1
  2  3  1  0
  2  4  1  0
  2  5  1  0
  5  6  1  0
  7  4  1  1
  6  8  1  0
  7  9  1  0
  7 10  1  0
  8 11  1  6
  9 12  1  0
 10 13  1  0
 12 13  1  0
 10 14  1  6
  8 15  1  0
 13 16  1  6
 14 17  1  0
 15 18  1  0
 15 19  1  6
 18 20  1  6
 16 21  1  0
 17 21  1  0
 19 22  1  0
 18 23  1  0
 22 24  1  0
 23 24  1  0
M  CHG  2   1  -1  11  -1
M  END
