ucsf412-ucsf385
     RDKit          3D

 20 22  0  0  0  0  0  0  0  0999 V2000
   -8.1490   13.7330   -0.1750 O   0  0  0  0  0  0  0  0  0  0  0  0
   -7.3750   14.8490    0.1130 C   0  0  1  0  0  0  0  0  0  0  0  0
   -7.0140   14.7590    1.5150 N   0  0  0  0  0  0  0  0  0  0  0  0
   -6.2590   15.0770   -0.9100 C   0  0  1  0  0  0  0  0  0  0  0  0
   -5.0950   15.8770   -0.4200 C   0  0  1  0  0  0  0  0  0  0  0  0
   -5.6080   14.7710    1.9260 C   0  0  0  0  0  0  0  0  0  0  0  0
   -5.7210   13.8590   -1.6530 C   0  0  0  0  0  0  0  0  0  0  0  0
   -4.5950   15.4580    0.9890 C   0  0  0  0  0  0  0  0  0  0  0  0
   -4.0580   15.8660   -1.5370 C   0  0  0  0  0  0  0  0  0  0  0  0
   -4.2610   13.4970   -1.3340 C   0  0  0  0  0  0  0  0  0  0  0  0
   -3.2810   14.6570   -1.5770 C   0  0  2  0  0  0  0  0  0  0  0  0
   -2.2210   14.9360   -0.4990 C   0  0  2  0  0  0  0  0  0  0  0  0
   -0.7360   15.0350   -0.8780 C   0  0  2  0  0  0  0  0  0  0  0  0
   -2.3560   13.9740    0.6710 C   0  0  0  0  0  0  0  0  0  0  0  0
   -0.4090   15.1540   -2.3950 C   0  0  1  0  0  0  0  0  0  0  0  0
    0.0620   13.9690   -0.1170 C   0  0  0  0  0  0  0  0  0  0  0  0
   -1.5010   14.3080    1.7870 N   0  0  0  0  0  0  0  0  0  0  0  0
    0.7730   14.4490   -2.6810 O   0  0  0  0  0  0  0  0  0  0  0  0
   -1.2770   14.4760   -3.1130 O   0  0  0  0  0  0  0  0  0  0  0  0
   -0.1250   14.0920    1.4030 C   0  0  0  0  0  0  0  0  0  0  0  0
  2  1  1  6
  2  3  1  0
  2  4  1  0
  4  5  1  0
  3  6  1  0
  4  7  1  1
  5  8  1  1
  6  8  1  0
  5  9  1  0
  7 10  1  0
 11  9  1  1
 10 11  1  0
 11 12  1  0
 12 13  1  0
 12 14  1  1
 13 15  1  0
 13 16  1  6
 14 17  1  0
 15 18  1  1
 15 19  1  0
 16 20  1  0
 17 20  1  0
M  CHG  1  19  -1
M  END
