ucsf403-ucsf262
     RDKit          3D

 25 27  0  0  0  0  0  0  0  0999 V2000
    0.8800    9.0110   -7.8060 Cl  0  0  0  0  0  0  0  0  0  0  0  0
   -0.6000    9.6430   -7.0230 C   0  0  2  0  0  0  0  0  0  0  0  0
   -0.4810   10.7020   -5.8930 C   0  0  1  0  0  0  0  0  0  0  0  0
   -1.4970    8.5200   -6.5300 C   0  0  0  0  0  0  0  0  0  0  0  0
    0.7300   11.4770   -5.9930 O   0  0  0  0  0  0  0  0  0  0  0  0
   -1.7470   11.5010   -6.2470 C   0  0  2  0  0  0  0  0  0  0  0  0
   -2.6790    9.1460   -5.7940 C   0  0  0  0  0  0  0  0  0  0  0  0
   -2.0580   12.9890   -5.3250 Cl  0  0  0  0  0  0  0  0  0  0  0  0
    0.8860   12.5800   -5.0520 C   0  0  0  0  0  0  0  0  0  0  0  0
   -2.9840   10.5820   -6.2720 C   0  0  0  0  0  0  0  0  0  0  0  0
    1.3030   12.1360   -3.6230 C   0  0  1  0  0  0  0  0  0  0  0  0
    0.8700   13.0320   -2.6060 O   0  0  0  0  0  0  0  0  0  0  0  0
    0.6360   10.9130   -3.3200 O   0  0  0  0  0  0  0  0  0  0  0  0
    1.6340   14.2410   -2.3040 C   0  0  1  0  0  0  0  0  0  0  0  0
    2.8870   14.2190   -2.7530 O   0  0  0  0  0  0  0  0  0  0  0  0
    0.8240   15.3640   -3.0150 C   0  0  2  0  0  0  0  0  0  0  0  0
   -0.4740   14.9660   -3.7420 C   0  0  0  0  0  0  0  0  0  0  0  0
    1.5780   16.1350   -4.0430 N   0  0  0  0  0  0  0  0  0  0  0  0
   -0.4930   15.9050   -4.9490 C   0  0  2  0  0  0  0  0  0  0  0  0
    0.5240   16.9580   -4.5580 C   0  0  2  0  0  0  0  0  0  0  0  0
   -1.8280   16.5440   -5.3380 C   0  0  1  0  0  0  0  0  0  0  0  0
    0.8210   17.9420   -5.6750 C   0  0  0  0  0  0  0  0  0  0  0  0
   -3.0910   15.8910   -4.2680 Cl  0  0  0  0  0  0  0  0  0  0  0  0
   -1.7180   18.0800   -5.4330 C   0  0  0  0  0  0  0  0  0  0  0  0
   -0.4900   18.5230   -6.2420 C   0  0  0  0  0  0  0  0  0  0  0  0
  2  1  1  1
  2  3  1  0
  2  4  1  0
  3  5  1  6
  3  6  1  0
  4  7  1  0
  6  8  1  1
  5  9  1  0
  6 10  1  0
  7 10  1  0
  9 11  1  0
 11 12  1  0
 11 13  1  1
 12 14  1  0
 14 15  1  6
 14 16  1  0
 16 17  1  6
 16 18  1  0
 19 17  1  1
 18 20  1  0
 19 20  1  0
 19 21  1  0
 20 22  1  6
 21 23  1  1
 21 24  1  0
 22 25  1  0
 24 25  1  0
M  CHG  1  15  -1
M  END
