ucsf396-ucsf345
     RDKit          3D

 18 19  0  0  0  0  0  0  0  0999 V2000
   -1.7920   14.4290   -0.1290 N   0  0  0  0  0  0  0  0  0  0  0  0
   -2.4440   14.9590    1.0510 C   0  0  2  0  0  0  0  0  0  0  0  0
   -1.9810   14.2060    2.1190 O   0  0  0  0  0  0  0  0  0  0  0  0
   -3.9540   14.8170    0.9670 C   0  0  2  0  0  0  0  0  0  0  0  0
   -4.4840   15.9010    0.0650 C   0  0  0  0  0  0  0  0  0  0  0  0
   -4.7680   14.8360    2.2960 C   0  0  0  0  0  0  0  0  0  0  0  0
   -5.8330   15.6090   -0.2730 N   0  0  0  0  0  0  0  0  0  0  0  0
   -6.2260   14.5050    1.9490 C   0  0  0  0  0  0  0  0  0  0  0  0
   -6.1920   14.3820    0.4290 C   0  0  1  0  0  0  0  0  0  0  0  0
   -7.3090   13.7820   -0.4110 C   0  0  2  0  0  0  0  0  0  0  0  0
   -8.3380   14.8140   -0.5000 N   0  0  0  0  0  0  0  0  0  0  0  0
   -7.8780   12.6380    0.1690 O   0  0  0  0  0  0  0  0  0  0  0  0
   -6.4930   13.4650   -1.7400 C   0  0  1  0  0  0  0  0  0  0  0  0
   -6.3950   14.5570   -2.7480 N   0  0  0  0  0  0  0  0  0  0  0  0
   -5.0530   12.9170   -1.3800 C   0  0  0  0  0  0  0  0  0  0  0  0
   -5.1420   14.4120   -3.4970 C   0  0  0  0  0  0  0  0  0  0  0  0
   -3.9800   13.9580   -1.3250 N   0  0  0  0  0  0  0  0  0  0  0  0
   -3.9090   14.6680   -2.6130 C   0  0  0  0  0  0  0  0  0  0  0  0
  2  1  1  6
  2  3  1  0
  2  4  1  0
  4  5  1  6
  4  6  1  0
  5  7  1  0
  6  8  1  0
  7  9  1  0
  9  8  1  1
  9 10  1  0
 10 11  1  6
 10 12  1  0
 10 13  1  0
 13 14  1  0
 13 15  1  1
 14 16  1  0
 15 17  1  0
 16 18  1  0
 17 18  1  0
M  END
