ucsf262-ucsf519
     RDKit          3D

 27 30  0  0  0  0  0  0  0  0999 V2000
   -2.9160   15.7520   -3.6070 C   0  0  0  0  0  0  0  0  0  0  0  0
   -2.3260   14.4870   -3.0240 C   0  0  2  0  0  0  0  0  0  0  0  0
   -1.4220   13.5830   -3.9820 C   0  0  2  0  0  0  0  0  0  0  0  0
   -1.8490   16.6910   -4.0920 C   0  0  1  0  0  0  0  0  0  0  0  0
   -0.4450   16.0470   -4.0920 C   0  0  2  0  0  0  0  0  0  0  0  0
   -2.1600   17.1300   -5.5220 C   0  0  0  0  0  0  0  0  0  0  0  0
   -2.8740   14.1650   -1.6800 N   0  0  0  0  0  0  0  0  0  0  0  0
   -1.5140   14.1570   -5.4270 C   0  0  0  0  0  0  0  0  0  0  0  0
   -1.6610   11.7800   -4.2240 S   0  0  0  0  0  0  0  0  0  0  0  0
    0.4440   15.6640   -2.7950 C   0  0  1  0  0  0  0  0  0  0  0  0
    0.5280   16.9470   -4.8600 C   0  0  2  0  0  0  0  0  0  0  0  0
   -1.3780   18.3530   -5.9180 C   0  0  0  0  0  0  0  0  0  0  0  0
   -4.2650   14.6000   -1.4860 C   0  0  0  0  0  0  0  0  0  0  0  0
   -2.1260   14.8600   -0.6600 C   0  0  2  0  0  0  0  0  0  0  0  0
    0.7800   14.3200   -1.9620 C   0  0  2  0  0  0  0  0  0  0  0  0
    0.0980   11.2880   -3.8140 C   0  0  0  0  0  0  0  0  0  0  0  0
   -1.1540   13.9470   -0.2180 O   0  0  0  0  0  0  0  0  0  0  0  0
    0.1100   18.0920   -5.7990 C   0  0  0  0  0  0  0  0  0  0  0  0
   -4.3310   15.2150   -0.0920 C   0  0  0  0  0  0  0  0  0  0  0  0
   -2.9680   15.1510    0.4590 N   0  0  0  0  0  0  0  0  0  0  0  0
    1.2560   15.9160   -5.6130 C   0  0  0  0  0  0  0  0  0  0  0  0
    1.8060   15.6660   -3.4710 C   0  0  0  0  0  0  0  0  0  0  0  0
    2.1210   14.0870   -2.1160 O   0  0  0  0  0  0  0  0  0  0  0  0
    0.0470   13.1510   -2.3780 O   0  0  0  0  0  0  0  0  0  0  0  0
    0.6670   11.8370   -2.4750 C   0  0  1  0  0  0  0  0  0  0  0  0
    1.8720   14.9700   -4.7230 N   0  0  0  0  0  0  0  0  0  0  0  0
    0.2900   10.9730   -1.5140 O   0  0  0  0  0  0  0  0  0  0  0  0
  1  2  1  0
  2  3  1  0
  4  1  1  6
  5  4  1  1
  4  6  1  0
  2  7  1  6
  3  8  1  6
  3  9  1  0
  5 10  1  0
  5 11  1  0
  6 12  1  0
  7 13  1  0
  7 14  1  0
 10 15  1  0
  9 16  1  0
 14 17  1  1
 11 18  1  6
 12 18  1  0
 13 19  1  0
 14 20  1  0
 19 20  1  0
 11 21  1  0
 10 22  1  6
 15 23  1  6
 15 24  1  0
 16 25  1  0
 24 25  1  0
 21 26  1  0
 22 26  1  0
 25 27  1  1
M  CHG  2  23  -1  27  -1
M  END
