ucsf396-ucsf348
     RDKit          3D

 16 17  0  0  0  0  0  0  0  0999 V2000
   -1.7290   14.8300    0.1840 N   0  0  0  0  0  0  0  0  0  0  0  0
   -2.7090   14.8370    1.0560 C   0  0  2  0  0  0  0  0  0  0  0  0
   -2.7600   14.3290    2.2660 O   0  0  0  0  0  0  0  0  0  0  0  0
   -4.5100   14.6820    0.1190 S   0  0  0  0  0  0  0  0  0  0  0  0
   -5.6890   13.2870    0.5610 C   0  0  2  0  0  0  0  0  0  0  0  0
   -5.8730   14.7940    1.5340 C   0  0  0  0  0  0  0  0  0  0  0  0
   -3.7480   13.4570   -1.0230 C   0  0  0  0  0  0  0  0  0  0  0  0
   -4.3720   15.3790   -1.4580 C   0  0  0  0  0  0  0  0  0  0  0  0
   -5.3560   12.3910   -0.4740 O   0  0  0  0  0  0  0  0  0  0  0  0
   -6.9240   13.3100    0.0110 N   0  0  0  0  0  0  0  0  0  0  0  0
   -7.3490   14.7570    1.2870 C   0  0  2  0  0  0  0  0  0  0  0  0
   -2.6330   13.6710   -1.7960 C   0  0  0  0  0  0  0  0  0  0  0  0
   -4.0160   15.4330   -2.7210 C   0  0  0  0  0  0  0  0  0  0  0  0
   -7.6820   13.7670    2.3240 N   0  0  0  0  0  0  0  0  0  0  0  0
   -7.8710   14.2500    0.0880 C   0  0  0  0  0  0  0  0  0  0  0  0
   -2.4900   14.8220   -2.7490 C   0  0  0  0  0  0  0  0  0  0  0  0
  2  1  1  6
  2  3  1  0
  2  4  1  0
  4  5  1  0
  4  6  1  0
  4  7  1  0
  4  8  1  0
  5  9  1  6
  5 10  1  0
  6 11  1  0
  7 12  1  0
  8 13  1  0
 11 14  1  1
 10 15  1  0
 11 15  1  0
 12 16  1  0
 13 16  1  0
M  END
