ucsf367-ucsf403
     RDKit          3D

 13 13  0  0  0  0  0  0  0  0999 V2000
    0.7030   11.0290   -2.5930 O   0  0  0  0  0  0  0  0  0  0  0  0
    1.2180   12.0730   -3.2150 C   0  0  2  0  0  0  0  0  0  0  0  0
    0.9420   13.0780   -2.2620 O   0  0  0  0  0  0  0  0  0  0  0  0
    0.4480   12.3350   -4.5450 C   0  0  0  0  0  0  0  0  0  0  0  0
    0.7080   11.3820   -5.5980 O   0  0  0  0  0  0  0  0  0  0  0  0
   -0.3370   11.0210   -6.5210 C   0  0  0  0  0  0  0  0  0  0  0  0
   -0.3210    9.4710   -6.7090 C   0  0  2  0  0  0  0  0  0  0  0  0
   -1.7740   11.4850   -6.1880 C   0  0  2  0  0  0  0  0  0  0  0  0
    0.9470    8.9920   -7.9090 Cl  0  0  0  0  0  0  0  0  0  0  0  0
   -1.8690   13.0540   -5.2800 Cl  0  0  0  0  0  0  0  0  0  0  0  0
   -1.6370    8.8490   -7.1970 C   0  0  0  0  0  0  0  0  0  0  0  0
   -2.5150   10.3810   -5.4400 C   0  0  0  0  0  0  0  0  0  0  0  0
   -2.7960    9.1430   -6.2710 C   0  0  0  0  0  0  0  0  0  0  0  0
  2  1  1  1
  2  3  1  0
  2  4  1  0
  4  5  1  0
  5  6  1  0
  6  7  1  0
  6  8  1  0
  7  9  1  6
  8 10  1  1
  7 11  1  0
  8 12  1  0
 11 13  1  0
 12 13  1  0
M  CHG  1   1  -1
M  END
