ucsf135-ucsf493
     RDKit          3D

 26 29  0  0  0  0  0  0  0  0999 V2000
    1.7270   11.6350   -7.1810 O   0  0  0  0  0  0  0  0  0  0  0  0
    0.3870   11.5590   -6.7870 C   0  0  2  0  0  0  0  0  0  0  0  0
    0.2940   12.0400   -5.4390 N   0  0  0  0  0  0  0  0  0  0  0  0
   -0.1470   10.0910   -6.8950 C   0  0  1  0  0  0  0  0  0  0  0  0
   -0.6550   11.0450   -4.5360 S   0  0  2  0  0  0  0  0  0  0  0  0
   -0.8230    9.6170   -5.5600 C   0  0  1  0  0  0  0  0  0  0  0  0
   -1.0460    9.9350   -8.1170 C   0  0  0  0  0  0  0  0  0  0  0  0
   -2.1400   11.5960   -4.3170 O   0  0  0  0  0  0  0  0  0  0  0  0
   -0.0050   10.7150   -3.1210 O   0  0  0  0  0  0  0  0  0  0  0  0
   -2.2600    9.1860   -5.7840 C   0  0  0  0  0  0  0  0  0  0  0  0
   -1.6270    8.5310   -8.1930 C   0  0  0  0  0  0  0  0  0  0  0  0
    0.6120   11.9060   -2.5940 C   0  0  1  0  0  0  0  0  0  0  0  0
   -2.3690    8.1530   -6.9110 C   0  0  0  0  0  0  0  0  0  0  0  0
   -0.0680   13.1450   -3.2190 C   0  0  0  0  0  0  0  0  0  0  0  0
    0.4090   12.0020   -1.2800 O   0  0  0  0  0  0  0  0  0  0  0  0
    0.5490   14.0000   -4.3500 C   0  0  1  0  0  0  0  0  0  0  0  0
   -0.3380   15.2320   -4.4480 C   0  0  2  0  0  0  0  0  0  0  0  0
    1.9120   14.6060   -4.0530 C   0  0  0  0  0  0  0  0  0  0  0  0
   -1.6570   14.9940   -5.1510 C   0  0  0  0  0  0  0  0  0  0  0  0
    0.5620   16.2200   -5.1180 C   0  0  2  0  0  0  0  0  0  0  0  0
    1.7850   16.0620   -4.3560 N   0  0  0  0  0  0  0  0  0  0  0  0
   -2.3260   16.3200   -5.5060 C   0  0  1  0  0  0  0  0  0  0  0  0
   -0.0820   17.5940   -5.1140 C   0  0  0  0  0  0  0  0  0  0  0  0
   -3.6550   16.2180   -5.0460 O   0  0  0  0  0  0  0  0  0  0  0  0
   -1.5990   17.5130   -4.8470 C   0  0  0  0  0  0  0  0  0  0  0  0
   -4.3870   15.2380   -5.7950 C   0  0  0  0  0  0  0  0  0  0  0  0
  2  1  1  1
  2  3  1  0
  2  4  1  0
  3  5  1  0
  4  6  1  0
  5  6  1  0
  4  7  1  6
  5  8  1  1
  5  9  1  0
  6 10  1  6
  7 11  1  0
  9 12  1  0
 10 13  1  0
 11 13  1  0
 12 14  1  0
 12 15  1  1
 16 14  1  1
 16 17  1  0
 16 18  1  0
 17 19  1  6
 17 20  1  0
 18 21  1  0
 20 21  1  0
 19 22  1  0
 20 23  1  1
 22 24  1  1
 22 25  1  0
 23 25  1  0
 24 26  1  0
M  CHG  1  15  -1
M  END
