ucsf519-ucsf424
     RDKit          3D

 24 26  0  0  0  0  0  0  0  0999 V2000
    0.1410   16.7330   -4.1290 C   0  0  0  0  0  0  0  0  0  0  0  0
   -0.4240   15.4000   -3.6410 C   0  0  2  0  0  0  0  0  0  0  0  0
    0.0100   14.3300   -5.0710 S   0  0  0  0  0  0  0  0  0  0  0  0
   -1.9710   15.4570   -3.3220 C   0  0  1  0  0  0  0  0  0  0  0  0
    0.0720   12.5530   -4.4840 C   0  0  2  0  0  0  0  0  0  0  0  0
   -2.7640   14.9350   -4.3900 O   0  0  0  0  0  0  0  0  0  0  0  0
   -2.5240   14.8550   -2.1130 N   0  0  0  0  0  0  0  0  0  0  0  0
    1.0420   12.0120   -3.3590 C   0  0  1  0  0  0  0  0  0  0  0  0
   -3.8860   15.1540   -1.7250 C   0  0  0  0  0  0  0  0  0  0  0  0
   -1.6910   14.7200   -0.9560 C   0  0  1  0  0  0  0  0  0  0  0  0
   -0.0780   11.7320   -5.8070 C   0  0  1  0  0  0  0  0  0  0  0  0
    1.1750   12.8490   -2.2380 O   0  0  0  0  0  0  0  0  0  0  0  0
    0.5740   10.9180   -2.7720 O   0  0  0  0  0  0  0  0  0  0  0  0
   -0.5480   15.5070   -1.0950 O   0  0  0  0  0  0  0  0  0  0  0  0
   -3.8470   15.0920   -0.2030 C   0  0  0  0  0  0  0  0  0  0  0  0
   -2.4390   15.2580    0.1550 N   0  0  0  0  0  0  0  0  0  0  0  0
    1.1310   11.6100   -6.6680 N   0  0  0  0  0  0  0  0  0  0  0  0
   -0.7000   10.3730   -5.8240 C   0  0  2  0  0  0  0  0  0  0  0  0
    0.8690   10.4410   -7.5250 O   0  0  0  0  0  0  0  0  0  0  0  0
   -0.4850   10.0830   -7.2780 C   0  0  1  0  0  0  0  0  0  0  0  0
   -2.1770   10.2750   -5.4600 C   0  0  0  0  0  0  0  0  0  0  0  0
   -0.8660    8.6640   -7.6190 C   0  0  0  0  0  0  0  0  0  0  0  0
   -2.7290    8.9000   -5.8290 C   0  0  0  0  0  0  0  0  0  0  0  0
   -2.3320    8.4310   -7.2430 C   0  0  0  0  0  0  0  0  0  0  0  0
  2  1  1  6
  2  3  1  0
  2  4  1  0
  5  3  1  6
  4  6  1  6
  4  7  1  0
  5  8  1  0
  7  9  1  0
  7 10  1  0
  5 11  1  0
  8 12  1  1
  8 13  1  0
 10 14  1  6
  9 15  1  0
 10 16  1  0
 15 16  1  0
 11 17  1  1
 11 18  1  0
 17 19  1  0
 18 20  1  0
 19 20  1  0
 18 21  1  6
 20 22  1  1
 21 23  1  0
 22 24  1  0
 23 24  1  0
M  CHG  1  13  -1
M  END
