ucsf187-ucsf353
     RDKit          3D

 15 16  0  0  0  0  0  0  0  0999 V2000
   14.9100    1.6500    5.9880 O   0  0  0  0  0  0  0  0  0  0  0  0
   14.3180    1.6940    7.1600 C   0  0  1  0  0  0  0  0  0  0  0  0
   14.4410    0.3650    7.6170 O   0  0  0  0  0  0  0  0  0  0  0  0
   15.0590    2.6380    8.1470 C   0  0  2  0  0  0  0  0  0  0  0  0
   14.0870    3.2920    9.1280 C   0  0  0  0  0  0  0  0  0  0  0  0
   15.9190    3.6840    7.3820 C   0  0  0  0  0  0  0  0  0  0  0  0
   14.7790    4.2570   10.0810 C   0  0  1  0  0  0  0  0  0  0  0  0
   16.2220    5.0330    8.0990 C   0  0  0  0  0  0  0  0  0  0  0  0
   15.3590    5.4280    9.3270 C   0  0  2  0  0  0  0  0  0  0  0  0
   13.7480    4.9250   10.9690 C   0  0  0  0  0  0  0  0  0  0  0  0
   15.9980    6.5290   10.2100 C   0  0  2  0  0  0  0  0  0  0  0  0
   14.2140    6.2110    9.0140 O   0  0  0  0  0  0  0  0  0  0  0  0
   13.4360    6.2050   10.2180 C   0  0  0  0  0  0  0  0  0  0  0  0
   15.8210    6.3410   11.6390 N   0  0  0  0  0  0  0  0  0  0  0  0
   15.3750    7.7720    9.9000 O   0  0  0  0  0  0  0  0  0  0  0  0
  2  1  1  6
  2  3  1  0
  2  4  1  0
  4  5  1  6
  4  6  1  0
  7  5  1  6
  6  8  1  0
  7  9  1  0
  9  8  1  6
  7 10  1  0
  9 11  1  0
  9 12  1  0
 10 13  1  0
 12 13  1  0
 11 14  1  1
 11 15  1  0
M  CHG  1   1  -1
M  END
