ucsf243-ucsf333
     RDKit          3D

 19 20  0  0  0  0  0  0  0  0999 V2000
   -3.4590   15.1950    0.9830 C   0  0  0  0  0  0  0  0  0  0  0  0
   -3.2070   15.3530   -0.5180 C   0  0  2  0  0  0  0  0  0  0  0  0
   -4.3940   14.9370   -1.4020 C   0  0  1  0  0  0  0  0  0  0  0  0
   -2.2000   14.3760   -1.1930 C   0  0  1  0  0  0  0  0  0  0  0  0
   -5.9590   15.7390   -1.1070 Cl  0  0  0  0  0  0  0  0  0  0  0  0
   -2.3350   14.8410   -2.6550 C   0  0  1  0  0  0  0  0  0  0  0  0
   -3.8430   15.1930   -2.7940 C   0  0  0  0  0  0  0  0  0  0  0  0
   -0.4430   14.3580   -0.6860 S   0  0  0  0  0  0  0  0  0  0  0  0
   -1.3020   16.0650   -2.8100 C   0  0  0  0  0  0  0  0  0  0  0  0
   -1.8540   13.8070   -3.6390 C   0  0  1  0  0  0  0  0  0  0  0  0
    0.3090   14.3680   -2.3930 C   0  0  2  0  0  0  0  0  0  0  0  0
   -2.2020   14.1190   -4.9750 O   0  0  0  0  0  0  0  0  0  0  0  0
   -0.5710   16.2410   -1.7030 O   0  0  0  0  0  0  0  0  0  0  0  0
   -0.4220   13.7120   -3.5070 N   0  0  0  0  0  0  0  0  0  0  0  0
    1.6740   13.6710   -2.3920 C   0  0  0  0  0  0  0  0  0  0  0  0
    1.6730   12.4100   -3.2780 C   0  0  0  0  0  0  0  0  0  0  0  0
    0.8790   11.1810   -2.7580 C   0  0  1  0  0  0  0  0  0  0  0  0
    0.6630   11.2010   -1.4480 O   0  0  0  0  0  0  0  0  0  0  0  0
   -0.4250   11.1110   -3.2490 O   0  0  0  0  0  0  0  0  0  0  0  0
  2  1  1  1
  2  3  1  0
  2  4  1  0
  3  5  1  1
  4  6  1  0
  3  7  1  0
  6  7  1  0
  4  8  1  1
  6  9  1  1
  6 10  1  0
  8 11  1  0
 10 12  1  6
  9 13  1  0
 10 14  1  0
 11 14  1  0
 11 15  1  1
 15 16  1  0
 16 17  1  0
 17 18  1  1
 17 19  1  0
M  CHG  2  13  -1  18  -1
M  END
