ucsf005-ucsf264
     RDKit          3D

 32 35  0  0  0  0  0  0  0  0999 V2000
   -1.5970   15.0390   -3.3580 C   0  0  0  0  0  0  0  0  0  0  0  0
   -2.6370   14.4450   -2.5170 N   0  0  0  0  0  0  0  0  0  0  0  0
   -3.9640   15.0430   -2.6480 C   0  0  0  0  0  0  0  0  0  0  0  0
   -2.3820   14.3570   -1.0820 C   0  0  2  0  0  0  0  0  0  0  0  0
   -4.6420   14.7550   -1.3760 N   0  0  0  0  0  0  0  0  0  0  0  0
   -3.5320   15.0740   -0.4590 C   0  0  1  0  0  0  0  0  0  0  0  0
   -1.1400   14.8970   -0.6890 N   0  0  0  0  0  0  0  0  0  0  0  0
   -3.4830   14.6640    1.0050 C   0  0  2  0  0  0  0  0  0  0  0  0
   -0.9980   15.0130    0.7390 C   0  0  2  0  0  0  0  0  0  0  0  0
   -4.2250   15.5480    1.8870 N   0  0  0  0  0  0  0  0  0  0  0  0
    0.1270   14.1660    0.8270 N   0  0  0  0  0  0  0  0  0  0  0  0
   -2.1310   14.5490    1.5450 N   0  0  0  0  0  0  0  0  0  0  0  0
    0.4790   13.7610   -0.5450 C   0  0  0  0  0  0  0  0  0  0  0  0
    1.5810   14.4530   -1.3430 C   0  0  0  0  0  0  0  0  0  0  0  0
    1.9730   13.5940   -2.5200 C   0  0  0  0  0  0  0  0  0  0  0  0
    0.8560   12.7150   -2.6340 O   0  0  0  0  0  0  0  0  0  0  0  0
    0.8460   11.9060   -3.7890 C   0  0  2  0  0  0  0  0  0  0  0  0
    2.0300   11.1560   -3.8150 O   0  0  0  0  0  0  0  0  0  0  0  0
    0.6540   12.7450   -5.0920 C   0  0  0  0  0  0  0  0  0  0  0  0
   -0.2480   12.2790   -6.1700 N   0  0  0  0  0  0  0  0  0  0  0  0
    0.4420   12.2160   -7.4650 N   0  0  0  0  0  0  0  0  0  0  0  0
   -0.9720   11.0240   -5.9950 C   0  0  2  0  0  0  0  0  0  0  0  0
    0.4970   10.8090   -7.8810 C   0  0  1  0  0  0  0  0  0  0  0  0
   -0.8710   10.3500   -7.3750 C   0  0  2  0  0  0  0  0  0  0  0  0
   -2.4230   11.0920   -5.5480 C   0  0  0  0  0  0  0  0  0  0  0  0
    0.8520   10.3990   -9.3210 C   0  0  0  0  0  0  0  0  0  0  0  0
   -2.1380   10.5190   -8.1520 C   0  0  0  0  0  0  0  0  0  0  0  0
   -3.1740    9.8100   -5.9510 C   0  0  0  0  0  0  0  0  0  0  0  0
    1.5300    9.2250   -9.3170 F   0  0  0  0  0  0  0  0  0  0  0  0
   -0.2130   10.2450  -10.1240 F   0  0  0  0  0  0  0  0  0  0  0  0
    1.6530   11.2820   -9.9420 F   0  0  0  0  0  0  0  0  0  0  0  0
   -3.1570    9.5900   -7.4640 C   0  0  0  0  0  0  0  0  0  0  0  0
  1  2  1  0
  2  3  1  0
  2  4  1  0
  3  5  1  0
  4  6  1  0
  6  5  1  6
  4  7  1  6
  6  8  1  0
  7  9  1  0
  8 10  1  1
  9 11  1  1
  8 12  1  0
  9 12  1  0
 11 13  1  0
 13 14  1  0
 14 15  1  0
 15 16  1  0
 16 17  1  0
 17 18  1  6
 17 19  1  0
 19 20  1  0
 20 21  1  0
 20 22  1  0
 21 23  1  0
 22 24  1  0
 23 24  1  0
 22 25  1  6
 23 26  1  6
 24 27  1  6
 25 28  1  0
 26 29  1  0
 26 30  1  0
 26 31  1  0
 27 32  1  0
 28 32  1  0
M  END
