ucsf110-ucsf138
     RDKit          3D

 27 29  0  0  0  0  0  0  0  0999 V2000
   -0.2850   16.3320   -2.6020 C   0  0  0  0  0  0  0  0  0  0  0  0
   -1.0300   15.0100   -2.5390 C   0  0  1  0  0  0  0  0  0  0  0  0
   -2.5240   15.2090   -2.8870 C   0  0  0  0  0  0  0  0  0  0  0  0
   -0.2140   14.1100   -3.4760 C   0  0  0  0  0  0  0  0  0  0  0  0
   -1.0460   14.4010   -1.1000 C   0  0  2  0  0  0  0  0  0  0  0  0
    1.1910   13.8070   -2.9140 C   0  0  0  0  0  0  0  0  0  0  0  0
   -3.1960   15.4500   -1.5340 C   0  0  0  0  0  0  0  0  0  0  0  0
   -2.5280   14.4240   -0.6170 C   0  0  2  0  0  0  0  0  0  0  0  0
   -0.1720   15.1440   -0.2020 N   0  0  0  0  0  0  0  0  0  0  0  0
    1.1160   12.5200   -2.3090 O   0  0  0  0  0  0  0  0  0  0  0  0
   -2.6890   14.5420    0.9090 C   0  0  2  0  0  0  0  0  0  0  0  0
   -0.3610   14.6450    1.1100 C   0  0  0  0  0  0  0  0  0  0  0  0
   -3.8630   15.2570    1.3470 N   0  0  0  0  0  0  0  0  0  0  0  0
    0.3010   11.7200   -3.1230 C   0  0  2  0  0  0  0  0  0  0  0  0
   -1.6040   15.2140    1.5400 N   0  0  0  0  0  0  0  0  0  0  0  0
    0.4860   10.3470   -2.7510 O   0  0  0  0  0  0  0  0  0  0  0  0
    0.6940   12.0280   -4.6060 C   0  0  0  0  0  0  0  0  0  0  0  0
    0.0580   11.1140   -5.5580 N   0  0  0  0  0  0  0  0  0  0  0  0
    0.4150   11.4130   -6.9000 C   0  0  1  0  0  0  0  0  0  0  0  0
    1.7610   11.7200   -7.0290 O   0  0  0  0  0  0  0  0  0  0  0  0
    0.0390   10.2980   -7.7340 N   0  0  0  0  0  0  0  0  0  0  0  0
    0.8760    9.9160   -8.8770 C   0  0  0  0  0  0  0  0  0  0  0  0
    0.0110   10.0370  -10.1500 C   0  0  0  0  0  0  0  0  0  0  0  0
    1.5010    8.5140   -8.7760 C   0  0  0  0  0  0  0  0  0  0  0  0
    0.6830    9.5370  -11.4330 C   0  0  0  0  0  0  0  0  0  0  0  0
    2.1830    8.0610  -10.0700 C   0  0  0  0  0  0  0  0  0  0  0  0
    1.2760    8.1420  -11.2860 C   0  0  0  0  0  0  0  0  0  0  0  0
  2  1  1  1
  2  3  1  0
  2  4  1  0
  2  5  1  0
  4  6  1  0
  3  7  1  0
  5  8  1  0
  8  7  1  6
  5  9  1  1
  6 10  1  0
  8 11  1  0
  9 12  1  0
 11 13  1  6
 10 14  1  0
 11 15  1  0
 12 15  1  0
 14 16  1  1
 14 17  1  0
 17 18  1  0
 18 19  1  0
 19 20  1  1
 19 21  1  0
 21 22  1  0
 22 23  1  0
 22 24  1  0
 23 25  1  0
 24 26  1  0
 25 27  1  0
 26 27  1  0
M  END
