ucsf333-ucsf030
     RDKit          3D

 28 31  0  0  0  0  0  0  0  0999 V2000
   -6.9730   15.1630   -2.2320 Cl  0  0  0  0  0  0  0  0  0  0  0  0
   -5.3500   15.0850   -1.5510 C   0  0  2  0  0  0  0  0  0  0  0  0
   -4.2530   14.8330   -2.6320 C   0  0  0  0  0  0  0  0  0  0  0  0
   -5.0900   13.7730   -0.9530 C   0  0  0  0  0  0  0  0  0  0  0  0
   -2.9670   15.1470   -2.0100 C   0  0  2  0  0  0  0  0  0  0  0  0
   -3.7580   13.3170   -1.1530 C   0  0  0  0  0  0  0  0  0  0  0  0
   -1.8980   15.1500   -3.1210 N   0  0  0  0  0  0  0  0  0  0  0  0
   -2.5840   14.5460   -0.4540 S   0  0  0  0  0  0  0  0  0  0  0  0
   -0.7340   13.1410   -0.5810 Cl  0  0  0  0  0  0  0  0  0  0  0  0
   -0.9330   14.1660   -2.7330 C   0  0  2  0  0  0  0  0  0  0  0  0
   -0.7070   14.9370   -1.2460 S   0  0  0  0  0  0  0  0  0  0  0  0
   -2.6970   15.5970    0.9730 C   0  0  1  0  0  0  0  0  0  0  0  0
   -2.5490   13.8410    1.1100 N   0  0  0  0  0  0  0  0  0  0  0  0
    0.3520   14.0470   -3.4740 C   0  0  0  0  0  0  0  0  0  0  0  0
   -3.7390   15.3560    1.8510 N   0  0  0  0  0  0  0  0  0  0  0  0
   -1.1590   14.1070    1.4190 C   0  0  0  0  0  0  0  0  0  0  0  0
   -1.3230   15.4750    1.3860 N   0  0  0  0  0  0  0  0  0  0  0  0
   -1.6290   12.9800   -2.8030 N   0  0  0  0  0  0  0  0  0  0  0  0
    1.0760   12.7400   -3.1750 C   0  0  0  0  0  0  0  0  0  0  0  0
   -2.2370   12.4410   -3.8400 C   0  0  0  0  0  0  0  0  0  0  0  0
    0.2760   11.6120   -2.5790 C   0  0  2  0  0  0  0  0  0  0  0  0
   -1.6650   11.4270   -4.7540 C   0  0  0  0  0  0  0  0  0  0  0  0
   -2.9270   13.4080   -4.8100 C   0  0  0  0  0  0  0  0  0  0  0  0
    0.7290   11.0350   -1.4230 O   0  0  0  0  0  0  0  0  0  0  0  0
    0.2820   10.5680   -3.5520 O   0  0  0  0  0  0  0  0  0  0  0  0
   -0.4910   11.9990   -5.5970 C   0  0  0  0  0  0  0  0  0  0  0  0
   -1.8560   13.9750   -5.7460 C   0  0  0  0  0  0  0  0  0  0  0  0
   -0.4680   13.5030   -5.4210 C   0  0  0  0  0  0  0  0  0  0  0  0
  2  1  1  6
  2  3  1  0
  2  4  1  0
  5  3  1  6
  4  6  1  0
  5  7  1  0
  5  8  1  0
  6  8  1  0
  8  9  1  0
  7 10  1  0
  8 11  1  0
 10 11  1  0
  8 12  1  0
  8 13  1  0
 10 14  1  6
 12 15  1  1
 13 16  1  0
 12 17  1  0
 16 17  1  0
 10 18  1  0
 14 19  1  0
 18 20  1  0
 19 21  1  0
 20 22  1  0
 20 23  1  0
 21 24  1  1
 21 25  1  0
 22 26  1  0
 23 27  1  0
 26 28  1  0
 27 28  1  0
M  CHG  1  24  -1
M  END
