ucsf115-ucsf264
     RDKit          3D

 33 37  0  0  0  0  0  0  0  0999 V2000
   -2.2060   13.8420   -3.4980 C   0  0  0  0  0  0  0  0  0  0  0  0
   -1.8270   14.9940   -2.7000 N   0  0  0  0  0  0  0  0  0  0  0  0
   -1.8760   14.5230   -1.3190 C   0  0  1  0  0  0  0  0  0  0  0  0
   -1.9700   12.6480   -2.5720 C   0  0  1  0  0  0  0  0  0  0  0  0
   -2.2810   11.3670   -3.1710 O   0  0  0  0  0  0  0  0  0  0  0  0
   -0.5150   12.6080   -2.1730 C   0  0  0  0  0  0  0  0  0  0  0  0
   -0.1280   11.8910   -3.3960 C   0  0  2  0  0  0  0  0  0  0  0  0
   -1.0190   10.7070   -3.2220 C   0  0  0  0  0  0  0  0  0  0  0  0
   -0.6630   14.9450   -0.6100 N   0  0  0  0  0  0  0  0  0  0  0  0
   -3.1490   15.0120   -0.6200 C   0  0  2  0  0  0  0  0  0  0  0  0
    1.2630   11.5270   -3.6780 C   0  0  1  0  0  0  0  0  0  0  0  0
   -0.6670   14.5240    0.7930 C   0  0  0  0  0  0  0  0  0  0  0  0
   -3.0750   14.5840    0.7970 C   0  0  1  0  0  0  0  0  0  0  0  0
   -4.4420   14.4150   -0.9220 N   0  0  0  0  0  0  0  0  0  0  0  0
    2.0400   12.1480   -2.8160 O   0  0  0  0  0  0  0  0  0  0  0  0
    1.2830   10.1680   -3.3390 O   0  0  0  0  0  0  0  0  0  0  0  0
    1.5780   11.8070   -5.1660 C   0  0  0  0  0  0  0  0  0  0  0  0
   -1.8740   14.9380    1.4900 N   0  0  0  0  0  0  0  0  0  0  0  0
   -4.2920   15.1780    1.3100 N   0  0  0  0  0  0  0  0  0  0  0  0
   -5.2120   15.0210    0.1600 C   0  0  0  0  0  0  0  0  0  0  0  0
    0.4780   12.0540   -6.1380 N   0  0  0  0  0  0  0  0  0  0  0  0
    1.1480   11.8930   -7.3940 N   0  0  0  0  0  0  0  0  0  0  0  0
   -0.7260   11.2240   -6.3310 C   0  0  1  0  0  0  0  0  0  0  0  0
    1.0300   10.4780   -7.7960 C   0  0  1  0  0  0  0  0  0  0  0  0
   -0.1810    9.9890   -7.0210 C   0  0  2  0  0  0  0  0  0  0  0  0
   -1.7880   10.8020   -5.3010 C   0  0  0  0  0  0  0  0  0  0  0  0
    1.0850   10.1850   -9.3020 C   0  0  0  0  0  0  0  0  0  0  0  0
   -1.2850    9.2120   -7.7250 C   0  0  0  0  0  0  0  0  0  0  0  0
   -2.8780    9.8630   -5.8650 C   0  0  0  0  0  0  0  0  0  0  0  0
    1.6980    8.9910   -9.5030 F   0  0  0  0  0  0  0  0  0  0  0  0
   -0.1480   10.0680   -9.8400 F   0  0  0  0  0  0  0  0  0  0  0  0
    1.7120   11.1030  -10.0460 F   0  0  0  0  0  0  0  0  0  0  0  0
   -2.3180    8.7180   -6.7060 C   0  0  0  0  0  0  0  0  0  0  0  0
  1  2  1  0
  3  2  1  6
  4  1  1  6
  4  5  1  0
  4  6  1  0
  7  6  1  1
  5  8  1  0
  7  8  1  0
  3  9  1  0
  3 10  1  0
  7 11  1  0
  9 12  1  0
 10 13  1  0
 10 14  1  6
 11 15  1  1
 11 16  1  0
 11 17  1  0
 12 18  1  0
 13 18  1  1
 13 19  1  0
 14 20  1  0
 19 20  1  0
 17 21  1  0
 21 22  1  0
 21 23  1  0
 22 24  1  0
 23 25  1  0
 24 25  1  0
 23 26  1  1
 24 27  1  6
 25 28  1  6
 26 29  1  0
 27 30  1  0
 27 31  1  0
 27 32  1  0
 28 33  1  0
 29 33  1  0
M  CHG  1  15  -1
M  END
