ucsf224-ucsf172
     RDKit          3D

 27 28  0  0  0  0  0  0  0  0999 V2000
   -1.4220   18.5700   -5.1000 Cl  0  0  0  0  0  0  0  0  0  0  0  0
   -0.5510   17.0010   -5.1730 C   0  0  2  0  0  0  0  0  0  0  0  0
   -1.4900   15.7840   -5.0820 C   0  0  2  0  0  0  0  0  0  0  0  0
    0.6880   16.9860   -4.2920 C   0  0  0  0  0  0  0  0  0  0  0  0
   -2.9080   15.8300   -4.5100 C   0  0  0  0  0  0  0  0  0  0  0  0
   -0.7240   14.4450   -4.9410 C   0  0  0  0  0  0  0  0  0  0  0  0
    1.3820   15.6280   -4.1950 C   0  0  0  0  0  0  0  0  0  0  0  0
   -3.5810   14.4790   -4.4620 C   0  0  0  0  0  0  0  0  0  0  0  0
    0.4800   14.4220   -3.9930 C   0  0  2  0  0  0  0  0  0  0  0  0
    1.1600   13.0200   -3.8990 C   0  0  0  0  0  0  0  0  0  0  0  0
   -2.6360   13.5600   -3.9300 O   0  0  0  0  0  0  0  0  0  0  0  0
    1.2650   12.2800   -2.5360 C   0  0  2  0  0  0  0  0  0  0  0  0
   -1.9780   14.1130   -2.8030 C   0  0  2  0  0  0  0  0  0  0  0  0
    0.6180   11.1280   -2.5980 O   0  0  0  0  0  0  0  0  0  0  0  0
    0.5490   12.8780   -1.4760 O   0  0  0  0  0  0  0  0  0  0  0  0
   -0.9250   13.2670   -2.3880 O   0  0  0  0  0  0  0  0  0  0  0  0
   -2.9760   14.2770   -1.6630 C   0  0  1  0  0  0  0  0  0  0  0  0
   -2.2680   14.4530   -0.3050 C   0  0  0  0  0  0  0  0  0  0  0  0
   -4.0090   15.3730   -1.9990 C   0  0  0  0  0  0  0  0  0  0  0  0
   -3.2180   14.9520    0.7670 C   0  0  0  0  0  0  0  0  0  0  0  0
   -5.0390   15.5470   -0.9080 C   0  0  0  0  0  0  0  0  0  0  0  0
   -4.6650   14.7370    0.3290 C   0  0  2  0  0  0  0  0  0  0  0  0
   -5.5790   15.0590    1.4140 N   0  0  0  0  0  0  0  0  0  0  0  0
   -7.0790   14.4020    1.3900 S   0  0  0  0  0  0  0  0  0  0  0  0
   -8.2800   15.0130    2.5120 C   0  0  0  0  0  0  0  0  0  0  0  0
   -6.8560   12.8960    1.8540 O   0  0  0  0  0  0  0  0  0  0  0  0
   -7.7940   14.3790   -0.0450 O   0  0  0  0  0  0  0  0  0  0  0  0
  2  1  1  1
  2  3  1  0
  2  4  1  0
  3  5  1  1
  3  6  1  0
  4  7  1  0
  5  8  1  0
  6  9  1  0
  7  9  1  0
  9 10  1  6
  8 11  1  0
 10 12  1  0
 11 13  1  0
 12 14  1  6
 12 15  1  0
 13 16  1  1
 13 17  1  0
 17 18  1  1
 17 19  1  0
 18 20  1  0
 19 21  1  0
 20 22  1  0
 21 22  1  0
 22 23  1  1
 23 24  1  0
 24 25  1  0
 24 26  1  0
 24 27  1  0
M  CHG  1  14  -1
M  END
