ucsf404
     RDKit          3D

 11 12  0  0  0  0  0  0  0  0999 V2000
   -6.5900   15.6350   -2.2750 Cl  0  0  0  0  0  0  0  0  0  0  0  0
   -6.4960   14.8490    3.2080 N   0  0  0  0  0  0  0  0  0  0  0  0
   -5.6430   14.8670    2.0480 C   0  0  0  0  0  0  0  0  0  0  0  0
   -6.0760   15.1140    0.7620 N   0  0  0  0  0  0  0  0  0  0  0  0
   -4.9500   15.0520   -0.1390 C   0  0  0  0  0  0  0  0  0  0  0  0
   -5.0320   15.2430   -1.5260 C   0  0  0  0  0  0  0  0  0  0  0  0
   -3.9040   15.1730   -2.3030 C   0  0  0  0  0  0  0  0  0  0  0  0
   -2.6770   14.8750   -1.7250 C   0  0  0  0  0  0  0  0  0  0  0  0
   -2.5910   14.6670   -0.3560 C   0  0  0  0  0  0  0  0  0  0  0  0
   -3.7300   14.7620    0.4420 C   0  0  0  0  0  0  0  0  0  0  0  0
   -3.9860   14.5770    2.0840 S   0  0  0  0  0  0  0  0  0  0  0  0
  2  3  1  0
  3  4  1  0
  4  5  1  0
  1  6  1  0
  5  6  1  0
  6  7  1  0
  7  8  1  0
  8  9  1  0
  5 10  1  0
  9 10  1  0
  3 11  1  0
 10 11  1  0
M  END
