ucsf442-ucsf028
     RDKit          3D

 22 25  0  0  0  0  0  0  0  0999 V2000
   -0.3090   16.1130    0.6210 O   0  0  0  0  0  0  0  0  0  0  0  0
   -1.4000   15.2580    0.5050 C   0  0  2  0  0  0  0  0  0  0  0  0
   -1.5080   14.4360   -0.8940 C   0  0  2  0  0  0  0  0  0  0  0  0
   -2.5520   15.7570    1.1790 N   0  0  0  0  0  0  0  0  0  0  0  0
   -1.1090   14.2860    1.4490 N   0  0  0  0  0  0  0  0  0  0  0  0
   -0.6390   14.8630   -2.1480 C   0  0  0  0  0  0  0  0  0  0  0  0
   -3.6380   14.8950    0.9120 C   0  0  2  0  0  0  0  0  0  0  0  0
   -3.0050   14.3230   -1.3780 C   0  0  2  0  0  0  0  0  0  0  0  0
   -0.8130   13.2070   -0.4410 N   0  0  0  0  0  0  0  0  0  0  0  0
   -0.0780   13.7290    0.7070 C   0  0  0  0  0  0  0  0  0  0  0  0
   -3.1310   14.9150   -2.6830 O   0  0  0  0  0  0  0  0  0  0  0  0
   -4.0490   15.0270   -0.5130 C   0  0  1  0  0  0  0  0  0  0  0  0
   -4.8070   15.3630    1.6050 N   0  0  0  0  0  0  0  0  0  0  0  0
   -0.0780   13.7540   -3.0890 C   0  0  2  0  0  0  0  0  0  0  0  0
   -5.4510   14.5610   -0.5080 N   0  0  0  0  0  0  0  0  0  0  0  0
   -5.8420   14.6240    0.9060 C   0  0  0  0  0  0  0  0  0  0  0  0
   -0.9760   13.0960   -4.1220 C   0  0  0  0  0  0  0  0  0  0  0  0
    0.4630   12.6470   -2.3450 O   0  0  0  0  0  0  0  0  0  0  0  0
    0.2070   11.4090   -3.0970 N   0  0  0  0  0  0  0  0  0  0  0  0
   -0.1730   11.8550   -4.4340 C   0  0  1  0  0  0  0  0  0  0  0  0
   -0.9390   10.8950   -5.1440 O   0  0  0  0  0  0  0  0  0  0  0  0
   -0.5460   10.8160   -6.5050 C   0  0  0  0  0  0  0  0  0  0  0  0
  2  1  1  6
  2  3  1  0
  2  4  1  0
  2  5  1  0
  3  6  1  6
  7  4  1  6
  3  8  1  0
  3  9  1  0
  5 10  1  0
  9 10  1  0
  8 11  1  6
  7 12  1  0
  8 12  1  0
  7 13  1  0
 14  6  1  1
 12 15  1  1
 13 16  1  0
 15 16  1  0
 14 17  1  0
 14 18  1  0
 18 19  1  0
 17 20  1  0
 19 20  1  0
 20 21  1  1
 21 22  1  0
M  END
