ucsf241-ucsf039
     RDKit          3D

 16 18  0  0  0  0  0  0  0  0999 V2000
   -2.3700   15.2880   -3.2390 C   0  0  0  0  0  0  0  0  0  0  0  0
   -1.2620   16.2470   -3.8130 C   0  0  1  0  0  0  0  0  0  0  0  0
    0.1850   15.8280   -4.1250 C   0  0  0  0  0  0  0  0  0  0  0  0
   -2.7370   15.0640   -1.7340 C   0  0  2  0  0  0  0  0  0  0  0  0
   -4.0550   15.4060   -0.9740 C   0  0  0  0  0  0  0  0  0  0  0  0
   -1.7210   15.3910   -0.7020 C   0  0  1  0  0  0  0  0  0  0  0  0
   -1.7220   16.9530   -5.0040 N   0  0  0  0  0  0  0  0  0  0  0  0
   -2.3970   14.6880    0.4410 C   0  0  2  0  0  0  0  0  0  0  0  0
   -3.7120   15.2960    0.4770 N   0  0  0  0  0  0  0  0  0  0  0  0
   -0.3100   14.9740   -0.9590 C   0  0  0  0  0  0  0  0  0  0  0  0
   -0.7670   18.0250   -5.2190 C   0  0  1  0  0  0  0  0  0  0  0  0
    0.8560   17.2710   -5.0150 S   0  0  0  0  0  0  0  0  0  0  0  0
   -0.9550   18.6440   -6.5950 C   0  0  0  0  0  0  0  0  0  0  0  0
    0.0270   13.8440   -0.0430 C   0  0  0  0  0  0  0  0  0  0  0  0
   -1.6430   14.7000    1.6420 N   0  0  0  0  0  0  0  0  0  0  0  0
   -0.2750   14.2360    1.4010 C   0  0  0  0  0  0  0  0  0  0  0  0
  2  1  1  6
  2  3  1  0
  4  1  1  6
  4  5  1  0
  4  6  1  0
  2  7  1  0
  6  8  1  0
  5  9  1  0
  8  9  1  1
  6 10  1  6
  7 11  1  0
  3 12  1  0
 11 12  1  0
 11 13  1  6
 10 14  1  0
  8 15  1  0
 14 16  1  0
 15 16  1  0
M  END
