ucsf278-ucsf487
     RDKit          3D

 25 28  0  0  0  0  0  0  0  0999 V2000
   -0.9700   13.5330   -0.8700 Cl  0  0  0  0  0  0  0  0  0  0  0  0
   -0.1500   14.1490   -2.3730 C   0  0  1  0  0  0  0  0  0  0  0  0
   -0.0890   13.1160   -3.5160 C   0  0  1  0  0  0  0  0  0  0  0  0
   -0.9440   15.4160   -2.7450 C   0  0  0  0  0  0  0  0  0  0  0  0
    1.2930   14.4610   -1.9920 C   0  0  0  0  0  0  0  0  0  0  0  0
   -2.0500   15.8620   -1.7890 C   0  0  0  0  0  0  0  0  0  0  0  0
   -1.3190   12.4160   -4.0720 C   0  0  0  0  0  0  0  0  0  0  0  0
    0.4940   13.7030   -4.7620 C   0  0  2  0  0  0  0  0  0  0  0  0
    2.2480   14.7180   -3.1690 C   0  0  0  0  0  0  0  0  0  0  0  0
   -0.9480   12.1280   -5.5440 C   0  0  1  0  0  0  0  0  0  0  0  0
    0.4370   12.6070   -5.7140 N   0  0  0  0  0  0  0  0  0  0  0  0
    1.8580   14.3080   -4.5880 C   0  0  0  0  0  0  0  0  0  0  0  0
   -3.2190   14.9340   -1.4960 C   0  0  2  0  0  0  0  0  0  0  0  0
   -1.1420   10.6620   -5.9690 C   0  0  0  0  0  0  0  0  0  0  0  0
   -4.2270   15.1100   -2.6430 C   0  0  0  0  0  0  0  0  0  0  0  0
   -3.7960   15.2380   -0.1060 C   0  0  0  0  0  0  0  0  0  0  0  0
   -2.3600   10.1420   -5.4610 O   0  0  0  0  0  0  0  0  0  0  0  0
   -5.1240   14.5200    0.0720 C   0  0  1  0  0  0  0  0  0  0  0  0
   -5.7020   14.8380   -2.3400 C   0  0  0  0  0  0  0  0  0  0  0  0
   -5.5930   14.5580    1.5240 C   0  0  0  0  0  0  0  0  0  0  0  0
   -6.1410   15.1110   -0.9080 C   0  0  1  0  0  0  0  0  0  0  0  0
   -7.0380   14.0560    1.6810 C   0  0  1  0  0  0  0  0  0  0  0  0
   -7.4690   14.5070   -0.7630 N   0  0  0  0  0  0  0  0  0  0  0  0
   -7.5320   14.3850    3.0130 N   0  0  0  0  0  0  0  0  0  0  0  0
   -8.0030   14.5760    0.5970 C   0  0  0  0  0  0  0  0  0  0  0  0
  2  1  1  0
  2  3  1  0
  2  4  1  6
  2  5  1  0
  4  6  1  0
  3  7  1  6
  3  8  1  0
  5  9  1  0
  7 10  1  0
  8 11  1  0
 10 11  1  0
  8 12  1  1
  9 12  1  0
 13  6  1  6
 10 14  1  1
 13 15  1  0
 13 16  1  0
 14 17  1  0
 18 16  1  1
 15 19  1  0
 18 20  1  0
 18 21  1  0
 21 19  1  6
 20 22  1  0
 21 23  1  0
 22 24  1  1
 22 25  1  0
 23 25  1  0
M  END
