ucsf173-ucsf411
     RDKit          3D

 14 16  0  0  0  0  0  0  0  0999 V2000
    0.8850   12.5460   -1.5430 O   0  0  0  0  0  0  0  0  0  0  0  0
    0.4800   12.6160   -2.8060 C   0  0  2  0  0  0  0  0  0  0  0  0
   -0.3120   11.4680   -2.9240 O   0  0  0  0  0  0  0  0  0  0  0  0
    1.6060   12.7180   -3.8720 C   0  0  0  0  0  0  0  0  0  0  0  0
   -0.2520   13.9160   -3.0500 C   0  0  2  0  0  0  0  0  0  0  0  0
    1.5380   14.0330   -4.5040 O   0  0  0  0  0  0  0  0  0  0  0  0
   -1.2290   14.0250   -4.2210 C   0  0  0  0  0  0  0  0  0  0  0  0
    0.8420   14.8400   -3.5530 C   0  0  1  0  0  0  0  0  0  0  0  0
   -1.3980   15.5380   -4.1830 C   0  0  1  0  0  0  0  0  0  0  0  0
    0.0590   16.0670   -4.0830 C   0  0  2  0  0  0  0  0  0  0  0  0
   -2.2970   16.1860   -5.2250 C   0  0  0  0  0  0  0  0  0  0  0  0
    0.5820   16.8320   -5.2930 C   0  0  0  0  0  0  0  0  0  0  0  0
   -1.8820   17.5890   -5.6770 C   0  0  0  0  0  0  0  0  0  0  0  0
   -0.3890   17.8550   -5.8860 C   0  0  0  0  0  0  0  0  0  0  0  0
  2  1  1  1
  2  3  1  0
  2  4  1  0
  2  5  1  0
  4  6  1  0
  5  7  1  6
  5  8  1  0
  8  6  1  6
  9  7  1  6
  8 10  1  0
  9 10  1  0
  9 11  1  0
 10 12  1  6
 11 13  1  0
 12 14  1  0
 13 14  1  0
M  CHG  1   1  -1
M  END
