ucsf278-ucsf012
     RDKit          3D

 25 28  0  0  0  0  0  0  0  0999 V2000
   -0.7590   12.7620   -1.3290 Cl  0  0  0  0  0  0  0  0  0  0  0  0
    0.4550   13.1800   -2.5800 C   0  0  1  0  0  0  0  0  0  0  0  0
   -0.1730   13.5510   -3.9420 C   0  0  2  0  0  0  0  0  0  0  0  0
    1.3720   14.3240   -2.1200 C   0  0  0  0  0  0  0  0  0  0  0  0
   -1.0150   14.7820   -3.5220 C   0  0  0  0  0  0  0  0  0  0  0  0
   -1.1060   12.4420   -4.4500 C   0  0  0  0  0  0  0  0  0  0  0  0
    0.9440   13.6730   -4.9790 C   0  0  2  0  0  0  0  0  0  0  0  0
    2.4640   14.5170   -3.1520 C   0  0  0  0  0  0  0  0  0  0  0  0
   -0.2370   11.6210   -5.3760 C   0  0  2  0  0  0  0  0  0  0  0  0
    0.7600   12.5530   -5.9260 N   0  0  0  0  0  0  0  0  0  0  0  0
    2.3110   13.5420   -4.3060 C   0  0  0  0  0  0  0  0  0  0  0  0
   -1.9630   14.4070   -2.4740 N   0  0  0  0  0  0  0  0  0  0  0  0
   -1.0750   10.9010   -6.4330 C   0  0  0  0  0  0  0  0  0  0  0  0
   -3.3140   15.0150   -2.5770 C   0  0  1  0  0  0  0  0  0  0  0  0
   -1.6670   14.5470   -1.0310 C   0  0  1  0  0  0  0  0  0  0  0  0
   -2.2180   10.3160   -5.8070 O   0  0  0  0  0  0  0  0  0  0  0  0
   -4.1020   14.7970   -3.8640 C   0  0  0  0  0  0  0  0  0  0  0  0
   -4.0610   14.5690   -1.2970 C   0  0  1  0  0  0  0  0  0  0  0  0
   -2.9350   14.1560   -0.3280 C   0  0  2  0  0  0  0  0  0  0  0  0
   -0.5250   13.9480   -0.3950 N   0  0  0  0  0  0  0  0  0  0  0  0
   -5.0640   15.6000   -0.8290 C   0  0  0  0  0  0  0  0  0  0  0  0
   -2.8530   14.5480    1.1330 C   0  0  2  0  0  0  0  0  0  0  0  0
   -0.3800   14.4940    0.9550 C   0  0  0  0  0  0  0  0  0  0  0  0
   -3.8850   15.3880    1.6740 N   0  0  0  0  0  0  0  0  0  0  0  0
   -1.5790   15.1920    1.3980 N   0  0  0  0  0  0  0  0  0  0  0  0
  2  1  1  1
  2  3  1  0
  2  4  1  0
  3  5  1  1
  3  6  1  0
  3  7  1  0
  4  8  1  0
  6  9  1  0
  7 10  1  0
  9 10  1  0
  7 11  1  1
  8 11  1  0
  5 12  1  0
  9 13  1  6
 12 14  1  0
 12 15  1  0
 13 16  1  0
 14 17  1  6
 14 18  1  0
 15 19  1  0
 18 19  1  0
 15 20  1  1
 18 21  1  1
 19 22  1  1
 20 23  1  0
 22 24  1  6
 22 25  1  0
 23 25  1  0
M  END
