ucsf039-ucsf170
     RDKit          3D

 21 23  0  0  0  0  0  0  0  0999 V2000
   -4.5350   15.6270    0.2810 N   0  0  0  0  0  0  0  0  0  0  0  0
   -5.2270   14.9430    1.3400 C   0  0  0  0  0  0  0  0  0  0  0  0
   -3.4300   14.8550   -0.2730 C   0  0  1  0  0  0  0  0  0  0  0  0
   -3.7060   14.8380   -1.6930 N   0  0  0  0  0  0  0  0  0  0  0  0
   -2.0120   15.3480    0.1280 C   0  0  2  0  0  0  0  0  0  0  0  0
   -2.5970   15.1540   -2.5810 C   0  0  2  0  0  0  0  0  0  0  0  0
   -0.8990   15.0320   -0.8700 C   0  0  2  0  0  0  0  0  0  0  0  0
   -1.5050   14.8280    1.4300 N   0  0  0  0  0  0  0  0  0  0  0  0
   -2.8930   14.7320   -3.9000 O   0  0  0  0  0  0  0  0  0  0  0  0
   -1.3210   14.6350   -2.1710 N   0  0  0  0  0  0  0  0  0  0  0  0
   -0.0610   14.0560   -0.2060 N   0  0  0  0  0  0  0  0  0  0  0  0
   -0.1280   14.4370    1.1700 C   0  0  0  0  0  0  0  0  0  0  0  0
   -0.2700   14.7640   -3.1430 C   0  0  1  0  0  0  0  0  0  0  0  0
    0.9580   14.5710   -2.4590 O   0  0  0  0  0  0  0  0  0  0  0  0
   -0.1850   13.7980   -4.0230 O   0  0  0  0  0  0  0  0  0  0  0  0
   -0.1490   16.1810   -3.8440 C   0  0  1  0  0  0  0  0  0  0  0  0
    1.1870   16.3950   -4.5040 C   0  0  0  0  0  0  0  0  0  0  0  0
   -1.1990   16.6140   -4.8310 N   0  0  0  0  0  0  0  0  0  0  0  0
   -0.6600   17.6660   -5.6950 C   0  0  2  0  0  0  0  0  0  0  0  0
    0.9820   18.1050   -5.0760 S   0  0  0  0  0  0  0  0  0  0  0  0
   -1.5580   18.8820   -5.8620 C   0  0  0  0  0  0  0  0  0  0  0  0
  1  2  1  0
  3  1  1  1
  3  4  1  0
  3  5  1  0
  4  6  1  0
  5  7  1  0
  5  8  1  1
  6  9  1  6
  6 10  1  0
  7 10  1  0
  7 11  1  1
  8 12  1  0
 11 12  1  0
 10 13  1  0
 13 14  1  1
 13 15  1  0
 13 16  1  0
 16 17  1  6
 16 18  1  0
 18 19  1  0
 17 20  1  0
 19 20  1  0
 19 21  1  1
M  CHG  1  15  -1
M  END
