ucsf404-ucsf151
     RDKit          3D

 20 22  0  0  0  0  0  0  0  0999 V2000
   -6.4070   15.0930   -2.5370 Cl  0  0  0  0  0  0  0  0  0  0  0  0
   -4.8440   14.8370   -1.7580 C   0  0  2  0  0  0  0  0  0  0  0  0
   -4.9010   15.2730   -0.4100 C   0  0  1  0  0  0  0  0  0  0  0  0
   -3.6580   15.5640   -2.2940 C   0  0  0  0  0  0  0  0  0  0  0  0
   -6.0580   14.9720    0.2780 N   0  0  0  0  0  0  0  0  0  0  0  0
   -3.7050   14.5040   -0.1350 C   0  0  1  0  0  0  0  0  0  0  0  0
   -2.0680   14.5780   -2.5870 S   0  0  0  0  0  0  0  0  0  0  0  0
   -0.2080   14.4730   -1.8010 C   0  0  1  0  0  0  0  0  0  0  0  0
   -5.7190   14.7000    1.5710 C   0  0  2  0  0  0  0  0  0  0  0  0
   -4.4780   13.4140    1.1260 S   0  0  0  0  0  0  0  0  0  0  0  0
   -2.8860   13.8470   -1.0780 C   0  0  0  0  0  0  0  0  0  0  0  0
   -1.8130   13.2160   -3.8240 C   0  0  0  0  0  0  0  0  0  0  0  0
   -2.2130   14.9750   -4.4090 C   0  0  0  0  0  0  0  0  0  0  0  0
   -6.7650   14.1450    2.4120 N   0  0  0  0  0  0  0  0  0  0  0  0
    0.3810   13.3000   -1.8750 O   0  0  0  0  0  0  0  0  0  0  0  0
    0.6740   15.2280   -2.6490 O   0  0  0  0  0  0  0  0  0  0  0  0
   -1.8760   13.4540   -5.2210 C   0  0  2  0  0  0  0  0  0  0  0  0
   -3.3770   14.5910   -5.0500 N   0  0  0  0  0  0  0  0  0  0  0  0
   -1.3290   14.7710   -5.4490 O   0  0  0  0  0  0  0  0  0  0  0  0
   -3.1300   13.5950   -5.9130 C   0  0  0  0  0  0  0  0  0  0  0  0
  2  1  1  6
  2  3  1  0
  2  4  1  0
  3  5  1  1
  3  6  1  0
  4  7  1  0
  7  8  1  0
  5  9  1  0
  6 10  1  0
  9 10  1  0
  6 11  1  6
  7 11  1  0
  7 12  1  0
  7 13  1  0
  9 14  1  1
  8 15  1  6
  8 16  1  0
 12 17  1  0
 13 18  1  0
 17 19  1  1
 17 20  1  0
 18 20  1  0
M  CHG  1  15  -1
M  END
