ucsf422-ucsf396
     RDKit          3D

 26 28  0  0  0  0  0  0  0  0999 V2000
    0.5190   10.7410   -2.9390 O   0  0  0  0  0  0  0  0  0  0  0  0
    0.3890   12.0460   -2.9370 C   0  0  1  0  0  0  0  0  0  0  0  0
    1.1880   12.4190   -1.8480 O   0  0  0  0  0  0  0  0  0  0  0  0
    0.9380   12.7230   -4.1950 C   0  0  0  0  0  0  0  0  0  0  0  0
    0.6820   14.2350   -4.0690 C   0  0  1  0  0  0  0  0  0  0  0  0
    1.9490   15.0320   -3.9430 C   0  0  0  0  0  0  0  0  0  0  0  0
   -0.0590   14.9000   -5.2090 C   0  0  2  0  0  0  0  0  0  0  0  0
    1.5360   16.4010   -4.2560 N   0  0  0  0  0  0  0  0  0  0  0  0
    0.4930   16.3320   -5.2750 C   0  0  2  0  0  0  0  0  0  0  0  0
   -1.5680   14.7510   -5.0500 C   0  0  0  0  0  0  0  0  0  0  0  0
   -0.4820   17.4910   -5.1030 C   0  0  0  0  0  0  0  0  0  0  0  0
   -2.5090   15.8540   -5.5410 C   0  0  1  0  0  0  0  0  0  0  0  0
   -3.6790   15.9350   -4.7440 O   0  0  0  0  0  0  0  0  0  0  0  0
   -1.9010   17.2730   -5.6340 C   0  0  0  0  0  0  0  0  0  0  0  0
   -4.1050   14.6930   -4.1710 C   0  0  0  0  0  0  0  0  0  0  0  0
   -4.0670   14.8340   -2.6490 C   0  0  0  0  0  0  0  0  0  0  0  0
   -2.6710   14.6240   -2.0670 C   0  0  0  0  0  0  0  0  0  0  0  0
   -2.7050   14.5820   -0.6140 N   0  0  0  0  0  0  0  0  0  0  0  0
   -3.7830   15.1440    0.1740 C   0  0  2  0  0  0  0  0  0  0  0  0
   -3.3090   15.1740    1.5200 O   0  0  0  0  0  0  0  0  0  0  0  0
   -5.2170   14.5680    0.0620 C   0  0  2  0  0  0  0  0  0  0  0  0
   -6.0470   15.4140   -0.9360 C   0  0  0  0  0  0  0  0  0  0  0  0
   -5.9120   14.3860    1.4210 C   0  0  0  0  0  0  0  0  0  0  0  0
   -7.4970   15.1870   -0.9150 N   0  0  0  0  0  0  0  0  0  0  0  0
   -7.4300   14.3830    1.4290 C   0  0  0  0  0  0  0  0  0  0  0  0
   -7.9700   14.1920    0.0300 C   0  0  0  0  0  0  0  0  0  0  0  0
  2  1  1  6
  2  3  1  0
  2  4  1  0
  5  4  1  6
  5  6  1  0
  5  7  1  0
  6  8  1  0
  7  9  1  0
  8  9  1  0
  7 10  1  1
  9 11  1  1
 10 12  1  0
 12 13  1  1
 11 14  1  0
 12 14  1  0
 13 15  1  0
 15 16  1  0
 16 17  1  0
 17 18  1  0
 18 19  1  0
 19 20  1  1
 19 21  1  0
 21 22  1  6
 21 23  1  0
 22 24  1  0
 23 25  1  0
 24 26  1  0
 25 26  1  0
M  CHG  1   1  -1
M  END
