ucsf336-ucsf241
     RDKit          3D

 22 24  0  0  0  0  0  0  0  0999 V2000
    2.3720   12.6590   -3.6060 O   0  0  0  0  0  0  0  0  0  0  0  0
    1.2240   13.2340   -3.8630 C   0  0  2  0  0  0  0  0  0  0  0  0
    0.9330   14.1570   -2.7750 O   0  0  0  0  0  0  0  0  0  0  0  0
    0.0600   12.1330   -4.0340 C   0  0  2  0  0  0  0  0  0  0  0  0
    0.3180   11.0420   -3.1500 O   0  0  0  0  0  0  0  0  0  0  0  0
    0.0100   11.6750   -5.4040 N   0  0  0  0  0  0  0  0  0  0  0  0
    1.0790   13.6800   -1.4420 C   0  0  0  0  0  0  0  0  0  0  0  0
   -0.6620   10.4840   -5.8430 C   0  0  0  0  0  0  0  0  0  0  0  0
   -0.2500   13.8810   -0.6780 C   0  0  2  0  0  0  0  0  0  0  0  0
   -0.4570   10.0990   -7.3170 C   0  0  0  0  0  0  0  0  0  0  0  0
   -2.1240   10.3550   -5.3920 C   0  0  0  0  0  0  0  0  0  0  0  0
   -1.2070   14.8250   -1.4090 C   0  0  0  0  0  0  0  0  0  0  0  0
   -0.1190   14.2660    0.8350 C   0  0  0  0  0  0  0  0  0  0  0  0
   -1.1600    8.8190   -7.7380 C   0  0  0  0  0  0  0  0  0  0  0  0
   -2.8280    9.0870   -5.8450 C   0  0  0  0  0  0  0  0  0  0  0  0
   -2.5140   14.6160   -0.6780 C   0  0  2  0  0  0  0  0  0  0  0  0
   -1.4210   14.4220    1.5280 N   0  0  0  0  0  0  0  0  0  0  0  0
   -2.6310    8.8120   -7.3310 C   0  0  0  0  0  0  0  0  0  0  0  0
   -3.7270   15.3920   -1.1270 C   0  0  0  0  0  0  0  0  0  0  0  0
   -2.3370   15.1480    0.7190 C   0  0  2  0  0  0  0  0  0  0  0  0
   -4.5170   15.5420    0.1770 C   0  0  0  0  0  0  0  0  0  0  0  0
   -3.6710   14.9740    1.2300 N   0  0  0  0  0  0  0  0  0  0  0  0
  2  1  1  1
  2  3  1  0
  2  4  1  0
  4  5  1  1
  4  6  1  0
  3  7  1  0
  6  8  1  0
  9  7  1  6
  8 10  1  0
  8 11  1  0
  9 12  1  0
  9 13  1  0
 10 14  1  0
 11 15  1  0
 16 12  1  6
 13 17  1  0
 14 18  1  0
 15 18  1  0
 16 19  1  0
 16 20  1  0
 20 17  1  1
 19 21  1  0
 20 22  1  0
 21 22  1  0
M  CHG  1   1  -1
M  END
