ucsf039-ucsf520
     RDKit          3D

 17 19  0  0  0  0  0  0  0  0999 V2000
   -4.4030   15.4020    1.0730 N   0  0  0  0  0  0  0  0  0  0  0  0
   -3.5500   14.8470    0.0350 C   0  0  2  0  0  0  0  0  0  0  0  0
   -2.0850   15.2490    0.2240 C   0  0  2  0  0  0  0  0  0  0  0  0
   -4.0210   15.3960   -1.2310 N   0  0  0  0  0  0  0  0  0  0  0  0
   -3.1610   15.0450   -2.3920 C   0  0  0  0  0  0  0  0  0  0  0  0
   -1.3280   14.6680   -0.9300 C   0  0  1  0  0  0  0  0  0  0  0  0
   -1.3720   14.6660    1.3560 N   0  0  0  0  0  0  0  0  0  0  0  0
   -1.7210   15.2520   -2.1950 N   0  0  0  0  0  0  0  0  0  0  0  0
    0.0510   14.8510   -0.5480 N   0  0  0  0  0  0  0  0  0  0  0  0
   -0.0020   14.5710    0.8850 C   0  0  0  0  0  0  0  0  0  0  0  0
   -0.8720   14.7440   -3.3040 C   0  0  0  0  0  0  0  0  0  0  0  0
   -0.4050   15.7400   -4.4190 C   0  0  2  0  0  0  0  0  0  0  0  0
    0.7980   16.5880   -4.0120 C   0  0  0  0  0  0  0  0  0  0  0  0
   -1.4630   16.6510   -4.9240 N   0  0  0  0  0  0  0  0  0  0  0  0
   -0.8980   17.9750   -5.2300 C   0  0  1  0  0  0  0  0  0  0  0  0
    0.8890   17.7960   -5.3470 S   0  0  0  0  0  0  0  0  0  0  0  0
   -1.4700   18.5380   -6.5170 C   0  0  0  0  0  0  0  0  0  0  0  0
  2  1  1  1
  2  3  1  0
  2  4  1  0
  4  5  1  0
  3  6  1  0
  3  7  1  1
  5  8  1  0
  6  8  1  0
  6  9  1  1
  7 10  1  0
  9 10  1  0
  8 11  1  0
 12 11  1  1
 12 13  1  0
 12 14  1  0
 14 15  1  0
 13 16  1  0
 15 16  1  0
 15 17  1  6
M  END
