ucsf380-ucsf110
     RDKit          3D

 22 24  0  0  0  0  0  0  0  0999 V2000
    1.0470   14.6210   -2.2000 O   0  0  0  0  0  0  0  0  0  0  0  0
    0.1750   13.7260   -1.7830 C   0  0  2  0  0  0  0  0  0  0  0  0
    0.7890   12.5520   -2.2550 O   0  0  0  0  0  0  0  0  0  0  0  0
   -1.2370   13.9610   -2.4230 C   0  0  2  0  0  0  0  0  0  0  0  0
   -2.5070   14.1310   -1.4810 C   0  0  1  0  0  0  0  0  0  0  0  0
   -1.6490   12.9340   -3.5470 C   0  0  0  0  0  0  0  0  0  0  0  0
   -2.3290   15.0530   -0.2470 C   0  0  1  0  0  0  0  0  0  0  0  0
   -3.6240   14.7710   -2.4310 C   0  0  0  0  0  0  0  0  0  0  0  0
   -2.3830   11.6780   -3.0750 C   0  0  0  0  0  0  0  0  0  0  0  0
   -0.5320   12.6160   -4.5460 C   0  0  0  0  0  0  0  0  0  0  0  0
   -3.4520   16.0960   -0.3450 C   0  0  0  0  0  0  0  0  0  0  0  0
   -4.9990   15.0480   -1.8440 C   0  0  0  0  0  0  0  0  0  0  0  0
   -2.9470   10.9350   -4.2830 C   0  0  0  0  0  0  0  0  0  0  0  0
   -1.0870   11.9000   -5.7710 C   0  0  0  0  0  0  0  0  0  0  0  0
   -2.5730   14.7340    1.2180 C   0  0  1  0  0  0  0  0  0  0  0  0
   -0.9770   15.7410   -0.4380 C   0  0  0  0  0  0  0  0  0  0  0  0
   -3.7750   14.1950    1.7570 N   0  0  0  0  0  0  0  0  0  0  0  0
   -4.8800   15.6630   -0.4950 C   0  0  0  0  0  0  0  0  0  0  0  0
   -1.9160   10.6750   -5.3880 C   0  0  0  0  0  0  0  0  0  0  0  0
   -1.5150   13.9500    1.7540 N   0  0  0  0  0  0  0  0  0  0  0  0
   -0.1030   15.6110    0.7080 N   0  0  0  0  0  0  0  0  0  0  0  0
   -0.1850   14.3090    1.3310 C   0  0  0  0  0  0  0  0  0  0  0  0
  2  1  1  6
  2  3  1  0
  2  4  1  0
  4  5  1  0
  4  6  1  6
  5  7  1  0
  5  8  1  6
  6  9  1  0
  6 10  1  0
  7 11  1  6
  8 12  1  0
  9 13  1  0
 10 14  1  0
  7 15  1  0
  7 16  1  0
 15 17  1  6
 11 18  1  0
 12 18  1  0
 13 19  1  0
 14 19  1  0
 15 20  1  0
 16 21  1  0
 20 22  1  0
 21 22  1  0
M  CHG  1   1  -1
M  END
