ucsf378-ucsf017
     RDKit          3D

 29 33  0  0  0  0  0  0  0  0999 V2000
   -2.1540   14.9570   -5.3730 Cl  0  0  0  0  0  0  0  0  0  0  0  0
   -0.4230   15.0060   -4.8230 C   0  0  1  0  0  0  0  0  0  0  0  0
    0.5550   13.7980   -5.0190 C   0  0  1  0  0  0  0  0  0  0  0  0
    0.1980   16.3260   -5.1230 C   0  0  0  0  0  0  0  0  0  0  0  0
    1.7650   13.9390   -4.1480 C   0  0  1  0  0  0  0  0  0  0  0  0
    1.1130   16.5080   -3.9720 C   0  0  0  0  0  0  0  0  0  0  0  0
   -0.1410   12.6720   -4.4040 C   0  0  2  0  0  0  0  0  0  0  0  0
    3.1250   12.9350   -4.6680 Cl  0  0  0  0  0  0  0  0  0  0  0  0
    2.1400   15.3570   -3.8630 C   0  0  0  0  0  0  0  0  0  0  0  0
   -1.5270   13.0220   -4.4930 C   0  0  1  0  0  0  0  0  0  0  0  0
    0.4570   11.9290   -3.2120 C   0  0  1  0  0  0  0  0  0  0  0  0
   -2.6730   12.1360   -4.7380 C   0  0  0  0  0  0  0  0  0  0  0  0
   -1.8180   13.8530   -3.2400 C   0  0  1  0  0  0  0  0  0  0  0  0
    0.3220   13.0310   -2.1520 C   0  0  0  0  0  0  0  0  0  0  0  0
   -0.2190   10.7470   -2.5740 C   0  0  2  0  0  0  0  0  0  0  0  0
   -3.6940   13.1260   -4.5460 O   0  0  0  0  0  0  0  0  0  0  0  0
   -3.3490   13.7380   -3.2760 C   0  0  0  0  0  0  0  0  0  0  0  0
   -1.1010   13.4400   -1.9980 N   0  0  0  0  0  0  0  0  0  0  0  0
   -0.1940   10.9120   -1.2870 O   0  0  0  0  0  0  0  0  0  0  0  0
    0.6310    9.7010   -2.5190 O   0  0  0  0  0  0  0  0  0  0  0  0
   -1.2950   14.2690   -0.8350 C   0  0  2  0  0  0  0  0  0  0  0  0
   -0.1610   13.9620    0.0500 N   0  0  0  0  0  0  0  0  0  0  0  0
   -2.6800   14.1280   -0.1810 C   0  0  1  0  0  0  0  0  0  0  0  0
   -0.3830   14.3080    1.4340 C   0  0  0  0  0  0  0  0  0  0  0  0
   -2.6790   14.7830    1.1750 C   0  0  1  0  0  0  0  0  0  0  0  0
   -3.7870   14.8690   -0.9480 C   0  0  0  0  0  0  0  0  0  0  0  0
   -1.4050   15.3090    1.4920 N   0  0  0  0  0  0  0  0  0  0  0  0
   -3.6700   15.8410    1.1780 N   0  0  0  0  0  0  0  0  0  0  0  0
   -4.6240   15.5190    0.1290 C   0  0  0  0  0  0  0  0  0  0  0  0
  2  1  1  6
  3  2  1  1
  2  4  1  0
  3  5  1  0
  4  6  1  0
  3  7  1  0
  5  8  1  6
  5  9  1  0
  6  9  1  0
  7 10  1  0
  7 11  1  1
 10 12  1  1
 10 13  1  0
 11 14  1  1
 11 15  1  0
 12 16  1  0
 13 17  1  1
 16 17  1  0
 13 18  1  0
 14 18  1  0
 15 19  1  1
 15 20  1  0
 21 18  1  6
 21 22  1  0
 21 23  1  0
 22 24  1  0
 23 25  1  0
 23 26  1  6
 24 27  1  0
 25 27  1  6
 25 28  1  0
 26 29  1  0
 28 29  1  0
M  CHG  1  19  -1
M  END
