ucsf339
     RDKit          3D

 15 16  0  0  0  0  0  0  0  0999 V2000
    1.3670   14.4570   -3.3900 O   0  0  0  0  0  0  0  0  0  0  0  0
    0.5420   14.1640   -2.5040 C   0  0  0  0  0  0  0  0  0  0  0  0
    0.9170   13.5090   -1.4920 O   0  0  0  0  0  0  0  0  0  0  0  0
   -0.9340   14.5300   -2.6450 C   0  0  1  0  0  0  0  0  0  0  0  0
   -1.4830   14.8610   -3.8650 C   0  0  0  0  0  0  0  0  0  0  0  0
   -2.7730   15.1330   -3.9900 N   0  0  0  0  0  0  0  0  0  0  0  0
   -3.5790   15.0830   -2.9510 C   0  0  0  0  0  0  0  0  0  0  0  0
   -3.1150   14.7430   -1.6860 C   0  0  0  0  0  0  0  0  0  0  0  0
   -1.7660   14.4680   -1.5250 C   0  0  0  0  0  0  0  0  0  0  0  0
   -4.0880   14.6970   -0.4820 C   0  0  2  0  0  0  0  0  0  0  0  0
   -3.7040   15.1760    0.7370 C   0  0  0  0  0  0  0  0  0  0  0  0
   -4.5890   15.1230    1.8040 C   0  0  0  0  0  0  0  0  0  0  0  0
   -5.8370   14.5500    1.6620 C   0  0  0  0  0  0  0  0  0  0  0  0
   -6.2230   14.0290    0.4540 C   0  0  0  0  0  0  0  0  0  0  0  0
   -5.3540   14.1080   -0.6170 C   0  0  0  0  0  0  0  0  0  0  0  0
  1  2  1  0
  2  3  1  0
  4  2  1  6
  4  5  1  0
  5  6  1  0
  6  7  1  0
  7  8  1  0
  4  9  1  0
  8  9  1  0
 10  8  1  1
 10 11  1  0
 11 12  1  0
 12 13  1  0
 13 14  1  0
 10 15  1  0
 14 15  1  0
M  CHG  1   1  -1
M  END
