ucsf224-ucsf030
     RDKit          3D

 25 27  0  0  0  0  0  0  0  0999 V2000
   -1.1210   18.2120   -5.0980 Cl  0  0  0  0  0  0  0  0  0  0  0  0
   -0.7260   16.4980   -4.5690 C   0  0  2  0  0  0  0  0  0  0  0  0
   -1.7850   16.0600   -3.5010 C   0  0  1  0  0  0  0  0  0  0  0  0
    0.7690   16.4290   -4.2870 C   0  0  0  0  0  0  0  0  0  0  0  0
   -3.1830   15.4370   -4.5230 Cl  0  0  0  0  0  0  0  0  0  0  0  0
   -1.4930   15.2320   -2.0770 C   0  0  2  0  0  0  0  0  0  0  0  0
    1.2220   15.0210   -3.8810 C   0  0  0  0  0  0  0  0  0  0  0  0
    0.4210   13.7400   -4.3320 C   0  0  1  0  0  0  0  0  0  0  0  0
   -2.7070   15.4240   -1.0190 C   0  0  1  0  0  0  0  0  0  0  0  0
   -0.4220   15.7690   -1.2030 N   0  0  0  0  0  0  0  0  0  0  0  0
   -1.1120   13.8370   -2.3060 N   0  0  0  0  0  0  0  0  0  0  0  0
    1.3710   12.5260   -4.4690 C   0  0  0  0  0  0  0  0  0  0  0  0
   -4.3620   14.9870   -1.6630 Cl  0  0  0  0  0  0  0  0  0  0  0  0
   -2.6000   14.6650    0.3490 C   0  0  2  0  0  0  0  0  0  0  0  0
   -0.3620   15.5960    0.2670 C   0  0  0  0  0  0  0  0  0  0  0  0
   -0.1000   13.3860   -1.3890 C   0  0  0  0  0  0  0  0  0  0  0  0
   -0.9190   13.2730   -3.6270 C   0  0  1  0  0  0  0  0  0  0  0  0
   -0.0340   13.9610   -5.7810 C   0  0  0  0  0  0  0  0  0  0  0  0
    1.6200   11.6770   -3.2300 C   0  0  2  0  0  0  0  0  0  0  0  0
   -3.4460   15.2740    1.3880 N   0  0  0  0  0  0  0  0  0  0  0  0
   -1.2810   14.6500    0.9080 N   0  0  0  0  0  0  0  0  0  0  0  0
   -2.0420   13.3750   -4.6780 C   0  0  0  0  0  0  0  0  0  0  0  0
   -1.3180   13.1600   -5.9790 C   0  0  0  0  0  0  0  0  0  0  0  0
    0.5490   11.0230   -2.8280 O   0  0  0  0  0  0  0  0  0  0  0  0
    1.9250   12.5820   -2.1720 O   0  0  0  0  0  0  0  0  0  0  0  0
  2  1  1  1
  2  3  1  0
  2  4  1  0
  3  5  1  6
  3  6  1  0
  4  7  1  0
  7  8  1  0
  6  9  1  0
  6 10  1  1
  6 11  1  0
  8 12  1  6
  9 13  1  6
  9 14  1  0
 10 15  1  0
 11 16  1  0
  8 17  1  0
 11 17  1  0
  8 18  1  0
 12 19  1  0
 14 20  1  1
 14 21  1  0
 15 21  1  0
 17 22  1  6
 18 23  1  0
 22 23  1  0
 19 24  1  1
 19 25  1  0
M  CHG  1  24  -1
M  END
