ucsf516-ucsf173
     RDKit          3D

 26 30  0  0  0  0  0  0  0  0999 V2000
    0.6010   12.8950   -1.0160 O   0  0  0  0  0  0  0  0  0  0  0  0
    0.9580   13.5510   -2.1100 C   0  0  1  0  0  0  0  0  0  0  0  0
    1.6320   12.4880   -2.7570 O   0  0  0  0  0  0  0  0  0  0  0  0
   -0.2800   13.9870   -3.0260 C   0  0  2  0  0  0  0  0  0  0  0  0
   -0.2170   12.5640   -3.6220 C   0  0  0  0  0  0  0  0  0  0  0  0
   -0.3640   15.3050   -4.0120 C   0  0  0  0  0  0  0  0  0  0  0  0
   -1.5950   14.0990   -2.2860 N   0  0  0  0  0  0  0  0  0  0  0  0
    0.6380   12.0580   -4.8000 C   0  0  0  0  0  0  0  0  0  0  0  0
   -1.3210   11.6170   -4.0870 C   0  0  0  0  0  0  0  0  0  0  0  0
   -2.4360   14.9040   -3.1260 C   0  0  0  0  0  0  0  0  0  0  0  0
   -1.4780   16.0310   -3.2720 C   0  0  0  0  0  0  0  0  0  0  0  0
   -1.3770   14.8060   -1.0520 C   0  0  2  0  0  0  0  0  0  0  0  0
   -1.0500   15.4500   -5.3200 C   0  0  0  0  0  0  0  0  0  0  0  0
    0.8460   16.2660   -4.1870 C   0  0  0  0  0  0  0  0  0  0  0  0
   -0.1270   10.7400   -4.5200 C   0  0  0  0  0  0  0  0  0  0  0  0
   -0.5380   13.9830   -0.1640 N   0  0  0  0  0  0  0  0  0  0  0  0
   -2.6730   15.3720   -0.4810 C   0  0  2  0  0  0  0  0  0  0  0  0
   -1.6340   16.8680   -5.5490 C   0  0  0  0  0  0  0  0  0  0  0  0
    0.4990   17.7310   -4.4700 C   0  0  0  0  0  0  0  0  0  0  0  0
   -0.5370   14.3040    1.2160 C   0  0  0  0  0  0  0  0  0  0  0  0
   -2.5690   15.4630    1.0010 C   0  0  2  0  0  0  0  0  0  0  0  0
   -3.9870   14.6570   -0.7000 C   0  0  0  0  0  0  0  0  0  0  0  0
   -0.5250   17.9170   -5.5860 C   0  0  0  0  0  0  0  0  0  0  0  0
   -1.8920   14.3910    1.6600 N   0  0  0  0  0  0  0  0  0  0  0  0
   -3.9360   15.5640    1.5100 N   0  0  0  0  0  0  0  0  0  0  0  0
   -4.8360   15.2510    0.3990 C   0  0  0  0  0  0  0  0  0  0  0  0
  2  1  1  1
  2  3  1  0
  2  4  1  0
  4  5  1  6
  4  6  1  0
  4  7  1  0
  5  8  1  0
  5  9  1  0
  7 10  1  0
  6 11  1  0
 10 11  1  0
 12  7  1  6
  6 13  1  0
  6 14  1  0
  8 15  1  0
  9 15  1  0
 12 16  1  0
 12 17  1  0
 13 18  1  0
 14 19  1  0
 16 20  1  0
 17 21  1  0
 17 22  1  1
 18 23  1  0
 19 23  1  0
 20 24  1  0
 21 24  1  1
 21 25  1  0
 22 26  1  0
 25 26  1  0
M  CHG  1   1  -1
M  END
