ucsf247-ucsf387
     RDKit          3D

 21 23  0  0  0  0  0  0  0  0999 V2000
    0.1620   13.0130   -1.1250 O   0  0  0  0  0  0  0  0  0  0  0  0
    0.0880   13.0790   -2.5400 C   0  0  0  0  0  0  0  0  0  0  0  0
    0.4880   14.3520   -3.0210 O   0  0  0  0  0  0  0  0  0  0  0  0
   -1.3670   12.7370   -3.0100 C   0  0  0  0  0  0  0  0  0  0  0  0
    0.9050   12.0670   -3.0960 O   0  0  0  0  0  0  0  0  0  0  0  0
   -2.5580   13.3550   -2.3740 N   0  0  0  0  0  0  0  0  0  0  0  0
   -0.0120   14.7080   -4.2970 C   0  0  1  0  0  0  0  0  0  0  0  0
   -2.4240   14.7790   -2.2500 C   0  0  1  0  0  0  0  0  0  0  0  0
   -1.4520   15.3570   -4.5210 C   0  0  1  0  0  0  0  0  0  0  0  0
    0.9830   15.7330   -4.8480 C   0  0  0  0  0  0  0  0  0  0  0  0
   -2.4800   15.4910   -3.4910 O   0  0  0  0  0  0  0  0  0  0  0  0
   -3.5330   15.2660   -1.2470 C   0  0  1  0  0  0  0  0  0  0  0  0
   -1.1640   16.8090   -4.9580 C   0  0  0  0  0  0  0  0  0  0  0  0
    0.2950   17.0530   -4.6230 C   0  0  2  0  0  0  0  0  0  0  0  0
    0.9670   18.3470   -5.6210 Cl  0  0  0  0  0  0  0  0  0  0  0  0
   -4.9500   14.6950   -1.5040 C   0  0  0  0  0  0  0  0  0  0  0  0
   -3.1020   14.9450    0.2020 C   0  0  0  0  0  0  0  0  0  0  0  0
   -5.9350   15.1970   -0.4450 C   0  0  1  0  0  0  0  0  0  0  0  0
   -4.0890   15.4730    1.2250 C   0  0  0  0  0  0  0  0  0  0  0  0
   -7.2440   14.6720   -0.6620 O   0  0  0  0  0  0  0  0  0  0  0  0
   -5.4550   14.8530    0.9660 C   0  0  0  0  0  0  0  0  0  0  0  0
  2  1  1  0
  2  3  1  0
  2  4  1  0
  2  5  1  0
  4  6  1  0
  3  7  1  0
  8  6  1  6
  7  9  1  0
  7 10  1  1
  8 11  1  0
  9 11  1  0
  8 12  1  0
  9 13  1  1
 10 14  1  0
 13 14  1  0
 14 15  1  6
 12 16  1  6
 12 17  1  0
 16 18  1  0
 17 19  1  0
 18 20  1  6
 18 21  1  0
 19 21  1  0
M  CHG  2   1  -1   5  -1
M  END
