ucsf387-ucsf190
     RDKit          3D

 15 16  0  0  0  0  0  0  0  0999 V2000
    0.9350   18.2680   -5.6230 Cl  0  0  0  0  0  0  0  0  0  0  0  0
    0.1430   16.9910   -4.6560 C   0  0  1  0  0  0  0  0  0  0  0  0
   -1.3160   16.7580   -5.1840 C   0  0  0  0  0  0  0  0  0  0  0  0
    1.0910   15.7750   -4.5080 C   0  0  0  0  0  0  0  0  0  0  0  0
    0.3210   14.5420   -4.0240 C   0  0  2  0  0  0  0  0  0  0  0  0
   -1.8680   15.3290   -4.9650 C   0  0  2  0  0  0  0  0  0  0  0  0
   -2.7020   15.2260   -3.3960 Cl  0  0  0  0  0  0  0  0  0  0  0  0
    1.1440   13.2540   -3.7220 C   0  0  0  0  0  0  0  0  0  0  0  0
   -0.7250   14.3300   -5.1160 C   0  0  2  0  0  0  0  0  0  0  0  0
   -2.9820   14.7480   -5.8400 C   0  0  0  0  0  0  0  0  0  0  0  0
    0.3610   12.4160   -2.6780 C   0  0  1  0  0  0  0  0  0  0  0  0
   -2.8700   13.2450   -5.5470 C   0  0  0  0  0  0  0  0  0  0  0  0
   -1.3870   12.9550   -5.2200 C   0  0  0  0  0  0  0  0  0  0  0  0
    0.6800   11.1500   -2.7250 O   0  0  0  0  0  0  0  0  0  0  0  0
    0.7310   12.7460   -1.3520 O   0  0  0  0  0  0  0  0  0  0  0  0
  2  1  1  6
  2  3  1  0
  2  4  1  0
  4  5  1  0
  3  6  1  0
  6  7  1  1
  5  8  1  6
  5  9  1  0
  6  9  1  0
  6 10  1  0
  8 11  1  0
 10 12  1  0
  9 13  1  1
 12 13  1  0
 11 14  1  6
 11 15  1  0
M  CHG  1  14  -1
M  END
