ucsf124-ucsf412
     RDKit          3D

 29 32  0  0  0  0  0  0  0  0999 V2000
    0.6940   11.0840   -2.3950 O   0  0  0  0  0  0  0  0  0  0  0  0
    0.6580   12.3250   -2.8380 C   0  0  1  0  0  0  0  0  0  0  0  0
    1.7760   12.9100   -2.2050 O   0  0  0  0  0  0  0  0  0  0  0  0
    0.7450   12.4720   -4.4030 C   0  0  0  0  0  0  0  0  0  0  0  0
    0.1880   11.4700   -5.3430 N   0  0  0  0  0  0  0  0  0  0  0  0
   -1.2550   11.3280   -5.2970 C   0  0  2  0  0  0  0  0  0  0  0  0
    0.4550   11.7520   -6.7240 C   0  0  1  0  0  0  0  0  0  0  0  0
   -1.6480   10.6490   -4.1050 O   0  0  0  0  0  0  0  0  0  0  0  0
    1.8170   11.6150   -7.0020 O   0  0  0  0  0  0  0  0  0  0  0  0
   -1.5760   10.4900   -6.5690 C   0  0  1  0  0  0  0  0  0  0  0  0
   -0.3910   10.7440   -7.5140 C   0  0  2  0  0  0  0  0  0  0  0  0
   -2.8490   11.1700   -3.5310 C   0  0  0  0  0  0  0  0  0  0  0  0
   -1.9280    9.0080   -6.3850 C   0  0  0  0  0  0  0  0  0  0  0  0
    0.2360    9.4200   -7.9770 C   0  0  0  0  0  0  0  0  0  0  0  0
   -2.6840   12.6710   -3.3260 C   0  0  0  0  0  0  0  0  0  0  0  0
   -2.0740    8.3150   -7.7390 C   0  0  0  0  0  0  0  0  0  0  0  0
   -0.8290    8.5140   -8.6110 C   0  0  0  0  0  0  0  0  0  0  0  0
   -2.8910   13.1560   -1.8880 C   0  0  0  0  0  0  0  0  0  0  0  0
   -3.0890   14.6840   -1.7530 C   0  0  2  0  0  0  0  0  0  0  0  0
   -3.2620   15.1040   -0.2920 C   0  0  0  0  0  0  0  0  0  0  0  0
   -4.3290   15.1430   -2.5330 C   0  0  0  0  0  0  0  0  0  0  0  0
   -4.4220   14.4200    0.3990 C   0  0  2  0  0  0  0  0  0  0  0  0
   -5.5130   15.4610   -1.6110 C   0  0  0  0  0  0  0  0  0  0  0  0
   -5.6510   14.3860   -0.5220 C   0  0  2  0  0  0  0  0  0  0  0  0
   -4.6720   15.1150    1.7140 C   0  0  0  0  0  0  0  0  0  0  0  0
   -7.0350   14.3510    0.1910 C   0  0  2  0  0  0  0  0  0  0  0  0
   -5.9240   14.5890    2.3940 C   0  0  0  0  0  0  0  0  0  0  0  0
   -7.9780   15.1430   -0.4970 O   0  0  0  0  0  0  0  0  0  0  0  0
   -7.1260   14.7400    1.5910 N   0  0  0  0  0  0  0  0  0  0  0  0
  2  1  1  6
  2  3  1  0
  2  4  1  0
  4  5  1  0
  5  6  1  0
  5  7  1  0
  6  8  1  1
  7  9  1  1
  6 10  1  0
  7 11  1  0
 10 11  1  0
  8 12  1  0
 10 13  1  1
 11 14  1  1
 12 15  1  0
 13 16  1  0
 14 17  1  0
 16 17  1  0
 15 18  1  0
 19 18  1  1
 19 20  1  0
 19 21  1  0
 22 20  1  6
 21 23  1  0
 22 24  1  0
 24 23  1  6
 22 25  1  0
 24 26  1  0
 25 27  1  0
 26 28  1  6
 26 29  1  0
 27 29  1  0
M  CHG  1   1  -1
M  END
