ucsf006-ucsf371
     RDKit          3D

 22 24  0  0  0  0  0  0  0  0999 V2000
   -1.8130   12.9850   -3.3500 C   0  0  0  0  0  0  0  0  0  0  0  0
   -1.6920   14.3900   -2.7380 C   0  0  2  0  0  0  0  0  0  0  0  0
   -0.3850   15.1020   -3.3800 C   0  0  0  0  0  0  0  0  0  0  0  0
   -1.4020   14.2330   -1.1570 C   0  0  2  0  0  0  0  0  0  0  0  0
   -3.0050   15.1900   -3.0540 C   0  0  1  0  0  0  0  0  0  0  0  0
    0.4570   14.4150   -4.4830 C   0  0  0  0  0  0  0  0  0  0  0  0
   -2.5320   14.0100   -0.0940 C   0  0  1  0  0  0  0  0  0  0  0  0
   -0.2380   14.9460   -0.6000 N   0  0  0  0  0  0  0  0  0  0  0  0
   -4.1510   14.4320   -3.7760 C   0  0  0  0  0  0  0  0  0  0  0  0
   -3.9140   15.7990   -1.5930 S   0  0  0  0  0  0  0  0  0  0  0  0
    0.6890   12.9090   -4.2130 C   0  0  1  0  0  0  0  0  0  0  0  0
   -2.2230   14.1940    1.3760 C   0  0  1  0  0  0  0  0  0  0  0  0
   -0.2080   15.3490    0.7730 C   0  0  0  0  0  0  0  0  0  0  0  0
   -3.9430   14.5180   -0.1570 C   0  0  0  0  0  0  0  0  0  0  0  0
   -5.5130   15.1210   -2.0120 C   0  0  1  0  0  0  0  0  0  0  0  0
   -5.1820   13.9720   -2.8220 N   0  0  0  0  0  0  0  0  0  0  0  0
    0.1700   12.1650   -5.3010 O   0  0  0  0  0  0  0  0  0  0  0  0
    1.9710   12.6380   -4.2760 O   0  0  0  0  0  0  0  0  0  0  0  0
   -6.3240   14.7660   -0.7720 C   0  0  0  0  0  0  0  0  0  0  0  0
   -0.8550   14.4460    1.6740 N   0  0  0  0  0  0  0  0  0  0  0  0
   -3.0580   15.2490    1.8800 N   0  0  0  0  0  0  0  0  0  0  0  0
   -3.9570   15.6700    0.8390 C   0  0  0  0  0  0  0  0  0  0  0  0
  2  1  1  6
  2  3  1  0
  2  4  1  0
  2  5  1  0
  3  6  1  0
  4  7  1  0
  4  8  1  1
  5  9  1  1
  5 10  1  0
  6 11  1  0
  7 12  1  0
  8 13  1  0
  7 14  1  6
 10 15  1  0
  9 16  1  0
 15 16  1  0
 11 17  1  6
 11 18  1  0
 15 19  1  1
 12 20  1  6
 13 20  1  0
 12 21  1  0
 14 22  1  0
 21 22  1  0
M  CHG  1  18  -1
M  END
