ucsf274-ucsf392
     RDKit          3D

 27 29  0  0  0  0  0  0  0  0999 V2000
    0.3160   10.6380   -2.3850 O   0  0  0  0  0  0  0  0  0  0  0  0
    0.9090   11.8250   -2.5450 C   0  0  2  0  0  0  0  0  0  0  0  0
    0.8550   12.5630   -1.3260 O   0  0  0  0  0  0  0  0  0  0  0  0
    0.1330   12.7730   -3.4870 C   0  0  0  0  0  0  0  0  0  0  0  0
    0.4540   12.6760   -4.9930 C   0  0  0  0  0  0  0  0  0  0  0  0
    1.6160   13.7610   -1.4740 C   0  0  0  0  0  0  0  0  0  0  0  0
    1.0350   14.8930   -0.6530 C   0  0  0  0  0  0  0  0  0  0  0  0
   -0.7670   12.2040   -5.7940 C   0  0  2  0  0  0  0  0  0  0  0  0
    0.1080   14.5650    0.5150 C   0  0  0  0  0  0  0  0  0  0  0  0
   -1.7680   11.4850   -4.8300 C   0  0  1  0  0  0  0  0  0  0  0  0
   -0.3880   11.4160   -6.9910 N   0  0  0  0  0  0  0  0  0  0  0  0
   -2.5990   12.4220   -4.1740 O   0  0  0  0  0  0  0  0  0  0  0  0
   -2.6710   10.5910   -5.5220 N   0  0  0  0  0  0  0  0  0  0  0  0
   -0.5900    9.9680   -6.8250 C   0  0  1  0  0  0  0  0  0  0  0  0
   -1.2810   15.0990    0.2360 C   0  0  2  0  0  0  0  0  0  0  0  0
   -1.8820    9.4890   -6.0920 C   0  0  2  0  0  0  0  0  0  0  0  0
   -0.3780    9.2610   -8.1720 C   0  0  0  0  0  0  0  0  0  0  0  0
   -2.2020   14.7850    1.3080 N   0  0  0  0  0  0  0  0  0  0  0  0
   -1.6850   14.4560   -0.9980 N   0  0  0  0  0  0  0  0  0  0  0  0
   -0.6720    7.7620   -8.1250 C   0  0  0  0  0  0  0  0  0  0  0  0
   -2.7730    8.6470   -7.0160 C   0  0  0  0  0  0  0  0  0  0  0  0
   -3.5810   14.8140    0.8970 C   0  0  1  0  0  0  0  0  0  0  0  0
   -2.9280   14.9870   -1.5140 C   0  0  0  0  0  0  0  0  0  0  0  0
   -4.2990   15.4890    1.9450 N   0  0  0  0  0  0  0  0  0  0  0  0
   -2.0740    7.4370   -7.6260 C   0  0  0  0  0  0  0  0  0  0  0  0
   -3.8080   15.5440   -0.4120 C   0  0  1  0  0  0  0  0  0  0  0  0
   -5.2690   15.5940   -0.8500 C   0  0  0  0  0  0  0  0  0  0  0  0
  2  1  1  1
  2  3  1  0
  2  4  1  0
  4  5  1  0
  3  6  1  0
  6  7  1  0
  8  5  1  1
  7  9  1  0
  8 10  1  0
  8 11  1  0
 10 12  1  6
 10 13  1  0
 11 14  1  0
 15  9  1  1
 13 16  1  0
 14 16  1  0
 14 17  1  6
 15 18  1  0
 15 19  1  0
 17 20  1  0
 16 21  1  6
 18 22  1  0
 19 23  1  0
 22 24  1  1
 20 25  1  0
 21 25  1  0
 22 26  1  0
 23 26  1  0
 26 27  1  6
M  CHG  1   1  -1
M  END
