ucsf016-ucsf190
     RDKit          3D

 27 31  0  0  0  0  0  0  0  0999 V2000
    0.5780   10.1960   -2.5710 O   0  0  0  0  0  0  0  0  0  0  0  0
    0.1690   11.4250   -2.8040 C   0  0  1  0  0  0  0  0  0  0  0  0
    0.7660   12.0550   -1.6800 O   0  0  0  0  0  0  0  0  0  0  0  0
    0.7190   12.0940   -4.1360 C   0  0  0  0  0  0  0  0  0  0  0  0
    0.7230   13.6630   -4.1930 C   0  0  1  0  0  0  0  0  0  0  0  0
   -0.5100   14.5170   -4.6710 C   0  0  1  0  0  0  0  0  0  0  0  0
    0.9070   14.0900   -2.7770 C   0  0  0  0  0  0  0  0  0  0  0  0
    1.9590   14.2840   -4.7300 N   0  0  0  0  0  0  0  0  0  0  0  0
   -2.0110   14.3310   -4.4330 C   0  0  0  0  0  0  0  0  0  0  0  0
    0.0660   15.3010   -2.4950 C   0  0  0  0  0  0  0  0  0  0  0  0
   -0.0610   15.7470   -5.3880 C   0  0  0  0  0  0  0  0  0  0  0  0
    2.0640   15.6940   -4.2860 N   0  0  0  0  0  0  0  0  0  0  0  0
   -2.8190   13.1920   -5.0390 C   0  0  0  0  0  0  0  0  0  0  0  0
   -3.0250   14.5820   -5.5520 C   0  0  0  0  0  0  0  0  0  0  0  0
   -1.3070   14.9990   -2.1360 N   0  0  0  0  0  0  0  0  0  0  0  0
   -2.4050   14.8660   -3.1090 C   0  0  0  0  0  0  0  0  0  0  0  0
    0.8740   16.5270   -4.5260 C   0  0  1  0  0  0  0  0  0  0  0  0
    1.1640   17.7910   -5.0820 O   0  0  0  0  0  0  0  0  0  0  0  0
   -1.4390   14.1710   -0.9920 C   0  0  1  0  0  0  0  0  0  0  0  0
   -0.2080   14.4840   -0.2350 N   0  0  0  0  0  0  0  0  0  0  0  0
   -2.7780   14.2440   -0.2800 C   0  0  1  0  0  0  0  0  0  0  0  0
   -0.3540   14.4550    1.1790 C   0  0  0  0  0  0  0  0  0  0  0  0
   -2.7160   14.7580    1.1420 C   0  0  1  0  0  0  0  0  0  0  0  0
   -3.9240   14.9720   -0.9570 C   0  0  0  0  0  0  0  0  0  0  0  0
   -1.4550   15.3030    1.5000 N   0  0  0  0  0  0  0  0  0  0  0  0
   -3.6990   15.8230    1.2080 N   0  0  0  0  0  0  0  0  0  0  0  0
   -4.7060   15.5240    0.2040 C   0  0  0  0  0  0  0  0  0  0  0  0
  2  1  1  6
  2  3  1  0
  2  4  1  0
  5  4  1  1
  5  6  1  0
  5  7  1  0
  5  8  1  0
  6  9  1  0
  7 10  1  0
  6 11  1  1
  8 12  1  0
  9 13  1  0
  9 14  1  0
 13 14  1  0
 10 15  1  0
  9 16  1  0
 15 16  1  0
 11 17  1  0
 12 17  1  0
 17 18  1  6
 19 15  1  6
 19 20  1  0
 19 21  1  0
 20 22  1  0
 21 23  1  0
 21 24  1  6
 22 25  1  0
 23 25  1  6
 23 26  1  0
 24 27  1  0
 26 27  1  0
M  CHG  1   1  -1
M  END
