ucsf224-ucsf333
     RDKit          3D

 23 25  0  0  0  0  0  0  0  0999 V2000
   -1.5720   18.5990   -5.1910 Cl  0  0  0  0  0  0  0  0  0  0  0  0
   -0.7110   17.0380   -5.3750 C   0  0  2  0  0  0  0  0  0  0  0  0
   -1.6000   15.8390   -4.9250 C   0  0  1  0  0  0  0  0  0  0  0  0
    0.6570   17.0960   -4.6920 C   0  0  0  0  0  0  0  0  0  0  0  0
   -3.1570   15.7760   -5.8210 Cl  0  0  0  0  0  0  0  0  0  0  0  0
   -0.8380   14.4990   -5.0020 C   0  0  0  0  0  0  0  0  0  0  0  0
    1.3320   15.7690   -4.9410 C   0  0  0  0  0  0  0  0  0  0  0  0
    0.5040   14.7020   -4.2820 C   0  0  2  0  0  0  0  0  0  0  0  0
    1.2840   13.4850   -3.6620 C   0  0  2  0  0  0  0  0  0  0  0  0
    0.6490   12.0680   -3.5590 C   0  0  2  0  0  0  0  0  0  0  0  0
    1.2850   14.0190   -2.2380 C   0  0  0  0  0  0  0  0  0  0  0  0
   -0.6480   12.0240   -3.4970 O   0  0  0  0  0  0  0  0  0  0  0  0
    0.9650   11.5940   -2.2700 O   0  0  0  0  0  0  0  0  0  0  0  0
   -0.1320   14.1650   -1.6450 C   0  0  2  0  0  0  0  0  0  0  0  0
   -1.2280   14.5190   -2.5800 N   0  0  0  0  0  0  0  0  0  0  0  0
   -0.3320   15.1580   -0.1620 S   0  0  0  0  0  0  0  0  0  0  0  0
   -2.3010   15.1750   -1.8340 C   0  0  2  0  0  0  0  0  0  0  0  0
   -2.0770   14.7790   -0.3760 C   0  0  2  0  0  0  0  0  0  0  0  0
   -3.7470   14.9120   -2.2870 C   0  0  0  0  0  0  0  0  0  0  0  0
   -2.9980   15.4680    0.6060 C   0  0  0  0  0  0  0  0  0  0  0  0
   -4.7340   15.4800   -1.2430 C   0  0  2  0  0  0  0  0  0  0  0  0
   -4.4320   15.1350    0.2220 C   0  0  0  0  0  0  0  0  0  0  0  0
   -6.4200   15.0470   -1.6620 Cl  0  0  0  0  0  0  0  0  0  0  0  0
  2  1  1  1
  2  3  1  0
  2  4  1  0
  3  5  1  6
  3  6  1  0
  4  7  1  0
  8  6  1  6
  7  8  1  0
  8  9  1  0
  9 10  1  0
  9 11  1  1
 10 12  1  1
 10 13  1  0
 14 11  1  6
 14 15  1  0
 14 16  1  0
 15 17  1  0
 16 18  1  0
 17 18  1  0
 17 19  1  6
 18 20  1  1
 19 21  1  0
 20 22  1  0
 21 22  1  0
 21 23  1  6
M  CHG  1  12  -1
M  END
