ucsf017-ucsf511
     RDKit          3D

 27 32  0  0  0  0  0  0  0  0999 V2000
   -0.7760   15.4990   -3.4780 O   0  0  0  0  0  0  0  0  0  0  0  0
   -1.1490   14.1940   -3.1440 C   0  0  1  0  0  0  0  0  0  0  0  0
   -2.9700   13.8750   -2.9340 S   0  0  0  0  0  0  0  0  0  0  0  0
   -0.5940   13.4330   -4.3540 C   0  0  2  0  0  0  0  0  0  0  0  0
   -0.5240   13.6780   -2.1180 N   0  0  0  0  0  0  0  0  0  0  0  0
   -1.8050   13.8930   -5.2380 C   0  0  0  0  0  0  0  0  0  0  0  0
   -2.5200   13.3770   -4.2910 O   0  0  0  0  0  0  0  0  0  0  0  0
   -0.4130   11.9950   -4.1390 C   0  0  0  0  0  0  0  0  0  0  0  0
    0.5480   12.7900   -2.0850 C   0  0  0  0  0  0  0  0  0  0  0  0
   -0.8810   14.2210   -0.8130 C   0  0  2  0  0  0  0  0  0  0  0  0
   -4.1640   15.3780   -2.9290 C   0  0  0  0  0  0  0  0  0  0  0  0
   -4.5530   13.4180   -2.5570 C   0  0  2  0  0  0  0  0  0  0  0  0
   -3.1000   12.2670   -1.8090 C   0  0  0  0  0  0  0  0  0  0  0  0
    0.5530   11.6750   -3.0560 C   0  0  0  0  0  0  0  0  0  0  0  0
    0.1550   13.9850    0.0820 N   0  0  0  0  0  0  0  0  0  0  0  0
   -2.2300   13.9700   -0.1600 C   0  0  1  0  0  0  0  0  0  0  0  0
   -5.5870   15.1840   -2.6460 C   0  0  0  0  0  0  0  0  0  0  0  0
   -5.1800   13.5900   -1.2390 C   0  0  0  0  0  0  0  0  0  0  0  0
   -4.8540   12.0920   -2.8980 O   0  0  0  0  0  0  0  0  0  0  0  0
   -3.8700   11.2930   -2.7220 C   0  0  0  0  0  0  0  0  0  0  0  0
    0.0250   14.5970    1.2810 C   0  0  0  0  0  0  0  0  0  0  0  0
   -2.2890   14.3720    1.3020 C   0  0  1  0  0  0  0  0  0  0  0  0
   -3.3010   14.8680   -0.7610 C   0  0  0  0  0  0  0  0  0  0  0  0
   -5.7750   14.9990   -1.1470 C   0  0  0  0  0  0  0  0  0  0  0  0
   -1.1820   15.1460    1.5780 N   0  0  0  0  0  0  0  0  0  0  0  0
   -3.4150   15.2970    1.5440 N   0  0  0  0  0  0  0  0  0  0  0  0
   -4.2030   15.2340    0.3540 C   0  0  0  0  0  0  0  0  0  0  0  0
  2  1  1  6
  2  3  1  0
  2  4  1  0
  2  5  1  0
  4  6  1  6
  3  7  1  0
  6  7  1  0
  4  8  1  0
  5  9  1  0
 10  5  1  6
  3 11  1  0
  3 12  1  0
  3 13  1  0
  8 14  1  0
  9 14  1  0
 10 15  1  0
 10 16  1  0
 11 17  1  0
 12 18  1  1
 12 19  1  0
 13 20  1  0
 19 20  1  0
 15 21  1  0
 16 22  1  0
 16 23  1  6
 17 24  1  0
 18 24  1  0
 21 25  1  0
 22 25  1  6
 22 26  1  0
 23 27  1  0
 26 27  1  0
M  END
