ucsf333-ucsf123
     RDKit          3D

 19 20  0  0  0  0  0  0  0  0999 V2000
   -6.2660   14.8550   -1.6540 Cl  0  0  0  0  0  0  0  0  0  0  0  0
   -4.6260   15.5500   -1.5340 C   0  0  2  0  0  0  0  0  0  0  0  0
   -3.8070   15.3030   -2.8400 C   0  0  0  0  0  0  0  0  0  0  0  0
   -3.9710   15.1460   -0.2290 C   0  0  0  0  0  0  0  0  0  0  0  0
   -2.2980   14.9380   -2.7400 C   0  0  1  0  0  0  0  0  0  0  0  0
   -2.5290   15.6000   -0.2410 C   0  0  0  0  0  0  0  0  0  0  0  0
   -1.3380   15.7100   -3.6170 N   0  0  0  0  0  0  0  0  0  0  0  0
   -1.7590   14.8570   -1.3000 C   0  0  2  0  0  0  0  0  0  0  0  0
   -1.6270   16.7000   -4.9720 S   0  0  0  0  0  0  0  0  0  0  0  0
    0.0490   15.4500   -3.1500 C   0  0  1  0  0  0  0  0  0  0  0  0
    0.0190   15.1340   -1.3490 S   0  0  0  0  0  0  0  0  0  0  0  0
    0.8110   14.3580   -3.9490 C   0  0  0  0  0  0  0  0  0  0  0  0
   -1.8170   18.2930   -4.7150 N   0  0  0  0  0  0  0  0  0  0  0  0
   -0.3470   16.7360   -5.9100 O   0  0  0  0  0  0  0  0  0  0  0  0
   -2.7960   16.1960   -5.9350 O   0  0  0  0  0  0  0  0  0  0  0  0
    0.3080   12.9020   -3.8040 C   0  0  0  0  0  0  0  0  0  0  0  0
    0.8020   12.2390   -2.4940 C   0  0  2  0  0  0  0  0  0  0  0  0
    2.1010   12.3010   -2.4820 O   0  0  0  0  0  0  0  0  0  0  0  0
    0.5420   10.8300   -2.5390 O   0  0  0  0  0  0  0  0  0  0  0  0
  2  1  1  6
  2  3  1  0
  2  4  1  0
  5  3  1  1
  4  6  1  0
  5  7  1  0
  5  8  1  0
  8  6  1  1
  7  9  1  0
  7 10  1  0
  8 11  1  0
 10 11  1  0
 10 12  1  6
  9 13  1  0
  9 14  1  0
  9 15  1  0
 12 16  1  0
 16 17  1  0
 17 18  1  6
 17 19  1  0
M  CHG  1  18  -1
M  END
