ucsf247-ucsf516
     RDKit          3D

 28 31  0  0  0  0  0  0  0  0999 V2000
    1.4530   15.0010   -1.3460 O   0  0  0  0  0  0  0  0  0  0  0  0
    1.0210   14.9780   -2.5780 C   0  0  2  0  0  0  0  0  0  0  0  0
    2.1860   15.4040   -3.2860 O   0  0  0  0  0  0  0  0  0  0  0  0
   -0.2080   15.9530   -2.7770 C   0  0  0  0  0  0  0  0  0  0  0  0
   -1.4780   15.2310   -3.1380 N   0  0  0  0  0  0  0  0  0  0  0  0
   -2.7120   15.8370   -2.7100 C   0  0  1  0  0  0  0  0  0  0  0  0
   -3.2930   16.3040   -3.9010 O   0  0  0  0  0  0  0  0  0  0  0  0
   -3.6780   14.9330   -1.8670 C   0  0  2  0  0  0  0  0  0  0  0  0
   -5.0810   15.5160   -1.5150 C   0  0  0  0  0  0  0  0  0  0  0  0
   -2.9480   14.3640   -0.5830 C   0  0  2  0  0  0  0  0  0  0  0  0
   -5.9760   14.6030   -0.6780 C   0  0  2  0  0  0  0  0  0  0  0  0
   -3.9360   13.5130    0.3070 C   0  0  0  0  0  0  0  0  0  0  0  0
   -2.4130   15.5310    0.2860 C   0  0  0  0  0  0  0  0  0  0  0  0
   -1.6850   13.5130   -1.0090 C   0  0  1  0  0  0  0  0  0  0  0  0
   -7.2300   15.1680   -0.3510 O   0  0  0  0  0  0  0  0  0  0  0  0
   -5.2830   14.1730    0.5940 C   0  0  0  0  0  0  0  0  0  0  0  0
   -1.7050   12.8080   -2.3320 N   0  0  0  0  0  0  0  0  0  0  0  0
   -0.4260   14.1960   -0.7700 N   0  0  0  0  0  0  0  0  0  0  0  0
   -1.3010   15.2520    1.1800 N   0  0  0  0  0  0  0  0  0  0  0  0
   -0.9140   13.2570   -3.5130 C   0  0  1  0  0  0  0  0  0  0  0  0
   -2.9630   12.2150   -2.7940 C   0  0  0  0  0  0  0  0  0  0  0  0
   -0.1740   14.5600    0.6000 C   0  0  0  0  0  0  0  0  0  0  0  0
    0.2360   12.2840   -3.7830 C   0  0  0  0  0  0  0  0  0  0  0  0
   -1.8840   13.2150   -4.6990 C   0  0  0  0  0  0  0  0  0  0  0  0
   -3.2490   12.9190   -4.1110 C   0  0  0  0  0  0  0  0  0  0  0  0
    1.5800   12.8650   -4.3500 C   0  0  0  0  0  0  0  0  0  0  0  0
    0.9980   11.8340   -2.5160 C   0  0  0  0  0  0  0  0  0  0  0  0
    2.2840   12.5470   -3.0200 C   0  0  0  0  0  0  0  0  0  0  0  0
  2  1  1  1
  2  3  1  0
  2  4  1  0
  4  5  1  0
  5  6  1  0
  6  7  1  6
  6  8  1  0
  8  9  1  1
  8 10  1  0
  9 11  1  0
 10 12  1  1
 10 13  1  0
 10 14  1  0
 11 15  1  1
 11 16  1  0
 12 16  1  0
 14 17  1  6
 14 18  1  0
 13 19  1  0
 17 20  1  0
 17 21  1  0
 18 22  1  0
 19 22  1  0
 20 23  1  6
 20 24  1  0
 21 25  1  0
 24 25  1  0
 23 26  1  0
 23 27  1  0
 26 28  1  0
 27 28  1  0
M  CHG  1   1  -1
M  END
