ucsf303-ucsf135
     RDKit          3D

 28 31  0  0  0  0  0  0  0  0999 V2000
   -3.0810   13.9250   -3.3280 O   0  0  0  0  0  0  0  0  0  0  0  0
   -4.1310   14.3530   -2.1940 S   0  0  0  0  0  0  0  0  0  0  0  0
   -4.8590   15.5970   -2.8360 O   0  0  0  0  0  0  0  0  0  0  0  0
   -5.1910   13.1830   -1.8330 N   0  0  0  0  0  0  0  0  0  0  0  0
   -3.1600   15.0550   -0.9330 C   0  0  0  0  0  0  0  0  0  0  0  0
   -5.7110   12.2080   -2.7170 C   0  0  2  0  0  0  0  0  0  0  0  0
   -2.0740   14.1620   -0.3310 C   0  0  0  0  0  0  0  0  0  0  0  0
   -4.0430   15.7210    0.1230 C   0  0  0  0  0  0  0  0  0  0  0  0
   -6.0910   11.0150   -1.9920 N   0  0  0  0  0  0  0  0  0  0  0  0
   -4.5840   11.6880   -3.9900 S   0  0  0  0  0  0  0  0  0  0  0  0
   -1.7520   14.5410    1.1130 C   0  0  0  0  0  0  0  0  0  0  0  0
   -4.2830   14.8070    1.2990 C   0  0  0  0  0  0  0  0  0  0  0  0
   -3.9000   10.4430   -2.8880 C   0  0  2  0  0  0  0  0  0  0  0  0
   -4.8340   10.3200   -1.7420 N   0  0  0  0  0  0  0  0  0  0  0  0
   -2.9990   14.3850    1.9690 C   0  0  0  0  0  0  0  0  0  0  0  0
   -2.4820   10.9390   -2.5540 C   0  0  0  0  0  0  0  0  0  0  0  0
   -1.8740   11.5230   -3.7220 O   0  0  0  0  0  0  0  0  0  0  0  0
   -0.4660   10.9910   -4.2400 S   0  0  2  0  0  0  0  0  0  0  0  0
    0.2950   10.3170   -3.0110 O   0  0  0  0  0  0  0  0  0  0  0  0
    0.5310   12.0050   -5.0840 N   0  0  0  0  0  0  0  0  0  0  0  0
   -0.7400    9.6640   -5.4060 C   0  0  2  0  0  0  0  0  0  0  0  0
    0.8990   11.4240   -6.3760 C   0  0  1  0  0  0  0  0  0  0  0  0
    0.0050   10.1680   -6.6710 C   0  0  2  0  0  0  0  0  0  0  0  0
   -2.2030    9.3620   -5.6860 C   0  0  0  0  0  0  0  0  0  0  0  0
    0.6850   12.4120   -7.3270 O   0  0  0  0  0  0  0  0  0  0  0  0
   -2.3570    8.4180   -6.8710 C   0  0  0  0  0  0  0  0  0  0  0  0
   -0.8880   10.2320   -7.8980 C   0  0  0  0  0  0  0  0  0  0  0  0
   -1.6870    8.9520   -8.1410 C   0  0  0  0  0  0  0  0  0  0  0  0
  2  1  1  0
  2  3  1  0
  2  4  1  0
  2  5  1  0
  6  4  1  1
  5  7  1  0
  5  8  1  0
  6  9  1  0
  6 10  1  0
  7 11  1  0
  8 12  1  0
 10 13  1  0
  9 14  1  0
 13 14  1  0
 11 15  1  0
 12 15  1  0
 13 16  1  1
 16 17  1  0
 18 17  1  0
 18 19  1  1
 18 20  1  0
 18 21  1  0
 20 22  1  0
 21 23  1  0
 22 23  1  0
 21 24  1  6
 22 25  1  6
 24 26  1  0
 23 27  1  6
 26 28  1  0
 27 28  1  0
M  END
