ucsf170-ucsf016
     RDKit          3D

 29 33  0  0  0  0  0  0  0  0999 V2000
   -6.7100   15.5120   -1.0800 C   0  0  0  0  0  0  0  0  0  0  0  0
   -5.4510   14.2200   -1.1730 S   0  0  0  0  0  0  0  0  0  0  0  0
   -4.6890   14.6560   -2.8030 C   0  0  1  0  0  0  0  0  0  0  0  0
   -3.3710   15.4200   -2.6150 C   0  0  0  0  0  0  0  0  0  0  0  0
   -4.5630   13.4400   -3.7340 C   0  0  0  0  0  0  0  0  0  0  0  0
   -2.6590   15.7130   -3.9330 C   0  0  1  0  0  0  0  0  0  0  0  0
   -3.6950   13.7300   -4.9660 C   0  0  0  0  0  0  0  0  0  0  0  0
   -1.5250   16.7730   -3.9170 C   0  0  1  0  0  0  0  0  0  0  0  0
   -2.3700   14.3510   -4.5410 C   0  0  1  0  0  0  0  0  0  0  0  0
   -1.4240   14.4260   -5.6330 O   0  0  0  0  0  0  0  0  0  0  0  0
   -0.5930   16.4430   -4.9290 O   0  0  0  0  0  0  0  0  0  0  0  0
   -1.9410   17.9550   -4.3180 O   0  0  0  0  0  0  0  0  0  0  0  0
   -0.2590   13.6090   -5.3820 C   0  0  2  0  0  0  0  0  0  0  0  0
   -0.7050   12.3820   -4.6280 C   0  0  0  0  0  0  0  0  0  0  0  0
    0.8220   14.3740   -4.5940 C   0  0  0  0  0  0  0  0  0  0  0  0
   -0.5140   11.0250   -5.2870 C   0  0  0  0  0  0  0  0  0  0  0  0
   -1.8860   11.6110   -5.1900 C   0  0  0  0  0  0  0  0  0  0  0  0
    0.5540   14.5830   -3.0870 C   0  0  0  0  0  0  0  0  0  0  0  0
   -0.5600   12.4570   -3.1170 C   0  0  0  0  0  0  0  0  0  0  0  0
   -0.6070   13.8270   -2.5990 N   0  0  0  0  0  0  0  0  0  0  0  0
   -0.8320   13.9660   -1.1510 C   0  0  1  0  0  0  0  0  0  0  0  0
    0.1290   14.8620   -0.5340 N   0  0  0  0  0  0  0  0  0  0  0  0
   -2.2590   14.3320   -0.6460 C   0  0  1  0  0  0  0  0  0  0  0  0
    0.0400   14.8960    0.9020 C   0  0  0  0  0  0  0  0  0  0  0  0
   -2.2290   14.3950    0.8460 C   0  0  1  0  0  0  0  0  0  0  0  0
   -2.7930   15.7540   -0.8210 C   0  0  0  0  0  0  0  0  0  0  0  0
   -1.2710   15.3520    1.2820 N   0  0  0  0  0  0  0  0  0  0  0  0
   -3.5720   14.7760    1.2070 N   0  0  0  0  0  0  0  0  0  0  0  0
   -3.7540   15.9510    0.3600 C   0  0  0  0  0  0  0  0  0  0  0  0
  1  2  1  0
  3  2  1  1
  3  4  1  0
  3  5  1  0
  6  4  1  1
  5  7  1  0
  6  8  1  0
  6  9  1  0
  7  9  1  0
  9 10  1  6
  8 11  1  6
  8 12  1  0
 13 10  1  1
 13 14  1  0
 13 15  1  0
 14 16  1  0
 14 17  1  0
 16 17  1  0
 15 18  1  0
 14 19  1  0
 18 20  1  0
 19 20  1  0
 21 20  1  6
 21 22  1  0
 21 23  1  0
 22 24  1  0
 23 25  1  0
 23 26  1  6
 24 27  1  0
 25 27  1  6
 25 28  1  0
 26 29  1  0
 28 29  1  0
M  CHG  1  12  -1
M  END
