ucsf411-ucsf260
     RDKit          3D

 24 27  0  0  0  0  0  0  0  0999 V2000
    0.6650   10.7080   -2.3160 O   0  0  0  0  0  0  0  0  0  0  0  0
    0.3230   11.9910   -2.4620 C   0  0  1  0  0  0  0  0  0  0  0  0
    0.5390   12.5400   -1.1830 O   0  0  0  0  0  0  0  0  0  0  0  0
    1.0960   12.8150   -3.5830 C   0  0  0  0  0  0  0  0  0  0  0  0
    0.4680   13.0130   -4.9430 N   0  0  0  0  0  0  0  0  0  0  0  0
   -0.5570   14.1190   -4.9790 C   0  0  2  0  0  0  0  0  0  0  0  0
   -0.2560   11.7300   -5.2570 N   0  0  0  0  0  0  0  0  0  0  0  0
   -0.1260   15.6050   -5.2490 C   0  0  1  0  0  0  0  0  0  0  0  0
   -1.5750   14.1860   -3.8320 C   0  0  0  0  0  0  0  0  0  0  0  0
   -1.6240   11.5990   -4.7200 C   0  0  0  0  0  0  0  0  0  0  0  0
   -0.4270   11.2750   -6.6500 C   0  0  2  0  0  0  0  0  0  0  0  0
   -1.4110   16.4480   -5.5920 C   0  0  1  0  0  0  0  0  0  0  0  0
   -2.8830   14.7910   -4.3290 C   0  0  0  0  0  0  0  0  0  0  0  0
    0.7660   16.3240   -4.2570 C   0  0  0  0  0  0  0  0  0  0  0  0
   -2.2180   10.4220   -5.3900 N   0  0  0  0  0  0  0  0  0  0  0  0
   -1.1280    9.9720   -6.2700 C   0  0  1  0  0  0  0  0  0  0  0  0
    0.7890   10.9920   -7.5320 C   0  0  0  0  0  0  0  0  0  0  0  0
   -2.7170   15.6200   -5.5920 C   0  0  0  0  0  0  0  0  0  0  0  0
   -1.6270   17.7390   -4.9460 C   0  0  0  0  0  0  0  0  0  0  0  0
    0.9290   17.7690   -4.6940 C   0  0  0  0  0  0  0  0  0  0  0  0
   -1.6010    9.1310   -7.4450 C   0  0  0  0  0  0  0  0  0  0  0  0
    0.8410    9.5810   -8.1440 C   0  0  0  0  0  0  0  0  0  0  0  0
   -0.3770   18.5220   -4.6720 C   0  0  0  0  0  0  0  0  0  0  0  0
   -0.5050    8.9280   -8.4840 C   0  0  0  0  0  0  0  0  0  0  0  0
  2  1  1  1
  2  3  1  0
  2  4  1  0
  4  5  1  0
  6  5  1  1
  5  7  1  0
  6  8  1  0
  6  9  1  0
  7 10  1  0
  7 11  1  0
  8 12  1  0
  9 13  1  0
  8 14  1  1
 10 15  1  0
 11 16  1  0
 15 16  1  0
 11 17  1  1
 12 18  1  1
 13 18  1  0
 12 19  1  0
 14 20  1  0
 16 21  1  6
 17 22  1  0
 19 23  1  0
 20 23  1  0
 21 24  1  0
 22 24  1  0
M  CHG  1   1  -1
M  END
