ucsf262-ucsf422
     RDKit          3D

 16 18  0  0  0  0  0  0  0  0999 V2000
   -3.1010   15.4020   -5.6900 Cl  0  0  0  0  0  0  0  0  0  0  0  0
   -1.7780   16.4350   -5.0840 C   0  0  1  0  0  0  0  0  0  0  0  0
   -0.3960   15.7720   -4.9320 C   0  0  2  0  0  0  0  0  0  0  0  0
   -1.7800   17.8210   -5.7700 C   0  0  0  0  0  0  0  0  0  0  0  0
    0.0100   14.6270   -3.9670 C   0  0  1  0  0  0  0  0  0  0  0  0
    0.5570   16.8810   -4.4660 C   0  0  1  0  0  0  0  0  0  0  0  0
   -0.4290   18.3590   -6.3000 C   0  0  0  0  0  0  0  0  0  0  0  0
   -0.1790   13.1250   -4.1710 C   0  0  0  0  0  0  0  0  0  0  0  0
    1.5120   14.7590   -3.9670 C   0  0  1  0  0  0  0  0  0  0  0  0
    1.7230   16.2160   -3.9180 N   0  0  0  0  0  0  0  0  0  0  0  0
    0.8280   17.9190   -5.5450 C   0  0  0  0  0  0  0  0  0  0  0  0
    2.1930   13.8270   -2.9200 C   0  0  1  0  0  0  0  0  0  0  0  0
    0.1050   12.4610   -2.7790 C   0  0  2  0  0  0  0  0  0  0  0  0
    2.9870   14.5540   -2.1310 O   0  0  0  0  0  0  0  0  0  0  0  0
    1.1490   13.2100   -2.0850 O   0  0  0  0  0  0  0  0  0  0  0  0
    0.4780   11.1960   -2.9460 O   0  0  0  0  0  0  0  0  0  0  0  0
  2  1  1  6
  3  2  1  1
  2  4  1  0
  3  5  1  0
  3  6  1  0
  4  7  1  0
  5  8  1  6
  5  9  1  0
  6 10  1  0
  9 10  1  1
  6 11  1  6
  7 11  1  0
  9 12  1  0
  8 13  1  0
 12 14  1  1
 12 15  1  0
 13 15  1  0
 13 16  1  6
M  CHG  2  14  -1  16  -1
M  END
