ucsf039-ucsf422
     RDKit          3D

 26 29  0  0  0  0  0  0  0  0999 V2000
   -4.3780   15.4820    1.3960 N   0  0  0  0  0  0  0  0  0  0  0  0
   -3.7120   14.7550    0.3380 C   0  0  2  0  0  0  0  0  0  0  0  0
   -2.1920   14.5120    0.5660 C   0  0  1  0  0  0  0  0  0  0  0  0
   -4.0610   15.4740   -0.8670 N   0  0  0  0  0  0  0  0  0  0  0  0
   -3.4000   14.9320   -2.0410 C   0  0  0  0  0  0  0  0  0  0  0  0
   -1.5040   14.1880   -0.7530 C   0  0  1  0  0  0  0  0  0  0  0  0
   -1.3180   15.5640    1.0450 N   0  0  0  0  0  0  0  0  0  0  0  0
   -1.9590   14.9980   -1.8500 N   0  0  0  0  0  0  0  0  0  0  0  0
   -0.0790   14.2780   -0.4170 N   0  0  0  0  0  0  0  0  0  0  0  0
   -0.0370   14.9140    0.8880 C   0  0  0  0  0  0  0  0  0  0  0  0
   -1.2380   14.8700   -3.1050 C   0  0  0  0  0  0  0  0  0  0  0  0
   -0.6680   16.2350   -3.5720 C   0  0  1  0  0  0  0  0  0  0  0  0
    0.7270   16.2020   -4.1760 C   0  0  1  0  0  0  0  0  0  0  0  0
   -1.4770   16.9400   -4.6190 N   0  0  0  0  0  0  0  0  0  0  0  0
   -2.8710   15.9850   -5.4270 Br  0  0  0  0  0  0  0  0  0  0  0  0
   -0.5620   17.7500   -5.4540 C   0  0  2  0  0  0  0  0  0  0  0  0
    0.9570   17.9910   -4.4410 S   0  0  0  0  0  0  0  0  0  0  0  0
    1.7550   15.1670   -3.7220 C   0  0  0  0  0  0  0  0  0  0  0  0
    0.6010   15.7270   -5.5720 C   0  0  0  0  0  0  0  0  0  0  0  0
   -1.1940   19.0510   -5.9250 C   0  0  0  0  0  0  0  0  0  0  0  0
    0.8840   13.9360   -4.0660 C   0  0  1  0  0  0  0  0  0  0  0  0
    0.4420   14.2170   -5.4860 C   0  0  0  0  0  0  0  0  0  0  0  0
    1.3190   12.4910   -3.7150 C   0  0  0  0  0  0  0  0  0  0  0  0
    0.3510   11.8090   -2.6870 C   0  0  1  0  0  0  0  0  0  0  0  0
    0.6070   10.5210   -2.4900 O   0  0  0  0  0  0  0  0  0  0  0  0
    0.6280   12.3410   -1.4150 O   0  0  0  0  0  0  0  0  0  0  0  0
  2  1  1  1
  2  3  1  0
  2  4  1  0
  4  5  1  0
  3  6  1  0
  3  7  1  6
  5  8  1  0
  6  8  1  0
  6  9  1  1
  7 10  1  0
  9 10  1  0
  8 11  1  0
 12 11  1  6
 12 13  1  0
 12 14  1  0
 14 15  1  0
 14 16  1  0
 13 17  1  0
 16 17  1  0
 13 18  1  1
 13 19  1  0
 16 20  1  1
 18 21  1  0
 19 22  1  0
 21 22  1  0
 21 23  1  6
 23 24  1  0
 24 25  1  1
 24 26  1  0
M  CHG  1  25  -1
M  END
