ucsf039-ucsf115
     RDKit          3D

 23 27  0  0  0  0  0  0  0  0999 V2000
   -4.5800   15.4830    1.1970 N   0  0  0  0  0  0  0  0  0  0  0  0
   -3.7440   14.8930    0.1770 C   0  0  2  0  0  0  0  0  0  0  0  0
   -2.2740   15.2210    0.3430 C   0  0  2  0  0  0  0  0  0  0  0  0
   -4.1700   15.4850   -1.1030 N   0  0  0  0  0  0  0  0  0  0  0  0
   -3.3260   15.1760   -2.2800 C   0  0  0  0  0  0  0  0  0  0  0  0
   -1.7170   14.3790   -0.7570 C   0  0  1  0  0  0  0  0  0  0  0  0
   -1.4210   14.9430    1.4800 N   0  0  0  0  0  0  0  0  0  0  0  0
   -1.9340   15.0890   -1.9580 N   0  0  0  0  0  0  0  0  0  0  0  0
   -0.3040   14.2550   -0.5350 N   0  0  0  0  0  0  0  0  0  0  0  0
   -0.1010   14.7200    0.8530 C   0  0  0  0  0  0  0  0  0  0  0  0
   -0.7470   14.8760   -2.7620 C   0  0  2  0  0  0  0  0  0  0  0  0
    0.2410   15.0500   -1.6590 N   0  0  0  0  0  0  0  0  0  0  0  0
   -0.3980   16.0010   -3.8960 C   0  0  1  0  0  0  0  0  0  0  0  0
   -0.8400   13.2900   -3.0950 C   0  0  1  0  0  0  0  0  0  0  0  0
    0.9420   16.0160   -4.6340 C   0  0  0  0  0  0  0  0  0  0  0  0
   -1.3610   16.4850   -4.9190 N   0  0  0  0  0  0  0  0  0  0  0  0
   -0.4600   12.7590   -4.3770 O   0  0  0  0  0  0  0  0  0  0  0  0
   -0.1050   12.3970   -2.0740 C   0  0  0  0  0  0  0  0  0  0  0  0
   -0.8680   17.8270   -5.2360 C   0  0  1  0  0  0  0  0  0  0  0  0
    0.9240   17.6440   -5.4470 S   0  0  0  0  0  0  0  0  0  0  0  0
    0.5720   11.3340   -2.8660 C   0  0  0  0  0  0  0  0  0  0  0  0
   -0.1770   11.3760   -4.1630 C   0  0  0  0  0  0  0  0  0  0  0  0
   -1.4980   18.4160   -6.4920 C   0  0  0  0  0  0  0  0  0  0  0  0
  2  1  1  1
  2  3  1  0
  2  4  1  0
  4  5  1  0
  3  6  1  0
  3  7  1  1
  5  8  1  0
  6  8  1  6
  6  9  1  0
  7 10  1  0
  9 10  1  0
 11  8  1  0
  9 12  1  0
 11 12  1  1
 11 13  1  0
 11 14  1  0
 13 15  1  6
 13 16  1  0
 14 17  1  0
 14 18  1  1
 16 19  1  0
 15 20  1  0
 19 20  1  0
 18 21  1  0
 17 22  1  0
 21 22  1  0
 19 23  1  6
M  END
