ucsf123-ucsf243
     RDKit          3D

 22 23  0  0  0  0  0  0  0  0999 V2000
   -1.7530   18.5800   -4.7750 N   0  0  0  0  0  0  0  0  0  0  0  0
   -1.3600   17.3590   -5.7620 S   0  0  0  0  0  0  0  0  0  0  0  0
   -0.3550   17.9490   -6.8370 O   0  0  0  0  0  0  0  0  0  0  0  0
   -2.6320   16.9050   -6.6140 O   0  0  0  0  0  0  0  0  0  0  0  0
   -0.5350   15.8860   -5.1350 C   0  0  1  0  0  0  0  0  0  0  0  0
    0.1470   16.1230   -3.7970 C   0  0  0  0  0  0  0  0  0  0  0  0
   -1.4230   14.6440   -5.0640 C   0  0  0  0  0  0  0  0  0  0  0  0
    1.1570   15.0100   -3.4660 C   0  0  0  0  0  0  0  0  0  0  0  0
   -0.8480   13.4730   -4.2090 C   0  0  0  0  0  0  0  0  0  0  0  0
    0.6250   13.5610   -3.6990 C   0  0  2  0  0  0  0  0  0  0  0  0
    0.9320   12.5270   -2.5310 C   0  0  1  0  0  0  0  0  0  0  0  0
    0.3500   13.0440   -1.3370 O   0  0  0  0  0  0  0  0  0  0  0  0
    0.3480   11.3540   -2.7220 O   0  0  0  0  0  0  0  0  0  0  0  0
   -0.2660   14.3100   -1.6030 C   0  0  0  0  0  0  0  0  0  0  0  0
   -1.7780   14.2280   -1.3860 C   0  0  1  0  0  0  0  0  0  0  0  0
   -2.2140   15.2890   -0.3780 C   0  0  0  0  0  0  0  0  0  0  0  0
   -2.7280   14.2360   -2.6190 C   0  0  2  0  0  0  0  0  0  0  0  0
   -2.1090   14.1640   -3.8800 O   0  0  0  0  0  0  0  0  0  0  0  0
   -3.6820   15.0750   -0.0740 C   0  0  1  0  0  0  0  0  0  0  0  0
   -3.7330   15.3740   -2.6110 C   0  0  0  0  0  0  0  0  0  0  0  0
   -4.1010   15.8120    1.1830 C   0  0  0  0  0  0  0  0  0  0  0  0
   -4.5380   15.4190   -1.3060 C   0  0  0  0  0  0  0  0  0  0  0  0
  1  2  1  0
  2  3  1  0
  2  4  1  0
  5  2  1  1
  5  6  1  0
  5  7  1  0
  6  8  1  0
  7  9  1  0
 10  8  1  1
  9 10  1  0
 10 11  1  0
 11 12  1  0
 11 13  1  6
 12 14  1  0
 15 14  1  6
 15 16  1  0
 15 17  1  0
 17 18  1  6
 16 19  1  0
 17 20  1  0
 19 21  1  1
 19 22  1  0
 20 22  1  0
M  CHG  1  13  -1
M  END
