ucsf404-ucsf138
     RDKit          3D

 28 30  0  0  0  0  0  0  0  0999 V2000
   -6.4830   15.3960   -2.3560 Cl  0  0  0  0  0  0  0  0  0  0  0  0
   -4.9430   14.6480   -1.8160 C   0  0  2  0  0  0  0  0  0  0  0  0
   -4.7030   14.9520   -0.3590 C   0  0  1  0  0  0  0  0  0  0  0  0
   -3.6920   15.0150   -2.6140 C   0  0  0  0  0  0  0  0  0  0  0  0
   -5.8660   14.9280    0.5220 N   0  0  0  0  0  0  0  0  0  0  0  0
   -3.6570   14.0060    0.1550 C   0  0  2  0  0  0  0  0  0  0  0  0
   -2.3750   14.3800   -2.0400 C   0  0  1  0  0  0  0  0  0  0  0  0
   -1.0960   15.0260   -2.6240 C   0  0  0  0  0  0  0  0  0  0  0  0
   -5.3590   14.9720    1.8600 C   0  0  2  0  0  0  0  0  0  0  0  0
   -3.7720   14.1570    1.9290 S   0  0  0  0  0  0  0  0  0  0  0  0
   -2.3120   14.2920   -0.4860 C   0  0  0  0  0  0  0  0  0  0  0  0
   -6.4440   14.4140    2.5940 N   0  0  0  0  0  0  0  0  0  0  0  0
   -0.0710   14.0900   -3.2230 C   0  0  0  0  0  0  0  0  0  0  0  0
    1.0370   13.7200   -2.2310 C   0  0  0  0  0  0  0  0  0  0  0  0
    1.3220   12.3380   -2.3080 O   0  0  0  0  0  0  0  0  0  0  0  0
    0.3590   11.6750   -3.1190 C   0  0  2  0  0  0  0  0  0  0  0  0
    0.3700   10.2680   -2.8610 O   0  0  0  0  0  0  0  0  0  0  0  0
    0.7060   12.0290   -4.6170 C   0  0  0  0  0  0  0  0  0  0  0  0
    0.1930   11.0910   -5.6530 N   0  0  0  0  0  0  0  0  0  0  0  0
    0.9860   11.1090   -6.8610 C   0  0  2  0  0  0  0  0  0  0  0  0
    1.4740   12.3790   -7.0360 O   0  0  0  0  0  0  0  0  0  0  0  0
    0.0820   10.7510   -7.9110 N   0  0  0  0  0  0  0  0  0  0  0  0
    0.7850   10.1840   -9.0740 C   0  0  0  0  0  0  0  0  0  0  0  0
   -0.0760   10.1400  -10.3440 C   0  0  0  0  0  0  0  0  0  0  0  0
    1.2950    8.7750   -8.7500 C   0  0  0  0  0  0  0  0  0  0  0  0
    0.6330    9.4840  -11.5340 C   0  0  0  0  0  0  0  0  0  0  0  0
    2.0440    8.1420   -9.9290 C   0  0  0  0  0  0  0  0  0  0  0  0
    1.2090    8.1140  -11.2080 C   0  0  0  0  0  0  0  0  0  0  0  0
  2  1  1  6
  2  3  1  0
  2  4  1  0
  3  5  1  1
  3  6  1  0
  4  7  1  0
  7  8  1  1
  5  9  1  0
  6 10  1  0
  9 10  1  0
  6 11  1  6
  7 11  1  0
  9 12  1  1
  8 13  1  0
 13 14  1  0
 14 15  1  0
 15 16  1  0
 16 17  1  6
 16 18  1  0
 18 19  1  0
 19 20  1  0
 20 21  1  6
 20 22  1  0
 22 23  1  0
 23 24  1  0
 23 25  1  0
 24 26  1  0
 25 27  1  0
 26 28  1  0
 27 28  1  0
M  END
