ucsf039-ucsf380
     RDKit          3D

 26 29  0  0  0  0  0  0  0  0999 V2000
   -4.2580   15.5610    1.1410 N   0  0  0  0  0  0  0  0  0  0  0  0
   -3.6500   14.7520    0.0860 C   0  0  2  0  0  0  0  0  0  0  0  0
   -2.1960   14.3730    0.4260 C   0  0  1  0  0  0  0  0  0  0  0  0
   -3.8010   15.5360   -1.1140 N   0  0  0  0  0  0  0  0  0  0  0  0
   -3.0570   14.9830   -2.2800 C   0  0  0  0  0  0  0  0  0  0  0  0
   -1.3250   14.1210   -0.8110 C   0  0  1  0  0  0  0  0  0  0  0  0
   -1.3990   15.3260    1.2240 N   0  0  0  0  0  0  0  0  0  0  0  0
   -1.6150   14.8710   -2.0150 N   0  0  0  0  0  0  0  0  0  0  0  0
    0.0080   14.4290   -0.3200 N   0  0  0  0  0  0  0  0  0  0  0  0
   -0.0800   14.7480    1.0720 C   0  0  0  0  0  0  0  0  0  0  0  0
   -0.6760   14.5180   -3.1790 C   0  0  2  0  0  0  0  0  0  0  0  0
    0.7890   14.1880   -2.5300 C   0  0  1  0  0  0  0  0  0  0  0  0
   -0.3600   15.6300   -4.3480 C   0  0  2  0  0  0  0  0  0  0  0  0
   -1.2160   13.1150   -3.7920 C   0  0  0  0  0  0  0  0  0  0  0  0
    1.2200   15.1210   -1.7220 O   0  0  0  0  0  0  0  0  0  0  0  0
    0.7730   13.0820   -1.6540 O   0  0  0  0  0  0  0  0  0  0  0  0
    0.8810   16.4900   -4.1360 C   0  0  0  0  0  0  0  0  0  0  0  0
   -1.4700   16.5530   -4.8120 N   0  0  0  0  0  0  0  0  0  0  0  0
   -2.6160   12.5670   -3.3770 C   0  0  0  0  0  0  0  0  0  0  0  0
   -1.0780   13.0370   -5.3130 C   0  0  0  0  0  0  0  0  0  0  0  0
   -0.9090   17.8590   -5.2260 C   0  0  1  0  0  0  0  0  0  0  0  0
    0.8590   17.6460   -5.5250 S   0  0  0  0  0  0  0  0  0  0  0  0
   -2.9920   11.2460   -4.0630 C   0  0  0  0  0  0  0  0  0  0  0  0
   -1.2060   11.6100   -5.8300 C   0  0  0  0  0  0  0  0  0  0  0  0
   -1.5950   18.3900   -6.4730 C   0  0  0  0  0  0  0  0  0  0  0  0
   -1.8410   10.6370   -4.8400 C   0  0  0  0  0  0  0  0  0  0  0  0
  2  1  1  1
  2  3  1  0
  2  4  1  0
  4  5  1  0
  3  6  1  0
  3  7  1  6
  5  8  1  0
  6  8  1  0
  6  9  1  1
  7 10  1  0
  9 10  1  0
 11  8  1  0
 11 12  1  0
 11 13  1  0
 11 14  1  6
 12 15  1  1
 12 16  1  0
 13 17  1  1
 13 18  1  0
 14 19  1  0
 14 20  1  0
 18 21  1  0
 17 22  1  0
 21 22  1  0
 19 23  1  0
 20 24  1  0
 21 25  1  6
 23 26  1  0
 24 26  1  0
M  CHG  1  15  -1
M  END
