ucsf357-ucsf340
     RDKit          3D

 25 27  0  0  0  0  0  0  0  0999 V2000
   -6.2210   15.0710   -1.6620 O   0  0  0  0  0  0  0  0  0  0  0  0
   -5.5340   14.4550   -0.7220 C   0  0  2  0  0  0  0  0  0  0  0  0
   -5.8090   15.2750    0.3860 O   0  0  0  0  0  0  0  0  0  0  0  0
   -4.0250   14.5320   -1.0730 C   0  0  1  0  0  0  0  0  0  0  0  0
   -3.8580   15.2420   -2.4020 C   0  0  0  0  0  0  0  0  0  0  0  0
   -3.0670   15.1770   -0.0430 C   0  0  0  0  0  0  0  0  0  0  0  0
   -2.4910   15.0700   -3.0010 C   0  0  1  0  0  0  0  0  0  0  0  0
   -1.6270   15.3740   -0.5890 C   0  0  0  0  0  0  0  0  0  0  0  0
   -2.1220   16.1820   -3.6580 F   0  0  0  0  0  0  0  0  0  0  0  0
   -1.4320   14.6970   -1.9740 C   0  0  2  0  0  0  0  0  0  0  0  0
   -0.1180   14.6400   -2.6790 N   0  0  0  0  0  0  0  0  0  0  0  0
    0.0160   13.1960   -3.1270 C   0  0  0  0  0  0  0  0  0  0  0  0
    0.2590   15.5630   -3.8240 C   0  0  2  0  0  0  0  0  0  0  0  0
    0.5190   12.1660   -2.0660 C   0  0  2  0  0  0  0  0  0  0  0  0
    0.5470   17.0830   -3.7380 C   0  0  0  0  0  0  0  0  0  0  0  0
   -0.5700   15.4500   -5.1380 C   0  0  2  0  0  0  0  0  0  0  0  0
    1.9170   12.3100   -2.1510 O   0  0  0  0  0  0  0  0  0  0  0  0
    0.3600   10.8660   -2.3530 O   0  0  0  0  0  0  0  0  0  0  0  0
   -0.0910   17.8420   -4.8280 N   0  0  0  0  0  0  0  0  0  0  0  0
   -0.8210   16.9110   -5.6430 C   0  0  2  0  0  0  0  0  0  0  0  0
   -1.7770   14.4770   -5.0870 C   0  0  0  0  0  0  0  0  0  0  0  0
    0.9270   18.4580   -5.6650 C   0  0  0  0  0  0  0  0  0  0  0  0
   -3.0030   14.8840   -5.8890 C   0  0  0  0  0  0  0  0  0  0  0  0
   -2.2500   17.3480   -5.9200 C   0  0  0  0  0  0  0  0  0  0  0  0
   -3.3500   16.3220   -5.6690 C   0  0  0  0  0  0  0  0  0  0  0  0
  2  1  1  6
  2  3  1  0
  2  4  1  0
  4  5  1  6
  4  6  1  0
  5  7  1  0
  6  8  1  0
  7  9  1  1
  7 10  1  0
  8 10  1  0
 10 11  1  6
 11 12  1  0
 13 11  1  1
 12 14  1  0
 13 15  1  0
 13 16  1  0
 14 17  1  6
 14 18  1  0
 15 19  1  0
 16 20  1  0
 19 20  1  0
 16 21  1  1
 19 22  1  0
 21 23  1  0
 20 24  1  1
 23 25  1  0
 24 25  1  0
M  CHG  2   1  -1  18  -1
M  END
