x0091_0_B-x0814_0_B
     RDKit          3D

 31 33  0  0  0  0  0  0  0  0999 V2000
   12.6420   21.0740   13.6220 N   0  0  0  0  0  0  0  0  0  0  0  0
   12.1740   21.9340   14.6970 C   0  0  0  0  0  0  0  0  0  0  0  0
   12.1370   19.6970   13.6050 C   0  0  0  0  0  0  0  0  0  0  0  0
   13.5860   21.4190   12.6850 C   0  0  0  0  0  0  0  0  0  0  0  0
   13.7050   20.8310   11.6140 O   0  0  0  0  0  0  0  0  0  0  0  0
   14.4640   22.4310   12.9370 N   0  0  0  0  0  0  0  0  0  0  0  0
   13.0910   18.7850   14.3220 C   0  0  0  0  0  0  0  0  0  0  0  0
   12.6360   17.8270   15.1460 N   0  0  0  0  0  0  0  0  0  0  0  0
   14.5080   18.7690   14.2640 C   0  0  0  0  0  0  0  0  0  0  0  0
   15.8700   22.1470   12.8890 C   0  0  0  0  0  0  0  0  0  0  0  0
   13.7550   17.1770   15.6300 O   0  0  0  0  0  0  0  0  0  0  0  0
   14.8740   17.7400   15.1010 C   0  0  0  0  0  0  0  0  0  0  0  0
   16.8380   22.8820   13.7610 C   0  0  0  0  0  0  0  0  0  0  0  0
   16.9120   23.0530   12.2810 C   0  0  0  0  0  0  0  0  0  0  0  0
   16.1600   17.1400   15.5290 C   0  0  0  0  0  0  0  0  0  0  0  0
   16.2520   15.6640   15.1300 C   0  0  0  0  0  0  0  0  0  0  0  0
   15.3420   15.3350   13.9410 C   0  0  0  0  0  0  0  0  0  0  0  0
   16.1690   15.2770   12.7550 N   0  0  0  0  0  0  0  0  0  0  0  0
   16.2820   14.3260   11.8980 C   0  0  0  0  0  0  0  0  0  0  0  0
   17.1650   14.4560   10.8690 N   0  0  0  0  0  0  0  0  0  0  0  0
   15.4580   12.9820   11.9980 C   0  0  2  0  0  0  0  0  0  0  0  0
   14.8220   12.4660   10.7030 C   0  0  0  0  0  0  0  0  0  0  0  0
   14.3990   12.8440   13.1190 C   0  0  1  0  0  0  0  0  0  0  0  0
   13.8810   14.1260   13.7420 C   0  0  0  0  0  0  0  0  0  0  0  0
   13.1970   12.1040   12.5830 N   0  0  0  0  0  0  0  0  0  0  0  0
   14.2930   11.0220   10.7780 C   0  0  0  0  0  0  0  0  0  0  0  0
   11.6470   12.4420   13.1400 S   0  0  0  0  0  0  0  0  0  0  0  0
   13.3670   10.8050   11.9340 C   0  0  0  0  0  0  0  0  0  0  0  0
   11.5460   13.8650   12.9110 O   0  0  0  0  0  0  0  0  0  0  0  0
   10.6880   11.5060   12.5740 O   0  0  0  0  0  0  0  0  0  0  0  0
   11.8220   12.1190   14.8900 C   0  0  0  0  0  0  0  0  0  0  0  0
  1  2  1  0
  1  3  1  0
  1  4  1  0
  4  5  2  0
  4  6  1  0
  3  7  1  0
  7  8  2  0
  7  9  1  0
  6 10  1  0
  8 11  1  0
  9 12  2  0
 11 12  1  0
 10 13  1  0
 10 14  1  0
 13 14  1  0
 12 15  1  0
 15 16  1  0
 16 17  1  0
 17 18  1  0
 18 19  2  3
 19 20  1  0
 21 19  1  6
 21 22  1  0
 21 23  1  0
 23 24  1  6
 23 25  1  0
 22 26  1  0
 25 27  1  0
 25 28  1  0
 26 28  1  0
 27 29  2  0
 27 30  2  0
 27 31  1  0
M  END
