x0091_0_B_α-x0259_0_A_α
     RDKit          3D

 34 37  0  0  0  0  0  0  0  0999 V2000
   12.8370   21.1770   13.6380 N   0  0  0  0  0  0  0  0  0  0  0  0
   12.2210   22.0360   14.6390 C   0  0  0  0  0  0  0  0  0  0  0  0
   12.3310   19.7940   13.5390 C   0  0  0  0  0  0  0  0  0  0  0  0
   13.7500   21.6030   12.6750 C   0  0  0  0  0  0  0  0  0  0  0  0
   14.1010   20.8600   11.7710 O   0  0  0  0  0  0  0  0  0  0  0  0
   14.2280   22.9080   12.7950 N   0  0  0  0  0  0  0  0  0  0  0  0
   13.2100   18.8000   14.2490 C   0  0  0  0  0  0  0  0  0  0  0  0
   12.6910   17.7990   14.9850 N   0  0  0  0  0  0  0  0  0  0  0  0
   14.6280   18.7420   14.2690 C   0  0  0  0  0  0  0  0  0  0  0  0
   15.3230   23.4060   11.9790 C   0  0  2  0  0  0  0  0  0  0  0  0
   13.7660   17.0870   15.4850 O   0  0  0  0  0  0  0  0  0  0  0  0
   14.9210   17.6560   15.0530 C   0  0  0  0  0  0  0  0  0  0  0  0
   16.7200   22.9650   12.3260 C   0  0  0  0  0  0  0  0  0  0  0  0
   16.3350   24.3950   12.5470 C   0  0  1  0  0  0  0  0  0  0  0  0
   16.1750   17.0160   15.4990 C   0  0  0  0  0  0  0  0  0  0  0  0
   17.1080   25.4600   11.7750 C   0  0  0  0  0  0  0  0  0  0  0  0
   17.3390   25.3270   10.2460 C   0  0  0  0  0  0  0  0  0  0  0  0
   18.0540   26.5700    9.6360 C   0  0  0  0  0  0  0  0  0  0  0  0
   17.9000   26.9500    8.1320 C   0  0  0  0  0  0  0  0  0  0  0  0
   18.6030   28.2930    7.7470 C   0  0  1  0  0  0  0  0  0  0  0  0
   19.9630   27.9950    7.1730 N   0  0  0  0  0  0  0  0  0  0  0  0
   17.7990   29.4380    7.0130 C   0  0  2  0  0  0  0  0  0  0  0  0
   21.0710   28.5420    7.9540 C   0  0  0  0  0  0  0  0  0  0  0  0
   17.8720   30.7640    7.7980 C   0  0  0  0  0  0  0  0  0  0  0  0
   16.2790   29.2600    6.9120 C   0  0  0  0  0  0  0  0  0  0  0  0
   20.2590   27.8410    5.7870 C   0  0  0  0  0  0  0  0  0  0  0  0
   15.7390   30.5880    6.8690 O   0  0  0  0  0  0  0  0  0  0  0  0
   16.4710   31.3360    7.8240 C   0  0  0  0  0  0  0  0  0  0  0  0
   19.2440   27.5380    4.9440 N   0  0  0  0  0  0  0  0  0  0  0  0
   21.5600   27.9840    5.2760 C   0  0  0  0  0  0  0  0  0  0  0  0
   22.9660   28.3700    6.1890 Cl  0  0  0  0  0  0  0  0  0  0  0  0
   19.5190   27.3770    3.6370 C   0  0  0  0  0  0  0  0  0  0  0  0
   21.7200   27.7950    3.9150 C   0  0  0  0  0  0  0  0  0  0  0  0
   20.7220   27.4880    3.0650 N   0  0  0  0  0  0  0  0  0  0  0  0
  1  2  1  0
  1  3  1  0
  1  4  1  0
  4  5  2  0
  4  6  1  0
  3  7  1  0
  7  8  2  0
  7  9  1  0
 10  6  1  1
  8 11  1  0
  9 12  2  0
 11 12  1  0
 10 13  1  0
 10 14  1  0
 13 14  1  0
 12 15  1  0
 14 16  1  6
 16 17  1  0
 17 18  1  0
 18 19  1  0
 20 19  1  6
 20 21  1  0
 20 22  1  0
 21 23  1  0
 22 24  1  1
 22 25  1  0
 21 26  1  0
 25 27  1  0
 24 28  1  0
 27 28  1  0
 26 29  2  0
 26 30  1  0
 30 31  1  0
 29 32  1  0
 30 33  2  0
 32 34  2  0
 33 34  1  0
M  END
