x0091_0_B_α-x0142_0_A_β
     RDKit          3D

 27 29  0  0  0  0  0  0  0  0999 V2000
   12.6710   21.0540   13.6450 N   0  0  0  0  0  0  0  0  0  0  0  0
   12.1490   21.8240   14.7660 C   0  0  0  0  0  0  0  0  0  0  0  0
   12.2330   19.6530   13.5440 C   0  0  0  0  0  0  0  0  0  0  0  0
   13.6450   21.5020   12.7600 C   0  0  0  0  0  0  0  0  0  0  0  0
   14.0240   20.8320   11.8040 O   0  0  0  0  0  0  0  0  0  0  0  0
   14.1500   22.7560   13.0340 N   0  0  0  0  0  0  0  0  0  0  0  0
   13.1640   18.7150   14.2550 C   0  0  0  0  0  0  0  0  0  0  0  0
   12.6810   17.7190   15.0170 N   0  0  0  0  0  0  0  0  0  0  0  0
   14.5820   18.7000   14.2550 C   0  0  0  0  0  0  0  0  0  0  0  0
   15.1350   23.3730   12.1930 C   0  0  0  0  0  0  0  0  0  0  0  0
   13.7820   17.0480   15.5190 O   0  0  0  0  0  0  0  0  0  0  0  0
   14.9190   17.6380   15.0610 C   0  0  0  0  0  0  0  0  0  0  0  0
   16.5960   23.1390   12.4460 C   0  0  0  0  0  0  0  0  0  0  0  0
   15.9990   24.4770   12.7390 C   0  0  0  0  0  0  0  0  0  0  0  0
   16.1990   17.0370   15.5050 C   0  0  0  0  0  0  0  0  0  0  0  0
   16.0080   15.8990   16.5130 C   0  0  0  0  0  0  0  0  0  0  0  0
   15.3440   14.6580   15.9040 C   0  0  0  0  0  0  0  0  0  0  0  0
   15.9770   13.3380   16.3640 C   0  0  0  0  0  0  0  0  0  0  0  0
   15.3530   12.0820   15.7530 C   0  0  0  0  0  0  0  0  0  0  0  0
   15.5550   12.0160   14.3410 O   0  0  0  0  0  0  0  0  0  0  0  0
   15.3710   10.8350   13.6820 C   0  0  0  0  0  0  0  0  0  0  0  0
   14.7930    9.8120   14.4420 C   0  0  0  0  0  0  0  0  0  0  0  0
   15.7040   10.5790   12.3520 C   0  0  0  0  0  0  0  0  0  0  0  0
   14.5520    8.5530   13.8840 C   0  0  0  0  0  0  0  0  0  0  0  0
   15.4610    9.3180   11.7970 C   0  0  0  0  0  0  0  0  0  0  0  0
   14.8850    8.2950   12.5520 C   0  0  0  0  0  0  0  0  0  0  0  0
   14.6470    7.0400   11.9850 N   0  0  0  0  0  0  0  0  0  0  0  0
  1  2  1  0
  1  3  1  0
  1  4  1  0
  4  5  2  0
  4  6  1  0
  3  7  1  0
  7  8  2  0
  7  9  1  0
  6 10  1  0
  8 11  1  0
  9 12  2  0
 11 12  1  0
 10 13  1  0
 10 14  1  0
 13 14  1  0
 12 15  1  0
 15 16  1  0
 16 17  1  0
 17 18  1  0
 18 19  1  0
 19 20  1  0
 20 21  1  0
 21 22  2  0
 21 23  1  0
 22 24  1  0
 23 25  2  0
 24 26  2  0
 25 26  1  0
 26 27  1  0
M  END
