x0091_0_B_α-x0598_0_A_α
     RDKit          3D

 28 30  0  0  0  0  0  0  0  0999 V2000
   12.7000   20.9770   13.6940 N   0  0  0  0  0  0  0  0  0  0  0  0
   12.6490   21.4130   15.1060 C   0  0  0  0  0  0  0  0  0  0  0  0
   12.2800   22.8750   15.3740 C   0  0  0  0  0  0  0  0  0  0  0  0
   12.2790   19.5910   13.4680 C   0  0  0  0  0  0  0  0  0  0  0  0
   13.6430   21.4730   12.7910 C   0  0  0  0  0  0  0  0  0  0  0  0
   14.0040   20.8480   11.8010 O   0  0  0  0  0  0  0  0  0  0  0  0
   14.1380   22.7280   13.0910 N   0  0  0  0  0  0  0  0  0  0  0  0
   13.1750   18.6390   14.2180 C   0  0  0  0  0  0  0  0  0  0  0  0
   11.0920   23.2690   14.6040 N   0  0  0  0  0  0  0  0  0  0  0  0
   12.6950   17.6320   14.9710 N   0  0  0  0  0  0  0  0  0  0  0  0
   14.5930   18.6490   14.2520 C   0  0  0  0  0  0  0  0  0  0  0  0
   15.0940   23.3800   12.2400 C   0  0  0  0  0  0  0  0  0  0  0  0
   10.5090   24.6500   14.8490 S   0  0  1  0  0  0  0  0  0  0  0  0
   13.7980   16.9850   15.4990 O   0  0  0  0  0  0  0  0  0  0  0  0
   14.9310   17.5940   15.0650 C   0  0  0  0  0  0  0  0  0  0  0  0
   16.5670   23.1490   12.4440 C   0  0  0  0  0  0  0  0  0  0  0  0
   15.9680   24.4770   12.7930 C   0  0  0  0  0  0  0  0  0  0  0  0
   16.2050   17.0240   15.5390 C   0  0  0  0  0  0  0  0  0  0  0  0
    9.2860   24.4930   16.0100 N   0  0  0  0  0  0  0  0  0  0  0  0
   11.7500   25.4680   15.6680 C   0  0  0  0  0  0  0  0  0  0  0  0
    9.9190   25.4670   13.8080 O   0  0  0  0  0  0  0  0  0  0  0  0
    8.4110   25.5530   16.4670 C   0  0  0  0  0  0  0  0  0  0  0  0
    7.1660   24.9570   17.1190 C   0  0  0  0  0  0  0  0  0  0  0  0
    5.9810   24.8620   16.1420 C   0  0  0  0  0  0  0  0  0  0  0  0
    6.7070   25.7330   18.3520 C   0  0  0  0  0  0  0  0  0  0  0  0
    4.5870   24.6390   16.7610 C   0  0  0  0  0  0  0  0  0  0  0  0
    5.3000   26.2790   18.1800 C   0  0  0  0  0  0  0  0  0  0  0  0
    4.3590   25.2140   18.0440 N   0  0  0  0  0  0  0  0  0  0  0  0
  1  2  1  0
  2  3  1  0
  1  4  1  0
  1  5  1  0
  5  6  2  0
  5  7  1  0
  4  8  1  0
  3  9  1  0
  8 10  2  0
  8 11  1  0
  7 12  1  0
  9 13  2  0
 10 14  1  0
 11 15  2  0
 14 15  1  0
 12 16  1  0
 12 17  1  0
 16 17  1  0
 15 18  1  0
 13 19  1  0
 13 20  1  1
 13 21  2  0
 19 22  1  0
 22 23  1  0
 23 24  1  0
 23 25  1  0
 24 26  1  0
 25 27  1  0
 26 28  1  0
 27 28  1  0
M  END
