x0091_0_B_α-x0905_0_B_α
     RDKit          3D

 21 23  0  0  0  0  0  0  0  0999 V2000
   13.6200   22.5850   14.1980 N   0  0  0  0  0  0  0  0  0  0  0  0
   12.5760   23.6120   14.2150 C   0  0  0  0  0  0  0  0  0  0  0  0
   13.2380   21.4460   15.1020 C   0  0  0  0  0  0  0  0  0  0  0  0
   14.3430   22.4740   12.9920 C   0  0  0  0  0  0  0  0  0  0  0  0
   14.3550   21.3980   12.2650 N   0  0  0  0  0  0  0  0  0  0  0  0
   14.9690   23.6700   12.7780 N   0  0  0  0  0  0  0  0  0  0  0  0
   14.0870   20.2080   15.2890 C   0  0  0  0  0  0  0  0  0  0  0  0
   13.6380   19.2190   16.0930 N   0  0  0  0  0  0  0  0  0  0  0  0
   15.3520   19.8660   14.7430 C   0  0  0  0  0  0  0  0  0  0  0  0
   15.9460   23.8480   11.7130 C   0  0  0  0  0  0  0  0  0  0  0  0
   13.6290   20.3240   12.7350 C   0  0  0  0  0  0  0  0  0  0  0  0
   14.6060   18.2320   16.0740 O   0  0  0  0  0  0  0  0  0  0  0  0
   15.6270   18.6220   15.2660 C   0  0  0  0  0  0  0  0  0  0  0  0
   17.3980   23.5660   11.9770 C   0  0  0  0  0  0  0  0  0  0  0  0
   16.9450   24.9710   11.7310 C   0  0  0  0  0  0  0  0  0  0  0  0
   12.3570   20.5550   13.2020 C   0  0  0  0  0  0  0  0  0  0  0  0
   14.1080   19.0190   12.7790 C   0  0  0  0  0  0  0  0  0  0  0  0
   16.7520   17.6790   15.1340 C   0  0  0  0  0  0  0  0  0  0  0  0
   13.4050   17.9640   13.2600 N   0  0  0  0  0  0  0  0  0  0  0  0
   11.6200   19.5050   13.6980 C   0  0  0  0  0  0  0  0  0  0  0  0
   12.1680   18.2430   13.7110 C   0  0  0  0  0  0  0  0  0  0  0  0
  1  2  1  0
  1  3  1  0
  1  4  1  0
  4  5  2  3
  4  6  1  0
  3  7  1  0
  7  8  2  0
  7  9  1  0
  6 10  1  0
  5 11  1  0
  8 12  1  0
  9 13  2  0
 12 13  1  0
 10 14  1  0
 10 15  1  0
 14 15  1  0
 11 16  2  0
 11 17  1  0
 13 18  1  0
 17 19  2  0
 16 20  1  0
 19 21  1  0
 20 21  2  0
M  END
