x0091_0_B-x0905_0_B
     RDKit          3D

 21 23  0  0  0  0  0  0  0  0999 V2000
   13.6250   22.5990   14.2080 N   0  0  0  0  0  0  0  0  0  0  0  0
   12.5710   23.6150   14.2120 C   0  0  0  0  0  0  0  0  0  0  0  0
   13.2470   21.4570   15.1110 C   0  0  0  0  0  0  0  0  0  0  0  0
   14.3500   22.4900   13.0090 C   0  0  0  0  0  0  0  0  0  0  0  0
   14.3570   21.4150   12.2790 N   0  0  0  0  0  0  0  0  0  0  0  0
   14.9850   23.6850   12.7960 N   0  0  0  0  0  0  0  0  0  0  0  0
   14.0960   20.2130   15.2810 C   0  0  0  0  0  0  0  0  0  0  0  0
   13.6340   19.2090   16.0570 N   0  0  0  0  0  0  0  0  0  0  0  0
   15.3640   19.8860   14.7460 C   0  0  0  0  0  0  0  0  0  0  0  0
   15.9500   23.8550   11.7190 C   0  0  0  0  0  0  0  0  0  0  0  0
   13.6290   20.3420   12.7450 C   0  0  0  0  0  0  0  0  0  0  0  0
   14.6010   18.2220   16.0280 O   0  0  0  0  0  0  0  0  0  0  0  0
   15.6330   18.6300   15.2420 C   0  0  0  0  0  0  0  0  0  0  0  0
   17.4080   23.5750   11.9640 C   0  0  0  0  0  0  0  0  0  0  0  0
   16.9490   24.9760   11.7130 C   0  0  0  0  0  0  0  0  0  0  0  0
   12.3550   20.5670   13.2160 C   0  0  0  0  0  0  0  0  0  0  0  0
   14.1070   19.0380   12.7850 C   0  0  0  0  0  0  0  0  0  0  0  0
   16.7540   17.6890   15.1010 C   0  0  0  0  0  0  0  0  0  0  0  0
   13.4050   17.9810   13.2640 N   0  0  0  0  0  0  0  0  0  0  0  0
   11.6190   19.5150   13.7060 C   0  0  0  0  0  0  0  0  0  0  0  0
   12.1660   18.2550   13.7160 C   0  0  0  0  0  0  0  0  0  0  0  0
  1  2  1  0
  1  3  1  0
  1  4  1  0
  4  5  2  3
  4  6  1  0
  3  7  1  0
  7  8  2  0
  7  9  1  0
  6 10  1  0
  5 11  1  0
  8 12  1  0
  9 13  2  0
 12 13  1  0
 10 14  1  0
 10 15  1  0
 14 15  1  0
 11 16  2  0
 11 17  1  0
 13 18  1  0
 17 19  2  0
 16 20  1  0
 19 21  1  0
 20 21  2  0
M  END
