x0091_0_B_α-x0216_0_A_α
     RDKit          3D

 34 36  0  0  0  0  0  0  0  0999 V2000
   12.8460   21.2290   13.7320 N   0  0  0  0  0  0  0  0  0  0  0  0
   12.1890   22.1300   14.6640 C   0  0  0  0  0  0  0  0  0  0  0  0
   12.3120   19.8550   13.6340 C   0  0  0  0  0  0  0  0  0  0  0  0
   13.7870   21.6050   12.7760 C   0  0  0  0  0  0  0  0  0  0  0  0
   14.0820   20.8380   11.8600 O   0  0  0  0  0  0  0  0  0  0  0  0
   14.3900   22.8610   12.8630 N   0  0  0  0  0  0  0  0  0  0  0  0
   13.1980   18.8340   14.3050 C   0  0  0  0  0  0  0  0  0  0  0  0
   12.6860   17.8070   15.0060 N   0  0  0  0  0  0  0  0  0  0  0  0
   14.6150   18.7730   14.3030 C   0  0  0  0  0  0  0  0  0  0  0  0
   15.3230   23.1170   11.7940 C   0  0  2  0  0  0  0  0  0  0  0  0
   13.7670   17.0770   15.4730 O   0  0  0  0  0  0  0  0  0  0  0  0
   14.9160   17.6550   15.0460 C   0  0  0  0  0  0  0  0  0  0  0  0
   16.7750   22.8810   12.1400 C   0  0  0  0  0  0  0  0  0  0  0  0
   16.3930   24.1710   11.5030 C   0  0  2  0  0  0  0  0  0  0  0  0
   16.1670   16.9960   15.4620 C   0  0  0  0  0  0  0  0  0  0  0  0
   16.8870   25.3960   12.2030 C   0  0  0  0  0  0  0  0  0  0  0  0
   17.8660   26.1980   11.2820 C   0  0  0  0  0  0  0  0  0  0  0  0
   17.8560   25.8600    9.7580 C   0  0  0  0  0  0  0  0  0  0  0  0
   18.9640   26.4840    8.8680 C   0  0  0  0  0  0  0  0  0  0  0  0
   18.5170   27.7010    8.1630 N   0  0  0  0  0  0  0  0  0  0  0  0
   18.7410   28.0600    6.9220 C   0  0  0  0  0  0  0  0  0  0  0  0
   18.2290   29.2190    6.4060 N   0  0  0  0  0  0  0  0  0  0  0  0
   19.4910   27.3190    5.9970 N   0  0  0  0  0  0  0  0  0  0  0  0
   17.1600   29.9340    7.1120 C   0  0  0  0  0  0  0  0  0  0  0  0
   19.3180   27.5910    4.5480 C   0  0  0  0  0  0  0  0  0  0  0  0
   20.8150   26.7330    6.3320 C   0  0  2  0  0  0  0  0  0  0  0  0
   15.8320   29.2680    6.7860 C   0  0  0  0  0  0  0  0  0  0  0  0
   17.1420   31.3980    6.6940 C   0  0  0  0  0  0  0  0  0  0  0  0
   21.9250   27.7960    6.4650 C   0  0  0  0  0  0  0  0  0  0  0  0
   21.2320   25.6040    5.3930 C   0  0  0  0  0  0  0  0  0  0  0  0
   22.7520   27.8300    5.2000 C   0  0  0  0  0  0  0  0  0  0  0  0
   22.6320   26.2190    4.5030 S   0  0  0  0  0  0  0  0  0  0  0  0
   22.1890   26.4180    3.1570 O   0  0  0  0  0  0  0  0  0  0  0  0
   23.8190   25.4260    4.7880 O   0  0  0  0  0  0  0  0  0  0  0  0
  1  2  1  0
  1  3  1  0
  1  4  1  0
  4  5  2  0
  4  6  1  0
  3  7  1  0
  7  8  2  0
  7  9  1  0
 10  6  1  1
  8 11  1  0
  9 12  2  0
 11 12  1  0
 10 13  1  0
 10 14  1  0
 13 14  1  0
 12 15  1  0
 14 16  1  1
 16 17  1  0
 17 18  1  0
 18 19  1  0
 19 20  1  0
 20 21  2  3
 21 22  1  0
 21 23  1  0
 22 24  1  0
 23 25  1  0
 26 23  1  6
 24 27  1  0
 24 28  1  0
 26 29  1  0
 26 30  1  0
 29 31  1  0
 32 30  1  0
 31 32  1  0
 32 33  2  0
 32 34  2  0
M  END
