x0091_0_B-x0598_0_A
     RDKit          3D

 28 30  0  0  0  0  0  0  0  0999 V2000
   12.7120   21.0220   13.6880 N   0  0  0  0  0  0  0  0  0  0  0  0
   12.6460   21.5260   15.0730 C   0  0  0  0  0  0  0  0  0  0  0  0
   12.3340   23.0190   15.2610 C   0  0  0  0  0  0  0  0  0  0  0  0
   12.2780   19.6330   13.4920 C   0  0  0  0  0  0  0  0  0  0  0  0
   13.6460   21.4960   12.7660 C   0  0  0  0  0  0  0  0  0  0  0  0
   14.0060   20.8470   11.7900 O   0  0  0  0  0  0  0  0  0  0  0  0
   14.1340   22.7590   13.0340 N   0  0  0  0  0  0  0  0  0  0  0  0
   13.1760   18.6740   14.2300 C   0  0  0  0  0  0  0  0  0  0  0  0
   10.9920   23.3310   14.7460 N   0  0  0  0  0  0  0  0  0  0  0  0
   12.6960   17.6640   14.9770 N   0  0  0  0  0  0  0  0  0  0  0  0
   14.5960   18.6760   14.2600 C   0  0  0  0  0  0  0  0  0  0  0  0
   15.1300   23.3710   12.1970 C   0  0  0  0  0  0  0  0  0  0  0  0
   10.4400   24.7380   14.8810 S   0  0  1  0  0  0  0  0  0  0  0  0
   13.7970   17.0050   15.4940 O   0  0  0  0  0  0  0  0  0  0  0  0
   14.9290   17.6140   15.0620 C   0  0  0  0  0  0  0  0  0  0  0  0
   16.5900   23.1270   12.4590 C   0  0  0  0  0  0  0  0  0  0  0  0
   15.9980   24.4710   12.7480 C   0  0  0  0  0  0  0  0  0  0  0  0
   16.2020   17.0270   15.5260 C   0  0  0  0  0  0  0  0  0  0  0  0
    9.0300   24.7610   15.8280 N   0  0  0  0  0  0  0  0  0  0  0  0
   11.5950   25.5280   15.8440 C   0  0  0  0  0  0  0  0  0  0  0  0
   10.0040   25.5100   13.7400 O   0  0  0  0  0  0  0  0  0  0  0  0
    8.8790   25.1710   17.2050 C   0  0  0  0  0  0  0  0  0  0  0  0
    7.4330   24.9140   17.6370 C   0  0  0  0  0  0  0  0  0  0  0  0
    6.5530   24.8470   16.3990 C   0  0  0  0  0  0  0  0  0  0  0  0
    6.7890   25.9030   18.6040 C   0  0  0  0  0  0  0  0  0  0  0  0
    5.0450   24.7200   16.6040 C   0  0  0  0  0  0  0  0  0  0  0  0
    5.3890   26.3560   18.1650 C   0  0  0  0  0  0  0  0  0  0  0  0
    4.5310   25.2570   17.8240 N   0  0  0  0  0  0  0  0  0  0  0  0
  1  2  1  0
  2  3  1  0
  1  4  1  0
  1  5  1  0
  5  6  2  0
  5  7  1  0
  4  8  1  0
  3  9  1  0
  8 10  2  0
  8 11  1  0
  7 12  1  0
  9 13  2  0
 10 14  1  0
 11 15  2  0
 14 15  1  0
 12 16  1  0
 12 17  1  0
 16 17  1  0
 15 18  1  0
 13 19  1  0
 13 20  1  1
 13 21  2  0
 19 22  1  0
 22 23  1  0
 23 24  1  0
 23 25  1  0
 24 26  1  0
 25 27  1  0
 26 28  1  0
 27 28  1  0
M  END
