x0091_0_B_α-x0918_4_B_α
     RDKit          3D

 21 23  0  0  0  0  0  0  0  0999 V2000
   12.2690   19.6150   14.1770 N   0  0  0  0  0  0  0  0  0  0  0  0
   11.8290   20.4470   15.2900 C   0  0  0  0  0  0  0  0  0  0  0  0
   11.8770   18.1940   14.2470 C   0  0  0  0  0  0  0  0  0  0  0  0
   13.1540   20.1490   13.1990 C   0  0  0  0  0  0  0  0  0  0  0  0
   13.2160   19.6270   12.0650 O   0  0  0  0  0  0  0  0  0  0  0  0
   13.9770   21.3010   13.6020 N   0  0  0  0  0  0  0  0  0  0  0  0
   12.9080   17.3640   14.9460 C   0  0  0  0  0  0  0  0  0  0  0  0
   12.7260   16.9610   16.2170 N   0  0  0  0  0  0  0  0  0  0  0  0
   14.1420   16.8950   14.4400 C   0  0  0  0  0  0  0  0  0  0  0  0
   14.8520   21.8620   12.5210 C   0  0  0  0  0  0  0  0  0  0  0  0
   13.4210   22.1310   14.6580 C   0  0  0  0  0  0  0  0  0  0  0  0
   13.8520   16.2260   16.5460 O   0  0  0  0  0  0  0  0  0  0  0  0
   14.6950   16.1880   15.4800 C   0  0  0  0  0  0  0  0  0  0  0  0
   15.9900   22.8320   12.6830 C   0  0  0  0  0  0  0  0  0  0  0  0
   14.7560   23.2380   11.9180 C   0  0  0  0  0  0  0  0  0  0  0  0
   12.8090   22.1680   13.4660 C   0  0  0  0  0  0  0  0  0  0  0  0
   14.4770   21.5560   15.2830 C   0  0  0  0  0  0  0  0  0  0  0  0
   15.9470   15.4390   15.6580 C   0  0  0  0  0  0  0  0  0  0  0  0
   13.5510   21.3180   12.6240 C   0  0  0  0  0  0  0  0  0  0  0  0
   15.1400   20.7390   14.3800 C   0  0  0  0  0  0  0  0  0  0  0  0
   14.6980   20.6130   13.0700 N   0  0  0  0  0  0  0  0  0  0  0  0
  1  2  1  0
  1  3  1  0
  1  4  1  0
  4  5  2  0
  4  6  1  0
  3  7  1  0
  7  8  2  0
  7  9  1  0
  6 10  1  0
  6 11  1  0
  8 12  1  0
  9 13  2  0
 12 13  1  0
 10 14  1  0
 10 15  1  0
 14 15  1  0
 11 16  2  0
 11 17  1  0
 13 18  1  0
 16 19  1  0
 17 20  2  0
 19 21  2  0
 20 21  1  0
M  END
