x0091_0_B-x0918_4_B
     RDKit          3D

 21 23  0  0  0  0  0  0  0  0999 V2000
   12.2770   19.5930   14.1940 N   0  0  0  0  0  0  0  0  0  0  0  0
   11.8320   20.4200   15.3110 C   0  0  0  0  0  0  0  0  0  0  0  0
   11.8750   18.1770   14.2430 C   0  0  0  0  0  0  0  0  0  0  0  0
   13.1370   20.1430   13.2060 C   0  0  0  0  0  0  0  0  0  0  0  0
   13.1910   19.6250   12.0680 O   0  0  0  0  0  0  0  0  0  0  0  0
   13.9490   21.3020   13.6030 N   0  0  0  0  0  0  0  0  0  0  0  0
   12.9010   17.3290   14.9320 C   0  0  0  0  0  0  0  0  0  0  0  0
   12.7350   16.9620   16.2170 N   0  0  0  0  0  0  0  0  0  0  0  0
   14.1100   16.8110   14.4100 C   0  0  0  0  0  0  0  0  0  0  0  0
   14.8250   21.8610   12.5240 C   0  0  0  0  0  0  0  0  0  0  0  0
   13.3880   22.1360   14.6530 C   0  0  0  0  0  0  0  0  0  0  0  0
   13.8440   16.2010   16.5370 O   0  0  0  0  0  0  0  0  0  0  0  0
   14.6640   16.1130   15.4570 C   0  0  0  0  0  0  0  0  0  0  0  0
   15.9720   22.8200   12.6900 C   0  0  0  0  0  0  0  0  0  0  0  0
   14.7400   23.2400   11.9320 C   0  0  0  0  0  0  0  0  0  0  0  0
   12.7610   22.1440   13.4730 C   0  0  0  0  0  0  0  0  0  0  0  0
   14.4610   21.5910   15.2750 C   0  0  0  0  0  0  0  0  0  0  0  0
   15.9000   15.3310   15.6350 C   0  0  0  0  0  0  0  0  0  0  0  0
   13.5000   21.2940   12.6310 C   0  0  0  0  0  0  0  0  0  0  0  0
   15.1240   20.7680   14.3710 C   0  0  0  0  0  0  0  0  0  0  0  0
   14.6670   20.6140   13.0710 N   0  0  0  0  0  0  0  0  0  0  0  0
  1  2  1  0
  1  3  1  0
  1  4  1  0
  4  5  2  0
  4  6  1  0
  3  7  1  0
  7  8  2  0
  7  9  1  0
  6 10  1  0
  6 11  1  0
  8 12  1  0
  9 13  2  0
 12 13  1  0
 10 14  1  0
 10 15  1  0
 14 15  1  0
 11 16  2  0
 11 17  1  0
 13 18  1  0
 16 19  1  0
 17 20  2  0
 19 21  2  0
 20 21  1  0
M  END
