x0091_0_B_α-x0228_1_A_α
     RDKit          3D

 27 29  0  0  0  0  0  0  0  0999 V2000
   12.8350   21.2080   13.8570 N   0  0  0  0  0  0  0  0  0  0  0  0
   12.8940   21.8820   15.1780 C   0  0  0  0  0  0  0  0  0  0  0  0
   11.5580   22.4880   15.5980 C   0  0  0  0  0  0  0  0  0  0  0  0
   12.3010   19.8320   13.7790 C   0  0  0  0  0  0  0  0  0  0  0  0
   13.6840   21.5850   12.8190 C   0  0  0  0  0  0  0  0  0  0  0  0
   14.0000   20.8360   11.8930 O   0  0  0  0  0  0  0  0  0  0  0  0
   14.1390   22.8780   12.9210 N   0  0  0  0  0  0  0  0  0  0  0  0
   13.2040   18.7990   14.3950 C   0  0  0  0  0  0  0  0  0  0  0  0
   11.6210   23.7080   16.5380 C   0  0  0  0  0  0  0  0  0  0  0  0
   12.7050   17.7390   15.0500 N   0  0  0  0  0  0  0  0  0  0  0  0
   14.6210   18.7620   14.3960 C   0  0  0  0  0  0  0  0  0  0  0  0
   15.1970   23.3930   12.1100 C   0  0  0  0  0  0  0  0  0  0  0  0
   10.3440   23.8580   17.4140 C   0  0  0  0  0  0  0  0  0  0  0  0
   13.7940   17.0050   15.4830 O   0  0  0  0  0  0  0  0  0  0  0  0
   14.9390   17.6190   15.0910 C   0  0  0  0  0  0  0  0  0  0  0  0
   16.6320   23.1230   12.4710 C   0  0  0  0  0  0  0  0  0  0  0  0
   16.0670   24.4990   12.6420 C   0  0  0  0  0  0  0  0  0  0  0  0
   16.2040   16.9680   15.4720 C   0  0  0  0  0  0  0  0  0  0  0  0
    9.5060   25.1440   17.1620 C   0  0  0  0  0  0  0  0  0  0  0  0
    8.0440   25.0120   17.4050 N   0  0  0  0  0  0  0  0  0  0  0  0
    7.6230   25.9720   18.4500 N   0  0  0  0  0  0  0  0  0  0  0  0
    7.2030   25.3520   16.2500 C   0  0  0  0  0  0  0  0  0  0  0  0
    6.0480   26.1140   16.6950 N   0  0  0  0  0  0  0  0  0  0  0  0
    6.2970   26.5090   18.0780 C   0  0  0  0  0  0  0  0  0  0  0  0
    4.7670   25.6620   16.2990 N   0  0  0  0  0  0  0  0  0  0  0  0
    3.7310   26.5290   16.0660 C   0  0  0  0  0  0  0  0  0  0  0  0
    3.6670   27.6980   16.4190 O   0  0  0  0  0  0  0  0  0  0  0  0
  1  2  1  0
  2  3  1  0
  1  4  1  0
  1  5  1  0
  5  6  2  0
  5  7  1  0
  4  8  1  0
  3  9  1  0
  8 10  2  0
  8 11  1  0
  7 12  1  0
  9 13  1  0
 10 14  1  0
 11 15  2  0
 14 15  1  0
 12 16  1  0
 12 17  1  0
 16 17  1  0
 15 18  1  0
 13 19  1  0
 19 20  1  0
 20 21  1  0
 20 22  1  0
 22 23  1  0
 21 24  1  0
 23 24  1  0
 23 25  1  0
 25 26  1  0
 26 27  2  0
M  END
