x0091_0_B_α-x0792_0_A_α
     RDKit          3D

 26 28  0  0  0  0  0  0  0  0999 V2000
   12.8230   21.0730   13.8340 N   0  0  0  0  0  0  0  0  0  0  0  0
   13.0700   21.4140   15.2470 C   0  0  0  0  0  0  0  0  0  0  0  0
   11.8610   21.8810   16.0580 C   0  0  0  0  0  0  0  0  0  0  0  0
   12.2830   19.7190   13.6350 C   0  0  0  0  0  0  0  0  0  0  0  0
   13.6440   21.5400   12.8140 C   0  0  0  0  0  0  0  0  0  0  0  0
   13.9590   20.8510   11.8440 O   0  0  0  0  0  0  0  0  0  0  0  0
   14.0880   22.8330   12.9720 N   0  0  0  0  0  0  0  0  0  0  0  0
   13.1860   18.7200   14.2990 C   0  0  0  0  0  0  0  0  0  0  0  0
   11.2010   20.7660   16.8800 C   0  0  0  0  0  0  0  0  0  0  0  0
   12.6950   17.6620   14.9730 N   0  0  0  0  0  0  0  0  0  0  0  0
   14.6050   18.7200   14.3320 C   0  0  0  0  0  0  0  0  0  0  0  0
   15.1290   23.3900   12.1610 C   0  0  0  0  0  0  0  0  0  0  0  0
    9.8620   21.1220   17.2300 O   0  0  0  0  0  0  0  0  0  0  0  0
   13.7960   16.9680   15.4490 O   0  0  0  0  0  0  0  0  0  0  0  0
   14.9320   17.6040   15.0630 C   0  0  0  0  0  0  0  0  0  0  0  0
   16.5700   23.1010   12.4900 C   0  0  0  0  0  0  0  0  0  0  0  0
   16.0170   24.4750   12.7120 C   0  0  0  0  0  0  0  0  0  0  0  0
   16.2040   16.9930   15.4890 C   0  0  0  0  0  0  0  0  0  0  0  0
    9.6690   21.4100   18.6020 C   0  0  0  0  0  0  0  0  0  0  0  0
    9.1040   22.8300   18.9020 C   0  0  1  0  0  0  0  0  0  0  0  0
    8.9170   23.8330   17.7460 C   0  0  0  0  0  0  0  0  0  0  0  0
    7.8820   22.8040   19.8380 C   0  0  0  0  0  0  0  0  0  0  0  0
    6.8890   23.8490   19.6350 N   0  0  0  0  0  0  0  0  0  0  0  0
    8.5180   25.2280   18.2730 C   0  0  1  0  0  0  0  0  0  0  0  0
    8.2630   26.3020   17.2140 C   0  0  0  0  0  0  0  0  0  0  0  0
    7.4310   25.1760   19.3360 C   0  0  0  0  0  0  0  0  0  0  0  0
  1  2  1  0
  2  3  1  0
  1  4  1  0
  1  5  1  0
  5  6  2  0
  5  7  1  0
  4  8  1  0
  3  9  1  0
  8 10  2  0
  8 11  1  0
  7 12  1  0
  9 13  1  0
 10 14  1  0
 11 15  2  0
 14 15  1  0
 12 16  1  0
 12 17  1  0
 16 17  1  0
 15 18  1  0
 13 19  1  0
 20 19  1  6
 20 21  1  0
 20 22  1  0
 22 23  1  0
 21 24  1  0
 24 25  1  6
 23 26  1  0
 24 26  1  0
M  END
