x0091_0_B-x0142_0_A
     RDKit          3D

 36 39  0  0  0  0  0  0  0  0999 V2000
   12.6470   20.9980   13.6510 N   0  0  0  0  0  0  0  0  0  0  0  0
   12.1710   21.8740   14.7110 C   0  0  0  0  0  0  0  0  0  0  0  0
   12.1560   19.6160   13.6440 C   0  0  0  0  0  0  0  0  0  0  0  0
   13.5880   21.3590   12.7020 C   0  0  0  0  0  0  0  0  0  0  0  0
   13.7730   20.7300   11.6670 O   0  0  0  0  0  0  0  0  0  0  0  0
   14.3260   22.4790   12.9940 N   0  0  0  0  0  0  0  0  0  0  0  0
   13.1160   18.6770   14.3180 C   0  0  0  0  0  0  0  0  0  0  0  0
   12.6640   17.6950   15.1120 N   0  0  0  0  0  0  0  0  0  0  0  0
   14.5350   18.6490   14.2550 C   0  0  0  0  0  0  0  0  0  0  0  0
   15.5920   22.6450   12.3570 C   0  0  0  0  0  0  0  0  0  0  0  0
   13.7800   17.0200   15.5690 O   0  0  0  0  0  0  0  0  0  0  0  0
   14.9000   17.5920   15.0560 C   0  0  0  0  0  0  0  0  0  0  0  0
   16.7250   21.7350   12.7240 C   0  0  0  0  0  0  0  0  0  0  0  0
   16.7830   23.1660   13.1120 C   0  0  0  0  0  0  0  0  0  0  0  0
   16.1890   16.9770   15.4560 C   0  0  0  0  0  0  0  0  0  0  0  0
   16.4400   15.6190   14.7830 C   0  0  0  0  0  0  0  0  0  0  0  0
   15.2950   14.6080   14.9330 C   0  0  0  0  0  0  0  0  0  0  0  0
   15.3800   13.6080   16.0950 C   0  0  0  0  0  0  0  0  0  0  0  0
   15.2330   12.1440   15.6780 C   0  0  0  0  0  0  0  0  0  0  0  0
   15.6470   12.0160   14.3250 O   0  0  0  0  0  0  0  0  0  0  0  0
   15.4240   10.8380   13.6670 C   0  0  0  0  0  0  0  0  0  0  0  0
   14.8350    9.8180   14.4180 C   0  0  0  0  0  0  0  0  0  0  0  0
   15.7420   10.6010   12.3350 C   0  0  0  0  0  0  0  0  0  0  0  0
   14.5680    8.5710   13.8350 C   0  0  0  0  0  0  0  0  0  0  0  0
   15.4750    9.3540   11.7510 C   0  0  0  0  0  0  0  0  0  0  0  0
   14.8880    8.3310   12.4940 C   0  0  0  0  0  0  0  0  0  0  0  0
   14.5900    7.0530   11.9730 N   0  0  0  0  0  0  0  0  0  0  0  0
   14.8060    6.5850   10.6810 C   0  0  0  0  0  0  0  0  0  0  0  0
   14.9690    5.2010   10.7280 N   0  0  0  0  0  0  0  0  0  0  0  0
   14.8480    7.2850    9.6610 O   0  0  0  0  0  0  0  0  0  0  0  0
   15.0800    4.2930    9.6560 C   0  0  0  0  0  0  0  0  0  0  0  0
   15.8400    4.5170    8.5190 C   0  0  0  0  0  0  0  0  0  0  0  0
   14.3770    3.0900    9.7550 C   0  0  0  0  0  0  0  0  0  0  0  0
   15.8650    3.5390    7.5360 C   0  0  0  0  0  0  0  0  0  0  0  0
   14.4650    2.1750    8.7180 C   0  0  0  0  0  0  0  0  0  0  0  0
   15.1940    2.3720    7.6070 N   0  0  0  0  0  0  0  0  0  0  0  0
  1  2  1  0
  1  3  1  0
  1  4  1  0
  4  5  2  0
  4  6  1  0
  3  7  1  0
  7  8  2  0
  7  9  1  0
  6 10  1  0
  8 11  1  0
  9 12  2  0
 11 12  1  0
 10 13  1  0
 10 14  1  0
 13 14  1  0
 12 15  1  0
 15 16  1  0
 16 17  1  0
 17 18  1  0
 18 19  1  0
 19 20  1  0
 20 21  1  0
 21 22  2  0
 21 23  1  0
 22 24  1  0
 23 25  2  0
 24 26  2  0
 25 26  1  0
 26 27  1  0
 27 28  1  0
 28 29  1  0
 28 30  2  0
 29 31  1  0
 31 32  2  0
 31 33  1  0
 32 34  1  0
 33 35  2  0
 34 36  2  0
 35 36  1  0
M  END
