x0091_0_B_α-x0301_0_B_α
     RDKit          3D

 32 34  0  0  0  0  0  0  0  0999 V2000
   12.6830   20.9160   13.5320 N   0  0  0  0  0  0  0  0  0  0  0  0
   12.3010   21.9840   14.4390 C   0  0  0  0  0  0  0  0  0  0  0  0
   12.1000   19.5950   13.7670 C   0  0  0  0  0  0  0  0  0  0  0  0
   13.6440   21.1500   12.5520 C   0  0  0  0  0  0  0  0  0  0  0  0
   13.9610   20.2400   11.7690 O   0  0  0  0  0  0  0  0  0  0  0  0
   14.1840   22.4330   12.5150 N   0  0  0  0  0  0  0  0  0  0  0  0
   13.1040   18.6720   14.3950 C   0  0  0  0  0  0  0  0  0  0  0  0
   12.6870   17.6080   15.0970 N   0  0  0  0  0  0  0  0  0  0  0  0
   14.5200   18.7320   14.3710 C   0  0  0  0  0  0  0  0  0  0  0  0
   15.5430   22.7320   12.8680 C   0  0  2  0  0  0  0  0  0  0  0  0
   13.8280   16.9640   15.5380 O   0  0  0  0  0  0  0  0  0  0  0  0
   14.9240   17.6370   15.1020 C   0  0  0  0  0  0  0  0  0  0  0  0
   15.9540   24.1680   13.0680 C   0  0  0  0  0  0  0  0  0  0  0  0
   16.6050   23.3660   11.9880 C   0  0  2  0  0  0  0  0  0  0  0  0
   16.2290   17.0750   15.4870 C   0  0  0  0  0  0  0  0  0  0  0  0
   16.5110   23.7230   10.5340 C   0  0  0  0  0  0  0  0  0  0  0  0
   17.4330   24.8070    9.9650 C   0  0  0  0  0  0  0  0  0  0  0  0
   17.5470   24.7630    8.4330 C   0  0  0  0  0  0  0  0  0  0  0  0
   18.9760   24.9240    7.8760 C   0  0  0  0  0  0  0  0  0  0  0  0
   19.2690   26.3770    7.4360 C   0  0  0  0  0  0  0  0  0  0  0  0
   20.0160   26.5910    6.0730 C   0  0  0  0  0  0  0  0  0  0  0  0
   21.4680   27.0530    6.3960 C   0  0  0  0  0  0  0  0  0  0  0  0
   20.1750   25.2920    5.2630 C   0  0  0  0  0  0  0  0  0  0  0  0
   19.3960   27.6840    5.1720 C   0  0  0  0  0  0  0  0  0  0  0  0
   18.5580   28.6570    5.5900 N   0  0  0  0  0  0  0  0  0  0  0  0
   19.6600   27.7060    3.9570 O   0  0  0  0  0  0  0  0  0  0  0  0
   18.1270   29.8300    5.0680 C   0  0  0  0  0  0  0  0  0  0  0  0
   18.4270   30.3500    3.8450 N   0  0  0  0  0  0  0  0  0  0  0  0
   17.3110   30.6180    5.7800 N   0  0  0  0  0  0  0  0  0  0  0  0
   17.1460   31.6320    4.9170 N   0  0  0  0  0  0  0  0  0  0  0  0
   17.7940   31.5100    3.7500 N   0  0  0  0  0  0  0  0  0  0  0  0
   16.3310   32.7740    5.2270 C   0  0  0  0  0  0  0  0  0  0  0  0
  1  2  1  0
  1  3  1  0
  1  4  1  0
  4  5  2  0
  4  6  1  0
  3  7  1  0
  7  8  2  0
  7  9  1  0
 10  6  1  6
  8 11  1  0
  9 12  2  0
 11 12  1  0
 10 13  1  0
 10 14  1  0
 13 14  1  0
 12 15  1  0
 14 16  1  6
 16 17  1  0
 17 18  1  0
 18 19  1  0
 19 20  1  0
 20 21  1  0
 21 22  1  0
 21 23  1  0
 21 24  1  0
 24 25  1  0
 24 26  2  0
 25 27  1  0
 27 28  1  0
 27 29  2  0
 29 30  1  0
 28 31  2  0
 30 31  1  0
 30 32  1  0
M  END
