x0091_0_B-x0598_0_A
     RDKit          3D

 28 30  0  0  0  0  0  0  0  0999 V2000
   13.2200   21.1700   14.1030 N   0  0  0  0  0  0  0  0  0  0  0  0
   12.7320   22.1280   15.1620 C   0  0  0  0  0  0  0  0  0  0  0  0
   12.1850   23.5480   14.7360 C   0  0  0  0  0  0  0  0  0  0  0  0
   12.6240   19.8070   14.0250 C   0  0  0  0  0  0  0  0  0  0  0  0
   13.8810   21.5940   12.9520 C   0  0  0  0  0  0  0  0  0  0  0  0
   14.1600   20.8480   12.0140 O   0  0  0  0  0  0  0  0  0  0  0  0
   14.1920   22.9300   12.9500 N   0  0  0  0  0  0  0  0  0  0  0  0
   13.4870   18.7320   14.5770 C   0  0  0  0  0  0  0  0  0  0  0  0
   10.7260   23.7790   15.0710 N   0  0  0  0  0  0  0  0  0  0  0  0
   12.9590   17.6570   15.1870 N   0  0  0  0  0  0  0  0  0  0  0  0
   14.8960   18.6640   14.5540 C   0  0  0  0  0  0  0  0  0  0  0  0
   15.2390   23.4490   12.1250 C   0  0  0  0  0  0  0  0  0  0  0  0
    9.8540   24.8090   14.3040 S   0  0  1  0  0  0  0  0  0  0  0  0
   14.0290   16.8780   15.5690 O   0  0  0  0  0  0  0  0  0  0  0  0
   15.1840   17.4850   15.1890 C   0  0  0  0  0  0  0  0  0  0  0  0
   16.6760   23.1700   12.4670 C   0  0  0  0  0  0  0  0  0  0  0  0
   16.1200   24.5490   12.6500 C   0  0  0  0  0  0  0  0  0  0  0  0
   16.4270   16.7780   15.5260 C   0  0  0  0  0  0  0  0  0  0  0  0
    9.0020   25.5910   15.5140 N   0  0  0  0  0  0  0  0  0  0  0  0
   10.9560   25.8150   13.4700 C   0  0  0  0  0  0  0  0  0  0  0  0
    8.7500   24.6040   13.3710 O   0  0  0  0  0  0  0  0  0  0  0  0
    8.9730   25.1090   16.8780 C   0  0  0  0  0  0  0  0  0  0  0  0
    7.5430   24.8290   17.3060 C   0  0  0  0  0  0  0  0  0  0  0  0
    6.6160   24.9170   16.0980 C   0  0  0  0  0  0  0  0  0  0  0  0
    6.9580   25.7150   18.4100 C   0  0  0  0  0  0  0  0  0  0  0  0
    5.1450   24.7250   16.4120 C   0  0  0  0  0  0  0  0  0  0  0  0
    5.5660   26.2650   18.0810 C   0  0  0  0  0  0  0  0  0  0  0  0
    4.6480   25.2480   17.6490 N   0  0  0  0  0  0  0  0  0  0  0  0
  1  2  1  0
  2  3  1  0
  1  4  1  0
  1  5  1  0
  5  6  2  0
  5  7  1  0
  4  8  1  0
  3  9  1  0
  8 10  2  0
  8 11  1  0
  7 12  1  0
  9 13  2  0
 10 14  1  0
 11 15  2  0
 14 15  1  0
 12 16  1  0
 12 17  1  0
 16 17  1  0
 15 18  1  0
 13 19  1  0
 13 20  1  6
 13 21  2  0
 19 22  1  0
 22 23  1  0
 23 24  1  0
 23 25  1  0
 24 26  1  0
 25 27  1  0
 26 28  1  0
 27 28  1  0
M  END
