x0091_0_B-x0814_0_B
     RDKit          3D

 31 33  0  0  0  0  0  0  0  0999 V2000
   12.6410   21.0740   13.6210 N   0  0  0  0  0  0  0  0  0  0  0  0
   12.1740   21.9330   14.6970 C   0  0  0  0  0  0  0  0  0  0  0  0
   12.1370   19.6950   13.6060 C   0  0  0  0  0  0  0  0  0  0  0  0
   13.5850   21.4160   12.6870 C   0  0  0  0  0  0  0  0  0  0  0  0
   13.7070   20.8290   11.6150 O   0  0  0  0  0  0  0  0  0  0  0  0
   14.4640   22.4300   12.9370 N   0  0  0  0  0  0  0  0  0  0  0  0
   13.0920   18.7850   14.3210 C   0  0  0  0  0  0  0  0  0  0  0  0
   12.6380   17.8260   15.1460 N   0  0  0  0  0  0  0  0  0  0  0  0
   14.5090   18.7690   14.2650 C   0  0  0  0  0  0  0  0  0  0  0  0
   15.8710   22.1480   12.8880 C   0  0  0  0  0  0  0  0  0  0  0  0
   13.7570   17.1770   15.6290 O   0  0  0  0  0  0  0  0  0  0  0  0
   14.8760   17.7410   15.1010 C   0  0  0  0  0  0  0  0  0  0  0  0
   16.8400   22.8800   13.7590 C   0  0  0  0  0  0  0  0  0  0  0  0
   16.9100   23.0550   12.2810 C   0  0  0  0  0  0  0  0  0  0  0  0
   16.1620   17.1420   15.5290 C   0  0  0  0  0  0  0  0  0  0  0  0
   16.2550   15.6640   15.1300 C   0  0  0  0  0  0  0  0  0  0  0  0
   15.3460   15.3350   13.9410 C   0  0  0  0  0  0  0  0  0  0  0  0
   16.1710   15.2770   12.7560 N   0  0  0  0  0  0  0  0  0  0  0  0
   16.2830   14.3270   11.8980 C   0  0  0  0  0  0  0  0  0  0  0  0
   17.1650   14.4580   10.8700 N   0  0  0  0  0  0  0  0  0  0  0  0
   15.4590   12.9830   11.9990 C   0  0  2  0  0  0  0  0  0  0  0  0
   14.8230   12.4670   10.7020 C   0  0  0  0  0  0  0  0  0  0  0  0
   14.3980   12.8460   13.1180 C   0  0  1  0  0  0  0  0  0  0  0  0
   13.8800   14.1280   13.7380 C   0  0  0  0  0  0  0  0  0  0  0  0
   13.1960   12.1050   12.5810 N   0  0  0  0  0  0  0  0  0  0  0  0
   14.2930   11.0220   10.7790 C   0  0  0  0  0  0  0  0  0  0  0  0
   11.6470   12.4430   13.1390 S   0  0  0  0  0  0  0  0  0  0  0  0
   13.3680   10.8070   11.9340 C   0  0  0  0  0  0  0  0  0  0  0  0
   11.5450   13.8650   12.9070 O   0  0  0  0  0  0  0  0  0  0  0  0
   10.6870   11.5040   12.5730 O   0  0  0  0  0  0  0  0  0  0  0  0
   11.8230   12.1210   14.8880 C   0  0  0  0  0  0  0  0  0  0  0  0
  1  2  1  0
  1  3  1  0
  1  4  1  0
  4  5  2  0
  4  6  1  0
  3  7  1  0
  7  8  2  0
  7  9  1  0
  6 10  1  0
  8 11  1  0
  9 12  2  0
 11 12  1  0
 10 13  1  0
 10 14  1  0
 13 14  1  0
 12 15  1  0
 15 16  1  0
 16 17  1  0
 17 18  1  0
 18 19  2  3
 19 20  1  0
 21 19  1  6
 21 22  1  0
 21 23  1  0
 23 24  1  6
 23 25  1  0
 22 26  1  0
 25 27  1  0
 25 28  1  0
 26 28  1  0
 27 29  2  0
 27 30  2  0
 27 31  1  0
M  END
