x0104_0_A_β-x0371_0_A_α
     RDKit          3D

 16 17  0  0  0  0  0  0  0  0999 V2000
   -7.1260   14.7050    2.8710 N   0  0  0  0  0  0  0  0  0  0  0  0
   -8.2640   15.4010    3.3540 C   0  0  0  0  0  0  0  0  0  0  0  0
   -9.1220   15.9140    2.6290 O   0  0  0  0  0  0  0  0  0  0  0  0
   -6.4920   14.7400    1.5820 C   0  0  0  0  0  0  0  0  0  0  0  0
   -5.1080   14.8160    1.3470 C   0  0  0  0  0  0  0  0  0  0  0  0
   -7.3040   14.6990    0.4440 C   0  0  0  0  0  0  0  0  0  0  0  0
   -8.3750   15.4950    4.8190 C   0  0  0  0  0  0  0  0  0  0  0  0
   -4.5260   14.8530    0.1060 N   0  0  0  0  0  0  0  0  0  0  0  0
   -6.7370   14.7390   -0.8330 C   0  0  0  0  0  0  0  0  0  0  0  0
   -7.9480   14.4280    5.5640 O   0  0  0  0  0  0  0  0  0  0  0  0
   -8.8410   16.4650    5.6990 C   0  0  0  0  0  0  0  0  0  0  0  0
   -5.3610   14.8160   -0.9540 C   0  0  0  0  0  0  0  0  0  0  0  0
   -8.1260   14.7090    6.8740 C   0  0  0  0  0  0  0  0  0  0  0  0
   -8.6780   15.9540    7.0160 C   0  0  0  0  0  0  0  0  0  0  0  0
   -4.8770   14.8510   -2.2550 O   0  0  0  0  0  0  0  0  0  0  0  0
   -3.4840   15.0980   -2.3560 C   0  0  0  0  0  0  0  0  0  0  0  0
  1  2  1  0
  2  3  2  0
  1  4  1  0
  4  5  2  0
  4  6  1  0
  2  7  1  0
  5  8  1  0
  6  9  2  0
  7 10  1  0
  7 11  2  0
  8 12  2  0
  9 12  1  0
 10 13  1  0
 11 14  1  0
 13 14  2  0
 12 15  1  0
 15 16  1  0
M  END
