x0104_0_A_β-x0837_0_A_α
     RDKit          3D

  9  9  0  0  0  0  0  0  0  0999 V2000
   -6.8530   14.7220    2.6350 N   0  0  0  0  0  0  0  0  0  0  0  0
   -6.2950   14.7300    1.3580 C   0  0  0  0  0  0  0  0  0  0  0  0
   -7.1230   14.7110    0.2410 C   0  0  0  0  0  0  0  0  0  0  0  0
   -4.9150   14.7670    1.1230 C   0  0  0  0  0  0  0  0  0  0  0  0
   -4.3430   14.7830   -0.1070 N   0  0  0  0  0  0  0  0  0  0  0  0
   -6.5740   14.7320   -1.0300 C   0  0  0  0  0  0  0  0  0  0  0  0
   -5.1960   14.7690   -1.1580 C   0  0  0  0  0  0  0  0  0  0  0  0
   -4.7250   14.7850   -2.4530 O   0  0  0  0  0  0  0  0  0  0  0  0
   -3.3390   15.0750   -2.5580 C   0  0  0  0  0  0  0  0  0  0  0  0
  1  2  1  0
  2  3  2  0
  2  4  1  0
  4  5  2  0
  3  6  1  0
  5  7  1  0
  6  7  2  0
  7  8  1  0
  8  9  1  0
M  END
