x0104_0_A_α-x0681_0_A_α
     RDKit          3D

 22 24  0  0  0  0  0  0  0  0999 V2000
   -8.0860   15.2330    3.7540 C   0  0  0  0  0  0  0  0  0  0  0  0
   -8.3260   15.6440    5.0040 N   0  0  0  0  0  0  0  0  0  0  0  0
   -9.4600   15.3860    5.6750 C   0  0  0  0  0  0  0  0  0  0  0  0
   -8.8320   15.1720    2.7220 N   0  0  0  0  0  0  0  0  0  0  0  0
   -8.1770   14.6420    1.5810 C   0  0  0  0  0  0  0  0  0  0  0  0
   -6.7820   14.3270    2.1130 C   0  0  0  0  0  0  0  0  0  0  0  0
   -9.5600   15.2780    7.0430 C   0  0  0  0  0  0  0  0  0  0  0  0
  -10.9830   15.1430    4.9210 S   0  0  0  0  0  0  0  0  0  0  0  0
  -10.8870   15.0000    7.4740 C   0  0  0  0  0  0  0  0  0  0  0  0
  -11.7620   14.9010    6.4180 C   0  0  0  0  0  0  0  0  0  0  0  0
   -5.6490   14.4880    1.1250 C   0  0  2  0  0  0  0  0  0  0  0  0
   -5.5130   13.3860    0.2400 N   0  0  0  0  0  0  0  0  0  0  0  0
   -4.2890   14.8860    1.7010 C   0  0  0  0  0  0  0  0  0  0  0  0
   -4.4290   13.2280   -0.5510 C   0  0  0  0  0  0  0  0  0  0  0  0
   -3.3990   15.3130    0.5480 C   0  0  0  0  0  0  0  0  0  0  0  0
   -6.3800   12.3580    0.0300 C   0  0  0  0  0  0  0  0  0  0  0  0
   -3.2890   14.2140   -0.5420 C   0  0  2  0  0  0  0  0  0  0  0  0
   -4.5590   12.1360   -1.2790 N   0  0  0  0  0  0  0  0  0  0  0  0
   -5.7680   11.5910   -0.9220 C   0  0  0  0  0  0  0  0  0  0  0  0
   -3.2440   14.8520   -1.9190 C   0  0  0  0  0  0  0  0  0  0  0  0
   -4.4380   15.3350   -2.3650 N   0  0  0  0  0  0  0  0  0  0  0  0
   -2.2380   14.9340   -2.6150 O   0  0  0  0  0  0  0  0  0  0  0  0
  1  2  1  0
  2  3  1  0
  1  4  2  3
  4  5  1  0
  5  6  1  0
  3  7  2  0
  3  8  1  0
  7  9  1  0
  8 10  1  0
  9 10  2  0
 11  6  1  1
 11 12  1  0
 11 13  1  0
 12 14  1  0
 13 15  1  0
 12 16  1  0
 14 17  1  0
 15 17  1  0
 14 18  2  0
 16 19  2  0
 18 19  1  0
 17 20  1  6
 20 21  1  0
 20 22  2  0
M  END
