x0104_0_A_β-x0962_3_A_α
     RDKit          3D

 22 23  0  0  0  0  0  0  0  0999 V2000
   -6.8780   14.6100    2.6890 N   0  0  0  0  0  0  0  0  0  0  0  0
   -6.3410   14.7340    1.4090 C   0  0  0  0  0  0  0  0  0  0  0  0
   -7.1690   14.6400    0.2970 C   0  0  0  0  0  0  0  0  0  0  0  0
   -4.9810   14.9630    1.1660 C   0  0  0  0  0  0  0  0  0  0  0  0
   -4.4210   15.1010   -0.0600 N   0  0  0  0  0  0  0  0  0  0  0  0
   -6.6310   14.7760   -0.9780 C   0  0  0  0  0  0  0  0  0  0  0  0
   -5.2730   15.0030   -1.1020 C   0  0  0  0  0  0  0  0  0  0  0  0
   -4.8180   15.1290   -2.3930 O   0  0  0  0  0  0  0  0  0  0  0  0
   -3.4020   15.0790   -2.5300 C   0  0  0  0  0  0  0  0  0  0  0  0
   -2.9730   13.6970   -2.9970 C   0  0  0  0  0  0  0  0  0  0  0  0
   -3.4890   13.3630   -4.3940 C   0  0  0  0  0  0  0  0  0  0  0  0
   -2.4590   13.5110   -5.5130 C   0  0  0  0  0  0  0  0  0  0  0  0
   -1.1810   12.7140   -5.2490 C   0  0  0  0  0  0  0  0  0  0  0  0
   -0.2470   12.7110   -6.4470 C   0  0  0  0  0  0  0  0  0  0  0  0
    0.9500   11.7800   -6.4370 C   0  0  0  0  0  0  0  0  0  0  0  0
    1.0470   10.7510   -7.5920 C   0  0  2  0  0  0  0  0  0  0  0  0
    0.9650   11.2960   -8.9270 N   0  0  0  0  0  0  0  0  0  0  0  0
   -0.0350    9.7630   -7.5370 C   0  0  0  0  0  0  0  0  0  0  0  0
    0.0480    8.5510   -8.1750 N   0  0  0  0  0  0  0  0  0  0  0  0
   -1.2580    9.7670   -6.9280 C   0  0  0  0  0  0  0  0  0  0  0  0
   -1.1090    7.8870   -7.9250 C   0  0  0  0  0  0  0  0  0  0  0  0
   -1.9220    8.5970   -7.1730 N   0  0  0  0  0  0  0  0  0  0  0  0
  1  2  1  0
  2  3  2  0
  2  4  1  0
  4  5  2  0
  3  6  1  0
  5  7  1  0
  6  7  2  0
  7  8  1  0
  8  9  1  0
  9 10  1  0
 10 11  1  0
 11 12  1  0
 12 13  1  0
 13 14  1  0
 14 15  1  0
 15 16  1  0
 16 17  1  6
 16 18  1  0
 18 19  1  0
 18 20  2  0
 19 21  1  0
 20 22  1  0
 21 22  2  0
M  END
