x0104_0_A_α-x0711_0_A_α
     RDKit          3D

 23 24  0  0  0  0  0  0  0  0999 V2000
   -7.8170   14.8430    3.6700 C   0  0  0  0  0  0  0  0  0  0  0  0
   -8.2340   15.6470    4.6640 N   0  0  0  0  0  0  0  0  0  0  0  0
   -9.3010   15.4220    5.4610 C   0  0  0  0  0  0  0  0  0  0  0  0
   -8.5560   14.4940    2.6850 N   0  0  0  0  0  0  0  0  0  0  0  0
   -7.8100   13.5820    1.8430 C   0  0  0  0  0  0  0  0  0  0  0  0
   -6.6120   14.2550    1.4840 N   0  0  0  0  0  0  0  0  0  0  0  0
   -9.3850   15.3790    6.8360 C   0  0  0  0  0  0  0  0  0  0  0  0
  -10.8330   15.1290    4.7390 S   0  0  0  0  0  0  0  0  0  0  0  0
   -6.4900   14.6450    0.1800 C   0  0  0  0  0  0  0  0  0  0  0  0
  -10.7100   15.1050    7.2990 C   0  0  0  0  0  0  0  0  0  0  0  0
  -11.5950   14.9500    6.2580 C   0  0  0  0  0  0  0  0  0  0  0  0
   -7.4740   14.9240   -0.4910 O   0  0  0  0  0  0  0  0  0  0  0  0
   -5.1400   14.7190   -0.4490 C   0  0  0  0  0  0  0  0  0  0  0  0
   -5.1100   15.0770   -1.8030 C   0  0  0  0  0  0  0  0  0  0  0  0
   -3.9440   14.4570    0.2270 C   0  0  0  0  0  0  0  0  0  0  0  0
   -3.8940   15.1760   -2.4810 C   0  0  0  0  0  0  0  0  0  0  0  0
   -2.7210   14.5570   -0.4580 C   0  0  0  0  0  0  0  0  0  0  0  0
   -2.7020   14.9190   -1.8120 C   0  0  0  0  0  0  0  0  0  0  0  0
   -1.4790   15.0550   -2.5410 N   0  0  0  0  0  0  0  0  0  0  0  0
   -0.5280   13.8010   -3.1200 S   0  0  0  0  0  0  0  0  0  0  0  0
   -1.6920   12.7590   -3.9730 C   0  0  0  0  0  0  0  0  0  0  0  0
    0.3920   14.3510   -4.0900 O   0  0  0  0  0  0  0  0  0  0  0  0
   -0.0460   13.0950   -1.9500 O   0  0  0  0  0  0  0  0  0  0  0  0
  1  2  1  0
  2  3  1  0
  1  4  2  3
  4  5  1  0
  5  6  1  0
  3  7  2  0
  3  8  1  0
  6  9  1  0
  7 10  1  0
  8 11  1  0
 10 11  2  0
  9 12  2  0
  9 13  1  0
 13 14  2  0
 13 15  1  0
 14 16  1  0
 15 17  2  0
 16 18  2  0
 17 18  1  0
 18 19  1  0
 20 19  1  0
 20 21  1  0
 20 22  2  0
 20 23  2  0
M  END
