x0104_0_A_β-x0662_0_A_β
     RDKit          3D

 22 23  0  0  0  0  0  0  0  0999 V2000
   -6.8120   14.7450    2.6160 N   0  0  0  0  0  0  0  0  0  0  0  0
   -6.2730   14.7490    1.3170 C   0  0  0  0  0  0  0  0  0  0  0  0
   -7.1160   14.6990    0.2140 C   0  0  0  0  0  0  0  0  0  0  0  0
   -4.8990   14.8070    1.0630 C   0  0  0  0  0  0  0  0  0  0  0  0
   -4.3390   14.8110   -0.1690 N   0  0  0  0  0  0  0  0  0  0  0  0
   -6.5850   14.7080   -1.0660 C   0  0  0  0  0  0  0  0  0  0  0  0
   -5.2110   14.7630   -1.2020 C   0  0  0  0  0  0  0  0  0  0  0  0
   -4.7240   14.7620   -2.4910 O   0  0  0  0  0  0  0  0  0  0  0  0
   -3.3360   15.0930   -2.5270 C   0  0  0  0  0  0  0  0  0  0  0  0
   -2.4810   13.8210   -2.4560 C   0  0  0  0  0  0  0  0  0  0  0  0
   -1.8870   13.3560   -3.7980 C   0  0  0  0  0  0  0  0  0  0  0  0
   -0.8150   12.2590   -3.6950 C   0  0  0  0  0  0  0  0  0  0  0  0
   -0.8920   11.4480   -4.9060 N   0  0  0  0  0  0  0  0  0  0  0  0
    0.0370   11.4190   -5.7970 C   0  0  0  0  0  0  0  0  0  0  0  0
    1.1210   12.0380   -5.7990 O   0  0  0  0  0  0  0  0  0  0  0  0
   -0.0270   10.5990   -7.0570 C   0  0  0  0  0  0  0  0  0  0  0  0
    0.8040   10.8820   -8.1410 C   0  0  0  0  0  0  0  0  0  0  0  0
   -0.9350    9.5390   -7.1550 C   0  0  0  0  0  0  0  0  0  0  0  0
    0.7410   10.1340   -9.3180 C   0  0  0  0  0  0  0  0  0  0  0  0
   -1.0030    8.7830   -8.3260 C   0  0  0  0  0  0  0  0  0  0  0  0
    1.5790   10.4340  -10.4120 N   0  0  0  0  0  0  0  0  0  0  0  0
   -0.1680    9.0790   -9.4070 C   0  0  0  0  0  0  0  0  0  0  0  0
  1  2  1  0
  2  3  2  0
  2  4  1  0
  4  5  2  0
  3  6  1  0
  5  7  1  0
  6  7  2  0
  7  8  1  0
  8  9  1  0
  9 10  1  0
 10 11  1  0
 11 12  1  0
 12 13  1  0
 13 14  2  3
 14 15  1  0
 14 16  1  0
 16 17  2  0
 16 18  1  0
 17 19  1  0
 18 20  2  0
 19 21  1  0
 19 22  2  0
 20 22  1  0
M  CHG  1  15  -1
M  END
