x0104_0_A-x0852_0_B
     RDKit          3D

 25 27  0  0  0  0  0  0  0  0999 V2000
   -6.5750   13.8110    1.9850 N   0  0  0  0  0  0  0  0  0  0  0  0
   -7.6970   14.4050    2.3060 C   0  0  0  0  0  0  0  0  0  0  0  0
   -8.8570   14.3830    1.7650 N   0  0  0  0  0  0  0  0  0  0  0  0
   -5.9400   14.2510    0.8690 C   0  0  0  0  0  0  0  0  0  0  0  0
   -4.5760   14.3380    0.6880 C   0  0  0  0  0  0  0  0  0  0  0  0
   -6.7640   14.6540   -0.1800 C   0  0  0  0  0  0  0  0  0  0  0  0
   -3.9960   14.7780   -0.4460 N   0  0  0  0  0  0  0  0  0  0  0  0
   -6.2090   15.1140   -1.3510 C   0  0  0  0  0  0  0  0  0  0  0  0
   -9.3570   15.2580    2.6120 C   0  0  0  0  0  0  0  0  0  0  0  0
   -4.8370   15.1520   -1.4330 C   0  0  0  0  0  0  0  0  0  0  0  0
   -9.2250   14.8310    3.8840 C   0  0  0  0  0  0  0  0  0  0  0  0
   -9.9280   16.4740    2.3070 C   0  0  0  0  0  0  0  0  0  0  0  0
   -4.3340   15.6040   -2.6200 O   0  0  0  0  0  0  0  0  0  0  0  0
  -10.1880   17.0230    0.5050 Br  0  0  0  0  0  0  0  0  0  0  0  0
   -9.6400   15.6320    4.8750 C   0  0  0  0  0  0  0  0  0  0  0  0
  -10.3110   17.3110    3.3490 C   0  0  0  0  0  0  0  0  0  0  0  0
   -3.1030   14.9780   -2.9390 C   0  0  0  0  0  0  0  0  0  0  0  0
   -9.6240   15.1870    6.1770 C   0  0  0  0  0  0  0  0  0  0  0  0
  -10.1410   16.8730    4.6570 C   0  0  0  0  0  0  0  0  0  0  0  0
  -10.4800   17.6430    5.8160 C   0  0  0  0  0  0  0  0  0  0  0  0
   -8.7890   15.1580    7.2370 C   0  0  0  0  0  0  0  0  0  0  0  0
  -11.1550   14.4950    6.4310 S   0  0  0  0  0  0  0  0  0  0  0  0
  -10.6490   18.2280    6.8040 N   0  0  0  0  0  0  0  0  0  0  0  0
  -10.7490   14.1320    8.0200 C   0  0  0  0  0  0  0  0  0  0  0  0
   -9.4610   14.5330    8.3270 C   0  0  0  0  0  0  0  0  0  0  0  0
  1  2  1  0
  2  3  2  3
  1  4  1  0
  4  5  2  0
  4  6  1  0
  5  7  1  0
  6  8  2  0
  3  9  1  0
  7 10  2  0
  8 10  1  0
  9 11  2  0
  9 12  1  0
 10 13  1  0
 12 14  1  0
 11 15  1  0
 12 16  2  0
 13 17  1  0
 15 18  1  0
 15 19  2  0
 16 19  1  0
 19 20  1  0
 18 21  2  0
 18 22  1  0
 20 23  3  0
 22 24  1  0
 21 25  1  0
 24 25  2  0
M  END
