x0104_0_A_β-x0910_1_A_α
     RDKit          3D

 10 10  0  0  0  0  0  0  0  0999 V2000
   -6.7860   14.7790    2.6960 N   0  0  0  0  0  0  0  0  0  0  0  0
   -6.2440   14.7920    1.3990 C   0  0  0  0  0  0  0  0  0  0  0  0
   -7.0920   14.5760    0.3220 C   0  0  0  0  0  0  0  0  0  0  0  0
   -4.8950   15.0160    1.1310 C   0  0  0  0  0  0  0  0  0  0  0  0
   -8.4570   14.3410    0.5790 N   0  0  0  0  0  0  0  0  0  0  0  0
   -4.3600   15.0410   -0.1120 N   0  0  0  0  0  0  0  0  0  0  0  0
   -6.5800   14.5960   -0.9680 C   0  0  0  0  0  0  0  0  0  0  0  0
   -5.2220   14.8300   -1.1300 C   0  0  0  0  0  0  0  0  0  0  0  0
   -4.7810   14.8350   -2.4360 O   0  0  0  0  0  0  0  0  0  0  0  0
   -3.3870   15.0740   -2.5710 C   0  0  0  0  0  0  0  0  0  0  0  0
  1  2  1  0
  2  3  2  0
  2  4  1  0
  3  5  1  0
  4  6  2  0
  3  7  1  0
  6  8  1  0
  7  8  2  0
  8  9  1  0
  9 10  1  0
M  END
