x0104_0_A_α-x0722_0_A_α
     RDKit          3D

 22 23  0  0  0  0  0  0  0  0999 V2000
   -8.1470   15.0750    2.8680 C   0  0  0  0  0  0  0  0  0  0  0  0
   -7.9880   14.9440    4.2270 N   0  0  0  0  0  0  0  0  0  0  0  0
   -8.9930   14.9820    5.1660 C   0  0  0  0  0  0  0  0  0  0  0  0
   -9.2540   15.2700    2.2300 N   0  0  0  0  0  0  0  0  0  0  0  0
   -9.2140   15.3900    0.7540 C   0  0  0  0  0  0  0  0  0  0  0  0
   -8.2290   14.3910    0.1330 C   0  0  0  0  0  0  0  0  0  0  0  0
   -8.9610   15.1230    6.5440 C   0  0  0  0  0  0  0  0  0  0  0  0
  -10.6250   14.8420    4.6240 S   0  0  0  0  0  0  0  0  0  0  0  0
   -7.1040   15.1190   -0.4560 N   0  0  0  0  0  0  0  0  0  0  0  0
  -10.2660   15.1130    7.1410 C   0  0  0  0  0  0  0  0  0  0  0  0
  -11.2620   14.9680    6.2040 C   0  0  0  0  0  0  0  0  0  0  0  0
   -5.9490   14.5600   -0.3960 C   0  0  0  0  0  0  0  0  0  0  0  0
   -5.7010   13.3240    0.1500 N   0  0  0  0  0  0  0  0  0  0  0  0
   -4.7330   15.3110   -0.9540 C   0  0  0  0  0  0  0  0  0  0  0  0
   -3.5290   15.0700   -0.0920 C   0  0  0  0  0  0  0  0  0  0  0  0
   -3.4130   15.2680    1.3050 C   0  0  0  0  0  0  0  0  0  0  0  0
   -2.2650   14.6070   -0.4510 C   0  0  0  0  0  0  0  0  0  0  0  0
   -4.3940   15.7610    2.2590 C   0  0  0  0  0  0  0  0  0  0  0  0
   -1.7200   14.2190   -1.7750 C   0  0  0  0  0  0  0  0  0  0  0  0
   -2.2230   14.9560    1.7710 N   0  0  0  0  0  0  0  0  0  0  0  0
   -1.5390   14.5650    0.7130 N   0  0  0  0  0  0  0  0  0  0  0  0
   -0.1740   14.1740    0.9400 C   0  0  0  0  0  0  0  0  0  0  0  0
  1  2  1  0
  2  3  1  0
  1  4  2  3
  4  5  1  0
  5  6  1  0
  3  7  2  0
  3  8  1  0
  6  9  1  0
  7 10  1  0
  8 11  1  0
 10 11  2  0
  9 12  2  3
 12 13  1  0
 12 14  1  0
 14 15  1  0
 15 16  1  0
 15 17  2  0
 16 18  1  0
 17 19  1  0
 16 20  2  0
 17 21  1  0
 20 21  1  0
 21 22  1  0
M  END
