x0104_0_A_α-x0689_0_A_α
     RDKit          3D

 19 20  0  0  0  0  0  0  0  0999 V2000
   -7.8820   14.9020    3.2040 C   0  0  0  0  0  0  0  0  0  0  0  0
   -8.0390   15.1600    4.5400 N   0  0  0  0  0  0  0  0  0  0  0  0
   -9.1850   15.1240    5.2760 C   0  0  0  0  0  0  0  0  0  0  0  0
   -8.7280   14.9190    2.2330 N   0  0  0  0  0  0  0  0  0  0  0  0
   -8.3190   14.5900    0.8600 C   0  0  0  0  0  0  0  0  0  0  0  0
   -7.0860   13.6730    0.8570 C   0  0  0  0  0  0  0  0  0  0  0  0
   -9.2490   15.2210    6.6560 C   0  0  0  0  0  0  0  0  0  0  0  0
  -10.7680   14.9500    4.6210 S   0  0  0  0  0  0  0  0  0  0  0  0
   -5.7930   14.3660    0.3970 C   0  0  0  0  0  0  0  0  0  0  0  0
  -10.5810   15.1530    7.1670 C   0  0  0  0  0  0  0  0  0  0  0  0
  -11.5070   15.0040    6.1600 C   0  0  0  0  0  0  0  0  0  0  0  0
   -4.7240   14.3660    1.4960 C   0  0  0  0  0  0  0  0  0  0  0  0
   -3.6740   15.3360    1.3050 N   0  0  0  0  0  0  0  0  0  0  0  0
   -2.4560   14.9020    0.8250 C   0  0  0  0  0  0  0  0  0  0  0  0
   -2.2340   14.8540   -0.4930 N   0  0  0  0  0  0  0  0  0  0  0  0
   -1.5540   14.5590    1.7520 N   0  0  0  0  0  0  0  0  0  0  0  0
   -1.0200   14.4560   -0.8920 C   0  0  0  0  0  0  0  0  0  0  0  0
   -0.3540   14.1680    1.3060 C   0  0  0  0  0  0  0  0  0  0  0  0
   -0.0210   14.0990   -0.0250 C   0  0  0  0  0  0  0  0  0  0  0  0
  1  2  1  0
  2  3  1  0
  1  4  2  3
  4  5  1  0
  5  6  1  0
  3  7  2  0
  3  8  1  0
  6  9  1  0
  7 10  1  0
  8 11  1  0
 10 11  2  0
  9 12  1  0
 12 13  1  0
 13 14  1  0
 14 15  2  0
 14 16  1  0
 15 17  1  0
 16 18  2  0
 17 19  2  0
 18 19  1  0
M  END
