x0104_0_A_α-x0910_2_B_α
     RDKit          3D

 20 21  0  0  0  0  0  0  0  0999 V2000
   -8.3140   15.1660    2.9870 C   0  0  0  0  0  0  0  0  0  0  0  0
   -8.1800   15.2520    4.3550 N   0  0  0  0  0  0  0  0  0  0  0  0
   -9.2000   15.1860    5.2550 C   0  0  0  0  0  0  0  0  0  0  0  0
   -9.2000   15.6260    2.1580 N   0  0  0  0  0  0  0  0  0  0  0  0
   -9.0730   15.3450    0.7180 C   0  0  0  0  0  0  0  0  0  0  0  0
   -9.5760   16.5200   -0.1600 C   0  0  0  0  0  0  0  0  0  0  0  0
   -9.1750   15.2210    6.6370 C   0  0  0  0  0  0  0  0  0  0  0  0
  -10.8190   15.0400    4.6850 S   0  0  0  0  0  0  0  0  0  0  0  0
  -10.8650   17.2550    0.2670 C   0  0  0  0  0  0  0  0  0  0  0  0
  -10.4760   15.1250    7.2210 C   0  0  0  0  0  0  0  0  0  0  0  0
  -11.4620   15.0200    6.2670 C   0  0  0  0  0  0  0  0  0  0  0  0
  -10.8850   18.7440   -0.1180 C   0  0  0  0  0  0  0  0  0  0  0  0
  -12.1350   19.3420   -0.7890 C   0  0  0  0  0  0  0  0  0  0  0  0
  -11.9740   19.5970   -2.3080 C   0  0  0  0  0  0  0  0  0  0  0  0
  -11.7190   20.9960   -2.7200 N   0  0  0  0  0  0  0  0  0  0  0  0
  -12.2150   22.0580   -2.0340 C   0  0  0  0  0  0  0  0  0  0  0  0
  -11.7350   23.3240   -2.2570 N   0  0  0  0  0  0  0  0  0  0  0  0
  -13.1520   22.1260   -1.1120 N   0  0  0  0  0  0  0  0  0  0  0  0
  -12.3550   24.2250   -1.4790 N   0  0  0  0  0  0  0  0  0  0  0  0
  -13.1990   23.4500   -0.7970 C   0  0  0  0  0  0  0  0  0  0  0  0
  1  2  1  0
  2  3  1  0
  1  4  2  3
  4  5  1  0
  5  6  1  0
  3  7  2  0
  3  8  1  0
  6  9  1  0
  7 10  1  0
  8 11  1  0
 10 11  2  0
  9 12  1  0
 12 13  1  0
 13 14  1  0
 14 15  1  0
 15 16  1  0
 16 17  1  0
 16 18  2  0
 17 19  1  0
 18 20  1  0
 19 20  2  0
M  END
