x0104_0_A-x0685_1_A
     RDKit          3D

 32 34  0  0  0  0  0  0  0  0999 V2000
   -6.8050   14.6100    2.6640 N   0  0  0  0  0  0  0  0  0  0  0  0
   -8.0250   15.0580    3.1640 C   0  0  0  0  0  0  0  0  0  0  0  0
   -7.9970   15.1110    4.5530 N   0  0  0  0  0  0  0  0  0  0  0  0
   -6.2570   14.7370    1.3720 C   0  0  0  0  0  0  0  0  0  0  0  0
   -8.9890   15.3610    2.4710 O   0  0  0  0  0  0  0  0  0  0  0  0
   -4.9010   14.9420    1.1090 C   0  0  0  0  0  0  0  0  0  0  0  0
   -7.1140   14.6550    0.2750 C   0  0  0  0  0  0  0  0  0  0  0  0
   -4.3720   15.0640   -0.1340 N   0  0  0  0  0  0  0  0  0  0  0  0
   -6.5940   14.7800   -1.0120 C   0  0  0  0  0  0  0  0  0  0  0  0
   -9.1100   15.1170    5.3670 C   0  0  0  0  0  0  0  0  0  0  0  0
   -5.2330   14.9790   -1.1660 C   0  0  0  0  0  0  0  0  0  0  0  0
   -9.2590   15.1960    6.7320 C   0  0  0  0  0  0  0  0  0  0  0  0
  -10.6090   15.0030    4.5580 S   0  0  0  0  0  0  0  0  0  0  0  0
   -4.7800   15.0890   -2.4640 O   0  0  0  0  0  0  0  0  0  0  0  0
  -11.4770   15.0570    6.0370 C   0  0  0  0  0  0  0  0  0  0  0  0
  -10.6320   15.1610    7.1200 C   0  0  0  0  0  0  0  0  0  0  0  0
   -3.4160   14.6980   -2.6380 C   0  0  0  0  0  0  0  0  0  0  0  0
   -3.2970   13.7890   -3.8650 C   0  0  0  0  0  0  0  0  0  0  0  0
   -2.5900   12.4260   -3.6750 C   0  0  0  0  0  0  0  0  0  0  0  0
   -1.3960   12.1570   -4.6340 C   0  0  2  0  0  0  0  0  0  0  0  0
   -1.2220   10.7020   -4.8280 N   0  0  0  0  0  0  0  0  0  0  0  0
   -0.1200   12.8230   -4.0900 C   0  0  0  0  0  0  0  0  0  0  0  0
    0.6370   12.0490   -2.6510 S   0  0  0  0  0  0  0  0  0  0  0  0
   -1.4210   10.1270   -6.1710 C   0  0  0  0  0  0  0  0  0  0  0  0
    2.2010   12.3100   -2.8500 O   0  0  0  0  0  0  0  0  0  0  0  0
    0.3170   10.4770   -2.5830 O   0  0  0  0  0  0  0  0  0  0  0  0
    0.1400   12.7670   -1.3100 O   0  0  0  0  0  0  0  0  0  0  0  0
   -0.6540    8.8040   -6.3840 C   0  0  0  0  0  0  0  0  0  0  0  0
   -1.0350   11.1550   -7.2610 C   0  0  0  0  0  0  0  0  0  0  0  0
    0.1260    8.7630   -7.6980 C   0  0  0  0  0  0  0  0  0  0  0  0
   -1.2220   10.6520   -8.6950 C   0  0  0  0  0  0  0  0  0  0  0  0
   -0.7500    9.2100   -8.8640 C   0  0  0  0  0  0  0  0  0  0  0  0
  1  2  1  0
  2  3  1  0
  1  4  1  0
  2  5  2  0
  4  6  2  0
  4  7  1  0
  6  8  1  0
  7  9  2  0
  3 10  1  0
  8 11  2  0
  9 11  1  0
 10 12  2  0
 10 13  1  0
 11 14  1  0
 13 15  1  0
 12 16  1  0
 15 16  2  0
 14 17  1  0
 17 18  1  0
 18 19  1  0
 20 19  1  1
 20 21  1  0
 20 22  1  0
 22 23  1  0
 21 24  1  0
 23 25  1  0
 23 26  1  0
 23 27  1  0
 24 28  1  0
 24 29  1  0
 28 30  1  0
 29 31  1  0
 30 32  1  0
 31 32  1  0
M  END
