x0104_0_A-x0900_0_A
     RDKit          3D

 17 18  0  0  0  0  0  0  0  0999 V2000
   -6.8020   14.6630    2.6820 N   0  0  0  0  0  0  0  0  0  0  0  0
   -8.0370   15.0830    3.1710 C   0  0  0  0  0  0  0  0  0  0  0  0
   -8.0140   15.1010    4.5600 N   0  0  0  0  0  0  0  0  0  0  0  0
   -6.2690   14.7400    1.3790 C   0  0  0  0  0  0  0  0  0  0  0  0
   -8.9940   15.3900    2.4730 O   0  0  0  0  0  0  0  0  0  0  0  0
   -4.9050   14.8590    1.0920 C   0  0  0  0  0  0  0  0  0  0  0  0
   -7.1430   14.6980    0.2920 C   0  0  0  0  0  0  0  0  0  0  0  0
   -4.3880   14.9330   -0.1600 N   0  0  0  0  0  0  0  0  0  0  0  0
   -6.6380   14.7790   -1.0030 C   0  0  0  0  0  0  0  0  0  0  0  0
   -9.1320   15.1020    5.3720 C   0  0  0  0  0  0  0  0  0  0  0  0
   -5.2700   14.8930   -1.1770 C   0  0  0  0  0  0  0  0  0  0  0  0
   -9.2880   15.2180    6.7320 C   0  0  0  0  0  0  0  0  0  0  0  0
  -10.6190   14.9240    4.5590 S   0  0  0  0  0  0  0  0  0  0  0  0
   -4.8350   14.9640   -2.4830 O   0  0  0  0  0  0  0  0  0  0  0  0
  -11.4990   15.0040    6.0290 C   0  0  0  0  0  0  0  0  0  0  0  0
  -10.6660   15.1590    7.1170 C   0  0  0  0  0  0  0  0  0  0  0  0
   -3.4240   15.0780   -2.6030 C   0  0  0  0  0  0  0  0  0  0  0  0
  1  2  1  0
  2  3  1  0
  1  4  1  0
  2  5  2  0
  4  6  2  0
  4  7  1  0
  6  8  1  0
  7  9  2  0
  3 10  1  0
  8 11  2  0
  9 11  1  0
 10 12  2  0
 10 13  1  0
 11 14  1  0
 13 15  1  0
 12 16  1  0
 15 16  2  0
 14 17  1  0
M  END
