x0104_0_A-x0895_1_A
     RDKit          3D

 18 19  0  0  0  0  0  0  0  0999 V2000
   -6.7680   14.7280    2.7180 N   0  0  0  0  0  0  0  0  0  0  0  0
   -8.0270   15.0900    3.1920 C   0  0  0  0  0  0  0  0  0  0  0  0
   -8.0170   15.0960    4.5820 N   0  0  0  0  0  0  0  0  0  0  0  0
   -6.2400   14.7600    1.4140 C   0  0  0  0  0  0  0  0  0  0  0  0
   -8.9930   15.3580    2.4840 O   0  0  0  0  0  0  0  0  0  0  0  0
   -4.8460   14.8610    1.2980 C   0  0  0  0  0  0  0  0  0  0  0  0
   -6.9960   14.7010    0.2540 C   0  0  0  0  0  0  0  0  0  0  0  0
   -4.1750   14.9020    0.0850 N   0  0  0  0  0  0  0  0  0  0  0  0
   -6.3650   14.7460   -0.9850 C   0  0  0  0  0  0  0  0  0  0  0  0
   -9.1390   15.0990    5.3850 C   0  0  0  0  0  0  0  0  0  0  0  0
   -2.8850   14.9920    0.1460 O   0  0  0  0  0  0  0  0  0  0  0  0
   -4.9650   14.8440   -1.0890 C   0  0  0  0  0  0  0  0  0  0  0  0
   -9.2990   15.2140    6.7440 C   0  0  0  0  0  0  0  0  0  0  0  0
  -10.6220   14.9260    4.5650 S   0  0  0  0  0  0  0  0  0  0  0  0
   -4.5650   14.8690   -2.4270 O   0  0  0  0  0  0  0  0  0  0  0  0
  -11.5060   15.0030    6.0310 C   0  0  0  0  0  0  0  0  0  0  0  0
  -10.6780   15.1580    7.1220 C   0  0  0  0  0  0  0  0  0  0  0  0
   -3.1820   15.0240   -2.6770 C   0  0  0  0  0  0  0  0  0  0  0  0
  1  2  1  0
  2  3  1  0
  1  4  1  0
  2  5  2  0
  4  6  2  0
  4  7  1  0
  6  8  1  0
  7  9  2  0
  3 10  1  0
  8 11  1  0
  8 12  2  0
  9 12  1  0
 10 13  2  0
 10 14  1  0
 12 15  1  0
 14 16  1  0
 13 17  1  0
 16 17  2  0
 15 18  1  0
M  CHG  2   8   1  11  -1
M  END
