x0104_0_A-x0290_0_A
     RDKit          3D

 28 30  0  0  0  0  0  0  0  0999 V2000
   -6.3320   14.7900    1.7370 N   0  0  0  0  0  0  0  0  0  0  0  0
   -7.4870   14.6170    2.5760 C   0  0  0  0  0  0  0  0  0  0  0  0
   -7.7370   15.3020    3.7780 N   0  0  0  0  0  0  0  0  0  0  0  0
   -5.1910   13.9580    1.8250 C   0  0  0  0  0  0  0  0  0  0  0  0
   -6.2970   14.8830    0.3440 C   0  0  0  0  0  0  0  0  0  0  0  0
   -8.4030   13.7590    2.1950 N   0  0  0  0  0  0  0  0  0  0  0  0
   -5.2820   12.7450    1.6780 O   0  0  0  0  0  0  0  0  0  0  0  0
   -3.9980   14.6700    2.0050 N   0  0  0  0  0  0  0  0  0  0  0  0
   -5.0290   15.1860   -0.1070 C   0  0  0  0  0  0  0  0  0  0  0  0
   -7.2940   14.6940   -0.6000 C   0  0  0  0  0  0  0  0  0  0  0  0
   -8.1550   13.0910    1.0380 N   0  0  0  0  0  0  0  0  0  0  0  0
   -4.6570   15.2880   -1.3720 N   0  0  0  0  0  0  0  0  0  0  0  0
   -6.9350   14.7910   -1.9480 C   0  0  0  0  0  0  0  0  0  0  0  0
   -8.7930   15.2700    4.6710 C   0  0  0  0  0  0  0  0  0  0  0  0
   -2.7620   14.5370    1.3050 C   0  0  0  0  0  0  0  0  0  0  0  0
   -5.6090   15.0730   -2.2600 C   0  0  0  0  0  0  0  0  0  0  0  0
   -8.6730   15.2940    6.0580 C   0  0  0  0  0  0  0  0  0  0  0  0
  -10.4600   15.1920    4.2440 S   0  0  0  0  0  0  0  0  0  0  0  0
   -1.6310   14.4870    2.0070 N   0  0  0  0  0  0  0  0  0  0  0  0
   -2.7160   14.4660   -0.0960 C   0  0  0  0  0  0  0  0  0  0  0  0
   -5.2400   15.1280   -3.5730 O   0  0  0  0  0  0  0  0  0  0  0  0
  -10.9870   15.1900    5.8700 C   0  0  0  0  0  0  0  0  0  0  0  0
   -9.9280   15.2490    6.7450 C   0  0  0  0  0  0  0  0  0  0  0  0
   -0.4520   14.3760    1.3810 C   0  0  0  0  0  0  0  0  0  0  0  0
   -1.4730   14.3490   -0.7490 C   0  0  0  0  0  0  0  0  0  0  0  0
   -3.8210   15.1030   -3.7050 C   0  0  0  0  0  0  0  0  0  0  0  0
   -1.3880   14.2740   -2.2430 C   0  0  0  0  0  0  0  0  0  0  0  0
   -0.3160   14.3050    0.0170 C   0  0  0  0  0  0  0  0  0  0  0  0
  1  2  1  0
  2  3  1  0
  1  4  1  0
  1  5  1  0
  2  6  2  3
  4  7  2  0
  4  8  1  0
  5  9  2  0
  5 10  1  0
  6 11  1  0
  9 12  1  0
 10 13  2  0
  3 14  1  0
  8 15  1  0
 12 16  2  0
 13 16  1  0
 14 17  2  0
 14 18  1  0
 15 19  2  0
 15 20  1  0
 16 21  1  0
 18 22  1  0
 17 23  1  0
 22 23  2  0
 19 24  1  0
 20 25  2  0
 21 26  1  0
 25 27  1  0
 24 28  2  0
 25 28  1  0
M  END
