x0104_0_A_β-x1018_0_A_α
     RDKit          3D

 13 14  0  0  0  0  0  0  0  0999 V2000
   -6.7300   14.7130    2.5630 N   0  0  0  0  0  0  0  0  0  0  0  0
   -6.1640   14.8380    1.3170 C   0  0  0  0  0  0  0  0  0  0  0  0
   -7.0190   14.7380    0.1440 C   0  0  0  0  0  0  0  0  0  0  0  0
   -4.8480   15.0690    1.1010 C   0  0  0  0  0  0  0  0  0  0  0  0
   -8.7250   14.6170    0.4030 Cl  0  0  0  0  0  0  0  0  0  0  0  0
   -4.2790   15.2170   -0.1560 N   0  0  0  0  0  0  0  0  0  0  0  0
   -6.5090   14.7460   -1.0970 C   0  0  0  0  0  0  0  0  0  0  0  0
   -5.0270   14.8460   -1.3580 C   0  0  1  0  0  0  0  0  0  0  0  0
   -3.0510   14.5940   -0.4510 N   0  0  0  0  0  0  0  0  0  0  0  0
   -4.8150   15.7640   -2.4110 O   0  0  0  0  0  0  0  0  0  0  0  0
   -3.2110   13.7050   -1.4930 N   0  0  0  0  0  0  0  0  0  0  0  0
   -4.4500   13.5510   -1.6800 N   0  0  0  0  0  0  0  0  0  0  0  0
   -3.6540   15.4080   -3.1510 C   0  0  0  0  0  0  0  0  0  0  0  0
  1  2  1  0
  2  3  1  0
  2  4  2  0
  3  5  1  0
  4  6  1  0
  3  7  2  0
  6  8  1  0
  7  8  1  0
  6  9  1  0
  8 10  1  6
  9 11  1  0
  8 12  1  0
 11 12  2  0
 10 13  1  0
M  END
