x0104_0_A-x0895_0_A
     RDKit          3D

 23 25  0  0  0  0  0  0  0  0999 V2000
   -7.7890   14.2420    2.4170 N   0  0  0  0  0  0  0  0  0  0  0  0
   -8.4080   15.2220    3.1480 C   0  0  0  0  0  0  0  0  0  0  0  0
   -8.1300   15.1020    4.5000 N   0  0  0  0  0  0  0  0  0  0  0  0
   -6.9950   14.4360    1.2810 C   0  0  0  0  0  0  0  0  0  0  0  0
   -9.1250   16.0730    2.6530 O   0  0  0  0  0  0  0  0  0  0  0  0
   -5.6540   14.2770    1.3290 C   0  0  0  0  0  0  0  0  0  0  0  0
   -7.5610   14.8060    0.0280 C   0  0  0  0  0  0  0  0  0  0  0  0
   -4.8840   14.4540    0.2740 N   0  0  0  0  0  0  0  0  0  0  0  0
   -6.7360   15.0030   -1.1140 C   0  0  0  0  0  0  0  0  0  0  0  0
   -9.1520   15.0890    5.4220 C   0  0  0  0  0  0  0  0  0  0  0  0
   -5.3850   14.8090   -0.9140 C   0  0  0  0  0  0  0  0  0  0  0  0
   -9.2150   15.1830    6.7910 C   0  0  0  0  0  0  0  0  0  0  0  0
  -10.6920   14.9210    4.7110 S   0  0  0  0  0  0  0  0  0  0  0  0
   -4.1610   14.8820   -1.6800 C   0  0  0  0  0  0  0  0  0  0  0  0
  -11.4700   14.9710    6.2340 C   0  0  0  0  0  0  0  0  0  0  0  0
  -10.5630   15.1140    7.2620 C   0  0  0  0  0  0  0  0  0  0  0  0
   -4.0340   14.9920   -3.1680 C   0  0  0  0  0  0  0  0  0  0  0  0
   -3.3260   14.8030   -0.6620 C   0  0  0  0  0  0  0  0  0  0  0  0
   -3.9050   14.7270    0.5730 N   0  0  0  0  0  0  0  0  0  0  0  0
   -1.9670   14.7800   -0.4670 N   0  0  0  0  0  0  0  0  0  0  0  0
   -3.0600   15.4540    1.4350 C   0  0  0  0  0  0  0  0  0  0  0  0
   -1.7810   14.8440    0.9350 C   0  0  0  0  0  0  0  0  0  0  0  0
   -0.8630   14.4860    1.6380 O   0  0  0  0  0  0  0  0  0  0  0  0
  1  2  1  0
  2  3  1  0
  1  4  1  0
  2  5  2  0
  4  6  2  0
  4  7  1  0
  6  8  1  0
  7  9  2  0
  3 10  1  0
  8 11  2  0
  9 11  1  0
 10 12  2  0
 10 13  1  0
 11 14  1  0
 13 15  1  0
 12 16  1  0
 15 16  2  0
 14 17  1  0
 14 18  2  3
 18 19  1  0
 18 20  1  0
 19 21  1  0
 20 22  1  0
 21 22  1  0
 22 23  2  0
M  END
