x0104_0_A_β-x0465_0_A_α
     RDKit          3D

 25 26  0  0  0  0  0  0  0  0999 V2000
   -6.9110   14.5730    2.5610 N   0  0  0  0  0  0  0  0  0  0  0  0
   -6.2720   14.7140    1.3290 C   0  0  0  0  0  0  0  0  0  0  0  0
   -7.0180   14.7920    0.1560 C   0  0  0  0  0  0  0  0  0  0  0  0
   -4.8850   14.7930    1.1950 C   0  0  0  0  0  0  0  0  0  0  0  0
   -4.2260   14.9420    0.0220 N   0  0  0  0  0  0  0  0  0  0  0  0
   -6.3800   14.9520   -1.0690 C   0  0  0  0  0  0  0  0  0  0  0  0
   -4.9950   15.0240   -1.0850 C   0  0  0  0  0  0  0  0  0  0  0  0
   -4.4070   15.1870   -2.3210 O   0  0  0  0  0  0  0  0  0  0  0  0
   -3.5760   14.0940   -2.6990 C   0  0  0  0  0  0  0  0  0  0  0  0
   -2.1520   14.5760   -2.9640 C   0  0  0  0  0  0  0  0  0  0  0  0
   -1.1830   14.3620   -1.7850 C   0  0  0  0  0  0  0  0  0  0  0  0
    0.2860   14.1570   -2.1650 C   0  0  0  0  0  0  0  0  0  0  0  0
    0.5440   12.7260   -2.0480 N   0  0  0  0  0  0  0  0  0  0  0  0
    0.6910   12.0480   -3.1320 C   0  0  0  0  0  0  0  0  0  0  0  0
    0.6340   12.6920   -4.5290 C   0  0  1  0  0  0  0  0  0  0  0  0
    0.9020   10.7190   -3.0850 O   0  0  0  0  0  0  0  0  0  0  0  0
    1.9770   13.3760   -4.7600 C   0  0  0  0  0  0  0  0  0  0  0  0
    0.4740   11.6700   -5.5280 O   0  0  0  0  0  0  0  0  0  0  0  0
   -0.7220   11.0400   -5.7760 C   0  0  0  0  0  0  0  0  0  0  0  0
   -1.0550   10.3270   -6.9330 C   0  0  0  0  0  0  0  0  0  0  0  0
   -1.6760   11.1190   -4.7590 C   0  0  0  0  0  0  0  0  0  0  0  0
   -0.1860   10.2060   -7.9510 F   0  0  0  0  0  0  0  0  0  0  0  0
   -2.2870    9.7010   -7.0760 C   0  0  0  0  0  0  0  0  0  0  0  0
   -2.9210   10.4950   -4.8980 C   0  0  0  0  0  0  0  0  0  0  0  0
   -3.2230    9.7840   -6.0560 C   0  0  0  0  0  0  0  0  0  0  0  0
  1  2  1  0
  2  3  2  0
  2  4  1  0
  4  5  2  0
  3  6  1  0
  5  7  1  0
  6  7  2  0
  7  8  1  0
  8  9  1  0
  9 10  1  0
 10 11  1  0
 11 12  1  0
 12 13  1  0
 13 14  2  3
 14 15  1  0
 14 16  1  0
 15 17  1  6
 15 18  1  0
 18 19  1  0
 19 20  2  0
 19 21  1  0
 20 22  1  0
 20 23  1  0
 21 24  2  0
 23 25  2  0
 24 25  1  0
M  END
