x0104_0_A_β-x0864_0_A_α
     RDKit          3D

 24 25  0  0  0  0  0  0  0  0999 V2000
   -6.8190   14.7670    2.6030 N   0  0  0  0  0  0  0  0  0  0  0  0
   -6.2810   14.7560    1.3180 C   0  0  0  0  0  0  0  0  0  0  0  0
   -7.1090   14.7000    0.2030 C   0  0  0  0  0  0  0  0  0  0  0  0
   -4.9040   14.8050    1.0790 C   0  0  0  0  0  0  0  0  0  0  0  0
   -4.3300   14.7990   -0.1440 N   0  0  0  0  0  0  0  0  0  0  0  0
   -6.5550   14.6970   -1.0700 C   0  0  0  0  0  0  0  0  0  0  0  0
   -5.1750   14.7460   -1.1940 C   0  0  0  0  0  0  0  0  0  0  0  0
   -4.6940   14.7320   -2.4890 O   0  0  0  0  0  0  0  0  0  0  0  0
   -3.3550   15.1960   -2.6610 C   0  0  0  0  0  0  0  0  0  0  0  0
   -2.4050   14.1120   -3.1800 C   0  0  0  0  0  0  0  0  0  0  0  0
   -0.9190   14.5160   -3.2150 C   0  0  0  0  0  0  0  0  0  0  0  0
   -0.1430   14.1760   -4.4930 C   0  0  0  0  0  0  0  0  0  0  0  0
    0.5090   12.7770   -4.5210 C   0  0  1  0  0  0  0  0  0  0  0  0
    0.7230   12.2560   -3.0920 C   0  0  0  0  0  0  0  0  0  0  0  0
   -0.1840   11.8200   -5.4130 N   0  0  0  0  0  0  0  0  0  0  0  0
    0.4080   10.9640   -2.8680 O   0  0  0  0  0  0  0  0  0  0  0  0
    1.1620   12.9660   -2.1980 O   0  0  0  0  0  0  0  0  0  0  0  0
   -1.3500   11.2140   -4.9600 C   0  0  0  0  0  0  0  0  0  0  0  0
    0.4900   11.3320   -6.5180 C   0  0  0  0  0  0  0  0  0  0  0  0
    1.5550   11.7990   -6.8950 O   0  0  0  0  0  0  0  0  0  0  0  0
   -1.8800   10.1630   -5.5980 C   0  0  0  0  0  0  0  0  0  0  0  0
   -0.1110   10.1900   -7.2380 C   0  0  0  0  0  0  0  0  0  0  0  0
   -1.2450    9.6420   -6.7830 C   0  0  0  0  0  0  0  0  0  0  0  0
   -2.0500    8.1950   -7.6390 Br  0  0  0  0  0  0  0  0  0  0  0  0
  1  2  1  0
  2  3  2  0
  2  4  1  0
  4  5  2  0
  3  6  1  0
  5  7  1  0
  6  7  2  0
  7  8  1  0
  8  9  1  0
  9 10  1  0
 10 11  1  0
 11 12  1  0
 13 12  1  1
 13 14  1  0
 13 15  1  0
 14 16  1  0
 14 17  2  0
 15 18  1  0
 15 19  1  0
 19 20  2  0
 18 21  2  0
 19 22  1  0
 21 23  1  0
 22 23  2  0
 23 24  1  0
M  END
