x0104_0_A_α-x0910_0_A_α
     RDKit          3D

 19 20  0  0  0  0  0  0  0  0999 V2000
   -7.8370   14.8590    3.1700 C   0  0  0  0  0  0  0  0  0  0  0  0
   -7.9810   15.1210    4.5100 N   0  0  0  0  0  0  0  0  0  0  0  0
   -9.1240   15.1010    5.2590 C   0  0  0  0  0  0  0  0  0  0  0  0
   -8.6160   15.1210    2.1760 N   0  0  0  0  0  0  0  0  0  0  0  0
   -8.2840   14.7450    0.7930 C   0  0  0  0  0  0  0  0  0  0  0  0
   -6.7700   14.5990    0.5690 C   0  0  0  0  0  0  0  0  0  0  0  0
   -9.1840   15.2090    6.6380 C   0  0  0  0  0  0  0  0  0  0  0  0
  -10.7160   14.9350    4.6140 S   0  0  0  0  0  0  0  0  0  0  0  0
   -6.3370   15.2280   -0.7690 C   0  0  0  0  0  0  0  0  0  0  0  0
  -10.5150   15.1550    7.1560 C   0  0  0  0  0  0  0  0  0  0  0  0
  -11.4480   15.0060    6.1550 C   0  0  0  0  0  0  0  0  0  0  0  0
   -5.2030   14.4770   -1.4710 C   0  0  0  0  0  0  0  0  0  0  0  0
   -3.9320   15.2970   -1.6930 C   0  0  0  0  0  0  0  0  0  0  0  0
   -2.7340   14.4770   -1.6530 N   0  0  0  0  0  0  0  0  0  0  0  0
   -1.8390   14.6540   -0.6630 C   0  0  0  0  0  0  0  0  0  0  0  0
   -2.2240   14.7040    0.6490 N   0  0  0  0  0  0  0  0  0  0  0  0
   -0.5380   14.8090   -0.7300 N   0  0  0  0  0  0  0  0  0  0  0  0
   -1.1700   14.8930    1.4560 N   0  0  0  0  0  0  0  0  0  0  0  0
   -0.1760   14.9560    0.5750 C   0  0  0  0  0  0  0  0  0  0  0  0
  1  2  1  0
  2  3  1  0
  1  4  2  3
  4  5  1  0
  5  6  1  0
  3  7  2  0
  3  8  1  0
  6  9  1  0
  7 10  1  0
  8 11  1  0
 10 11  2  0
  9 12  1  0
 12 13  1  0
 13 14  1  0
 14 15  1  0
 15 16  1  0
 15 17  2  0
 16 18  1  0
 17 19  1  0
 18 19  2  0
M  END
