x0104_0_A-x0910_0_A
     RDKit          3D

 22 24  0  0  0  0  0  0  0  0999 V2000
   -6.9870   14.3890    2.5600 N   0  0  0  0  0  0  0  0  0  0  0  0
   -8.0400   15.0440    3.0830 C   0  0  0  0  0  0  0  0  0  0  0  0
   -8.1180   15.0380    4.4420 N   0  0  0  0  0  0  0  0  0  0  0  0
   -6.2860   14.6070    1.3680 C   0  0  0  0  0  0  0  0  0  0  0  0
   -8.9250   15.6220    2.4520 O   0  0  0  0  0  0  0  0  0  0  0  0
   -4.9130   14.7250    1.3220 C   0  0  0  0  0  0  0  0  0  0  0  0
   -6.9830   14.7110    0.1560 C   0  0  0  0  0  0  0  0  0  0  0  0
   -4.2060   14.9270    0.2010 N   0  0  0  0  0  0  0  0  0  0  0  0
   -6.2660   14.9270   -1.0260 C   0  0  0  0  0  0  0  0  0  0  0  0
   -9.2130   15.0460    5.2840 C   0  0  0  0  0  0  0  0  0  0  0  0
   -4.8820   15.0250   -0.9420 C   0  0  0  0  0  0  0  0  0  0  0  0
   -9.1890   15.1750    6.6580 C   0  0  0  0  0  0  0  0  0  0  0  0
  -10.8060   14.8910    4.7060 S   0  0  0  0  0  0  0  0  0  0  0  0
   -4.1570   15.2300   -2.0890 O   0  0  0  0  0  0  0  0  0  0  0  0
  -11.4750   14.9910    6.2740 C   0  0  0  0  0  0  0  0  0  0  0  0
  -10.4970   15.1440    7.2330 C   0  0  0  0  0  0  0  0  0  0  0  0
   -2.8680   14.5580   -2.0930 C   0  0  0  0  0  0  0  0  0  0  0  0
   -1.9510   14.7040   -0.8740 C   0  0  0  0  0  0  0  0  0  0  0  0
   -2.3530   14.7640    0.4150 N   0  0  0  0  0  0  0  0  0  0  0  0
   -0.5730   14.7920   -1.0020 N   0  0  0  0  0  0  0  0  0  0  0  0
   -1.1940   14.8950    1.0860 N   0  0  0  0  0  0  0  0  0  0  0  0
   -0.1430   14.9120    0.2360 C   0  0  0  0  0  0  0  0  0  0  0  0
  1  2  1  0
  2  3  1  0
  1  4  1  0
  2  5  2  0
  4  6  2  0
  4  7  1  0
  6  8  1  0
  7  9  2  0
  3 10  1  0
  8 11  2  0
  9 11  1  0
 10 12  2  0
 10 13  1  0
 11 14  1  0
 13 15  1  0
 12 16  1  0
 15 16  2  0
 14 17  1  0
 17 18  1  0
 18 19  2  0
 18 20  1  0
 19 21  1  0
 20 22  2  0
 21 22  1  0
M  END
