x0104_0_A-x1012_0_A
     RDKit          3D

 31 33  0  0  0  0  0  0  0  0999 V2000
   -6.7820   14.7720    2.7560 N   0  0  0  0  0  0  0  0  0  0  0  0
   -8.0390   15.0960    3.2410 C   0  0  0  0  0  0  0  0  0  0  0  0
   -8.0260   15.0970    4.6260 N   0  0  0  0  0  0  0  0  0  0  0  0
   -6.3300   14.7420    1.4310 C   0  0  0  0  0  0  0  0  0  0  0  0
   -9.0130   15.3450    2.5440 O   0  0  0  0  0  0  0  0  0  0  0  0
   -4.9870   14.7990    1.0630 C   0  0  0  0  0  0  0  0  0  0  0  0
   -7.2780   14.6540    0.4190 C   0  0  0  0  0  0  0  0  0  0  0  0
   -4.5530   14.7700   -0.2240 N   0  0  0  0  0  0  0  0  0  0  0  0
   -6.8640   14.6260   -0.9030 C   0  0  0  0  0  0  0  0  0  0  0  0
   -9.1510   15.0980    5.4200 C   0  0  0  0  0  0  0  0  0  0  0  0
   -5.5130   14.6830   -1.1670 C   0  0  0  0  0  0  0  0  0  0  0  0
   -9.3240   15.2150    6.7790 C   0  0  0  0  0  0  0  0  0  0  0  0
  -10.6280   14.9220    4.5830 S   0  0  0  0  0  0  0  0  0  0  0  0
   -5.1960   14.6410   -2.5020 O   0  0  0  0  0  0  0  0  0  0  0  0
  -11.5270   14.9980    6.0420 C   0  0  0  0  0  0  0  0  0  0  0  0
  -10.7040   15.1560    7.1410 C   0  0  0  0  0  0  0  0  0  0  0  0
   -3.8650   14.1900   -2.7510 C   0  0  0  0  0  0  0  0  0  0  0  0
   -3.0940   15.4380   -3.0600 C   0  0  0  0  0  0  0  0  0  0  0  0
   -3.1480   15.8040   -4.5330 C   0  0  0  0  0  0  0  0  0  0  0  0
   -2.4490   17.0540   -4.7110 N   0  0  0  0  0  0  0  0  0  0  0  0
   -1.1980   17.0540   -4.8980 C   0  0  0  0  0  0  0  0  0  0  0  0
   -0.4010   18.1280   -5.0780 N   0  0  0  0  0  0  0  0  0  0  0  0
   -0.5090   15.8340   -4.9330 N   0  0  0  0  0  0  0  0  0  0  0  0
   -1.2620   14.5590   -5.0940 C   0  0  0  0  0  0  0  0  0  0  0  0
    0.8910   15.7530   -4.4180 C   0  0  0  0  0  0  0  0  0  0  0  0
   -1.1340   13.6740   -3.8620 C   0  0  0  0  0  0  0  0  0  0  0  0
    1.1030   14.7030   -3.3080 C   0  0  0  0  0  0  0  0  0  0  0  0
    0.3290   13.3970   -3.5510 C   0  0  0  0  0  0  0  0  0  0  0  0
    0.4430   12.4170   -2.3950 C   0  0  0  0  0  0  0  0  0  0  0  0
    0.4210   11.1260   -2.7680 O   0  0  0  0  0  0  0  0  0  0  0  0
    0.5320   12.7700   -1.2310 O   0  0  0  0  0  0  0  0  0  0  0  0
  1  2  1  0
  2  3  1  0
  1  4  1  0
  2  5  2  0
  4  6  2  0
  4  7  1  0
  6  8  1  0
  7  9  2  0
  3 10  1  0
  8 11  2  0
  9 11  1  0
 10 12  2  0
 10 13  1  0
 11 14  1  0
 13 15  1  0
 12 16  1  0
 15 16  2  0
 14 17  1  0
 17 18  1  0
 18 19  1  0
 19 20  1  0
 20 21  2  3
 21 22  1  0
 21 23  1  0
 23 24  1  0
 23 25  1  0
 24 26  1  0
 25 27  1  0
 26 28  1  0
 27 28  1  0
 28 29  1  0
 29 30  1  0
 29 31  2  0
M  END
