x0104_0_A_β-x0591_0_A_α
     RDKit          3D

 22 23  0  0  0  0  0  0  0  0999 V2000
   -6.6950   13.2660    1.2250 N   0  0  0  0  0  0  0  0  0  0  0  0
   -7.3510   12.7980    0.0680 N   0  0  0  0  0  0  0  0  0  0  0  0
   -7.3560   13.6910   -1.0100 C   0  0  0  0  0  0  0  0  0  0  0  0
   -5.5970   14.0030    0.7850 C   0  0  0  0  0  0  0  0  0  0  0  0
   -4.2700   13.7540    1.1070 C   0  0  0  0  0  0  0  0  0  0  0  0
   -5.8520   15.0710   -0.0580 C   0  0  0  0  0  0  0  0  0  0  0  0
   -8.3220   14.4230   -1.2120 O   0  0  0  0  0  0  0  0  0  0  0  0
   -3.2200   14.4710    0.6510 N   0  0  0  0  0  0  0  0  0  0  0  0
   -4.8120   15.8180   -0.5450 C   0  0  0  0  0  0  0  0  0  0  0  0
   -6.1580   13.7580   -1.9390 C   0  0  0  0  0  0  0  0  0  0  0  0
   -3.5320   15.4870   -0.1720 C   0  0  0  0  0  0  0  0  0  0  0  0
   -4.8870   13.2040   -1.6620 C   0  0  0  0  0  0  0  0  0  0  0  0
   -6.3450   14.4240   -3.1570 C   0  0  0  0  0  0  0  0  0  0  0  0
   -2.5330   16.2570   -0.6950 O   0  0  0  0  0  0  0  0  0  0  0  0
   -3.8350   13.3250   -2.5970 C   0  0  0  0  0  0  0  0  0  0  0  0
   -5.3060   14.5420   -4.0840 C   0  0  0  0  0  0  0  0  0  0  0  0
   -1.8210   15.5670   -1.7120 C   0  0  0  0  0  0  0  0  0  0  0  0
   -4.0550   13.9990   -3.8110 C   0  0  0  0  0  0  0  0  0  0  0  0
   -2.7720   14.1870   -5.0390 S   0  0  0  0  0  0  0  0  0  0  0  0
   -1.7260   15.3080   -4.3450 N   0  0  0  0  0  0  0  0  0  0  0  0
   -2.0190   12.9570   -5.1100 O   0  0  0  0  0  0  0  0  0  0  0  0
   -3.3540   14.8120   -6.2050 O   0  0  0  0  0  0  0  0  0  0  0  0
  1  2  1  0
  2  3  1  0
  1  4  1  0
  4  5  2  0
  4  6  1  0
  3  7  2  0
  5  8  1  0
  6  9  2  0
  3 10  1  0
  8 11  2  0
  9 11  1  0
 10 12  2  0
 10 13  1  0
 11 14  1  0
 12 15  1  0
 13 16  2  0
 14 17  1  0
 15 18  2  0
 16 18  1  0
 18 19  1  0
 19 20  1  0
 19 21  2  0
 19 22  2  0
M  END
