x0104_0_A_β-x0805_0_A_β
     RDKit          3D

 20 21  0  0  0  0  0  0  0  0999 V2000
   -6.8000   14.6890    2.5600 N   0  0  0  0  0  0  0  0  0  0  0  0
   -6.2770   14.7640    1.2730 C   0  0  0  0  0  0  0  0  0  0  0  0
   -7.1170   14.7370    0.1680 C   0  0  0  0  0  0  0  0  0  0  0  0
   -4.9060   14.8740    1.0260 C   0  0  0  0  0  0  0  0  0  0  0  0
   -4.3380   14.9560   -0.2080 N   0  0  0  0  0  0  0  0  0  0  0  0
   -6.5790   14.8240   -1.1100 C   0  0  0  0  0  0  0  0  0  0  0  0
   -5.2060   14.9320   -1.2470 C   0  0  0  0  0  0  0  0  0  0  0  0
   -4.7380   15.0150   -2.5410 O   0  0  0  0  0  0  0  0  0  0  0  0
   -3.3260   14.8600   -2.6820 C   0  0  0  0  0  0  0  0  0  0  0  0
   -2.9180   15.3410   -4.0770 C   0  0  0  0  0  0  0  0  0  0  0  0
   -1.6330   14.7120   -4.6700 C   0  0  0  0  0  0  0  0  0  0  0  0
   -0.5860   14.2610   -3.6190 C   0  0  1  0  0  0  0  0  0  0  0  0
    0.1380   12.9180   -3.9750 C   0  0  2  0  0  0  0  0  0  0  0  0
    0.4100   15.4090   -3.3550 C   0  0  0  0  0  0  0  0  0  0  0  0
    0.3260   12.0990   -2.6990 C   0  0  0  0  0  0  0  0  0  0  0  0
    1.4770   13.0760   -4.7190 C   0  0  0  0  0  0  0  0  0  0  0  0
    1.7360   15.2930   -4.0890 C   0  0  0  0  0  0  0  0  0  0  0  0
    0.3350   10.7650   -2.8880 O   0  0  0  0  0  0  0  0  0  0  0  0
    0.4500   12.5820   -1.5690 O   0  0  0  0  0  0  0  0  0  0  0  0
    2.3080   13.9960   -4.0400 O   0  0  0  0  0  0  0  0  0  0  0  0
  1  2  1  0
  2  3  2  0
  2  4  1  0
  4  5  2  0
  3  6  1  0
  5  7  1  0
  6  7  2  0
  7  8  1  0
  8  9  1  0
  9 10  1  0
 10 11  1  0
 12 11  1  6
 12 13  1  0
 12 14  1  0
 13 15  1  1
 13 16  1  0
 14 17  1  0
 15 18  1  0
 15 19  2  0
 16 20  1  0
 17 20  1  0
M  END
