x0104_0_A_β-x0628_0_A_α
     RDKit          3D

 23 24  0  0  0  0  0  0  0  0999 V2000
   -6.8430   14.7210    2.6290 N   0  0  0  0  0  0  0  0  0  0  0  0
   -6.3190   14.7610    1.3440 C   0  0  0  0  0  0  0  0  0  0  0  0
   -7.1360   14.6600    0.2280 C   0  0  0  0  0  0  0  0  0  0  0  0
   -4.9500   14.9100    1.1170 C   0  0  0  0  0  0  0  0  0  0  0  0
   -4.3490   14.9610   -0.1000 N   0  0  0  0  0  0  0  0  0  0  0  0
   -6.5690   14.7110   -1.0400 C   0  0  0  0  0  0  0  0  0  0  0  0
   -5.1970   14.8590   -1.1520 C   0  0  0  0  0  0  0  0  0  0  0  0
   -4.7240   14.8940   -2.4440 O   0  0  0  0  0  0  0  0  0  0  0  0
   -3.3160   14.7710   -2.5620 C   0  0  0  0  0  0  0  0  0  0  0  0
   -2.8220   13.5020   -1.8560 C   0  0  0  0  0  0  0  0  0  0  0  0
   -1.8820   12.6950   -2.7540 C   0  0  0  0  0  0  0  0  0  0  0  0
   -2.4460   12.4100   -4.1480 C   0  0  0  0  0  0  0  0  0  0  0  0
   -1.5740   11.6570   -5.0980 C   0  0  0  0  0  0  0  0  0  0  0  0
   -1.8850   10.4990   -5.6470 N   0  0  0  0  0  0  0  0  0  0  0  0
   -0.3280   12.0340   -5.5570 N   0  0  0  0  0  0  0  0  0  0  0  0
    0.4530   13.2200   -5.2540 C   0  0  0  0  0  0  0  0  0  0  0  0
   -0.8070   10.2080   -6.4320 C   0  0  0  0  0  0  0  0  0  0  0  0
    0.1700   11.1200   -6.4110 N   0  0  0  0  0  0  0  0  0  0  0  0
   -0.7270    8.9750   -7.2450 C   0  0  0  0  0  0  0  0  0  0  0  0
    1.5920   12.9290   -4.2740 C   0  0  0  0  0  0  0  0  0  0  0  0
    1.0720   12.2500   -3.0350 C   0  0  0  0  0  0  0  0  0  0  0  0
    0.5810   11.1340   -3.0080 O   0  0  0  0  0  0  0  0  0  0  0  0
    1.1950   12.9840   -1.9150 O   0  0  0  0  0  0  0  0  0  0  0  0
  1  2  1  0
  2  3  2  0
  2  4  1  0
  4  5  2  0
  3  6  1  0
  5  7  1  0
  6  7  2  0
  7  8  1  0
  8  9  1  0
  9 10  1  0
 10 11  1  0
 11 12  1  0
 12 13  1  0
 13 14  2  0
 13 15  1  0
 15 16  1  0
 14 17  1  0
 15 18  1  0
 17 18  2  0
 17 19  1  0
 16 20  1  0
 20 21  1  0
 21 22  2  0
 21 23  1  0
M  END
