x0104_0_A_β-x0805_0_A_α
     RDKit          3D

 17 18  0  0  0  0  0  0  0  0999 V2000
   -7.0340   14.8440    2.9830 N   0  0  0  0  0  0  0  0  0  0  0  0
   -6.6860   14.6890    1.6480 C   0  0  0  0  0  0  0  0  0  0  0  0
   -7.6680   14.7360    0.6700 C   0  0  0  0  0  0  0  0  0  0  0  0
   -5.3770   14.4890    1.2230 C   0  0  0  0  0  0  0  0  0  0  0  0
   -5.0120   14.3420   -0.0700 N   0  0  0  0  0  0  0  0  0  0  0  0
   -7.3250   14.5890   -0.6580 C   0  0  0  0  0  0  0  0  0  0  0  0
   -6.0120   14.3970   -0.9700 C   0  0  0  0  0  0  0  0  0  0  0  0
   -5.7900   14.2610   -2.3010 O   0  0  0  0  0  0  0  0  0  0  0  0
   -4.7510   15.0730   -2.7340 C   0  0  0  0  0  0  0  0  0  0  0  0
   -3.4580   14.4070   -2.5680 C   0  0  0  0  0  0  0  0  0  0  0  0
   -3.0260   13.5020   -3.5280 C   0  0  0  0  0  0  0  0  0  0  0  0
   -2.6910   14.7070   -1.4490 C   0  0  0  0  0  0  0  0  0  0  0  0
   -3.2540   15.6080   -0.5750 O   0  0  0  0  0  0  0  0  0  0  0  0
   -1.8040   12.8870   -3.3950 C   0  0  0  0  0  0  0  0  0  0  0  0
   -1.4570   14.0900   -1.3160 C   0  0  0  0  0  0  0  0  0  0  0  0
   -3.1140   15.3980    0.8250 C   0  0  0  0  0  0  0  0  0  0  0  0
   -1.0170   13.1840   -2.2900 C   0  0  0  0  0  0  0  0  0  0  0  0
  1  2  1  0
  2  3  2  0
  2  4  1  0
  4  5  2  0
  3  6  1  0
  5  7  1  0
  6  7  2  0
  7  8  1  0
  8  9  1  0
  9 10  1  0
 10 11  2  0
 10 12  1  0
 12 13  1  0
 11 14  1  0
 12 15  2  0
 13 16  1  0
 14 17  2  0
 15 17  1  0
M  END
