x0104_0_A-x0128_0_A
     RDKit          3D

 23 25  0  0  0  0  0  0  0  0999 V2000
   -6.8560   14.7200    2.7970 N   0  0  0  0  0  0  0  0  0  0  0  0
   -8.1220   15.1290    3.2560 C   0  0  0  0  0  0  0  0  0  0  0  0
   -8.2810   15.1780    4.6850 N   0  0  0  0  0  0  0  0  0  0  0  0
   -6.3110   14.7630    1.4880 C   0  0  0  0  0  0  0  0  0  0  0  0
   -9.0220   15.4190    2.4700 O   0  0  0  0  0  0  0  0  0  0  0  0
   -4.9470   14.9060    1.1960 C   0  0  0  0  0  0  0  0  0  0  0  0
   -7.1760   14.6600    0.3980 C   0  0  0  0  0  0  0  0  0  0  0  0
   -4.4270   14.9490   -0.0590 N   0  0  0  0  0  0  0  0  0  0  0  0
   -6.6670   14.7070   -0.9020 C   0  0  0  0  0  0  0  0  0  0  0  0
   -9.3810   14.5330    5.2440 C   0  0  0  0  0  0  0  0  0  0  0  0
   -8.8040   16.2730    5.3780 C   0  0  0  0  0  0  0  0  0  0  0  0
   -5.3000   14.8510   -1.0800 C   0  0  0  0  0  0  0  0  0  0  0  0
   -9.4800   13.9730    6.5010 C   0  0  0  0  0  0  0  0  0  0  0  0
  -10.8730   14.4300    4.4030 S   0  0  0  0  0  0  0  0  0  0  0  0
   -9.3160   17.4270    4.8210 C   0  0  0  0  0  0  0  0  0  0  0  0
   -8.8600   16.1350    6.7680 C   0  0  0  0  0  0  0  0  0  0  0  0
   -4.8620   14.8870   -2.3900 O   0  0  0  0  0  0  0  0  0  0  0  0
  -11.6370   13.6620    5.7210 C   0  0  0  0  0  0  0  0  0  0  0  0
  -10.7810   13.4750    6.7780 C   0  0  0  0  0  0  0  0  0  0  0  0
   -9.8790   18.4050    5.5600 N   0  0  0  0  0  0  0  0  0  0  0  0
   -9.4290   17.1160    7.5440 C   0  0  0  0  0  0  0  0  0  0  0  0
   -3.4600   15.0830   -2.5230 C   0  0  0  0  0  0  0  0  0  0  0  0
   -9.9270   18.2190    6.8980 C   0  0  0  0  0  0  0  0  0  0  0  0
  1  2  1  0
  2  3  1  0
  1  4  1  0
  2  5  2  0
  4  6  2  0
  4  7  1  0
  6  8  1  0
  7  9  2  0
  3 10  1  0
  3 11  1  0
  8 12  2  0
  9 12  1  0
 10 13  2  0
 10 14  1  0
 11 15  2  0
 11 16  1  0
 12 17  1  0
 14 18  1  0
 13 19  1  0
 18 19  2  0
 15 20  1  0
 16 21  2  0
 17 22  1  0
 20 23  2  0
 21 23  1  0
M  END
