x0104_0_A_β-x0852_0_B_α
     RDKit          3D

 21 22  0  0  0  0  0  0  0  0999 V2000
   -6.8770   14.7850    2.3030 N   0  0  0  0  0  0  0  0  0  0  0  0
   -6.4000   14.7800    0.9870 C   0  0  0  0  0  0  0  0  0  0  0  0
   -7.1360   15.1510   -0.1930 C   0  0  0  0  0  0  0  0  0  0  0  0
   -5.0700   14.3870    0.8110 C   0  0  0  0  0  0  0  0  0  0  0  0
   -8.5790   15.6610   -0.3990 C   0  0  0  0  0  0  0  0  0  0  0  0
   -4.4160   14.3220   -0.3620 N   0  0  0  0  0  0  0  0  0  0  0  0
   -6.4450   15.0750   -1.4000 C   0  0  0  0  0  0  0  0  0  0  0  0
   -9.7230   15.1760    0.5010 C   0  0  0  0  0  0  0  0  0  0  0  0
   -5.1340   14.6680   -1.4360 C   0  0  0  0  0  0  0  0  0  0  0  0
   -4.5680   14.6340   -2.6860 O   0  0  0  0  0  0  0  0  0  0  0  0
  -10.1070   16.1850    1.4590 O   0  0  0  0  0  0  0  0  0  0  0  0
   -3.2300   15.0960   -2.6910 C   0  0  0  0  0  0  0  0  0  0  0  0
   -9.5120   15.9490    2.6540 C   0  0  0  0  0  0  0  0  0  0  0  0
   -8.6280   14.9030    2.8080 C   0  0  0  0  0  0  0  0  0  0  0  0
   -9.7960   16.7770    3.7560 C   0  0  0  0  0  0  0  0  0  0  0  0
   -8.0020   14.6540    4.0180 C   0  0  0  0  0  0  0  0  0  0  0  0
   -9.1670   16.5240    4.9960 C   0  0  0  0  0  0  0  0  0  0  0  0
   -9.4580   17.3460    6.1310 C   0  0  0  0  0  0  0  0  0  0  0  0
   -8.2640   15.4580    5.1050 C   0  0  0  0  0  0  0  0  0  0  0  0
   -9.7280   17.9420    7.0920 N   0  0  0  0  0  0  0  0  0  0  0  0
   -7.6210   15.1850    6.2810 O   0  0  0  0  0  0  0  0  0  0  0  0
  1  2  1  0
  2  3  2  0
  2  4  1  0
  3  5  1  0
  4  6  2  0
  3  7  1  0
  5  8  1  0
  6  9  1  0
  7  9  2  0
  9 10  1  0
  8 11  1  0
 10 12  1  0
 11 13  1  0
 13 14  2  0
 13 15  1  0
 14 16  1  0
 15 17  2  0
 17 18  1  0
 16 19  2  0
 17 19  1  0
 18 20  3  0
 19 21  1  0
M  END
