x0104_0_A-x1018_0_A
     RDKit          3D

 20 22  0  0  0  0  0  0  0  0999 V2000
   -6.7580   14.6550    2.5760 N   0  0  0  0  0  0  0  0  0  0  0  0
   -8.0060   15.0410    3.0780 C   0  0  0  0  0  0  0  0  0  0  0  0
   -8.0320   15.0040    4.4720 N   0  0  0  0  0  0  0  0  0  0  0  0
   -6.2390   14.7940    1.3030 C   0  0  0  0  0  0  0  0  0  0  0  0
   -8.9490   15.3700    2.3720 O   0  0  0  0  0  0  0  0  0  0  0  0
   -4.9160   15.0500    1.1140 C   0  0  0  0  0  0  0  0  0  0  0  0
   -7.0690   14.7000    0.1120 C   0  0  0  0  0  0  0  0  0  0  0  0
   -4.3090   15.2300   -0.1310 N   0  0  0  0  0  0  0  0  0  0  0  0
   -6.5110   14.7240   -1.1140 C   0  0  0  0  0  0  0  0  0  0  0  0
   -9.1660   15.0330    5.2720 C   0  0  0  0  0  0  0  0  0  0  0  0
   -5.0260   14.8410   -1.3520 C   0  0  1  0  0  0  0  0  0  0  0  0
   -9.1860   15.1740    6.6450 C   0  0  0  0  0  0  0  0  0  0  0  0
  -10.7330   14.8920    4.6300 S   0  0  0  0  0  0  0  0  0  0  0  0
   -3.0820   14.5780   -0.3750 N   0  0  0  0  0  0  0  0  0  0  0  0
   -4.8020   15.7680   -2.3980 O   0  0  0  0  0  0  0  0  0  0  0  0
  -11.4590   15.0130    6.1720 C   0  0  0  0  0  0  0  0  0  0  0  0
  -10.5190   15.1620    7.1680 C   0  0  0  0  0  0  0  0  0  0  0  0
   -3.1970   13.7270   -1.4490 N   0  0  0  0  0  0  0  0  0  0  0  0
   -4.4270   13.5560   -1.6670 N   0  0  0  0  0  0  0  0  0  0  0  0
   -3.6450   15.4090   -3.1390 C   0  0  0  0  0  0  0  0  0  0  0  0
  1  2  1  0
  2  3  1  0
  1  4  1  0
  2  5  2  0
  4  6  2  0
  4  7  1  0
  6  8  1  0
  7  9  2  0
  3 10  1  0
  8 11  1  0
  9 11  1  0
 10 12  2  0
 10 13  1  0
  8 14  1  0
 11 15  1  6
 13 16  1  0
 12 17  1  0
 16 17  2  0
 14 18  1  0
 11 19  1  0
 18 19  2  0
 15 20  1  0
M  END
