x0104_0_A-x0962_0_A
     RDKit          3D

 18 20  0  0  0  0  0  0  0  0999 V2000
   -6.9140   14.1830    2.5190 N   0  0  0  0  0  0  0  0  0  0  0  0
   -7.9830   14.9060    3.0370 C   0  0  0  0  0  0  0  0  0  0  0  0
   -7.9010   14.9140    4.4110 N   0  0  0  0  0  0  0  0  0  0  0  0
   -6.1000   14.7290    1.4410 C   0  0  1  0  0  0  0  0  0  0  0  0
   -8.8460   15.4350    2.3440 O   0  0  0  0  0  0  0  0  0  0  0  0
   -4.7970   13.9750    1.0640 C   0  0  0  0  0  0  0  0  0  0  0  0
   -7.0520   14.8750    0.2630 C   0  0  0  0  0  0  0  0  0  0  0  0
   -4.3830   14.3990   -0.2860 N   0  0  0  0  0  0  0  0  0  0  0  0
   -6.6770   14.6470   -1.0070 C   0  0  0  0  0  0  0  0  0  0  0  0
   -8.9890   14.9990    5.2640 C   0  0  0  0  0  0  0  0  0  0  0  0
   -3.1780   14.7570   -0.8200 C   0  0  0  0  0  0  0  0  0  0  0  0
   -5.3000   14.2080   -1.3970 C   0  0  1  0  0  0  0  0  0  0  0  0
   -9.1040   15.1610    6.6270 C   0  0  0  0  0  0  0  0  0  0  0  0
  -10.5130   14.8750    4.5050 S   0  0  0  0  0  0  0  0  0  0  0  0
   -3.4040   15.1050   -2.0920 C   0  0  0  0  0  0  0  0  0  0  0  0
   -4.7480   15.0100   -2.4740 O   0  0  0  0  0  0  0  0  0  0  0  0
  -11.3450   15.0390    5.9980 C   0  0  0  0  0  0  0  0  0  0  0  0
  -10.4700   15.1850    7.0520 C   0  0  0  0  0  0  0  0  0  0  0  0
  1  2  1  0
  2  3  1  0
  4  1  1  1
  2  5  2  0
  4  6  1  0
  4  7  1  0
  6  8  1  0
  7  9  2  0
  3 10  1  0
  8 11  1  0
  8 12  1  0
 12  9  1  1
 10 13  2  0
 10 14  1  0
 11 15  2  0
 12 16  1  0
 15 16  1  0
 14 17  1  0
 13 18  1  0
 17 18  2  0
M  END
