x0104_0_A-x0864_0_A
     RDKit          3D

 32 34  0  0  0  0  0  0  0  0999 V2000
   -6.7740   14.7530    2.6580 N   0  0  0  0  0  0  0  0  0  0  0  0
   -8.0440   15.0950    3.1140 C   0  0  0  0  0  0  0  0  0  0  0  0
   -8.0270   15.1960    4.4980 N   0  0  0  0  0  0  0  0  0  0  0  0
   -6.2300   14.7330    1.3580 C   0  0  0  0  0  0  0  0  0  0  0  0
   -9.0190   15.2820    2.3960 O   0  0  0  0  0  0  0  0  0  0  0  0
   -4.8620   14.7910    1.1010 C   0  0  0  0  0  0  0  0  0  0  0  0
   -7.0780   14.6530    0.2490 C   0  0  0  0  0  0  0  0  0  0  0  0
   -4.3050   14.7690   -0.1330 N   0  0  0  0  0  0  0  0  0  0  0  0
   -6.5320   14.6330   -1.0350 C   0  0  0  0  0  0  0  0  0  0  0  0
   -9.1330   15.1590    5.3240 C   0  0  0  0  0  0  0  0  0  0  0  0
   -5.1480   14.6900   -1.1790 C   0  0  0  0  0  0  0  0  0  0  0  0
   -9.2630   15.2040    6.6920 C   0  0  0  0  0  0  0  0  0  0  0  0
  -10.6370   15.0310    4.5330 S   0  0  0  0  0  0  0  0  0  0  0  0
   -4.6580   14.6520   -2.4740 O   0  0  0  0  0  0  0  0  0  0  0  0
  -11.4860   15.0340    6.0230 C   0  0  0  0  0  0  0  0  0  0  0  0
  -10.6320   15.1310    7.0990 C   0  0  0  0  0  0  0  0  0  0  0  0
   -3.4140   15.3180   -2.7130 C   0  0  0  0  0  0  0  0  0  0  0  0
   -2.3420   14.4000   -3.3210 C   0  0  0  0  0  0  0  0  0  0  0  0
   -1.0850   15.1140   -3.8860 C   0  0  0  0  0  0  0  0  0  0  0  0
   -0.0200   14.2090   -4.5310 C   0  0  0  0  0  0  0  0  0  0  0  0
   -0.1530   12.7080   -4.2190 C   0  0  2  0  0  0  0  0  0  0  0  0
    0.7600   12.2040   -3.0880 C   0  0  0  0  0  0  0  0  0  0  0  0
   -0.5350   11.8420   -5.3600 N   0  0  0  0  0  0  0  0  0  0  0  0
    0.6410   10.9040   -2.7670 O   0  0  0  0  0  0  0  0  0  0  0  0
    1.5420   12.9340   -2.4940 O   0  0  0  0  0  0  0  0  0  0  0  0
   -1.7020   11.1350   -5.1200 C   0  0  0  0  0  0  0  0  0  0  0  0
    0.3540   11.4220   -6.3450 C   0  0  0  0  0  0  0  0  0  0  0  0
    1.4350   11.9610   -6.5690 O   0  0  0  0  0  0  0  0  0  0  0  0
   -2.0430   10.0660   -5.8290 C   0  0  0  0  0  0  0  0  0  0  0  0
   -0.0420   10.2440   -7.1570 C   0  0  0  0  0  0  0  0  0  0  0  0
   -1.1940    9.6100   -6.8890 C   0  0  0  0  0  0  0  0  0  0  0  0
   -1.7670    8.1200   -7.8510 Br  0  0  0  0  0  0  0  0  0  0  0  0
  1  2  1  0
  2  3  1  0
  1  4  1  0
  2  5  2  0
  4  6  2  0
  4  7  1  0
  6  8  1  0
  7  9  2  0
  3 10  1  0
  8 11  2  0
  9 11  1  0
 10 12  2  0
 10 13  1  0
 11 14  1  0
 13 15  1  0
 12 16  1  0
 15 16  2  0
 14 17  1  0
 17 18  1  0
 18 19  1  0
 19 20  1  0
 21 20  1  6
 21 22  1  0
 21 23  1  0
 22 24  1  0
 22 25  2  0
 23 26  1  0
 23 27  1  0
 27 28  2  0
 26 29  2  0
 27 30  1  0
 29 31  1  0
 30 31  2  0
 31 32  1  0
M  END
