x0104_0_A_α-x1012_0_A_α
     RDKit          3D

 27 28  0  0  0  0  0  0  0  0999 V2000
   -7.7380   14.9230    3.2480 C   0  0  0  0  0  0  0  0  0  0  0  0
   -7.9470   15.2420    4.5730 N   0  0  0  0  0  0  0  0  0  0  0  0
   -9.0860   15.1700    5.3210 C   0  0  0  0  0  0  0  0  0  0  0  0
   -8.5940   14.7890    2.2950 N   0  0  0  0  0  0  0  0  0  0  0  0
   -8.0170   14.4240    0.9800 C   0  0  0  0  0  0  0  0  0  0  0  0
   -6.7140   13.6180    1.1360 C   0  0  0  0  0  0  0  0  0  0  0  0
   -9.2400   15.2280    6.6930 C   0  0  0  0  0  0  0  0  0  0  0  0
  -10.6230   14.9730    4.5570 S   0  0  0  0  0  0  0  0  0  0  0  0
   -5.4130   14.3500    0.7360 C   0  0  0  0  0  0  0  0  0  0  0  0
  -10.6020   15.1150    7.1180 C   0  0  0  0  0  0  0  0  0  0  0  0
  -11.4580   14.9710    6.0470 C   0  0  0  0  0  0  0  0  0  0  0  0
   -5.0380   14.2210   -0.7510 C   0  0  0  0  0  0  0  0  0  0  0  0
   -4.6160   15.5680   -1.3510 C   0  0  0  0  0  0  0  0  0  0  0  0
   -3.2260   15.5800   -2.0230 C   0  0  0  0  0  0  0  0  0  0  0  0
   -3.2440   15.6730   -3.5630 C   0  0  0  0  0  0  0  0  0  0  0  0
   -2.5810   16.9050   -4.0410 N   0  0  0  0  0  0  0  0  0  0  0  0
   -1.4290   16.8090   -4.5790 C   0  0  0  0  0  0  0  0  0  0  0  0
   -0.8140   17.9520   -4.9840 N   0  0  0  0  0  0  0  0  0  0  0  0
   -0.6670   15.7070   -4.8300 N   0  0  0  0  0  0  0  0  0  0  0  0
   -1.3330   14.4280   -5.0800 C   0  0  0  0  0  0  0  0  0  0  0  0
    0.7670   15.6490   -4.5520 C   0  0  0  0  0  0  0  0  0  0  0  0
   -1.1790   13.5030   -3.8870 C   0  0  0  0  0  0  0  0  0  0  0  0
    1.0660   14.6380   -3.4300 C   0  0  0  0  0  0  0  0  0  0  0  0
    0.3090   13.2970   -3.5900 C   0  0  0  0  0  0  0  0  0  0  0  0
    0.4340   12.3870   -2.3830 C   0  0  0  0  0  0  0  0  0  0  0  0
    0.4010   11.0790   -2.7280 O   0  0  0  0  0  0  0  0  0  0  0  0
    0.5410   12.7390   -1.2200 O   0  0  0  0  0  0  0  0  0  0  0  0
  1  2  1  0
  2  3  1  0
  1  4  2  3
  4  5  1  0
  5  6  1  0
  3  7  2  0
  3  8  1  0
  6  9  1  0
  7 10  1  0
  8 11  1  0
 10 11  2  0
  9 12  1  0
 12 13  1  0
 13 14  1  0
 14 15  1  0
 15 16  1  0
 16 17  2  3
 17 18  1  0
 17 19  1  0
 19 20  1  0
 19 21  1  0
 20 22  1  0
 21 23  1  0
 22 24  1  0
 23 24  1  0
 24 25  1  0
 25 26  1  0
 25 27  2  0
M  END
