x0104_0_A_β-x1015_0_A_α
     RDKit          3D

 25 27  0  0  0  0  0  0  0  0999 V2000
   -6.8460   14.6520    2.5430 N   0  0  0  0  0  0  0  0  0  0  0  0
   -6.2870   14.7530    1.2710 C   0  0  0  0  0  0  0  0  0  0  0  0
   -7.0770   14.6920    0.1260 C   0  0  0  0  0  0  0  0  0  0  0  0
   -4.9120   14.9270    1.0810 C   0  0  0  0  0  0  0  0  0  0  0  0
   -4.3040   15.0390   -0.1190 N   0  0  0  0  0  0  0  0  0  0  0  0
   -6.4820   14.8070   -1.1270 C   0  0  0  0  0  0  0  0  0  0  0  0
   -5.1070   14.9780   -1.1990 C   0  0  0  0  0  0  0  0  0  0  0  0
   -4.5650   15.0870   -2.4680 O   0  0  0  0  0  0  0  0  0  0  0  0
   -3.4580   14.2040   -2.6800 C   0  0  0  0  0  0  0  0  0  0  0  0
   -2.2700   15.0050   -3.2100 C   0  0  0  0  0  0  0  0  0  0  0  0
   -1.4800   14.3020   -4.3210 C   0  0  0  0  0  0  0  0  0  0  0  0
   -0.0900   13.6890   -3.9850 C   0  0  2  0  0  0  0  0  0  0  0  0
   -0.0740   12.2310   -3.9550 N   0  0  0  0  0  0  0  0  0  0  0  0
    0.2770   13.9750   -2.5240 C   0  0  0  0  0  0  0  0  0  0  0  0
    0.3510   15.0750   -2.0000 O   0  0  0  0  0  0  0  0  0  0  0  0
    0.2580   11.7370   -2.6820 C   0  0  0  0  0  0  0  0  0  0  0  0
    0.5340   12.8080   -1.8840 N   0  0  0  0  0  0  0  0  0  0  0  0
   -0.4780   11.4240   -5.0490 C   0  0  0  0  0  0  0  0  0  0  0  0
    0.3110   10.5680   -2.2870 O   0  0  0  0  0  0  0  0  0  0  0  0
    0.0790   11.6080   -6.3210 C   0  0  0  0  0  0  0  0  0  0  0  0
   -1.4450   10.4200   -4.8910 C   0  0  0  0  0  0  0  0  0  0  0  0
   -0.3150   10.8160   -7.4050 C   0  0  0  0  0  0  0  0  0  0  0  0
   -1.8410    9.6240   -5.9710 C   0  0  0  0  0  0  0  0  0  0  0  0
   -1.2750    9.8260   -7.2230 C   0  0  0  0  0  0  0  0  0  0  0  0
   -1.7640    8.8470   -8.5500 Cl  0  0  0  0  0  0  0  0  0  0  0  0
  1  2  1  0
  2  3  2  0
  2  4  1  0
  4  5  2  0
  3  6  1  0
  5  7  1  0
  6  7  2  0
  7  8  1  0
  8  9  1  0
  9 10  1  0
 10 11  1  0
 12 11  1  1
 12 13  1  0
 12 14  1  0
 14 15  2  0
 13 16  1  0
 14 17  1  0
 16 17  1  0
 13 18  1  0
 16 19  2  0
 18 20  2  0
 18 21  1  0
 20 22  1  0
 21 23  2  0
 22 24  2  0
 23 24  1  0
 24 25  1  0
M  END
