x0104_0_A_β-x0933_0_A_α
     RDKit          3D

  9  9  0  0  0  0  0  0  0  0999 V2000
   -6.8430   14.7300    2.6480 N   0  0  0  0  0  0  0  0  0  0  0  0
   -6.2830   14.7370    1.3680 C   0  0  0  0  0  0  0  0  0  0  0  0
   -7.1140   14.7280    0.2550 C   0  0  0  0  0  0  0  0  0  0  0  0
   -4.9080   14.7630    1.1290 C   0  0  0  0  0  0  0  0  0  0  0  0
   -4.3370   14.7810   -0.1030 N   0  0  0  0  0  0  0  0  0  0  0  0
   -6.5690   14.7490   -1.0220 C   0  0  0  0  0  0  0  0  0  0  0  0
   -5.1920   14.7750   -1.1520 C   0  0  0  0  0  0  0  0  0  0  0  0
   -4.7230   14.7910   -2.4510 O   0  0  0  0  0  0  0  0  0  0  0  0
   -3.3400   15.0840   -2.5550 C   0  0  0  0  0  0  0  0  0  0  0  0
  1  2  1  0
  2  3  2  0
  2  4  1  0
  4  5  2  0
  3  6  1  0
  5  7  1  0
  6  7  2  0
  7  8  1  0
  8  9  1  0
M  END
