x0104_0_A-x0933_0_A
     RDKit          3D

 17 18  0  0  0  0  0  0  0  0999 V2000
   -6.8080   14.6540    2.6830 N   0  0  0  0  0  0  0  0  0  0  0  0
   -8.0390   15.0810    3.1690 C   0  0  0  0  0  0  0  0  0  0  0  0
   -8.0160   15.1020    4.5590 N   0  0  0  0  0  0  0  0  0  0  0  0
   -6.2760   14.7320    1.3770 C   0  0  0  0  0  0  0  0  0  0  0  0
   -8.9970   15.3900    2.4720 O   0  0  0  0  0  0  0  0  0  0  0  0
   -4.9140   14.8520    1.0930 C   0  0  0  0  0  0  0  0  0  0  0  0
   -7.1500   14.6900    0.2920 C   0  0  0  0  0  0  0  0  0  0  0  0
   -4.3940   14.9280   -0.1590 N   0  0  0  0  0  0  0  0  0  0  0  0
   -6.6440   14.7730   -1.0040 C   0  0  0  0  0  0  0  0  0  0  0  0
   -9.1320   15.1030    5.3690 C   0  0  0  0  0  0  0  0  0  0  0  0
   -5.2730   14.8900   -1.1780 C   0  0  0  0  0  0  0  0  0  0  0  0
   -9.2890   15.2190    6.7300 C   0  0  0  0  0  0  0  0  0  0  0  0
  -10.6190   14.9300    4.5550 S   0  0  0  0  0  0  0  0  0  0  0  0
   -4.8310   14.9640   -2.4840 O   0  0  0  0  0  0  0  0  0  0  0  0
  -11.4980   15.0030    6.0270 C   0  0  0  0  0  0  0  0  0  0  0  0
  -10.6650   15.1590    7.1130 C   0  0  0  0  0  0  0  0  0  0  0  0
   -3.4180   15.0780   -2.6060 C   0  0  0  0  0  0  0  0  0  0  0  0
  1  2  1  0
  2  3  1  0
  1  4  1  0
  2  5  2  0
  4  6  2  0
  4  7  1  0
  6  8  1  0
  7  9  2  0
  3 10  1  0
  8 11  2  0
  9 11  1  0
 10 12  2  0
 10 13  1  0
 11 14  1  0
 13 15  1  0
 12 16  1  0
 15 16  2  0
 14 17  1  0
M  END
