x0104_0_A-x0628_0_A
     RDKit          3D

 31 33  0  0  0  0  0  0  0  0999 V2000
   -6.7490   14.7850    2.7030 N   0  0  0  0  0  0  0  0  0  0  0  0
   -8.0420   15.0800    3.1360 C   0  0  0  0  0  0  0  0  0  0  0  0
   -8.0860   15.1130    4.5200 N   0  0  0  0  0  0  0  0  0  0  0  0
   -6.2570   14.7520    1.3870 C   0  0  0  0  0  0  0  0  0  0  0  0
   -8.9850   15.2780    2.3700 O   0  0  0  0  0  0  0  0  0  0  0  0
   -4.8920   14.7990    1.1040 C   0  0  0  0  0  0  0  0  0  0  0  0
   -7.1380   14.6720    0.3110 C   0  0  0  0  0  0  0  0  0  0  0  0
   -4.3690   14.7690   -0.1390 N   0  0  0  0  0  0  0  0  0  0  0  0
   -6.6270   14.6440   -0.9830 C   0  0  0  0  0  0  0  0  0  0  0  0
   -9.2240   15.1080    5.3110 C   0  0  0  0  0  0  0  0  0  0  0  0
   -5.2540   14.6930   -1.1540 C   0  0  0  0  0  0  0  0  0  0  0  0
   -9.2590   15.1830    6.6870 C   0  0  0  0  0  0  0  0  0  0  0  0
  -10.7860   15.0000    4.6440 S   0  0  0  0  0  0  0  0  0  0  0  0
   -4.7930   14.6580   -2.4490 O   0  0  0  0  0  0  0  0  0  0  0  0
  -11.5240   15.0530    6.1860 C   0  0  0  0  0  0  0  0  0  0  0  0
  -10.5930   15.1520    7.1960 C   0  0  0  0  0  0  0  0  0  0  0  0
   -3.5940   15.4040   -2.5970 C   0  0  0  0  0  0  0  0  0  0  0  0
   -2.4240   14.4820   -2.8930 C   0  0  0  0  0  0  0  0  0  0  0  0
   -2.6000   13.6160   -4.1440 C   0  0  0  0  0  0  0  0  0  0  0  0
   -2.2740   12.1350   -3.9110 C   0  0  0  0  0  0  0  0  0  0  0  0
   -1.4820   11.4980   -5.0060 C   0  0  0  0  0  0  0  0  0  0  0  0
   -1.7970   10.3620   -5.5980 N   0  0  0  0  0  0  0  0  0  0  0  0
   -0.3180   11.9770   -5.5690 N   0  0  0  0  0  0  0  0  0  0  0  0
    0.4540   13.1750   -5.2940 C   0  0  0  0  0  0  0  0  0  0  0  0
   -0.8010   10.1780   -6.5090 C   0  0  0  0  0  0  0  0  0  0  0  0
    0.1230   11.1380   -6.5320 N   0  0  0  0  0  0  0  0  0  0  0  0
   -0.7610    9.0020   -7.3950 C   0  0  0  0  0  0  0  0  0  0  0  0
    1.6100   12.9300   -4.3320 C   0  0  0  0  0  0  0  0  0  0  0  0
    1.1490   12.2940   -3.0470 C   0  0  0  0  0  0  0  0  0  0  0  0
    0.4670   11.2820   -2.9590 O   0  0  0  0  0  0  0  0  0  0  0  0
    1.5710   12.9700   -1.9610 O   0  0  0  0  0  0  0  0  0  0  0  0
  1  2  1  0
  2  3  1  0
  1  4  1  0
  2  5  2  0
  4  6  2  0
  4  7  1  0
  6  8  1  0
  7  9  2  0
  3 10  1  0
  8 11  2  0
  9 11  1  0
 10 12  2  0
 10 13  1  0
 11 14  1  0
 13 15  1  0
 12 16  1  0
 15 16  2  0
 14 17  1  0
 17 18  1  0
 18 19  1  0
 19 20  1  0
 20 21  1  0
 21 22  2  0
 21 23  1  0
 23 24  1  0
 22 25  1  0
 23 26  1  0
 25 26  2  0
 25 27  1  0
 24 28  1  0
 28 29  1  0
 29 30  2  0
 29 31  1  0
M  END
