x0104_0_A-x0711_0_A
     RDKit          3D

 29 31  0  0  0  0  0  0  0  0999 V2000
   -6.5180   14.4400    2.0920 N   0  0  0  0  0  0  0  0  0  0  0  0
   -7.7830   14.8150    2.6480 C   0  0  0  0  0  0  0  0  0  0  0  0
   -7.7640   14.9330    4.0520 N   0  0  0  0  0  0  0  0  0  0  0  0
   -6.2350   13.1730    1.5750 C   0  0  0  0  0  0  0  0  0  0  0  0
   -5.9940   14.9490    0.8950 C   0  0  0  0  0  0  0  0  0  0  0  0
   -8.7660   15.0140    1.9400 O   0  0  0  0  0  0  0  0  0  0  0  0
   -6.7450   12.0930    1.8240 O   0  0  0  0  0  0  0  0  0  0  0  0
   -4.6730   15.3530    0.8050 C   0  0  0  0  0  0  0  0  0  0  0  0
   -6.7800   15.0070   -0.2630 C   0  0  0  0  0  0  0  0  0  0  0  0
   -5.1500   13.3420    0.5030 C   0  0  0  0  0  0  0  0  0  0  0  0
   -4.1000   15.7550   -0.3340 N   0  0  0  0  0  0  0  0  0  0  0  0
   -6.2060   15.4240   -1.4550 C   0  0  0  0  0  0  0  0  0  0  0  0
   -8.8640   15.0590    4.9040 C   0  0  0  0  0  0  0  0  0  0  0  0
   -5.4330   13.2820   -0.8810 C   0  0  0  0  0  0  0  0  0  0  0  0
   -3.8140   13.6030    0.8860 C   0  0  0  0  0  0  0  0  0  0  0  0
   -4.8720   15.7600   -1.4240 C   0  0  0  0  0  0  0  0  0  0  0  0
   -8.8060   15.1870    6.2820 C   0  0  0  0  0  0  0  0  0  0  0  0
  -10.4730   15.0710    4.3530 S   0  0  0  0  0  0  0  0  0  0  0  0
   -4.4250   13.5000   -1.8360 C   0  0  0  0  0  0  0  0  0  0  0  0
   -2.8010   13.8200   -0.0800 C   0  0  0  0  0  0  0  0  0  0  0  0
   -4.2140   16.1220   -2.5500 O   0  0  0  0  0  0  0  0  0  0  0  0
  -11.1060   15.2430    5.9350 C   0  0  0  0  0  0  0  0  0  0  0  0
  -10.1040   15.2930    6.8780 C   0  0  0  0  0  0  0  0  0  0  0  0
   -3.1000   13.7810   -1.4580 C   0  0  0  0  0  0  0  0  0  0  0  0
   -2.0730   14.0420   -2.5440 C   0  0  0  0  0  0  0  0  0  0  0  0
   -0.5330   13.1420   -2.3890 S   0  0  0  0  0  0  0  0  0  0  0  0
   -0.8930   11.6910   -3.3400 C   0  0  0  0  0  0  0  0  0  0  0  0
    0.4880   13.8710   -3.1270 O   0  0  0  0  0  0  0  0  0  0  0  0
   -0.3430   12.7240   -1.0080 O   0  0  0  0  0  0  0  0  0  0  0  0
  1  2  1  0
  2  3  1  0
  1  4  1  0
  1  5  1  0
  2  6  2  0
  4  7  2  0
  5  8  2  0
  5  9  1  0
  4 10  1  0
  8 11  1  0
  9 12  2  0
  3 13  1  0
 10 14  2  0
 10 15  1  0
 11 16  2  0
 12 16  1  0
 13 17  2  0
 13 18  1  0
 14 19  1  0
 15 20  2  0
 16 21  1  0
 18 22  1  0
 17 23  1  0
 22 23  2  0
 19 24  2  0
 20 24  1  0
 24 25  1  0
 26 25  1  0
 26 27  1  0
 26 28  2  0
 26 29  2  0
M  END
