x0104_0_A-x0962_1_A
     RDKit          3D

 17 18  0  0  0  0  0  0  0  0999 V2000
   -6.8050   14.6550    2.6890 N   0  0  0  0  0  0  0  0  0  0  0  0
   -8.0380   15.0760    3.1760 C   0  0  0  0  0  0  0  0  0  0  0  0
   -8.0080   15.1080    4.5610 N   0  0  0  0  0  0  0  0  0  0  0  0
   -6.2710   14.7320    1.3880 C   0  0  0  0  0  0  0  0  0  0  0  0
   -9.0000   15.3720    2.4780 O   0  0  0  0  0  0  0  0  0  0  0  0
   -4.9110   14.8470    1.1050 C   0  0  0  0  0  0  0  0  0  0  0  0
   -7.1460   14.6940    0.3010 C   0  0  0  0  0  0  0  0  0  0  0  0
   -4.3880   14.9240   -0.1460 N   0  0  0  0  0  0  0  0  0  0  0  0
   -6.6370   14.7770   -0.9950 C   0  0  0  0  0  0  0  0  0  0  0  0
   -9.1250   15.1060    5.3690 C   0  0  0  0  0  0  0  0  0  0  0  0
   -5.2690   14.8890   -1.1640 C   0  0  0  0  0  0  0  0  0  0  0  0
   -9.2840   15.2190    6.7310 C   0  0  0  0  0  0  0  0  0  0  0  0
  -10.6070   14.9300    4.5510 S   0  0  0  0  0  0  0  0  0  0  0  0
   -4.8290   14.9640   -2.4730 O   0  0  0  0  0  0  0  0  0  0  0  0
  -11.4900   15.0020    6.0180 C   0  0  0  0  0  0  0  0  0  0  0  0
  -10.6600   15.1590    7.1070 C   0  0  0  0  0  0  0  0  0  0  0  0
   -3.4180   15.0830   -2.5980 C   0  0  0  0  0  0  0  0  0  0  0  0
  1  2  1  0
  2  3  1  0
  1  4  1  0
  2  5  2  0
  4  6  2  0
  4  7  1  0
  6  8  1  0
  7  9  2  0
  3 10  1  0
  8 11  2  0
  9 11  1  0
 10 12  2  0
 10 13  1  0
 11 14  1  0
 13 15  1  0
 12 16  1  0
 15 16  2  0
 14 17  1  0
M  END
