x0104_0_A-x0905_0_A
     RDKit          3D

 17 18  0  0  0  0  0  0  0  0999 V2000
   -6.8110   14.6480    2.6830 N   0  0  0  0  0  0  0  0  0  0  0  0
   -8.0390   15.0830    3.1610 C   0  0  0  0  0  0  0  0  0  0  0  0
   -8.0180   15.1640    4.5480 N   0  0  0  0  0  0  0  0  0  0  0  0
   -6.2740   14.7280    1.3840 C   0  0  0  0  0  0  0  0  0  0  0  0
   -9.0060   15.3560    2.4550 O   0  0  0  0  0  0  0  0  0  0  0  0
   -4.9130   14.8490    1.1020 C   0  0  0  0  0  0  0  0  0  0  0  0
   -7.1470   14.6830    0.2970 C   0  0  0  0  0  0  0  0  0  0  0  0
   -4.3920   14.9250   -0.1490 N   0  0  0  0  0  0  0  0  0  0  0  0
   -6.6420   14.7640   -1.0000 C   0  0  0  0  0  0  0  0  0  0  0  0
   -9.1260   15.1290    5.3630 C   0  0  0  0  0  0  0  0  0  0  0  0
   -5.2740   14.8830   -1.1680 C   0  0  0  0  0  0  0  0  0  0  0  0
   -9.2800   15.2160    6.7270 C   0  0  0  0  0  0  0  0  0  0  0  0
  -10.6150   14.9440    4.5520 S   0  0  0  0  0  0  0  0  0  0  0  0
   -4.8290   14.9550   -2.4740 O   0  0  0  0  0  0  0  0  0  0  0  0
  -11.4890   14.9780    6.0250 C   0  0  0  0  0  0  0  0  0  0  0  0
  -10.6540   15.1280    7.1120 C   0  0  0  0  0  0  0  0  0  0  0  0
   -3.4200   15.0720   -2.5840 C   0  0  0  0  0  0  0  0  0  0  0  0
  1  2  1  0
  2  3  1  0
  1  4  1  0
  2  5  2  0
  4  6  2  0
  4  7  1  0
  6  8  1  0
  7  9  2  0
  3 10  1  0
  8 11  2  0
  9 11  1  0
 10 12  2  0
 10 13  1  0
 11 14  1  0
 13 15  1  0
 12 16  1  0
 15 16  2  0
 14 17  1  0
M  END
