x0104_0_A-x0574_0_A
     RDKit          3D

 22 24  0  0  0  0  0  0  0  0999 V2000
   -6.6300   14.8490    2.4490 N   0  0  0  0  0  0  0  0  0  0  0  0
   -7.9220   15.0790    2.9400 C   0  0  0  0  0  0  0  0  0  0  0  0
   -7.9370   14.9110    4.3140 N   0  0  0  0  0  0  0  0  0  0  0  0
   -6.2920   14.8590    1.0070 C   0  0  1  0  0  0  0  0  0  0  0  0
   -8.8580   15.3780    2.2130 O   0  0  0  0  0  0  0  0  0  0  0  0
   -4.8790   15.4860    0.6240 C   0  0  0  0  0  0  0  0  0  0  0  0
   -6.5840   13.5260    0.4540 C   0  0  0  0  0  0  0  0  0  0  0  0
   -3.8820   14.4410    0.0640 C   0  0  1  0  0  0  0  0  0  0  0  0
   -5.8350   12.9660   -0.4830 C   0  0  0  0  0  0  0  0  0  0  0  0
   -9.0570   14.9750    5.1450 C   0  0  0  0  0  0  0  0  0  0  0  0
   -4.6110   13.6280   -1.0290 C   0  0  1  0  0  0  0  0  0  0  0  0
   -9.0520   15.1290    6.5210 C   0  0  0  0  0  0  0  0  0  0  0  0
  -10.6470   14.8650    4.5440 S   0  0  0  0  0  0  0  0  0  0  0  0
   -2.1870   14.8610   -0.5930 S   0  0  0  0  0  0  0  0  0  0  0  0
   -3.4960   13.6780    1.3160 C   0  0  0  0  0  0  0  0  0  0  0  0
   -4.9670   14.5100   -2.1080 O   0  0  0  0  0  0  0  0  0  0  0  0
  -11.3390   15.0200    6.1040 C   0  0  0  0  0  0  0  0  0  0  0  0
  -10.3710   15.1540    7.0730 C   0  0  0  0  0  0  0  0  0  0  0  0
   -2.1540   14.0960    1.7980 N   0  0  0  0  0  0  0  0  0  0  0  0
   -1.2490   14.0910    0.7110 C   0  0  2  0  0  0  0  0  0  0  0  0
   -3.8380   15.0670   -2.7710 C   0  0  0  0  0  0  0  0  0  0  0  0
   -0.1500   14.8960    1.1390 N   0  0  0  0  0  0  0  0  0  0  0  0
  1  2  1  0
  2  3  1  0
  4  1  1  1
  2  5  2  0
  4  6  1  0
  4  7  1  0
  8  6  1  1
  7  9  2  0
  3 10  1  0
  8 11  1  0
  9 11  1  0
 10 12  2  0
 10 13  1  0
  8 14  1  0
  8 15  1  0
 11 16  1  6
 13 17  1  0
 12 18  1  0
 17 18  2  0
 15 19  1  0
 14 20  1  0
 19 20  1  0
 16 21  1  0
 20 22  1  1
M  END
