x0104_0_A-x0421_0_A
     RDKit          3D

 22 25  0  0  0  0  0  0  0  0999 V2000
   -6.5710   14.8700    2.6200 N   0  0  0  0  0  0  0  0  0  0  0  0
   -7.9030   15.0090    3.0350 C   0  0  0  0  0  0  0  0  0  0  0  0
   -7.9810   15.0220    4.4240 N   0  0  0  0  0  0  0  0  0  0  0  0
   -6.0860   14.2960    1.3390 C   0  0  2  0  0  0  0  0  0  0  0  0
   -8.8380   15.1140    2.2540 O   0  0  0  0  0  0  0  0  0  0  0  0
   -4.6880   14.8840    0.9180 C   0  0  0  0  0  0  0  0  0  0  0  0
   -7.2260   14.4400    0.2610 C   0  0  1  0  0  0  0  0  0  0  0  0
   -6.0500   12.7930    1.4770 C   0  0  0  0  0  0  0  0  0  0  0  0
   -4.4690   14.8670   -0.5330 N   0  0  0  0  0  0  0  0  0  0  0  0
   -6.8070   14.6250   -1.2080 C   0  0  0  0  0  0  0  0  0  0  0  0
   -9.1270   15.0440    5.2100 C   0  0  0  0  0  0  0  0  0  0  0  0
   -7.1290   12.1930    0.9810 C   0  0  0  0  0  0  0  0  0  0  0  0
   -8.0940   13.1770    0.4210 C   0  0  0  0  0  0  0  0  0  0  0  0
   -3.2480   14.8710   -1.2180 C   0  0  0  0  0  0  0  0  0  0  0  0
   -5.4850   15.3360   -1.3940 C   0  0  2  0  0  0  0  0  0  0  0  0
   -9.1660   15.1760    6.5840 C   0  0  0  0  0  0  0  0  0  0  0  0
  -10.6900   14.9050    4.5510 S   0  0  0  0  0  0  0  0  0  0  0  0
   -3.5780   15.0410   -2.6740 C   0  0  0  0  0  0  0  0  0  0  0  0
   -5.0110   15.0940   -2.7100 O   0  0  0  0  0  0  0  0  0  0  0  0
   -2.1150   14.7590   -0.7830 O   0  0  0  0  0  0  0  0  0  0  0  0
  -11.4330   15.0160    6.0880 C   0  0  0  0  0  0  0  0  0  0  0  0
  -10.5030   15.1600    7.0950 C   0  0  0  0  0  0  0  0  0  0  0  0
  1  2  1  0
  2  3  1  0
  4  1  1  1
  2  5  2  0
  4  6  1  0
  4  7  1  0
  4  8  1  0
  6  9  1  0
  7 10  1  6
  3 11  1  0
  8 12  2  0
  7 13  1  0
 12 13  1  0
  9 14  1  0
  9 15  1  0
 15 10  1  1
 11 16  2  0
 11 17  1  0
 14 18  1  0
 15 19  1  0
 18 19  1  0
 14 20  2  0
 17 21  1  0
 16 22  1  0
 21 22  2  0
M  END
