x0104_0_A_β-x0849_0_A_α
     RDKit          3D

 19 21  0  0  0  0  0  0  0  0999 V2000
   -7.0550   14.3110    2.4530 N   0  0  0  0  0  0  0  0  0  0  0  0
   -6.5540   14.3940    1.1520 C   0  0  0  0  0  0  0  0  0  0  0  0
   -7.3030   14.9170    0.0980 C   0  0  0  0  0  0  0  0  0  0  0  0
   -5.2720   13.9580    0.8470 C   0  0  0  0  0  0  0  0  0  0  0  0
   -4.7080   14.0220   -0.3760 N   0  0  0  0  0  0  0  0  0  0  0  0
   -6.7480   15.0050   -1.1830 C   0  0  0  0  0  0  0  0  0  0  0  0
   -5.4510   14.5540   -1.3630 C   0  0  0  0  0  0  0  0  0  0  0  0
   -4.8780   14.6690   -2.6110 O   0  0  0  0  0  0  0  0  0  0  0  0
   -3.5760   15.2230   -2.4250 C   0  0  0  0  0  0  0  0  0  0  0  0
   -3.3860   15.2460   -0.9220 C   0  0  0  0  0  0  0  0  0  0  0  0
   -2.2170   14.8230   -0.2350 C   0  0  0  0  0  0  0  0  0  0  0  0
   -4.4560   15.7060   -0.1490 C   0  0  0  0  0  0  0  0  0  0  0  0
   -2.2400   14.8730    1.1700 C   0  0  0  0  0  0  0  0  0  0  0  0
   -4.3330   15.6980    1.2170 C   0  0  0  0  0  0  0  0  0  0  0  0
   -1.0330   14.3550   -0.8370 C   0  0  0  0  0  0  0  0  0  0  0  0
   -3.2630   15.2870    1.8570 N   0  0  0  0  0  0  0  0  0  0  0  0
   -1.2340   14.5040    1.9030 N   0  0  0  0  0  0  0  0  0  0  0  0
    0.0320   13.9720   -0.0400 C   0  0  0  0  0  0  0  0  0  0  0  0
   -0.1440   14.0690    1.3240 C   0  0  0  0  0  0  0  0  0  0  0  0
  1  2  1  0
  2  3  2  0
  2  4  1  0
  4  5  2  0
  3  6  1  0
  5  7  1  0
  6  7  2  0
  7  8  1  0
  8  9  1  0
  9 10  1  0
 10 11  1  0
 10 12  2  0
 11 13  2  0
 12 14  1  0
 11 15  1  0
 13 16  1  0
 14 16  2  0
 13 17  1  0
 15 18  2  0
 17 19  2  0
 18 19  1  0
M  END
