x0104_0_A_α-x0766_0_A_α
     RDKit          3D

 25 27  0  0  0  0  0  0  0  0999 V2000
   -7.6540   14.9330    3.5400 C   0  0  0  0  0  0  0  0  0  0  0  0
   -8.3190   15.6840    4.4550 N   0  0  0  0  0  0  0  0  0  0  0  0
   -9.3780   15.3840    5.2450 C   0  0  0  0  0  0  0  0  0  0  0  0
   -7.9800   14.8420    2.2990 N   0  0  0  0  0  0  0  0  0  0  0  0
   -7.0420   13.9740    1.5540 C   0  0  0  0  0  0  0  0  0  0  0  0
   -5.7000   14.6730    1.2720 C   0  0  0  0  0  0  0  0  0  0  0  0
   -9.3390   15.3000    6.6260 C   0  0  0  0  0  0  0  0  0  0  0  0
  -10.9670   15.0600    4.6700 S   0  0  0  0  0  0  0  0  0  0  0  0
   -4.5130   13.7570    0.9050 C   0  0  0  0  0  0  0  0  0  0  0  0
  -10.6000   14.9760    7.2030 C   0  0  0  0  0  0  0  0  0  0  0  0
  -11.5760   14.8170    6.2470 C   0  0  0  0  0  0  0  0  0  0  0  0
   -3.1350   14.4360    0.8100 C   0  0  0  0  0  0  0  0  0  0  0  0
   -2.7640   14.5860   -0.6290 C   0  0  0  0  0  0  0  0  0  0  0  0
   -1.5540   14.4140   -1.2850 C   0  0  0  0  0  0  0  0  0  0  0  0
   -4.0020   15.0310   -1.7090 S   0  0  0  0  0  0  0  0  0  0  0  0
   -2.9450   14.9840   -3.0390 C   0  0  0  0  0  0  0  0  0  0  0  0
   -1.6480   14.6420   -2.7100 C   0  0  0  0  0  0  0  0  0  0  0  0
   -0.5020   14.5300   -3.7000 C   0  0  2  0  0  0  0  0  0  0  0  0
    0.1840   13.1800   -3.9710 C   0  0  2  0  0  0  0  0  0  0  0  0
    0.6970   15.3950   -3.3260 C   0  0  0  0  0  0  0  0  0  0  0  0
    0.5330   12.3660   -2.7530 C   0  0  0  0  0  0  0  0  0  0  0  0
    1.4180   13.5820   -4.7930 C   0  0  0  0  0  0  0  0  0  0  0  0
    1.7440   15.0140   -4.3570 C   0  0  0  0  0  0  0  0  0  0  0  0
    1.2820   12.6980   -1.8600 O   0  0  0  0  0  0  0  0  0  0  0  0
   -0.0770   11.1610   -2.7160 O   0  0  0  0  0  0  0  0  0  0  0  0
  1  2  1  0
  2  3  1  0
  1  4  2  3
  4  5  1  0
  5  6  1  0
  3  7  2  0
  3  8  1  0
  6  9  1  0
  7 10  1  0
  8 11  1  0
 10 11  2  0
  9 12  1  0
 12 13  1  0
 13 14  2  0
 13 15  1  0
 15 16  1  0
 14 17  1  0
 16 17  2  0
 18 17  1  1
 18 19  1  0
 18 20  1  0
 19 21  1  1
 19 22  1  0
 20 23  1  0
 22 23  1  0
 21 24  2  0
 21 25  1  0
M  END
