x0104_0_A_β-x0766_0_A_α
     RDKit          3D

 21 23  0  0  0  0  0  0  0  0999 V2000
   -7.0590   14.6460    2.8230 N   0  0  0  0  0  0  0  0  0  0  0  0
   -6.4910   14.7900    1.5670 C   0  0  0  0  0  0  0  0  0  0  0  0
   -7.2230   14.6160    0.3920 C   0  0  0  0  0  0  0  0  0  0  0  0
   -5.1500   15.1280    1.4370 C   0  0  0  0  0  0  0  0  0  0  0  0
   -4.5200   15.2890    0.2780 N   0  0  0  0  0  0  0  0  0  0  0  0
   -6.5880   14.7790   -0.8390 C   0  0  0  0  0  0  0  0  0  0  0  0
   -5.2460   15.1090   -0.8240 C   0  0  0  0  0  0  0  0  0  0  0  0
   -4.5910   15.2440   -1.9960 O   0  0  0  0  0  0  0  0  0  0  0  0
   -3.5890   14.2640   -1.8700 C   0  0  1  0  0  0  0  0  0  0  0  0
   -2.5990   14.3370   -2.9830 C   0  0  0  0  0  0  0  0  0  0  0  0
   -2.7010   14.4760   -0.6640 C   0  0  0  0  0  0  0  0  0  0  0  0
   -1.3690   14.4950   -2.4780 C   0  0  0  0  0  0  0  0  0  0  0  0
   -1.4380   14.5950   -1.0440 C   0  0  0  0  0  0  0  0  0  0  0  0
   -0.0670   14.5530   -3.1550 C   0  0  1  0  0  0  0  0  0  0  0  0
    0.3250   13.2950   -3.9220 C   0  0  2  0  0  0  0  0  0  0  0  0
    0.2280   15.7020   -4.0900 C   0  0  0  0  0  0  0  0  0  0  0  0
    0.7080   12.2250   -2.9270 C   0  0  0  0  0  0  0  0  0  0  0  0
    1.5230   13.7320   -4.7740 C   0  0  0  0  0  0  0  0  0  0  0  0
    1.5440   15.2660   -4.6890 C   0  0  0  0  0  0  0  0  0  0  0  0
    1.5610   12.3170   -2.0770 O   0  0  0  0  0  0  0  0  0  0  0  0
   -0.0250   11.0980   -3.0290 O   0  0  0  0  0  0  0  0  0  0  0  0
  1  2  1  0
  2  3  2  0
  2  4  1  0
  4  5  2  0
  3  6  1  0
  5  7  1  0
  6  7  2  0
  7  8  1  0
  9  8  1  6
  9 10  1  0
  9 11  1  0
 10 12  2  0
 11 13  2  0
 12 13  1  0
 14 12  1  6
 14 15  1  0
 14 16  1  0
 15 17  1  1
 15 18  1  0
 16 19  1  0
 18 19  1  0
 17 20  2  0
 17 21  1  0
M  END
