x0104_0_A_α-x0837_0_A_α
     RDKit          3D

 17 18  0  0  0  0  0  0  0  0999 V2000
   -8.0150   14.7630    3.3870 C   0  0  0  0  0  0  0  0  0  0  0  0
   -8.1050   15.4050    4.5840 N   0  0  0  0  0  0  0  0  0  0  0  0
   -9.2020   15.2990    5.3880 C   0  0  0  0  0  0  0  0  0  0  0  0
   -8.5480   14.9030    2.2320 N   0  0  0  0  0  0  0  0  0  0  0  0
   -8.2020   13.9150    1.2340 C   0  0  0  0  0  0  0  0  0  0  0  0
   -7.5430   14.4260    0.0490 N   0  0  0  0  0  0  0  0  0  0  0  0
   -9.2170   15.3530    6.7630 C   0  0  0  0  0  0  0  0  0  0  0  0
  -10.7980   15.0670    4.7780 S   0  0  0  0  0  0  0  0  0  0  0  0
  -10.5310   15.2040    7.3160 C   0  0  0  0  0  0  0  0  0  0  0  0
  -11.4840   15.0410    6.3350 C   0  0  0  0  0  0  0  0  0  0  0  0
   -6.3210   14.8290    0.0720 C   0  0  0  0  0  0  0  0  0  0  0  0
   -5.6000   14.8290    1.2510 N   0  0  0  0  0  0  0  0  0  0  0  0
   -5.5290   15.3050   -1.1270 C   0  0  0  0  0  0  0  0  0  0  0  0
   -4.2610   15.1270    1.3260 C   0  0  0  0  0  0  0  0  0  0  0  0
   -4.1770   14.5970   -1.0140 C   0  0  1  0  0  0  0  0  0  0  0  0
   -2.9680   14.7990   -2.8000 I   0  0  0  0  0  0  0  0  0  0  0  0
   -3.4830   15.0320    0.2440 C   0  0  0  0  0  0  0  0  0  0  0  0
  1  2  1  0
  2  3  1  0
  1  4  2  3
  4  5  1  0
  5  6  1  0
  3  7  2  0
  3  8  1  0
  7  9  1  0
  8 10  1  0
  9 10  2  0
  6 11  2  3
 11 12  1  0
 11 13  1  0
 12 14  1  0
 13 15  1  0
 15 16  1  6
 14 17  2  0
 15 17  1  0
M  END
