x0104_0_A-x0689_0_A
     RDKit          3D

 24 26  0  0  0  0  0  0  0  0999 V2000
   -6.6450   14.8070    2.5940 N   0  0  0  0  0  0  0  0  0  0  0  0
   -7.9120   15.0510    3.1350 C   0  0  0  0  0  0  0  0  0  0  0  0
   -7.8950   15.0560    4.5290 N   0  0  0  0  0  0  0  0  0  0  0  0
   -6.2670   14.8010    1.2160 C   0  0  0  0  0  0  0  0  0  0  0  0
   -8.9170   15.2430    2.4610 O   0  0  0  0  0  0  0  0  0  0  0  0
   -4.8980   14.9010    0.7780 C   0  0  0  0  0  0  0  0  0  0  0  0
   -7.2340   14.7040    0.2110 C   0  0  0  0  0  0  0  0  0  0  0  0
   -4.5680   14.9020   -0.5120 N   0  0  0  0  0  0  0  0  0  0  0  0
   -6.8540   14.7140   -1.1290 C   0  0  0  0  0  0  0  0  0  0  0  0
   -9.0190   15.0760    5.3380 C   0  0  0  0  0  0  0  0  0  0  0  0
   -3.7780   15.0060    1.6230 N   0  0  0  0  0  0  0  0  0  0  0  0
   -5.5160   14.8150   -1.4300 C   0  0  0  0  0  0  0  0  0  0  0  0
   -9.1850   15.2020    6.7000 C   0  0  0  0  0  0  0  0  0  0  0  0
  -10.5080   14.9160    4.5200 S   0  0  0  0  0  0  0  0  0  0  0  0
   -2.5020   14.7600    1.0840 C   0  0  0  0  0  0  0  0  0  0  0  0
   -5.1340   14.8260   -2.7510 O   0  0  0  0  0  0  0  0  0  0  0  0
  -11.3950   15.0100    5.9860 C   0  0  0  0  0  0  0  0  0  0  0  0
  -10.5650   15.1620    7.0760 C   0  0  0  0  0  0  0  0  0  0  0  0
   -2.3050   14.7950   -0.2480 N   0  0  0  0  0  0  0  0  0  0  0  0
   -1.5210   14.5020    1.9440 N   0  0  0  0  0  0  0  0  0  0  0  0
   -3.7390   15.0880   -2.8930 C   0  0  0  0  0  0  0  0  0  0  0  0
   -1.0670   14.5670   -0.7140 C   0  0  0  0  0  0  0  0  0  0  0  0
   -0.2990   14.2810    1.4380 C   0  0  0  0  0  0  0  0  0  0  0  0
   -0.0040   14.3020    0.0980 C   0  0  0  0  0  0  0  0  0  0  0  0
  1  2  1  0
  2  3  1  0
  1  4  1  0
  2  5  2  0
  4  6  1  0
  4  7  2  0
  6  8  2  0
  7  9  1  0
  3 10  1  0
  6 11  1  0
  8 12  1  0
  9 12  2  0
 10 13  2  0
 10 14  1  0
 11 15  1  0
 12 16  1  0
 14 17  1  0
 13 18  1  0
 17 18  2  0
 15 19  2  0
 15 20  1  0
 16 21  1  0
 19 22  1  0
 20 23  2  0
 22 24  2  0
 23 24  1  0
M  END
