x0104_0_A-x0844_0_A
     RDKit          3D

 17 18  0  0  0  0  0  0  0  0999 V2000
   -6.8040   14.6540    2.6890 N   0  0  0  0  0  0  0  0  0  0  0  0
   -8.0350   15.0740    3.1750 C   0  0  0  0  0  0  0  0  0  0  0  0
   -8.0090   15.1080    4.5620 N   0  0  0  0  0  0  0  0  0  0  0  0
   -6.2690   14.7320    1.3860 C   0  0  0  0  0  0  0  0  0  0  0  0
   -9.0010   15.3720    2.4770 O   0  0  0  0  0  0  0  0  0  0  0  0
   -4.9070   14.8470    1.1030 C   0  0  0  0  0  0  0  0  0  0  0  0
   -7.1450   14.6940    0.3000 C   0  0  0  0  0  0  0  0  0  0  0  0
   -4.3900   14.9240   -0.1480 N   0  0  0  0  0  0  0  0  0  0  0  0
   -6.6360   14.7750   -0.9960 C   0  0  0  0  0  0  0  0  0  0  0  0
   -9.1260   15.1070    5.3710 C   0  0  0  0  0  0  0  0  0  0  0  0
   -5.2680   14.8880   -1.1670 C   0  0  0  0  0  0  0  0  0  0  0  0
   -9.2850   15.2190    6.7320 C   0  0  0  0  0  0  0  0  0  0  0  0
  -10.6100   14.9310    4.5510 S   0  0  0  0  0  0  0  0  0  0  0  0
   -4.8310   14.9620   -2.4750 O   0  0  0  0  0  0  0  0  0  0  0  0
  -11.4920   15.0020    6.0220 C   0  0  0  0  0  0  0  0  0  0  0  0
  -10.6620   15.1570    7.1090 C   0  0  0  0  0  0  0  0  0  0  0  0
   -3.4200   15.0830   -2.5980 C   0  0  0  0  0  0  0  0  0  0  0  0
  1  2  1  0
  2  3  1  0
  1  4  1  0
  2  5  2  0
  4  6  2  0
  4  7  1  0
  6  8  1  0
  7  9  2  0
  3 10  1  0
  8 11  2  0
  9 11  1  0
 10 12  2  0
 10 13  1  0
 11 14  1  0
 13 15  1  0
 12 16  1  0
 15 16  2  0
 14 17  1  0
M  END
