x0104_0_A_β-x0104_0_A_α
     RDKit          3D

 16 17  0  0  0  0  0  0  0  0999 V2000
   -7.9310   14.9800    2.6140 C   0  0  0  0  0  0  0  0  0  0  0  0
   -7.7000   14.8610    3.9860 N   0  0  0  0  0  0  0  0  0  0  0  0
   -8.7630   14.9370    4.9220 C   0  0  0  0  0  0  0  0  0  0  0  0
   -9.0320   15.2760    2.1710 O   0  0  0  0  0  0  0  0  0  0  0  0
   -6.9140   14.7840    1.5000 C   0  0  0  0  0  0  0  0  0  0  0  0
   -5.5080   14.8060    1.6040 C   0  0  0  0  0  0  0  0  0  0  0  0
   -7.4320   14.5800    0.2170 C   0  0  0  0  0  0  0  0  0  0  0  0
   -4.6610   14.6390    0.5260 N   0  0  0  0  0  0  0  0  0  0  0  0
   -6.6010   14.4130   -0.8740 C   0  0  0  0  0  0  0  0  0  0  0  0
   -8.6870   15.0860    6.3020 C   0  0  0  0  0  0  0  0  0  0  0  0
  -10.3970   14.8490    4.4250 S   0  0  0  0  0  0  0  0  0  0  0  0
   -5.2380   14.4460   -0.6920 C   0  0  0  0  0  0  0  0  0  0  0  0
   -9.9820   15.1240    6.9310 C   0  0  0  0  0  0  0  0  0  0  0  0
  -11.0040   15.0040    6.0160 C   0  0  0  0  0  0  0  0  0  0  0  0
   -4.4990   14.2580   -1.8470 O   0  0  0  0  0  0  0  0  0  0  0  0
   -3.6370   15.3250   -2.1930 C   0  0  0  0  0  0  0  0  0  0  0  0
  1  2  1  0
  2  3  1  0
  1  4  2  0
  1  5  1  0
  5  6  2  0
  5  7  1  0
  6  8  1  0
  7  9  2  0
  3 10  2  0
  3 11  1  0
  8 12  2  0
  9 12  1  0
 10 13  1  0
 11 14  1  0
 13 14  2  0
 12 15  1  0
 15 16  1  0
M  END
