x0104_0_A-x0805_0_A
     RDKit          3D

 34 37  0  0  0  0  0  0  0  0999 V2000
   -6.8950   14.8980    3.0940 N   0  0  0  0  0  0  0  0  0  0  0  0
   -8.1210   15.2610    3.5190 C   0  0  0  0  0  0  0  0  0  0  0  0
   -8.2370   15.3770    4.8650 N   0  0  0  0  0  0  0  0  0  0  0  0
   -6.5450   14.6050    1.7940 C   0  0  0  0  0  0  0  0  0  0  0  0
   -9.0910   15.4860    2.7950 O   0  0  0  0  0  0  0  0  0  0  0  0
   -5.2690   14.2290    1.4190 C   0  0  0  0  0  0  0  0  0  0  0  0
   -7.5390   14.6980    0.8350 C   0  0  0  0  0  0  0  0  0  0  0  0
   -4.9410   13.9470    0.1540 N   0  0  0  0  0  0  0  0  0  0  0  0
   -7.2240   14.4200   -0.4610 C   0  0  0  0  0  0  0  0  0  0  0  0
   -9.3450   15.2250    5.6410 C   0  0  0  0  0  0  0  0  0  0  0  0
   -5.9410   14.0600   -0.7200 C   0  0  0  0  0  0  0  0  0  0  0  0
   -9.5510   15.2130    6.9950 C   0  0  0  0  0  0  0  0  0  0  0  0
  -10.7790   15.0010    4.7480 S   0  0  0  0  0  0  0  0  0  0  0  0
   -5.7270   13.8260   -1.9950 O   0  0  0  0  0  0  0  0  0  0  0  0
  -11.7080   14.8880    6.1800 C   0  0  0  0  0  0  0  0  0  0  0  0
  -10.9300   15.0170    7.3100 C   0  0  0  0  0  0  0  0  0  0  0  0
   -5.2780   15.0610   -2.3960 C   0  0  0  0  0  0  0  0  0  0  0  0
   -3.9090   14.7560   -2.7000 C   0  0  0  0  0  0  0  0  0  0  0  0
   -2.8060   15.2970   -2.0350 C   0  0  0  0  0  0  0  0  0  0  0  0
   -3.7740   13.8600   -3.7420 C   0  0  0  0  0  0  0  0  0  0  0  0
   -2.9260   16.1860   -0.9810 O   0  0  0  0  0  0  0  0  0  0  0  0
   -2.5430   13.5040   -4.1720 C   0  0  0  0  0  0  0  0  0  0  0  0
   -1.5500   14.9340   -2.4770 C   0  0  0  0  0  0  0  0  0  0  0  0
   -3.6060   15.6860    0.1690 C   0  0  0  0  0  0  0  0  0  0  0  0
   -1.4280   14.0410   -3.5640 C   0  0  0  0  0  0  0  0  0  0  0  0
   -0.1290   13.6320   -4.1510 C   0  0  2  0  0  0  0  0  0  0  0  0
    0.9490   13.1940   -3.1940 C   0  0  1  0  0  0  0  0  0  0  0  0
    0.3870   14.8180   -4.9310 C   0  0  0  0  0  0  0  0  0  0  0  0
    0.5200   12.0870   -2.3020 C   0  0  0  0  0  0  0  0  0  0  0  0
    2.1830   12.9200   -4.0130 C   0  0  0  0  0  0  0  0  0  0  0  0
    1.7310   15.2440   -4.4160 C   0  0  0  0  0  0  0  0  0  0  0  0
    0.2670   10.9030   -2.9010 O   0  0  0  0  0  0  0  0  0  0  0  0
    0.3960   12.2760   -1.1170 O   0  0  0  0  0  0  0  0  0  0  0  0
    2.7030   14.1940   -4.3470 O   0  0  0  0  0  0  0  0  0  0  0  0
  1  2  1  0
  2  3  1  0
  1  4  1  0
  2  5  2  0
  4  6  2  0
  4  7  1  0
  6  8  1  0
  7  9  2  0
  3 10  1  0
  8 11  2  0
  9 11  1  0
 10 12  2  0
 10 13  1  0
 11 14  1  0
 13 15  1  0
 12 16  1  0
 15 16  2  0
 14 17  1  0
 17 18  1  0
 18 19  2  0
 18 20  1  0
 19 21  1  0
 20 22  2  0
 19 23  1  0
 21 24  1  0
 22 25  1  0
 23 25  2  0
 26 25  1  1
 26 27  1  0
 26 28  1  0
 27 29  1  6
 27 30  1  0
 28 31  1  0
 29 32  1  0
 29 33  2  0
 30 34  1  0
 31 34  1  0
M  END
