x0104_0_A_β-x0631_0_A_β
     RDKit          3D

 22 23  0  0  0  0  0  0  0  0999 V2000
   -6.8100   14.7320    2.6000 N   0  0  0  0  0  0  0  0  0  0  0  0
   -6.2950   14.7430    1.3060 C   0  0  0  0  0  0  0  0  0  0  0  0
   -7.1380   14.6820    0.2040 C   0  0  0  0  0  0  0  0  0  0  0  0
   -4.9220   14.8200    1.0520 C   0  0  0  0  0  0  0  0  0  0  0  0
   -4.3600   14.8370   -0.1780 N   0  0  0  0  0  0  0  0  0  0  0  0
   -6.5960   14.7020   -1.0750 C   0  0  0  0  0  0  0  0  0  0  0  0
   -5.2230   14.7790   -1.2150 C   0  0  0  0  0  0  0  0  0  0  0  0
   -4.7570   14.7930   -2.5090 O   0  0  0  0  0  0  0  0  0  0  0  0
   -3.3400   14.8570   -2.5980 C   0  0  0  0  0  0  0  0  0  0  0  0
   -2.9270   14.9600   -4.0680 C   0  0  0  0  0  0  0  0  0  0  0  0
   -3.5880   13.9260   -5.0000 C   0  0  0  0  0  0  0  0  0  0  0  0
   -2.5970   12.9470   -5.6450 C   0  0  0  0  0  0  0  0  0  0  0  0
   -3.2520   11.6030   -5.9940 C   0  0  0  0  0  0  0  0  0  0  0  0
   -2.2820   10.4090   -6.0560 C   0  0  0  0  0  0  0  0  0  0  0  0
   -2.4180    9.5290   -7.3140 C   0  0  0  0  0  0  0  0  0  0  0  0
   -1.5210    8.2840   -7.3060 C   0  0  0  0  0  0  0  0  0  0  0  0
   -0.1220    8.6150   -6.7710 C   0  0  0  0  0  0  0  0  0  0  0  0
    0.7560    9.4730   -7.6020 N   0  0  0  0  0  0  0  0  0  0  0  0
    0.7160    9.2180   -9.0150 N   0  0  0  0  0  0  0  0  0  0  0  0
    0.6310   10.8620   -7.3730 N   0  0  0  0  0  0  0  0  0  0  0  0
    0.8380   10.5460   -9.6060 C   0  0  0  0  0  0  0  0  0  0  0  0
    0.2870   11.4620   -8.6200 N   0  0  0  0  0  0  0  0  0  0  0  0
  1  2  1  0
  2  3  2  0
  2  4  1  0
  4  5  2  0
  3  6  1  0
  5  7  1  0
  6  7  2  0
  7  8  1  0
  8  9  1  0
  9 10  1  0
 10 11  1  0
 11 12  1  0
 12 13  1  0
 13 14  1  0
 14 15  1  0
 15 16  1  0
 16 17  1  0
 17 18  1  0
 18 19  1  0
 18 20  1  0
 19 21  1  0
 20 22  1  0
 21 22  1  0
M  END
