x0104_0_A_β-x0128_0_A_α
     RDKit          3D

 18 19  0  0  0  0  0  0  0  0999 V2000
   -7.0800   14.9090    2.3260 N   0  0  0  0  0  0  0  0  0  0  0  0
   -7.9780   15.1180    3.2480 C   0  0  0  0  0  0  0  0  0  0  0  0
   -9.2400   15.1850    3.0450 O   0  0  0  0  0  0  0  0  0  0  0  0
   -6.2730   14.7750    1.2340 C   0  0  0  0  0  0  0  0  0  0  0  0
   -7.6500   15.3560    4.6390 N   0  0  0  0  0  0  0  0  0  0  0  0
   -4.9140   14.6910    1.1150 C   0  0  0  0  0  0  0  0  0  0  0  0
   -7.0150   14.7390    0.0220 C   0  0  0  0  0  0  0  0  0  0  0  0
   -4.2870   14.5800   -0.1010 N   0  0  0  0  0  0  0  0  0  0  0  0
   -6.3700   14.6310   -1.1580 C   0  0  0  0  0  0  0  0  0  0  0  0
   -8.4750   16.1240    5.4650 C   0  0  0  0  0  0  0  0  0  0  0  0
   -5.0230   14.5530   -1.2320 C   0  0  0  0  0  0  0  0  0  0  0  0
   -9.0980   17.2350    4.9590 C   0  0  0  0  0  0  0  0  0  0  0  0
   -8.6650   15.7720    6.7700 C   0  0  0  0  0  0  0  0  0  0  0  0
   -4.4130   14.4400   -2.4850 O   0  0  0  0  0  0  0  0  0  0  0  0
   -9.9090   18.0030    5.7340 N   0  0  0  0  0  0  0  0  0  0  0  0
   -9.5020   16.5780    7.5500 C   0  0  0  0  0  0  0  0  0  0  0  0
   -3.1680   15.1250   -2.6530 C   0  0  0  0  0  0  0  0  0  0  0  0
  -10.1140   17.6880    7.0150 C   0  0  0  0  0  0  0  0  0  0  0  0
  1  2  1  0
  2  3  2  0
  1  4  1  0
  2  5  1  0
  4  6  2  0
  4  7  1  0
  6  8  1  0
  7  9  2  0
  5 10  1  0
  8 11  2  0
  9 11  1  0
 10 12  2  0
 10 13  1  0
 11 14  1  0
 12 15  1  0
 13 16  2  0
 14 17  1  0
 15 18  2  0
 16 18  1  0
M  END
