x0104_0_A_α-x0587_0_A_α
     RDKit          3D

 18 19  0  0  0  0  0  0  0  0999 V2000
   -8.3440   14.9110    2.8650 C   0  0  0  0  0  0  0  0  0  0  0  0
   -8.0110   14.8080    4.2030 N   0  0  0  0  0  0  0  0  0  0  0  0
   -8.9860   14.9220    5.1920 C   0  0  0  0  0  0  0  0  0  0  0  0
   -9.4700   15.1210    2.4330 O   0  0  0  0  0  0  0  0  0  0  0  0
   -7.2990   14.7950    1.8260 C   0  0  0  0  0  0  0  0  0  0  0  0
   -7.6790   14.5620    0.5210 C   0  0  0  0  0  0  0  0  0  0  0  0
   -5.9370   14.9090    2.0150 C   0  0  0  0  0  0  0  0  0  0  0  0
   -8.9660   15.1160    6.5580 C   0  0  0  0  0  0  0  0  0  0  0  0
  -10.5830   14.7940    4.5900 S   0  0  0  0  0  0  0  0  0  0  0  0
   -6.8130   14.4620   -0.5120 N   0  0  0  0  0  0  0  0  0  0  0  0
   -5.0230   14.8170    1.0180 N   0  0  0  0  0  0  0  0  0  0  0  0
  -10.2890   15.1600    7.1120 C   0  0  0  0  0  0  0  0  0  0  0  0
  -11.2640   14.9970    6.1490 C   0  0  0  0  0  0  0  0  0  0  0  0
   -5.4920   14.6010   -0.2370 C   0  0  0  0  0  0  0  0  0  0  0  0
   -4.4890   14.5170   -1.3970 C   0  0  0  0  0  0  0  0  0  0  0  0
   -3.2230   14.9070   -1.0660 F   0  0  0  0  0  0  0  0  0  0  0  0
   -4.3700   13.2560   -1.9020 F   0  0  0  0  0  0  0  0  0  0  0  0
   -4.8340   15.3020   -2.4580 F   0  0  0  0  0  0  0  0  0  0  0  0
  1  2  1  0
  2  3  1  0
  1  4  2  0
  1  5  1  0
  5  6  2  0
  5  7  1  0
  3  8  2  0
  3  9  1  0
  6 10  1  0
  7 11  2  0
  8 12  1  0
  9 13  1  0
 12 13  2  0
 10 14  2  0
 11 14  1  0
 14 15  1  0
 15 16  1  0
 15 17  1  0
 15 18  1  0
M  END
