x0104_0_A_β-x0729_2_B_α
     RDKit          3D

 29 30  0  0  0  0  0  0  0  0999 V2000
   -6.9290   14.6540    2.6060 N   0  0  0  0  0  0  0  0  0  0  0  0
   -6.4540   14.7400    1.2870 C   0  0  0  0  0  0  0  0  0  0  0  0
   -7.3020   14.7970    0.1590 C   0  0  0  0  0  0  0  0  0  0  0  0
   -5.0670   14.7790    1.0510 C   0  0  0  0  0  0  0  0  0  0  0  0
   -8.8350   14.7680    0.1820 C   0  0  0  0  0  0  0  0  0  0  0  0
   -4.4710   14.8590   -0.1590 N   0  0  0  0  0  0  0  0  0  0  0  0
   -6.6880   14.8860   -1.1050 C   0  0  0  0  0  0  0  0  0  0  0  0
   -9.5930   16.0330    0.6700 C   0  0  0  0  0  0  0  0  0  0  0  0
   -5.3050   14.9110   -1.2070 C   0  0  0  0  0  0  0  0  0  0  0  0
   -4.8020   14.9950   -2.4900 O   0  0  0  0  0  0  0  0  0  0  0  0
   -9.9050   17.0750   -0.4270 C   0  0  0  0  0  0  0  0  0  0  0  0
   -3.3820   15.0320   -2.5430 C   0  0  0  0  0  0  0  0  0  0  0  0
  -11.0130   18.0580    0.0230 C   0  0  0  0  0  0  0  0  0  0  0  0
  -11.5900   18.9580   -1.0920 C   0  0  0  0  0  0  0  0  0  0  0  0
  -12.2990   20.2480   -0.6110 C   0  0  0  0  0  0  0  0  0  0  0  0
  -13.1760   21.0120   -1.6140 C   0  0  0  0  0  0  0  0  0  0  0  0
  -14.1670   21.8980   -0.9470 C   0  0  0  0  0  0  0  0  0  0  0  0
  -14.9500   22.6210   -0.3660 C   0  0  0  0  0  0  0  0  0  0  0  0
  -15.8750   23.4790    0.4350 C   0  0  2  0  0  0  0  0  0  0  0  0
  -16.7960   24.3950   -0.3710 C   0  0  0  0  0  0  0  0  0  0  0  0
  -15.1090   24.4110    1.3600 C   0  0  2  0  0  0  0  0  0  0  0  0
  -13.7420   23.9180    1.7200 C   0  0  0  0  0  0  0  0  0  0  0  0
  -16.0530   24.7550    2.4300 N   0  0  0  0  0  0  0  0  0  0  0  0
  -17.7000   25.2570    0.5500 C   0  0  0  0  0  0  0  0  0  0  0  0
  -15.8140   24.5450    4.0880 S   0  0  0  0  0  0  0  0  0  0  0  0
  -17.1040   25.6680    1.9250 C   0  0  0  0  0  0  0  0  0  0  0  0
  -16.2840   25.7320    4.7740 O   0  0  0  0  0  0  0  0  0  0  0  0
  -14.4760   24.0560    4.2670 O   0  0  0  0  0  0  0  0  0  0  0  0
  -16.9090   23.2190    4.5380 C   0  0  0  0  0  0  0  0  0  0  0  0
  1  2  1  0
  2  3  2  0
  2  4  1  0
  3  5  1  0
  4  6  2  0
  3  7  1  0
  5  8  1  0
  6  9  1  0
  7  9  2  0
  9 10  1  0
  8 11  1  0
 10 12  1  0
 11 13  1  0
 13 14  1  0
 14 15  1  0
 15 16  1  0
 16 17  1  0
 17 18  3  0
 19 18  1  6
 19 20  1  0
 19 21  1  0
 21 22  1  1
 21 23  1  0
 20 24  1  0
 23 25  1  0
 23 26  1  0
 24 26  1  0
 25 27  2  0
 25 28  2  0
 25 29  1  0
M  END
