x0104_0_A-x0837_0_A
     RDKit          3D

 17 18  0  0  0  0  0  0  0  0999 V2000
   -6.8190   14.6540    2.6730 N   0  0  0  0  0  0  0  0  0  0  0  0
   -8.0460   15.0850    3.1560 C   0  0  0  0  0  0  0  0  0  0  0  0
   -8.0210   15.1090    4.5460 N   0  0  0  0  0  0  0  0  0  0  0  0
   -6.2840   14.7270    1.3680 C   0  0  0  0  0  0  0  0  0  0  0  0
   -9.0040   15.3950    2.4600 O   0  0  0  0  0  0  0  0  0  0  0  0
   -4.9210   14.8430    1.0910 C   0  0  0  0  0  0  0  0  0  0  0  0
   -7.1570   14.6860    0.2840 C   0  0  0  0  0  0  0  0  0  0  0  0
   -4.4010   14.9160   -0.1610 N   0  0  0  0  0  0  0  0  0  0  0  0
   -6.6480   14.7650   -1.0120 C   0  0  0  0  0  0  0  0  0  0  0  0
   -9.1320   15.1070    5.3600 C   0  0  0  0  0  0  0  0  0  0  0  0
   -5.2800   14.8770   -1.1790 C   0  0  0  0  0  0  0  0  0  0  0  0
   -9.2870   15.2190    6.7210 C   0  0  0  0  0  0  0  0  0  0  0  0
  -10.6240   14.9320    4.5510 S   0  0  0  0  0  0  0  0  0  0  0  0
   -4.8400   14.9450   -2.4850 O   0  0  0  0  0  0  0  0  0  0  0  0
  -11.4980   15.0020    6.0230 C   0  0  0  0  0  0  0  0  0  0  0  0
  -10.6600   15.1570    7.1080 C   0  0  0  0  0  0  0  0  0  0  0  0
   -3.4300   15.0750   -2.6030 C   0  0  0  0  0  0  0  0  0  0  0  0
  1  2  1  0
  2  3  1  0
  1  4  1  0
  2  5  2  0
  4  6  2  0
  4  7  1  0
  6  8  1  0
  7  9  2  0
  3 10  1  0
  8 11  2  0
  9 11  1  0
 10 12  2  0
 10 13  1  0
 11 14  1  0
 13 15  1  0
 12 16  1  0
 15 16  2  0
 14 17  1  0
M  END
