x0104_0_A-x0574_0_A
     RDKit          3D

 22 24  0  0  0  0  0  0  0  0999 V2000
   -6.6340   14.8380    2.4550 N   0  0  0  0  0  0  0  0  0  0  0  0
   -7.9240   15.0680    2.9450 C   0  0  0  0  0  0  0  0  0  0  0  0
   -7.9390   14.9080    4.3190 N   0  0  0  0  0  0  0  0  0  0  0  0
   -6.2960   14.8510    1.0170 C   0  0  1  0  0  0  0  0  0  0  0  0
   -8.8620   15.3640    2.2180 O   0  0  0  0  0  0  0  0  0  0  0  0
   -4.8800   15.4780    0.6430 C   0  0  0  0  0  0  0  0  0  0  0  0
   -6.5830   13.5180    0.4520 C   0  0  0  0  0  0  0  0  0  0  0  0
   -3.8830   14.4390    0.0820 C   0  0  1  0  0  0  0  0  0  0  0  0
   -5.8300   12.9690   -0.4830 C   0  0  0  0  0  0  0  0  0  0  0  0
   -9.0550   14.9720    5.1500 C   0  0  0  0  0  0  0  0  0  0  0  0
   -4.6030   13.6330   -1.0230 C   0  0  1  0  0  0  0  0  0  0  0  0
   -9.0520   15.1280    6.5260 C   0  0  0  0  0  0  0  0  0  0  0  0
  -10.6450   14.8630    4.5470 S   0  0  0  0  0  0  0  0  0  0  0  0
   -2.1720   14.8580   -0.5450 S   0  0  0  0  0  0  0  0  0  0  0  0
   -3.5110   13.6590    1.3290 C   0  0  0  0  0  0  0  0  0  0  0  0
   -4.9530   14.5180   -2.1020 O   0  0  0  0  0  0  0  0  0  0  0  0
  -11.3380   15.0170    6.1010 C   0  0  0  0  0  0  0  0  0  0  0  0
  -10.3750   15.1530    7.0780 C   0  0  0  0  0  0  0  0  0  0  0  0
   -2.1870   14.0890    1.8450 N   0  0  0  0  0  0  0  0  0  0  0  0
   -1.2610   14.0790    0.7710 C   0  0  2  0  0  0  0  0  0  0  0  0
   -3.8190   15.0710   -2.7610 C   0  0  0  0  0  0  0  0  0  0  0  0
   -0.1520   14.8630    1.2070 N   0  0  0  0  0  0  0  0  0  0  0  0
  1  2  1  0
  2  3  1  0
  4  1  1  1
  2  5  2  0
  4  6  1  0
  4  7  1  0
  8  6  1  1
  7  9  2  0
  3 10  1  0
  8 11  1  0
  9 11  1  0
 10 12  2  0
 10 13  1  0
  8 14  1  0
  8 15  1  0
 11 16  1  6
 13 17  1  0
 12 18  1  0
 17 18  2  0
 15 19  1  0
 14 20  1  0
 19 20  1  0
 16 21  1  0
 20 22  1  1
M  END
