x0104_0_A-x0969_0_A
     RDKit          3D

 20 22  0  0  0  0  0  0  0  0999 V2000
   -6.8700   13.9550    2.4270 N   0  0  0  0  0  0  0  0  0  0  0  0
   -7.9700   14.4110    3.1420 C   0  0  0  0  0  0  0  0  0  0  0  0
   -7.9090   14.5360    4.5070 N   0  0  0  0  0  0  0  0  0  0  0  0
   -6.3710   14.7080    1.3130 C   0  0  1  0  0  0  0  0  0  0  0  0
   -8.9540   14.7090    2.4640 O   0  0  0  0  0  0  0  0  0  0  0  0
   -4.9750   14.9450    0.6760 C   0  0  2  0  0  0  0  0  0  0  0  0
   -7.3120   14.8980    0.1600 C   0  0  0  0  0  0  0  0  0  0  0  0
   -5.1650   14.7680   -0.8470 C   0  0  2  0  0  0  0  0  0  0  0  0
   -6.6460   14.9650   -1.0220 C   0  0  0  0  0  0  0  0  0  0  0  0
   -8.9970   14.7860    5.3280 C   0  0  0  0  0  0  0  0  0  0  0  0
   -3.6240   14.4750    1.0920 C   0  0  0  0  0  0  0  0  0  0  0  0
   -4.8800   13.5180   -1.4430 O   0  0  0  0  0  0  0  0  0  0  0  0
   -9.1160   15.0820    6.6690 C   0  0  0  0  0  0  0  0  0  0  0  0
  -10.5170   14.7160    4.5530 S   0  0  0  0  0  0  0  0  0  0  0  0
   -4.1700   15.6340   -1.4940 C   0  0  0  0  0  0  0  0  0  0  0  0
   -2.6310   14.8610    0.2620 C   0  0  0  0  0  0  0  0  0  0  0  0
   -3.9770   13.6560   -2.5450 C   0  0  0  0  0  0  0  0  0  0  0  0
  -11.3510   15.0760    6.0080 C   0  0  0  0  0  0  0  0  0  0  0  0
  -10.4810   15.2490    7.0630 C   0  0  0  0  0  0  0  0  0  0  0  0
   -2.9330   15.6610   -0.9320 C   0  0  0  0  0  0  0  0  0  0  0  0
  1  2  1  0
  2  3  1  0
  4  1  1  6
  2  5  2  0
  4  6  1  0
  4  7  1  0
  6  8  1  0
  7  9  2  0
  8  9  1  0
  3 10  1  0
  6 11  1  1
  8 12  1  1
 10 13  2  0
 10 14  1  0
  8 15  1  0
 11 16  2  0
 12 17  1  0
 14 18  1  0
 13 19  1  0
 18 19  2  0
 15 20  2  0
 16 20  1  0
M  END
