x0104_0_A_α-x0895_1_A_α
     RDKit          3D

 17 18  0  0  0  0  0  0  0  0999 V2000
   -8.0250   15.0030    3.5750 C   0  0  0  0  0  0  0  0  0  0  0  0
   -8.1580   15.2940    4.8930 N   0  0  0  0  0  0  0  0  0  0  0  0
   -9.3220   15.2010    5.5770 C   0  0  0  0  0  0  0  0  0  0  0  0
   -8.8170   15.0870    2.5740 N   0  0  0  0  0  0  0  0  0  0  0  0
   -8.2680   14.6400    1.3110 C   0  0  0  0  0  0  0  0  0  0  0  0
   -6.8100   14.2690    1.5820 C   0  0  0  0  0  0  0  0  0  0  0  0
   -9.4430   15.2590    6.9470 C   0  0  0  0  0  0  0  0  0  0  0  0
  -10.8610   14.9900    4.8360 S   0  0  0  0  0  0  0  0  0  0  0  0
   -6.1150   14.1600    0.3220 N   0  0  0  0  0  0  0  0  0  0  0  0
  -10.7910   15.1320    7.3920 C   0  0  0  0  0  0  0  0  0  0  0  0
  -11.6650   14.9800    6.3380 C   0  0  0  0  0  0  0  0  0  0  0  0
   -4.8620   14.2980    0.2980 C   0  0  0  0  0  0  0  0  0  0  0  0
   -4.1400   14.1970   -0.8340 N   0  0  0  0  0  0  0  0  0  0  0  0
   -4.0370   14.5530    1.3410 N   0  0  0  0  0  0  0  0  0  0  0  0
   -2.9430   14.9440   -0.6410 C   0  0  0  0  0  0  0  0  0  0  0  0
   -2.7730   14.7810    0.8780 C   0  0  0  0  0  0  0  0  0  0  0  0
   -1.7400   14.8400    1.5460 O   0  0  0  0  0  0  0  0  0  0  0  0
  1  2  1  0
  2  3  1  0
  1  4  2  3
  4  5  1  0
  5  6  1  0
  3  7  2  0
  3  8  1  0
  6  9  1  0
  7 10  1  0
  8 11  1  0
 10 11  2  0
  9 12  2  3
 12 13  1  0
 12 14  1  0
 13 15  1  0
 14 16  1  0
 15 16  1  0
 16 17  2  0
M  END
