x0104_0_A-x0685_0_A
     RDKit          3D

 18 19  0  0  0  0  0  0  0  0999 V2000
   -6.6420   14.9680    2.6900 N   0  0  0  0  0  0  0  0  0  0  0  0
   -7.9250   14.6660    3.2350 C   0  0  1  0  0  0  0  0  0  0  0  0
   -8.0710   15.1390    4.5760 N   0  0  0  0  0  0  0  0  0  0  0  0
   -6.1630   14.8590    1.3900 C   0  0  0  0  0  0  0  0  0  0  0  0
   -8.9380   15.2570    2.4580 O   0  0  0  0  0  0  0  0  0  0  0  0
   -8.1160   13.1460    3.1730 C   0  0  0  0  0  0  0  0  0  0  0  0
   -4.8140   14.8770    1.0530 C   0  0  0  0  0  0  0  0  0  0  0  0
   -7.0580   14.7370    0.3190 C   0  0  0  0  0  0  0  0  0  0  0  0
   -4.3110   14.7930   -0.2010 N   0  0  0  0  0  0  0  0  0  0  0  0
   -6.5820   14.6540   -0.9870 C   0  0  0  0  0  0  0  0  0  0  0  0
   -9.1860   15.1020    5.3550 C   0  0  0  0  0  0  0  0  0  0  0  0
   -5.2140   14.6890   -1.1920 C   0  0  0  0  0  0  0  0  0  0  0  0
   -9.3160   15.1900    6.7280 C   0  0  0  0  0  0  0  0  0  0  0  0
  -10.7290   14.9200    4.6120 S   0  0  0  0  0  0  0  0  0  0  0  0
   -4.7910   14.6070   -2.4990 O   0  0  0  0  0  0  0  0  0  0  0  0
  -11.5460   14.9610    6.1120 C   0  0  0  0  0  0  0  0  0  0  0  0
  -10.6760   15.1090    7.1630 C   0  0  0  0  0  0  0  0  0  0  0  0
   -3.4740   15.1000   -2.6860 C   0  0  0  0  0  0  0  0  0  0  0  0
  1  2  1  0
  2  3  1  0
  1  4  1  0
  2  5  1  0
  2  6  1  1
  4  7  2  0
  4  8  1  0
  7  9  1  0
  8 10  2  0
  3 11  1  0
  9 12  2  0
 10 12  1  0
 11 13  2  0
 11 14  1  0
 12 15  1  0
 14 16  1  0
 13 17  1  0
 16 17  2  0
 15 18  1  0
M  END
