x0104_0_A_α-x0849_0_A_α
     RDKit          3D

 22 24  0  0  0  0  0  0  0  0999 V2000
   -8.0590   14.7590    3.2850 C   0  0  0  0  0  0  0  0  0  0  0  0
   -8.0960   15.1770    4.5810 N   0  0  0  0  0  0  0  0  0  0  0  0
   -9.2030   15.1470    5.3710 C   0  0  0  0  0  0  0  0  0  0  0  0
   -8.7470   15.1540    2.2700 N   0  0  0  0  0  0  0  0  0  0  0  0
   -8.5900   14.5460    0.9500 C   0  0  0  0  0  0  0  0  0  0  0  0
   -7.1650   14.6430    0.4020 C   0  0  0  0  0  0  0  0  0  0  0  0
   -9.2250   15.2480    6.7480 C   0  0  0  0  0  0  0  0  0  0  0  0
  -10.8060   14.9720    4.7630 S   0  0  0  0  0  0  0  0  0  0  0  0
   -6.0520   14.6290    1.4560 C   0  0  0  0  0  0  0  0  0  0  0  0
  -10.5410   15.1820    7.2980 C   0  0  0  0  0  0  0  0  0  0  0  0
  -11.5000   15.0300    6.3190 C   0  0  0  0  0  0  0  0  0  0  0  0
   -4.7010   14.7160    0.8110 C   0  0  0  0  0  0  0  0  0  0  0  0
   -3.6150   14.6060    1.5940 N   0  0  0  0  0  0  0  0  0  0  0  0
   -4.6250   14.8860   -0.5450 C   0  0  0  0  0  0  0  0  0  0  0  0
   -2.4140   14.6410    1.0460 C   0  0  0  0  0  0  0  0  0  0  0  0
   -3.3770   14.9210   -1.1200 C   0  0  0  0  0  0  0  0  0  0  0  0
   -3.3360   15.1360   -3.0100 Br  0  0  0  0  0  0  0  0  0  0  0  0
   -2.2220   14.7920   -0.3310 C   0  0  0  0  0  0  0  0  0  0  0  0
   -1.3980   14.5210    1.8730 N   0  0  0  0  0  0  0  0  0  0  0  0
   -0.1590   14.5370    1.3900 C   0  0  0  0  0  0  0  0  0  0  0  0
   -0.8990   14.8030   -0.8170 C   0  0  0  0  0  0  0  0  0  0  0  0
    0.1570   14.6740    0.0590 C   0  0  0  0  0  0  0  0  0  0  0  0
  1  2  1  0
  2  3  1  0
  1  4  2  3
  4  5  1  0
  5  6  1  0
  3  7  2  0
  3  8  1  0
  6  9  1  0
  7 10  1  0
  8 11  1  0
 10 11  2  0
  9 12  1  0
 12 13  2  0
 12 14  1  0
 13 15  1  0
 14 16  2  0
 16 17  1  0
 15 18  2  0
 16 18  1  0
 15 19  1  0
 19 20  2  0
 18 21  1  0
 20 22  1  0
 21 22  2  0
M  END
