x0104_0_A-x0895_1_A
     RDKit          3D

 18 19  0  0  0  0  0  0  0  0999 V2000
   -6.7740   14.7200    2.7170 N   0  0  0  0  0  0  0  0  0  0  0  0
   -8.0280   15.0830    3.1850 C   0  0  0  0  0  0  0  0  0  0  0  0
   -8.0120   15.1000    4.5730 N   0  0  0  0  0  0  0  0  0  0  0  0
   -6.2460   14.7530    1.4110 C   0  0  0  0  0  0  0  0  0  0  0  0
   -8.9950   15.3440    2.4790 O   0  0  0  0  0  0  0  0  0  0  0  0
   -4.8530   14.8570    1.3010 C   0  0  0  0  0  0  0  0  0  0  0  0
   -7.0000   14.6930    0.2530 C   0  0  0  0  0  0  0  0  0  0  0  0
   -4.1790   14.9010    0.0900 N   0  0  0  0  0  0  0  0  0  0  0  0
   -6.3640   14.7400   -0.9840 C   0  0  0  0  0  0  0  0  0  0  0  0
   -9.1330   15.1020    5.3770 C   0  0  0  0  0  0  0  0  0  0  0  0
   -2.8900   14.9920    0.1520 O   0  0  0  0  0  0  0  0  0  0  0  0
   -4.9650   14.8430   -1.0840 C   0  0  0  0  0  0  0  0  0  0  0  0
   -9.2950   15.2160    6.7350 C   0  0  0  0  0  0  0  0  0  0  0  0
  -10.6150   14.9260    4.5550 S   0  0  0  0  0  0  0  0  0  0  0  0
   -4.5620   14.8690   -2.4190 O   0  0  0  0  0  0  0  0  0  0  0  0
  -11.5020   15.0010    6.0230 C   0  0  0  0  0  0  0  0  0  0  0  0
  -10.6750   15.1570    7.1130 C   0  0  0  0  0  0  0  0  0  0  0  0
   -3.1770   15.0330   -2.6670 C   0  0  0  0  0  0  0  0  0  0  0  0
  1  2  1  0
  2  3  1  0
  1  4  1  0
  2  5  2  0
  4  6  2  0
  4  7  1  0
  6  8  1  0
  7  9  2  0
  3 10  1  0
  8 11  1  0
  8 12  2  0
  9 12  1  0
 10 13  2  0
 10 14  1  0
 12 15  1  0
 14 16  1  0
 13 17  1  0
 16 17  2  0
 15 18  1  0
M  CHG  2   8   1  11  -1
M  END
