x0104_0_A_α-x0900_0_A_α
     RDKit          3D

 16 17  0  0  0  0  0  0  0  0999 V2000
   -8.1680   15.0780    3.1420 C   0  0  0  0  0  0  0  0  0  0  0  0
   -8.1100   15.1350    4.5070 N   0  0  0  0  0  0  0  0  0  0  0  0
   -9.1930   15.0990    5.3300 C   0  0  0  0  0  0  0  0  0  0  0  0
   -9.1570   15.2800    2.3370 N   0  0  0  0  0  0  0  0  0  0  0  0
   -9.0210   15.1570    0.8750 C   0  0  0  0  0  0  0  0  0  0  0  0
   -7.9560   14.1270    0.4800 C   0  0  0  0  0  0  0  0  0  0  0  0
   -9.1840   15.2060    6.7090 C   0  0  0  0  0  0  0  0  0  0  0  0
  -10.8060   14.9090    4.7570 S   0  0  0  0  0  0  0  0  0  0  0  0
   -7.0270   14.5980   -0.5610 N   0  0  0  0  0  0  0  0  0  0  0  0
  -10.4880   15.1330    7.2850 C   0  0  0  0  0  0  0  0  0  0  0  0
  -11.4650   14.9700    6.3300 C   0  0  0  0  0  0  0  0  0  0  0  0
   -5.8190   14.8290   -0.2130 C   0  0  0  0  0  0  0  0  0  0  0  0
   -4.8500   15.2450   -1.0850 N   0  0  0  0  0  0  0  0  0  0  0  0
   -5.2110   14.6890    1.1670 C   0  0  0  0  0  0  0  0  0  0  0  0
   -3.8300   15.3000    0.9420 C   0  0  0  0  0  0  0  0  0  0  0  0
   -3.5630   14.9590   -0.5180 C   0  0  0  0  0  0  0  0  0  0  0  0
  1  2  1  0
  2  3  1  0
  1  4  2  3
  4  5  1  0
  5  6  1  0
  3  7  2  0
  3  8  1  0
  6  9  1  0
  7 10  1  0
  8 11  1  0
 10 11  2  0
  9 12  2  3
 12 13  1  0
 12 14  1  0
 14 15  1  0
 13 16  1  0
 15 16  1  0
M  END
