x0104_0_A-x0962_1_A
     RDKit          3D

 17 18  0  0  0  0  0  0  0  0999 V2000
   -6.8070   14.6550    2.6890 N   0  0  0  0  0  0  0  0  0  0  0  0
   -8.0360   15.0770    3.1720 C   0  0  0  0  0  0  0  0  0  0  0  0
   -8.0120   15.1040    4.5620 N   0  0  0  0  0  0  0  0  0  0  0  0
   -6.2710   14.7350    1.3840 C   0  0  0  0  0  0  0  0  0  0  0  0
   -8.9980   15.3800    2.4760 O   0  0  0  0  0  0  0  0  0  0  0  0
   -4.9090   14.8580    1.1020 C   0  0  0  0  0  0  0  0  0  0  0  0
   -7.1450   14.6910    0.2970 C   0  0  0  0  0  0  0  0  0  0  0  0
   -4.3880   14.9360   -0.1490 N   0  0  0  0  0  0  0  0  0  0  0  0
   -6.6370   14.7760   -0.9960 C   0  0  0  0  0  0  0  0  0  0  0  0
   -9.1270   15.1050    5.3720 C   0  0  0  0  0  0  0  0  0  0  0  0
   -5.2670   14.8950   -1.1700 C   0  0  0  0  0  0  0  0  0  0  0  0
   -9.2860   15.2180    6.7320 C   0  0  0  0  0  0  0  0  0  0  0  0
  -10.6150   14.9280    4.5560 S   0  0  0  0  0  0  0  0  0  0  0  0
   -4.8290   14.9710   -2.4750 O   0  0  0  0  0  0  0  0  0  0  0  0
  -11.4950   15.0020    6.0240 C   0  0  0  0  0  0  0  0  0  0  0  0
  -10.6630   15.1590    7.1130 C   0  0  0  0  0  0  0  0  0  0  0  0
   -3.4150   15.0750   -2.5990 C   0  0  0  0  0  0  0  0  0  0  0  0
  1  2  1  0
  2  3  1  0
  1  4  1  0
  2  5  2  0
  4  6  2  0
  4  7  1  0
  6  8  1  0
  7  9  2  0
  3 10  1  0
  8 11  2  0
  9 11  1  0
 10 12  2  0
 10 13  1  0
 11 14  1  0
 13 15  1  0
 12 16  1  0
 15 16  2  0
 14 17  1  0
M  END
