x0104_0_A-x0724_0_A
     RDKit          3D

 22 24  0  0  0  0  0  0  0  0999 V2000
   -7.4120   14.7290    2.1910 N   0  0  0  0  0  0  0  0  0  0  0  0
   -8.3240   14.9380    3.1790 C   0  0  0  0  0  0  0  0  0  0  0  0
   -8.2930   14.5990    4.6080 N   0  0  0  0  0  0  0  0  0  0  0  0
   -6.5460   14.6420    1.0990 C   0  0  1  0  0  0  0  0  0  0  0  0
   -9.4550   15.5280    2.9380 O   0  0  0  0  0  0  0  0  0  0  0  0
   -5.1110   14.7120    1.3510 C   0  0  0  0  0  0  0  0  0  0  0  0
   -6.8280   13.6650    0.0280 C   0  0  0  0  0  0  0  0  0  0  0  0
   -7.6640   13.4110    5.0400 C   0  0  0  0  0  0  0  0  0  0  0  0
   -4.4240   15.0350    0.1220 N   0  0  0  0  0  0  0  0  0  0  0  0
   -6.0570   13.5760   -0.9850 C   0  0  0  0  0  0  0  0  0  0  0  0
   -9.4130   14.9140    5.4060 C   0  0  0  0  0  0  0  0  0  0  0  0
   -4.8050   14.4520   -1.1250 C   0  0  1  0  0  0  0  0  0  0  0  0
   -9.5320   15.2130    6.7200 C   0  0  0  0  0  0  0  0  0  0  0  0
  -11.0620   14.9880    4.8540 S   0  0  0  0  0  0  0  0  0  0  0  0
   -3.0920   15.3120    0.3860 C   0  0  0  0  0  0  0  0  0  0  0  0
   -4.8510   15.2230   -2.2440 O   0  0  0  0  0  0  0  0  0  0  0  0
  -11.8090   15.3880    6.3210 C   0  0  0  0  0  0  0  0  0  0  0  0
  -10.7650   15.4600    7.2080 C   0  0  0  0  0  0  0  0  0  0  0  0
   -2.0810   14.7110   -0.1890 C   0  0  0  0  0  0  0  0  0  0  0  0
   -3.6700   13.5940   -1.5650 C   0  0  0  0  0  0  0  0  0  0  0  0
   -3.7520   15.2130   -3.0280 C   0  0  0  0  0  0  0  0  0  0  0  0
   -2.4360   13.6980   -1.1600 C   0  0  0  0  0  0  0  0  0  0  0  0
  1  2  1  0
  2  3  1  0
  4  1  1  1
  2  5  2  0
  4  6  1  0
  4  7  1  0
  3  8  1  0
  6  9  1  0
  7 10  2  0
  3 11  1  0
  9 12  1  0
 10 12  1  0
 11 13  2  0
 11 14  1  0
  9 15  1  0
 12 16  1  6
 14 17  1  0
 13 18  1  0
 17 18  2  0
 15 19  2  0
 12 20  1  0
 16 21  1  0
 19 22  1  0
 20 22  2  0
M  END
