x0104_0_A_α-x0742_0_A_α
     RDKit          3D

 27 30  0  0  0  0  0  0  0  0999 V2000
   -8.0840   14.8860    3.2760 C   0  0  0  0  0  0  0  0  0  0  0  0
   -8.0900   15.2340    4.5970 N   0  0  0  0  0  0  0  0  0  0  0  0
   -9.1660   15.1910    5.4190 C   0  0  0  0  0  0  0  0  0  0  0  0
   -9.0680   14.9650    2.4510 N   0  0  0  0  0  0  0  0  0  0  0  0
   -8.8190   14.5040    1.0880 C   0  0  0  0  0  0  0  0  0  0  0  0
   -8.4100   13.0230    1.1260 C   0  0  0  0  0  0  0  0  0  0  0  0
   -9.2360   15.2330    6.7980 C   0  0  0  0  0  0  0  0  0  0  0  0
  -10.7430   15.0600    4.7350 S   0  0  0  0  0  0  0  0  0  0  0  0
   -7.6930   12.4970   -0.1290 C   0  0  0  0  0  0  0  0  0  0  0  0
  -10.5750   15.1580    7.2860 C   0  0  0  0  0  0  0  0  0  0  0  0
  -11.4940   15.0590    6.2680 C   0  0  0  0  0  0  0  0  0  0  0  0
   -6.3180   11.8650    0.1250 C   0  0  0  0  0  0  0  0  0  0  0  0
   -5.2620   12.2890   -0.8910 C   0  0  0  0  0  0  0  0  0  0  0  0
   -4.8860   11.4880   -1.7540 O   0  0  0  0  0  0  0  0  0  0  0  0
   -4.6480   13.7230   -0.8790 C   0  0  2  0  0  0  0  0  0  0  0  0
   -4.6380   14.5400    0.4120 C   0  0  1  0  0  0  0  0  0  0  0  0
   -5.5930   14.6110   -1.7370 C   0  0  0  0  0  0  0  0  0  0  0  0
   -3.2290   13.6530   -1.4530 C   0  0  0  0  0  0  0  0  0  0  0  0
   -6.0960   14.7070    0.6460 C   0  0  0  0  0  0  0  0  0  0  0  0
   -2.1370   13.9540   -0.4470 C   0  0  0  0  0  0  0  0  0  0  0  0
   -3.7270   14.0440    1.4980 C   0  0  0  0  0  0  0  0  0  0  0  0
   -6.4800   15.3320   -0.7130 C   0  0  0  0  0  0  0  0  0  0  0  0
   -0.8380   14.0650   -0.9210 C   0  0  0  0  0  0  0  0  0  0  0  0
   -2.3520   14.1280    0.9280 C   0  0  0  0  0  0  0  0  0  0  0  0
   -1.3730   14.3810    1.8080 N   0  0  0  0  0  0  0  0  0  0  0  0
    0.1810   14.3360   -0.0390 C   0  0  0  0  0  0  0  0  0  0  0  0
   -0.1380   14.4830    1.3010 C   0  0  0  0  0  0  0  0  0  0  0  0
  1  2  1  0
  2  3  1  0
  1  4  2  3
  4  5  1  0
  5  6  1  0
  3  7  2  0
  3  8  1  0
  6  9  1  0
  7 10  1  0
  8 11  1  0
 10 11  2  0
  9 12  1  0
 12 13  1  0
 13 14  2  0
 15 13  1  1
 15 16  1  0
 15 17  1  0
 15 18  1  0
 16 19  1  1
 18 20  1  0
 16 21  1  0
 17 22  1  0
 19 22  1  0
 20 23  2  0
 20 24  1  0
 21 24  1  0
 24 25  2  0
 23 26  1  0
 25 27  1  0
 26 27  2  0
M  END
