x0104_0_A_α-x0685_0_A_α
     RDKit          3D

 18 19  0  0  0  0  0  0  0  0999 V2000
   -7.7930   14.7680    2.9830 C   0  0  1  0  0  0  0  0  0  0  0  0
   -7.9410   15.2020    4.3540 N   0  0  0  0  0  0  0  0  0  0  0  0
   -9.0570   15.1420    5.1440 C   0  0  0  0  0  0  0  0  0  0  0  0
   -8.6270   15.4590    2.0910 O   0  0  0  0  0  0  0  0  0  0  0  0
   -6.3810   14.9380    2.6880 N   0  0  0  0  0  0  0  0  0  0  0  0
   -8.0910   13.2740    2.8810 C   0  0  0  0  0  0  0  0  0  0  0  0
   -5.6560   14.9630    1.4970 C   0  0  0  0  0  0  0  0  0  0  0  0
   -9.1620   15.2050    6.5270 C   0  0  0  0  0  0  0  0  0  0  0  0
  -10.6190   14.9630    4.4410 S   0  0  0  0  0  0  0  0  0  0  0  0
   -4.2660   15.1180    1.4650 C   0  0  0  0  0  0  0  0  0  0  0  0
   -6.3630   14.8430    0.3530 N   0  0  0  0  0  0  0  0  0  0  0  0
  -10.5100   15.1060    6.9970 C   0  0  0  0  0  0  0  0  0  0  0  0
  -11.4060   14.9700    5.9630 C   0  0  0  0  0  0  0  0  0  0  0  0
   -3.5900   15.1570    0.2440 C   0  0  0  0  0  0  0  0  0  0  0  0
   -5.6850   14.8870   -0.8280 C   0  0  0  0  0  0  0  0  0  0  0  0
   -4.3120   15.0430   -0.9320 C   0  0  0  0  0  0  0  0  0  0  0  0
   -3.6810   15.0830   -2.2140 C   0  0  0  0  0  0  0  0  0  0  0  0
   -3.1720   15.1330   -3.2560 N   0  0  0  0  0  0  0  0  0  0  0  0
  1  2  1  0
  2  3  1  0
  1  4  1  0
  1  5  1  0
  1  6  1  1
  5  7  1  0
  3  8  2  0
  3  9  1  0
  7 10  2  0
  7 11  1  0
  8 12  1  0
  9 13  1  0
 12 13  2  0
 10 14  1  0
 11 15  2  0
 14 16  2  0
 15 16  1  0
 16 17  1  0
 17 18  3  0
M  END
