x0104_0_A-x0910_0_A
     RDKit          3D

 22 24  0  0  0  0  0  0  0  0999 V2000
   -7.0100   14.4370    2.6210 N   0  0  0  0  0  0  0  0  0  0  0  0
   -8.0990   15.0770    3.0960 C   0  0  0  0  0  0  0  0  0  0  0  0
   -8.2270   15.1750    4.4520 N   0  0  0  0  0  0  0  0  0  0  0  0
   -6.3100   14.6230    1.4190 C   0  0  0  0  0  0  0  0  0  0  0  0
   -8.9900   15.5730    2.4060 O   0  0  0  0  0  0  0  0  0  0  0  0
   -4.9350   14.7490    1.3580 C   0  0  0  0  0  0  0  0  0  0  0  0
   -7.0100   14.6870    0.2080 C   0  0  0  0  0  0  0  0  0  0  0  0
   -4.2360   14.9250    0.2250 N   0  0  0  0  0  0  0  0  0  0  0  0
   -6.3040   14.8760   -0.9890 C   0  0  0  0  0  0  0  0  0  0  0  0
   -9.3290   15.1270    5.2740 C   0  0  0  0  0  0  0  0  0  0  0  0
   -4.9160   14.9860   -0.9170 C   0  0  0  0  0  0  0  0  0  0  0  0
   -9.3020   15.2240    6.6500 C   0  0  0  0  0  0  0  0  0  0  0  0
  -10.9110   14.9360    4.6900 S   0  0  0  0  0  0  0  0  0  0  0  0
   -4.1970   15.1620   -2.0770 O   0  0  0  0  0  0  0  0  0  0  0  0
  -11.5800   14.9800    6.2600 C   0  0  0  0  0  0  0  0  0  0  0  0
  -10.6080   15.1390    7.2230 C   0  0  0  0  0  0  0  0  0  0  0  0
   -2.8910   14.5200   -2.0730 C   0  0  0  0  0  0  0  0  0  0  0  0
   -1.9770   14.6770   -0.8520 C   0  0  0  0  0  0  0  0  0  0  0  0
   -2.3720   14.7340    0.4410 N   0  0  0  0  0  0  0  0  0  0  0  0
   -0.5990   14.7770   -0.9850 N   0  0  0  0  0  0  0  0  0  0  0  0
   -1.2090   14.8740    1.1050 N   0  0  0  0  0  0  0  0  0  0  0  0
   -0.1620   14.9000    0.2510 C   0  0  0  0  0  0  0  0  0  0  0  0
  1  2  1  0
  2  3  1  0
  1  4  1  0
  2  5  2  0
  4  6  2  0
  4  7  1  0
  6  8  1  0
  7  9  2  0
  3 10  1  0
  8 11  2  0
  9 11  1  0
 10 12  2  0
 10 13  1  0
 11 14  1  0
 13 15  1  0
 12 16  1  0
 15 16  2  0
 14 17  1  0
 17 18  1  0
 18 19  2  0
 18 20  1  0
 19 21  1  0
 20 22  2  0
 21 22  1  0
M  END
