x0104_0_A_α-x0628_0_A_α
     RDKit          3D

 27 28  0  0  0  0  0  0  0  0999 V2000
   -7.7270   14.8140    3.2870 C   0  0  0  0  0  0  0  0  0  0  0  0
   -8.0170   15.2360    4.5530 N   0  0  0  0  0  0  0  0  0  0  0  0
   -9.1730   15.1710    5.2680 C   0  0  0  0  0  0  0  0  0  0  0  0
   -8.3990   15.1470    2.2380 N   0  0  0  0  0  0  0  0  0  0  0  0
   -7.8820   14.5790    0.9720 C   0  0  0  0  0  0  0  0  0  0  0  0
   -6.3400   14.5040    0.9990 C   0  0  0  0  0  0  0  0  0  0  0  0
   -9.2460   15.2070    6.6530 C   0  0  0  0  0  0  0  0  0  0  0  0
  -10.7510   15.0300    4.5970 S   0  0  0  0  0  0  0  0  0  0  0  0
   -5.6980   14.9220   -0.3470 C   0  0  0  0  0  0  0  0  0  0  0  0
  -10.5810   15.1200    7.1510 C   0  0  0  0  0  0  0  0  0  0  0  0
  -11.4980   15.0190    6.1360 C   0  0  0  0  0  0  0  0  0  0  0  0
   -4.1630   14.9730   -0.3120 C   0  0  0  0  0  0  0  0  0  0  0  0
   -3.5420   14.4850   -1.6380 C   0  0  0  0  0  0  0  0  0  0  0  0
   -2.9110   13.0730   -1.5430 C   0  0  0  0  0  0  0  0  0  0  0  0
   -1.8800   12.7450   -2.6510 C   0  0  0  0  0  0  0  0  0  0  0  0
   -2.4980   12.5260   -4.0510 C   0  0  0  0  0  0  0  0  0  0  0  0
   -1.6460   11.7260   -5.0090 C   0  0  0  0  0  0  0  0  0  0  0  0
   -1.9740   10.5580   -5.5430 N   0  0  0  0  0  0  0  0  0  0  0  0
   -0.4000   12.0730   -5.4900 N   0  0  0  0  0  0  0  0  0  0  0  0
    0.4250   13.2370   -5.2320 C   0  0  0  0  0  0  0  0  0  0  0  0
   -0.9090   10.2350   -6.3370 C   0  0  0  0  0  0  0  0  0  0  0  0
    0.0770   11.1340   -6.3360 N   0  0  0  0  0  0  0  0  0  0  0  0
   -0.8470    8.9960   -7.1320 C   0  0  0  0  0  0  0  0  0  0  0  0
    1.5860   12.9600   -4.2810 C   0  0  0  0  0  0  0  0  0  0  0  0
    1.1360   12.2380   -3.0420 C   0  0  0  0  0  0  0  0  0  0  0  0
    0.4810   11.2120   -2.9610 O   0  0  0  0  0  0  0  0  0  0  0  0
    1.5330   12.8640   -1.9200 O   0  0  0  0  0  0  0  0  0  0  0  0
  1  2  1  0
  2  3  1  0
  1  4  2  3
  4  5  1  0
  5  6  1  0
  3  7  2  0
  3  8  1  0
  6  9  1  0
  7 10  1  0
  8 11  1  0
 10 11  2  0
  9 12  1  0
 12 13  1  0
 13 14  1  0
 14 15  1  0
 15 16  1  0
 16 17  1  0
 17 18  2  0
 17 19  1  0
 19 20  1  0
 18 21  1  0
 19 22  1  0
 21 22  2  0
 21 23  1  0
 20 24  1  0
 24 25  1  0
 25 26  2  0
 25 27  1  0
M  END
