x0104_0_A-x0895_0_A
     RDKit          3D

 23 25  0  0  0  0  0  0  0  0999 V2000
   -7.5330   14.3630    2.6100 N   0  0  0  0  0  0  0  0  0  0  0  0
   -8.4280   15.2260    3.1700 C   0  0  0  0  0  0  0  0  0  0  0  0
   -8.2330   15.2680    4.5370 N   0  0  0  0  0  0  0  0  0  0  0  0
   -6.8700   14.5290    1.3920 C   0  0  0  0  0  0  0  0  0  0  0  0
   -9.2690   15.8510    2.5460 O   0  0  0  0  0  0  0  0  0  0  0  0
   -5.5300   14.5050    1.3880 C   0  0  0  0  0  0  0  0  0  0  0  0
   -7.5190   14.7240    0.1370 C   0  0  0  0  0  0  0  0  0  0  0  0
   -4.8190   14.6450    0.3010 N   0  0  0  0  0  0  0  0  0  0  0  0
   -6.7500   14.8810   -1.0560 C   0  0  0  0  0  0  0  0  0  0  0  0
   -9.2730   15.1870    5.4270 C   0  0  0  0  0  0  0  0  0  0  0  0
   -5.3750   14.8260   -0.8860 C   0  0  0  0  0  0  0  0  0  0  0  0
   -9.3490   15.2450    6.7920 C   0  0  0  0  0  0  0  0  0  0  0  0
  -10.7930   14.9690    4.6860 S   0  0  0  0  0  0  0  0  0  0  0  0
   -4.1610   14.9070   -1.6620 C   0  0  0  0  0  0  0  0  0  0  0  0
  -11.5830   14.9500    6.2020 C   0  0  0  0  0  0  0  0  0  0  0  0
  -10.6960   15.1080    7.2490 C   0  0  0  0  0  0  0  0  0  0  0  0
   -4.0340   15.0950   -3.1420 C   0  0  0  0  0  0  0  0  0  0  0  0
   -3.3190   14.7600   -0.6390 C   0  0  0  0  0  0  0  0  0  0  0  0
   -3.8890   14.6060    0.5940 N   0  0  0  0  0  0  0  0  0  0  0  0
   -1.9660   14.7170   -0.4340 N   0  0  0  0  0  0  0  0  0  0  0  0
   -3.0880   15.3580    1.4930 C   0  0  0  0  0  0  0  0  0  0  0  0
   -1.7870   14.7990    0.9770 C   0  0  0  0  0  0  0  0  0  0  0  0
   -0.8590   14.4820    1.6810 O   0  0  0  0  0  0  0  0  0  0  0  0
  1  2  1  0
  2  3  1  0
  1  4  1  0
  2  5  2  0
  4  6  2  0
  4  7  1  0
  6  8  1  0
  7  9  2  0
  3 10  1  0
  8 11  2  0
  9 11  1  0
 10 12  2  0
 10 13  1  0
 11 14  1  0
 13 15  1  0
 12 16  1  0
 15 16  2  0
 14 17  1  0
 14 18  2  3
 18 19  1  0
 18 20  1  0
 19 21  1  0
 20 22  1  0
 21 22  1  0
 22 23  2  0
M  END
