x0104_0_A-x0626_0_A
     RDKit          3D

 26 28  0  0  0  0  0  0  0  0999 V2000
   -6.7190   14.3070    2.1300 N   0  0  0  0  0  0  0  0  0  0  0  0
   -7.8200   14.9430    2.7900 C   0  0  0  0  0  0  0  0  0  0  0  0
   -7.8170   14.9350    4.1970 N   0  0  0  0  0  0  0  0  0  0  0  0
   -5.6630   15.1030    1.6520 C   0  0  0  0  0  0  0  0  0  0  0  0
   -6.6110   14.2210    0.7510 C   0  0  0  0  0  0  0  0  0  0  0  0
   -8.7150   15.4480    2.1110 O   0  0  0  0  0  0  0  0  0  0  0  0
   -4.4950   15.3280    2.2400 N   0  0  0  0  0  0  0  0  0  0  0  0
   -5.8020   15.4990    0.4850 O   0  0  0  0  0  0  0  0  0  0  0  0
   -5.3760   13.7360    0.3520 C   0  0  0  0  0  0  0  0  0  0  0  0
   -7.5070   14.6140   -0.2380 C   0  0  0  0  0  0  0  0  0  0  0  0
   -4.9580   13.6420   -0.9060 N   0  0  0  0  0  0  0  0  0  0  0  0
   -7.0860   14.5340   -1.5750 C   0  0  0  0  0  0  0  0  0  0  0  0
   -8.9470   14.9980    5.0340 C   0  0  0  0  0  0  0  0  0  0  0  0
   -3.3820   15.0890    1.4730 C   0  0  0  0  0  0  0  0  0  0  0  0
   -5.8060   14.0610   -1.8380 C   0  0  0  0  0  0  0  0  0  0  0  0
   -8.9450   15.1380    6.4170 C   0  0  0  0  0  0  0  0  0  0  0  0
  -10.5400   14.9050    4.4320 S   0  0  0  0  0  0  0  0  0  0  0  0
   -2.2070   14.7210    1.8580 N   0  0  0  0  0  0  0  0  0  0  0  0
   -3.5650   15.2970   -0.2180 S   0  0  0  0  0  0  0  0  0  0  0  0
   -5.3660   14.0240   -3.1300 O   0  0  0  0  0  0  0  0  0  0  0  0
  -11.2370   15.0470    5.9900 C   0  0  0  0  0  0  0  0  0  0  0  0
  -10.2730   15.1670    6.9690 C   0  0  0  0  0  0  0  0  0  0  0  0
   -1.9370   14.8360   -0.4440 C   0  0  0  0  0  0  0  0  0  0  0  0
   -1.3810   14.5800    0.7840 C   0  0  0  0  0  0  0  0  0  0  0  0
   -4.1250   14.7430   -3.2520 C   0  0  0  0  0  0  0  0  0  0  0  0
   -0.0170   14.1800    1.0770 C   0  0  0  0  0  0  0  0  0  0  0  0
  1  2  1  0
  2  3  1  0
  1  4  1  0
  1  5  1  0
  2  6  2  0
  4  7  1  0
  4  8  2  0
  5  9  2  0
  5 10  1  0
  9 11  1  0
 10 12  2  0
  3 13  1  0
  7 14  1  0
 11 15  2  0
 12 15  1  0
 13 16  2  0
 13 17  1  0
 14 18  2  0
 14 19  1  0
 15 20  1  0
 17 21  1  0
 16 22  1  0
 21 22  2  0
 19 23  1  0
 18 24  1  0
 23 24  2  0
 20 25  1  0
 24 26  1  0
M  END
