x0128_0_A-x0766_0_A
     RDKit          3D

 28 31  0  0  0  0  0  0  0  0999 V2000
   -6.4840   14.4060    2.3040 N   0  0  0  0  0  0  0  0  0  0  0  0
   -7.5770   15.0950    2.8690 C   0  0  0  0  0  0  0  0  0  0  0  0
   -8.5550   15.4270    2.2030 O   0  0  0  0  0  0  0  0  0  0  0  0
   -5.7810   14.8100    1.0670 C   0  0  2  0  0  0  0  0  0  0  0  0
   -7.4080   15.3480    4.2430 N   0  0  0  0  0  0  0  0  0  0  0  0
   -6.7760   14.7960   -0.0310 C   0  0  0  0  0  0  0  0  0  0  0  0
   -4.4870   14.0850    0.5650 C   0  0  0  0  0  0  0  0  0  0  0  0
   -6.3750   15.1320   -1.2480 C   0  0  0  0  0  0  0  0  0  0  0  0
   -3.8410   14.7770   -0.7140 C   0  0  2  0  0  0  0  0  0  0  0  0
   -8.2820   16.0190    5.1580 C   0  0  0  0  0  0  0  0  0  0  0  0
   -4.9500   15.5320   -1.5030 C   0  0  0  0  0  0  0  0  0  0  0  0
   -9.0010   17.1510    4.7460 C   0  0  0  0  0  0  0  0  0  0  0  0
   -8.4850   15.6280    6.4840 C   0  0  0  0  0  0  0  0  0  0  0  0
   -3.0570   13.8610   -1.7440 C   0  0  0  0  0  0  0  0  0  0  0  0
   -2.7230   15.7300   -0.3450 C   0  0  0  0  0  0  0  0  0  0  0  0
   -9.8490   17.8670    5.5250 N   0  0  0  0  0  0  0  0  0  0  0  0
   -9.3550   16.3470    7.3120 C   0  0  0  0  0  0  0  0  0  0  0  0
   -1.5410   14.2560   -1.7730 C   0  0  2  0  0  0  0  0  0  0  0  0
   -1.5270   15.4680   -0.9050 C   0  0  0  0  0  0  0  0  0  0  0  0
  -10.0080   17.4500    6.7920 C   0  0  0  0  0  0  0  0  0  0  0  0
   -0.7320   14.3190   -3.1260 C   0  0  2  0  0  0  0  0  0  0  0  0
    0.5570   13.4880   -3.1230 C   0  0  1  0  0  0  0  0  0  0  0  0
   -0.0990   15.6630   -3.5650 C   0  0  0  0  0  0  0  0  0  0  0  0
    0.3190   12.0700   -2.7390 C   0  0  0  0  0  0  0  0  0  0  0  0
    1.1710   13.7780   -4.4830 C   0  0  0  0  0  0  0  0  0  0  0  0
    1.1250   15.3030   -4.4510 C   0  0  0  0  0  0  0  0  0  0  0  0
    0.4850   11.6460   -1.6170 O   0  0  0  0  0  0  0  0  0  0  0  0
   -0.1160   11.2750   -3.7260 O   0  0  0  0  0  0  0  0  0  0  0  0
  1  2  1  0
  2  3  2  0
  4  1  1  1
  2  5  1  0
  4  6  1  0
  4  7  1  0
  6  8  2  0
  9  7  1  1
  5 10  1  0
  8 11  1  0
  9 11  1  0
 10 12  2  0
 10 13  1  0
  9 14  1  0
  9 15  1  0
 12 16  1  0
 13 17  2  0
 18 14  1  6
 15 19  2  0
 18 19  1  0
 16 20  2  0
 17 20  1  0
 18 21  1  0
 21 22  1  0
 21 23  1  1
 22 24  1  6
 22 25  1  0
 23 26  1  0
 25 26  1  0
 24 27  2  0
 24 28  1  0
M  END
