x0128_0_A_α-x0662_0_A_β
     RDKit          3D

 30 32  0  0  0  0  0  0  0  0999 V2000
   -6.7330   14.5640    2.4050 N   0  0  0  0  0  0  0  0  0  0  0  0
   -7.8540   15.2210    2.8960 C   0  0  0  0  0  0  0  0  0  0  0  0
   -8.8110   15.6410    2.2540 O   0  0  0  0  0  0  0  0  0  0  0  0
   -5.9930   14.7020    1.1980 C   0  0  0  0  0  0  0  0  0  0  0  0
   -7.6900   15.3160    4.2750 N   0  0  0  0  0  0  0  0  0  0  0  0
   -6.6780   14.6150   -0.0320 C   0  0  0  0  0  0  0  0  0  0  0  0
   -4.6100   14.9110    1.1760 C   0  0  0  0  0  0  0  0  0  0  0  0
   -5.9810   14.7280   -1.2540 C   0  0  0  0  0  0  0  0  0  0  0  0
   -3.9190   15.0220   -0.0340 C   0  0  0  0  0  0  0  0  0  0  0  0
   -8.4590   16.0430    5.2250 C   0  0  0  0  0  0  0  0  0  0  0  0
   -4.5850   14.9270   -1.2660 C   0  0  0  0  0  0  0  0  0  0  0  0
   -9.1360   17.1990    4.8230 C   0  0  0  0  0  0  0  0  0  0  0  0
   -8.5970   15.6860    6.5680 C   0  0  0  0  0  0  0  0  0  0  0  0
   -3.7630   15.0410   -2.5490 C   0  0  0  0  0  0  0  0  0  0  0  0
   -9.9040   17.9800    5.6280 N   0  0  0  0  0  0  0  0  0  0  0  0
   -9.3790   16.4700    7.4260 C   0  0  0  0  0  0  0  0  0  0  0  0
   -3.5880   13.7350   -3.3810 C   0  0  0  0  0  0  0  0  0  0  0  0
  -10.0070   17.5960    6.9140 C   0  0  0  0  0  0  0  0  0  0  0  0
   -2.4440   12.7450   -3.0020 C   0  0  0  0  0  0  0  0  0  0  0  0
   -1.1510   12.7750   -3.8700 C   0  0  0  0  0  0  0  0  0  0  0  0
   -1.1720   11.8520   -5.0180 N   0  0  0  0  0  0  0  0  0  0  0  0
   -0.1340   11.5890   -5.7690 C   0  0  0  0  0  0  0  0  0  0  0  0
    1.0280   12.0260   -5.6650 O   0  0  0  0  0  0  0  0  0  0  0  0
   -0.1520   10.6750   -6.9750 C   0  0  0  0  0  0  0  0  0  0  0  0
    0.7140   10.9250   -8.0510 C   0  0  0  0  0  0  0  0  0  0  0  0
   -1.0310    9.5850   -7.0360 C   0  0  0  0  0  0  0  0  0  0  0  0
    0.7080   10.1130   -9.1940 C   0  0  0  0  0  0  0  0  0  0  0  0
   -1.0390    8.7630   -8.1710 C   0  0  0  0  0  0  0  0  0  0  0  0
    1.5680   10.3800  -10.2770 N   0  0  0  0  0  0  0  0  0  0  0  0
   -0.1750    9.0300   -9.2410 C   0  0  0  0  0  0  0  0  0  0  0  0
  1  2  1  0
  2  3  2  0
  1  4  1  0
  2  5  1  0
  4  6  2  0
  4  7  1  0
  6  8  1  0
  7  9  2  0
  5 10  1  0
  8 11  2  0
  9 11  1  0
 10 12  2  0
 10 13  1  0
 11 14  1  0
 12 15  1  0
 13 16  2  0
 14 17  1  0
 15 18  2  0
 16 18  1  0
 17 19  1  0
 19 20  1  0
 20 21  1  0
 21 22  2  3
 22 23  1  0
 22 24  1  0
 24 25  2  0
 24 26  1  0
 25 27  1  0
 26 28  2  0
 27 29  1  0
 27 30  2  0
 28 30  1  0
M  CHG  1  23  -1
M  END
