x0128_0_A-x1012_0_A
     RDKit          3D

 31 33  0  0  0  0  0  0  0  0999 V2000
   -6.5460   14.8400    2.5610 N   0  0  0  0  0  0  0  0  0  0  0  0
   -7.7430   15.2160    3.1490 C   0  0  0  0  0  0  0  0  0  0  0  0
   -8.8020   15.3570    2.5520 O   0  0  0  0  0  0  0  0  0  0  0  0
   -6.1640   14.8120    1.2080 C   0  0  0  0  0  0  0  0  0  0  0  0
   -7.5590   15.4280    4.5120 N   0  0  0  0  0  0  0  0  0  0  0  0
   -7.0420   14.5480    0.1710 C   0  0  0  0  0  0  0  0  0  0  0  0
   -4.8120   15.0730    0.9110 C   0  0  0  0  0  0  0  0  0  0  0  0
   -6.5960   14.5310   -1.1460 C   0  0  0  0  0  0  0  0  0  0  0  0
   -4.3630   15.0570   -0.4160 C   0  0  0  0  0  0  0  0  0  0  0  0
   -8.4160   16.1270    5.3960 C   0  0  0  0  0  0  0  0  0  0  0  0
   -5.2590   14.7790   -1.4550 C   0  0  0  0  0  0  0  0  0  0  0  0
   -9.0970   17.2570    4.9330 C   0  0  0  0  0  0  0  0  0  0  0  0
   -8.6400   15.7710    6.7230 C   0  0  0  0  0  0  0  0  0  0  0  0
   -4.8370   14.7260   -2.9030 C   0  0  0  0  0  0  0  0  0  0  0  0
   -9.9420   18.0120    5.6750 N   0  0  0  0  0  0  0  0  0  0  0  0
   -9.5040   16.5290    7.5140 C   0  0  0  0  0  0  0  0  0  0  0  0
   -3.4930   15.3960   -3.1140 C   0  0  0  0  0  0  0  0  0  0  0  0
  -10.1260   17.6310    6.9510 C   0  0  0  0  0  0  0  0  0  0  0  0
   -3.2180   15.7690   -4.5780 C   0  0  0  0  0  0  0  0  0  0  0  0
   -2.5170   17.0490   -4.6330 N   0  0  0  0  0  0  0  0  0  0  0  0
   -1.2490   17.0460   -4.7710 C   0  0  0  0  0  0  0  0  0  0  0  0
   -0.4640   18.1490   -4.8240 N   0  0  0  0  0  0  0  0  0  0  0  0
   -0.5490   15.8520   -4.8690 N   0  0  0  0  0  0  0  0  0  0  0  0
   -1.2620   14.5760   -5.0720 C   0  0  0  0  0  0  0  0  0  0  0  0
    0.8790   15.7170   -4.5190 C   0  0  0  0  0  0  0  0  0  0  0  0
   -1.1460   13.7120   -3.8290 C   0  0  0  0  0  0  0  0  0  0  0  0
    1.0900   14.7070   -3.3760 C   0  0  0  0  0  0  0  0  0  0  0  0
    0.3100   13.3920   -3.5550 C   0  0  0  0  0  0  0  0  0  0  0  0
    0.4190   12.4370   -2.3780 C   0  0  0  0  0  0  0  0  0  0  0  0
    0.3670   11.1400   -2.7520 O   0  0  0  0  0  0  0  0  0  0  0  0
    0.5290   12.7620   -1.2070 O   0  0  0  0  0  0  0  0  0  0  0  0
  1  2  1  0
  2  3  2  0
  1  4  1  0
  2  5  1  0
  4  6  2  0
  4  7  1  0
  6  8  1  0
  7  9  2  0
  5 10  1  0
  8 11  2  0
  9 11  1  0
 10 12  2  0
 10 13  1  0
 11 14  1  0
 12 15  1  0
 13 16  2  0
 14 17  1  0
 15 18  2  0
 16 18  1  0
 17 19  1  0
 19 20  1  0
 20 21  2  3
 21 22  1  0
 21 23  1  0
 23 24  1  0
 23 25  1  0
 24 26  1  0
 25 27  1  0
 26 28  1  0
 27 28  1  0
 28 29  1  0
 29 30  1  0
 29 31  2  0
M  END
