x0128_0_A_α-x0524_0_A_α
     RDKit          3D

 39 42  0  0  0  0  0  0  0  0999 V2000
   -6.4940   14.8860    2.5960 N   0  0  0  0  0  0  0  0  0  0  0  0
   -7.7830   15.1840    3.0050 C   0  0  0  0  0  0  0  0  0  0  0  0
   -8.6900   15.4400    2.2140 O   0  0  0  0  0  0  0  0  0  0  0  0
   -5.9380   14.8700    1.2820 C   0  0  0  0  0  0  0  0  0  0  0  0
   -7.8150   15.1430    4.3720 N   0  0  0  0  0  0  0  0  0  0  0  0
   -6.7630   14.6380    0.1760 C   0  0  0  0  0  0  0  0  0  0  0  0
   -4.5730   15.0910    1.0860 C   0  0  0  0  0  0  0  0  0  0  0  0
   -6.2150   14.6280   -1.1150 C   0  0  0  0  0  0  0  0  0  0  0  0
   -4.0300   15.0790   -0.1980 C   0  0  0  0  0  0  0  0  0  0  0  0
   -8.5350   15.9640    5.2770 C   0  0  0  0  0  0  0  0  0  0  0  0
   -4.8410   14.8460   -1.3080 C   0  0  0  0  0  0  0  0  0  0  0  0
   -9.1470   17.1300    4.8140 C   0  0  0  0  0  0  0  0  0  0  0  0
   -8.6790   15.6790    6.6280 C   0  0  0  0  0  0  0  0  0  0  0  0
   -4.2350   14.8260   -2.6940 C   0  0  0  0  0  0  0  0  0  0  0  0
   -9.8660   17.9880    5.5810 N   0  0  0  0  0  0  0  0  0  0  0  0
   -9.4130   16.5450    7.4480 C   0  0  0  0  0  0  0  0  0  0  0  0
   -4.0430   13.4060   -3.2640 C   0  0  0  0  0  0  0  0  0  0  0  0
   -9.9800   17.6740    6.8820 C   0  0  0  0  0  0  0  0  0  0  0  0
   -3.0120   12.5500   -2.5090 C   0  0  0  0  0  0  0  0  0  0  0  0
   -1.8910   12.0400   -3.4350 C   0  0  0  0  0  0  0  0  0  0  0  0
   -2.0670   10.6010   -3.9600 C   0  0  0  0  0  0  0  0  0  0  0  0
   -2.4510   10.4560   -5.4450 C   0  0  0  0  0  0  0  0  0  0  0  0
   -1.8510    9.2410   -6.1690 C   0  0  0  0  0  0  0  0  0  0  0  0
   -0.7530    9.6350   -7.1600 C   0  0  0  0  0  0  0  0  0  0  0  0
   -0.3770    8.5920   -7.9950 N   0  0  0  0  0  0  0  0  0  0  0  0
   -0.2860   10.7720   -7.1710 O   0  0  0  0  0  0  0  0  0  0  0  0
    0.5940    8.6470   -9.0250 C   0  0  0  0  0  0  0  0  0  0  0  0
    1.7220    7.8350   -8.8860 C   0  0  0  0  0  0  0  0  0  0  0  0
    0.4920    9.4540  -10.1600 C   0  0  0  0  0  0  0  0  0  0  0  0
    2.7270    7.8290   -9.8610 C   0  0  0  0  0  0  0  0  0  0  0  0
    1.4950    9.4470  -11.1320 C   0  0  0  0  0  0  0  0  0  0  0  0
    2.6300    8.6350  -11.0000 C   0  0  0  0  0  0  0  0  0  0  0  0
    3.6230    8.6490  -11.9980 N   0  0  0  0  0  0  0  0  0  0  0  0
    3.8980    9.5180  -13.0840 C   0  0  0  0  0  0  0  0  0  0  0  0
    3.1790   10.7220  -13.2020 C   0  0  0  0  0  0  0  0  0  0  0  0
    4.8590    9.2380  -14.0550 C   0  0  0  0  0  0  0  0  0  0  0  0
    3.4220   11.6070  -14.2520 C   0  0  0  0  0  0  0  0  0  0  0  0
    5.1070   10.1200  -15.1080 C   0  0  0  0  0  0  0  0  0  0  0  0
    4.3880   11.3080  -15.2080 C   0  0  0  0  0  0  0  0  0  0  0  0
  1  2  1  0
  2  3  2  0
  1  4  1  0
  2  5  1  0
  4  6  2  0
  4  7  1  0
  6  8  1  0
  7  9  2  0
  5 10  1  0
  8 11  2  0
  9 11  1  0
 10 12  2  0
 10 13  1  0
 11 14  1  0
 12 15  1  0
 13 16  2  0
 14 17  1  0
 15 18  2  0
 16 18  1  0
 17 19  1  0
 19 20  1  0
 20 21  1  0
 21 22  1  0
 22 23  1  0
 23 24  1  0
 24 25  1  0
 24 26  2  0
 25 27  1  0
 27 28  2  0
 27 29  1  0
 28 30  1  0
 29 31  2  0
 30 32  2  0
 31 32  1  0
 32 33  1  0
 33 34  1  0
 34 35  2  0
 34 36  1  0
 35 37  1  0
 36 38  2  0
 37 39  2  0
 38 39  1  0
M  END
