x0128_0_A_α-x0371_0_A_β
     RDKit          3D

 20 22  0  0  0  0  0  0  0  0999 V2000
   -6.9640   14.3580    2.5130 N   0  0  0  0  0  0  0  0  0  0  0  0
   -7.9530   15.1430    3.0790 C   0  0  0  0  0  0  0  0  0  0  0  0
   -8.8980   15.6280    2.4710 O   0  0  0  0  0  0  0  0  0  0  0  0
   -6.3990   14.4480    1.2780 C   0  0  0  0  0  0  0  0  0  0  0  0
   -7.7450   15.3260    4.4410 N   0  0  0  0  0  0  0  0  0  0  0  0
   -7.1670   13.9910    0.1260 C   0  0  0  0  0  0  0  0  0  0  0  0
   -5.2090   14.8760    0.8500 C   0  0  0  0  0  0  0  0  0  0  0  0
   -6.4680   14.1480   -1.0120 C   0  0  0  0  0  0  0  0  0  0  0  0
   -5.1750   14.8020   -0.6600 C   0  0  1  0  0  0  0  0  0  0  0  0
   -4.0350   15.3910    1.4820 C   0  0  0  0  0  0  0  0  0  0  0  0
   -8.5330   16.1370    5.2810 C   0  0  0  0  0  0  0  0  0  0  0  0
   -5.3490   16.1620   -1.1550 C   0  0  0  0  0  0  0  0  0  0  0  0
   -9.2110   17.2880    4.8850 C   0  0  0  0  0  0  0  0  0  0  0  0
   -8.6540   15.7650    6.6210 C   0  0  0  0  0  0  0  0  0  0  0  0
   -2.8760   15.3470    0.8000 C   0  0  0  0  0  0  0  0  0  0  0  0
   -3.8560   14.5200   -1.2710 C   0  0  0  0  0  0  0  0  0  0  0  0
   -9.9680   18.0510    5.7120 N   0  0  0  0  0  0  0  0  0  0  0  0
   -9.4240   16.5310    7.4940 C   0  0  0  0  0  0  0  0  0  0  0  0
   -2.7670   14.8100   -0.5480 C   0  0  0  0  0  0  0  0  0  0  0  0
  -10.0580   17.6600    6.9940 C   0  0  0  0  0  0  0  0  0  0  0  0
  1  2  1  0
  2  3  2  0
  1  4  1  0
  2  5  1  0
  4  6  1  0
  4  7  2  0
  6  8  2  0
  7  9  1  0
  8  9  1  0
  7 10  1  0
  5 11  1  0
  9 12  1  6
 11 13  2  0
 11 14  1  0
 10 15  2  0
  9 16  1  0
 13 17  1  0
 14 18  2  0
 15 19  1  0
 16 19  2  0
 17 20  2  0
 18 20  1  0
M  END
