x0128_0_A-x0895_1_A
     RDKit          3D

 17 18  0  0  0  0  0  0  0  0999 V2000
   -6.7300   14.3030    2.6340 N   0  0  0  0  0  0  0  0  0  0  0  0
   -7.7820   15.0990    3.0480 C   0  0  0  0  0  0  0  0  0  0  0  0
   -8.6810   15.4850    2.3060 O   0  0  0  0  0  0  0  0  0  0  0  0
   -5.8700   14.7450    1.5400 C   0  0  2  0  0  0  0  0  0  0  0  0
   -7.6200   15.3560    4.3930 N   0  0  0  0  0  0  0  0  0  0  0  0
   -6.6720   14.7960    0.2750 C   0  0  0  0  0  0  0  0  0  0  0  0
   -4.5980   13.9640    1.3060 C   0  0  0  0  0  0  0  0  0  0  0  0
   -6.0590   14.9850   -0.9000 C   0  0  0  0  0  0  0  0  0  0  0  0
   -3.8020   14.6790    0.2380 C   0  0  0  0  0  0  0  0  0  0  0  0
   -8.4420   16.0800    5.2810 C   0  0  0  0  0  0  0  0  0  0  0  0
   -2.5810   14.8680    0.3940 O   0  0  0  0  0  0  0  0  0  0  0  0
   -4.5650   15.1470   -1.0150 C   0  0  0  0  0  0  0  0  0  0  0  0
   -9.1150   17.2180    4.8350 C   0  0  0  0  0  0  0  0  0  0  0  0
   -8.6360   15.7280    6.6160 C   0  0  0  0  0  0  0  0  0  0  0  0
   -9.9260   17.9880    5.5960 N   0  0  0  0  0  0  0  0  0  0  0  0
   -9.4650   16.5010    7.4260 C   0  0  0  0  0  0  0  0  0  0  0  0
  -10.0820   17.6130    6.8790 C   0  0  0  0  0  0  0  0  0  0  0  0
  1  2  1  0
  2  3  2  0
  4  1  1  1
  2  5  1  0
  4  6  1  0
  4  7  1  0
  6  8  2  0
  7  9  1  0
  5 10  1  0
  9 11  2  0
  8 12  1  0
  9 12  1  0
 10 13  2  0
 10 14  1  0
 13 15  1  0
 14 16  2  0
 15 17  2  0
 16 17  1  0
M  END
