x0128_0_A_α-x1015_0_A_α
     RDKit          3D

 34 37  0  0  0  0  0  0  0  0999 V2000
   -6.6090   14.7830    2.5720 N   0  0  0  0  0  0  0  0  0  0  0  0
   -7.8320   15.2100    3.0540 C   0  0  0  0  0  0  0  0  0  0  0  0
   -8.8120   15.5120    2.3840 O   0  0  0  0  0  0  0  0  0  0  0  0
   -6.1390   14.7850    1.2490 C   0  0  0  0  0  0  0  0  0  0  0  0
   -7.7440   15.2400    4.4310 N   0  0  0  0  0  0  0  0  0  0  0  0
   -6.9700   14.5580    0.1660 C   0  0  0  0  0  0  0  0  0  0  0  0
   -4.7730   15.0340    1.0310 C   0  0  0  0  0  0  0  0  0  0  0  0
   -6.4560   14.5710   -1.1250 C   0  0  0  0  0  0  0  0  0  0  0  0
   -4.2540   15.0460   -0.2730 C   0  0  0  0  0  0  0  0  0  0  0  0
   -8.4960   16.0190    5.3430 C   0  0  0  0  0  0  0  0  0  0  0  0
   -5.1060   14.8080   -1.3590 C   0  0  0  0  0  0  0  0  0  0  0  0
   -9.1340   17.1780    4.8880 C   0  0  0  0  0  0  0  0  0  0  0  0
   -8.6550   15.7130    6.6890 C   0  0  0  0  0  0  0  0  0  0  0  0
   -4.6430   14.7840   -2.7900 C   0  0  0  0  0  0  0  0  0  0  0  0
   -9.8870   18.0060    5.6520 N   0  0  0  0  0  0  0  0  0  0  0  0
   -9.4230   16.5460    7.5070 C   0  0  0  0  0  0  0  0  0  0  0  0
   -3.1910   15.1830   -3.0030 C   0  0  0  0  0  0  0  0  0  0  0  0
  -10.0120   17.6680    6.9490 C   0  0  0  0  0  0  0  0  0  0  0  0
   -2.4610   14.0750   -3.7600 C   0  0  0  0  0  0  0  0  0  0  0  0
   -1.1280   14.5270   -4.3610 C   0  0  0  0  0  0  0  0  0  0  0  0
    0.0960   13.6830   -3.9610 C   0  0  2  0  0  0  0  0  0  0  0  0
   -0.0960   12.2380   -3.9120 N   0  0  0  0  0  0  0  0  0  0  0  0
    0.4620   13.9550   -2.5070 C   0  0  0  0  0  0  0  0  0  0  0  0
    0.5630   15.0510   -1.9750 O   0  0  0  0  0  0  0  0  0  0  0  0
    0.2820   11.7250   -2.6580 C   0  0  0  0  0  0  0  0  0  0  0  0
    0.6650   12.7750   -1.8810 N   0  0  0  0  0  0  0  0  0  0  0  0
   -0.4840   11.4530   -5.0270 C   0  0  0  0  0  0  0  0  0  0  0  0
    0.2910   10.5530   -2.2650 O   0  0  0  0  0  0  0  0  0  0  0  0
    0.0760   11.6440   -6.3000 C   0  0  0  0  0  0  0  0  0  0  0  0
   -1.4530   10.4470   -4.8880 C   0  0  0  0  0  0  0  0  0  0  0  0
   -0.3130   10.8620   -7.3890 C   0  0  0  0  0  0  0  0  0  0  0  0
   -1.8460    9.6620   -5.9730 C   0  0  0  0  0  0  0  0  0  0  0  0
   -1.2740    9.8710   -7.2220 C   0  0  0  0  0  0  0  0  0  0  0  0
   -1.7610    8.9020   -8.5510 Cl  0  0  0  0  0  0  0  0  0  0  0  0
  1  2  1  0
  2  3  2  0
  1  4  1  0
  2  5  1  0
  4  6  2  0
  4  7  1  0
  6  8  1  0
  7  9  2  0
  5 10  1  0
  8 11  2  0
  9 11  1  0
 10 12  2  0
 10 13  1  0
 11 14  1  0
 12 15  1  0
 13 16  2  0
 14 17  1  0
 15 18  2  0
 16 18  1  0
 17 19  1  0
 19 20  1  0
 21 20  1  1
 21 22  1  0
 21 23  1  0
 23 24  2  0
 22 25  1  0
 23 26  1  0
 25 26  1  0
 22 27  1  0
 25 28  2  0
 27 29  2  0
 27 30  1  0
 29 31  1  0
 30 32  2  0
 31 33  2  0
 32 33  1  0
 33 34  1  0
M  END
