x0128_0_A-x0962_0_A
     RDKit          3D

 18 19  0  0  0  0  0  0  0  0999 V2000
   -6.6160   14.6490    2.4130 N   0  0  0  0  0  0  0  0  0  0  0  0
   -7.6930   15.1750    3.0960 C   0  0  0  0  0  0  0  0  0  0  0  0
   -8.7240   15.4010    2.4620 O   0  0  0  0  0  0  0  0  0  0  0  0
   -6.1340   14.7700    1.0920 C   0  0  0  0  0  0  0  0  0  0  0  0
   -7.5100   15.4170    4.4390 N   0  0  0  0  0  0  0  0  0  0  0  0
   -7.0990   14.9040    0.0920 C   0  0  0  0  0  0  0  0  0  0  0  0
   -4.7690   14.7650    0.7260 C   0  0  0  0  0  0  0  0  0  0  0  0
   -6.7350   15.0370   -1.2450 C   0  0  0  0  0  0  0  0  0  0  0  0
   -4.4140   14.8920   -0.6330 C   0  0  0  0  0  0  0  0  0  0  0  0
   -8.3710   16.1090    5.3280 C   0  0  0  0  0  0  0  0  0  0  0  0
   -3.0610   14.8770   -1.0990 C   0  0  0  0  0  0  0  0  0  0  0  0
   -5.3970   15.0320   -1.6010 C   0  0  0  0  0  0  0  0  0  0  0  0
   -9.0660   17.2380    4.8880 C   0  0  0  0  0  0  0  0  0  0  0  0
   -8.5820   15.7310    6.6540 C   0  0  0  0  0  0  0  0  0  0  0  0
   -1.9900   14.8220   -1.5340 N   0  0  0  0  0  0  0  0  0  0  0  0
   -9.9120   17.9770    5.6440 N   0  0  0  0  0  0  0  0  0  0  0  0
   -9.4480   16.4740    7.4620 C   0  0  0  0  0  0  0  0  0  0  0  0
  -10.0830   17.5780    6.9200 C   0  0  0  0  0  0  0  0  0  0  0  0
  1  2  1  0
  2  3  2  0
  1  4  1  0
  2  5  1  0
  4  6  2  0
  4  7  1  0
  6  8  1  0
  7  9  2  0
  5 10  1  0
  9 11  1  0
  8 12  2  0
  9 12  1  0
 10 13  2  0
 10 14  1  0
 11 15  3  0
 13 16  1  0
 14 17  2  0
 16 18  2  0
 17 18  1  0
M  END
