x0128_0_A_α-x0895_0_A_α
     RDKit          3D

 22 24  0  0  0  0  0  0  0  0999 V2000
   -6.8890   14.5950    2.3830 N   0  0  0  0  0  0  0  0  0  0  0  0
   -7.9040   15.2320    3.0690 C   0  0  0  0  0  0  0  0  0  0  0  0
   -8.9250   15.5800    2.4890 O   0  0  0  0  0  0  0  0  0  0  0  0
   -7.2680   13.8300    1.2140 C   0  0  0  0  0  0  0  0  0  0  0  0
   -7.6390   15.4200    4.4070 N   0  0  0  0  0  0  0  0  0  0  0  0
   -7.4310   14.8000    0.0700 C   0  0  0  0  0  0  0  0  0  0  0  0
   -6.2960   12.7310    0.8100 C   0  0  0  0  0  0  0  0  0  0  0  0
   -6.4020   15.0390   -0.7410 C   0  0  0  0  0  0  0  0  0  0  0  0
   -5.2850   12.9610   -0.0240 C   0  0  0  0  0  0  0  0  0  0  0  0
   -8.4440   16.1150    5.3400 C   0  0  0  0  0  0  0  0  0  0  0  0
   -5.2040   14.3100   -0.3830 C   0  0  0  0  0  0  0  0  0  0  0  0
   -9.1320   17.2530    4.9130 C   0  0  0  0  0  0  0  0  0  0  0  0
   -8.6080   15.7490    6.6700 C   0  0  0  0  0  0  0  0  0  0  0  0
   -9.9380   18.0090    5.6930 N   0  0  0  0  0  0  0  0  0  0  0  0
   -9.4320   16.5130    7.5010 C   0  0  0  0  0  0  0  0  0  0  0  0
   -4.0460   14.8050   -0.2380 C   0  0  0  0  0  0  0  0  0  0  0  0
  -10.0680   17.6220    6.9740 C   0  0  0  0  0  0  0  0  0  0  0  0
   -3.7690   16.0500   -0.3410 N   0  0  0  0  0  0  0  0  0  0  0  0
   -2.9090   14.1730    0.1290 N   0  0  0  0  0  0  0  0  0  0  0  0
   -3.3640   16.1820    1.0650 C   0  0  0  0  0  0  0  0  0  0  0  0
   -2.4450   14.9420    1.1680 C   0  0  0  0  0  0  0  0  0  0  0  0
   -1.5470   14.6560    1.9390 O   0  0  0  0  0  0  0  0  0  0  0  0
  1  2  1  0
  2  3  2  0
  1  4  1  0
  2  5  1  0
  4  6  1  0
  4  7  1  0
  6  8  2  0
  7  9  2  0
  5 10  1  0
  8 11  1  0
  9 11  1  0
 10 12  2  0
 10 13  1  0
 12 14  1  0
 13 15  2  0
 11 16  2  3
 14 17  2  0
 15 17  1  0
 16 18  1  0
 16 19  1  0
 18 20  1  0
 19 21  1  0
 20 21  1  0
 21 22  2  0
M  END
