x0128_0_A-x0895_1_A
     RDKit          3D

 17 18  0  0  0  0  0  0  0  0999 V2000
   -6.7290   14.3070    2.6360 N   0  0  0  0  0  0  0  0  0  0  0  0
   -7.7860   15.1040    3.0570 C   0  0  0  0  0  0  0  0  0  0  0  0
   -8.6940   15.4750    2.3170 O   0  0  0  0  0  0  0  0  0  0  0  0
   -5.8610   14.7580    1.5500 C   0  0  2  0  0  0  0  0  0  0  0  0
   -7.6210   15.3780    4.3970 N   0  0  0  0  0  0  0  0  0  0  0  0
   -6.6590   14.8160    0.2810 C   0  0  0  0  0  0  0  0  0  0  0  0
   -4.5810   13.9830    1.3030 C   0  0  0  0  0  0  0  0  0  0  0  0
   -6.0540   15.0060   -0.8990 C   0  0  0  0  0  0  0  0  0  0  0  0
   -3.7920   14.7020    0.2280 C   0  0  0  0  0  0  0  0  0  0  0  0
   -8.4480   16.1010    5.2880 C   0  0  0  0  0  0  0  0  0  0  0  0
   -2.5710   14.8960    0.3780 O   0  0  0  0  0  0  0  0  0  0  0  0
   -4.5600   15.1640   -1.0260 C   0  0  0  0  0  0  0  0  0  0  0  0
   -9.1250   17.2420    4.8480 C   0  0  0  0  0  0  0  0  0  0  0  0
   -8.6400   15.7470    6.6230 C   0  0  0  0  0  0  0  0  0  0  0  0
   -9.9380   18.0080    5.6130 N   0  0  0  0  0  0  0  0  0  0  0  0
   -9.4720   16.5160    7.4390 C   0  0  0  0  0  0  0  0  0  0  0  0
  -10.0930   17.6270    6.8960 C   0  0  0  0  0  0  0  0  0  0  0  0
  1  2  1  0
  2  3  2  0
  4  1  1  1
  2  5  1  0
  4  6  1  0
  4  7  1  0
  6  8  2  0
  7  9  1  0
  5 10  1  0
  9 11  2  0
  8 12  1  0
  9 12  1  0
 10 13  2  0
 10 14  1  0
 13 15  1  0
 14 16  2  0
 15 17  2  0
 16 17  1  0
M  END
