x0128_0_A-x0626_0_A
     RDKit          3D

 25 27  0  0  0  0  0  0  0  0999 V2000
   -6.7170   14.4320    1.8900 N   0  0  0  0  0  0  0  0  0  0  0  0
   -7.7520   15.0780    2.6520 C   0  0  0  0  0  0  0  0  0  0  0  0
   -8.7850   15.4750    2.1160 O   0  0  0  0  0  0  0  0  0  0  0  0
   -5.5860   15.1100    1.5360 C   0  0  0  0  0  0  0  0  0  0  0  0
   -6.7140   14.4460    0.5010 C   0  0  0  0  0  0  0  0  0  0  0  0
   -7.5160   15.2320    4.0260 N   0  0  0  0  0  0  0  0  0  0  0  0
   -4.4290   15.1970    2.1510 N   0  0  0  0  0  0  0  0  0  0  0  0
   -5.5730   15.6370    0.4120 O   0  0  0  0  0  0  0  0  0  0  0  0
   -7.7370   14.7080   -0.3820 C   0  0  0  0  0  0  0  0  0  0  0  0
   -5.4220   14.1940    0.0050 C   0  0  0  0  0  0  0  0  0  0  0  0
   -7.4490   14.7290   -1.7540 C   0  0  0  0  0  0  0  0  0  0  0  0
   -5.1460   14.2210   -1.3430 C   0  0  0  0  0  0  0  0  0  0  0  0
   -8.3110   15.9710    4.9800 C   0  0  0  0  0  0  0  0  0  0  0  0
   -3.2900   15.2120    1.4080 C   0  0  0  0  0  0  0  0  0  0  0  0
   -6.1580   14.4910   -2.2240 C   0  0  0  0  0  0  0  0  0  0  0  0
   -9.0540   17.1150    4.6790 C   0  0  0  0  0  0  0  0  0  0  0  0
   -8.3690   15.5400    6.3140 C   0  0  0  0  0  0  0  0  0  0  0  0
   -2.0990   14.9000    1.7940 N   0  0  0  0  0  0  0  0  0  0  0  0
   -3.4460   15.7060   -0.2280 S   0  0  0  0  0  0  0  0  0  0  0  0
   -9.8100   17.8160    5.5710 N   0  0  0  0  0  0  0  0  0  0  0  0
   -9.1390   16.2440    7.2540 C   0  0  0  0  0  0  0  0  0  0  0  0
   -1.7770   15.4970   -0.4440 C   0  0  0  0  0  0  0  0  0  0  0  0
   -1.2360   15.0650    0.7420 C   0  0  0  0  0  0  0  0  0  0  0  0
    0.1560   14.7580    0.9970 C   0  0  0  0  0  0  0  0  0  0  0  0
   -9.8350   17.3660    6.8360 C   0  0  0  0  0  0  0  0  0  0  0  0
  1  2  1  0
  2  3  2  0
  1  4  1  0
  1  5  1  0
  2  6  1  0
  4  7  1  0
  4  8  2  0
  5  9  2  0
  5 10  1  0
  9 11  1  0
 10 12  2  0
  6 13  1  0
  7 14  1  0
 11 15  2  0
 12 15  1  0
 13 16  2  0
 13 17  1  0
 14 18  2  0
 14 19  1  0
 16 20  1  0
 17 21  2  0
 19 22  1  0
 18 23  1  0
 22 23  2  0
 23 24  1  0
 20 25  2  0
 21 25  1  0
M  END
