x0128_0_A_α-x0950_0_A_α
     RDKit          3D

 26 27  0  0  0  0  0  0  0  0999 V2000
   -6.7570   14.5100    2.4740 N   0  0  0  0  0  0  0  0  0  0  0  0
   -7.8240   15.1800    3.0620 C   0  0  0  0  0  0  0  0  0  0  0  0
   -8.8550   15.4960    2.4810 O   0  0  0  0  0  0  0  0  0  0  0  0
   -6.1350   14.7840    1.2390 C   0  0  0  0  0  0  0  0  0  0  0  0
   -7.5540   15.4480    4.4090 N   0  0  0  0  0  0  0  0  0  0  0  0
   -6.9050   14.7100    0.0750 C   0  0  0  0  0  0  0  0  0  0  0  0
   -4.7850   15.1280    1.1390 C   0  0  0  0  0  0  0  0  0  0  0  0
   -6.3310   14.9800   -1.1700 C   0  0  0  0  0  0  0  0  0  0  0  0
   -4.1990   15.3990   -0.1030 C   0  0  0  0  0  0  0  0  0  0  0  0
   -8.3950   16.1260    5.3270 C   0  0  0  0  0  0  0  0  0  0  0  0
   -2.7400   15.7690   -0.1610 C   0  0  0  0  0  0  0  0  0  0  0  0
   -4.9810   15.3230   -1.2600 C   0  0  0  0  0  0  0  0  0  0  0  0
   -9.0970   17.2580    4.9040 C   0  0  0  0  0  0  0  0  0  0  0  0
   -8.5810   15.7440    6.6530 C   0  0  0  0  0  0  0  0  0  0  0  0
   -1.7750   14.6010    0.0080 C   0  0  0  0  0  0  0  0  0  0  0  0
   -9.9280   17.9940    5.6780 N   0  0  0  0  0  0  0  0  0  0  0  0
   -9.4320   16.4840    7.4790 C   0  0  0  0  0  0  0  0  0  0  0  0
   -0.6660   14.5750   -1.0460 C   0  0  0  0  0  0  0  0  0  0  0  0
  -10.0760   17.5900    6.9510 C   0  0  0  0  0  0  0  0  0  0  0  0
    0.0500   13.2380   -0.9790 C   0  0  0  0  0  0  0  0  0  0  0  0
    1.0590   13.1030   -1.9950 O   0  0  0  0  0  0  0  0  0  0  0  0
    0.8340   12.1750   -2.9790 C   0  0  0  0  0  0  0  0  0  0  0  0
    1.2620   12.7820   -4.3230 C   0  0  1  0  0  0  0  0  0  0  0  0
    0.3790   11.0510   -2.8110 O   0  0  0  0  0  0  0  0  0  0  0  0
    2.7610   12.9980   -4.3370 C   0  0  0  0  0  0  0  0  0  0  0  0
    0.9020   11.9960   -5.4560 O   0  0  0  0  0  0  0  0  0  0  0  0
  1  2  1  0
  2  3  2  0
  1  4  1  0
  2  5  1  0
  4  6  2  0
  4  7  1  0
  6  8  1  0
  7  9  2  0
  5 10  1  0
  9 11  1  0
  8 12  2  0
  9 12  1  0
 10 13  2  0
 10 14  1  0
 11 15  1  0
 13 16  1  0
 14 17  2  0
 15 18  1  0
 16 19  2  0
 17 19  1  0
 18 20  1  0
 20 21  1  0
 21 22  1  0
 22 23  1  0
 22 24  2  0
 23 25  1  1
 23 26  1  0
M  END
