x0128_0_A_α-x0574_0_A_α
     RDKit          3D

 21 23  0  0  0  0  0  0  0  0999 V2000
   -6.3780   15.0450    2.6530 N   0  0  0  0  0  0  0  0  0  0  0  0
   -7.7250   15.2040    2.9360 C   0  0  0  0  0  0  0  0  0  0  0  0
   -8.6100   15.4090    2.1150 O   0  0  0  0  0  0  0  0  0  0  0  0
   -5.7490   14.7300    1.3740 C   0  0  1  0  0  0  0  0  0  0  0  0
   -7.8380   15.0940    4.3060 N   0  0  0  0  0  0  0  0  0  0  0  0
   -6.6780   14.8170    0.2120 C   0  0  0  0  0  0  0  0  0  0  0  0
   -4.4460   15.5190    1.0180 C   0  0  0  0  0  0  0  0  0  0  0  0
   -6.1830   14.7200   -1.0300 C   0  0  0  0  0  0  0  0  0  0  0  0
   -3.7510   14.6900   -0.0680 C   0  0  1  0  0  0  0  0  0  0  0  0
   -8.5390   15.9250    5.2220 C   0  0  0  0  0  0  0  0  0  0  0  0
   -4.6990   14.5120   -1.2960 C   0  0  0  0  0  0  0  0  0  0  0  0
   -9.1560   17.0970    4.7730 C   0  0  0  0  0  0  0  0  0  0  0  0
   -8.6640   15.6480    6.5840 C   0  0  0  0  0  0  0  0  0  0  0  0
   -1.9450   14.8280   -0.5000 S   0  0  0  0  0  0  0  0  0  0  0  0
   -3.4400   13.4520    0.7230 C   0  0  0  0  0  0  0  0  0  0  0  0
   -9.8540   17.9600    5.5550 N   0  0  0  0  0  0  0  0  0  0  0  0
   -9.3760   16.5180    7.4150 C   0  0  0  0  0  0  0  0  0  0  0  0
   -2.5050   13.8850    1.8050 N   0  0  0  0  0  0  0  0  0  0  0  0
   -1.4160   14.5850    1.1850 C   0  0  1  0  0  0  0  0  0  0  0  0
   -0.2190   13.7950    1.3070 N   0  0  0  0  0  0  0  0  0  0  0  0
   -9.9470   17.6500    6.8590 C   0  0  0  0  0  0  0  0  0  0  0  0
  1  2  1  0
  2  3  2  0
  4  1  1  1
  2  5  1  0
  4  6  1  0
  4  7  1  0
  6  8  2  0
  9  7  1  1
  5 10  1  0
  8 11  1  0
  9 11  1  0
 10 12  2  0
 10 13  1  0
  9 14  1  0
  9 15  1  0
 12 16  1  0
 13 17  2  0
 15 18  1  0
 14 19  1  0
 18 19  1  0
 19 20  1  6
 16 21  2  0
 17 21  1  0
M  END
