x0128_1_A_α-x0918_3_A_α
     RDKit          3D

 28 30  0  0  0  0  0  0  0  0999 V2000
   10.5150   -2.4200   -2.3110 N   0  0  0  0  0  0  0  0  0  0  0  0
    9.6630   -2.1340   -1.2660 C   0  0  0  0  0  0  0  0  0  0  0  0
    8.4560   -2.3300   -1.2290 O   0  0  0  0  0  0  0  0  0  0  0  0
   10.3080   -3.3040   -3.3910 C   0  0  0  0  0  0  0  0  0  0  0  0
   10.3670   -1.5900   -0.2050 N   0  0  0  0  0  0  0  0  0  0  0  0
    9.2450   -4.2100   -3.4640 C   0  0  0  0  0  0  0  0  0  0  0  0
   11.2300   -3.2590   -4.4430 C   0  0  0  0  0  0  0  0  0  0  0  0
    9.1110   -5.0540   -4.5740 C   0  0  0  0  0  0  0  0  0  0  0  0
   11.0970   -4.1030   -5.5520 C   0  0  0  0  0  0  0  0  0  0  0  0
   10.0450   -0.2750    0.3390 C   0  0  2  0  0  0  0  0  0  0  0  0
   10.0340   -5.0010   -5.6150 C   0  0  0  0  0  0  0  0  0  0  0  0
   11.1100    0.1770    1.4100 C   0  0  0  0  0  0  0  0  0  0  0  0
    8.6500   -0.3690    0.8900 C   0  0  0  0  0  0  0  0  0  0  0  0
   10.6380    0.6200    2.7580 N   0  0  0  0  0  0  0  0  0  0  0  0
    8.3170    0.3450    1.9590 C   0  0  0  0  0  0  0  0  0  0  0  0
   11.6270    1.5100    3.4270 C   0  0  0  0  0  0  0  0  0  0  0  0
    9.3170    1.2290    2.6160 C   0  0  0  0  0  0  0  0  0  0  0  0
   12.1260    0.9900    4.7960 C   0  0  0  0  0  0  0  0  0  0  0  0
   12.6400    2.1330    5.6970 C   0  0  0  0  0  0  0  0  0  0  0  0
   14.1220    1.9560    6.0990 C   0  0  0  0  0  0  0  0  0  0  0  0
   14.3600    1.5280    7.5670 C   0  0  0  0  0  0  0  0  0  0  0  0
   14.6410    2.6220    8.5960 C   0  0  0  0  0  0  0  0  0  0  0  0
   15.0630    3.8850    8.1830 C   0  0  0  0  0  0  0  0  0  0  0  0
   14.4700    2.3310    9.9110 N   0  0  0  0  0  0  0  0  0  0  0  0
   15.3040    4.8900    9.1260 C   0  0  0  0  0  0  0  0  0  0  0  0
   14.7140    3.3140   10.8070 C   0  0  0  0  0  0  0  0  0  0  0  0
   15.7210    6.1740    8.7400 N   0  0  0  0  0  0  0  0  0  0  0  0
   15.1240    4.5900   10.4660 C   0  0  0  0  0  0  0  0  0  0  0  0
  1  2  1  0
  2  3  2  0
  1  4  1  0
  2  5  1  0
  4  6  2  0
  4  7  1  0
  6  8  1  0
  7  9  2  0
 10  5  1  1
  8 11  2  0
  9 11  1  0
 10 12  1  0
 10 13  1  0
 12 14  1  0
 13 15  2  0
 14 16  1  0
 14 17  1  0
 15 17  1  0
 16 18  1  0
 18 19  1  0
 19 20  1  0
 20 21  1  0
 21 22  1  0
 22 23  2  0
 22 24  1  0
 23 25  1  0
 24 26  2  0
 25 27  1  0
 25 28  2  0
 26 28  1  0
M  END
