x0128_0_A-x0689_0_A
     RDKit          3D

 23 25  0  0  0  0  0  0  0  0999 V2000
   -6.5500   14.6910    2.4070 N   0  0  0  0  0  0  0  0  0  0  0  0
   -7.6940   15.1550    3.0530 C   0  0  0  0  0  0  0  0  0  0  0  0
   -8.7640   15.3500    2.4820 O   0  0  0  0  0  0  0  0  0  0  0  0
   -6.2070   14.8490    1.0380 C   0  0  0  0  0  0  0  0  0  0  0  0
   -7.4830   15.3900    4.4130 N   0  0  0  0  0  0  0  0  0  0  0  0
   -7.1960   14.8150    0.0530 C   0  0  0  0  0  0  0  0  0  0  0  0
   -4.8460   15.0600    0.6360 C   0  0  0  0  0  0  0  0  0  0  0  0
   -6.8710   14.9910   -1.2920 C   0  0  0  0  0  0  0  0  0  0  0  0
   -4.5610   15.2360   -0.7200 C   0  0  0  0  0  0  0  0  0  0  0  0
   -8.3460   16.0760    5.3120 C   0  0  0  0  0  0  0  0  0  0  0  0
   -3.7630   15.0980    1.5320 N   0  0  0  0  0  0  0  0  0  0  0  0
   -5.5570   15.2030   -1.6720 C   0  0  0  0  0  0  0  0  0  0  0  0
   -9.0390   17.2070    4.8700 C   0  0  0  0  0  0  0  0  0  0  0  0
   -8.5600   15.7010    6.6350 C   0  0  0  0  0  0  0  0  0  0  0  0
   -2.4680   14.7860    1.0940 C   0  0  0  0  0  0  0  0  0  0  0  0
   -9.8870   17.9490    5.6250 N   0  0  0  0  0  0  0  0  0  0  0  0
   -9.4280   16.4460    7.4420 C   0  0  0  0  0  0  0  0  0  0  0  0
   -2.2960   14.8020   -0.2400 N   0  0  0  0  0  0  0  0  0  0  0  0
   -1.4890   14.5010    1.9390 N   0  0  0  0  0  0  0  0  0  0  0  0
  -10.0590   17.5490    6.8970 C   0  0  0  0  0  0  0  0  0  0  0  0
   -1.0730   14.5270   -0.7190 C   0  0  0  0  0  0  0  0  0  0  0  0
   -0.2860   14.2340    1.4260 C   0  0  0  0  0  0  0  0  0  0  0  0
   -0.0070   14.2310    0.0830 C   0  0  0  0  0  0  0  0  0  0  0  0
  1  2  1  0
  2  3  2  0
  1  4  1  0
  2  5  1  0
  4  6  2  0
  4  7  1  0
  6  8  1  0
  7  9  2  0
  5 10  1  0
  7 11  1  0
  8 12  2  0
  9 12  1  0
 10 13  2  0
 10 14  1  0
 11 15  1  0
 13 16  1  0
 14 17  2  0
 15 18  2  0
 15 19  1  0
 16 20  2  0
 17 20  1  0
 18 21  1  0
 19 22  2  0
 21 23  2  0
 22 23  1  0
M  END
