x0128_0_A-x0685_1_A
     RDKit          3D

 32 34  0  0  0  0  0  0  0  0999 V2000
   -6.6620   14.5530    2.4600 N   0  0  0  0  0  0  0  0  0  0  0  0
   -7.7570   15.1960    3.0380 C   0  0  0  0  0  0  0  0  0  0  0  0
   -8.7770   15.5090    2.4290 O   0  0  0  0  0  0  0  0  0  0  0  0
   -6.0440   14.7930    1.2100 C   0  0  0  0  0  0  0  0  0  0  0  0
   -7.5340   15.4380    4.3950 N   0  0  0  0  0  0  0  0  0  0  0  0
   -6.8260   14.7880    0.0490 C   0  0  0  0  0  0  0  0  0  0  0  0
   -4.6630   15.0380    1.0880 C   0  0  0  0  0  0  0  0  0  0  0  0
   -6.2420   15.0250   -1.1970 C   0  0  0  0  0  0  0  0  0  0  0  0
   -4.0640   15.2730   -0.1580 C   0  0  0  0  0  0  0  0  0  0  0  0
   -8.3870   16.1140    5.3020 C   0  0  0  0  0  0  0  0  0  0  0  0
   -2.5670   15.5300   -0.2290 C   0  0  0  0  0  0  0  0  0  0  0  0
   -4.8680   15.2670   -1.3040 C   0  0  0  0  0  0  0  0  0  0  0  0
   -9.0760   17.2520    4.8760 C   0  0  0  0  0  0  0  0  0  0  0  0
   -8.5990   15.7260    6.6260 C   0  0  0  0  0  0  0  0  0  0  0  0
   -1.7810   14.5620   -1.1340 C   0  0  0  0  0  0  0  0  0  0  0  0
   -9.9150   17.9890    5.6380 N   0  0  0  0  0  0  0  0  0  0  0  0
   -9.4600   16.4690    7.4370 C   0  0  0  0  0  0  0  0  0  0  0  0
   -0.5800   13.8610   -0.4750 C   0  0  0  0  0  0  0  0  0  0  0  0
  -10.0900   17.5810    6.9070 C   0  0  0  0  0  0  0  0  0  0  0  0
    0.4900   13.6630   -1.4100 O   0  0  0  0  0  0  0  0  0  0  0  0
    0.4820   12.4120   -2.4280 S   0  0  0  0  0  0  0  0  0  0  0  0
   -0.9170   12.7150   -3.4920 C   0  0  0  0  0  0  0  0  0  0  0  0
    1.8230   12.3220   -3.3050 O   0  0  0  0  0  0  0  0  0  0  0  0
    0.2030   11.0190   -1.6800 O   0  0  0  0  0  0  0  0  0  0  0  0
   -0.7270   12.2020   -4.8980 C   0  0  0  0  0  0  0  0  0  0  0  0
   -1.0710   10.7920   -5.0800 N   0  0  0  0  0  0  0  0  0  0  0  0
   -0.6570   10.3680   -6.4150 C   0  0  0  0  0  0  0  0  0  0  0  0
   -0.6050    8.8350   -6.4760 C   0  0  0  0  0  0  0  0  0  0  0  0
   -1.5520   10.9380   -7.5290 C   0  0  0  0  0  0  0  0  0  0  0  0
   -0.0050    8.4210   -7.8100 C   0  0  0  0  0  0  0  0  0  0  0  0
   -1.0530   10.5200   -8.9030 C   0  0  0  0  0  0  0  0  0  0  0  0
   -0.8080    9.0050   -8.9850 C   0  0  0  0  0  0  0  0  0  0  0  0
  1  2  1  0
  2  3  2  0
  1  4  1  0
  2  5  1  0
  4  6  2  0
  4  7  1  0
  6  8  1  0
  7  9  2  0
  5 10  1  0
  9 11  1  0
  8 12  2  0
  9 12  1  0
 10 13  2  0
 10 14  1  0
 11 15  1  0
 13 16  1  0
 14 17  2  0
 15 18  1  0
 16 19  2  0
 17 19  1  0
 18 20  1  0
 21 20  1  0
 21 22  1  0
 21 23  1  0
 21 24  1  0
 22 25  1  0
 25 26  1  0
 26 27  1  0
 27 28  1  0
 27 29  1  0
 28 30  1  0
 29 31  1  0
 30 32  1  0
 31 32  1  0
M  END
