x0128_0_A_α-x0727_0_A_α
     RDKit          3D

 33 35  0  0  0  0  0  0  0  0999 V2000
   -6.8360   14.4310    2.4140 N   0  0  0  0  0  0  0  0  0  0  0  0
   -7.8950   15.1670    2.9210 C   0  0  0  0  0  0  0  0  0  0  0  0
   -8.8390   15.6100    2.2810 O   0  0  0  0  0  0  0  0  0  0  0  0
   -6.0780   14.6380    1.2340 C   0  0  0  0  0  0  0  0  0  0  0  0
   -7.7060   15.3190    4.2860 N   0  0  0  0  0  0  0  0  0  0  0  0
   -6.7380   14.9160    0.0310 C   0  0  0  0  0  0  0  0  0  0  0  0
   -4.6830   14.5680    1.2300 C   0  0  0  0  0  0  0  0  0  0  0  0
   -6.0100   15.1270   -1.1450 C   0  0  0  0  0  0  0  0  0  0  0  0
   -3.9360   14.7660    0.0690 C   0  0  0  0  0  0  0  0  0  0  0  0
   -8.4780   16.0970    5.1870 C   0  0  0  0  0  0  0  0  0  0  0  0
   -2.4250   14.6470    0.1810 C   0  0  0  0  0  0  0  0  0  0  0  0
   -4.6100   15.0530   -1.1290 C   0  0  0  0  0  0  0  0  0  0  0  0
   -9.1330   17.2860    4.8630 C   0  0  0  0  0  0  0  0  0  0  0  0
   -8.6080   15.6580    6.5100 C   0  0  0  0  0  0  0  0  0  0  0  0
   -1.7050   14.2270   -1.1140 C   0  0  0  0  0  0  0  0  0  0  0  0
   -9.8700   18.0190    5.7320 N   0  0  0  0  0  0  0  0  0  0  0  0
   -9.3620   16.3970    7.4250 C   0  0  0  0  0  0  0  0  0  0  0  0
   -0.4190   13.3990   -0.9180 C   0  0  0  0  0  0  0  0  0  0  0  0
   -9.9700   17.5630    6.9910 C   0  0  0  0  0  0  0  0  0  0  0  0
    0.8010   13.8990   -1.6970 C   0  0  0  0  0  0  0  0  0  0  0  0
    1.5170   12.7830   -2.2710 O   0  0  0  0  0  0  0  0  0  0  0  0
    0.8540   12.0210   -3.1890 C   0  0  0  0  0  0  0  0  0  0  0  0
    1.0980   12.5210   -4.6280 C   0  0  1  0  0  0  0  0  0  0  0  0
    0.1600   11.0450   -2.9070 O   0  0  0  0  0  0  0  0  0  0  0  0
    0.1310   11.8570   -5.4860 N   0  0  0  0  0  0  0  0  0  0  0  0
    0.9010   14.0230   -4.7340 C   0  0  0  0  0  0  0  0  0  0  0  0
    0.4910   11.1980   -6.6380 C   0  0  0  0  0  0  0  0  0  0  0  0
    1.5140   11.4030   -7.2630 O   0  0  0  0  0  0  0  0  0  0  0  0
   -0.5790   10.1820   -6.9850 C   0  0  0  0  0  0  0  0  0  0  0  0
   -1.0150   10.1080   -8.4310 C   0  0  0  0  0  0  0  0  0  0  0  0
   -0.2230    8.7290   -6.7140 C   0  0  0  0  0  0  0  0  0  0  0  0
   -1.9660    8.9120   -8.3840 C   0  0  0  0  0  0  0  0  0  0  0  0
   -1.4850    8.0460   -7.2110 C   0  0  0  0  0  0  0  0  0  0  0  0
  1  2  1  0
  2  3  2  0
  1  4  1  0
  2  5  1  0
  4  6  2  0
  4  7  1  0
  6  8  1  0
  7  9  2  0
  5 10  1  0
  9 11  1  0
  8 12  2  0
  9 12  1  0
 10 13  2  0
 10 14  1  0
 11 15  1  0
 13 16  1  0
 14 17  2  0
 15 18  1  0
 16 19  2  0
 17 19  1  0
 18 20  1  0
 20 21  1  0
 21 22  1  0
 22 23  1  0
 22 24  2  0
 23 25  1  0
 23 26  1  1
 25 27  1  0
 27 28  2  0
 27 29  1  0
 29 30  1  0
 29 31  1  0
 30 32  1  0
 31 33  1  0
 32 33  1  0
M  END
