x0128_0_A-x0849_0_A
     RDKit          3D

 25 28  0  0  0  0  0  0  0  0999 V2000
   -6.4560   14.7770    2.4420 N   0  0  0  0  0  0  0  0  0  0  0  0
   -7.6450   15.1420    3.0710 C   0  0  0  0  0  0  0  0  0  0  0  0
   -8.7210   15.2510    2.4870 O   0  0  0  0  0  0  0  0  0  0  0  0
   -6.1410   14.8380    1.0560 C   0  0  0  0  0  0  0  0  0  0  0  0
   -7.4810   15.3920    4.4320 N   0  0  0  0  0  0  0  0  0  0  0  0
   -7.1930   14.9220    0.1400 C   0  0  0  0  0  0  0  0  0  0  0  0
   -4.7780   14.8220    0.5960 C   0  0  0  0  0  0  0  0  0  0  0  0
   -6.9490   15.0050   -1.2120 C   0  0  0  0  0  0  0  0  0  0  0  0
   -4.5720   14.9020   -0.7860 C   0  0  0  0  0  0  0  0  0  0  0  0
   -8.3610   16.1360    5.2650 C   0  0  0  0  0  0  0  0  0  0  0  0
   -3.7180   14.7290    1.4450 N   0  0  0  0  0  0  0  0  0  0  0  0
   -5.6550   14.9980   -1.6650 C   0  0  0  0  0  0  0  0  0  0  0  0
   -9.0900   17.2610    4.8730 C   0  0  0  0  0  0  0  0  0  0  0  0
   -8.5240   15.7220    6.5910 C   0  0  0  0  0  0  0  0  0  0  0  0
   -2.4640   14.6940    0.9730 C   0  0  0  0  0  0  0  0  0  0  0  0
   -3.2710   14.8800   -1.2520 C   0  0  0  0  0  0  0  0  0  0  0  0
   -3.0070   14.9950   -3.1450 Br  0  0  0  0  0  0  0  0  0  0  0  0
   -9.9270   17.9590    5.6850 N   0  0  0  0  0  0  0  0  0  0  0  0
   -9.3780   16.4230    7.4470 C   0  0  0  0  0  0  0  0  0  0  0  0
   -2.1840   14.7690   -0.3920 C   0  0  0  0  0  0  0  0  0  0  0  0
   -1.4860   14.5780    1.8600 N   0  0  0  0  0  0  0  0  0  0  0  0
  -10.0510   17.5270    6.9500 C   0  0  0  0  0  0  0  0  0  0  0  0
   -0.2110   14.5380    1.4320 C   0  0  0  0  0  0  0  0  0  0  0  0
   -0.8380   14.7270   -0.8080 C   0  0  0  0  0  0  0  0  0  0  0  0
    0.1650   14.6120    0.1130 C   0  0  0  0  0  0  0  0  0  0  0  0
  1  2  1  0
  2  3  2  0
  1  4  1  0
  2  5  1  0
  4  6  2  0
  4  7  1  0
  6  8  1  0
  7  9  2  0
  5 10  1  0
  7 11  1  0
  8 12  2  0
  9 12  1  0
 10 13  2  0
 10 14  1  0
 11 15  2  0
  9 16  1  0
 16 17  1  0
 13 18  1  0
 14 19  2  0
 15 20  1  0
 16 20  2  0
 15 21  1  0
 18 22  2  0
 19 22  1  0
 21 23  2  0
 20 24  1  0
 23 25  1  0
 24 25  2  0
M  END
