x0128_0_A_α-x0900_0_A_α
     RDKit          3D

 16 17  0  0  0  0  0  0  0  0999 V2000
   -6.6250   14.7700    2.5060 N   0  0  0  0  0  0  0  0  0  0  0  0
   -7.9270   15.0590    2.7940 C   0  0  0  0  0  0  0  0  0  0  0  0
   -8.8830   14.8860    2.0590 O   0  0  0  0  0  0  0  0  0  0  0  0
   -5.9930   14.8990    1.2530 C   0  0  0  0  0  0  0  0  0  0  0  0
   -8.2150   15.6110    3.9700 N   0  0  0  0  0  0  0  0  0  0  0  0
   -6.7980   14.7500    0.1170 C   0  0  0  0  0  0  0  0  0  0  0  0
   -4.6340   15.1760    1.0930 C   0  0  0  0  0  0  0  0  0  0  0  0
   -6.2530   14.8800   -1.1630 C   0  0  0  0  0  0  0  0  0  0  0  0
   -4.0920   15.3030   -0.1910 C   0  0  0  0  0  0  0  0  0  0  0  0
   -8.7090   16.1980    5.1070 C   0  0  0  0  0  0  0  0  0  0  0  0
   -4.9000   15.1570   -1.3170 C   0  0  0  0  0  0  0  0  0  0  0  0
   -9.3500   17.4210    4.9470 C   0  0  0  0  0  0  0  0  0  0  0  0
   -8.6400   15.6720    6.4000 C   0  0  0  0  0  0  0  0  0  0  0  0
   -9.9120   18.1290    5.9460 N   0  0  0  0  0  0  0  0  0  0  0  0
   -9.2150   16.3880    7.4520 C   0  0  0  0  0  0  0  0  0  0  0  0
   -9.8340   17.5980    7.1770 C   0  0  0  0  0  0  0  0  0  0  0  0
  1  2  1  0
  2  3  2  0
  1  4  1  0
  2  5  1  0
  4  6  2  0
  4  7  1  0
  6  8  1  0
  7  9  2  0
  5 10  1  0
  8 11  2  0
  9 11  1  0
 10 12  2  0
 10 13  1  0
 12 14  1  0
 13 15  2  0
 14 16  2  0
 15 16  1  0
M  END
