x0128_0_A_α-x0926_0_A_α
     RDKit          3D

 16 17  0  0  0  0  0  0  0  0999 V2000
   -6.6170   14.7690    2.5070 N   0  0  0  0  0  0  0  0  0  0  0  0
   -7.9170   15.0630    2.8050 C   0  0  0  0  0  0  0  0  0  0  0  0
   -8.8790   14.8910    2.0730 O   0  0  0  0  0  0  0  0  0  0  0  0
   -5.9880   14.9000    1.2530 C   0  0  0  0  0  0  0  0  0  0  0  0
   -8.1990   15.6170    3.9790 N   0  0  0  0  0  0  0  0  0  0  0  0
   -6.7940   14.7520    0.1160 C   0  0  0  0  0  0  0  0  0  0  0  0
   -4.6290   15.1780    1.0900 C   0  0  0  0  0  0  0  0  0  0  0  0
   -6.2510   14.8840   -1.1640 C   0  0  0  0  0  0  0  0  0  0  0  0
   -4.0880   15.3080   -0.1930 C   0  0  0  0  0  0  0  0  0  0  0  0
   -8.6980   16.2010    5.1160 C   0  0  0  0  0  0  0  0  0  0  0  0
   -4.8960   15.1640   -1.3150 C   0  0  0  0  0  0  0  0  0  0  0  0
   -9.3400   17.4200    4.9510 C   0  0  0  0  0  0  0  0  0  0  0  0
   -8.6320   15.6740    6.4070 C   0  0  0  0  0  0  0  0  0  0  0  0
   -9.9080   18.1300    5.9440 N   0  0  0  0  0  0  0  0  0  0  0  0
   -9.2150   16.3910    7.4590 C   0  0  0  0  0  0  0  0  0  0  0  0
   -9.8370   17.6000    7.1760 C   0  0  0  0  0  0  0  0  0  0  0  0
  1  2  1  0
  2  3  2  0
  1  4  1  0
  2  5  1  0
  4  6  2  0
  4  7  1  0
  6  8  1  0
  7  9  2  0
  5 10  1  0
  8 11  2  0
  9 11  1  0
 10 12  2  0
 10 13  1  0
 12 14  1  0
 13 15  2  0
 14 16  2  0
 15 16  1  0
M  END
