x0128_0_A-x0895_0_A
     RDKit          3D

 22 24  0  0  0  0  0  0  0  0999 V2000
   -6.8880   14.5970    2.3840 N   0  0  0  0  0  0  0  0  0  0  0  0
   -7.9060   15.2360    3.0690 C   0  0  0  0  0  0  0  0  0  0  0  0
   -8.9270   15.5860    2.4890 O   0  0  0  0  0  0  0  0  0  0  0  0
   -7.2670   13.8310    1.2160 C   0  0  0  0  0  0  0  0  0  0  0  0
   -7.6390   15.4230    4.4090 N   0  0  0  0  0  0  0  0  0  0  0  0
   -7.4290   14.8000    0.0700 C   0  0  0  0  0  0  0  0  0  0  0  0
   -6.2930   12.7300    0.8080 C   0  0  0  0  0  0  0  0  0  0  0  0
   -6.4020   15.0380   -0.7400 C   0  0  0  0  0  0  0  0  0  0  0  0
   -5.2840   12.9600   -0.0260 C   0  0  0  0  0  0  0  0  0  0  0  0
   -8.4430   16.1160    5.3380 C   0  0  0  0  0  0  0  0  0  0  0  0
   -5.2020   14.3100   -0.3830 C   0  0  0  0  0  0  0  0  0  0  0  0
   -9.1330   17.2550    4.9140 C   0  0  0  0  0  0  0  0  0  0  0  0
   -8.6100   15.7490    6.6720 C   0  0  0  0  0  0  0  0  0  0  0  0
   -9.9370   18.0110    5.6920 N   0  0  0  0  0  0  0  0  0  0  0  0
   -9.4310   16.5100    7.5010 C   0  0  0  0  0  0  0  0  0  0  0  0
   -4.0450   14.8040   -0.2380 C   0  0  0  0  0  0  0  0  0  0  0  0
  -10.0690   17.6220    6.9740 C   0  0  0  0  0  0  0  0  0  0  0  0
   -3.7680   16.0500   -0.3390 N   0  0  0  0  0  0  0  0  0  0  0  0
   -2.9060   14.1740    0.1300 N   0  0  0  0  0  0  0  0  0  0  0  0
   -3.3630   16.1820    1.0670 C   0  0  0  0  0  0  0  0  0  0  0  0
   -2.4440   14.9410    1.1690 C   0  0  0  0  0  0  0  0  0  0  0  0
   -1.5460   14.6570    1.9430 O   0  0  0  0  0  0  0  0  0  0  0  0
  1  2  1  0
  2  3  2  0
  1  4  1  0
  2  5  1  0
  4  6  1  0
  4  7  1  0
  6  8  2  0
  7  9  2  0
  5 10  1  0
  8 11  1  0
  9 11  1  0
 10 12  2  0
 10 13  1  0
 12 14  1  0
 13 15  2  0
 11 16  2  3
 14 17  2  0
 15 17  1  0
 16 18  1  0
 16 19  1  0
 18 20  1  0
 19 21  1  0
 20 21  1  0
 21 22  2  0
M  END
