x0128_0_A-x0685_1_A
     RDKit          3D

 32 34  0  0  0  0  0  0  0  0999 V2000
   -6.6560   14.5640    2.4620 N   0  0  0  0  0  0  0  0  0  0  0  0
   -7.7580   15.1880    3.0410 C   0  0  0  0  0  0  0  0  0  0  0  0
   -8.7860   15.4820    2.4340 O   0  0  0  0  0  0  0  0  0  0  0  0
   -6.0600   14.7910    1.1940 C   0  0  0  0  0  0  0  0  0  0  0  0
   -7.5340   15.4380    4.3970 N   0  0  0  0  0  0  0  0  0  0  0  0
   -6.8710   14.8130    0.0580 C   0  0  0  0  0  0  0  0  0  0  0  0
   -4.6770   14.9910    1.0440 C   0  0  0  0  0  0  0  0  0  0  0  0
   -6.3100   15.0350   -1.2040 C   0  0  0  0  0  0  0  0  0  0  0  0
   -4.1010   15.2100   -0.2200 C   0  0  0  0  0  0  0  0  0  0  0  0
   -8.3900   16.1210    5.3040 C   0  0  0  0  0  0  0  0  0  0  0  0
   -2.5990   15.4140   -0.3350 C   0  0  0  0  0  0  0  0  0  0  0  0
   -4.9320   15.2340   -1.3400 C   0  0  0  0  0  0  0  0  0  0  0  0
   -9.0780   17.2580    4.8790 C   0  0  0  0  0  0  0  0  0  0  0  0
   -8.5990   15.7330    6.6270 C   0  0  0  0  0  0  0  0  0  0  0  0
   -1.9260   14.6640   -1.5050 C   0  0  0  0  0  0  0  0  0  0  0  0
   -9.9170   17.9950    5.6420 N   0  0  0  0  0  0  0  0  0  0  0  0
   -9.4600   16.4740    7.4430 C   0  0  0  0  0  0  0  0  0  0  0  0
   -1.2530   13.3280   -1.1440 C   0  0  0  0  0  0  0  0  0  0  0  0
  -10.0880   17.5870    6.9120 C   0  0  0  0  0  0  0  0  0  0  0  0
    0.1070   13.2960   -1.5910 O   0  0  0  0  0  0  0  0  0  0  0  0
    0.6160   12.2110   -2.6820 S   0  0  0  0  0  0  0  0  0  0  0  0
   -0.1230   12.6430   -4.2560 C   0  0  0  0  0  0  0  0  0  0  0  0
    2.1950   12.3100   -2.9290 O   0  0  0  0  0  0  0  0  0  0  0  0
    0.1920   10.6830   -2.3580 O   0  0  0  0  0  0  0  0  0  0  0  0
   -1.4750   11.9710   -4.4610 C   0  0  0  0  0  0  0  0  0  0  0  0
   -1.3760   10.5720   -4.9020 N   0  0  0  0  0  0  0  0  0  0  0  0
   -0.7620   10.3900   -6.2250 C   0  0  0  0  0  0  0  0  0  0  0  0
   -0.5890    8.8720   -6.4330 C   0  0  0  0  0  0  0  0  0  0  0  0
   -1.5810   11.0270   -7.3710 C   0  0  0  0  0  0  0  0  0  0  0  0
    0.0740    8.5900   -7.7730 C   0  0  0  0  0  0  0  0  0  0  0  0
   -1.0150   10.6980   -8.7490 C   0  0  0  0  0  0  0  0  0  0  0  0
   -0.7440    9.1970   -8.9180 C   0  0  0  0  0  0  0  0  0  0  0  0
  1  2  1  0
  2  3  2  0
  1  4  1  0
  2  5  1  0
  4  6  2  0
  4  7  1  0
  6  8  1  0
  7  9  2  0
  5 10  1  0
  9 11  1  0
  8 12  2  0
  9 12  1  0
 10 13  2  0
 10 14  1  0
 11 15  1  0
 13 16  1  0
 14 17  2  0
 15 18  1  0
 16 19  2  0
 17 19  1  0
 18 20  1  0
 21 20  1  0
 21 22  1  0
 21 23  1  0
 21 24  1  0
 22 25  1  0
 25 26  1  0
 26 27  1  0
 27 28  1  0
 27 29  1  0
 28 30  1  0
 29 31  1  0
 30 32  1  0
 31 32  1  0
M  END
