x0128_0_A-x0900_0_A
     RDKit          3D

 16 17  0  0  0  0  0  0  0  0999 V2000
   -6.6180   14.7690    2.5060 N   0  0  0  0  0  0  0  0  0  0  0  0
   -7.9150   15.0630    2.8090 C   0  0  0  0  0  0  0  0  0  0  0  0
   -8.8780   14.8940    2.0800 O   0  0  0  0  0  0  0  0  0  0  0  0
   -5.9880   14.9000    1.2540 C   0  0  0  0  0  0  0  0  0  0  0  0
   -8.1940   15.6200    3.9830 N   0  0  0  0  0  0  0  0  0  0  0  0
   -6.7950   14.7530    0.1130 C   0  0  0  0  0  0  0  0  0  0  0  0
   -4.6280   15.1770    1.0880 C   0  0  0  0  0  0  0  0  0  0  0  0
   -6.2510   14.8850   -1.1630 C   0  0  0  0  0  0  0  0  0  0  0  0
   -4.0890   15.3080   -0.1910 C   0  0  0  0  0  0  0  0  0  0  0  0
   -8.6950   16.2020    5.1160 C   0  0  0  0  0  0  0  0  0  0  0  0
   -4.8960   15.1660   -1.3180 C   0  0  0  0  0  0  0  0  0  0  0  0
   -9.3370   17.4210    4.9500 C   0  0  0  0  0  0  0  0  0  0  0  0
   -8.6290   15.6750    6.4070 C   0  0  0  0  0  0  0  0  0  0  0  0
   -9.9080   18.1280    5.9410 N   0  0  0  0  0  0  0  0  0  0  0  0
   -9.2150   16.3900    7.4560 C   0  0  0  0  0  0  0  0  0  0  0  0
   -9.8370   17.6000    7.1740 C   0  0  0  0  0  0  0  0  0  0  0  0
  1  2  1  0
  2  3  2  0
  1  4  1  0
  2  5  1  0
  4  6  2  0
  4  7  1  0
  6  8  1  0
  7  9  2  0
  5 10  1  0
  8 11  2  0
  9 11  1  0
 10 12  2  0
 10 13  1  0
 12 14  1  0
 13 15  2  0
 14 16  2  0
 15 16  1  0
M  END
