x0128_0_A-x0591_0_A
     RDKit          3D

 29 31  0  0  0  0  0  0  0  0999 V2000
   -6.5840   14.3900    1.9790 N   0  0  0  0  0  0  0  0  0  0  0  0
   -7.6650   15.0470    2.7200 C   0  0  0  0  0  0  0  0  0  0  0  0
   -8.6910   15.4060    2.1360 O   0  0  0  0  0  0  0  0  0  0  0  0
   -6.9690   13.4470    0.9850 N   0  0  0  0  0  0  0  0  0  0  0  0
   -5.6810   14.8990    1.0670 C   0  0  0  0  0  0  0  0  0  0  0  0
   -7.4970   15.2520    4.1040 N   0  0  0  0  0  0  0  0  0  0  0  0
   -6.9560   13.8400   -0.4040 C   0  0  0  0  0  0  0  0  0  0  0  0
   -6.2670   15.2910   -0.1370 C   0  0  0  0  0  0  0  0  0  0  0  0
   -4.3150   15.0010    1.2370 C   0  0  0  0  0  0  0  0  0  0  0  0
   -8.0500   14.1100   -0.8890 O   0  0  0  0  0  0  0  0  0  0  0  0
   -5.5150   15.7740   -1.1690 C   0  0  0  0  0  0  0  0  0  0  0  0
   -3.5510   15.4830    0.1930 C   0  0  0  0  0  0  0  0  0  0  0  0
   -8.3150   15.9690    5.0530 C   0  0  0  0  0  0  0  0  0  0  0  0
   -5.7680   13.9710   -1.3960 C   0  0  0  0  0  0  0  0  0  0  0  0
   -4.1510   15.8640   -1.0070 C   0  0  0  0  0  0  0  0  0  0  0  0
   -9.0290   17.1130    4.6660 C   0  0  0  0  0  0  0  0  0  0  0  0
   -8.4610   15.6010    6.3950 C   0  0  0  0  0  0  0  0  0  0  0  0
   -4.4260   13.5780   -1.1300 C   0  0  0  0  0  0  0  0  0  0  0  0
   -6.0370   14.5220   -2.6720 C   0  0  0  0  0  0  0  0  0  0  0  0
   -9.8230   17.8600    5.4800 N   0  0  0  0  0  0  0  0  0  0  0  0
   -9.2720   16.3490    7.2590 C   0  0  0  0  0  0  0  0  0  0  0  0
   -3.4080   13.7350   -2.1250 C   0  0  0  0  0  0  0  0  0  0  0  0
   -5.0340   14.6690   -3.6470 C   0  0  0  0  0  0  0  0  0  0  0  0
   -9.9270   17.4630    6.7590 C   0  0  0  0  0  0  0  0  0  0  0  0
   -3.7260   14.2820   -3.3920 C   0  0  0  0  0  0  0  0  0  0  0  0
   -2.5140   14.4800   -4.7050 S   0  0  0  0  0  0  0  0  0  0  0  0
   -1.3010   15.4620   -4.0750 N   0  0  0  0  0  0  0  0  0  0  0  0
   -1.8710   13.2030   -4.9110 O   0  0  0  0  0  0  0  0  0  0  0  0
   -3.1310   15.1980   -5.7980 O   0  0  0  0  0  0  0  0  0  0  0  0
  1  2  1  0
  2  3  2  0
  1  4  1  0
  1  5  1  0
  2  6  1  0
  4  7  1  0
  5  8  2  0
  5  9  1  0
  7 10  2  0
  8 11  1  0
  9 12  2  0
  6 13  1  0
  7 14  1  0
 11 15  2  0
 12 15  1  0
 13 16  2  0
 13 17  1  0
 14 18  2  0
 14 19  1  0
 16 20  1  0
 17 21  2  0
 18 22  1  0
 19 23  2  0
 20 24  2  0
 21 24  1  0
 22 25  2  0
 23 25  1  0
 25 26  1  0
 26 27  1  0
 26 28  2  0
 26 29  2  0
M  END
