x0128_0_A-x0290_0_A
     RDKit          3D

 27 29  0  0  0  0  0  0  0  0999 V2000
   -6.1350   14.8330    1.9680 N   0  0  0  0  0  0  0  0  0  0  0  0
   -7.3800   14.8590    2.7720 C   0  0  0  0  0  0  0  0  0  0  0  0
   -8.5500   14.4600    2.3380 N   0  0  0  0  0  0  0  0  0  0  0  0
   -5.1830   13.8010    1.8750 C   0  0  0  0  0  0  0  0  0  0  0  0
   -6.0280   15.0470    0.5970 C   0  0  0  0  0  0  0  0  0  0  0  0
   -7.3240   15.3470    4.1040 N   0  0  0  0  0  0  0  0  0  0  0  0
   -5.5220   12.6670    1.5630 O   0  0  0  0  0  0  0  0  0  0  0  0
   -3.8560   14.1760    2.0280 N   0  0  0  0  0  0  0  0  0  0  0  0
   -7.0050   14.7760   -0.3460 C   0  0  0  0  0  0  0  0  0  0  0  0
   -4.7860   15.5420    0.2080 C   0  0  0  0  0  0  0  0  0  0  0  0
   -8.6660   13.9640    1.0980 N   0  0  0  0  0  0  0  0  0  0  0  0
   -6.7210   14.9890   -1.6850 C   0  0  0  0  0  0  0  0  0  0  0  0
   -4.5080   15.7480   -1.1170 C   0  0  0  0  0  0  0  0  0  0  0  0
   -8.2430   16.0520    4.9590 C   0  0  0  0  0  0  0  0  0  0  0  0
   -2.7560   14.3120    1.1510 C   0  0  0  0  0  0  0  0  0  0  0  0
   -5.4720   15.4650   -2.0580 C   0  0  0  0  0  0  0  0  0  0  0  0
   -9.0670   17.1310    4.6130 C   0  0  0  0  0  0  0  0  0  0  0  0
   -8.3550   15.6510    6.3070 C   0  0  0  0  0  0  0  0  0  0  0  0
   -1.6110   14.4600    1.8430 N   0  0  0  0  0  0  0  0  0  0  0  0
   -2.7600   14.3090   -0.2450 C   0  0  0  0  0  0  0  0  0  0  0  0
   -9.9230   17.7830    5.4530 N   0  0  0  0  0  0  0  0  0  0  0  0
   -9.2240   16.3010    7.1940 C   0  0  0  0  0  0  0  0  0  0  0  0
   -0.4590   14.6080    1.1670 C   0  0  0  0  0  0  0  0  0  0  0  0
   -1.5450   14.4690   -0.9360 C   0  0  0  0  0  0  0  0  0  0  0  0
   -1.5120   14.4760   -2.4380 C   0  0  0  0  0  0  0  0  0  0  0  0
   -9.9800   17.3560    6.7240 C   0  0  0  0  0  0  0  0  0  0  0  0
   -0.3710   14.6210   -0.2070 C   0  0  0  0  0  0  0  0  0  0  0  0
  1  2  1  0
  2  3  2  3
  1  4  1  0
  1  5  1  0
  2  6  1  0
  4  7  2  0
  4  8  1  0
  5  9  2  0
  5 10  1  0
  3 11  1  0
  9 12  1  0
 10 13  2  0
  6 14  1  0
  8 15  1  0
 12 16  2  0
 13 16  1  0
 14 17  2  0
 14 18  1  0
 15 19  2  0
 15 20  1  0
 17 21  1  0
 18 22  2  0
 19 23  1  0
 20 24  2  0
 24 25  1  0
 21 26  2  0
 22 26  1  0
 23 27  2  0
 24 27  1  0
M  END
