x0128_0_A_α-x0950_1_A_α
     RDKit          3D

 26 27  0  0  0  0  0  0  0  0999 V2000
   -6.6210   14.6720    2.4590 N   0  0  0  0  0  0  0  0  0  0  0  0
   -7.8040   15.1930    2.9930 C   0  0  0  0  0  0  0  0  0  0  0  0
   -8.8120   15.4650    2.3510 O   0  0  0  0  0  0  0  0  0  0  0  0
   -6.0750   14.7520    1.1520 C   0  0  0  0  0  0  0  0  0  0  0  0
   -7.6570   15.3640    4.3680 N   0  0  0  0  0  0  0  0  0  0  0  0
   -6.9720   14.9200    0.0890 C   0  0  0  0  0  0  0  0  0  0  0  0
   -4.6940   14.6690    0.8650 C   0  0  0  0  0  0  0  0  0  0  0  0
   -6.5150   15.0160   -1.2210 C   0  0  0  0  0  0  0  0  0  0  0  0
   -4.2270   14.7540   -0.4660 C   0  0  0  0  0  0  0  0  0  0  0  0
   -8.4710   16.0920    5.2790 C   0  0  0  0  0  0  0  0  0  0  0  0
   -2.7620   14.6480   -0.8520 C   0  0  0  0  0  0  0  0  0  0  0  0
   -5.1540   14.9340   -1.4940 C   0  0  0  0  0  0  0  0  0  0  0  0
   -9.1420   17.2370    4.8450 C   0  0  0  0  0  0  0  0  0  0  0  0
   -8.6520   15.7380    6.6130 C   0  0  0  0  0  0  0  0  0  0  0  0
   -1.7390   14.4550    0.2790 C   0  0  0  0  0  0  0  0  0  0  0  0
   -9.9410   18.0090    5.6180 N   0  0  0  0  0  0  0  0  0  0  0  0
   -9.4690   16.5150    7.4390 C   0  0  0  0  0  0  0  0  0  0  0  0
   -0.5230   13.6250   -0.1830 C   0  0  0  0  0  0  0  0  0  0  0  0
  -10.0860   17.6310    6.9010 C   0  0  0  0  0  0  0  0  0  0  0  0
    0.1170   14.0970   -1.4970 C   0  0  0  0  0  0  0  0  0  0  0  0
    1.1540   13.1870   -1.9500 O   0  0  0  0  0  0  0  0  0  0  0  0
    0.8210   12.2320   -2.8720 C   0  0  0  0  0  0  0  0  0  0  0  0
    1.3450   12.5740   -4.2770 C   0  0  2  0  0  0  0  0  0  0  0  0
    0.1890   11.2050   -2.6310 O   0  0  0  0  0  0  0  0  0  0  0  0
    1.1200   14.0330   -4.6370 C   0  0  0  0  0  0  0  0  0  0  0  0
    0.7040   11.7700   -5.2730 O   0  0  0  0  0  0  0  0  0  0  0  0
  1  2  1  0
  2  3  2  0
  1  4  1  0
  2  5  1  0
  4  6  2  0
  4  7  1  0
  6  8  1  0
  7  9  2  0
  5 10  1  0
  9 11  1  0
  8 12  2  0
  9 12  1  0
 10 13  2  0
 10 14  1  0
 11 15  1  0
 13 16  1  0
 14 17  2  0
 15 18  1  0
 16 19  2  0
 17 19  1  0
 18 20  1  0
 20 21  1  0
 21 22  1  0
 22 23  1  0
 22 24  2  0
 23 25  1  6
 23 26  1  0
M  END
