x0128_0_A_α-x0969_0_A_α
     RDKit          3D

 19 21  0  0  0  0  0  0  0  0999 V2000
   -6.9950   14.1860    2.4110 N   0  0  0  0  0  0  0  0  0  0  0  0
   -7.9410   15.0430    2.9630 C   0  0  0  0  0  0  0  0  0  0  0  0
   -8.8680   15.5080    2.3130 O   0  0  0  0  0  0  0  0  0  0  0  0
   -6.2360   14.6780    1.2510 C   0  0  2  0  0  0  0  0  0  0  0  0
   -7.6620   15.2710    4.2940 N   0  0  0  0  0  0  0  0  0  0  0  0
   -7.2200   14.9980    0.1340 C   0  0  0  0  0  0  0  0  0  0  0  0
   -5.4780   13.8120    0.1690 C   0  0  1  0  0  0  0  0  0  0  0  0
   -6.5540   14.3340   -0.8020 C   0  0  0  0  0  0  0  0  0  0  0  0
   -4.0630   14.0470   -0.3700 C   0  0  2  0  0  0  0  0  0  0  0  0
   -8.4330   16.0080    5.2410 C   0  0  0  0  0  0  0  0  0  0  0  0
   -5.6020   12.3210    0.0530 C   0  0  0  0  0  0  0  0  0  0  0  0
   -3.8720   15.4400   -0.9180 C   0  0  0  0  0  0  0  0  0  0  0  0
   -9.1080   17.1620    4.8270 C   0  0  0  0  0  0  0  0  0  0  0  0
   -8.5740   15.6640    6.5840 C   0  0  0  0  0  0  0  0  0  0  0  0
   -4.0880   13.0530   -1.4560 N   0  0  0  0  0  0  0  0  0  0  0  0
   -4.7690   11.9680   -0.9460 C   0  0  0  0  0  0  0  0  0  0  0  0
   -9.8730   17.9500    5.6210 N   0  0  0  0  0  0  0  0  0  0  0  0
   -9.3560   16.4570    7.4320 C   0  0  0  0  0  0  0  0  0  0  0  0
   -9.9800   17.5790    6.9100 C   0  0  0  0  0  0  0  0  0  0  0  0
  1  2  1  0
  2  3  2  0
  4  1  1  1
  2  5  1  0
  4  6  1  0
  4  7  1  0
  6  8  2  0
  7  8  1  6
  7  9  1  0
  5 10  1  0
  7 11  1  0
  9 12  1  6
 10 13  2  0
 10 14  1  0
  9 15  1  0
 11 16  2  0
 15 16  1  0
 13 17  1  0
 14 18  2  0
 17 19  2  0
 18 19  1  0
M  END
