x0128_0_A-x0104_0_A
     RDKit          3D

 23 25  0  0  0  0  0  0  0  0999 V2000
   -6.8030   14.7170    2.6850 N   0  0  0  0  0  0  0  0  0  0  0  0
   -8.0160   15.2200    3.1980 C   0  0  0  0  0  0  0  0  0  0  0  0
   -8.8930   15.6610    2.4580 O   0  0  0  0  0  0  0  0  0  0  0  0
   -6.2930   14.8320    1.3610 C   0  0  0  0  0  0  0  0  0  0  0  0
   -8.1770   15.1970    4.6330 N   0  0  0  0  0  0  0  0  0  0  0  0
   -7.0700   14.6450    0.2200 C   0  0  0  0  0  0  0  0  0  0  0  0
   -4.9340   15.1640    1.2000 C   0  0  0  0  0  0  0  0  0  0  0  0
   -6.5130   14.7880   -1.0590 C   0  0  0  0  0  0  0  0  0  0  0  0
   -4.3800   15.3050   -0.0830 C   0  0  0  0  0  0  0  0  0  0  0  0
   -8.7460   16.2820    5.3400 C   0  0  0  0  0  0  0  0  0  0  0  0
   -9.2580   14.5460    5.2080 C   0  0  0  0  0  0  0  0  0  0  0  0
   -5.1730   15.1180   -1.2200 C   0  0  0  0  0  0  0  0  0  0  0  0
   -9.2880   17.4310    4.7910 C   0  0  0  0  0  0  0  0  0  0  0  0
   -8.8240   16.1540    6.7340 C   0  0  0  0  0  0  0  0  0  0  0  0
   -9.3450   13.9420    6.4440 C   0  0  0  0  0  0  0  0  0  0  0  0
  -10.7500   14.5110    4.3710 S   0  0  0  0  0  0  0  0  0  0  0  0
   -4.5450   15.2800   -2.4210 O   0  0  0  0  0  0  0  0  0  0  0  0
   -9.8900   18.3990    5.5240 N   0  0  0  0  0  0  0  0  0  0  0  0
   -9.4310   17.1200    7.5060 C   0  0  0  0  0  0  0  0  0  0  0  0
  -11.5200   13.7090    5.6690 C   0  0  0  0  0  0  0  0  0  0  0  0
  -10.6550   13.4630    6.7110 C   0  0  0  0  0  0  0  0  0  0  0  0
   -3.2060   14.8360   -2.5400 C   0  0  0  0  0  0  0  0  0  0  0  0
   -9.9510   18.2150    6.8600 C   0  0  0  0  0  0  0  0  0  0  0  0
  1  2  1  0
  2  3  2  0
  1  4  1  0
  2  5  1  0
  4  6  2  0
  4  7  1  0
  6  8  1  0
  7  9  2  0
  5 10  1  0
  5 11  1  0
  8 12  2  0
  9 12  1  0
 10 13  2  0
 10 14  1  0
 11 15  2  0
 11 16  1  0
 12 17  1  0
 13 18  1  0
 14 19  2  0
 16 20  1  0
 15 21  1  0
 20 21  2  0
 17 22  1  0
 18 23  2  0
 19 23  1  0
M  END
