x0128_0_A-x1015_0_A
     RDKit          3D

 34 37  0  0  0  0  0  0  0  0999 V2000
   -6.6100   14.7790    2.5690 N   0  0  0  0  0  0  0  0  0  0  0  0
   -7.8330   15.2130    3.0530 C   0  0  0  0  0  0  0  0  0  0  0  0
   -8.8140   15.5210    2.3860 O   0  0  0  0  0  0  0  0  0  0  0  0
   -6.1420   14.7820    1.2470 C   0  0  0  0  0  0  0  0  0  0  0  0
   -7.7440   15.2390    4.4280 N   0  0  0  0  0  0  0  0  0  0  0  0
   -6.9680   14.5560    0.1650 C   0  0  0  0  0  0  0  0  0  0  0  0
   -4.7710   15.0310    1.0270 C   0  0  0  0  0  0  0  0  0  0  0  0
   -6.4590   14.5660   -1.1260 C   0  0  0  0  0  0  0  0  0  0  0  0
   -4.2560   15.0410   -0.2760 C   0  0  0  0  0  0  0  0  0  0  0  0
   -8.4960   16.0150    5.3430 C   0  0  0  0  0  0  0  0  0  0  0  0
   -5.1080   14.8030   -1.3620 C   0  0  0  0  0  0  0  0  0  0  0  0
   -9.1340   17.1750    4.8860 C   0  0  0  0  0  0  0  0  0  0  0  0
   -8.6570   15.7110    6.6900 C   0  0  0  0  0  0  0  0  0  0  0  0
   -4.6470   14.7770   -2.7920 C   0  0  0  0  0  0  0  0  0  0  0  0
   -9.8860   18.0030    5.6490 N   0  0  0  0  0  0  0  0  0  0  0  0
   -9.4240   16.5440    7.5070 C   0  0  0  0  0  0  0  0  0  0  0  0
   -3.1950   15.1810   -3.0000 C   0  0  0  0  0  0  0  0  0  0  0  0
  -10.0140   17.6670    6.9470 C   0  0  0  0  0  0  0  0  0  0  0  0
   -2.4620   14.0710   -3.7540 C   0  0  0  0  0  0  0  0  0  0  0  0
   -1.1300   14.5250   -4.3580 C   0  0  0  0  0  0  0  0  0  0  0  0
    0.0960   13.6820   -3.9620 C   0  0  2  0  0  0  0  0  0  0  0  0
   -0.0940   12.2370   -3.9120 N   0  0  0  0  0  0  0  0  0  0  0  0
    0.4630   13.9550   -2.5080 C   0  0  0  0  0  0  0  0  0  0  0  0
    0.5650   15.0500   -1.9770 O   0  0  0  0  0  0  0  0  0  0  0  0
    0.2840   11.7230   -2.6610 C   0  0  0  0  0  0  0  0  0  0  0  0
    0.6660   12.7740   -1.8830 N   0  0  0  0  0  0  0  0  0  0  0  0
   -0.4840   11.4530   -5.0300 C   0  0  0  0  0  0  0  0  0  0  0  0
    0.2950   10.5510   -2.2680 O   0  0  0  0  0  0  0  0  0  0  0  0
    0.0770   11.6460   -6.2980 C   0  0  0  0  0  0  0  0  0  0  0  0
   -1.4520   10.4480   -4.8870 C   0  0  0  0  0  0  0  0  0  0  0  0
   -0.3140   10.8620   -7.3890 C   0  0  0  0  0  0  0  0  0  0  0  0
   -1.8460    9.6610   -5.9740 C   0  0  0  0  0  0  0  0  0  0  0  0
   -1.2730    9.8730   -7.2210 C   0  0  0  0  0  0  0  0  0  0  0  0
   -1.7630    8.9050   -8.5500 Cl  0  0  0  0  0  0  0  0  0  0  0  0
  1  2  1  0
  2  3  2  0
  1  4  1  0
  2  5  1  0
  4  6  2  0
  4  7  1  0
  6  8  1  0
  7  9  2  0
  5 10  1  0
  8 11  2  0
  9 11  1  0
 10 12  2  0
 10 13  1  0
 11 14  1  0
 12 15  1  0
 13 16  2  0
 14 17  1  0
 15 18  2  0
 16 18  1  0
 17 19  1  0
 19 20  1  0
 21 20  1  1
 21 22  1  0
 21 23  1  0
 23 24  2  0
 22 25  1  0
 23 26  1  0
 25 26  1  0
 22 27  1  0
 25 28  2  0
 27 29  2  0
 27 30  1  0
 29 31  1  0
 30 32  2  0
 31 33  2  0
 32 33  1  0
 33 34  1  0
M  END
