x0128_0_A-x0711_0_A
     RDKit          3D

 22 23  0  0  0  0  0  0  0  0999 V2000
   -6.3250   14.7960    2.2490 N   0  0  0  0  0  0  0  0  0  0  0  0
   -7.5980   15.1450    2.7690 C   0  0  0  0  0  0  0  0  0  0  0  0
   -8.6130   15.3170    2.1050 O   0  0  0  0  0  0  0  0  0  0  0  0
   -5.7310   14.8400    0.9170 C   0  0  0  0  0  0  0  0  0  0  0  0
   -7.5550   15.2830    4.1730 N   0  0  0  0  0  0  0  0  0  0  0  0
   -6.6120   14.8400   -0.1750 C   0  0  0  0  0  0  0  0  0  0  0  0
   -4.3240   14.8830    0.6190 C   0  0  0  0  0  0  0  0  0  0  0  0
   -6.1510   14.8870   -1.4900 C   0  0  0  0  0  0  0  0  0  0  0  0
   -3.8350   14.9270   -0.7410 C   0  0  0  0  0  0  0  0  0  0  0  0
   -8.3940   16.0560    5.0410 C   0  0  0  0  0  0  0  0  0  0  0  0
   -7.9610   14.7950    0.0550 O   0  0  0  0  0  0  0  0  0  0  0  0
   -2.3770   14.9800   -1.0610 N   0  0  0  0  0  0  0  0  0  0  0  0
   -4.7780   14.9310   -1.7700 C   0  0  0  0  0  0  0  0  0  0  0  0
   -9.1250   17.1950    4.6980 C   0  0  0  0  0  0  0  0  0  0  0  0
   -8.5010   15.6430    6.3790 C   0  0  0  0  0  0  0  0  0  0  0  0
   -1.4280   14.1460   -2.2710 S   0  0  0  0  0  0  0  0  0  0  0  0
   -9.9070   17.9040    5.5580 N   0  0  0  0  0  0  0  0  0  0  0  0
   -9.2980   16.3550    7.2810 C   0  0  0  0  0  0  0  0  0  0  0  0
   -2.5640   13.2670   -3.3180 C   0  0  0  0  0  0  0  0  0  0  0  0
   -0.7970   15.1490   -3.1210 O   0  0  0  0  0  0  0  0  0  0  0  0
   -0.5570   13.1860   -1.6250 O   0  0  0  0  0  0  0  0  0  0  0  0
   -9.9760   17.4710    6.8280 C   0  0  0  0  0  0  0  0  0  0  0  0
  1  2  1  0
  2  3  2  0
  1  4  1  0
  2  5  1  0
  4  6  2  0
  4  7  1  0
  6  8  1  0
  7  9  2  0
  5 10  1  0
  6 11  1  0
  9 12  1  0
  8 13  2  0
  9 13  1  0
 10 14  2  0
 10 15  1  0
 16 12  1  0
 14 17  1  0
 15 18  2  0
 16 19  1  0
 16 20  2  0
 16 21  2  0
 17 22  2  0
 18 22  1  0
M  END
