x0128_0_A-x0969_0_A
     RDKit          3D

 19 21  0  0  0  0  0  0  0  0999 V2000
   -6.9110   14.0950    2.5500 N   0  0  0  0  0  0  0  0  0  0  0  0
   -7.9090   14.9090    3.0740 C   0  0  0  0  0  0  0  0  0  0  0  0
   -8.8560   15.3040    2.4050 O   0  0  0  0  0  0  0  0  0  0  0  0
   -6.2120   14.6910    1.4280 C   0  0  2  0  0  0  0  0  0  0  0  0
   -7.6540   15.1950    4.3900 N   0  0  0  0  0  0  0  0  0  0  0  0
   -6.9300   14.2560    0.1680 C   0  0  0  0  0  0  0  0  0  0  0  0
   -4.8870   14.3400    0.7160 C   0  0  1  0  0  0  0  0  0  0  0  0
   -5.7970   13.8560   -0.4400 C   0  0  0  0  0  0  0  0  0  0  0  0
   -3.9350   15.4390    0.1890 C   0  0  2  0  0  0  0  0  0  0  0  0
   -8.4300   15.9690    5.2990 C   0  0  0  0  0  0  0  0  0  0  0  0
   -3.9620   13.3810    1.4050 C   0  0  0  0  0  0  0  0  0  0  0  0
   -3.6650   15.3000   -1.2840 C   0  0  0  0  0  0  0  0  0  0  0  0
   -9.0790   17.1220    4.8380 C   0  0  0  0  0  0  0  0  0  0  0  0
   -8.6000   15.6610    6.6430 C   0  0  0  0  0  0  0  0  0  0  0  0
   -2.6910   15.2010    0.9140 N   0  0  0  0  0  0  0  0  0  0  0  0
   -2.7430   13.9720    1.4780 C   0  0  0  0  0  0  0  0  0  0  0  0
   -9.8490   17.9390    5.6000 N   0  0  0  0  0  0  0  0  0  0  0  0
   -9.3880   16.4860    7.4560 C   0  0  0  0  0  0  0  0  0  0  0  0
   -9.9840   17.6020    6.8930 C   0  0  0  0  0  0  0  0  0  0  0  0
  1  2  1  0
  2  3  2  0
  4  1  1  1
  2  5  1  0
  4  6  1  0
  4  7  1  0
  6  8  2  0
  7  8  1  6
  7  9  1  0
  5 10  1  0
  7 11  1  0
  9 12  1  6
 10 13  2  0
 10 14  1  0
  9 15  1  0
 11 16  2  0
 15 16  1  0
 13 17  1  0
 14 18  2  0
 17 19  2  0
 18 19  1  0
M  END
