x0128_0_A_α-x0962_3_A_α
     RDKit          3D

 30 32  0  0  0  0  0  0  0  0999 V2000
   -6.6730   14.7190    2.4990 N   0  0  0  0  0  0  0  0  0  0  0  0
   -7.8640   15.2220    3.0080 C   0  0  0  0  0  0  0  0  0  0  0  0
   -8.8220   15.5950    2.3310 O   0  0  0  0  0  0  0  0  0  0  0  0
   -6.1310   14.8130    1.2030 C   0  0  0  0  0  0  0  0  0  0  0  0
   -7.8060   15.2410    4.3970 N   0  0  0  0  0  0  0  0  0  0  0  0
   -6.8530   14.6560    0.0190 C   0  0  0  0  0  0  0  0  0  0  0  0
   -4.7570   15.0870    1.1210 C   0  0  0  0  0  0  0  0  0  0  0  0
   -6.2130   14.7660   -1.2190 C   0  0  0  0  0  0  0  0  0  0  0  0
   -4.1160   15.1970   -0.1130 C   0  0  0  0  0  0  0  0  0  0  0  0
   -8.5560   16.0390    5.2940 C   0  0  0  0  0  0  0  0  0  0  0  0
   -4.8360   15.0340   -1.3000 C   0  0  0  0  0  0  0  0  0  0  0  0
   -9.1840   17.1990    4.8270 C   0  0  0  0  0  0  0  0  0  0  0  0
   -8.7150   15.7400    6.6440 C   0  0  0  0  0  0  0  0  0  0  0  0
   -4.1510   15.1380   -2.6430 C   0  0  0  0  0  0  0  0  0  0  0  0
   -9.9270   18.0350    5.5920 N   0  0  0  0  0  0  0  0  0  0  0  0
   -9.4750   16.5820    7.4590 C   0  0  0  0  0  0  0  0  0  0  0  0
   -2.7790   14.4440   -2.6970 C   0  0  0  0  0  0  0  0  0  0  0  0
  -10.0550   17.7080    6.8910 C   0  0  0  0  0  0  0  0  0  0  0  0
   -2.0290   14.7400   -4.0060 C   0  0  0  0  0  0  0  0  0  0  0  0
   -0.7910   13.8650   -4.3010 C   0  0  0  0  0  0  0  0  0  0  0  0
   -1.0440   12.5110   -4.9840 C   0  0  0  0  0  0  0  0  0  0  0  0
    0.2100   11.6760   -5.2870 C   0  0  0  0  0  0  0  0  0  0  0  0
    0.8490   12.0200   -6.6400 C   0  0  0  0  0  0  0  0  0  0  0  0
    0.9940   10.8280   -7.6190 C   0  0  2  0  0  0  0  0  0  0  0  0
    0.9930   11.2710   -8.9960 N   0  0  0  0  0  0  0  0  0  0  0  0
   -0.0540    9.8050   -7.5370 C   0  0  0  0  0  0  0  0  0  0  0  0
    0.0810    8.5730   -8.1500 N   0  0  0  0  0  0  0  0  0  0  0  0
   -1.2850    9.7840   -6.9240 C   0  0  0  0  0  0  0  0  0  0  0  0
   -1.0610    7.8720   -7.8820 C   0  0  0  0  0  0  0  0  0  0  0  0
   -1.9030    8.5860   -7.1430 N   0  0  0  0  0  0  0  0  0  0  0  0
  1  2  1  0
  2  3  2  0
  1  4  1  0
  2  5  1  0
  4  6  2  0
  4  7  1  0
  6  8  1  0
  7  9  2  0
  5 10  1  0
  8 11  2  0
  9 11  1  0
 10 12  2  0
 10 13  1  0
 11 14  1  0
 12 15  1  0
 13 16  2  0
 14 17  1  0
 15 18  2  0
 16 18  1  0
 17 19  1  0
 19 20  1  0
 20 21  1  0
 21 22  1  0
 22 23  1  0
 23 24  1  0
 24 25  1  6
 24 26  1  0
 26 27  1  0
 26 28  2  0
 27 29  1  0
 28 30  1  0
 29 30  2  0
M  END
