x0128_0_A-x0967_0_A
     RDKit          3D

 20 22  0  0  0  0  0  0  0  0999 V2000
   -6.9460   14.3910    2.4900 N   0  0  0  0  0  0  0  0  0  0  0  0
   -7.9430   15.1810    3.0050 C   0  0  0  0  0  0  0  0  0  0  0  0
   -8.8750   15.6600    2.3710 O   0  0  0  0  0  0  0  0  0  0  0  0
   -6.3920   14.4440    1.2530 C   0  0  0  0  0  0  0  0  0  0  0  0
   -7.7130   15.3420    4.3500 N   0  0  0  0  0  0  0  0  0  0  0  0
   -7.1620   14.0300    0.0970 C   0  0  0  0  0  0  0  0  0  0  0  0
   -5.1830   14.8200    0.8350 C   0  0  0  0  0  0  0  0  0  0  0  0
   -6.4250   14.1410   -1.0220 C   0  0  0  0  0  0  0  0  0  0  0  0
   -5.0760   14.6900   -0.6630 C   0  0  1  0  0  0  0  0  0  0  0  0
   -4.0200   15.3060    1.5090 C   0  0  0  0  0  0  0  0  0  0  0  0
   -8.4890   16.1090    5.2440 C   0  0  0  0  0  0  0  0  0  0  0  0
   -4.9740   16.0330   -1.2700 C   0  0  0  0  0  0  0  0  0  0  0  0
   -9.1850   17.2620    4.8820 C   0  0  0  0  0  0  0  0  0  0  0  0
   -8.5860   15.7050    6.5760 C   0  0  0  0  0  0  0  0  0  0  0  0
   -3.8060   13.9960   -1.0460 C   0  0  0  0  0  0  0  0  0  0  0  0
   -2.8350   14.9790    0.9660 C   0  0  0  0  0  0  0  0  0  0  0  0
   -9.9400   18.0010    5.7310 N   0  0  0  0  0  0  0  0  0  0  0  0
   -9.3540   16.4500    7.4730 C   0  0  0  0  0  0  0  0  0  0  0  0
   -2.7380   14.1640   -0.2400 C   0  0  0  0  0  0  0  0  0  0  0  0
  -10.0070   17.5800    7.0060 C   0  0  0  0  0  0  0  0  0  0  0  0
  1  2  1  0
  2  3  2  0
  1  4  1  0
  2  5  1  0
  4  6  1  0
  4  7  2  0
  6  8  2  0
  7  9  1  0
  8  9  1  0
  7 10  1  0
  5 11  1  0
  9 12  1  6
 11 13  2  0
 11 14  1  0
  9 15  1  0
 10 16  2  0
 13 17  1  0
 14 18  2  0
 15 19  2  0
 16 19  1  0
 17 20  2  0
 18 20  1  0
M  END
