x0128_0_A_α-x0837_0_A_α
     RDKit          3D

 17 18  0  0  0  0  0  0  0  0999 V2000
   -6.6680   14.7550    2.4910 N   0  0  0  0  0  0  0  0  0  0  0  0
   -7.8090   15.2360    3.0770 C   0  0  0  0  0  0  0  0  0  0  0  0
   -8.7800   15.5090    2.3710 O   0  0  0  0  0  0  0  0  0  0  0  0
   -6.0880   14.8030    1.2110 C   0  0  0  0  0  0  0  0  0  0  0  0
   -7.7230   15.3650    4.4380 N   0  0  0  0  0  0  0  0  0  0  0  0
   -6.7630   14.6210    0.0030 C   0  0  0  0  0  0  0  0  0  0  0  0
   -4.7090   15.0520    1.1880 C   0  0  0  0  0  0  0  0  0  0  0  0
   -6.0580   14.6770   -1.2110 C   0  0  0  0  0  0  0  0  0  0  0  0
   -4.0080   15.1070   -0.0090 C   0  0  0  0  0  0  0  0  0  0  0  0
   -8.5230   16.1150    5.3250 C   0  0  0  0  0  0  0  0  0  0  0  0
   -4.6780   14.9140   -1.2060 C   0  0  0  0  0  0  0  0  0  0  0  0
   -9.1810   17.2570    4.8690 C   0  0  0  0  0  0  0  0  0  0  0  0
   -8.7000   15.7800    6.6630 C   0  0  0  0  0  0  0  0  0  0  0  0
   -3.5680   14.9720   -2.9610 I   0  0  0  0  0  0  0  0  0  0  0  0
   -9.9710   18.0470    5.6320 N   0  0  0  0  0  0  0  0  0  0  0  0
   -9.5070   16.5760    7.4770 C   0  0  0  0  0  0  0  0  0  0  0  0
  -10.1150   17.6880    6.9210 C   0  0  0  0  0  0  0  0  0  0  0  0
  1  2  1  0
  2  3  2  0
  1  4  1  0
  2  5  1  0
  4  6  2  0
  4  7  1  0
  6  8  1  0
  7  9  2  0
  5 10  1  0
  8 11  2  0
  9 11  1  0
 10 12  2  0
 10 13  1  0
 11 14  1  0
 12 15  1  0
 13 16  2  0
 15 17  2  0
 16 17  1  0
M  END
