x0128_0_A-x0626_0_A
     RDKit          3D

 25 27  0  0  0  0  0  0  0  0999 V2000
   -6.7150   14.4320    1.8880 N   0  0  0  0  0  0  0  0  0  0  0  0
   -7.7470   15.0790    2.6510 C   0  0  0  0  0  0  0  0  0  0  0  0
   -8.7800   15.4800    2.1180 O   0  0  0  0  0  0  0  0  0  0  0  0
   -5.5850   15.1130    1.5330 C   0  0  0  0  0  0  0  0  0  0  0  0
   -6.7120   14.4470    0.5010 C   0  0  0  0  0  0  0  0  0  0  0  0
   -7.5160   15.2290    4.0270 N   0  0  0  0  0  0  0  0  0  0  0  0
   -4.4320   15.1940    2.1440 N   0  0  0  0  0  0  0  0  0  0  0  0
   -5.5730   15.6430    0.4090 O   0  0  0  0  0  0  0  0  0  0  0  0
   -7.7360   14.7100   -0.3840 C   0  0  0  0  0  0  0  0  0  0  0  0
   -5.4220   14.1950    0.0010 C   0  0  0  0  0  0  0  0  0  0  0  0
   -7.4490   14.7290   -1.7530 C   0  0  0  0  0  0  0  0  0  0  0  0
   -5.1460   14.2210   -1.3440 C   0  0  0  0  0  0  0  0  0  0  0  0
   -8.3080   15.9700    4.9760 C   0  0  0  0  0  0  0  0  0  0  0  0
   -3.2900   15.2100    1.4040 C   0  0  0  0  0  0  0  0  0  0  0  0
   -6.1610   14.4900   -2.2270 C   0  0  0  0  0  0  0  0  0  0  0  0
   -9.0550   17.1180    4.6800 C   0  0  0  0  0  0  0  0  0  0  0  0
   -8.3700   15.5400    6.3130 C   0  0  0  0  0  0  0  0  0  0  0  0
   -2.1020   14.9000    1.7910 N   0  0  0  0  0  0  0  0  0  0  0  0
   -3.4470   15.7050   -0.2320 S   0  0  0  0  0  0  0  0  0  0  0  0
   -9.8090   17.8190    5.5710 N   0  0  0  0  0  0  0  0  0  0  0  0
   -9.1390   16.2450    7.2510 C   0  0  0  0  0  0  0  0  0  0  0  0
   -1.7750   15.4990   -0.4460 C   0  0  0  0  0  0  0  0  0  0  0  0
   -1.2360   15.0660    0.7410 C   0  0  0  0  0  0  0  0  0  0  0  0
    0.1550   14.7600    0.9960 C   0  0  0  0  0  0  0  0  0  0  0  0
   -9.8350   17.3690    6.8360 C   0  0  0  0  0  0  0  0  0  0  0  0
  1  2  1  0
  2  3  2  0
  1  4  1  0
  1  5  1  0
  2  6  1  0
  4  7  1  0
  4  8  2  0
  5  9  2  0
  5 10  1  0
  9 11  1  0
 10 12  2  0
  6 13  1  0
  7 14  1  0
 11 15  2  0
 12 15  1  0
 13 16  2  0
 13 17  1  0
 14 18  2  0
 14 19  1  0
 16 20  1  0
 17 21  2  0
 19 22  1  0
 18 23  1  0
 22 23  2  0
 23 24  1  0
 20 25  2  0
 21 25  1  0
M  END
