x0128_0_A_α-x0685_0_A_α
     RDKit          3D

 19 20  0  0  0  0  0  0  0  0999 V2000
   -6.4880   14.9470    2.5330 N   0  0  0  0  0  0  0  0  0  0  0  0
   -7.7770   14.8590    3.1430 C   0  0  2  0  0  0  0  0  0  0  0  0
   -8.7000   15.6150    2.4160 O   0  0  0  0  0  0  0  0  0  0  0  0
   -6.0190   14.9470    1.2230 C   0  0  0  0  0  0  0  0  0  0  0  0
   -7.5170   15.4800    4.4380 N   0  0  0  0  0  0  0  0  0  0  0  0
   -8.1740   13.3970    3.2890 C   0  0  0  0  0  0  0  0  0  0  0  0
   -6.7370   14.7440    0.0380 C   0  0  0  0  0  0  0  0  0  0  0  0
   -4.6440   15.2000    1.1150 C   0  0  0  0  0  0  0  0  0  0  0  0
   -6.0880   14.8000   -1.2120 C   0  0  0  0  0  0  0  0  0  0  0  0
   -3.9980   15.2540   -0.1090 C   0  0  0  0  0  0  0  0  0  0  0  0
   -8.3870   16.1310    5.3230 C   0  0  0  0  0  0  0  0  0  0  0  0
   -4.7090   15.0560   -1.2780 C   0  0  0  0  0  0  0  0  0  0  0  0
   -9.0990   17.2660    4.9050 C   0  0  0  0  0  0  0  0  0  0  0  0
   -8.6210   15.7470    6.6410 C   0  0  0  0  0  0  0  0  0  0  0  0
   -3.9920   15.1230   -2.5160 C   0  0  0  0  0  0  0  0  0  0  0  0
   -9.9640   17.9870    5.6610 N   0  0  0  0  0  0  0  0  0  0  0  0
   -9.5060   16.4670    7.4550 C   0  0  0  0  0  0  0  0  0  0  0  0
   -3.3850   15.1810   -3.5050 N   0  0  0  0  0  0  0  0  0  0  0  0
  -10.1450   17.5700    6.9220 C   0  0  0  0  0  0  0  0  0  0  0  0
  1  2  1  0
  2  3  1  0
  1  4  1  0
  2  5  1  0
  2  6  1  1
  4  7  2  0
  4  8  1  0
  7  9  1  0
  8 10  2  0
  5 11  1  0
  9 12  2  0
 10 12  1  0
 11 13  2  0
 11 14  1  0
 12 15  1  0
 13 16  1  0
 14 17  2  0
 15 18  3  0
 16 19  2  0
 17 19  1  0
M  END
