x0128_0_A-x1018_0_A
     RDKit          3D

 19 21  0  0  0  0  0  0  0  0999 V2000
   -6.6550   14.5980    2.4940 N   0  0  0  0  0  0  0  0  0  0  0  0
   -7.7320   15.2000    3.0770 C   0  0  0  0  0  0  0  0  0  0  0  0
   -8.7780   15.5140    2.5070 O   0  0  0  0  0  0  0  0  0  0  0  0
   -6.1100   14.7350    1.2040 C   0  0  0  0  0  0  0  0  0  0  0  0
   -7.6120   15.4700    4.4210 N   0  0  0  0  0  0  0  0  0  0  0  0
   -6.9960   14.7820    0.1210 C   0  0  0  0  0  0  0  0  0  0  0  0
   -4.7210   14.8170    0.9980 C   0  0  0  0  0  0  0  0  0  0  0  0
   -6.5330   14.9090   -1.1960 C   0  0  0  0  0  0  0  0  0  0  0  0
   -4.2920   14.9340   -0.3240 C   0  0  0  0  0  0  0  0  0  0  0  0
   -8.4560   16.2020    5.2820 C   0  0  0  0  0  0  0  0  0  0  0  0
   -5.1520   14.9810   -1.4050 C   0  0  0  0  0  0  0  0  0  0  0  0
   -9.1800   17.3320    4.9150 C   0  0  0  0  0  0  0  0  0  0  0  0
   -8.5840   15.7730    6.6030 C   0  0  0  0  0  0  0  0  0  0  0  0
   -3.0610   15.0240   -0.9040 N   0  0  0  0  0  0  0  0  0  0  0  0
   -9.9910   18.0270    5.7450 N   0  0  0  0  0  0  0  0  0  0  0  0
   -9.4120   16.4740    7.4850 C   0  0  0  0  0  0  0  0  0  0  0  0
   -3.1500   15.1180   -2.2400 N   0  0  0  0  0  0  0  0  0  0  0  0
   -4.4340   15.0960   -2.5580 N   0  0  0  0  0  0  0  0  0  0  0  0
  -10.0880   17.5850    7.0110 C   0  0  0  0  0  0  0  0  0  0  0  0
  1  2  1  0
  2  3  2  0
  1  4  1  0
  2  5  1  0
  4  6  2  0
  4  7  1  0
  6  8  1  0
  7  9  2  0
  5 10  1  0
  8 11  2  0
  9 11  1  0
 10 12  2  0
 10 13  1  0
  9 14  1  0
 12 15  1  0
 13 16  2  0
 14 17  1  0
 11 18  1  0
 17 18  2  0
 15 19  2  0
 16 19  1  0
M  END
