x0128_0_A-x0910_0_A
     RDKit          3D

 23 25  0  0  0  0  0  0  0  0999 V2000
   -6.6120   14.7510    2.4740 N   0  0  0  0  0  0  0  0  0  0  0  0
   -7.7990   15.1730    3.0690 C   0  0  0  0  0  0  0  0  0  0  0  0
   -8.8460   15.3720    2.4630 O   0  0  0  0  0  0  0  0  0  0  0  0
   -6.2950   14.7930    1.1000 C   0  0  0  0  0  0  0  0  0  0  0  0
   -7.6500   15.3540    4.4360 N   0  0  0  0  0  0  0  0  0  0  0  0
   -7.3830   14.5720    0.2590 C   0  0  0  0  0  0  0  0  0  0  0  0
   -5.0340   15.0410    0.5200 C   0  0  0  0  0  0  0  0  0  0  0  0
   -7.2470   14.5950   -1.1170 C   0  0  0  0  0  0  0  0  0  0  0  0
   -4.9150   15.0600   -0.8980 C   0  0  0  0  0  0  0  0  0  0  0  0
   -8.4780   16.1410    5.2760 C   0  0  0  0  0  0  0  0  0  0  0  0
   -3.6610   15.3160   -1.6490 C   0  0  0  0  0  0  0  0  0  0  0  0
   -6.0230   14.8380   -1.6870 C   0  0  0  0  0  0  0  0  0  0  0  0
   -9.1730   17.2780    4.8800 C   0  0  0  0  0  0  0  0  0  0  0  0
   -8.6140   15.7490    6.6100 C   0  0  0  0  0  0  0  0  0  0  0  0
   -2.6410   14.3340   -1.4190 N   0  0  0  0  0  0  0  0  0  0  0  0
   -9.9640   18.0170    5.6990 N   0  0  0  0  0  0  0  0  0  0  0  0
   -9.4210   16.4940    7.4750 C   0  0  0  0  0  0  0  0  0  0  0  0
  -10.0680   17.6100    6.9760 C   0  0  0  0  0  0  0  0  0  0  0  0
   -1.7210   14.5710   -0.4870 C   0  0  0  0  0  0  0  0  0  0  0  0
   -1.9850   14.5490    0.8480 N   0  0  0  0  0  0  0  0  0  0  0  0
   -0.4640   14.8640   -0.6840 N   0  0  0  0  0  0  0  0  0  0  0  0
   -0.8910   14.8320    1.5510 N   0  0  0  0  0  0  0  0  0  0  0  0
    0.0010   15.0210    0.5820 C   0  0  0  0  0  0  0  0  0  0  0  0
  1  2  1  0
  2  3  2  0
  1  4  1  0
  2  5  1  0
  4  6  2  0
  4  7  1  0
  6  8  1  0
  7  9  2  0
  5 10  1  0
  9 11  1  0
  8 12  2  0
  9 12  1  0
 10 13  2  0
 10 14  1  0
 11 15  1  0
 13 16  1  0
 14 17  2  0
 16 18  2  0
 17 18  1  0
 15 19  1  0
 19 20  1  0
 19 21  2  0
 20 22  1  0
 21 23  1  0
 22 23  2  0
M  END
