x0128_0_A-x1012_0_A
     RDKit          3D

 31 33  0  0  0  0  0  0  0  0999 V2000
   -6.5940   14.8370    2.5390 N   0  0  0  0  0  0  0  0  0  0  0  0
   -7.8110   15.2180    3.0870 C   0  0  0  0  0  0  0  0  0  0  0  0
   -8.8370   15.4160    2.4540 O   0  0  0  0  0  0  0  0  0  0  0  0
   -6.1860   14.8080    1.1930 C   0  0  0  0  0  0  0  0  0  0  0  0
   -7.6890   15.3520    4.4640 N   0  0  0  0  0  0  0  0  0  0  0  0
   -7.0570   14.5420    0.1490 C   0  0  0  0  0  0  0  0  0  0  0  0
   -4.8340   15.0630    0.9090 C   0  0  0  0  0  0  0  0  0  0  0  0
   -6.5960   14.5220   -1.1630 C   0  0  0  0  0  0  0  0  0  0  0  0
   -4.3680   15.0450   -0.4130 C   0  0  0  0  0  0  0  0  0  0  0  0
   -8.4960   16.0980    5.3540 C   0  0  0  0  0  0  0  0  0  0  0  0
   -5.2630   14.7650   -1.4600 C   0  0  0  0  0  0  0  0  0  0  0  0
   -9.1530   17.2430    4.8950 C   0  0  0  0  0  0  0  0  0  0  0  0
   -8.6900   15.7690    6.6930 C   0  0  0  0  0  0  0  0  0  0  0  0
   -4.8340   14.7090   -2.9040 C   0  0  0  0  0  0  0  0  0  0  0  0
   -9.9500   18.0350    5.6500 N   0  0  0  0  0  0  0  0  0  0  0  0
   -9.5040   16.5660    7.4990 C   0  0  0  0  0  0  0  0  0  0  0  0
   -3.4990   15.3900   -3.1170 C   0  0  0  0  0  0  0  0  0  0  0  0
  -10.1070   17.6790    6.9380 C   0  0  0  0  0  0  0  0  0  0  0  0
   -3.2250   15.7550   -4.5800 C   0  0  0  0  0  0  0  0  0  0  0  0
   -2.5330   17.0390   -4.6280 N   0  0  0  0  0  0  0  0  0  0  0  0
   -1.2670   17.0500   -4.7670 C   0  0  0  0  0  0  0  0  0  0  0  0
   -0.5010   18.1680   -4.8110 N   0  0  0  0  0  0  0  0  0  0  0  0
   -0.5520   15.8660   -4.8760 N   0  0  0  0  0  0  0  0  0  0  0  0
   -1.2560   14.5850   -5.0810 C   0  0  0  0  0  0  0  0  0  0  0  0
    0.8740   15.7390   -4.5080 C   0  0  0  0  0  0  0  0  0  0  0  0
   -1.1480   13.7240   -3.8350 C   0  0  0  0  0  0  0  0  0  0  0  0
    1.0830   14.7230   -3.3680 C   0  0  0  0  0  0  0  0  0  0  0  0
    0.3080   13.4070   -3.5540 C   0  0  0  0  0  0  0  0  0  0  0  0
    0.4120   12.4450   -2.3800 C   0  0  0  0  0  0  0  0  0  0  0  0
    0.3650   11.1520   -2.7650 O   0  0  0  0  0  0  0  0  0  0  0  0
    0.5200   12.7650   -1.2070 O   0  0  0  0  0  0  0  0  0  0  0  0
  1  2  1  0
  2  3  2  0
  1  4  1  0
  2  5  1  0
  4  6  2  0
  4  7  1  0
  6  8  1  0
  7  9  2  0
  5 10  1  0
  8 11  2  0
  9 11  1  0
 10 12  2  0
 10 13  1  0
 11 14  1  0
 12 15  1  0
 13 16  2  0
 14 17  1  0
 15 18  2  0
 16 18  1  0
 17 19  1  0
 19 20  1  0
 20 21  2  3
 21 22  1  0
 21 23  1  0
 23 24  1  0
 23 25  1  0
 24 26  1  0
 25 27  1  0
 26 28  1  0
 27 28  1  0
 28 29  1  0
 29 30  1  0
 29 31  2  0
M  END
