x0128_0_A_α-5CB5_0_A_δ
     RDKit          3D

 26 29  0  0  0  0  0  0  0  0999 V2000
   -6.6860   14.6260    2.5100 N   0  0  0  0  0  0  0  0  0  0  0  0
   -7.7880   15.1220    3.1680 C   0  0  0  0  0  0  0  0  0  0  0  0
   -8.8670   15.3140    2.6160 O   0  0  0  0  0  0  0  0  0  0  0  0
   -6.3740   14.8430    1.1600 C   0  0  0  0  0  0  0  0  0  0  0  0
   -7.5460   15.4020    4.5070 N   0  0  0  0  0  0  0  0  0  0  0  0
   -7.3090   14.6670    0.1480 C   0  0  0  0  0  0  0  0  0  0  0  0
   -5.0580   15.2790    0.8310 C   0  0  0  0  0  0  0  0  0  0  0  0
   -4.0450   15.4650    1.7770 N   0  0  0  0  0  0  0  0  0  0  0  0
   -6.9610   14.9230   -1.1780 C   0  0  0  0  0  0  0  0  0  0  0  0
   -4.7450   15.5320   -0.4980 C   0  0  0  0  0  0  0  0  0  0  0  0
   -8.4030   16.1560    5.3370 C   0  0  0  0  0  0  0  0  0  0  0  0
   -5.6830   15.3560   -1.4960 C   0  0  0  0  0  0  0  0  0  0  0  0
   -9.1140   17.2830    4.9320 C   0  0  0  0  0  0  0  0  0  0  0  0
   -8.5630   15.7510    6.6650 C   0  0  0  0  0  0  0  0  0  0  0  0
   -2.8190   14.9860    1.1080 C   0  0  1  0  0  0  0  0  0  0  0  0
   -9.9400   17.9990    5.7360 N   0  0  0  0  0  0  0  0  0  0  0  0
   -9.4060   16.4730    7.5130 C   0  0  0  0  0  0  0  0  0  0  0  0
   -2.7790   15.3640   -0.3920 C   0  0  1  0  0  0  0  0  0  0  0  0
   -1.5330   15.3910    1.5950 N   0  0  0  0  0  0  0  0  0  0  0  0
  -10.0640   17.5790    7.0070 C   0  0  0  0  0  0  0  0  0  0  0  0
   -1.3650   15.3630   -0.9790 C   0  0  2  0  0  0  0  0  0  0  0  0
   -3.4200   14.3510   -1.2630 N   0  0  0  0  0  0  0  0  0  0  0  0
   -0.4260   14.6210    1.0950 C   0  0  0  0  0  0  0  0  0  0  0  0
   -1.5130   14.8820   -2.3480 N   0  0  0  0  0  0  0  0  0  0  0  0
   -2.9450   14.7580   -2.5550 C   0  0  0  0  0  0  0  0  0  0  0  0
   -0.3780   14.5430   -0.3460 N   0  0  0  0  0  0  0  0  0  0  0  0
  1  2  1  0
  2  3  2  0
  1  4  1  0
  2  5  1  0
  4  6  2  0
  4  7  1  0
  7  8  1  0
  6  9  1  0
  7 10  2  0
  5 11  1  0
  9 12  2  0
 10 12  1  0
 11 13  2  0
 11 14  1  0
 15  8  1  1
 13 16  1  0
 14 17  2  0
 15 18  1  0
 15 19  1  0
 16 20  2  0
 17 20  1  0
 18 21  1  0
 18 22  1  6
 19 23  1  0
 21 24  1  6
 22 25  1  0
 24 25  1  0
 21 26  1  0
 23 26  1  0
M  END
