x0128_0_A-x0689_0_A
     RDKit          3D

 23 25  0  0  0  0  0  0  0  0999 V2000
   -6.5560   14.6820    2.4170 N   0  0  0  0  0  0  0  0  0  0  0  0
   -7.7030   15.1440    3.0640 C   0  0  0  0  0  0  0  0  0  0  0  0
   -8.7790   15.3190    2.4990 O   0  0  0  0  0  0  0  0  0  0  0  0
   -6.2040   14.8450    1.0480 C   0  0  0  0  0  0  0  0  0  0  0  0
   -7.4830   15.4010    4.4210 N   0  0  0  0  0  0  0  0  0  0  0  0
   -7.1850   14.8220    0.0560 C   0  0  0  0  0  0  0  0  0  0  0  0
   -4.8390   15.0500    0.6490 C   0  0  0  0  0  0  0  0  0  0  0  0
   -6.8530   15.0020   -1.2850 C   0  0  0  0  0  0  0  0  0  0  0  0
   -4.5470   15.2300   -0.7050 C   0  0  0  0  0  0  0  0  0  0  0  0
   -8.3490   16.0860    5.3210 C   0  0  0  0  0  0  0  0  0  0  0  0
   -3.7570   15.0800    1.5430 N   0  0  0  0  0  0  0  0  0  0  0  0
   -5.5370   15.2080   -1.6630 C   0  0  0  0  0  0  0  0  0  0  0  0
   -9.0430   17.2150    4.8790 C   0  0  0  0  0  0  0  0  0  0  0  0
   -8.5610   15.7090    6.6450 C   0  0  0  0  0  0  0  0  0  0  0  0
   -2.4570   14.7810    1.1030 C   0  0  0  0  0  0  0  0  0  0  0  0
   -9.8920   17.9550    5.6340 N   0  0  0  0  0  0  0  0  0  0  0  0
   -9.4320   16.4540    7.4520 C   0  0  0  0  0  0  0  0  0  0  0  0
   -2.2840   14.8120   -0.2300 N   0  0  0  0  0  0  0  0  0  0  0  0
   -1.4810   14.4940    1.9480 N   0  0  0  0  0  0  0  0  0  0  0  0
  -10.0650   17.5570    6.9050 C   0  0  0  0  0  0  0  0  0  0  0  0
   -1.0580   14.5480   -0.7100 C   0  0  0  0  0  0  0  0  0  0  0  0
   -0.2740   14.2370    1.4340 C   0  0  0  0  0  0  0  0  0  0  0  0
    0.0060   14.2520    0.0910 C   0  0  0  0  0  0  0  0  0  0  0  0
  1  2  1  0
  2  3  2  0
  1  4  1  0
  2  5  1  0
  4  6  2  0
  4  7  1  0
  6  8  1  0
  7  9  2  0
  5 10  1  0
  7 11  1  0
  8 12  2  0
  9 12  1  0
 10 13  2  0
 10 14  1  0
 11 15  1  0
 13 16  1  0
 14 17  2  0
 15 18  2  0
 15 19  1  0
 16 20  2  0
 17 20  1  0
 18 21  1  0
 19 22  2  0
 21 23  2  0
 22 23  1  0
M  END
