x0128_1_A_α-x0299_0_A_α
     RDKit          3D

 37 40  0  0  0  0  0  0  0  0999 V2000
   10.4360   -2.1710   -2.5400 N   0  0  0  0  0  0  0  0  0  0  0  0
    9.6860   -1.9690   -1.3960 C   0  0  0  0  0  0  0  0  0  0  0  0
    8.6630   -2.5600   -1.0660 O   0  0  0  0  0  0  0  0  0  0  0  0
   10.2570   -3.1880   -3.5040 C   0  0  0  0  0  0  0  0  0  0  0  0
   10.2550   -0.9600   -0.6390 N   0  0  0  0  0  0  0  0  0  0  0  0
    9.2200   -4.1260   -3.4880 C   0  0  0  0  0  0  0  0  0  0  0  0
   11.1920   -3.2340   -4.5410 C   0  0  0  0  0  0  0  0  0  0  0  0
    9.1280   -5.0930   -4.4990 C   0  0  0  0  0  0  0  0  0  0  0  0
   11.1020   -4.1970   -5.5510 C   0  0  0  0  0  0  0  0  0  0  0  0
   10.0000   -0.7800    0.7820 C   0  0  1  0  0  0  0  0  0  0  0  0
   10.0650   -5.1270   -5.5270 C   0  0  0  0  0  0  0  0  0  0  0  0
   11.0800    0.1460    1.4270 C   0  0  0  0  0  0  0  0  0  0  0  0
    8.6260   -0.1920    0.9250 C   0  0  0  0  0  0  0  0  0  0  0  0
   10.7020    0.6070    2.7890 N   0  0  0  0  0  0  0  0  0  0  0  0
    8.3900    0.7970    1.8030 C   0  0  0  0  0  0  0  0  0  0  0  0
   11.7880    1.4210    3.4120 C   0  0  0  0  0  0  0  0  0  0  0  0
    9.4550    1.3870    2.6910 C   0  0  0  0  0  0  0  0  0  0  0  0
   12.2400    1.0050    4.8390 C   0  0  0  0  0  0  0  0  0  0  0  0
   13.7690    0.9680    5.1260 C   0  0  0  0  0  0  0  0  0  0  0  0
   14.3070    2.2280    5.8360 C   0  0  0  0  0  0  0  0  0  0  0  0
   15.2840    2.0060    7.0260 C   0  0  0  0  0  0  0  0  0  0  0  0
   15.0640    2.9640    8.1950 C   0  0  0  0  0  0  0  0  0  0  0  0
   14.6270    2.4870    9.4400 C   0  0  0  0  0  0  0  0  0  0  0  0
   15.2750    4.3440    8.0470 C   0  0  0  0  0  0  0  0  0  0  0  0
   15.0160    5.2310    9.1090 C   0  0  0  0  0  0  0  0  0  0  0  0
   14.3810    3.3430   10.5260 C   0  0  0  0  0  0  0  0  0  0  0  0
   15.1210    6.6170    9.1750 N   0  0  0  0  0  0  0  0  0  0  0  0
   14.5780    4.7110   10.3120 C   0  0  0  0  0  0  0  0  0  0  0  0
   14.4160    5.8060   11.1240 N   0  0  0  0  0  0  0  0  0  0  0  0
   14.7470    6.9350   10.3990 C   0  0  0  0  0  0  0  0  0  0  0  0
   14.6700    8.3020   10.9880 C   0  0  0  0  0  0  0  0  0  0  0  0
   14.1000    8.2220   12.3100 N   0  0  0  0  0  0  0  0  0  0  0  0
   14.9140    8.3960   13.4020 C   0  0  0  0  0  0  0  0  0  0  0  0
   16.1050    8.6680   13.2990 O   0  0  0  0  0  0  0  0  0  0  0  0
   14.2040    8.2210   14.7290 C   0  0  0  0  0  0  0  0  0  0  0  0
   15.1040    7.5510   15.7670 C   0  0  0  0  0  0  0  0  0  0  0  0
   15.8600    8.5720   16.6020 C   0  0  0  0  0  0  0  0  0  0  0  0
  1  2  1  0
  2  3  2  0
  1  4  1  0
  2  5  1  0
  4  6  2  0
  4  7  1  0
  6  8  1  0
  7  9  2  0
 10  5  1  6
  8 11  2  0
  9 11  1  0
 10 12  1  0
 10 13  1  0
 12 14  1  0
 13 15  2  0
 14 16  1  0
 14 17  1  0
 15 17  1  0
 16 18  1  0
 18 19  1  0
 19 20  1  0
 20 21  1  0
 21 22  1  0
 22 23  2  0
 22 24  1  0
 24 25  2  0
 23 26  1  0
 25 27  1  0
 25 28  1  0
 26 28  2  0
 28 29  1  0
 27 30  2  0
 29 30  1  0
 30 31  1  0
 31 32  1  0
 32 33  1  0
 33 34  2  0
 33 35  1  0
 35 36  1  0
 36 37  1  0
M  END
