x0128_0_A_α-x0711_0_A_α
     RDKit          3D

 22 23  0  0  0  0  0  0  0  0999 V2000
   -6.3230   14.8000    2.2500 N   0  0  0  0  0  0  0  0  0  0  0  0
   -7.5960   15.1430    2.7730 C   0  0  0  0  0  0  0  0  0  0  0  0
   -8.6170   15.3070    2.1090 O   0  0  0  0  0  0  0  0  0  0  0  0
   -5.7270   14.8450    0.9210 C   0  0  0  0  0  0  0  0  0  0  0  0
   -7.5470   15.2880    4.1750 N   0  0  0  0  0  0  0  0  0  0  0  0
   -6.6090   14.8450   -0.1750 C   0  0  0  0  0  0  0  0  0  0  0  0
   -4.3200   14.8890    0.6240 C   0  0  0  0  0  0  0  0  0  0  0  0
   -6.1440   14.8920   -1.4870 C   0  0  0  0  0  0  0  0  0  0  0  0
   -3.8290   14.9320   -0.7340 C   0  0  0  0  0  0  0  0  0  0  0  0
   -8.3890   16.0600    5.0450 C   0  0  0  0  0  0  0  0  0  0  0  0
   -7.9560   14.7980    0.0540 O   0  0  0  0  0  0  0  0  0  0  0  0
   -2.3730   14.9840   -1.0540 N   0  0  0  0  0  0  0  0  0  0  0  0
   -4.7710   14.9360   -1.7650 C   0  0  0  0  0  0  0  0  0  0  0  0
   -9.1200   17.1980    4.6990 C   0  0  0  0  0  0  0  0  0  0  0  0
   -8.4970   15.6470    6.3810 C   0  0  0  0  0  0  0  0  0  0  0  0
   -1.4300   14.1500   -2.2720 S   0  0  0  0  0  0  0  0  0  0  0  0
   -9.9060   17.9060    5.5580 N   0  0  0  0  0  0  0  0  0  0  0  0
   -9.2980   16.3580    7.2840 C   0  0  0  0  0  0  0  0  0  0  0  0
   -2.5670   13.2680   -3.3170 C   0  0  0  0  0  0  0  0  0  0  0  0
   -0.8050   15.1570   -3.1220 O   0  0  0  0  0  0  0  0  0  0  0  0
   -0.5530   13.1900   -1.6330 O   0  0  0  0  0  0  0  0  0  0  0  0
   -9.9770   17.4730    6.8260 C   0  0  0  0  0  0  0  0  0  0  0  0
  1  2  1  0
  2  3  2  0
  1  4  1  0
  2  5  1  0
  4  6  2  0
  4  7  1  0
  6  8  1  0
  7  9  2  0
  5 10  1  0
  6 11  1  0
  9 12  1  0
  8 13  2  0
  9 13  1  0
 10 14  2  0
 10 15  1  0
 16 12  1  0
 14 17  1  0
 15 18  2  0
 16 19  1  0
 16 20  2  0
 16 21  2  0
 17 22  2  0
 18 22  1  0
M  END
