x0128_0_A_α-x0910_1_A_α
     RDKit          3D

 17 18  0  0  0  0  0  0  0  0999 V2000
   -6.6850   14.5240    2.4810 N   0  0  0  0  0  0  0  0  0  0  0  0
   -7.7650   15.1480    3.0260 C   0  0  0  0  0  0  0  0  0  0  0  0
   -8.7600   15.5540    2.4270 O   0  0  0  0  0  0  0  0  0  0  0  0
   -6.0290   14.7830    1.2670 C   0  0  0  0  0  0  0  0  0  0  0  0
   -7.6890   15.3170    4.3770 N   0  0  0  0  0  0  0  0  0  0  0  0
   -6.8440   14.6860    0.1370 C   0  0  0  0  0  0  0  0  0  0  0  0
   -4.6780   15.1210    1.1330 C   0  0  0  0  0  0  0  0  0  0  0  0
   -8.2050   14.3370    0.3210 N   0  0  0  0  0  0  0  0  0  0  0  0
   -6.3140   14.9310   -1.1340 C   0  0  0  0  0  0  0  0  0  0  0  0
   -4.1520   15.3620   -0.1390 C   0  0  0  0  0  0  0  0  0  0  0  0
   -8.4620   16.0480    5.3050 C   0  0  0  0  0  0  0  0  0  0  0  0
   -4.9670   15.2700   -1.2670 C   0  0  0  0  0  0  0  0  0  0  0  0
   -9.1290   17.1970    4.8730 C   0  0  0  0  0  0  0  0  0  0  0  0
   -8.6200   15.7100    6.6500 C   0  0  0  0  0  0  0  0  0  0  0  0
   -9.9030   17.9870    5.6520 N   0  0  0  0  0  0  0  0  0  0  0  0
   -9.4130   16.5070    7.4800 C   0  0  0  0  0  0  0  0  0  0  0  0
  -10.0290   17.6260    6.9400 C   0  0  0  0  0  0  0  0  0  0  0  0
  1  2  1  0
  2  3  2  0
  1  4  1  0
  2  5  1  0
  4  6  2  0
  4  7  1  0
  6  8  1  0
  6  9  1  0
  7 10  2  0
  5 11  1  0
  9 12  2  0
 10 12  1  0
 11 13  2  0
 11 14  1  0
 13 15  1  0
 14 16  2  0
 15 17  2  0
 16 17  1  0
M  END
