x0128_0_A-x0282_0_A
     RDKit          3D

 23 25  0  0  0  0  0  0  0  0999 V2000
   -6.2160   15.0720    2.7570 N   0  0  0  0  0  0  0  0  0  0  0  0
   -7.5510   15.2350    3.0760 C   0  0  0  0  0  0  0  0  0  0  0  0
   -8.3880   15.4210    2.1980 O   0  0  0  0  0  0  0  0  0  0  0  0
   -5.4830   14.6910    1.5090 C   0  0  1  0  0  0  0  0  0  0  0  0
   -7.7540   15.1870    4.4230 N   0  0  0  0  0  0  0  0  0  0  0  0
   -6.3480   14.6370    0.2370 C   0  0  2  0  0  0  0  0  0  0  0  0
   -4.2060   15.5450    1.2480 C   0  0  0  0  0  0  0  0  0  0  0  0
   -7.5860   13.7460    0.4340 C   0  0  0  0  0  0  0  0  0  0  0  0
   -5.4850   14.1570   -0.8900 C   0  0  0  0  0  0  0  0  0  0  0  0
   -3.2370   14.8940    0.1990 C   0  0  1  0  0  0  0  0  0  0  0  0
   -8.5230   16.0610    5.2330 C   0  0  0  0  0  0  0  0  0  0  0  0
   -8.7690   14.3450   -0.0740 O   0  0  0  0  0  0  0  0  0  0  0  0
   -4.1220   14.2690   -0.8950 C   0  0  0  0  0  0  0  0  0  0  0  0
   -9.1760   17.2120    4.7980 C   0  0  0  0  0  0  0  0  0  0  0  0
   -8.6430   15.7410    6.5910 C   0  0  0  0  0  0  0  0  0  0  0  0
   -2.3660   15.8720   -0.5040 N   0  0  0  0  0  0  0  0  0  0  0  0
   -2.4180   13.8760    0.8860 N   0  0  0  0  0  0  0  0  0  0  0  0
   -9.9160   18.0240    5.5990 N   0  0  0  0  0  0  0  0  0  0  0  0
   -9.3930   16.5590    7.4400 C   0  0  0  0  0  0  0  0  0  0  0  0
   -0.9930   15.3720   -0.8090 C   0  0  0  0  0  0  0  0  0  0  0  0
   -1.0640   14.0680    1.1910 C   0  0  0  0  0  0  0  0  0  0  0  0
  -10.0000   17.6830    6.9010 C   0  0  0  0  0  0  0  0  0  0  0  0
   -0.3170   14.7960    0.3850 C   0  0  0  0  0  0  0  0  0  0  0  0
  1  2  1  0
  2  3  2  0
  4  1  1  1
  2  5  1  0
  4  6  1  0
  4  7  1  0
  6  8  1  1
  6  9  1  0
 10  7  1  1
  5 11  1  0
  8 12  1  0
  9 13  2  0
 10 13  1  0
 11 14  2  0
 11 15  1  0
 10 16  1  0
 10 17  1  0
 14 18  1  0
 15 19  2  0
 16 20  1  0
 17 21  1  0
 18 22  2  0
 19 22  1  0
 20 23  1  0
 21 23  2  0
M  END
