x0128_0_A_α-x1018_0_A_α
     RDKit          3D

 19 21  0  0  0  0  0  0  0  0999 V2000
   -6.6460   14.6060    2.4990 N   0  0  0  0  0  0  0  0  0  0  0  0
   -7.7330   15.1890    3.0810 C   0  0  0  0  0  0  0  0  0  0  0  0
   -8.7850   15.4870    2.5130 O   0  0  0  0  0  0  0  0  0  0  0  0
   -6.1060   14.7400    1.2070 C   0  0  0  0  0  0  0  0  0  0  0  0
   -7.6150   15.4670    4.4240 N   0  0  0  0  0  0  0  0  0  0  0  0
   -6.9950   14.7880    0.1250 C   0  0  0  0  0  0  0  0  0  0  0  0
   -4.7210   14.8190    0.9990 C   0  0  0  0  0  0  0  0  0  0  0  0
   -6.5300   14.9140   -1.1920 C   0  0  0  0  0  0  0  0  0  0  0  0
   -4.2900   14.9340   -0.3190 C   0  0  0  0  0  0  0  0  0  0  0  0
   -8.4570   16.2010    5.2810 C   0  0  0  0  0  0  0  0  0  0  0  0
   -5.1510   14.9830   -1.4020 C   0  0  0  0  0  0  0  0  0  0  0  0
   -9.1840   17.3300    4.9130 C   0  0  0  0  0  0  0  0  0  0  0  0
   -8.5840   15.7750    6.6060 C   0  0  0  0  0  0  0  0  0  0  0  0
   -3.0610   15.0210   -0.8980 N   0  0  0  0  0  0  0  0  0  0  0  0
   -9.9920   18.0270    5.7430 N   0  0  0  0  0  0  0  0  0  0  0  0
   -9.4080   16.4770    7.4840 C   0  0  0  0  0  0  0  0  0  0  0  0
   -3.1450   15.1160   -2.2330 N   0  0  0  0  0  0  0  0  0  0  0  0
   -4.4300   15.0950   -2.5520 N   0  0  0  0  0  0  0  0  0  0  0  0
  -10.0860   17.5890    7.0120 C   0  0  0  0  0  0  0  0  0  0  0  0
  1  2  1  0
  2  3  2  0
  1  4  1  0
  2  5  1  0
  4  6  2  0
  4  7  1  0
  6  8  1  0
  7  9  2  0
  5 10  1  0
  8 11  2  0
  9 11  1  0
 10 12  2  0
 10 13  1  0
  9 14  1  0
 12 15  1  0
 13 16  2  0
 14 17  1  0
 11 18  1  0
 17 18  2  0
 15 19  2  0
 16 19  1  0
M  END
