x0128_0_A_α-x0910_0_A_α
     RDKit          3D

 23 25  0  0  0  0  0  0  0  0999 V2000
   -6.6050   14.7240    2.4800 N   0  0  0  0  0  0  0  0  0  0  0  0
   -7.7940   15.1720    3.0340 C   0  0  0  0  0  0  0  0  0  0  0  0
   -8.8070   15.4590    2.4010 O   0  0  0  0  0  0  0  0  0  0  0  0
   -6.2700   14.7680    1.1100 C   0  0  0  0  0  0  0  0  0  0  0  0
   -7.6760   15.2620    4.4010 N   0  0  0  0  0  0  0  0  0  0  0  0
   -7.3550   14.5320    0.2700 C   0  0  0  0  0  0  0  0  0  0  0  0
   -5.0110   15.0280    0.5320 C   0  0  0  0  0  0  0  0  0  0  0  0
   -7.2210   14.5530   -1.1090 C   0  0  0  0  0  0  0  0  0  0  0  0
   -4.8960   15.0440   -0.8860 C   0  0  0  0  0  0  0  0  0  0  0  0
   -8.4610   16.0620    5.2650 C   0  0  0  0  0  0  0  0  0  0  0  0
   -3.6510   15.3130   -1.6480 C   0  0  0  0  0  0  0  0  0  0  0  0
   -5.9990   14.8080   -1.6750 C   0  0  0  0  0  0  0  0  0  0  0  0
   -9.1450   17.2180    4.8790 C   0  0  0  0  0  0  0  0  0  0  0  0
   -8.5790   15.6870    6.6050 C   0  0  0  0  0  0  0  0  0  0  0  0
   -2.6180   14.3370   -1.4340 N   0  0  0  0  0  0  0  0  0  0  0  0
   -9.9020   17.9780    5.7090 N   0  0  0  0  0  0  0  0  0  0  0  0
   -9.3500   16.4520    7.4830 C   0  0  0  0  0  0  0  0  0  0  0  0
   -9.9880   17.5820    6.9900 C   0  0  0  0  0  0  0  0  0  0  0  0
   -1.7000   14.5760   -0.5060 C   0  0  0  0  0  0  0  0  0  0  0  0
   -1.9680   14.5550    0.8290 N   0  0  0  0  0  0  0  0  0  0  0  0
   -0.4410   14.8680   -0.6980 N   0  0  0  0  0  0  0  0  0  0  0  0
   -0.8760   14.8370    1.5360 N   0  0  0  0  0  0  0  0  0  0  0  0
    0.0200   15.0250    0.5710 C   0  0  0  0  0  0  0  0  0  0  0  0
  1  2  1  0
  2  3  2  0
  1  4  1  0
  2  5  1  0
  4  6  2  0
  4  7  1  0
  6  8  1  0
  7  9  2  0
  5 10  1  0
  9 11  1  0
  8 12  2  0
  9 12  1  0
 10 13  2  0
 10 14  1  0
 11 15  1  0
 13 16  1  0
 14 17  2  0
 16 18  2  0
 17 18  1  0
 15 19  1  0
 19 20  1  0
 19 21  2  0
 20 22  1  0
 21 23  1  0
 22 23  2  0
M  END
