x0128_0_A_α-x0805_0_A_β
     RDKit          3D

 29 31  0  0  0  0  0  0  0  0999 V2000
   -6.6570   14.5710    2.4520 N   0  0  0  0  0  0  0  0  0  0  0  0
   -7.7760   15.1400    2.9920 C   0  0  0  0  0  0  0  0  0  0  0  0
   -8.7810   15.5150    2.3890 O   0  0  0  0  0  0  0  0  0  0  0  0
   -6.1290   14.6920    1.1480 C   0  0  0  0  0  0  0  0  0  0  0  0
   -7.7320   15.2950    4.3500 N   0  0  0  0  0  0  0  0  0  0  0  0
   -7.0750   14.8820    0.1360 C   0  0  0  0  0  0  0  0  0  0  0  0
   -4.7630   14.6370    0.8100 C   0  0  0  0  0  0  0  0  0  0  0  0
   -6.6880   15.0250   -1.1880 C   0  0  0  0  0  0  0  0  0  0  0  0
   -4.3750   14.7740   -0.5430 C   0  0  0  0  0  0  0  0  0  0  0  0
   -8.5020   16.0900    5.2320 C   0  0  0  0  0  0  0  0  0  0  0  0
   -2.9560   14.7120   -1.0310 C   0  0  0  0  0  0  0  0  0  0  0  0
   -5.3490   14.9720   -1.5200 C   0  0  0  0  0  0  0  0  0  0  0  0
   -9.1860   17.2490    4.8700 C   0  0  0  0  0  0  0  0  0  0  0  0
   -8.5990   15.6980    6.5710 C   0  0  0  0  0  0  0  0  0  0  0  0
   -1.8420   14.5720    0.0030 C   0  0  0  0  0  0  0  0  0  0  0  0
   -9.9280   18.0030    5.7150 N   0  0  0  0  0  0  0  0  0  0  0  0
   -9.3570   16.4600    7.4650 C   0  0  0  0  0  0  0  0  0  0  0  0
   -0.4900   14.7770   -0.6840 C   0  0  0  0  0  0  0  0  0  0  0  0
   -9.9960   17.5920    6.9950 C   0  0  0  0  0  0  0  0  0  0  0  0
    0.4950   13.6550   -0.4310 C   0  0  0  0  0  0  0  0  0  0  0  0
    0.1560   12.3790   -1.0790 N   0  0  0  0  0  0  0  0  0  0  0  0
    0.2810   12.2030   -2.3410 C   0  0  0  0  0  0  0  0  0  0  0  0
    0.0080   11.0240   -2.9290 O   0  0  0  0  0  0  0  0  0  0  0  0
    0.7450   13.3280   -3.2080 C   0  0  2  0  0  0  0  0  0  0  0  0
   -0.4220   14.0310   -3.8710 C   0  0  0  0  0  0  0  0  0  0  0  0
    1.7630   12.9080   -4.2350 C   0  0  0  0  0  0  0  0  0  0  0  0
    2.2870   14.1200   -4.7640 O   0  0  0  0  0  0  0  0  0  0  0  0
    0.1040   15.3680   -4.3100 C   0  0  0  0  0  0  0  0  0  0  0  0
    1.6330   15.3580   -4.3850 C   0  0  0  0  0  0  0  0  0  0  0  0
  1  2  1  0
  2  3  2  0
  1  4  1  0
  2  5  1  0
  4  6  2  0
  4  7  1  0
  6  8  1  0
  7  9  2  0
  5 10  1  0
  9 11  1  0
  8 12  2  0
  9 12  1  0
 10 13  2  0
 10 14  1  0
 11 15  1  0
 13 16  1  0
 14 17  2  0
 15 18  1  0
 16 19  2  0
 17 19  1  0
 18 20  1  0
 20 21  1  0
 21 22  2  3
 22 23  1  0
 24 22  1  6
 24 25  1  0
 24 26  1  0
 26 27  1  0
 25 28  1  0
 27 29  1  0
 28 29  1  0
M  END
