x0128_0_A-x0104_0_A
     RDKit          3D

 23 25  0  0  0  0  0  0  0  0999 V2000
   -6.8060   14.7150    2.6810 N   0  0  0  0  0  0  0  0  0  0  0  0
   -8.0180   15.2200    3.1970 C   0  0  0  0  0  0  0  0  0  0  0  0
   -8.8970   15.6600    2.4560 O   0  0  0  0  0  0  0  0  0  0  0  0
   -6.2950   14.8300    1.3600 C   0  0  0  0  0  0  0  0  0  0  0  0
   -8.1810   15.1970    4.6310 N   0  0  0  0  0  0  0  0  0  0  0  0
   -7.0700   14.6420    0.2170 C   0  0  0  0  0  0  0  0  0  0  0  0
   -4.9320   15.1610    1.1930 C   0  0  0  0  0  0  0  0  0  0  0  0
   -6.5180   14.7840   -1.0610 C   0  0  0  0  0  0  0  0  0  0  0  0
   -4.3830   15.3020   -0.0890 C   0  0  0  0  0  0  0  0  0  0  0  0
   -8.7460   16.2810    5.3350 C   0  0  0  0  0  0  0  0  0  0  0  0
   -9.2620   14.5440    5.2070 C   0  0  0  0  0  0  0  0  0  0  0  0
   -5.1770   15.1140   -1.2240 C   0  0  0  0  0  0  0  0  0  0  0  0
   -9.2850   17.4330    4.7860 C   0  0  0  0  0  0  0  0  0  0  0  0
   -8.8300   16.1540    6.7260 C   0  0  0  0  0  0  0  0  0  0  0  0
   -9.3490   13.9410    6.4430 C   0  0  0  0  0  0  0  0  0  0  0  0
  -10.7560   14.5070    4.3720 S   0  0  0  0  0  0  0  0  0  0  0  0
   -4.5510   15.2770   -2.4250 O   0  0  0  0  0  0  0  0  0  0  0  0
   -9.8830   18.3990    5.5200 N   0  0  0  0  0  0  0  0  0  0  0  0
   -9.4330   17.1170    7.5020 C   0  0  0  0  0  0  0  0  0  0  0  0
  -11.5240   13.7020    5.6700 C   0  0  0  0  0  0  0  0  0  0  0  0
  -10.6590   13.4580    6.7110 C   0  0  0  0  0  0  0  0  0  0  0  0
   -3.2140   14.8230   -2.5350 C   0  0  0  0  0  0  0  0  0  0  0  0
   -9.9480   18.2140    6.8550 C   0  0  0  0  0  0  0  0  0  0  0  0
  1  2  1  0
  2  3  2  0
  1  4  1  0
  2  5  1  0
  4  6  2  0
  4  7  1  0
  6  8  1  0
  7  9  2  0
  5 10  1  0
  5 11  1  0
  8 12  2  0
  9 12  1  0
 10 13  2  0
 10 14  1  0
 11 15  2  0
 11 16  1  0
 12 17  1  0
 13 18  1  0
 14 19  2  0
 16 20  1  0
 15 21  1  0
 20 21  2  0
 17 22  1  0
 18 23  2  0
 19 23  1  0
M  END
