x0142_0_A-x0299_0_A
     RDKit          3D

 25 27  0  0  0  0  0  0  0  0999 V2000
   15.4450    6.9170   12.8830 N   0  0  0  0  0  0  0  0  0  0  0  0
   14.4080    6.0190   12.3440 C   0  0  0  0  0  0  0  0  0  0  0  0
   15.0040    4.9330   11.5450 N   0  0  0  0  0  0  0  0  0  0  0  0
   16.0180    6.5710   14.0940 C   0  0  0  0  0  0  0  0  0  0  0  0
   15.2680    8.3470   12.9400 C   0  0  0  0  0  0  0  0  0  0  0  0
   17.2240    6.4770   14.2770 O   0  0  0  0  0  0  0  0  0  0  0  0
   15.0360    6.3570   15.2510 C   0  0  0  0  0  0  0  0  0  0  0  0
   14.5930    8.8780   14.0420 C   0  0  0  0  0  0  0  0  0  0  0  0
   15.7530    9.2590   11.9860 C   0  0  0  0  0  0  0  0  0  0  0  0
   15.1490    7.3550   16.4100 C   0  0  0  0  0  0  0  0  0  0  0  0
   14.4200   10.2450   14.2100 C   0  0  0  0  0  0  0  0  0  0  0  0
   15.5780   10.6460   12.1520 C   0  0  0  0  0  0  0  0  0  0  0  0
   14.4950    5.0580   10.2110 C   0  0  1  0  0  0  0  0  0  0  0  0
   16.1870    8.4490   16.1990 C   0  0  0  0  0  0  0  0  0  0  0  0
   14.9140   11.1350   13.2760 C   0  0  0  0  0  0  0  0  0  0  0  0
   15.4690    5.5110    9.2030 C   0  0  0  0  0  0  0  0  0  0  0  0
   13.8520    3.8240    9.6730 C   0  0  0  0  0  0  0  0  0  0  0  0
   13.7250    6.2600   10.4310 N   0  0  0  0  0  0  0  0  0  0  0  0
   14.6810   12.4380   13.5930 O   0  0  0  0  0  0  0  0  0  0  0  0
   16.2990    4.4810    8.5370 C   0  0  0  0  0  0  0  0  0  0  0  0
   14.5230    3.0360    8.8020 C   0  0  0  0  0  0  0  0  0  0  0  0
   14.3900    7.1800    9.8070 C   0  0  0  0  0  0  0  0  0  0  0  0
   15.4610    6.7990    9.0290 N   0  0  0  0  0  0  0  0  0  0  0  0
   14.9630   12.7940   14.9460 C   0  0  0  0  0  0  0  0  0  0  0  0
   15.8080    3.2810    8.3480 N   0  0  0  0  0  0  0  0  0  0  0  0
  1  2  1  0
  2  3  1  0
  1  4  1  0
  1  5  1  0
  4  6  2  0
  4  7  1  0
  5  8  2  0
  5  9  1  0
  7 10  1  0
  8 11  1  0
  9 12  2  0
 13  3  1  1
 10 14  1  0
 11 15  2  0
 12 15  1  0
 13 16  1  0
 13 17  1  0
 13 18  1  0
 15 19  1  0
 16 20  1  0
 17 21  2  0
 18 22  2  0
 16 23  2  0
 22 23  1  0
 19 24  1  0
 20 25  2  0
 21 25  1  0
M  END
