x0142_0_A-x0918_2_A
     RDKit          3D

 18 19  0  0  0  0  0  0  0  0999 V2000
   14.5910    7.0400   11.9590 N   0  0  0  0  0  0  0  0  0  0  0  0
   14.8290    6.5850   10.6670 C   0  0  0  0  0  0  0  0  0  0  0  0
   15.0200    5.2070   10.7230 N   0  0  0  0  0  0  0  0  0  0  0  0
   14.8700    8.3100   12.5040 C   0  0  0  0  0  0  0  0  0  0  0  0
   14.8610    7.2820    9.6460 O   0  0  0  0  0  0  0  0  0  0  0  0
   14.5220    8.5100   13.8440 C   0  0  0  0  0  0  0  0  0  0  0  0
   15.4610    9.3600   11.7990 C   0  0  0  0  0  0  0  0  0  0  0  0
   14.7580    9.7350   14.4770 C   0  0  0  0  0  0  0  0  0  0  0  0
   15.6960   10.5880   12.4330 C   0  0  0  0  0  0  0  0  0  0  0  0
   15.1080    4.2930    9.6570 C   0  0  0  0  0  0  0  0  0  0  0  0
   15.3480   10.7840   13.7720 C   0  0  0  0  0  0  0  0  0  0  0  0
   15.8600    4.5140    8.5140 C   0  0  0  0  0  0  0  0  0  0  0  0
   14.3980    3.0980    9.7660 C   0  0  0  0  0  0  0  0  0  0  0  0
   15.6300   12.0230   14.2730 O   0  0  0  0  0  0  0  0  0  0  0  0
   15.8680    3.5370    7.5310 C   0  0  0  0  0  0  0  0  0  0  0  0
   14.4690    2.1830    8.7280 C   0  0  0  0  0  0  0  0  0  0  0  0
   15.3530   12.2400   15.6510 C   0  0  0  0  0  0  0  0  0  0  0  0
   15.1900    2.3760    7.6080 N   0  0  0  0  0  0  0  0  0  0  0  0
  1  2  1  0
  2  3  1  0
  1  4  1  0
  2  5  2  0
  4  6  2  0
  4  7  1  0
  6  8  1  0
  7  9  2  0
  3 10  1  0
  8 11  2  0
  9 11  1  0
 10 12  2  0
 10 13  1  0
 11 14  1  0
 12 15  1  0
 13 16  2  0
 14 17  1  0
 15 18  2  0
 16 18  1  0
M  END
