x0142_0_A_α-x0158_0_B_α
     RDKit          3D

 26 27  0  0  0  0  0  0  0  0999 V2000
   14.7100    6.5530   10.9880 C   0  0  0  0  0  0  0  0  0  0  0  0
   14.8960    5.1910   10.8680 N   0  0  0  0  0  0  0  0  0  0  0  0
   14.9610    4.3190    9.7600 C   0  0  0  0  0  0  0  0  0  0  0  0
   15.0740    7.5470   10.2550 N   0  0  0  0  0  0  0  0  0  0  0  0
   14.6600    8.8460   10.8330 C   0  0  0  0  0  0  0  0  0  0  0  0
   15.8960    9.4790   11.5110 C   0  0  0  0  0  0  0  0  0  0  0  0
   15.6320    4.6960    8.5950 C   0  0  0  0  0  0  0  0  0  0  0  0
   14.3770    3.0530    9.7700 C   0  0  0  0  0  0  0  0  0  0  0  0
   15.6090   10.5980   12.5460 C   0  0  0  0  0  0  0  0  0  0  0  0
   15.6860    3.8120    7.5230 C   0  0  0  0  0  0  0  0  0  0  0  0
   14.4810    2.2390    8.6520 C   0  0  0  0  0  0  0  0  0  0  0  0
   15.1240    2.5890    7.5230 N   0  0  0  0  0  0  0  0  0  0  0  0
   14.3580   11.4940   12.3310 C   0  0  2  0  0  0  0  0  0  0  0  0
   14.4550   12.8550   12.9360 N   0  0  0  0  0  0  0  0  0  0  0  0
   13.0510   10.7630   12.7160 C   0  0  0  0  0  0  0  0  0  0  0  0
   15.7620   13.5560   12.7540 C   0  0  0  0  0  0  0  0  0  0  0  0
   11.7000   11.6830   13.4210 S   0  0  0  0  0  0  0  0  0  0  0  0
   13.3570   13.7250   12.5680 C   0  0  0  0  0  0  0  0  0  0  0  0
   15.8380   15.0620   13.0790 C   0  0  0  0  0  0  0  0  0  0  0  0
   11.5600   11.2960   14.8150 O   0  0  0  0  0  0  0  0  0  0  0  0
   10.5490   11.4710   12.5630 O   0  0  0  0  0  0  0  0  0  0  0  0
   12.1050   13.4130   13.3320 C   0  0  0  0  0  0  0  0  0  0  0  0
   15.9130   15.8120   11.9300 O   0  0  0  0  0  0  0  0  0  0  0  0
   15.8410   15.5490   14.2040 O   0  0  0  0  0  0  0  0  0  0  0  0
   16.0530   17.2350   12.1090 C   0  0  0  0  0  0  0  0  0  0  0  0
   17.3620   17.6920   11.4860 C   0  0  0  0  0  0  0  0  0  0  0  0
  1  2  1  0
  2  3  1  0
  1  4  2  3
  4  5  1  0
  5  6  1  0
  3  7  2  0
  3  8  1  0
  6  9  1  0
  7 10  1  0
  8 11  2  0
 10 12  2  0
 11 12  1  0
 13  9  1  1
 13 14  1  0
 13 15  1  0
 14 16  1  0
 17 15  1  0
 14 18  1  0
 16 19  1  0
 17 20  2  0
 17 21  2  0
 17 22  1  0
 18 22  1  0
 19 23  1  0
 19 24  2  0
 23 25  1  0
 25 26  1  0
M  END
