x0142_0_A-x0918_2_A
     RDKit          3D

 18 19  0  0  0  0  0  0  0  0999 V2000
   14.6200    7.0380   11.9600 N   0  0  0  0  0  0  0  0  0  0  0  0
   14.8310    6.5970   10.6570 C   0  0  0  0  0  0  0  0  0  0  0  0
   15.0020    5.2160   10.6850 N   0  0  0  0  0  0  0  0  0  0  0  0
   14.8890    8.3130   12.5050 C   0  0  0  0  0  0  0  0  0  0  0  0
   14.8620    7.3110    9.6490 O   0  0  0  0  0  0  0  0  0  0  0  0
   14.5350    8.5090   13.8450 C   0  0  0  0  0  0  0  0  0  0  0  0
   15.4750    9.3670   11.8040 C   0  0  0  0  0  0  0  0  0  0  0  0
   14.7580    9.7370   14.4790 C   0  0  0  0  0  0  0  0  0  0  0  0
   15.6980   10.5980   12.4380 C   0  0  0  0  0  0  0  0  0  0  0  0
   15.0530    4.3150    9.5990 C   0  0  0  0  0  0  0  0  0  0  0  0
   15.3420   10.7890   13.7770 C   0  0  0  0  0  0  0  0  0  0  0  0
   15.6650    4.5980    8.3910 C   0  0  0  0  0  0  0  0  0  0  0  0
   14.4470    3.0710    9.7670 C   0  0  0  0  0  0  0  0  0  0  0  0
   15.6140   12.0320   14.2770 O   0  0  0  0  0  0  0  0  0  0  0  0
   15.6460    3.6260    7.3980 C   0  0  0  0  0  0  0  0  0  0  0  0
   14.4810    2.1670    8.7150 C   0  0  0  0  0  0  0  0  0  0  0  0
   15.3510   12.2470   15.6590 C   0  0  0  0  0  0  0  0  0  0  0  0
   15.0670    2.4190    7.5310 N   0  0  0  0  0  0  0  0  0  0  0  0
  1  2  1  0
  2  3  1  0
  1  4  1  0
  2  5  2  0
  4  6  2  0
  4  7  1  0
  6  8  1  0
  7  9  2  0
  3 10  1  0
  8 11  2  0
  9 11  1  0
 10 12  2  0
 10 13  1  0
 11 14  1  0
 12 15  1  0
 13 16  2  0
 14 17  1  0
 15 18  2  0
 16 18  1  0
M  END
