x0142_0_A-x0796_0_B
     RDKit          3D

 32 36  0  0  0  0  0  0  0  0999 V2000
   15.0980    6.4350   12.5820 N   0  0  0  0  0  0  0  0  0  0  0  0
   14.9440    6.0910   11.2600 C   0  0  0  0  0  0  0  0  0  0  0  0
   14.7160    4.7700   11.0140 N   0  0  0  0  0  0  0  0  0  0  0  0
   15.6140    7.6800   13.1210 C   0  0  2  0  0  0  0  0  0  0  0  0
   15.0220    6.9720   10.4030 O   0  0  0  0  0  0  0  0  0  0  0  0
   16.1120    7.6260   14.5270 C   0  0  0  0  0  0  0  0  0  0  0  0
   14.5990    8.7830   13.1140 C   0  0  0  0  0  0  0  0  0  0  0  0
   16.1600    8.7480   15.3080 C   0  0  0  0  0  0  0  0  0  0  0  0
   15.3370   10.1080   13.3400 C   0  0  2  0  0  0  0  0  0  0  0  0
   14.9190    4.0650    9.8050 C   0  0  0  0  0  0  0  0  0  0  0  0
   15.7180   10.1350   14.8530 C   0  0  2  0  0  0  0  0  0  0  0  0
   15.6830    4.5320    8.7390 C   0  0  0  0  0  0  0  0  0  0  0  0
   14.3080    2.8180    9.6880 C   0  0  0  0  0  0  0  0  0  0  0  0
   14.3170   11.1210   12.8310 C   0  0  2  0  0  0  0  0  0  0  0  0
   16.4660    9.9600   12.3730 C   0  0  0  0  0  0  0  0  0  0  0  0
   16.7370   11.0950   15.1260 O   0  0  0  0  0  0  0  0  0  0  0  0
   15.7990    3.7300    7.6110 C   0  0  0  0  0  0  0  0  0  0  0  0
   14.4830    2.0940    8.5190 C   0  0  0  0  0  0  0  0  0  0  0  0
   13.9430   10.9740   11.4000 C   0  0  2  0  0  0  0  0  0  0  0  0
   13.9620   12.4460   13.4170 C   0  0  0  0  0  0  0  0  0  0  0  0
   16.0990    9.7280   11.1440 C   0  0  0  0  0  0  0  0  0  0  0  0
   16.2240   12.2550   15.7860 C   0  0  0  0  0  0  0  0  0  0  0  0
   15.2160    2.5230    7.4750 N   0  0  0  0  0  0  0  0  0  0  0  0
   12.5010   10.9210   11.5010 N   0  0  0  0  0  0  0  0  0  0  0  0
   12.5050   12.1880   13.7670 C   0  0  2  0  0  0  0  0  0  0  0  0
   14.6110    9.6990   10.8430 C   0  0  0  0  0  0  0  0  0  0  0  0
   11.7570   11.5110   12.5540 C   0  0  0  0  0  0  0  0  0  0  0  0
   11.9120   13.4250   14.2760 N   0  0  0  0  0  0  0  0  0  0  0  0
   12.3790   11.2020   14.9490 C   0  0  0  0  0  0  0  0  0  0  0  0
   10.5380   11.4260   12.4960 O   0  0  0  0  0  0  0  0  0  0  0  0
   11.7060   11.9820   16.0580 C   0  0  0  0  0  0  0  0  0  0  0  0
   12.0650   13.4090   15.7240 C   0  0  0  0  0  0  0  0  0  0  0  0
  1  2  1  0
  2  3  1  0
  4  1  1  1
  2  5  2  0
  4  6  1  0
  4  7  1  0
  6  8  2  0
  9  7  1  1
  3 10  1  0
  8 11  1  0
  9 11  1  0
 10 12  2  0
 10 13  1  0
  9 14  1  0
  9 15  1  0
 11 16  1  6
 12 17  1  0
 13 18  2  0
 14 19  1  0
 14 20  1  6
 15 21  2  0
 16 22  1  0
 17 23  2  0
 18 23  1  0
 19 24  1  0
 25 20  1  6
 19 26  1  1
 21 26  1  0
 24 27  1  0
 25 27  1  0
 25 28  1  0
 25 29  1  0
 27 30  2  0
 29 31  1  0
 28 32  1  0
 31 32  1  0
M  END
