x0142_0_A_β-x0737_0_B_α
     RDKit          3D

 23 24  0  0  0  0  0  0  0  0999 V2000
   15.0070    6.7570   12.2060 N   0  0  0  0  0  0  0  0  0  0  0  0
   15.1300    8.0470   12.7210 C   0  0  0  0  0  0  0  0  0  0  0  0
   15.7880    9.0420   12.0060 C   0  0  0  0  0  0  0  0  0  0  0  0
   14.5970    8.3690   13.9640 C   0  0  0  0  0  0  0  0  0  0  0  0
   14.7110    9.6660   14.4840 C   0  0  0  0  0  0  0  0  0  0  0  0
   15.9020   10.3320   12.5250 C   0  0  0  0  0  0  0  0  0  0  0  0
   15.3640   10.6820   13.7750 C   0  0  0  0  0  0  0  0  0  0  0  0
   15.4860   11.9960   14.2320 N   0  0  0  0  0  0  0  0  0  0  0  0
   15.3690   12.2260   15.6750 C   0  0  0  0  0  0  0  0  0  0  0  0
   14.7940   12.8900   13.2940 C   0  0  2  0  0  0  0  0  0  0  0  0
   13.4550   12.3370   13.0030 N   0  0  0  0  0  0  0  0  0  0  0  0
   15.5380   13.1000   11.9690 C   0  0  2  0  0  0  0  0  0  0  0  0
   16.1590   14.4880   11.7640 C   0  0  0  0  0  0  0  0  0  0  0  0
   12.0670   12.8050   13.7550 S   0  0  0  0  0  0  0  0  0  0  0  0
   14.7400   12.6100   10.7620 C   0  0  0  0  0  0  0  0  0  0  0  0
   13.3660   11.1010   12.1790 C   0  0  0  0  0  0  0  0  0  0  0  0
   15.4520   15.6570   11.9840 N   0  0  0  0  0  0  0  0  0  0  0  0
   17.3240   14.5370   11.3950 O   0  0  0  0  0  0  0  0  0  0  0  0
   12.0380   14.2560   13.7760 O   0  0  0  0  0  0  0  0  0  0  0  0
   11.8300   11.9950   14.9240 O   0  0  0  0  0  0  0  0  0  0  0  0
   11.0050   12.3030   12.4530 C   0  0  0  0  0  0  0  0  0  0  0  0
   14.0720   11.2490   10.8680 C   0  0  0  0  0  0  0  0  0  0  0  0
   16.1990   16.8860   12.1820 C   0  0  0  0  0  0  0  0  0  0  0  0
  1  2  1  0
  2  3  2  0
  2  4  1  0
  4  5  2  0
  3  6  1  0
  5  7  1  0
  6  7  2  0
  7  8  1  0
  8  9  1  0
 10  8  1  1
 10 11  1  0
 10 12  1  0
 12 13  1  6
 11 14  1  0
 12 15  1  0
 11 16  1  0
 13 17  1  0
 13 18  2  0
 14 19  2  0
 14 20  2  0
 14 21  1  0
 15 22  1  0
 16 22  1  0
 17 23  1  0
M  END
