x0142_0_A-x0814_0_B
     RDKit          3D

 31 33  0  0  0  0  0  0  0  0999 V2000
   15.1230    6.8040   12.0450 N   0  0  0  0  0  0  0  0  0  0  0  0
   14.9280    6.4760   10.7080 C   0  0  0  0  0  0  0  0  0  0  0  0
   14.7310    5.1030   10.6640 N   0  0  0  0  0  0  0  0  0  0  0  0
   15.1460    8.0700   12.6540 C   0  0  0  0  0  0  0  0  0  0  0  0
   14.9280    7.2430    9.7320 O   0  0  0  0  0  0  0  0  0  0  0  0
   14.5660    8.3430   13.8930 C   0  0  0  0  0  0  0  0  0  0  0  0
   15.7910    9.0890   11.9630 C   0  0  0  0  0  0  0  0  0  0  0  0
   14.6210    9.6310   14.4390 C   0  0  0  0  0  0  0  0  0  0  0  0
   15.8450   10.3670   12.5050 C   0  0  0  0  0  0  0  0  0  0  0  0
   14.9610    4.2210    9.5960 C   0  0  0  0  0  0  0  0  0  0  0  0
   15.2590   10.6580   13.7430 C   0  0  0  0  0  0  0  0  0  0  0  0
   15.7870    4.4970    8.5210 C   0  0  0  0  0  0  0  0  0  0  0  0
   14.3050    2.9940    9.6420 C   0  0  0  0  0  0  0  0  0  0  0  0
   15.3570   11.9870   14.1630 N   0  0  0  0  0  0  0  0  0  0  0  0
   15.9200    3.5340    7.5310 C   0  0  0  0  0  0  0  0  0  0  0  0
   14.5000    2.0970    8.6040 C   0  0  0  0  0  0  0  0  0  0  0  0
   15.0980   12.1070   15.6100 C   0  0  0  0  0  0  0  0  0  0  0  0
   15.2920    2.3400    7.5470 N   0  0  0  0  0  0  0  0  0  0  0  0
   14.5530   12.8600   13.2440 C   0  0  2  0  0  0  0  0  0  0  0  0
   13.2890   12.1180   12.8980 N   0  0  0  0  0  0  0  0  0  0  0  0
   15.4100   13.0310   11.9750 C   0  0  2  0  0  0  0  0  0  0  0  0
   15.8890   14.4660   11.8070 C   0  0  0  0  0  0  0  0  0  0  0  0
   11.8070   12.7020   13.3210 S   0  0  0  0  0  0  0  0  0  0  0  0
   13.2970   10.9250   12.0390 C   0  0  0  0  0  0  0  0  0  0  0  0
   14.7390   12.5210   10.7160 C   0  0  0  0  0  0  0  0  0  0  0  0
   11.9140   14.1450   13.3090 O   0  0  0  0  0  0  0  0  0  0  0  0
   17.1880   14.5840   11.3960 N   0  0  0  0  0  0  0  0  0  0  0  0
   10.7930   12.0060   12.5580 O   0  0  0  0  0  0  0  0  0  0  0  0
   15.2220   15.4700   12.0230 O   0  0  0  0  0  0  0  0  0  0  0  0
   11.7450   12.1390   15.0120 C   0  0  0  0  0  0  0  0  0  0  0  0
   14.0570   11.1630   10.7700 C   0  0  0  0  0  0  0  0  0  0  0  0
  1  2  1  0
  2  3  1  0
  1  4  1  0
  2  5  2  0
  4  6  2  0
  4  7  1  0
  6  8  1  0
  7  9  2  0
  3 10  1  0
  8 11  2  0
  9 11  1  0
 10 12  2  0
 10 13  1  0
 11 14  1  0
 12 15  1  0
 13 16  2  0
 14 17  1  0
 15 18  2  0
 16 18  1  0
 19 14  1  1
 19 20  1  0
 19 21  1  0
 21 22  1  6
 20 23  1  0
 20 24  1  0
 21 25  1  0
 23 26  2  0
 22 27  1  0
 23 28  2  0
 22 29  2  0
 23 30  1  0
 24 31  1  0
 25 31  1  0
M  END
