x0142_0_A_β-x0158_0_B_α
     RDKit          3D

 24 25  0  0  0  0  0  0  0  0999 V2000
   14.4380    6.9420   11.9170 N   0  0  0  0  0  0  0  0  0  0  0  0
   14.8670    8.1310   12.5090 C   0  0  0  0  0  0  0  0  0  0  0  0
   15.5410    9.0860   11.7640 C   0  0  0  0  0  0  0  0  0  0  0  0
   14.6290    8.3860   13.8570 C   0  0  0  0  0  0  0  0  0  0  0  0
   15.0670    9.5840   14.4410 C   0  0  0  0  0  0  0  0  0  0  0  0
   15.9760   10.2790   12.3490 C   0  0  0  0  0  0  0  0  0  0  0  0
   15.7520   10.5660   13.7080 C   0  0  0  0  0  0  0  0  0  0  0  0
   16.1830   11.7590   14.2930 N   0  0  0  0  0  0  0  0  0  0  0  0
   15.6330   12.1150   15.6080 C   0  0  0  0  0  0  0  0  0  0  0  0
   16.4310   12.8940   13.3720 C   0  0  0  0  0  0  0  0  0  0  0  0
   15.2710   13.9130   13.3180 C   0  0  1  0  0  0  0  0  0  0  0  0
   15.7650   15.3690   13.1330 C   0  0  0  0  0  0  0  0  0  0  0  0
   14.0040   13.4930   12.6280 N   0  0  0  0  0  0  0  0  0  0  0  0
   15.7500   15.7940   11.8300 O   0  0  0  0  0  0  0  0  0  0  0  0
   16.1400   16.0780   14.0530 O   0  0  0  0  0  0  0  0  0  0  0  0
   13.8790   12.0540   12.2290 C   0  0  0  0  0  0  0  0  0  0  0  0
   12.8180   14.0790   13.2560 C   0  0  0  0  0  0  0  0  0  0  0  0
   15.9700   17.2070   11.6200 C   0  0  0  0  0  0  0  0  0  0  0  0
   13.1900   11.0460   13.1520 C   0  0  0  0  0  0  0  0  0  0  0  0
   12.3780   13.2160   14.4080 C   0  0  0  0  0  0  0  0  0  0  0  0
   17.3910   17.4840   11.1700 C   0  0  0  0  0  0  0  0  0  0  0  0
   11.6890   11.7230   13.7500 S   0  0  0  0  0  0  0  0  0  0  0  0
   11.2120   10.9070   14.8550 O   0  0  0  0  0  0  0  0  0  0  0  0
   10.8440   12.0040   12.6000 O   0  0  0  0  0  0  0  0  0  0  0  0
  1  2  1  0
  2  3  2  0
  2  4  1  0
  4  5  2  0
  3  6  1  0
  5  7  1  0
  6  7  2  0
  7  8  1  0
  8  9  1  0
  8 10  1  0
 11 10  1  6
 11 12  1  0
 11 13  1  0
 12 14  1  0
 12 15  2  0
 13 16  1  0
 13 17  1  0
 14 18  1  0
 16 19  1  0
 17 20  1  0
 18 21  1  0
 22 19  1  0
 20 22  1  0
 22 23  2  0
 22 24  2  0
M  END
