x0142_0_A_β-x0796_0_B_α
     RDKit          3D

 23 26  0  0  0  0  0  0  0  0999 V2000
   15.3020    7.0090   12.7800 N   0  0  0  0  0  0  0  0  0  0  0  0
   14.6720    7.8990   13.7560 C   0  0  2  0  0  0  0  0  0  0  0  0
   14.2230    9.2240   13.1310 C   0  0  0  0  0  0  0  0  0  0  0  0
   15.6000    8.1320   14.9050 C   0  0  0  0  0  0  0  0  0  0  0  0
   16.0470    9.3500   15.2820 C   0  0  0  0  0  0  0  0  0  0  0  0
   15.3130   10.3350   13.0840 C   0  0  2  0  0  0  0  0  0  0  0  0
   15.6580   10.6210   14.5820 C   0  0  2  0  0  0  0  0  0  0  0  0
   14.7440   11.5450   12.2780 C   0  0  1  0  0  0  0  0  0  0  0  0
   16.3840    9.7450   12.2250 C   0  0  0  0  0  0  0  0  0  0  0  0
   16.6420   11.6400   14.7470 O   0  0  0  0  0  0  0  0  0  0  0  0
   13.9010   10.8910   11.1650 C   0  0  2  0  0  0  0  0  0  0  0  0
   13.9230   12.5970   13.0540 C   0  0  0  0  0  0  0  0  0  0  0  0
   15.9580    9.3240   11.0600 C   0  0  0  0  0  0  0  0  0  0  0  0
   16.2580   12.5850   15.7400 C   0  0  0  0  0  0  0  0  0  0  0  0
   12.5030   10.7130   11.5230 N   0  0  0  0  0  0  0  0  0  0  0  0
   12.6440   12.0010   13.6530 C   0  0  2  0  0  0  0  0  0  0  0  0
   14.4910    9.5020   10.7460 C   0  0  0  0  0  0  0  0  0  0  0  0
   11.8140   11.2720   12.5770 C   0  0  0  0  0  0  0  0  0  0  0  0
   11.8620   13.0750   14.2920 N   0  0  0  0  0  0  0  0  0  0  0  0
   12.8760   10.9830   14.7910 C   0  0  0  0  0  0  0  0  0  0  0  0
   10.5950   11.1410   12.6120 O   0  0  0  0  0  0  0  0  0  0  0  0
   11.8870   11.3870   15.8630 C   0  0  0  0  0  0  0  0  0  0  0  0
   11.9180   12.8860   15.7350 C   0  0  0  0  0  0  0  0  0  0  0  0
  2  1  1  6
  2  3  1  0
  2  4  1  0
  4  5  2  0
  6  3  1  1
  5  7  1  0
  6  7  1  0
  6  8  1  0
  6  9  1  0
  7 10  1  6
  8 11  1  0
  8 12  1  1
  9 13  2  0
 10 14  1  0
 11 15  1  0
 16 12  1  6
 11 17  1  1
 13 17  1  0
 15 18  1  0
 16 18  1  0
 16 19  1  0
 16 20  1  0
 18 21  2  0
 20 22  1  0
 19 23  1  0
 22 23  1  0
M  END
