x0142_0_A-x0091_0_B
     RDKit          3D

 36 39  0  0  0  0  0  0  0  0999 V2000
   14.5450    7.0340   11.9520 N   0  0  0  0  0  0  0  0  0  0  0  0
   14.8380    6.6040   10.6610 C   0  0  0  0  0  0  0  0  0  0  0  0
   15.0680    5.2290   10.7140 N   0  0  0  0  0  0  0  0  0  0  0  0
   14.8130    8.2770   12.5690 C   0  0  0  0  0  0  0  0  0  0  0  0
   14.8810    7.3110    9.6490 O   0  0  0  0  0  0  0  0  0  0  0  0
   14.5160    8.5250   13.9100 C   0  0  0  0  0  0  0  0  0  0  0  0
   15.3970    9.2990   11.8090 C   0  0  0  0  0  0  0  0  0  0  0  0
   14.7920    9.7690   14.4910 C   0  0  0  0  0  0  0  0  0  0  0  0
   15.6730   10.5450   12.3910 C   0  0  0  0  0  0  0  0  0  0  0  0
   15.1350    4.3070    9.6520 C   0  0  0  0  0  0  0  0  0  0  0  0
   15.3710   10.7830   13.7350 C   0  0  0  0  0  0  0  0  0  0  0  0
   15.8790    4.5100    8.5010 C   0  0  0  0  0  0  0  0  0  0  0  0
   14.4100    3.1210    9.7740 C   0  0  0  0  0  0  0  0  0  0  0  0
   15.6860   12.0330   14.1920 O   0  0  0  0  0  0  0  0  0  0  0  0
   15.8690    3.5260    7.5250 C   0  0  0  0  0  0  0  0  0  0  0  0
   14.4610    2.1980    8.7410 C   0  0  0  0  0  0  0  0  0  0  0  0
   15.3600   12.3320   15.5480 C   0  0  0  0  0  0  0  0  0  0  0  0
   15.1750    2.3740    7.6160 N   0  0  0  0  0  0  0  0  0  0  0  0
   15.1860   13.8450   15.7140 C   0  0  0  0  0  0  0  0  0  0  0  0
   15.4740   14.6670   14.4490 C   0  0  0  0  0  0  0  0  0  0  0  0
   16.5650   15.7440   14.5360 C   0  0  0  0  0  0  0  0  0  0  0  0
   16.2050   16.9640   15.3960 C   0  0  0  0  0  0  0  0  0  0  0  0
   14.9060   17.5760   15.0260 C   0  0  0  0  0  0  0  0  0  0  0  0
   13.7990   16.9890   15.5520 O   0  0  0  0  0  0  0  0  0  0  0  0
   14.5190   18.6400   14.2470 C   0  0  0  0  0  0  0  0  0  0  0  0
   12.6680   17.6590   15.1230 N   0  0  0  0  0  0  0  0  0  0  0  0
   13.1040   18.6540   14.3350 C   0  0  0  0  0  0  0  0  0  0  0  0
   12.1190   19.5870   13.6920 C   0  0  0  0  0  0  0  0  0  0  0  0
   12.6350   20.9610   13.6000 N   0  0  0  0  0  0  0  0  0  0  0  0
   12.2160   21.9160   14.6180 C   0  0  0  0  0  0  0  0  0  0  0  0
   13.5970   21.3510   12.6830 C   0  0  0  0  0  0  0  0  0  0  0  0
   13.8060   20.7400   11.6420 O   0  0  0  0  0  0  0  0  0  0  0  0
   14.3220   22.4670   13.0110 N   0  0  0  0  0  0  0  0  0  0  0  0
   15.5880   22.6470   12.3790 C   0  0  0  0  0  0  0  0  0  0  0  0
   16.7250   21.7420   12.7510 C   0  0  0  0  0  0  0  0  0  0  0  0
   16.7820   23.1750   13.1260 C   0  0  0  0  0  0  0  0  0  0  0  0
  1  2  1  0
  2  3  1  0
  1  4  1  0
  2  5  2  0
  4  6  2  0
  4  7  1  0
  6  8  1  0
  7  9  2  0
  3 10  1  0
  8 11  2  0
  9 11  1  0
 10 12  2  0
 10 13  1  0
 11 14  1  0
 12 15  1  0
 13 16  2  0
 14 17  1  0
 15 18  2  0
 16 18  1  0
 17 19  1  0
 19 20  1  0
 20 21  1  0
 21 22  1  0
 22 23  1  0
 23 24  1  0
 23 25  2  0
 24 26  1  0
 25 27  1  0
 26 27  2  0
 27 28  1  0
 28 29  1  0
 29 30  1  0
 29 31  1  0
 31 32  2  0
 31 33  1  0
 33 34  1  0
 34 35  1  0
 34 36  1  0
 35 36  1  0
M  END
