x0142_0_A_β-x0142_0_A_α
     RDKit          3D

 17 18  0  0  0  0  0  0  0  0999 V2000
   14.8840    7.0400   10.9230 C   0  0  0  0  0  0  0  0  0  0  0  0
   14.9320    5.6450   11.0800 N   0  0  0  0  0  0  0  0  0  0  0  0
   15.0330    4.6490   10.0420 C   0  0  0  0  0  0  0  0  0  0  0  0
   14.7430    7.4140    9.7440 O   0  0  0  0  0  0  0  0  0  0  0  0
   15.0170    8.1640   11.9420 C   0  0  0  0  0  0  0  0  0  0  0  0
   14.4860    8.1780   13.2560 C   0  0  0  0  0  0  0  0  0  0  0  0
   15.7280    9.2840   11.5120 C   0  0  0  0  0  0  0  0  0  0  0  0
   14.6860    9.3220   14.0830 C   0  0  0  0  0  0  0  0  0  0  0  0
   15.9210   10.4030   12.3230 C   0  0  0  0  0  0  0  0  0  0  0  0
   15.7630    4.8360    8.8650 C   0  0  0  0  0  0  0  0  0  0  0  0
   14.3730    3.4170   10.1870 C   0  0  0  0  0  0  0  0  0  0  0  0
   15.4070   10.4440   13.6130 C   0  0  0  0  0  0  0  0  0  0  0  0
   15.8000    3.8200    7.9140 C   0  0  0  0  0  0  0  0  0  0  0  0
   14.4710    2.4630    9.1730 C   0  0  0  0  0  0  0  0  0  0  0  0
   15.5650   11.5260   14.4530 O   0  0  0  0  0  0  0  0  0  0  0  0
   15.1700    2.6380    8.0350 N   0  0  0  0  0  0  0  0  0  0  0  0
   15.0090   11.5100   15.7610 C   0  0  0  0  0  0  0  0  0  0  0  0
  1  2  1  0
  2  3  1  0
  1  4  2  0
  1  5  1  0
  5  6  2  0
  5  7  1  0
  6  8  1  0
  7  9  2  0
  3 10  2  0
  3 11  1  0
  8 12  2  0
  9 12  1  0
 10 13  1  0
 11 14  2  0
 12 15  1  0
 13 16  2  0
 14 16  1  0
 15 17  1  0
M  END
