x0142_0_A_α-x0128_1_A_α
     RDKit          3D

 30 32  0  0  0  0  0  0  0  0999 V2000
   14.8640    6.5740   10.5560 C   0  0  0  0  0  0  0  0  0  0  0  0
   15.1090    5.2260   10.5210 N   0  0  0  0  0  0  0  0  0  0  0  0
   14.5990    4.4130    9.4500 C   0  0  0  0  0  0  0  0  0  0  0  0
   14.8880    7.3450    9.5970 O   0  0  0  0  0  0  0  0  0  0  0  0
   15.5180    4.5420    8.2730 C   0  0  0  0  0  0  0  0  0  0  0  0
   14.5300    2.9700    9.8580 C   0  0  0  0  0  0  0  0  0  0  0  0
   15.5530    3.5350    7.3830 C   0  0  0  0  0  0  0  0  0  0  0  0
   14.6150    2.0390    8.8920 C   0  0  0  0  0  0  0  0  0  0  0  0
   14.7650    2.3960    7.5520 N   0  0  0  0  0  0  0  0  0  0  0  0
   13.6680    2.0850    6.6040 C   0  0  0  0  0  0  0  0  0  0  0  0
   14.0760    2.1570    5.1240 C   0  0  0  0  0  0  0  0  0  0  0  0
   12.9540    1.8820    4.1070 C   0  0  0  0  0  0  0  0  0  0  0  0
   11.8390    0.9730    4.6480 C   0  0  0  0  0  0  0  0  0  0  0  0
   11.1930    0.1230    3.5360 C   0  0  0  0  0  0  0  0  0  0  0  0
   10.6730    0.9370    2.4280 N   0  0  0  0  0  0  0  0  0  0  0  0
   11.0020    0.3830    1.0880 C   0  0  0  0  0  0  0  0  0  0  0  0
    9.2520    1.2920    2.5140 C   0  0  0  0  0  0  0  0  0  0  0  0
   10.0940   -0.8050    0.6450 C   0  0  2  0  0  0  0  0  0  0  0  0
    8.3050    0.2820    1.9630 C   0  0  0  0  0  0  0  0  0  0  0  0
   10.0300   -0.8590   -0.8000 N   0  0  0  0  0  0  0  0  0  0  0  0
    8.6700   -0.6710    1.1060 C   0  0  0  0  0  0  0  0  0  0  0  0
    9.6310   -2.0030   -1.4590 C   0  0  0  0  0  0  0  0  0  0  0  0
   10.4300   -2.2050   -2.5650 N   0  0  0  0  0  0  0  0  0  0  0  0
    8.6940   -2.6950   -1.0840 O   0  0  0  0  0  0  0  0  0  0  0  0
   10.2660   -3.2080   -3.5360 C   0  0  0  0  0  0  0  0  0  0  0  0
    9.2330   -4.1480   -3.5300 C   0  0  0  0  0  0  0  0  0  0  0  0
   11.2100   -3.2450   -4.5700 C   0  0  0  0  0  0  0  0  0  0  0  0
    9.1450   -5.1070   -4.5430 C   0  0  0  0  0  0  0  0  0  0  0  0
   11.1220   -4.2030   -5.5810 C   0  0  0  0  0  0  0  0  0  0  0  0
   10.0900   -5.1340   -5.5690 C   0  0  0  0  0  0  0  0  0  0  0  0
  1  2  1  0
  2  3  1  0
  1  4  2  0
  3  5  1  0
  3  6  1  0
  5  7  2  0
  6  8  2  0
  7  9  1  0
  8  9  1  0
  9 10  1  0
 10 11  1  0
 11 12  1  0
 12 13  1  0
 13 14  1  0
 14 15  1  0
 15 16  1  0
 15 17  1  0
 16 18  1  0
 17 19  1  0
 18 20  1  6
 18 21  1  0
 19 21  2  0
 20 22  1  0
 22 23  1  0
 22 24  2  0
 23 25  1  0
 25 26  2  0
 25 27  1  0
 26 28  1  0
 27 29  2  0
 28 30  2  0
 29 30  1  0
M  END
