x0142_0_A_β-x0918_4_B_α
     RDKit          3D

 21 22  0  0  0  0  0  0  0  0999 V2000
   14.7780    7.0670   12.0050 N   0  0  0  0  0  0  0  0  0  0  0  0
   14.9280    8.3330   12.5780 C   0  0  0  0  0  0  0  0  0  0  0  0
   15.4610    9.3890   11.8470 C   0  0  0  0  0  0  0  0  0  0  0  0
   14.5430    8.5630   13.9000 C   0  0  0  0  0  0  0  0  0  0  0  0
   14.6910    9.8340   14.4790 C   0  0  0  0  0  0  0  0  0  0  0  0
   15.6080   10.6570   12.4250 C   0  0  0  0  0  0  0  0  0  0  0  0
   15.2240   10.9060   13.7560 C   0  0  0  0  0  0  0  0  0  0  0  0
   15.3980   12.2050   14.2750 N   0  0  0  0  0  0  0  0  0  0  0  0
   15.2380   12.2340   15.7350 C   0  0  0  0  0  0  0  0  0  0  0  0
   14.8380   13.3610   13.5420 C   0  0  0  0  0  0  0  0  0  0  0  0
   14.0030   14.3300   14.4100 C   0  0  0  0  0  0  0  0  0  0  0  0
   13.3870   15.4390   13.5470 C   0  0  0  0  0  0  0  0  0  0  0  0
   12.9770   16.7440   14.2690 C   0  0  0  0  0  0  0  0  0  0  0  0
   13.8860   17.9550   13.9530 C   0  0  0  0  0  0  0  0  0  0  0  0
   13.1770   19.0910   13.2900 N   0  0  0  0  0  0  0  0  0  0  0  0
   12.1890   19.7810   14.0000 C   0  0  0  0  0  0  0  0  0  0  0  0
   13.8960   19.8650   12.3700 C   0  0  0  0  0  0  0  0  0  0  0  0
   12.1400   21.1250   14.0930 C   0  0  0  0  0  0  0  0  0  0  0  0
   13.9210   21.2120   12.3810 C   0  0  0  0  0  0  0  0  0  0  0  0
   13.1560   21.9930   13.4090 C   0  0  0  0  0  0  0  0  0  0  0  0
   14.0570   22.6260   14.3640 N   0  0  0  0  0  0  0  0  0  0  0  0
  1  2  1  0
  2  3  2  0
  2  4  1  0
  4  5  2  0
  3  6  1  0
  5  7  1  0
  6  7  2  0
  7  8  1  0
  8  9  1  0
  8 10  1  0
 10 11  1  0
 11 12  1  0
 12 13  1  0
 13 14  1  0
 14 15  1  0
 15 16  1  0
 15 17  1  0
 16 18  2  0
 17 19  2  0
 18 20  1  0
 19 20  1  0
 20 21  1  0
M  END
