x0159_0_B-x0524_0_A
     RDKit          3D

 29 32  0  0  0  0  0  0  0  0999 V2000
    1.0280   10.3410   -9.4310 N   0  0  0  0  0  0  0  0  0  0  0  0
    1.2670    9.2310   -8.4620 C   0  0  0  0  0  0  0  0  0  0  0  0
    1.9450    7.9640   -9.0430 C   0  0  0  0  0  0  0  0  0  0  0  0
    1.6160   10.2910  -10.6490 C   0  0  0  0  0  0  0  0  0  0  0  0
    1.8940   11.4090  -11.4240 N   0  0  0  0  0  0  0  0  0  0  0  0
    2.0040    9.2320  -11.2580 N   0  0  0  0  0  0  0  0  0  0  0  0
    2.5480    9.6300  -12.4360 C   0  0  0  0  0  0  0  0  0  0  0  0
    2.5180   10.9850  -12.5920 C   0  0  0  0  0  0  0  0  0  0  0  0
    1.8510    6.6470   -8.2740 C   0  0  0  0  0  0  0  0  0  0  0  0
    2.7790    5.6260   -8.5380 C   0  0  0  0  0  0  0  0  0  0  0  0
    0.8610    6.4180   -7.3110 C   0  0  0  0  0  0  0  0  0  0  0  0
    3.0460   11.6000  -13.7270 C   0  0  0  0  0  0  0  0  0  0  0  0
    3.0720    8.7700  -13.3740 C   0  0  0  0  0  0  0  0  0  0  0  0
    2.9200    7.4370  -12.9620 N   0  0  0  0  0  0  0  0  0  0  0  0
    2.7150    4.4090   -7.8620 C   0  0  0  0  0  0  0  0  0  0  0  0
    0.8020    5.1940   -6.6330 C   0  0  0  0  0  0  0  0  0  0  0  0
    3.6080   10.7420  -14.6970 C   0  0  0  0  0  0  0  0  0  0  0  0
    3.6240    9.3390  -14.5340 C   0  0  0  0  0  0  0  0  0  0  0  0
    1.7300    4.2000   -6.9160 C   0  0  0  0  0  0  0  0  0  0  0  0
    1.9200    7.2500  -11.9580 C   0  0  0  0  0  0  0  0  0  0  0  0
    1.8790    6.2870  -10.9470 C   0  0  0  0  0  0  0  0  0  0  0  0
    0.8550    8.1770  -11.9980 C   0  0  0  0  0  0  0  0  0  0  0  0
    0.8150    6.2770  -10.0050 C   0  0  0  0  0  0  0  0  0  0  0  0
   -0.1930    8.1730  -11.0660 C   0  0  0  0  0  0  0  0  0  0  0  0
   -0.2260    7.2310  -10.0490 C   0  0  0  0  0  0  0  0  0  0  0  0
   -1.2470    7.1860   -9.0550 N   0  0  0  0  0  0  0  0  0  0  0  0
   -1.5330    8.1770   -8.1040 C   0  0  0  0  0  0  0  0  0  0  0  0
   -1.8270    7.6080   -6.7340 C   0  0  0  0  0  0  0  0  0  0  0  0
   -1.5670    9.3950   -8.2750 O   0  0  0  0  0  0  0  0  0  0  0  0
  1  2  1  0
  2  3  1  0
  1  4  1  0
  4  5  1  0
  4  6  2  0
  6  7  1  0
  5  8  1  0
  7  8  2  0
  3  9  1  0
  9 10  2  0
  9 11  1  0
  8 12  1  0
  7 13  1  0
 13 14  1  0
 10 15  1  0
 11 16  2  0
 12 17  2  0
 13 18  2  0
 17 18  1  0
 15 19  2  0
 16 19  1  0
 14 20  1  0
 20 21  2  0
 20 22  1  0
 21 23  1  0
 22 24  2  0
 23 25  2  0
 24 25  1  0
 25 26  1  0
 26 27  1  0
 27 28  1  0
 27 29  2  0
M  END
