x0158_0_B-x0091_0_B
     RDKit          3D

 30 32  0  0  0  0  0  0  0  0999 V2000
   17.3340   18.0500   11.4630 C   0  0  0  0  0  0  0  0  0  0  0  0
   16.1390   17.2310   11.8910 C   0  0  0  0  0  0  0  0  0  0  0  0
   16.6320   15.8950   12.0800 O   0  0  0  0  0  0  0  0  0  0  0  0
   15.9790   15.1090   12.9610 C   0  0  0  0  0  0  0  0  0  0  0  0
   16.0520   15.2900   14.2240 N   0  0  0  0  0  0  0  0  0  0  0  0
   15.1860   14.0020   12.2880 C   0  0  0  0  0  0  0  0  0  0  0  0
   16.8890   16.3890   14.7030 C   0  0  0  0  0  0  0  0  0  0  0  0
   14.3190   13.1350   13.0910 N   0  0  0  0  0  0  0  0  0  0  0  0
   16.1300   17.1800   15.7640 C   0  0  0  0  0  0  0  0  0  0  0  0
   14.0740   11.8420   12.4120 C   0  0  0  0  0  0  0  0  0  0  0  0
   13.1200   13.8410   13.5190 C   0  0  0  0  0  0  0  0  0  0  0  0
   13.1900   10.8170   13.1140 C   0  0  0  0  0  0  0  0  0  0  0  0
   12.4110   13.0080   14.5520 C   0  0  0  0  0  0  0  0  0  0  0  0
   14.8440   17.7150   15.2550 C   0  0  0  0  0  0  0  0  0  0  0  0
   11.7240   11.5820   13.7470 S   0  0  0  0  0  0  0  0  0  0  0  0
   13.7200   17.0720   15.6630 O   0  0  0  0  0  0  0  0  0  0  0  0
   14.4940   18.7580   14.4300 C   0  0  0  0  0  0  0  0  0  0  0  0
   11.1540   10.7240   14.7720 O   0  0  0  0  0  0  0  0  0  0  0  0
   10.9340   11.9980   12.5990 O   0  0  0  0  0  0  0  0  0  0  0  0
   12.6090   17.6860   15.1120 N   0  0  0  0  0  0  0  0  0  0  0  0
   13.0780   18.7010   14.3720 C   0  0  0  0  0  0  0  0  0  0  0  0
   12.1450   19.6020   13.6190 C   0  0  0  0  0  0  0  0  0  0  0  0
   12.6410   20.9770   13.5650 N   0  0  0  0  0  0  0  0  0  0  0  0
   12.2130   21.8860   14.6120 C   0  0  0  0  0  0  0  0  0  0  0  0
   13.6180   21.3840   12.6700 C   0  0  0  0  0  0  0  0  0  0  0  0
   13.8770   20.7630   11.6490 O   0  0  0  0  0  0  0  0  0  0  0  0
   14.2830   22.5360   13.0090 N   0  0  0  0  0  0  0  0  0  0  0  0
   15.6340   22.7280   12.5640 C   0  0  0  0  0  0  0  0  0  0  0  0
   16.6900   21.7620   13.0090 C   0  0  0  0  0  0  0  0  0  0  0  0
   16.7160   23.1580   13.5160 C   0  0  0  0  0  0  0  0  0  0  0  0
  1  2  1  0
  2  3  1  0
  3  4  1  0
  4  5  2  3
  4  6  1  0
  5  7  1  0
  6  8  1  0
  7  9  1  0
  8 10  1  0
  8 11  1  0
 10 12  1  0
 11 13  1  0
  9 14  1  0
 15 12  1  0
 13 15  1  0
 14 16  1  0
 14 17  2  0
 15 18  2  0
 15 19  2  0
 16 20  1  0
 17 21  1  0
 20 21  2  0
 21 22  1  0
 22 23  1  0
 23 24  1  0
 23 25  1  0
 25 26  2  0
 25 27  1  0
 27 28  1  0
 28 29  1  0
 28 30  1  0
 29 30  1  0
M  END
