x0158_0_B-x0905_0_B
     RDKit          3D

 22 23  0  0  0  0  0  0  0  0999 V2000
   16.8460   17.9350   11.1740 C   0  0  0  0  0  0  0  0  0  0  0  0
   16.2190   17.3580   12.4260 C   0  0  2  0  0  0  0  0  0  0  0  0
   15.8220   15.9940   12.1300 O   0  0  0  0  0  0  0  0  0  0  0  0
   15.0390   18.1720   13.0140 C   0  0  0  0  0  0  0  0  0  0  0  0
   15.8710   15.1370   13.2030 C   0  0  0  0  0  0  0  0  0  0  0  0
   14.3160   19.0470   12.1160 O   0  0  0  0  0  0  0  0  0  0  0  0
   15.9650   15.5160   14.3580 O   0  0  0  0  0  0  0  0  0  0  0  0
   15.7960   13.6760   12.7320 C   0  0  0  0  0  0  0  0  0  0  0  0
   13.5460   19.9350   12.8480 C   0  0  0  0  0  0  0  0  0  0  0  0
   14.5170   12.9960   13.0570 N   0  0  0  0  0  0  0  0  0  0  0  0
   12.5600   19.4480   13.6250 N   0  0  0  0  0  0  0  0  0  0  0  0
   13.8440   21.2860   12.7510 C   0  0  0  0  0  0  0  0  0  0  0  0
   14.2550   11.7480   12.3360 C   0  0  0  0  0  0  0  0  0  0  0  0
   13.3950   13.8860   12.8340 C   0  0  0  0  0  0  0  0  0  0  0  0
   11.8460   20.3350   14.3360 C   0  0  0  0  0  0  0  0  0  0  0  0
   13.0850   22.1830   13.5020 C   0  0  0  0  0  0  0  0  0  0  0  0
   13.2070   10.8360   12.9540 C   0  0  0  0  0  0  0  0  0  0  0  0
   12.0790   13.4530   13.4220 C   0  0  0  0  0  0  0  0  0  0  0  0
   12.0680   21.7000   14.3110 C   0  0  0  0  0  0  0  0  0  0  0  0
   11.7390   11.6970   13.4780 S   0  0  0  0  0  0  0  0  0  0  0  0
   11.5280   11.3400   14.8720 O   0  0  0  0  0  0  0  0  0  0  0  0
   10.6620   11.4170   12.5460 O   0  0  0  0  0  0  0  0  0  0  0  0
  2  1  1  6
  2  3  1  0
  2  4  1  0
  3  5  1  0
  4  6  1  0
  5  7  2  0
  5  8  1  0
  6  9  1  0
  8 10  1  0
  9 11  2  0
  9 12  1  0
 10 13  1  0
 10 14  1  0
 11 15  1  0
 12 16  2  0
 13 17  1  0
 14 18  1  0
 15 19  2  0
 16 19  1  0
 20 17  1  0
 18 20  1  0
 20 21  2  0
 20 22  2  0
M  END
