x0159_0_B_α-5cb5_N_0_N_γ
     RDKit          3D

 22 23  0  0  0  0  0  0  0  0999 V2000
    2.1060    8.0610   -9.0340 C   0  0  0  0  0  0  0  0  0  0  0  0
    1.1090    7.0400   -9.5420 C   0  0  2  0  0  0  0  0  0  0  0  0
   -0.3230    7.6030   -9.6530 C   0  0  0  0  0  0  0  0  0  0  0  0
    1.1450    5.7800   -8.6970 C   0  0  0  0  0  0  0  0  0  0  0  0
   -0.7130    8.5250   -8.4890 C   0  0  0  0  0  0  0  0  0  0  0  0
    0.9300    5.7820   -7.3140 C   0  0  0  0  0  0  0  0  0  0  0  0
    1.3990    4.5710   -9.3360 C   0  0  0  0  0  0  0  0  0  0  0  0
   -0.1420    9.9460   -8.6000 C   0  0  0  0  0  0  0  0  0  0  0  0
    0.9700    4.5880   -6.6000 C   0  0  0  0  0  0  0  0  0  0  0  0
    1.4300    3.3930   -8.6200 C   0  0  0  0  0  0  0  0  0  0  0  0
    0.5090   10.3920   -7.2960 C   0  0  0  0  0  0  0  0  0  0  0  0
    1.2200    3.3970   -7.2630 C   0  0  0  0  0  0  0  0  0  0  0  0
    0.0540   11.7520   -6.7510 C   0  0  0  0  0  0  0  0  0  0  0  0
    1.1540   12.5610   -6.0660 C   0  0  0  0  0  0  0  0  0  0  0  0
    0.7890   13.9450   -6.0040 O   0  0  0  0  0  0  0  0  0  0  0  0
    0.5910   14.3790   -4.6770 C   0  0  1  0  0  0  0  0  0  0  0  0
    0.7810   15.8800   -4.3920 C   0  0  1  0  0  0  0  0  0  0  0  0
   -0.8260   14.1610   -4.1980 C   0  0  1  0  0  0  0  0  0  0  0  0
   -1.1420   12.7900   -4.0000 O   0  0  0  0  0  0  0  0  0  0  0  0
    0.2810   16.9020   -5.4080 C   0  0  0  0  0  0  0  0  0  0  0  0
   -0.7430   14.9250   -2.8980 C   0  0  0  0  0  0  0  0  0  0  0  0
    0.0550   16.0940   -3.1690 O   0  0  0  0  0  0  0  0  0  0  0  0
  2  1  1  1
  2  3  1  0
  2  4  1  0
  3  5  1  0
  4  6  2  0
  4  7  1  0
  5  8  1  0
  6  9  1  0
  7 10  2  0
  8 11  1  0
  9 12  2  0
 10 12  1  0
 11 13  1  0
 13 14  1  0
 14 15  1  0
 16 15  1  6
 16 17  1  0
 16 18  1  0
 18 19  1  1
 17 20  1  6
 18 21  1  0
 17 22  1  0
 21 22  1  0
M  END
