x0159_0_B-x0253_0_A
     RDKit          3D

 32 35  0  0  0  0  0  0  0  0999 V2000
    2.3350    8.4370  -10.1680 N   0  0  0  0  0  0  0  0  0  0  0  0
    0.9690    8.0890   -9.9620 C   0  0  1  0  0  0  0  0  0  0  0  0
    0.7600    6.5500   -9.9480 C   0  0  0  0  0  0  0  0  0  0  0  0
    2.8280    8.9420  -11.2820 C   0  0  0  0  0  0  0  0  0  0  0  0
    2.3390   10.1070  -11.8220 N   0  0  0  0  0  0  0  0  0  0  0  0
    3.7960    8.4660  -11.9900 N   0  0  0  0  0  0  0  0  0  0  0  0
    0.2940    8.9020   -8.9170 C   0  0  0  0  0  0  0  0  0  0  0  0
    3.9740    9.3360  -13.0130 C   0  0  0  0  0  0  0  0  0  0  0  0
    3.0730   10.3880  -12.9420 C   0  0  0  0  0  0  0  0  0  0  0  0
    1.2090    5.6120   -8.8420 C   0  0  0  0  0  0  0  0  0  0  0  0
    0.9050    9.9510   -8.2420 C   0  0  0  0  0  0  0  0  0  0  0  0
   -1.0010    8.5630   -8.5970 C   0  0  0  0  0  0  0  0  0  0  0  0
    2.1900    4.6680   -9.1830 C   0  0  0  0  0  0  0  0  0  0  0  0
    0.7250    5.6070   -7.5290 C   0  0  0  0  0  0  0  0  0  0  0  0
    3.0430   11.4290  -13.8660 C   0  0  0  0  0  0  0  0  0  0  0  0
    4.9020    9.2830  -14.0440 C   0  0  0  0  0  0  0  0  0  0  0  0
   -1.6880    9.2380   -7.6120 C   0  0  0  0  0  0  0  0  0  0  0  0
    0.2470   10.6440   -7.2420 C   0  0  0  0  0  0  0  0  0  0  0  0
   -3.0850    8.8090   -7.3070 C   0  0  0  0  0  0  0  0  0  0  0  0
    0.9170   11.7420   -6.4950 C   0  0  0  0  0  0  0  0  0  0  0  0
    2.6710    3.7530   -8.2600 C   0  0  0  0  0  0  0  0  0  0  0  0
    1.2120    4.6830   -6.6050 C   0  0  0  0  0  0  0  0  0  0  0  0
    3.9880   11.3640  -14.8950 C   0  0  0  0  0  0  0  0  0  0  0  0
    4.9020   10.3110  -14.9870 C   0  0  0  0  0  0  0  0  0  0  0  0
   -1.0610   10.2850   -6.9250 C   0  0  0  0  0  0  0  0  0  0  0  0
    0.2810   12.2500   -5.4010 N   0  0  0  0  0  0  0  0  0  0  0  0
    2.0190   12.1650   -6.7810 O   0  0  0  0  0  0  0  0  0  0  0  0
    2.1830    3.7600   -6.9740 C   0  0  0  0  0  0  0  0  0  0  0  0
    1.0800   12.8790   -4.3630 C   0  0  0  0  0  0  0  0  0  0  0  0
    0.8320   12.2920   -2.9770 C   0  0  0  0  0  0  0  0  0  0  0  0
    1.3270   12.7460   -1.9610 O   0  0  0  0  0  0  0  0  0  0  0  0
    0.0070   11.2190   -2.9580 O   0  0  0  0  0  0  0  0  0  0  0  0
  1  2  1  0
  2  3  1  1
  1  4  1  0
  4  5  1  0
  4  6  2  0
  2  7  1  0
  6  8  1  0
  5  9  1  0
  8  9  2  0
  3 10  1  0
  7 11  2  0
  7 12  1  0
 10 13  2  0
 10 14  1  0
  9 15  1  0
  8 16  1  0
 12 17  2  0
 11 18  1  0
 17 19  1  0
 18 20  1  0
 13 21  1  0
 14 22  2  0
 15 23  2  0
 16 24  2  0
 23 24  1  0
 17 25  1  0
 18 25  2  0
 20 26  1  0
 20 27  2  0
 21 28  2  0
 22 28  1  0
 26 29  1  0
 29 30  1  0
 30 31  2  0
 30 32  1  0
M  END
