x0159_0_B_α-x0805_0_A_β
     RDKit          3D

 22 23  0  0  0  0  0  0  0  0999 V2000
    2.2730    7.9270   -9.5060 C   0  0  0  0  0  0  0  0  0  0  0  0
    1.0280    7.2840   -8.9070 C   0  0  2  0  0  0  0  0  0  0  0  0
    0.3160    8.1810   -7.8470 C   0  0  0  0  0  0  0  0  0  0  0  0
    1.3720    5.9400   -8.2990 C   0  0  0  0  0  0  0  0  0  0  0  0
    0.6260    9.6930   -7.8800 C   0  0  0  0  0  0  0  0  0  0  0  0
    0.7690    5.5250   -7.1170 C   0  0  0  0  0  0  0  0  0  0  0  0
    2.3090    5.0910   -8.9160 C   0  0  0  0  0  0  0  0  0  0  0  0
    0.6850   10.3740   -6.5020 C   0  0  0  0  0  0  0  0  0  0  0  0
    1.0850    4.3050   -6.5650 C   0  0  0  0  0  0  0  0  0  0  0  0
    2.6250    3.8580   -8.3540 C   0  0  0  0  0  0  0  0  0  0  0  0
    0.0920    9.5030   -5.3840 C   0  0  0  0  0  0  0  0  0  0  0  0
    2.0130    3.4640   -7.1790 C   0  0  0  0  0  0  0  0  0  0  0  0
   -0.5430   10.2960   -4.2550 C   0  0  0  0  0  0  0  0  0  0  0  0
    0.3620   10.5920   -3.1550 O   0  0  0  0  0  0  0  0  0  0  0  0
    0.5200   11.9110   -2.8550 C   0  0  0  0  0  0  0  0  0  0  0  0
    0.6780   12.3610   -1.7040 O   0  0  0  0  0  0  0  0  0  0  0  0
    0.4500   12.7830   -4.1030 C   0  0  1  0  0  0  0  0  0  0  0  0
   -0.4260   14.0440   -3.9980 C   0  0  0  0  0  0  0  0  0  0  0  0
    1.8570   13.0820   -4.6180 C   0  0  0  0  0  0  0  0  0  0  0  0
    2.4390   14.1950   -3.9460 O   0  0  0  0  0  0  0  0  0  0  0  0
    0.3270   15.2730   -3.4960 C   0  0  0  0  0  0  0  0  0  0  0  0
    1.6810   15.3830   -4.1550 C   0  0  0  0  0  0  0  0  0  0  0  0
  2  1  1  1
  2  3  1  0
  2  4  1  0
  3  5  1  0
  4  6  2  0
  4  7  1  0
  5  8  1  0
  6  9  1  0
  7 10  2  0
  8 11  1  0
  9 12  2  0
 10 12  1  0
 11 13  1  0
 13 14  1  0
 14 15  1  0
 15 16  2  0
 17 15  1  1
 17 18  1  0
 17 19  1  0
 19 20  1  0
 18 21  1  0
 20 22  1  0
 21 22  1  0
M  END
