x0158_0_B_α-x0796_0_B_α
     RDKit          3D

 23 25  0  0  0  0  0  0  0  0999 V2000
   17.3260   17.7460   11.3880 C   0  0  0  0  0  0  0  0  0  0  0  0
   15.9890   17.4450   12.0480 C   0  0  0  0  0  0  0  0  0  0  0  0
   15.6210   16.0730   11.8210 O   0  0  0  0  0  0  0  0  0  0  0  0
   15.5990   15.2990   12.9440 C   0  0  0  0  0  0  0  0  0  0  0  0
   15.6890   15.7340   14.0840 O   0  0  0  0  0  0  0  0  0  0  0  0
   15.4640   13.8050   12.6450 C   0  0  0  0  0  0  0  0  0  0  0  0
   14.1000   13.1930   12.5300 N   0  0  0  0  0  0  0  0  0  0  0  0
   14.1320   11.6940   12.3670 C   0  0  2  0  0  0  0  0  0  0  0  0
   13.0480   13.8200   13.3870 C   0  0  0  0  0  0  0  0  0  0  0  0
   13.2540   10.7630   13.2370 C   0  0  0  0  0  0  0  0  0  0  0  0
   12.6200   12.8270   14.4670 C   0  0  1  0  0  0  0  0  0  0  0  0
   15.6080   11.3150   12.6270 C   0  0  0  0  0  0  0  0  0  0  0  0
   13.6920   11.1130   11.0710 C   0  0  0  0  0  0  0  0  0  0  0  0
   11.7390   11.5170   13.6890 S   0  0  0  0  0  0  0  0  0  0  0  0
   13.8570   12.1530   15.0020 C   0  0  0  0  0  0  0  0  0  0  0  0
   12.0930   13.2310   15.8480 C   0  0  0  0  0  0  0  0  0  0  0  0
   16.1980   10.2340   12.1220 C   0  0  0  0  0  0  0  0  0  0  0  0
   14.2770   10.0090   10.5990 C   0  0  0  0  0  0  0  0  0  0  0  0
   11.0750   10.6910   14.6750 O   0  0  0  0  0  0  0  0  0  0  0  0
   11.0540   11.9820   12.5020 O   0  0  0  0  0  0  0  0  0  0  0  0
   13.2440   11.1180   15.9280 C   0  0  0  0  0  0  0  0  0  0  0  0
   12.0650   11.8620   16.5480 C   0  0  0  0  0  0  0  0  0  0  0  0
   15.4270    9.3030   11.2610 C   0  0  0  0  0  0  0  0  0  0  0  0
  1  2  1  0
  2  3  1  0
  3  4  1  0
  4  5  2  0
  4  6  1  0
  6  7  1  0
  7  8  1  0
  7  9  1  0
  8 10  1  1
 11  9  1  6
  8 12  1  0
  8 13  1  0
 14 10  1  0
 11 14  1  0
 11 15  1  0
 11 16  1  0
 12 17  2  0
 13 18  2  0
 14 19  2  0
 14 20  2  0
 15 21  1  0
 16 22  1  0
 21 22  1  0
 17 23  1  0
 18 23  1  0
M  END
