x0159_0_B_β-x0685_1_A_α
     RDKit          3D

 25 27  0  0  0  0  0  0  0  0999 V2000
    1.8250    8.4760  -10.0420 N   0  0  0  0  0  0  0  0  0  0  0  0
    2.4210    8.9830  -11.1330 C   0  0  0  0  0  0  0  0  0  0  0  0
    2.0270   10.1600  -11.7030 N   0  0  0  0  0  0  0  0  0  0  0  0
    3.4200    8.4410  -11.7670 N   0  0  0  0  0  0  0  0  0  0  0  0
    0.9380   10.9610  -11.2050 C   0  0  0  0  0  0  0  0  0  0  0  0
    2.8520   10.4020  -12.7920 C   0  0  0  0  0  0  0  0  0  0  0  0
    3.7070    9.2990  -12.7960 C   0  0  0  0  0  0  0  0  0  0  0  0
   -0.1900   10.1090  -10.5800 C   0  0  0  0  0  0  0  0  0  0  0  0
    2.9510   11.4270  -13.7460 C   0  0  0  0  0  0  0  0  0  0  0  0
    4.6980    9.1900  -13.7760 C   0  0  0  0  0  0  0  0  0  0  0  0
    3.9530   11.3000  -14.7170 C   0  0  0  0  0  0  0  0  0  0  0  0
    4.8120   10.2010  -14.7350 C   0  0  0  0  0  0  0  0  0  0  0  0
   -0.2780   10.1020   -9.0310 C   0  0  2  0  0  0  0  0  0  0  0  0
   -0.3960    8.7650   -8.2900 C   0  0  0  0  0  0  0  0  0  0  0  0
   -1.4560   10.9730   -8.6120 C   0  0  0  0  0  0  0  0  0  0  0  0
   -0.6070    8.8840   -6.7670 C   0  0  0  0  0  0  0  0  0  0  0  0
   -1.4160   11.3250   -7.1350 C   0  0  0  0  0  0  0  0  0  0  0  0
   -1.4310   10.0830   -6.2280 C   0  0  2  0  0  0  0  0  0  0  0  0
   -1.0010   10.4750   -4.8690 N   0  0  0  0  0  0  0  0  0  0  0  0
   -1.4150   11.8380   -4.4450 C   0  0  0  0  0  0  0  0  0  0  0  0
   -0.2730   12.7380   -3.9860 C   0  0  0  0  0  0  0  0  0  0  0  0
    0.6180   12.0490   -2.5950 S   0  0  0  0  0  0  0  0  0  0  0  0
    2.1630   12.3360   -2.8850 O   0  0  0  0  0  0  0  0  0  0  0  0
    0.3100   10.4700   -2.5310 O   0  0  0  0  0  0  0  0  0  0  0  0
    0.1370   12.7790   -1.2570 O   0  0  0  0  0  0  0  0  0  0  0  0
  1  2  1  0
  2  3  1  0
  2  4  2  0
  3  5  1  0
  3  6  1  0
  4  7  1  0
  6  7  2  0
  5  8  1  0
  6  9  1  0
  7 10  1  0
  9 11  2  0
 10 12  2  0
 11 12  1  0
 13  8  1  6
 13 14  1  0
 13 15  1  0
 14 16  1  0
 15 17  1  0
 16 18  1  0
 17 18  1  0
 18 19  1  1
 19 20  1  0
 20 21  1  0
 21 22  1  0
 22 23  1  0
 22 24  1  0
 22 25  1  0
M  END
