x0158_0_B-x0905_0_B
     RDKit          3D

 22 23  0  0  0  0  0  0  0  0999 V2000
   16.8430   17.9320   11.1740 C   0  0  0  0  0  0  0  0  0  0  0  0
   16.2150   17.3580   12.4270 C   0  0  2  0  0  0  0  0  0  0  0  0
   15.8210   15.9920   12.1310 O   0  0  0  0  0  0  0  0  0  0  0  0
   15.0370   18.1730   13.0130 C   0  0  0  0  0  0  0  0  0  0  0  0
   15.8740   15.1380   13.2030 C   0  0  0  0  0  0  0  0  0  0  0  0
   14.3180   19.0490   12.1150 O   0  0  0  0  0  0  0  0  0  0  0  0
   15.9700   15.5150   14.3580 O   0  0  0  0  0  0  0  0  0  0  0  0
   15.8000   13.6740   12.7310 C   0  0  0  0  0  0  0  0  0  0  0  0
   13.5470   19.9370   12.8470 C   0  0  0  0  0  0  0  0  0  0  0  0
   14.5160   13.0000   13.0520 N   0  0  0  0  0  0  0  0  0  0  0  0
   12.5610   19.4480   13.6240 N   0  0  0  0  0  0  0  0  0  0  0  0
   13.8440   21.2890   12.7510 C   0  0  0  0  0  0  0  0  0  0  0  0
   14.2570   11.7430   12.3340 C   0  0  0  0  0  0  0  0  0  0  0  0
   13.3960   13.8840   12.8280 C   0  0  0  0  0  0  0  0  0  0  0  0
   11.8470   20.3360   14.3360 C   0  0  0  0  0  0  0  0  0  0  0  0
   13.0850   22.1840   13.5020 C   0  0  0  0  0  0  0  0  0  0  0  0
   13.2060   10.8370   12.9560 C   0  0  0  0  0  0  0  0  0  0  0  0
   12.0770   13.4540   13.4210 C   0  0  0  0  0  0  0  0  0  0  0  0
   12.0670   21.6990   14.3110 C   0  0  0  0  0  0  0  0  0  0  0  0
   11.7400   11.6950   13.4790 S   0  0  0  0  0  0  0  0  0  0  0  0
   11.5280   11.3360   14.8720 O   0  0  0  0  0  0  0  0  0  0  0  0
   10.6610   11.4160   12.5490 O   0  0  0  0  0  0  0  0  0  0  0  0
  2  1  1  6
  2  3  1  0
  2  4  1  0
  3  5  1  0
  4  6  1  0
  5  7  2  0
  5  8  1  0
  6  9  1  0
  8 10  1  0
  9 11  2  0
  9 12  1  0
 10 13  1  0
 10 14  1  0
 11 15  1  0
 12 16  2  0
 13 17  1  0
 14 18  1  0
 15 19  2  0
 16 19  1  0
 20 17  1  0
 18 20  1  0
 20 21  2  0
 20 22  2  0
M  END
