x0159_0_B-x0855_0_A
     RDKit          3D

 31 34  0  0  0  0  0  0  0  0999 V2000
    1.4820    9.1720  -10.0900 N   0  0  0  0  0  0  0  0  0  0  0  0
    1.7730    8.0740   -9.1800 C   0  0  0  0  0  0  0  0  0  0  0  0
    0.8110    6.8730   -9.3300 C   0  0  2  0  0  0  0  0  0  0  0  0
    2.2200    9.4390  -11.1790 C   0  0  0  0  0  0  0  0  0  0  0  0
    2.0160   10.5700  -11.9190 N   0  0  0  0  0  0  0  0  0  0  0  0
    3.1920    8.7110  -11.6730 N   0  0  0  0  0  0  0  0  0  0  0  0
   -0.6780    7.2970   -9.2080 C   0  0  0  0  0  0  0  0  0  0  0  0
    3.6430    9.4100  -12.7710 C   0  0  0  0  0  0  0  0  0  0  0  0
    2.9190   10.5820  -12.9460 C   0  0  0  0  0  0  0  0  0  0  0  0
    1.2730    5.6940   -8.5050 C   0  0  0  0  0  0  0  0  0  0  0  0
   -1.4310    6.8220   -7.9510 C   0  0  0  0  0  0  0  0  0  0  0  0
    2.1790    4.7880   -9.0800 C   0  0  0  0  0  0  0  0  0  0  0  0
    0.8360    5.4720   -7.2010 C   0  0  0  0  0  0  0  0  0  0  0  0
    3.1540   11.4940  -13.9730 C   0  0  0  0  0  0  0  0  0  0  0  0
    4.6740    9.1050  -13.6690 C   0  0  0  0  0  0  0  0  0  0  0  0
   -1.2460    7.7920   -6.7770 C   0  0  0  0  0  0  0  0  0  0  0  0
    2.6340    3.6900   -8.3660 C   0  0  0  0  0  0  0  0  0  0  0  0
    1.2910    4.3780   -6.4990 C   0  0  0  0  0  0  0  0  0  0  0  0
    4.1890   11.1740  -14.8590 C   0  0  0  0  0  0  0  0  0  0  0  0
    4.9360   10.0040  -14.7130 C   0  0  0  0  0  0  0  0  0  0  0  0
   -1.9010    9.0280   -7.0860 O   0  0  0  0  0  0  0  0  0  0  0  0
    2.1920    3.4880   -7.0800 C   0  0  0  0  0  0  0  0  0  0  0  0
   -1.5360   10.0610   -6.2910 C   0  0  0  0  0  0  0  0  0  0  0  0
   -0.3110   10.6700   -6.1870 C   0  0  0  0  0  0  0  0  0  0  0  0
   -2.3630   10.7430   -5.3780 C   0  0  0  0  0  0  0  0  0  0  0  0
   -0.4610   11.6450   -5.2380 N   0  0  0  0  0  0  0  0  0  0  0  0
   -1.7100   11.7170   -4.7300 N   0  0  0  0  0  0  0  0  0  0  0  0
    0.5560   12.5510   -4.7540 C   0  0  0  0  0  0  0  0  0  0  0  0
    0.9560   12.2110   -3.3470 C   0  0  0  0  0  0  0  0  0  0  0  0
    1.5670   13.1610   -2.6280 O   0  0  0  0  0  0  0  0  0  0  0  0
    0.7480   11.1250   -2.8220 O   0  0  0  0  0  0  0  0  0  0  0  0
  1  2  1  0
  3  2  1  1
  1  4  1  0
  4  5  1  0
  4  6  2  0
  3  7  1  0
  6  8  1  0
  5  9  1  0
  8  9  2  0
  3 10  1  0
  7 11  1  0
 10 12  2  0
 10 13  1  0
  9 14  1  0
  8 15  1  0
 11 16  1  0
 12 17  1  0
 13 18  2  0
 14 19  2  0
 15 20  2  0
 19 20  1  0
 16 21  1  0
 17 22  2  0
 18 22  1  0
 21 23  1  0
 23 24  2  0
 23 25  1  0
 24 26  1  0
 25 27  2  0
 26 27  1  0
 26 28  1  0
 28 29  1  0
 29 30  1  0
 29 31  2  0
M  END
