x0158_0_B_α-x0792_0_A_α
     RDKit          3D

 30 31  0  0  0  0  0  0  0  0999 V2000
   17.3900   17.7680   11.2430 C   0  0  0  0  0  0  0  0  0  0  0  0
   16.2210   17.3580   12.1130 C   0  0  0  0  0  0  0  0  0  0  0  0
   15.9260   15.9490   11.9820 O   0  0  0  0  0  0  0  0  0  0  0  0
   15.6750   15.1690   13.0820 C   0  0  0  0  0  0  0  0  0  0  0  0
   15.3600   15.6600   14.2330 N   0  0  0  0  0  0  0  0  0  0  0  0
   15.7930   13.6620   12.7710 C   0  0  0  0  0  0  0  0  0  0  0  0
   15.2140   17.0880   14.5020 C   0  0  0  0  0  0  0  0  0  0  0  0
   14.5020   12.9720   13.0480 N   0  0  0  0  0  0  0  0  0  0  0  0
   14.2070   17.2970   15.6350 C   0  0  0  0  0  0  0  0  0  0  0  0
   14.3030   11.7300   12.3010 C   0  0  0  0  0  0  0  0  0  0  0  0
   13.3840   13.8760   12.8740 C   0  0  0  0  0  0  0  0  0  0  0  0
   12.8170   17.6320   15.0850 C   0  0  0  0  0  0  0  0  0  0  0  0
   13.2760   10.8210   12.9670 C   0  0  0  0  0  0  0  0  0  0  0  0
   12.0730   13.4280   13.4530 C   0  0  0  0  0  0  0  0  0  0  0  0
   12.0540   18.6510   15.9380 C   0  0  0  0  0  0  0  0  0  0  0  0
   11.7810   11.6580   13.4870 S   0  0  0  0  0  0  0  0  0  0  0  0
   11.5390   11.2780   14.8710 O   0  0  0  0  0  0  0  0  0  0  0  0
   10.7200   11.3870   12.5290 O   0  0  0  0  0  0  0  0  0  0  0  0
   11.9780   20.0400   15.2950 C   0  0  0  0  0  0  0  0  0  0  0  0
   11.7440   21.1490   16.3420 C   0  0  0  0  0  0  0  0  0  0  0  0
   10.8240   20.7470   17.4940 C   0  0  0  0  0  0  0  0  0  0  0  0
    9.6500   21.5490   17.4660 O   0  0  0  0  0  0  0  0  0  0  0  0
    9.6070   22.6920   18.3420 C   0  0  0  0  0  0  0  0  0  0  0  0
    8.9170   23.9430   17.7230 C   0  0  2  0  0  0  0  0  0  0  0  0
    9.2880   25.3140   18.2300 C   0  0  0  0  0  0  0  0  0  0  0  0
    7.4850   23.9560   18.0180 C   0  0  0  0  0  0  0  0  0  0  0  0
    6.8800   25.0880   18.6630 N   0  0  0  0  0  0  0  0  0  0  0  0
    8.4030   26.4210   17.5810 C   0  0  1  0  0  0  0  0  0  0  0  0
    8.5790   26.4520   16.1010 C   0  0  0  0  0  0  0  0  0  0  0  0
    6.9380   26.2290   17.8290 C   0  0  0  0  0  0  0  0  0  0  0  0
  1  2  1  0
  2  3  1  0
  3  4  1  0
  4  5  2  3
  4  6  1  0
  5  7  1  0
  6  8  1  0
  7  9  1  0
  8 10  1  0
  8 11  1  0
  9 12  1  0
 10 13  1  0
 11 14  1  0
 12 15  1  0
 16 13  1  0
 14 16  1  0
 16 17  2  0
 16 18  2  0
 15 19  1  0
 19 20  1  0
 20 21  1  0
 21 22  1  0
 22 23  1  0
 24 23  1  1
 24 25  1  0
 24 26  1  0
 26 27  1  0
 25 28  1  0
 28 29  1  6
 27 30  1  0
 28 30  1  0
M  END
