x0159_0_B_α-x0855_0_A_α
     RDKit          3D

 21 22  0  0  0  0  0  0  0  0999 V2000
    2.2250    7.9260   -9.2420 C   0  0  0  0  0  0  0  0  0  0  0  0
    1.0110    7.0610   -9.5380 C   0  0  2  0  0  0  0  0  0  0  0  0
   -0.2750    7.8810   -9.3310 C   0  0  0  0  0  0  0  0  0  0  0  0
    0.9840    5.8100   -8.6880 C   0  0  0  0  0  0  0  0  0  0  0  0
   -1.2790    7.2880   -8.3250 C   0  0  0  0  0  0  0  0  0  0  0  0
    0.9460    5.9050   -7.2970 C   0  0  0  0  0  0  0  0  0  0  0  0
    0.9810    4.5480   -9.2710 C   0  0  0  0  0  0  0  0  0  0  0  0
   -1.2960    8.0000   -6.9710 C   0  0  0  0  0  0  0  0  0  0  0  0
    0.9020    4.7610   -6.5170 C   0  0  0  0  0  0  0  0  0  0  0  0
    0.9300    3.4130   -8.4810 C   0  0  0  0  0  0  0  0  0  0  0  0
   -2.0340    9.2070   -7.1180 O   0  0  0  0  0  0  0  0  0  0  0  0
    0.8930    3.5170   -7.1180 C   0  0  0  0  0  0  0  0  0  0  0  0
   -1.6950   10.1960   -6.2630 C   0  0  0  0  0  0  0  0  0  0  0  0
   -0.4160   10.6820   -6.1740 C   0  0  0  0  0  0  0  0  0  0  0  0
   -2.4410   10.9350   -5.3270 C   0  0  0  0  0  0  0  0  0  0  0  0
   -0.4570   11.6510   -5.2160 N   0  0  0  0  0  0  0  0  0  0  0  0
   -1.6890   11.8320   -4.6790 N   0  0  0  0  0  0  0  0  0  0  0  0
    0.6350   12.4630   -4.7320 C   0  0  0  0  0  0  0  0  0  0  0  0
    0.9430   12.1220   -3.2970 C   0  0  0  0  0  0  0  0  0  0  0  0
    1.5090   13.0770   -2.5390 O   0  0  0  0  0  0  0  0  0  0  0  0
    0.6840   11.0240   -2.8220 O   0  0  0  0  0  0  0  0  0  0  0  0
  2  1  1  1
  2  3  1  0
  2  4  1  0
  3  5  1  0
  4  6  2  0
  4  7  1  0
  5  8  1  0
  6  9  1  0
  7 10  2  0
  8 11  1  0
  9 12  2  0
 10 12  1  0
 11 13  1  0
 13 14  2  0
 13 15  1  0
 14 16  1  0
 15 17  2  0
 16 17  1  0
 16 18  1  0
 18 19  1  0
 19 20  1  0
 19 21  2  0
M  END
