x0159_0_B_β-x1012_0_A_α
     RDKit          3D

 28 30  0  0  0  0  0  0  0  0999 V2000
    1.8360    8.4000   -9.8370 N   0  0  0  0  0  0  0  0  0  0  0  0
    2.3740    8.9460  -10.9350 C   0  0  0  0  0  0  0  0  0  0  0  0
    1.9840   10.1640  -11.4240 N   0  0  0  0  0  0  0  0  0  0  0  0
    3.3180    8.3980  -11.6510 N   0  0  0  0  0  0  0  0  0  0  0  0
    0.9470   11.0150  -10.8220 C   0  0  0  0  0  0  0  0  0  0  0  0
    2.7680   10.4120  -12.5680 C   0  0  0  0  0  0  0  0  0  0  0  0
    3.5850    9.2810  -12.6610 C   0  0  0  0  0  0  0  0  0  0  0  0
    0.1900   10.4110   -9.5900 C   0  0  0  0  0  0  0  0  0  0  0  0
    2.8650   11.4630  -13.5030 C   0  0  0  0  0  0  0  0  0  0  0  0
    4.5300    9.1680  -13.6940 C   0  0  0  0  0  0  0  0  0  0  0  0
    0.4390   11.1160   -8.2270 C   0  0  0  0  0  0  0  0  0  0  0  0
    3.8180   11.3300  -14.5290 C   0  0  0  0  0  0  0  0  0  0  0  0
    4.6380   10.2040  -14.6240 C   0  0  0  0  0  0  0  0  0  0  0  0
   -0.1740   10.4540   -6.9740 C   0  0  0  0  0  0  0  0  0  0  0  0
    0.0460   11.3560   -5.7210 C   0  0  0  0  0  0  0  0  0  0  0  0
   -0.4300   10.7450   -4.3760 C   0  0  0  0  0  0  0  0  0  0  0  0
    0.4610   11.0890   -3.2680 O   0  0  0  0  0  0  0  0  0  0  0  0
    0.3410   12.3130   -2.6710 C   0  0  0  0  0  0  0  0  0  0  0  0
    0.4520   12.5320   -1.4570 O   0  0  0  0  0  0  0  0  0  0  0  0
    0.0240   13.4000   -3.6870 C   0  0  0  0  0  0  0  0  0  0  0  0
   -1.4390   13.8280   -3.7000 C   0  0  0  0  0  0  0  0  0  0  0  0
    0.9550   14.6190   -3.5920 C   0  0  0  0  0  0  0  0  0  0  0  0
   -1.7160   14.8560   -4.7900 C   0  0  0  0  0  0  0  0  0  0  0  0
    0.6910   15.6110   -4.7270 C   0  0  0  0  0  0  0  0  0  0  0  0
   -0.7360   15.9470   -4.8460 N   0  0  0  0  0  0  0  0  0  0  0  0
   -1.2470   17.2170   -4.7700 C   0  0  0  0  0  0  0  0  0  0  0  0
   -0.3610   18.2270   -4.6730 N   0  0  0  0  0  0  0  0  0  0  0  0
   -2.4370   17.4890   -4.7720 O   0  0  0  0  0  0  0  0  0  0  0  0
  1  2  1  0
  2  3  1  0
  2  4  2  0
  3  5  1  0
  3  6  1  0
  4  7  1  0
  6  7  2  0
  5  8  1  0
  6  9  1  0
  7 10  1  0
  8 11  1  0
  9 12  2  0
 10 13  2  0
 12 13  1  0
 11 14  1  0
 14 15  1  0
 15 16  1  0
 16 17  1  0
 17 18  1  0
 18 19  2  0
 18 20  1  0
 20 21  1  0
 20 22  1  0
 21 23  1  0
 22 24  1  0
 23 25  1  0
 24 25  1  0
 25 26  1  0
 26 27  1  0
 26 28  2  0
M  END
