x0159_0_B-x1015_0_A
     RDKit          3D

 35 39  0  0  0  0  0  0  0  0999 V2000
    1.6590    8.9850  -10.1960 N   0  0  0  0  0  0  0  0  0  0  0  0
    2.1130    7.7470   -9.5800 C   0  0  0  0  0  0  0  0  0  0  0  0
    1.0110    7.1880   -8.6980 C   0  0  1  0  0  0  0  0  0  0  0  0
    2.3370    9.3550  -11.2770 C   0  0  0  0  0  0  0  0  0  0  0  0
    2.0730   10.5080  -11.9560 N   0  0  0  0  0  0  0  0  0  0  0  0
    3.3220    8.6830  -11.8090 N   0  0  0  0  0  0  0  0  0  0  0  0
   -0.4320    7.2430   -9.2620 C   0  0  0  0  0  0  0  0  0  0  0  0
    3.7270    9.4330  -12.8760 C   0  0  0  0  0  0  0  0  0  0  0  0
    2.9590   10.5900  -12.9950 C   0  0  0  0  0  0  0  0  0  0  0  0
    1.3390    5.8120   -8.1910 C   0  0  0  0  0  0  0  0  0  0  0  0
   -1.5680    7.6620   -8.3300 C   0  0  0  0  0  0  0  0  0  0  0  0
    2.3710    5.0530   -8.7660 C   0  0  0  0  0  0  0  0  0  0  0  0
    0.6100    5.2810   -7.1450 C   0  0  0  0  0  0  0  0  0  0  0  0
    3.1540   11.5410  -13.9920 C   0  0  0  0  0  0  0  0  0  0  0  0
    4.7520    9.1930  -13.7960 C   0  0  0  0  0  0  0  0  0  0  0  0
   -1.9370    9.1340   -8.4380 C   0  0  0  0  0  0  0  0  0  0  0  0
    2.6580    3.7800   -8.2890 C   0  0  0  0  0  0  0  0  0  0  0  0
    0.8920    4.0220   -6.6800 C   0  0  0  0  0  0  0  0  0  0  0  0
    4.1850   11.2860  -14.9020 C   0  0  0  0  0  0  0  0  0  0  0  0
    4.9700   10.1330  -14.8080 C   0  0  0  0  0  0  0  0  0  0  0  0
    1.9150    3.2630   -7.2430 C   0  0  0  0  0  0  0  0  0  0  0  0
   -1.4320    9.9350   -7.2590 C   0  0  0  0  0  0  0  0  0  0  0  0
   -0.4330   10.9000   -7.4300 C   0  0  0  0  0  0  0  0  0  0  0  0
   -1.9560    9.7290   -5.9850 C   0  0  0  0  0  0  0  0  0  0  0  0
    0.0260   11.6500   -6.3390 C   0  0  0  0  0  0  0  0  0  0  0  0
   -1.4920   10.4820   -4.8990 C   0  0  0  0  0  0  0  0  0  0  0  0
   -0.4950   11.4570   -5.0550 C   0  0  0  0  0  0  0  0  0  0  0  0
   -0.0400   12.2150   -3.9440 N   0  0  0  0  0  0  0  0  0  0  0  0
    0.0280   13.6730   -3.9530 C   0  0  1  0  0  0  0  0  0  0  0  0
    0.2890   11.7070   -2.6760 C   0  0  0  0  0  0  0  0  0  0  0  0
   -1.3040   14.3540   -4.2500 C   0  0  0  0  0  0  0  0  0  0  0  0
    0.2950   10.5360   -2.2830 O   0  0  0  0  0  0  0  0  0  0  0  0
    0.6260   12.7580   -1.8810 N   0  0  0  0  0  0  0  0  0  0  0  0
    0.4050   13.9400   -2.5040 C   0  0  0  0  0  0  0  0  0  0  0  0
    0.5010   15.0360   -1.9720 O   0  0  0  0  0  0  0  0  0  0  0  0
  1  2  1  0
  3  2  1  6
  1  4  1  0
  4  5  1  0
  4  6  2  0
  3  7  1  0
  6  8  1  0
  5  9  1  0
  8  9  2  0
  3 10  1  0
  7 11  1  0
 10 12  2  0
 10 13  1  0
  9 14  1  0
  8 15  1  0
 11 16  1  0
 12 17  1  0
 13 18  2  0
 14 19  2  0
 15 20  2  0
 19 20  1  0
 17 21  2  0
 18 21  1  0
 16 22  1  0
 22 23  2  0
 22 24  1  0
 23 25  1  0
 24 26  2  0
 25 27  2  0
 26 27  1  0
 27 28  1  0
 28 29  1  0
 28 30  1  0
 29 31  1  1
 30 32  2  0
 30 33  1  0
 29 34  1  0
 33 34  1  0
 34 35  2  0
M  END
