x0159_0_B-x0465_0_A
     RDKit          3D

 32 35  0  0  0  0  0  0  0  0999 V2000
    0.9830    9.1150  -10.4380 N   0  0  0  0  0  0  0  0  0  0  0  0
    1.0640    8.3780   -9.1780 C   0  0  1  0  0  0  0  0  0  0  0  0
    2.0910    7.2310   -9.2330 C   0  0  0  0  0  0  0  0  0  0  0  0
    1.9440    9.3090  -11.3580 C   0  0  0  0  0  0  0  0  0  0  0  0
    1.0350    9.3460   -7.9810 C   0  0  0  0  0  0  0  0  0  0  0  0
    1.8550   10.4660  -12.0750 N   0  0  0  0  0  0  0  0  0  0  0  0
    2.9850    8.6020  -11.7450 N   0  0  0  0  0  0  0  0  0  0  0  0
    0.3230    8.7500   -6.8970 O   0  0  0  0  0  0  0  0  0  0  0  0
    3.5710    9.3350  -12.7550 C   0  0  0  0  0  0  0  0  0  0  0  0
    2.8710   10.5150  -12.9760 C   0  0  0  0  0  0  0  0  0  0  0  0
    1.8660    5.9290   -8.4890 C   0  0  0  0  0  0  0  0  0  0  0  0
    2.5450    4.7920   -8.9230 C   0  0  0  0  0  0  0  0  0  0  0  0
    1.0060    5.8220   -7.3800 C   0  0  0  0  0  0  0  0  0  0  0  0
    3.2170   11.4660  -13.9300 C   0  0  0  0  0  0  0  0  0  0  0  0
    4.7020    9.0700  -13.5400 C   0  0  0  0  0  0  0  0  0  0  0  0
   -0.7420    9.4300   -6.3740 C   0  0  0  0  0  0  0  0  0  0  0  0
    2.3790    3.5700   -8.2860 C   0  0  0  0  0  0  0  0  0  0  0  0
    0.8430    4.5910   -6.7430 C   0  0  0  0  0  0  0  0  0  0  0  0
    4.3410   11.1860  -14.7040 C   0  0  0  0  0  0  0  0  0  0  0  0
    5.0730   10.0080  -14.5140 C   0  0  0  0  0  0  0  0  0  0  0  0
   -0.5850   10.6820   -5.7240 C   0  0  0  0  0  0  0  0  0  0  0  0
   -2.0110    8.8690   -6.4800 C   0  0  0  0  0  0  0  0  0  0  0  0
    0.6300   11.3270   -5.5680 O   0  0  0  0  0  0  0  0  0  0  0  0
    1.5300    3.4740   -7.2060 C   0  0  0  0  0  0  0  0  0  0  0  0
   -3.1240    9.5190   -5.9540 C   0  0  0  0  0  0  0  0  0  0  0  0
   -1.7120   11.3290   -5.1980 C   0  0  0  0  0  0  0  0  0  0  0  0
    0.6780   12.4930   -4.7100 C   0  0  2  0  0  0  0  0  0  0  0  0
   -2.9750   10.7450   -5.3140 C   0  0  0  0  0  0  0  0  0  0  0  0
    2.0010   13.1890   -4.9800 C   0  0  0  0  0  0  0  0  0  0  0  0
    0.6870   12.0670   -3.2380 C   0  0  0  0  0  0  0  0  0  0  0  0
    1.0450   12.7860   -2.3160 O   0  0  0  0  0  0  0  0  0  0  0  0
    0.2590   10.7960   -3.0390 O   0  0  0  0  0  0  0  0  0  0  0  0
  1  2  1  0
  2  3  1  6
  1  4  1  0
  2  5  1  0
  4  6  1  0
  4  7  2  0
  5  8  1  0
  7  9  1  0
  6 10  1  0
  9 10  2  0
  3 11  1  0
 11 12  2  0
 11 13  1  0
 10 14  1  0
  9 15  1  0
  8 16  1  0
 12 17  1  0
 13 18  2  0
 14 19  2  0
 15 20  2  0
 19 20  1  0
 16 21  2  0
 16 22  1  0
 21 23  1  0
 17 24  2  0
 18 24  1  0
 22 25  2  0
 21 26  1  0
 23 27  1  0
 25 28  1  0
 26 28  2  0
 27 29  1  6
 27 30  1  0
 30 31  2  0
 30 32  1  0
M  END
