x0159_0_B_α-x1012_0_A_α
     RDKit          3D

 25 26  0  0  0  0  0  0  0  0999 V2000
    2.3830    7.7520   -9.5400 C   0  0  0  0  0  0  0  0  0  0  0  0
    1.0790    7.6710   -8.7490 C   0  0  2  0  0  0  0  0  0  0  0  0
    0.8930    8.8880   -7.7910 C   0  0  0  0  0  0  0  0  0  0  0  0
    0.9820    6.3230   -8.0420 C   0  0  0  0  0  0  0  0  0  0  0  0
   -0.0060   10.0640   -8.2550 C   0  0  0  0  0  0  0  0  0  0  0  0
   -0.1560    5.9980   -7.3060 C   0  0  0  0  0  0  0  0  0  0  0  0
    2.0180    5.3720   -8.1000 C   0  0  0  0  0  0  0  0  0  0  0  0
   -0.7360   10.8500   -7.1300 C   0  0  0  0  0  0  0  0  0  0  0  0
   -0.2760    4.7790   -6.6640 C   0  0  0  0  0  0  0  0  0  0  0  0
    1.8650    4.1530   -7.4370 C   0  0  0  0  0  0  0  0  0  0  0  0
    0.0190   10.8690   -5.7920 C   0  0  0  0  0  0  0  0  0  0  0  0
    0.7360    3.8660   -6.7450 C   0  0  0  0  0  0  0  0  0  0  0  0
   -0.5740   11.7500   -4.6860 C   0  0  0  0  0  0  0  0  0  0  0  0
    0.1970   11.5290   -3.4720 O   0  0  0  0  0  0  0  0  0  0  0  0
    0.2770   12.5400   -2.5500 C   0  0  0  0  0  0  0  0  0  0  0  0
    0.5470   12.3960   -1.3590 O   0  0  0  0  0  0  0  0  0  0  0  0
   -0.0350   13.9200   -3.1090 C   0  0  0  0  0  0  0  0  0  0  0  0
   -1.4880   14.0630   -3.5840 C   0  0  0  0  0  0  0  0  0  0  0  0
    0.9820   14.3560   -4.1730 C   0  0  0  0  0  0  0  0  0  0  0  0
   -1.5800   14.7480   -4.9370 C   0  0  0  0  0  0  0  0  0  0  0  0
    0.6780   15.7550   -4.7090 C   0  0  0  0  0  0  0  0  0  0  0  0
   -0.7490   15.9470   -4.9830 N   0  0  0  0  0  0  0  0  0  0  0  0
   -1.2720   17.2090   -4.8010 C   0  0  0  0  0  0  0  0  0  0  0  0
   -0.3910   18.2200   -4.6660 N   0  0  0  0  0  0  0  0  0  0  0  0
   -2.4640   17.4590   -4.7480 O   0  0  0  0  0  0  0  0  0  0  0  0
  2  1  1  1
  2  3  1  0
  2  4  1  0
  3  5  1  0
  4  6  2  0
  4  7  1  0
  5  8  1  0
  6  9  1  0
  7 10  2  0
  8 11  1  0
  9 12  2  0
 10 12  1  0
 11 13  1  0
 13 14  1  0
 14 15  1  0
 15 16  2  0
 15 17  1  0
 17 18  1  0
 17 19  1  0
 18 20  1  0
 19 21  1  0
 20 22  1  0
 21 22  1  0
 22 23  1  0
 23 24  1  0
 23 25  2  0
M  END
