x0158_0_B-x0796_0_B
     RDKit          3D

 23 25  0  0  0  0  0  0  0  0999 V2000
   17.3290   17.7530   11.3980 C   0  0  0  0  0  0  0  0  0  0  0  0
   15.9940   17.4440   12.0600 C   0  0  0  0  0  0  0  0  0  0  0  0
   15.6280   16.0730   11.8290 O   0  0  0  0  0  0  0  0  0  0  0  0
   15.6050   15.2980   12.9520 C   0  0  0  0  0  0  0  0  0  0  0  0
   15.6940   15.7330   14.0920 O   0  0  0  0  0  0  0  0  0  0  0  0
   15.4720   13.8050   12.6530 C   0  0  0  0  0  0  0  0  0  0  0  0
   14.1060   13.1910   12.5350 N   0  0  0  0  0  0  0  0  0  0  0  0
   14.1380   11.6950   12.3710 C   0  0  2  0  0  0  0  0  0  0  0  0
   13.0520   13.8200   13.3930 C   0  0  0  0  0  0  0  0  0  0  0  0
   13.2570   10.7640   13.2360 C   0  0  0  0  0  0  0  0  0  0  0  0
   12.6150   12.8270   14.4670 C   0  0  1  0  0  0  0  0  0  0  0  0
   15.6190   11.3140   12.6250 C   0  0  0  0  0  0  0  0  0  0  0  0
   13.6980   11.1120   11.0710 C   0  0  0  0  0  0  0  0  0  0  0  0
   11.7400   11.5170   13.6870 S   0  0  0  0  0  0  0  0  0  0  0  0
   13.8540   12.1540   15.0020 C   0  0  0  0  0  0  0  0  0  0  0  0
   12.0870   13.2310   15.8500 C   0  0  0  0  0  0  0  0  0  0  0  0
   16.2090   10.2350   12.1180 C   0  0  0  0  0  0  0  0  0  0  0  0
   14.2830   10.0080   10.6010 C   0  0  0  0  0  0  0  0  0  0  0  0
   11.0770   10.6880   14.6710 O   0  0  0  0  0  0  0  0  0  0  0  0
   11.0570   11.9820   12.5000 O   0  0  0  0  0  0  0  0  0  0  0  0
   13.2420   11.1200   15.9290 C   0  0  0  0  0  0  0  0  0  0  0  0
   12.0650   11.8630   16.5510 C   0  0  0  0  0  0  0  0  0  0  0  0
   15.4350    9.3000   11.2620 C   0  0  0  0  0  0  0  0  0  0  0  0
  1  2  1  0
  2  3  1  0
  3  4  1  0
  4  5  2  0
  4  6  1  0
  6  7  1  0
  7  8  1  0
  7  9  1  0
  8 10  1  1
 11  9  1  6
  8 12  1  0
  8 13  1  0
 14 10  1  0
 11 14  1  0
 11 15  1  0
 11 16  1  0
 12 17  2  0
 13 18  2  0
 14 19  2  0
 14 20  2  0
 15 21  1  0
 16 22  1  0
 21 22  1  0
 17 23  1  0
 18 23  1  0
M  END
