x0159_0_B-x0855_0_A
     RDKit          3D

 31 34  0  0  0  0  0  0  0  0999 V2000
    1.4840    9.1600  -10.0740 N   0  0  0  0  0  0  0  0  0  0  0  0
    1.7780    8.0690   -9.1660 C   0  0  0  0  0  0  0  0  0  0  0  0
    0.8250    6.8710   -9.3340 C   0  0  2  0  0  0  0  0  0  0  0  0
    2.2230    9.4280  -11.1600 C   0  0  0  0  0  0  0  0  0  0  0  0
    2.0220   10.5590  -11.8940 N   0  0  0  0  0  0  0  0  0  0  0  0
    3.1980    8.6990  -11.6540 N   0  0  0  0  0  0  0  0  0  0  0  0
   -0.6650    7.2980   -9.2240 C   0  0  0  0  0  0  0  0  0  0  0  0
    3.6500    9.3990  -12.7480 C   0  0  0  0  0  0  0  0  0  0  0  0
    2.9240   10.5740  -12.9190 C   0  0  0  0  0  0  0  0  0  0  0  0
    1.2830    5.6970   -8.5090 C   0  0  0  0  0  0  0  0  0  0  0  0
   -1.4220    6.8320   -7.9670 C   0  0  0  0  0  0  0  0  0  0  0  0
    2.1850    4.7840   -9.0750 C   0  0  0  0  0  0  0  0  0  0  0  0
    0.8480    5.4850   -7.2050 C   0  0  0  0  0  0  0  0  0  0  0  0
    3.1620   11.4870  -13.9430 C   0  0  0  0  0  0  0  0  0  0  0  0
    4.6800    9.1010  -13.6460 C   0  0  0  0  0  0  0  0  0  0  0  0
   -1.2330    7.7970   -6.7870 C   0  0  0  0  0  0  0  0  0  0  0  0
    2.6390    3.6910   -8.3560 C   0  0  0  0  0  0  0  0  0  0  0  0
    1.2980    4.3960   -6.4950 C   0  0  0  0  0  0  0  0  0  0  0  0
    4.1940   11.1750  -14.8270 C   0  0  0  0  0  0  0  0  0  0  0  0
    4.9430   10.0030  -14.6870 C   0  0  0  0  0  0  0  0  0  0  0  0
   -1.9050    9.0290   -7.0800 O   0  0  0  0  0  0  0  0  0  0  0  0
    2.1970    3.4960   -7.0660 C   0  0  0  0  0  0  0  0  0  0  0  0
   -1.5370   10.0650   -6.2860 C   0  0  0  0  0  0  0  0  0  0  0  0
   -0.3120   10.6740   -6.1840 C   0  0  0  0  0  0  0  0  0  0  0  0
   -2.3640   10.7480   -5.3720 C   0  0  0  0  0  0  0  0  0  0  0  0
   -0.4610   11.6490   -5.2370 N   0  0  0  0  0  0  0  0  0  0  0  0
   -1.7090   11.7220   -4.7280 N   0  0  0  0  0  0  0  0  0  0  0  0
    0.5590   12.5570   -4.7560 C   0  0  0  0  0  0  0  0  0  0  0  0
    0.9470   12.2200   -3.3450 C   0  0  0  0  0  0  0  0  0  0  0  0
    1.5670   13.1650   -2.6250 O   0  0  0  0  0  0  0  0  0  0  0  0
    0.7240   11.1400   -2.8140 O   0  0  0  0  0  0  0  0  0  0  0  0
  1  2  1  0
  3  2  1  1
  1  4  1  0
  4  5  1  0
  4  6  2  0
  3  7  1  0
  6  8  1  0
  5  9  1  0
  8  9  2  0
  3 10  1  0
  7 11  1  0
 10 12  2  0
 10 13  1  0
  9 14  1  0
  8 15  1  0
 11 16  1  0
 12 17  1  0
 13 18  2  0
 14 19  2  0
 15 20  2  0
 19 20  1  0
 16 21  1  0
 17 22  2  0
 18 22  1  0
 21 23  1  0
 23 24  2  0
 23 25  1  0
 24 26  1  0
 25 27  2  0
 26 27  1  0
 26 28  1  0
 28 29  1  0
 29 30  1  0
 29 31  2  0
M  END
