x0159_0_B_β-x0711_0_A_α
     RDKit          3D

 30 32  0  0  0  0  0  0  0  0999 V2000
    1.6420    8.5600  -10.2150 N   0  0  0  0  0  0  0  0  0  0  0  0
    2.2740    9.0990  -11.2700 C   0  0  0  0  0  0  0  0  0  0  0  0
    1.7340   10.2780  -11.8560 N   0  0  0  0  0  0  0  0  0  0  0  0
    3.3490    8.5380  -11.7190 N   0  0  0  0  0  0  0  0  0  0  0  0
    0.7370   10.0600  -10.8100 C   0  0  0  0  0  0  0  0  0  0  0  0
    2.7930   10.3400  -12.8200 C   0  0  0  0  0  0  0  0  0  0  0  0
    3.7020    9.3080  -12.7110 C   0  0  0  0  0  0  0  0  0  0  0  0
    0.8290   11.0610   -9.6740 C   0  0  0  0  0  0  0  0  0  0  0  0
    2.9730   11.3160  -13.8210 C   0  0  0  0  0  0  0  0  0  0  0  0
    4.7990    9.1950  -13.5730 C   0  0  0  0  0  0  0  0  0  0  0  0
    0.6990   10.4460   -8.2670 C   0  0  0  0  0  0  0  0  0  0  0  0
    4.0690   11.2040  -14.6820 C   0  0  0  0  0  0  0  0  0  0  0  0
    4.9740   10.1550  -14.5650 C   0  0  0  0  0  0  0  0  0  0  0  0
   -0.3220   11.1810   -7.3850 C   0  0  0  0  0  0  0  0  0  0  0  0
    0.3190   11.9320   -6.2070 C   0  0  0  0  0  0  0  0  0  0  0  0
   -0.5610   13.0830   -5.7070 C   0  0  0  0  0  0  0  0  0  0  0  0
   -1.1210   12.8250   -4.3060 C   0  0  0  0  0  0  0  0  0  0  0  0
   -0.5010   13.9720   -3.0670 S   0  0  0  0  0  0  0  0  0  0  0  0
   -1.7630   15.0570   -2.8400 N   0  0  0  0  0  0  0  0  0  0  0  0
    0.5030   14.7640   -3.7480 O   0  0  0  0  0  0  0  0  0  0  0  0
   -0.1730   13.2710   -1.8460 O   0  0  0  0  0  0  0  0  0  0  0  0
   -2.8690   14.9180   -1.9500 C   0  0  0  0  0  0  0  0  0  0  0  0
   -4.1300   15.1500   -2.4950 C   0  0  0  0  0  0  0  0  0  0  0  0
   -2.7520   14.5800   -0.5930 C   0  0  0  0  0  0  0  0  0  0  0  0
   -5.2680   15.0490   -1.7040 C   0  0  0  0  0  0  0  0  0  0  0  0
   -3.9000   14.4760    0.2090 C   0  0  0  0  0  0  0  0  0  0  0  0
   -5.1670   14.7100   -0.3490 C   0  0  0  0  0  0  0  0  0  0  0  0
   -6.4320   14.6190    0.4240 C   0  0  0  0  0  0  0  0  0  0  0  0
   -6.3940   14.6950    1.7900 N   0  0  0  0  0  0  0  0  0  0  0  0
   -7.5060   14.4890   -0.1560 O   0  0  0  0  0  0  0  0  0  0  0  0
  1  2  1  0
  2  3  1  0
  2  4  2  0
  3  5  1  0
  3  6  1  0
  4  7  1  0
  6  7  2  0
  5  8  1  0
  6  9  1  0
  7 10  1  0
  8 11  1  0
  9 12  2  0
 10 13  2  0
 12 13  1  0
 11 14  1  0
 14 15  1  0
 15 16  1  0
 16 17  1  0
 17 18  1  0
 18 19  1  0
 18 20  2  0
 18 21  2  0
 19 22  1  0
 22 23  2  0
 22 24  1  0
 23 25  1  0
 24 26  2  0
 25 27  2  0
 26 27  1  0
 27 28  1  0
 28 29  1  0
 28 30  2  0
M  END
