x0159_0_B_α-x0628_0_A_α
     RDKit          3D

 22 23  0  0  0  0  0  0  0  0999 V2000
    2.4460    7.7990   -9.2900 C   0  0  0  0  0  0  0  0  0  0  0  0
    1.1990    6.9520   -9.4720 C   0  0  2  0  0  0  0  0  0  0  0  0
   -0.0250    7.7840   -9.0880 C   0  0  0  0  0  0  0  0  0  0  0  0
    1.3400    5.6860   -8.6720 C   0  0  0  0  0  0  0  0  0  0  0  0
    0.1880    8.6710   -7.8630 C   0  0  0  0  0  0  0  0  0  0  0  0
    0.9290    5.5890   -7.3340 C   0  0  0  0  0  0  0  0  0  0  0  0
    1.8990    4.5740   -9.2940 C   0  0  0  0  0  0  0  0  0  0  0  0
   -1.1040    8.9720   -7.1330 C   0  0  0  0  0  0  0  0  0  0  0  0
    1.0810    4.3940   -6.6500 C   0  0  0  0  0  0  0  0  0  0  0  0
    2.0450    3.3880   -8.6090 C   0  0  0  0  0  0  0  0  0  0  0  0
    1.6400    3.2940   -7.2960 C   0  0  0  0  0  0  0  0  0  0  0  0
   -0.9970   10.2120   -6.3430 C   0  0  0  0  0  0  0  0  0  0  0  0
   -1.9560   10.5820   -5.4520 N   0  0  0  0  0  0  0  0  0  0  0  0
    0.0430   11.0540   -6.4410 N   0  0  0  0  0  0  0  0  0  0  0  0
   -0.2990   12.0020   -5.5460 N   0  0  0  0  0  0  0  0  0  0  0  0
   -1.5040   11.7110   -4.9560 C   0  0  0  0  0  0  0  0  0  0  0  0
   -2.1650   12.5460   -3.9330 C   0  0  0  0  0  0  0  0  0  0  0  0
    0.5650   13.1480   -5.3100 C   0  0  0  0  0  0  0  0  0  0  0  0
    1.6100   12.9770   -4.2140 C   0  0  0  0  0  0  0  0  0  0  0  0
    1.0470   12.2880   -2.9950 C   0  0  0  0  0  0  0  0  0  0  0  0
    0.5330   11.1790   -3.0150 O   0  0  0  0  0  0  0  0  0  0  0  0
    1.1500   12.9940   -1.8560 O   0  0  0  0  0  0  0  0  0  0  0  0
  2  1  1  1
  2  3  1  0
  2  4  1  0
  3  5  1  0
  4  6  2  0
  4  7  1  0
  5  8  1  0
  6  9  1  0
  7 10  2  0
  9 11  2  0
 10 11  1  0
  8 12  1  0
 12 13  1  0
 12 14  2  0
 14 15  1  0
 13 16  2  0
 15 16  1  0
 16 17  1  0
 15 18  1  0
 18 19  1  0
 19 20  1  0
 20 21  2  0
 20 22  1  0
M  END
