x0158_0_B-x0142_0_A
     RDKit          3D

 33 35  0  0  0  0  0  0  0  0999 V2000
   17.2530   17.5450   11.0800 C   0  0  0  0  0  0  0  0  0  0  0  0
   16.1230   17.1870   12.0230 C   0  0  0  0  0  0  0  0  0  0  0  0
   15.8480   15.7820   11.8950 O   0  0  0  0  0  0  0  0  0  0  0  0
   15.8500   15.0670   13.0620 C   0  0  0  0  0  0  0  0  0  0  0  0
   15.9140   15.5830   14.1710 O   0  0  0  0  0  0  0  0  0  0  0  0
   15.7670   13.5290   12.8500 C   0  0  1  0  0  0  0  0  0  0  0  0
   16.8220   12.8680   13.7730 C   0  0  0  0  0  0  0  0  0  0  0  0
   14.3930   12.9620   13.1100 N   0  0  0  0  0  0  0  0  0  0  0  0
   16.2260   11.7700   14.5890 N   0  0  0  0  0  0  0  0  0  0  0  0
   14.0310   11.7890   12.3000 C   0  0  0  0  0  0  0  0  0  0  0  0
   13.3640   13.9520   12.9250 C   0  0  0  0  0  0  0  0  0  0  0  0
   15.2300   12.2010   15.5800 C   0  0  0  0  0  0  0  0  0  0  0  0
   13.0690   10.8570   12.9870 C   0  0  0  0  0  0  0  0  0  0  0  0
   12.0270   13.5310   13.4660 C   0  0  0  0  0  0  0  0  0  0  0  0
   15.8180   10.6220   13.8640 C   0  0  0  0  0  0  0  0  0  0  0  0
   11.6400   11.7670   13.5000 S   0  0  0  0  0  0  0  0  0  0  0  0
   15.0860    9.6290   14.5350 C   0  0  0  0  0  0  0  0  0  0  0  0
   16.1080   10.4170   12.5060 C   0  0  0  0  0  0  0  0  0  0  0  0
   11.3970   11.3870   14.8830 O   0  0  0  0  0  0  0  0  0  0  0  0
   10.5810   11.5230   12.5380 O   0  0  0  0  0  0  0  0  0  0  0  0
   14.6620    8.4700   13.8680 C   0  0  0  0  0  0  0  0  0  0  0  0
   15.6830    9.2590   11.8400 C   0  0  0  0  0  0  0  0  0  0  0  0
   14.9600    8.2770   12.5120 C   0  0  0  0  0  0  0  0  0  0  0  0
   14.5000    7.0810   11.9140 N   0  0  0  0  0  0  0  0  0  0  0  0
   14.7930    6.5970   10.6430 C   0  0  0  0  0  0  0  0  0  0  0  0
   14.9990    5.2220   10.7230 N   0  0  0  0  0  0  0  0  0  0  0  0
   14.8560    7.2690    9.6080 O   0  0  0  0  0  0  0  0  0  0  0  0
   15.0950    4.2970    9.6610 C   0  0  0  0  0  0  0  0  0  0  0  0
   15.8500    4.5130    8.5210 C   0  0  0  0  0  0  0  0  0  0  0  0
   14.3880    3.1020    9.7780 C   0  0  0  0  0  0  0  0  0  0  0  0
   15.8670    3.5260    7.5430 C   0  0  0  0  0  0  0  0  0  0  0  0
   14.4660    2.1770    8.7450 C   0  0  0  0  0  0  0  0  0  0  0  0
   15.1910    2.3640    7.6280 N   0  0  0  0  0  0  0  0  0  0  0  0
  1  2  1  0
  2  3  1  0
  3  4  1  0
  4  5  2  0
  4  6  1  0
  6  7  1  1
  6  8  1  0
  7  9  1  0
  8 10  1  0
  8 11  1  0
  9 12  1  0
 10 13  1  0
 11 14  1  0
  9 15  1  0
 16 13  1  0
 14 16  1  0
 15 17  2  0
 15 18  1  0
 16 19  2  0
 16 20  2  0
 17 21  1  0
 18 22  2  0
 21 23  2  0
 22 23  1  0
 23 24  1  0
 24 25  1  0
 25 26  1  0
 25 27  2  0
 26 28  1  0
 28 29  2  0
 28 30  1  0
 29 31  1  0
 30 32  2  0
 31 33  2  0
 32 33  1  0
M  END
