x0159_0_B-x0864_0_A
     RDKit          3D

 32 35  0  0  0  0  0  0  0  0999 V2000
    1.4360    9.1350  -10.0920 N   0  0  0  0  0  0  0  0  0  0  0  0
    1.8150    8.0740   -9.1730 C   0  0  0  0  0  0  0  0  0  0  0  0
    0.8980    6.8470   -9.3710 C   0  0  2  0  0  0  0  0  0  0  0  0
    2.2180    9.3710  -11.1620 C   0  0  0  0  0  0  0  0  0  0  0  0
    2.0160   10.5100  -11.8860 N   0  0  0  0  0  0  0  0  0  0  0  0
    3.2030    8.6580  -11.6640 N   0  0  0  0  0  0  0  0  0  0  0  0
   -0.5780    7.2480   -9.1170 C   0  0  0  0  0  0  0  0  0  0  0  0
    3.6570    9.3800  -12.7480 C   0  0  0  0  0  0  0  0  0  0  0  0
    2.9240   10.5500  -12.9060 C   0  0  0  0  0  0  0  0  0  0  0  0
    1.3480    5.6630   -8.5380 C   0  0  0  0  0  0  0  0  0  0  0  0
   -0.9530    7.5030   -7.6480 C   0  0  0  0  0  0  0  0  0  0  0  0
    2.2670    4.7610   -9.0840 C   0  0  0  0  0  0  0  0  0  0  0  0
    0.8740    5.4490   -7.2470 C   0  0  0  0  0  0  0  0  0  0  0  0
    3.1570   11.4820  -13.9170 C   0  0  0  0  0  0  0  0  0  0  0  0
    4.6990    9.1020  -13.6500 C   0  0  0  0  0  0  0  0  0  0  0  0
   -1.8320    8.6190   -7.4610 O   0  0  0  0  0  0  0  0  0  0  0  0
    2.7040    3.6660   -8.3520 C   0  0  0  0  0  0  0  0  0  0  0  0
    1.3100    4.3590   -6.5240 C   0  0  0  0  0  0  0  0  0  0  0  0
    4.1960   11.1910  -14.8040 C   0  0  0  0  0  0  0  0  0  0  0  0
    4.9560   10.0240  -14.6760 C   0  0  0  0  0  0  0  0  0  0  0  0
    2.2270    3.4680   -7.0750 C   0  0  0  0  0  0  0  0  0  0  0  0
   -1.2420    9.6730   -6.7920 C   0  0  0  0  0  0  0  0  0  0  0  0
   -1.8800   10.1630   -5.5900 C   0  0  0  0  0  0  0  0  0  0  0  0
   -0.1090   10.2310   -7.2350 C   0  0  0  0  0  0  0  0  0  0  0  0
   -1.3420   11.1960   -4.9230 C   0  0  0  0  0  0  0  0  0  0  0  0
    0.5030   11.3570   -6.4890 C   0  0  0  0  0  0  0  0  0  0  0  0
    1.5640   11.8310   -6.8660 O   0  0  0  0  0  0  0  0  0  0  0  0
   -0.1760   11.8040   -5.3680 N   0  0  0  0  0  0  0  0  0  0  0  0
    0.5180   12.7900   -4.5400 C   0  0  0  0  0  0  0  0  0  0  0  0
    0.6750   12.3260   -3.0970 C   0  0  0  0  0  0  0  0  0  0  0  0
    0.2710   11.0510   -2.9010 O   0  0  0  0  0  0  0  0  0  0  0  0
    1.1100   12.9680   -2.1590 O   0  0  0  0  0  0  0  0  0  0  0  0
  1  2  1  0
  3  2  1  1
  1  4  1  0
  4  5  1  0
  4  6  2  0
  3  7  1  0
  6  8  1  0
  5  9  1  0
  8  9  2  0
  3 10  1  0
  7 11  1  0
 10 12  2  0
 10 13  1  0
  9 14  1  0
  8 15  1  0
 11 16  1  0
 12 17  1  0
 13 18  2  0
 14 19  2  0
 15 20  2  0
 19 20  1  0
 17 21  2  0
 18 21  1  0
 16 22  1  0
 22 23  1  0
 22 24  2  0
 23 25  2  0
 24 26  1  0
 26 27  2  0
 25 28  1  0
 26 28  1  0
 28 29  1  0
 29 30  1  0
 30 31  1  0
 30 32  2  0
M  END
