x0159_0_B_β-x0766_0_A_α
     RDKit          3D

 28 31  0  0  0  0  0  0  0  0999 V2000
    1.9470    8.1380   -9.8360 N   0  0  0  0  0  0  0  0  0  0  0  0
    2.4460    8.7580  -10.9170 C   0  0  0  0  0  0  0  0  0  0  0  0
    1.9900    9.9700  -11.3400 N   0  0  0  0  0  0  0  0  0  0  0  0
    3.4010    8.2910  -11.6670 N   0  0  0  0  0  0  0  0  0  0  0  0
    0.9200   10.7060  -10.6570 C   0  0  0  0  0  0  0  0  0  0  0  0
    2.7420   10.3130  -12.4880 C   0  0  0  0  0  0  0  0  0  0  0  0
    3.6120    9.2250  -12.6400 C   0  0  0  0  0  0  0  0  0  0  0  0
    0.5190   10.1730   -9.2290 C   0  0  0  0  0  0  0  0  0  0  0  0
    2.7820   11.4040  -13.3850 C   0  0  0  0  0  0  0  0  0  0  0  0
    4.5440    9.1960  -13.6870 C   0  0  0  0  0  0  0  0  0  0  0  0
    0.5170   11.3060   -8.1940 C   0  0  0  0  0  0  0  0  0  0  0  0
    3.7260   11.3520  -14.4270 C   0  0  0  0  0  0  0  0  0  0  0  0
    4.5950   10.2690  -14.5800 C   0  0  0  0  0  0  0  0  0  0  0  0
   -0.1420   11.1850   -6.8100 C   0  0  0  0  0  0  0  0  0  0  0  0
   -0.1760   12.6120   -6.1820 C   0  0  0  0  0  0  0  0  0  0  0  0
    0.7030   12.9390   -4.9420 C   0  0  2  0  0  0  0  0  0  0  0  0
   -0.1410   12.8860   -3.6600 C   0  0  1  0  0  0  0  0  0  0  0  0
    1.2310   14.3980   -4.9640 C   0  0  0  0  0  0  0  0  0  0  0  0
    0.4410   11.9350   -2.6750 C   0  0  0  0  0  0  0  0  0  0  0  0
    0.2360   15.2330   -4.1660 C   0  0  0  0  0  0  0  0  0  0  0  0
   -0.1470   14.2890   -3.0400 C   0  0  1  0  0  0  0  0  0  0  0  0
    1.2410   12.1920   -1.8090 O   0  0  0  0  0  0  0  0  0  0  0  0
   -0.0270   10.6880   -2.8340 O   0  0  0  0  0  0  0  0  0  0  0  0
   -1.4210   14.5580   -2.2790 C   0  0  0  0  0  0  0  0  0  0  0  0
   -2.6930   14.7850   -2.7870 C   0  0  0  0  0  0  0  0  0  0  0  0
   -1.4430   14.6040   -0.8450 C   0  0  0  0  0  0  0  0  0  0  0  0
   -2.6930   14.8560   -0.3310 C   0  0  0  0  0  0  0  0  0  0  0  0
   -3.8600   15.0440   -1.5620 S   0  0  0  0  0  0  0  0  0  0  0  0
  1  2  1  0
  2  3  1  0
  2  4  2  0
  3  5  1  0
  3  6  1  0
  4  7  1  0
  6  7  2  0
  5  8  1  0
  6  9  1  0
  7 10  1  0
  8 11  1  0
  9 12  2  0
 10 13  2  0
 12 13  1  0
 11 14  1  0
 14 15  1  0
 16 15  1  6
 16 17  1  0
 16 18  1  0
 17 19  1  1
 18 20  1  0
 17 21  1  0
 20 21  1  0
 19 22  2  0
 19 23  1  0
 21 24  1  6
 24 25  2  0
 24 26  1  0
 26 27  2  0
 25 28  1  0
 27 28  1  0
M  END
