x0158_0_B-x0299_0_A
     RDKit          3D

 33 35  0  0  0  0  0  0  0  0999 V2000
   17.2440   17.8550   11.2590 C   0  0  0  0  0  0  0  0  0  0  0  0
   16.0780   17.4280   12.1310 C   0  0  0  0  0  0  0  0  0  0  0  0
   15.8230   16.0320   11.9070 O   0  0  0  0  0  0  0  0  0  0  0  0
   15.8660   15.2420   13.0210 C   0  0  0  0  0  0  0  0  0  0  0  0
   15.9330   15.6680   14.1680 O   0  0  0  0  0  0  0  0  0  0  0  0
   15.8230   13.7460   12.6960 C   0  0  0  0  0  0  0  0  0  0  0  0
   14.6050   13.0190   13.1620 N   0  0  0  0  0  0  0  0  0  0  0  0
   14.2030   11.8730   12.3210 C   0  0  0  0  0  0  0  0  0  0  0  0
   13.4610   13.9220   13.2720 C   0  0  0  0  0  0  0  0  0  0  0  0
   13.2270   10.9530   13.0540 C   0  0  0  0  0  0  0  0  0  0  0  0
   12.5110   13.3340   14.2720 C   0  0  0  0  0  0  0  0  0  0  0  0
   11.8010   11.8050   13.6930 S   0  0  0  0  0  0  0  0  0  0  0  0
   11.3190   11.0420   14.9590 N   0  0  0  0  0  0  0  0  0  0  0  0
   10.9360   12.0740   12.5590 O   0  0  0  0  0  0  0  0  0  0  0  0
   10.9630    9.6170   14.8500 C   0  0  0  0  0  0  0  0  0  0  0  0
   11.9520    8.7830   15.6590 C   0  0  0  0  0  0  0  0  0  0  0  0
   12.8470    7.9560   14.7350 C   0  0  0  0  0  0  0  0  0  0  0  0
   14.3220    8.3830   14.7910 C   0  0  1  0  0  0  0  0  0  0  0  0
   15.1850    7.5750   15.7740 C   0  0  0  0  0  0  0  0  0  0  0  0
   14.9550    8.3860   13.3940 C   0  0  0  0  0  0  0  0  0  0  0  0
   14.0630    8.2630   12.3540 N   0  0  0  0  0  0  0  0  0  0  0  0
   15.9850    8.4350   16.7450 C   0  0  0  0  0  0  0  0  0  0  0  0
   16.1610    8.4930   13.2260 O   0  0  0  0  0  0  0  0  0  0  0  0
   14.5420    8.3260   10.9830 C   0  0  0  0  0  0  0  0  0  0  0  0
   14.7570    6.9610   10.4390 C   0  0  0  0  0  0  0  0  0  0  0  0
   14.3890    5.8200   11.1130 N   0  0  0  0  0  0  0  0  0  0  0  0
   15.3130    6.6660    9.2850 N   0  0  0  0  0  0  0  0  0  0  0  0
   15.3150    5.2810    9.2290 C   0  0  0  0  0  0  0  0  0  0  0  0
   14.7330    4.7340   10.3610 C   0  0  0  0  0  0  0  0  0  0  0  0
   14.5920    3.3610   10.5670 C   0  0  0  0  0  0  0  0  0  0  0  0
   15.7980    4.4110    8.2320 C   0  0  0  0  0  0  0  0  0  0  0  0
   15.0750    2.5170    9.5580 C   0  0  0  0  0  0  0  0  0  0  0  0
   15.6690    3.0310    8.4080 C   0  0  0  0  0  0  0  0  0  0  0  0
  1  2  1  0
  2  3  1  0
  3  4  1  0
  4  5  2  0
  4  6  1  0
  6  7  1  0
  7  8  1  0
  7  9  1  0
  8 10  1  0
  9 11  1  0
 12 10  1  0
 11 12  1  0
 12 13  2  0
 12 14  2  0
 13 15  1  0
 15 16  1  0
 16 17  1  0
 18 17  1  6
 18 19  1  0
 18 20  1  0
 20 21  1  0
 19 22  1  0
 20 23  2  0
 21 24  1  0
 24 25  1  0
 25 26  1  0
 25 27  2  0
 27 28  1  0
 26 29  1  0
 28 29  2  0
 29 30  1  0
 28 31  1  0
 30 32  2  0
 31 33  2  0
 32 33  1  0
M  END
