x0158_0_B_α-x0737_0_B_α
     RDKit          3D

 17 17  0  0  0  0  0  0  0  0999 V2000
   17.2490   17.8330   11.4440 C   0  0  0  0  0  0  0  0  0  0  0  0
   16.0730   17.3880   12.3030 C   0  0  0  0  0  0  0  0  0  0  0  0
   15.7930   15.9940   12.1020 O   0  0  0  0  0  0  0  0  0  0  0  0
   15.7410   15.1890   13.1870 C   0  0  0  0  0  0  0  0  0  0  0  0
   15.7700   15.5210   14.3550 O   0  0  0  0  0  0  0  0  0  0  0  0
   15.6600   13.7180   12.7260 C   0  0  0  0  0  0  0  0  0  0  0  0
   16.5820   13.3470   11.9900 O   0  0  0  0  0  0  0  0  0  0  0  0
   14.5670   12.8880   13.1490 N   0  0  0  0  0  0  0  0  0  0  0  0
   14.1260   11.7500   12.3180 C   0  0  0  0  0  0  0  0  0  0  0  0
   13.7390   13.1190   14.3410 C   0  0  0  0  0  0  0  0  0  0  0  0
   13.4490   10.6240   13.1210 C   0  0  0  0  0  0  0  0  0  0  0  0
   12.2680   12.8330   14.1090 C   0  0  1  0  0  0  0  0  0  0  0  0
   11.7880   13.6950   12.6590 S   0  0  0  0  0  0  0  0  0  0  0  0
   11.8780   11.1630   13.7760 S   0  0  0  0  0  0  0  0  0  0  0  0
   11.5700   10.5180   15.0370 O   0  0  0  0  0  0  0  0  0  0  0  0
   10.8720   11.1530   12.7120 O   0  0  0  0  0  0  0  0  0  0  0  0
   12.1890   15.1000   12.9250 O   0  0  0  0  0  0  0  0  0  0  0  0
  1  2  1  0
  2  3  1  0
  3  4  1  0
  4  5  2  0
  4  6  1  0
  6  7  2  0
  6  8  1  0
  8  9  1  0
  8 10  1  0
  9 11  1  0
 10 12  1  0
 12 13  1  6
 14 11  1  0
 12 14  1  0
 14 15  2  0
 14 16  2  0
 13 17  2  0
M  END
