x0158_0_B-x0737_0_B
     RDKit          3D

 17 17  0  0  0  0  0  0  0  0999 V2000
   17.2490   17.8310   11.4440 C   0  0  0  0  0  0  0  0  0  0  0  0
   16.0750   17.3920   12.3010 C   0  0  0  0  0  0  0  0  0  0  0  0
   15.7940   15.9960   12.1000 O   0  0  0  0  0  0  0  0  0  0  0  0
   15.7440   15.1920   13.1830 C   0  0  0  0  0  0  0  0  0  0  0  0
   15.7720   15.5220   14.3540 O   0  0  0  0  0  0  0  0  0  0  0  0
   15.6590   13.7170   12.7240 C   0  0  0  0  0  0  0  0  0  0  0  0
   16.5800   13.3460   11.9890 O   0  0  0  0  0  0  0  0  0  0  0  0
   14.5650   12.8860   13.1460 N   0  0  0  0  0  0  0  0  0  0  0  0
   14.1260   11.7480   12.3170 C   0  0  0  0  0  0  0  0  0  0  0  0
   13.7400   13.1220   14.3390 C   0  0  0  0  0  0  0  0  0  0  0  0
   13.4460   10.6250   13.1190 C   0  0  0  0  0  0  0  0  0  0  0  0
   12.2650   12.8350   14.1110 C   0  0  1  0  0  0  0  0  0  0  0  0
   11.7890   13.6960   12.6570 S   0  0  0  0  0  0  0  0  0  0  0  0
   11.8790   11.1650   13.7760 S   0  0  0  0  0  0  0  0  0  0  0  0
   11.5700   10.5170   15.0360 O   0  0  0  0  0  0  0  0  0  0  0  0
   10.8740   11.1530   12.7110 O   0  0  0  0  0  0  0  0  0  0  0  0
   12.1880   15.1000   12.9240 O   0  0  0  0  0  0  0  0  0  0  0  0
  1  2  1  0
  2  3  1  0
  3  4  1  0
  4  5  2  0
  4  6  1  0
  6  7  2  0
  6  8  1  0
  8  9  1  0
  8 10  1  0
  9 11  1  0
 10 12  1  0
 12 13  1  6
 14 11  1  0
 12 14  1  0
 14 15  2  0
 14 16  2  0
 13 17  2  0
M  END
