x0158_0_B_α-x0423_0_B_α
     RDKit          3D

 30 32  0  0  0  0  0  0  0  0999 V2000
   17.8100   17.5110   11.3340 C   0  0  0  0  0  0  0  0  0  0  0  0
   16.5910   17.3400   12.2380 C   0  0  2  0  0  0  0  0  0  0  0  0
   15.9320   16.0620   12.0320 O   0  0  0  0  0  0  0  0  0  0  0  0
   15.6020   18.4750   11.9850 C   0  0  0  0  0  0  0  0  0  0  0  0
   15.8480   15.2110   13.1090 C   0  0  0  0  0  0  0  0  0  0  0  0
   14.6240   18.7220   13.1350 C   0  0  0  0  0  0  0  0  0  0  0  0
   15.8380   15.5890   14.2720 O   0  0  0  0  0  0  0  0  0  0  0  0
   15.7830   13.7190   12.7300 C   0  0  0  0  0  0  0  0  0  0  0  0
   13.4660   19.5050   12.6850 N   0  0  0  0  0  0  0  0  0  0  0  0
   14.4990   13.0290   13.0710 N   0  0  0  0  0  0  0  0  0  0  0  0
   12.2560   19.2830   13.3110 C   0  0  0  0  0  0  0  0  0  0  0  0
   13.7520   20.8760   12.3320 N   0  0  0  0  0  0  0  0  0  0  0  0
   14.2970   11.7520   12.3700 C   0  0  0  0  0  0  0  0  0  0  0  0
   13.3950   13.9280   12.8060 C   0  0  0  0  0  0  0  0  0  0  0  0
   11.8150   20.0800   14.2540 C   0  0  0  0  0  0  0  0  0  0  0  0
   13.1740   21.8690   13.2770 C   0  0  2  0  0  0  0  0  0  0  0  0
   13.2300   10.8450   12.9690 C   0  0  0  0  0  0  0  0  0  0  0  0
   12.0860   13.4950   13.4230 C   0  0  0  0  0  0  0  0  0  0  0  0
   14.0990   22.9670   13.5030 N   0  0  0  0  0  0  0  0  0  0  0  0
   12.6630   21.2450   14.5970 C   0  0  0  0  0  0  0  0  0  0  0  0
   11.7620   11.7280   13.4810 S   0  0  0  0  0  0  0  0  0  0  0  0
   13.4640   24.1300   14.1320 C   0  0  0  0  0  0  0  0  0  0  0  0
   14.9110   23.3270   12.3500 C   0  0  0  0  0  0  0  0  0  0  0  0
   11.5450   11.3700   14.8740 O   0  0  0  0  0  0  0  0  0  0  0  0
   10.6890   11.4400   12.5440 O   0  0  0  0  0  0  0  0  0  0  0  0
   14.4100   25.3590   14.2190 C   0  0  1  0  0  0  0  0  0  0  0  0
   16.0950   24.1970   12.7880 C   0  0  0  0  0  0  0  0  0  0  0  0
   14.2430   26.1970   15.4070 N   0  0  0  0  0  0  0  0  0  0  0  0
   15.8590   24.8820   14.1330 C   0  0  0  0  0  0  0  0  0  0  0  0
   12.9430   26.8400   15.4620 C   0  0  0  0  0  0  0  0  0  0  0  0
  2  1  1  6
  2  3  1  0
  2  4  1  0
  3  5  1  0
  4  6  1  0
  5  7  2  0
  5  8  1  0
  6  9  1  0
  8 10  1  0
  9 11  1  0
  9 12  1  0
 10 13  1  0
 10 14  1  0
 11 15  2  0
 12 16  1  0
 13 17  1  0
 14 18  1  0
 16 19  1  1
 15 20  1  0
 16 20  1  0
 21 17  1  0
 18 21  1  0
 19 22  1  0
 19 23  1  0
 21 24  2  0
 21 25  2  0
 22 26  1  0
 23 27  1  0
 26 28  1  1
 26 29  1  0
 27 29  1  0
 28 30  1  0
M  END
