x0159_0_B_β-x0159_0_B_α
     RDKit          3D

 17 19  0  0  0  0  0  0  0  0999 V2000
    1.8610    8.3180   -9.7340 N   0  0  0  0  0  0  0  0  0  0  0  0
    1.0290    7.0930   -9.7670 C   0  0  0  0  0  0  0  0  0  0  0  0
    1.3920    5.9730   -8.7670 C   0  0  0  0  0  0  0  0  0  0  0  0
    2.4650    8.8140  -10.8680 C   0  0  0  0  0  0  0  0  0  0  0  0
    2.0690   10.0060  -11.4560 N   0  0  0  0  0  0  0  0  0  0  0  0
    3.4610    8.2960  -11.5490 N   0  0  0  0  0  0  0  0  0  0  0  0
    2.8730   10.2540  -12.5600 C   0  0  0  0  0  0  0  0  0  0  0  0
    3.7300    9.1600  -12.5860 C   0  0  0  0  0  0  0  0  0  0  0  0
    0.7860    5.8920   -7.4910 C   0  0  0  0  0  0  0  0  0  0  0  0
    2.3350    4.9810   -9.1000 C   0  0  0  0  0  0  0  0  0  0  0  0
    2.9300   11.2930  -13.5000 C   0  0  0  0  0  0  0  0  0  0  0  0
    4.7060    9.0750  -13.5910 C   0  0  0  0  0  0  0  0  0  0  0  0
    1.1140    4.8600   -6.6020 C   0  0  0  0  0  0  0  0  0  0  0  0
    2.6570    3.9540   -8.2060 C   0  0  0  0  0  0  0  0  0  0  0  0
    3.9130   11.1910  -14.4960 C   0  0  0  0  0  0  0  0  0  0  0  0
    4.7870   10.0990  -14.5420 C   0  0  0  0  0  0  0  0  0  0  0  0
    2.0510    3.8960   -6.9630 C   0  0  0  0  0  0  0  0  0  0  0  0
  1  2  1  0
  2  3  1  0
  1  4  1  0
  4  5  1  0
  4  6  2  0
  5  7  1  0
  6  8  1  0
  7  8  2  0
  3  9  2  0
  3 10  1  0
  7 11  1  0
  8 12  1  0
  9 13  1  0
 10 14  2  0
 11 15  2  0
 12 16  2  0
 15 16  1  0
 13 17  2  0
 14 17  1  0
M  END
