x0159_0_B_α-x0676_0_B_α
     RDKit          3D

 20 22  0  0  0  0  0  0  0  0999 V2000
    1.8260    7.6460   -8.9100 C   0  0  0  0  0  0  0  0  0  0  0  0
    0.8210    6.6090   -9.3130 C   0  0  0  0  0  0  0  0  0  0  0  0
    1.2850    5.4330   -8.5630 C   0  0  0  0  0  0  0  0  0  0  0  0
    2.8980    7.7870   -9.9090 C   0  0  0  0  0  0  0  0  0  0  0  0
    4.2200    7.2470  -10.0800 C   0  0  0  0  0  0  0  0  0  0  0  0
    2.7150    8.6020  -10.9600 C   0  0  0  0  0  0  0  0  0  0  0  0
    5.0090    6.2960   -9.2430 C   0  0  0  0  0  0  0  0  0  0  0  0
    0.8630    5.2680   -7.2580 C   0  0  0  0  0  0  0  0  0  0  0  0
    2.1490    4.5180   -9.1520 C   0  0  0  0  0  0  0  0  0  0  0  0
    4.7750    7.7380  -11.2030 N   0  0  0  0  0  0  0  0  0  0  0  0
    3.8310    8.5800  -11.7140 N   0  0  0  0  0  0  0  0  0  0  0  0
    1.3110    4.1910   -6.5440 C   0  0  0  0  0  0  0  0  0  0  0  0
    2.6010    3.4330   -8.4320 C   0  0  0  0  0  0  0  0  0  0  0  0
    3.9870    9.3740  -12.8650 C   0  0  0  0  0  0  0  0  0  0  0  0
    2.1850    3.2690   -7.1280 C   0  0  0  0  0  0  0  0  0  0  0  0
    3.0910   10.4480  -12.9910 C   0  0  0  0  0  0  0  0  0  0  0  0
    4.9610    9.1670  -13.8340 C   0  0  0  0  0  0  0  0  0  0  0  0
    3.1650   11.3150  -14.0700 C   0  0  0  0  0  0  0  0  0  0  0  0
    5.0290   10.0450  -14.9210 C   0  0  0  0  0  0  0  0  0  0  0  0
    4.1380   11.1140  -15.0360 C   0  0  0  0  0  0  0  0  0  0  0  0
  1  2  1  0
  2  3  1  0
  1  4  1  0
  4  5  1  0
  4  6  2  0
  5  7  1  0
  3  8  2  0
  3  9  1  0
  5 10  2  0
  6 11  1  0
 10 11  1  0
  8 12  1  0
  9 13  2  0
 11 14  1  0
 12 15  2  0
 13 15  1  0
 14 16  2  0
 14 17  1  0
 16 18  1  0
 17 19  2  0
 18 20  2  0
 19 20  1  0
M  END
