x0159_0_B_β-x0676_0_B_α
     RDKit          3D

 15 17  0  0  0  0  0  0  0  0999 V2000
    1.7500    8.5800  -11.3720 N   0  0  0  0  0  0  0  0  0  0  0  0
    1.9590    9.9720  -11.5320 C   0  0  2  0  0  0  0  0  0  0  0  0
    1.4840   11.0000  -10.6110 N   0  0  0  0  0  0  0  0  0  0  0  0
    2.8860    7.7070  -11.7080 C   0  0  1  0  0  0  0  0  0  0  0  0
    1.8040   10.6290  -12.9410 C   0  0  1  0  0  0  0  0  0  0  0  0
    4.2360    8.0770  -12.5110 C   0  0  1  0  0  0  0  0  0  0  0  0
    3.4290    7.2460  -10.3250 C   0  0  0  0  0  0  0  0  0  0  0  0
    0.7910   11.7200  -12.6330 C   0  0  0  0  0  0  0  0  0  0  0  0
    3.0610   11.2590  -13.5280 C   0  0  0  0  0  0  0  0  0  0  0  0
    4.5640    9.1180  -13.6030 C   0  0  0  0  0  0  0  0  0  0  0  0
    5.3350    7.8720  -11.5420 N   0  0  0  0  0  0  0  0  0  0  0  0
    4.8840    6.8750  -10.5710 C   0  0  1  0  0  0  0  0  0  0  0  0
    0.6740   11.8710  -11.3110 C   0  0  0  0  0  0  0  0  0  0  0  0
    5.7480    6.8820   -9.3130 C   0  0  0  0  0  0  0  0  0  0  0  0
    4.1360   10.3430  -14.0240 C   0  0  0  0  0  0  0  0  0  0  0  0
  2  1  1  6
  2  3  1  0
  1  4  1  0
  2  5  1  0
  4  6  1  0
  4  7  1  1
  5  8  1  1
  5  9  1  0
  6 10  1  1
  6 11  1  0
  7 12  1  0
 11 12  1  0
  3 13  1  0
  8 13  2  0
 12 14  1  1
  9 15  1  0
 10 15  2  0
M  END
