x0159_0_B_α-x0805_0_A_α
     RDKit          3D

 23 24  0  0  0  0  0  0  0  0999 V2000
    2.4670    7.7440   -9.7300 C   0  0  0  0  0  0  0  0  0  0  0  0
    1.1580    7.2950   -9.0790 C   0  0  2  0  0  0  0  0  0  0  0  0
    0.5630    8.3760   -8.1450 C   0  0  0  0  0  0  0  0  0  0  0  0
    1.1710    5.9230   -8.4330 C   0  0  0  0  0  0  0  0  0  0  0  0
    0.6020    9.8530   -8.5710 C   0  0  0  0  0  0  0  0  0  0  0  0
    0.8720    5.7400   -7.0880 C   0  0  0  0  0  0  0  0  0  0  0  0
    1.4820    4.7930   -9.1960 C   0  0  0  0  0  0  0  0  0  0  0  0
    0.2640   10.8910   -7.5040 C   0  0  0  0  0  0  0  0  0  0  0  0
    0.8840    4.4770   -6.5170 C   0  0  0  0  0  0  0  0  0  0  0  0
    1.4830    3.5300   -8.6210 C   0  0  0  0  0  0  0  0  0  0  0  0
   -0.9150   10.4830   -6.6200 C   0  0  0  0  0  0  0  0  0  0  0  0
    1.1900    3.3690   -7.2860 C   0  0  0  0  0  0  0  0  0  0  0  0
   -0.5950   10.2800   -5.1330 C   0  0  0  0  0  0  0  0  0  0  0  0
   -1.7040   10.6850   -4.1590 C   0  0  0  0  0  0  0  0  0  0  0  0
   -2.4890   11.9510   -4.5280 C   0  0  0  0  0  0  0  0  0  0  0  0
   -2.7260   12.8970   -3.3820 C   0  0  0  0  0  0  0  0  0  0  0  0
   -1.7100   13.7590   -2.9620 C   0  0  0  0  0  0  0  0  0  0  0  0
   -3.9550   12.9310   -2.7150 C   0  0  0  0  0  0  0  0  0  0  0  0
   -4.1670   13.8070   -1.6480 C   0  0  0  0  0  0  0  0  0  0  0  0
   -1.9230   14.6270   -1.8990 C   0  0  0  0  0  0  0  0  0  0  0  0
   -3.1510   14.6620   -1.2320 C   0  0  0  0  0  0  0  0  0  0  0  0
   -3.2160   15.5620   -0.2090 O   0  0  0  0  0  0  0  0  0  0  0  0
   -4.2660   15.4300    0.7400 C   0  0  0  0  0  0  0  0  0  0  0  0
  2  1  1  1
  2  3  1  0
  2  4  1  0
  3  5  1  0
  4  6  2  0
  4  7  1  0
  5  8  1  0
  6  9  1  0
  7 10  2  0
  8 11  1  0
  9 12  2  0
 10 12  1  0
 11 13  1  0
 13 14  1  0
 14 15  1  0
 15 16  1  0
 16 17  2  0
 16 18  1  0
 18 19  2  0
 17 20  1  0
 19 21  1  0
 20 21  2  0
 21 22  1  0
 22 23  1  0
M  END
