x0159_0_B_α-x0253_0_A_α
     RDKit          3D

 24 25  0  0  0  0  0  0  0  0999 V2000
    1.1410    7.4410  -10.0140 C   0  0  0  0  0  0  0  0  0  0  0  0
    1.3740    7.1060   -8.5500 C   0  0  1  0  0  0  0  0  0  0  0  0
    0.3600    7.7360   -7.5710 C   0  0  0  0  0  0  0  0  0  0  0  0
    1.3430    5.6610   -8.2490 C   0  0  0  0  0  0  0  0  0  0  0  0
   -1.0340    7.0300   -7.4800 C   0  0  0  0  0  0  0  0  0  0  0  0
    0.8400    5.3640   -6.9980 C   0  0  0  0  0  0  0  0  0  0  0  0
    1.7520    4.6300   -9.0900 C   0  0  0  0  0  0  0  0  0  0  0  0
   -2.0480    8.0940   -7.8480 C   0  0  0  0  0  0  0  0  0  0  0  0
    0.7360    4.0850   -6.5750 C   0  0  0  0  0  0  0  0  0  0  0  0
    1.6380    3.3180   -8.6480 C   0  0  0  0  0  0  0  0  0  0  0  0
    1.1330    3.0400   -7.3880 C   0  0  0  0  0  0  0  0  0  0  0  0
   -1.0790    9.1230   -8.2720 C   0  0  0  0  0  0  0  0  0  0  0  0
   -0.4820    9.9260   -7.3020 C   0  0  0  0  0  0  0  0  0  0  0  0
   -0.7470    9.2520   -9.6150 C   0  0  0  0  0  0  0  0  0  0  0  0
    0.4740   10.8620   -7.6610 C   0  0  0  0  0  0  0  0  0  0  0  0
    0.2020   10.1770   -9.9930 C   0  0  0  0  0  0  0  0  0  0  0  0
    1.1030   11.7060   -6.5920 C   0  0  0  0  0  0  0  0  0  0  0  0
    0.8110   10.9670   -9.0280 C   0  0  0  0  0  0  0  0  0  0  0  0
    0.3530   11.9610   -5.4680 N   0  0  0  0  0  0  0  0  0  0  0  0
    2.2320   12.1410   -6.6650 O   0  0  0  0  0  0  0  0  0  0  0  0
    0.9330   12.8760   -4.4980 C   0  0  0  0  0  0  0  0  0  0  0  0
    0.8410   12.3410   -3.0760 C   0  0  0  0  0  0  0  0  0  0  0  0
    1.1400   12.9500   -2.0640 O   0  0  0  0  0  0  0  0  0  0  0  0
    0.3890   11.0770   -2.9780 O   0  0  0  0  0  0  0  0  0  0  0  0
  2  1  1  6
  2  3  1  0
  2  4  1  0
  3  5  1  0
  4  6  2  0
  4  7  1  0
  5  8  1  0
  6  9  1  0
  7 10  2  0
  9 11  2  0
 10 11  1  0
  8 12  1  0
 12 13  2  0
 12 14  1  0
 13 15  1  0
 14 16  2  0
 15 17  1  0
 15 18  2  0
 16 18  1  0
 17 19  1  0
 17 20  2  0
 19 21  1  0
 21 22  1  0
 22 23  2  0
 22 24  1  0
M  END
