x0158_0_B-x0423_0_B
     RDKit          3D

 30 32  0  0  0  0  0  0  0  0999 V2000
   17.8070   17.5110   11.3360 C   0  0  0  0  0  0  0  0  0  0  0  0
   16.5890   17.3370   12.2370 C   0  0  2  0  0  0  0  0  0  0  0  0
   15.9310   16.0590   12.0280 O   0  0  0  0  0  0  0  0  0  0  0  0
   15.6010   18.4730   11.9840 C   0  0  0  0  0  0  0  0  0  0  0  0
   15.8520   15.2120   13.1060 C   0  0  0  0  0  0  0  0  0  0  0  0
   14.6260   18.7200   13.1340 C   0  0  0  0  0  0  0  0  0  0  0  0
   15.8400   15.5910   14.2680 O   0  0  0  0  0  0  0  0  0  0  0  0
   15.7860   13.7160   12.7310 C   0  0  0  0  0  0  0  0  0  0  0  0
   13.4690   19.5080   12.6860 N   0  0  0  0  0  0  0  0  0  0  0  0
   14.5030   13.0310   13.0650 N   0  0  0  0  0  0  0  0  0  0  0  0
   12.2590   19.2830   13.3070 C   0  0  0  0  0  0  0  0  0  0  0  0
   13.7510   20.8780   12.3330 N   0  0  0  0  0  0  0  0  0  0  0  0
   14.2990   11.7510   12.3670 C   0  0  0  0  0  0  0  0  0  0  0  0
   13.3950   13.9280   12.8010 C   0  0  0  0  0  0  0  0  0  0  0  0
   11.8130   20.0820   14.2500 C   0  0  0  0  0  0  0  0  0  0  0  0
   13.1710   21.8710   13.2780 C   0  0  2  0  0  0  0  0  0  0  0  0
   13.2340   10.8470   12.9670 C   0  0  0  0  0  0  0  0  0  0  0  0
   12.0900   13.4960   13.4200 C   0  0  0  0  0  0  0  0  0  0  0  0
   14.0980   22.9720   13.5040 N   0  0  0  0  0  0  0  0  0  0  0  0
   12.6630   21.2470   14.5930 C   0  0  0  0  0  0  0  0  0  0  0  0
   11.7640   11.7280   13.4800 S   0  0  0  0  0  0  0  0  0  0  0  0
   13.4630   24.1330   14.1300 C   0  0  0  0  0  0  0  0  0  0  0  0
   14.9110   23.3250   12.3500 C   0  0  0  0  0  0  0  0  0  0  0  0
   11.5440   11.3690   14.8710 O   0  0  0  0  0  0  0  0  0  0  0  0
   10.6920   11.4410   12.5440 O   0  0  0  0  0  0  0  0  0  0  0  0
   14.4110   25.3610   14.2230 C   0  0  1  0  0  0  0  0  0  0  0  0
   16.0930   24.1980   12.7860 C   0  0  0  0  0  0  0  0  0  0  0  0
   14.2440   26.1980   15.4100 N   0  0  0  0  0  0  0  0  0  0  0  0
   15.8600   24.8810   14.1320 C   0  0  0  0  0  0  0  0  0  0  0  0
   12.9400   26.8360   15.4640 C   0  0  0  0  0  0  0  0  0  0  0  0
  2  1  1  6
  2  3  1  0
  2  4  1  0
  3  5  1  0
  4  6  1  0
  5  7  2  0
  5  8  1  0
  6  9  1  0
  8 10  1  0
  9 11  1  0
  9 12  1  0
 10 13  1  0
 10 14  1  0
 11 15  2  0
 12 16  1  0
 13 17  1  0
 14 18  1  0
 16 19  1  1
 15 20  1  0
 16 20  1  0
 21 17  1  0
 18 21  1  0
 19 22  1  0
 19 23  1  0
 21 24  2  0
 21 25  2  0
 22 26  1  0
 23 27  1  0
 26 28  1  1
 26 29  1  0
 27 29  1  0
 28 30  1  0
M  END
