x0159_0_B-x0685_1_A
     RDKit          3D

 32 35  0  0  0  0  0  0  0  0999 V2000
    1.3810    9.0820  -10.2130 N   0  0  0  0  0  0  0  0  0  0  0  0
    1.6690    8.0690   -9.2090 C   0  0  2  0  0  0  0  0  0  0  0  0
    1.1250    6.7130   -9.6710 C   0  0  0  0  0  0  0  0  0  0  0  0
    2.2000    9.3250  -11.2410 C   0  0  0  0  0  0  0  0  0  0  0  0
    1.0460    8.5030   -7.8840 C   0  0  0  0  0  0  0  0  0  0  0  0
    2.0100   10.4760  -11.9460 N   0  0  0  0  0  0  0  0  0  0  0  0
    3.2010    8.6280  -11.7240 N   0  0  0  0  0  0  0  0  0  0  0  0
    3.6750    9.3660  -12.7840 C   0  0  0  0  0  0  0  0  0  0  0  0
    2.9390   10.5370  -12.9430 C   0  0  0  0  0  0  0  0  0  0  0  0
    1.4850    5.5950   -8.7370 C   0  0  0  0  0  0  0  0  0  0  0  0
   -0.4780    8.4570   -7.7870 C   0  0  1  0  0  0  0  0  0  0  0  0
    2.3870    4.6270   -9.1660 C   0  0  0  0  0  0  0  0  0  0  0  0
    0.9390    5.5060   -7.4500 C   0  0  0  0  0  0  0  0  0  0  0  0
    3.1890   11.4820  -13.9320 C   0  0  0  0  0  0  0  0  0  0  0  0
    4.7340    9.1090  -13.6630 C   0  0  0  0  0  0  0  0  0  0  0  0
   -0.8790    8.8530   -6.3610 C   0  0  0  0  0  0  0  0  0  0  0  0
   -1.1800    9.3080   -8.8510 C   0  0  0  0  0  0  0  0  0  0  0  0
    2.7490    3.5850   -8.3350 C   0  0  0  0  0  0  0  0  0  0  0  0
    1.3070    4.4580   -6.6170 C   0  0  0  0  0  0  0  0  0  0  0  0
    4.2470   11.2100  -14.7980 C   0  0  0  0  0  0  0  0  0  0  0  0
    5.0090   10.0430  -14.6680 C   0  0  0  0  0  0  0  0  0  0  0  0
   -0.8970   10.3760   -6.1140 C   0  0  2  0  0  0  0  0  0  0  0  0
   -1.1030   10.8100   -8.5860 C   0  0  0  0  0  0  0  0  0  0  0  0
   -1.3220   10.6950   -4.7430 N   0  0  0  0  0  0  0  0  0  0  0  0
    2.2160    3.5020   -7.0690 C   0  0  0  0  0  0  0  0  0  0  0  0
   -1.6340   11.1720   -7.2060 C   0  0  0  0  0  0  0  0  0  0  0  0
   -1.4890   12.1140   -4.4130 C   0  0  0  0  0  0  0  0  0  0  0  0
   -0.1520   12.7610   -4.0840 C   0  0  0  0  0  0  0  0  0  0  0  0
    0.6510   12.0410   -2.6490 S   0  0  0  0  0  0  0  0  0  0  0  0
    2.2110   12.3290   -2.8440 O   0  0  0  0  0  0  0  0  0  0  0  0
    0.3290   10.4680   -2.5690 O   0  0  0  0  0  0  0  0  0  0  0  0
    0.1080   12.7590   -1.3240 O   0  0  0  0  0  0  0  0  0  0  0  0
  1  2  1  0
  2  3  1  6
  1  4  1  0
  2  5  1  0
  4  6  1  0
  4  7  2  0
  7  8  1  0
  6  9  1  0
  8  9  2  0
  3 10  1  0
 11  5  1  1
 10 12  2  0
 10 13  1  0
  9 14  1  0
  8 15  1  0
 11 16  1  0
 11 17  1  0
 12 18  1  0
 13 19  2  0
 14 20  2  0
 15 21  2  0
 20 21  1  0
 16 22  1  0
 17 23  1  0
 22 24  1  1
 18 25  2  0
 19 25  1  0
 22 26  1  0
 23 26  1  0
 24 27  1  0
 27 28  1  0
 28 29  1  0
 29 30  1  0
 29 31  1  0
 29 32  1  0
M  END
