x0158_0_B-x0796_0_B
     RDKit          3D

 23 25  0  0  0  0  0  0  0  0999 V2000
   17.3250   17.7460   11.3880 C   0  0  0  0  0  0  0  0  0  0  0  0
   15.9900   17.4440   12.0480 C   0  0  0  0  0  0  0  0  0  0  0  0
   15.6200   16.0730   11.8220 O   0  0  0  0  0  0  0  0  0  0  0  0
   15.5980   15.2990   12.9450 C   0  0  0  0  0  0  0  0  0  0  0  0
   15.6870   15.7340   14.0840 O   0  0  0  0  0  0  0  0  0  0  0  0
   15.4640   13.8040   12.6450 C   0  0  0  0  0  0  0  0  0  0  0  0
   14.0990   13.1910   12.5290 N   0  0  0  0  0  0  0  0  0  0  0  0
   14.1310   11.6940   12.3690 C   0  0  2  0  0  0  0  0  0  0  0  0
   13.0480   13.8190   13.3860 C   0  0  0  0  0  0  0  0  0  0  0  0
   13.2540   10.7640   13.2370 C   0  0  0  0  0  0  0  0  0  0  0  0
   12.6190   12.8270   14.4660 C   0  0  1  0  0  0  0  0  0  0  0  0
   15.6080   11.3140   12.6280 C   0  0  0  0  0  0  0  0  0  0  0  0
   13.6910   11.1140   11.0690 C   0  0  0  0  0  0  0  0  0  0  0  0
   11.7380   11.5170   13.6890 S   0  0  0  0  0  0  0  0  0  0  0  0
   13.8580   12.1540   15.0010 C   0  0  0  0  0  0  0  0  0  0  0  0
   12.0940   13.2320   15.8480 C   0  0  0  0  0  0  0  0  0  0  0  0
   16.1990   10.2340   12.1220 C   0  0  0  0  0  0  0  0  0  0  0  0
   14.2780   10.0110   10.5990 C   0  0  0  0  0  0  0  0  0  0  0  0
   11.0750   10.6890   14.6740 O   0  0  0  0  0  0  0  0  0  0  0  0
   11.0530   11.9820   12.5010 O   0  0  0  0  0  0  0  0  0  0  0  0
   13.2440   11.1180   15.9290 C   0  0  0  0  0  0  0  0  0  0  0  0
   12.0670   11.8630   16.5480 C   0  0  0  0  0  0  0  0  0  0  0  0
   15.4270    9.3010   11.2610 C   0  0  0  0  0  0  0  0  0  0  0  0
  1  2  1  0
  2  3  1  0
  3  4  1  0
  4  5  2  0
  4  6  1  0
  6  7  1  0
  7  8  1  0
  7  9  1  0
  8 10  1  1
 11  9  1  6
  8 12  1  0
  8 13  1  0
 14 10  1  0
 11 14  1  0
 11 15  1  0
 11 16  1  0
 12 17  2  0
 13 18  2  0
 14 19  2  0
 14 20  2  0
 15 21  1  0
 16 22  1  0
 21 22  1  0
 17 23  1  0
 18 23  1  0
M  END
