x0159_0_B_β-x0727_0_A_α
     RDKit          3D

 25 27  0  0  0  0  0  0  0  0999 V2000
    1.8920    8.4000  -10.0030 N   0  0  0  0  0  0  0  0  0  0  0  0
    2.4370    8.9500  -11.1010 C   0  0  0  0  0  0  0  0  0  0  0  0
    2.1760   10.2380  -11.4940 N   0  0  0  0  0  0  0  0  0  0  0  0
    3.2640    8.3450  -11.9000 N   0  0  0  0  0  0  0  0  0  0  0  0
    1.3010   11.1330  -10.7400 C   0  0  0  0  0  0  0  0  0  0  0  0
    2.9040   10.4680  -12.6660 C   0  0  0  0  0  0  0  0  0  0  0  0
    3.5740    9.2590  -12.8690 C   0  0  0  0  0  0  0  0  0  0  0  0
    0.9670   10.5200   -9.3560 C   0  0  0  0  0  0  0  0  0  0  0  0
    3.0630   11.5560  -13.5380 C   0  0  0  0  0  0  0  0  0  0  0  0
    4.4380    9.1080  -13.9600 C   0  0  0  0  0  0  0  0  0  0  0  0
    0.9350   11.3500   -8.1310 N   0  0  0  0  0  0  0  0  0  0  0  0
    3.9330   11.3850  -14.6270 C   0  0  0  0  0  0  0  0  0  0  0  0
    4.6120   10.1810  -14.8340 C   0  0  0  0  0  0  0  0  0  0  0  0
    0.3660   10.8830   -7.0920 C   0  0  0  0  0  0  0  0  0  0  0  0
    0.1360   11.4250   -5.8190 N   0  0  0  0  0  0  0  0  0  0  0  0
   -0.1510    9.4880   -7.4160 C   0  0  0  0  0  0  0  0  0  0  0  0
    0.9640   12.3270   -4.9690 C   0  0  1  0  0  0  0  0  0  0  0  0
   -1.4420    9.6480   -8.2230 C   0  0  0  0  0  0  0  0  0  0  0  0
   -0.4840    8.6110   -6.2070 C   0  0  0  0  0  0  0  0  0  0  0  0
    0.7140   13.7950   -5.2510 C   0  0  0  0  0  0  0  0  0  0  0  0
    0.8210   11.9330   -3.4870 C   0  0  0  0  0  0  0  0  0  0  0  0
   -2.3780    8.5830   -7.6950 C   0  0  0  0  0  0  0  0  0  0  0  0
   -1.9910    8.4280   -6.2340 C   0  0  0  0  0  0  0  0  0  0  0  0
    0.2310   10.9380   -3.0830 O   0  0  0  0  0  0  0  0  0  0  0  0
    1.3960   12.7690   -2.6010 O   0  0  0  0  0  0  0  0  0  0  0  0
  1  2  1  0
  2  3  1  0
  2  4  2  0
  3  5  1  0
  3  6  1  0
  4  7  1  0
  6  7  2  0
  5  8  1  0
  6  9  1  0
  7 10  1  0
  8 11  1  0
  9 12  2  0
 10 13  2  0
 12 13  1  0
 11 14  2  3
 14 15  1  0
 14 16  1  0
 15 17  1  0
 16 18  1  0
 16 19  1  0
 17 20  1  1
 17 21  1  0
 18 22  1  0
 19 23  1  0
 22 23  1  0
 21 24  2  0
 21 25  1  0
M  END
