x0159_0_B-x0524_0_A
     RDKit          3D

 29 32  0  0  0  0  0  0  0  0999 V2000
    1.0270   10.3390   -9.4320 N   0  0  0  0  0  0  0  0  0  0  0  0
    1.2650    9.2320   -8.4600 C   0  0  0  0  0  0  0  0  0  0  0  0
    1.9420    7.9660   -9.0420 C   0  0  0  0  0  0  0  0  0  0  0  0
    1.6170   10.2880  -10.6490 C   0  0  0  0  0  0  0  0  0  0  0  0
    1.8930   11.4070  -11.4220 N   0  0  0  0  0  0  0  0  0  0  0  0
    2.0080    9.2310  -11.2590 N   0  0  0  0  0  0  0  0  0  0  0  0
    2.5520    9.6310  -12.4360 C   0  0  0  0  0  0  0  0  0  0  0  0
    2.5200   10.9840  -12.5910 C   0  0  0  0  0  0  0  0  0  0  0  0
    1.8490    6.6510   -8.2720 C   0  0  0  0  0  0  0  0  0  0  0  0
    2.7780    5.6320   -8.5330 C   0  0  0  0  0  0  0  0  0  0  0  0
    0.8560    6.4220   -7.3090 C   0  0  0  0  0  0  0  0  0  0  0  0
    3.0470   11.6000  -13.7240 C   0  0  0  0  0  0  0  0  0  0  0  0
    3.0770    8.7710  -13.3760 C   0  0  0  0  0  0  0  0  0  0  0  0
    2.9270    7.4380  -12.9610 N   0  0  0  0  0  0  0  0  0  0  0  0
    2.7120    4.4150   -7.8560 C   0  0  0  0  0  0  0  0  0  0  0  0
    0.7960    5.1990   -6.6320 C   0  0  0  0  0  0  0  0  0  0  0  0
    3.6130   10.7450  -14.6980 C   0  0  0  0  0  0  0  0  0  0  0  0
    3.6300    9.3420  -14.5360 C   0  0  0  0  0  0  0  0  0  0  0  0
    1.7220    4.2050   -6.9120 C   0  0  0  0  0  0  0  0  0  0  0  0
    1.9260    7.2530  -11.9600 C   0  0  0  0  0  0  0  0  0  0  0  0
    1.8820    6.2890  -10.9460 C   0  0  0  0  0  0  0  0  0  0  0  0
    0.8610    8.1780  -12.0020 C   0  0  0  0  0  0  0  0  0  0  0  0
    0.8140    6.2810  -10.0080 C   0  0  0  0  0  0  0  0  0  0  0  0
   -0.1900    8.1760  -11.0730 C   0  0  0  0  0  0  0  0  0  0  0  0
   -0.2280    7.2350  -10.0540 C   0  0  0  0  0  0  0  0  0  0  0  0
   -1.2530    7.1940   -9.0610 N   0  0  0  0  0  0  0  0  0  0  0  0
   -1.5400    8.1870   -8.1160 C   0  0  0  0  0  0  0  0  0  0  0  0
   -1.8370    7.6250   -6.7420 C   0  0  0  0  0  0  0  0  0  0  0  0
   -1.5710    9.4050   -8.2890 O   0  0  0  0  0  0  0  0  0  0  0  0
  1  2  1  0
  2  3  1  0
  1  4  1  0
  4  5  1  0
  4  6  2  0
  6  7  1  0
  5  8  1  0
  7  8  2  0
  3  9  1  0
  9 10  2  0
  9 11  1  0
  8 12  1  0
  7 13  1  0
 13 14  1  0
 10 15  1  0
 11 16  2  0
 12 17  2  0
 13 18  2  0
 17 18  1  0
 15 19  2  0
 16 19  1  0
 14 20  1  0
 20 21  2  0
 20 22  1  0
 21 23  1  0
 22 24  2  0
 23 25  2  0
 24 25  1  0
 25 26  1  0
 26 27  1  0
 27 28  1  0
 27 29  2  0
M  END
