x0158_0_B-x0299_0_A
     RDKit          3D

 33 35  0  0  0  0  0  0  0  0999 V2000
   17.2370   17.8580   11.2580 C   0  0  0  0  0  0  0  0  0  0  0  0
   16.0790   17.4300   12.1380 C   0  0  0  0  0  0  0  0  0  0  0  0
   15.8190   16.0350   11.9140 O   0  0  0  0  0  0  0  0  0  0  0  0
   15.8630   15.2430   13.0270 C   0  0  0  0  0  0  0  0  0  0  0  0
   15.9350   15.6660   14.1740 O   0  0  0  0  0  0  0  0  0  0  0  0
   15.8220   13.7490   12.7000 C   0  0  0  0  0  0  0  0  0  0  0  0
   14.6030   13.0210   13.1610 N   0  0  0  0  0  0  0  0  0  0  0  0
   14.2000   11.8740   12.3180 C   0  0  0  0  0  0  0  0  0  0  0  0
   13.4560   13.9200   13.2800 C   0  0  0  0  0  0  0  0  0  0  0  0
   13.2260   10.9530   13.0520 C   0  0  0  0  0  0  0  0  0  0  0  0
   12.5120   13.3240   14.2830 C   0  0  0  0  0  0  0  0  0  0  0  0
   11.8000   11.8000   13.6980 S   0  0  0  0  0  0  0  0  0  0  0  0
   11.3170   11.0310   14.9620 N   0  0  0  0  0  0  0  0  0  0  0  0
   10.9340   12.0760   12.5660 O   0  0  0  0  0  0  0  0  0  0  0  0
   10.9640    9.6050   14.8490 C   0  0  0  0  0  0  0  0  0  0  0  0
   11.9540    8.7700   15.6570 C   0  0  0  0  0  0  0  0  0  0  0  0
   12.8490    7.9460   14.7360 C   0  0  0  0  0  0  0  0  0  0  0  0
   14.3230    8.3820   14.7880 C   0  0  1  0  0  0  0  0  0  0  0  0
   15.1880    7.5750   15.7740 C   0  0  0  0  0  0  0  0  0  0  0  0
   14.9520    8.3840   13.3940 C   0  0  0  0  0  0  0  0  0  0  0  0
   14.0610    8.2660   12.3500 N   0  0  0  0  0  0  0  0  0  0  0  0
   15.9850    8.4370   16.7440 C   0  0  0  0  0  0  0  0  0  0  0  0
   16.1620    8.4890   13.2220 O   0  0  0  0  0  0  0  0  0  0  0  0
   14.5420    8.3250   10.9830 C   0  0  0  0  0  0  0  0  0  0  0  0
   14.7570    6.9630   10.4410 C   0  0  0  0  0  0  0  0  0  0  0  0
   14.3890    5.8190   11.1150 N   0  0  0  0  0  0  0  0  0  0  0  0
   15.3130    6.6650    9.2870 N   0  0  0  0  0  0  0  0  0  0  0  0
   15.3150    5.2810    9.2300 C   0  0  0  0  0  0  0  0  0  0  0  0
   14.7330    4.7330   10.3630 C   0  0  0  0  0  0  0  0  0  0  0  0
   14.5930    3.3600   10.5680 C   0  0  0  0  0  0  0  0  0  0  0  0
   15.7970    4.4120    8.2330 C   0  0  0  0  0  0  0  0  0  0  0  0
   15.0750    2.5170    9.5580 C   0  0  0  0  0  0  0  0  0  0  0  0
   15.6690    3.0340    8.4080 C   0  0  0  0  0  0  0  0  0  0  0  0
  1  2  1  0
  2  3  1  0
  3  4  1  0
  4  5  2  0
  4  6  1  0
  6  7  1  0
  7  8  1  0
  7  9  1  0
  8 10  1  0
  9 11  1  0
 12 10  1  0
 11 12  1  0
 12 13  2  0
 12 14  2  0
 13 15  1  0
 15 16  1  0
 16 17  1  0
 18 17  1  6
 18 19  1  0
 18 20  1  0
 20 21  1  0
 19 22  1  0
 20 23  2  0
 21 24  1  0
 24 25  1  0
 25 26  1  0
 25 27  2  0
 27 28  1  0
 26 29  1  0
 28 29  2  0
 29 30  1  0
 28 31  1  0
 30 32  2  0
 31 33  2  0
 32 33  1  0
M  END
