x0173_0_B_α-x0631_0_A_α
     RDKit          3D

 22 23  0  0  0  0  0  0  0  0999 V2000
   15.1510   16.2850  -16.1600 C   0  0  0  0  0  0  0  0  0  0  0  0
   13.8920   15.7340  -16.2810 N   0  0  0  0  0  0  0  0  0  0  0  0
   12.7520   16.5720  -16.6020 C   0  0  0  0  0  0  0  0  0  0  0  0
   16.1150   15.7490  -15.6320 O   0  0  0  0  0  0  0  0  0  0  0  0
   13.7140   14.2950  -16.0390 C   0  0  0  0  0  0  0  0  0  0  0  0
   12.2920   13.7140  -16.2470 C   0  0  0  0  0  0  0  0  0  0  0  0
   11.6000   15.7700  -17.2110 C   0  0  0  0  0  0  0  0  0  0  0  0
   11.1570   14.6560  -16.3700 N   0  0  0  0  0  0  0  0  0  0  0  0
    9.9480   14.0470  -16.9430 C   0  0  0  0  0  0  0  0  0  0  0  0
    8.9550   13.5590  -15.8790 C   0  0  0  0  0  0  0  0  0  0  0  0
    7.5290   13.5020  -16.4390 C   0  0  0  0  0  0  0  0  0  0  0  0
    6.9690   12.0850  -16.6750 C   0  0  0  0  0  0  0  0  0  0  0  0
    5.5300   11.9130  -16.1610 C   0  0  0  0  0  0  0  0  0  0  0  0
    5.2150   10.5370  -15.5330 C   0  0  0  0  0  0  0  0  0  0  0  0
    3.7440   10.4800  -15.1060 C   0  0  1  0  0  0  0  0  0  0  0  0
    3.5020    9.4540  -14.1060 O   0  0  0  0  0  0  0  0  0  0  0  0
    3.3090   11.8130  -14.5260 C   0  0  0  0  0  0  0  0  0  0  0  0
    3.2060   10.1340  -12.8800 C   0  0  1  0  0  0  0  0  0  0  0  0
    2.5800   11.4560  -13.2650 C   0  0  0  0  0  0  0  0  0  0  0  0
    2.3310    9.3330  -11.8720 C   0  0  2  0  0  0  0  0  0  0  0  0
    1.5960   10.2100  -10.9700 N   0  0  0  0  0  0  0  0  0  0  0  0
    3.0860    8.4970  -11.0310 O   0  0  0  0  0  0  0  0  0  0  0  0
  1  2  1  0
  2  3  1  0
  1  4  2  0
  2  5  1  0
  5  6  1  0
  3  7  1  0
  6  8  1  0
  7  8  1  0
  8  9  1  0
  9 10  1  0
 10 11  1  0
 11 12  1  0
 12 13  1  0
 13 14  1  0
 15 14  1  1
 15 16  1  0
 15 17  1  0
 16 18  1  0
 17 19  1  0
 18 19  1  6
 18 20  1  0
 20 21  1  1
 20 22  1  0
M  END
