x0173_0_B_α-x0676_0_B_α
     RDKit          3D

 26 28  0  0  0  0  0  0  0  0999 V2000
   14.7460   16.1440  -15.8680 C   0  0  0  0  0  0  0  0  0  0  0  0
   13.5590   15.5030  -16.2200 N   0  0  0  0  0  0  0  0  0  0  0  0
   12.3620   16.2960  -16.4200 C   0  0  0  0  0  0  0  0  0  0  0  0
   15.8330   15.6120  -15.6670 O   0  0  0  0  0  0  0  0  0  0  0  0
   13.3320   14.1260  -15.8130 C   0  0  0  0  0  0  0  0  0  0  0  0
   12.2350   13.4260  -16.6470 C   0  0  0  0  0  0  0  0  0  0  0  0
   11.2050   15.5600  -17.1570 C   0  0  0  0  0  0  0  0  0  0  0  0
   10.9490   14.1680  -16.6800 N   0  0  0  0  0  0  0  0  0  0  0  0
    9.8890   13.4330  -17.4540 C   0  0  0  0  0  0  0  0  0  0  0  0
    8.9100   12.5460  -16.6050 C   0  0  0  0  0  0  0  0  0  0  0  0
    7.8280   11.6330  -17.3130 C   0  0  0  0  0  0  0  0  0  0  0  0
    6.8810   11.0630  -16.2240 C   0  0  0  0  0  0  0  0  0  0  0  0
    5.7530   10.0390  -16.4160 C   0  0  0  0  0  0  0  0  0  0  0  0
    4.8470   10.1170  -15.1510 C   0  0  0  0  0  0  0  0  0  0  0  0
    4.0130   11.2310  -14.9760 C   0  0  0  0  0  0  0  0  0  0  0  0
    4.8170    9.0940  -14.1380 C   0  0  0  0  0  0  0  0  0  0  0  0
    3.1830   11.3350  -13.8640 C   0  0  0  0  0  0  0  0  0  0  0  0
    3.9710    9.1880  -12.9970 C   0  0  0  0  0  0  0  0  0  0  0  0
    3.8890    8.1970  -11.9490 N   0  0  0  0  0  0  0  0  0  0  0  0
    3.1600   10.3290  -12.8960 C   0  0  0  0  0  0  0  0  0  0  0  0
    5.0850    7.7350  -11.4040 N   0  0  0  0  0  0  0  0  0  0  0  0
    2.8280    8.0920  -11.0150 C   0  0  0  0  0  0  0  0  0  0  0  0
    1.7020    8.5630  -11.0200 O   0  0  0  0  0  0  0  0  0  0  0  0
    4.8010    7.2070  -10.2460 C   0  0  0  0  0  0  0  0  0  0  0  0
    3.3550    7.2340   -9.9100 C   0  0  0  0  0  0  0  0  0  0  0  0
    5.8070    6.6250   -9.3180 C   0  0  0  0  0  0  0  0  0  0  0  0
  1  2  1  0
  2  3  1  0
  1  4  2  0
  2  5  1  0
  5  6  1  0
  3  7  1  0
  6  8  1  0
  7  8  1  0
  8  9  1  0
  9 10  1  0
 10 11  1  0
 11 12  1  0
 12 13  1  0
 13 14  1  0
 14 15  2  0
 14 16  1  0
 15 17  1  0
 16 18  2  0
 18 19  1  0
 17 20  2  0
 18 20  1  0
 19 21  1  0
 19 22  1  0
 22 23  2  0
 21 24  2  0
 22 25  1  0
 24 25  1  0
 24 26  1  0
M  END
