x0216_0_A-x0729_1_B
     RDKit          3D

 19 19  0  0  0  0  0  0  0  0999 V2000
   17.8310   28.7800    6.3960 N   0  0  0  0  0  0  0  0  0  0  0  0
   17.1900   29.7510    7.2850 C   0  0  0  0  0  0  0  0  0  0  0  0
   15.6940   29.6190    6.9980 C   0  0  0  0  0  0  0  0  0  0  0  0
   19.2070   28.3490    6.6080 C   0  0  1  0  0  0  0  0  0  0  0  0
   19.3860   27.6920    7.9450 N   0  0  0  0  0  0  0  0  0  0  0  0
   19.6510   27.5750    5.4130 N   0  0  0  0  0  0  0  0  0  0  0  0
   17.6020   31.2090    7.0670 C   0  0  0  0  0  0  0  0  0  0  0  0
   19.1440   27.6790    4.2000 C   0  0  0  0  0  0  0  0  0  0  0  0
   19.5420   28.7110    8.9760 O   0  0  0  0  0  0  0  0  0  0  0  0
   18.2100   26.9100    8.3190 O   0  0  0  0  0  0  0  0  0  0  0  0
   21.0430   27.1130    5.3370 C   0  0  1  0  0  0  0  0  0  0  0  0
   18.8650   27.6720    3.0920 N   0  0  0  0  0  0  0  0  0  0  0  0
   22.1090   27.5080    6.3210 C   0  0  0  0  0  0  0  0  0  0  0  0
   21.1960   25.6410    5.0140 C   0  0  2  0  0  0  0  0  0  0  0  0
   20.9530   24.6220    6.1150 C   0  0  0  0  0  0  0  0  0  0  0  0
   23.3240   27.2480    5.4240 C   0  0  0  0  0  0  0  0  0  0  0  0
   22.9020   25.7860    4.4450 S   0  0  0  0  0  0  0  0  0  0  0  0
   22.8370   26.1480    3.0410 O   0  0  0  0  0  0  0  0  0  0  0  0
   23.7200   24.6940    4.9080 O   0  0  0  0  0  0  0  0  0  0  0  0
  1  2  1  0
  2  3  1  0
  4  1  1  6
  4  5  1  0
  4  6  1  0
  2  7  1  0
  6  8  1  0
  5  9  1  0
  5 10  1  0
 11  6  1  1
  8 12  3  0
 11 13  1  0
 11 14  1  0
 14 15  1  1
 13 16  1  0
 14 17  1  0
 17 16  1  0
 17 18  2  0
 17 19  2  0
M  END
