x0216_0_A-x0729_1_B
     RDKit          3D

 19 19  0  0  0  0  0  0  0  0999 V2000
   17.8260   28.7750    6.3750 N   0  0  0  0  0  0  0  0  0  0  0  0
   17.1810   29.7370    7.2750 C   0  0  0  0  0  0  0  0  0  0  0  0
   15.6850   29.6110    6.9890 C   0  0  0  0  0  0  0  0  0  0  0  0
   19.1990   28.3510    6.5920 C   0  0  1  0  0  0  0  0  0  0  0  0
   19.3760   27.7010    7.9340 N   0  0  0  0  0  0  0  0  0  0  0  0
   19.6550   27.5730    5.4080 N   0  0  0  0  0  0  0  0  0  0  0  0
   17.5950   31.1940    7.0670 C   0  0  0  0  0  0  0  0  0  0  0  0
   19.1300   27.6280    4.1980 C   0  0  0  0  0  0  0  0  0  0  0  0
   19.5320   28.7240    8.9580 O   0  0  0  0  0  0  0  0  0  0  0  0
   18.1950   26.9230    8.3100 O   0  0  0  0  0  0  0  0  0  0  0  0
   21.0630   27.1830    5.2940 C   0  0  1  0  0  0  0  0  0  0  0  0
   18.8480   27.5800    3.0910 N   0  0  0  0  0  0  0  0  0  0  0  0
   22.1140   27.4910    6.3300 C   0  0  0  0  0  0  0  0  0  0  0  0
   21.2370   25.7470    4.8470 C   0  0  2  0  0  0  0  0  0  0  0  0
   20.9990   24.6330    5.8560 C   0  0  0  0  0  0  0  0  0  0  0  0
   23.3510   27.2850    5.4430 C   0  0  0  0  0  0  0  0  0  0  0  0
   22.9390   25.9540    4.2920 S   0  0  0  0  0  0  0  0  0  0  0  0
   22.8920   26.5050    2.9400 O   0  0  0  0  0  0  0  0  0  0  0  0
   23.7500   24.8080    4.6300 O   0  0  0  0  0  0  0  0  0  0  0  0
  1  2  1  0
  2  3  1  0
  4  1  1  6
  4  5  1  0
  4  6  1  0
  2  7  1  0
  6  8  1  0
  5  9  1  0
  5 10  1  0
 11  6  1  1
  8 12  3  0
 11 13  1  0
 11 14  1  0
 14 15  1  1
 13 16  1  0
 14 17  1  0
 17 16  1  0
 17 18  2  0
 17 19  2  0
M  END
