x0216_0_A_α-x0301_0_B_α
     RDKit          3D

 23 24  0  0  0  0  0  0  0  0999 V2000
   17.9790   28.8510    5.9660 N   0  0  0  0  0  0  0  0  0  0  0  0
   17.1520   29.4810    6.9260 C   0  0  0  0  0  0  0  0  0  0  0  0
   16.0620   28.7160    7.4920 C   0  0  0  0  0  0  0  0  0  0  0  0
   19.3220   27.8280    6.3200 S   0  0  0  0  0  0  0  0  0  0  0  0
   18.0060   29.9340    5.0520 C   0  0  0  0  0  0  0  0  0  0  0  0
   19.5170   28.4790    7.5270 O   0  0  0  0  0  0  0  0  0  0  0  0
   20.7390   28.2530    5.7690 N   0  0  0  0  0  0  0  0  0  0  0  0
   17.7880   30.3970    7.9270 C   0  0  0  0  0  0  0  0  0  0  0  0
   19.2960   27.1740    4.7660 C   0  0  0  0  0  0  0  0  0  0  0  0
   19.2020   26.2880    6.9530 C   0  0  0  0  0  0  0  0  0  0  0  0
   18.5250   30.0990    3.8320 N   0  0  0  0  0  0  0  0  0  0  0  0
   17.4070   31.0430    5.3850 N   0  0  0  0  0  0  0  0  0  0  0  0
   20.8010   28.6550    4.4160 C   0  0  0  0  0  0  0  0  0  0  0  0
   21.5980   27.2040    6.0900 C   0  0  2  0  0  0  0  0  0  0  0  0
   17.5010   31.9270    4.4490 N   0  0  0  0  0  0  0  0  0  0  0  0
   18.1880   31.3710    3.4740 N   0  0  0  0  0  0  0  0  0  0  0  0
   16.9330   33.2600    4.5300 C   0  0  0  0  0  0  0  0  0  0  0  0
   22.9970   27.7790    5.9250 C   0  0  0  0  0  0  0  0  0  0  0  0
   21.4870   25.8880    5.3780 C   0  0  0  0  0  0  0  0  0  0  0  0
   23.3980   27.6300    4.5040 C   0  0  0  0  0  0  0  0  0  0  0  0
   22.7850   26.0030    4.1470 S   0  0  0  0  0  0  0  0  0  0  0  0
   22.2570   25.9570    2.7570 O   0  0  0  0  0  0  0  0  0  0  0  0
   23.8500   24.9800    4.4110 O   0  0  0  0  0  0  0  0  0  0  0  0
  1  2  1  0
  2  3  1  0
  1  4  1  0
  1  5  1  0
  4  6  2  0
  4  7  1  0
  2  8  1  0
  4  9  1  0
  4 10  1  0
  5 11  1  0
  5 12  2  0
  7 13  1  0
 14  7  1  6
 12 15  1  0
 11 16  2  0
 15 16  1  0
 15 17  1  0
 14 18  1  0
 14 19  1  0
 18 20  1  0
 21 19  1  0
 20 21  1  0
 21 22  2  0
 21 23  2  0
M  END
