x0216_0_A-x0301_0_B
     RDKit          3D

 23 24  0  0  0  0  0  0  0  0999 V2000
   17.9730   28.8520    5.9640 N   0  0  0  0  0  0  0  0  0  0  0  0
   17.1540   29.4850    6.9270 C   0  0  0  0  0  0  0  0  0  0  0  0
   16.0610   28.7200    7.4870 C   0  0  0  0  0  0  0  0  0  0  0  0
   19.3150   27.8310    6.3170 S   0  0  0  0  0  0  0  0  0  0  0  0
   18.0010   29.9310    5.0530 C   0  0  0  0  0  0  0  0  0  0  0  0
   19.5090   28.4890    7.5210 O   0  0  0  0  0  0  0  0  0  0  0  0
   20.7350   28.2540    5.7660 N   0  0  0  0  0  0  0  0  0  0  0  0
   17.8020   30.3820    7.9410 C   0  0  0  0  0  0  0  0  0  0  0  0
   19.2890   27.1740    4.7660 C   0  0  0  0  0  0  0  0  0  0  0  0
   19.1970   26.2940    6.9520 C   0  0  0  0  0  0  0  0  0  0  0  0
   18.5210   30.0980    3.8350 N   0  0  0  0  0  0  0  0  0  0  0  0
   17.4000   31.0400    5.3830 N   0  0  0  0  0  0  0  0  0  0  0  0
   20.7990   28.6550    4.4160 C   0  0  0  0  0  0  0  0  0  0  0  0
   21.5940   27.2010    6.0890 C   0  0  2  0  0  0  0  0  0  0  0  0
   17.4950   31.9220    4.4520 N   0  0  0  0  0  0  0  0  0  0  0  0
   18.1830   31.3680    3.4790 N   0  0  0  0  0  0  0  0  0  0  0  0
   16.9280   33.2550    4.5310 C   0  0  0  0  0  0  0  0  0  0  0  0
   22.9920   27.7790    5.9240 C   0  0  0  0  0  0  0  0  0  0  0  0
   21.4880   25.8840    5.3790 C   0  0  0  0  0  0  0  0  0  0  0  0
   23.3950   27.6290    4.5050 C   0  0  0  0  0  0  0  0  0  0  0  0
   22.7850   26.0020    4.1450 S   0  0  0  0  0  0  0  0  0  0  0  0
   22.2580   25.9560    2.7570 O   0  0  0  0  0  0  0  0  0  0  0  0
   23.8520   24.9800    4.4100 O   0  0  0  0  0  0  0  0  0  0  0  0
  1  2  1  0
  2  3  1  0
  1  4  1  0
  1  5  1  0
  4  6  2  0
  4  7  1  0
  2  8  1  0
  4  9  1  0
  4 10  1  0
  5 11  1  0
  5 12  2  0
  7 13  1  0
 14  7  1  6
 12 15  1  0
 11 16  2  0
 15 16  1  0
 15 17  1  0
 14 18  1  0
 14 19  1  0
 18 20  1  0
 21 19  1  0
 20 21  1  0
 21 22  2  0
 21 23  2  0
M  END
