x0216_0_A_α-x0091_0_B_α
     RDKit          3D

 34 36  0  0  0  0  0  0  0  0999 V2000
   18.5270   29.3070    6.3410 N   0  0  0  0  0  0  0  0  0  0  0  0
   17.2090   29.9790    6.4630 C   0  0  0  0  0  0  0  0  0  0  0  0
   16.0460   29.1050    6.9300 C   0  0  0  0  0  0  0  0  0  0  0  0
   18.7940   28.0400    6.7900 C   0  0  0  0  0  0  0  0  0  0  0  0
   18.4460   27.5310    7.9320 N   0  0  0  0  0  0  0  0  0  0  0  0
   19.5100   27.3120    5.8450 N   0  0  0  0  0  0  0  0  0  0  0  0
   17.3290   31.2420    7.3140 C   0  0  0  0  0  0  0  0  0  0  0  0
   19.3670   27.7040    4.4260 C   0  0  0  0  0  0  0  0  0  0  0  0
   18.7450   26.1360    8.3220 C   0  0  0  0  0  0  0  0  0  0  0  0
   20.7990   26.7260    6.2960 C   0  0  2  0  0  0  0  0  0  0  0  0
   17.4520   25.5450    8.9120 C   0  0  0  0  0  0  0  0  0  0  0  0
   21.9510   27.7180    6.5370 C   0  0  0  0  0  0  0  0  0  0  0  0
   21.2790   25.6030    5.3800 C   0  0  0  0  0  0  0  0  0  0  0  0
   17.6290   24.5850   10.1010 C   0  0  0  0  0  0  0  0  0  0  0  0
   22.6940   27.8950    5.2260 C   0  0  0  0  0  0  0  0  0  0  0  0
   22.6310   26.3010    4.4560 S   0  0  0  0  0  0  0  0  0  0  0  0
   22.1730   26.5000    3.1170 O   0  0  0  0  0  0  0  0  0  0  0  0
   23.8440   25.5490    4.7290 O   0  0  0  0  0  0  0  0  0  0  0  0
   17.2390   25.1830   11.4720 C   0  0  0  0  0  0  0  0  0  0  0  0
   16.3290   24.3780   12.3870 C   0  0  2  0  0  0  0  0  0  0  0  0
   16.7100   22.9310   12.5270 C   0  0  0  0  0  0  0  0  0  0  0  0
   15.3470   23.2710   11.9960 C   0  0  1  0  0  0  0  0  0  0  0  0
   14.2420   22.8340   12.8300 N   0  0  0  0  0  0  0  0  0  0  0  0
   13.7180   21.5540   12.6740 C   0  0  0  0  0  0  0  0  0  0  0  0
   12.8100   21.1210   13.6400 N   0  0  0  0  0  0  0  0  0  0  0  0
   14.0370   20.8270   11.7430 O   0  0  0  0  0  0  0  0  0  0  0  0
   12.2470   22.0770   14.5780 C   0  0  0  0  0  0  0  0  0  0  0  0
   12.2500   19.7610   13.6550 C   0  0  0  0  0  0  0  0  0  0  0  0
   13.1680   18.7710   14.3160 C   0  0  0  0  0  0  0  0  0  0  0  0
   12.6890   17.7320   15.0200 N   0  0  0  0  0  0  0  0  0  0  0  0
   14.5890   18.7510   14.3140 C   0  0  0  0  0  0  0  0  0  0  0  0
   13.7890   17.0300   15.4830 O   0  0  0  0  0  0  0  0  0  0  0  0
   14.9240   17.6430   15.0590 C   0  0  0  0  0  0  0  0  0  0  0  0
   16.1960   17.0160   15.4680 C   0  0  0  0  0  0  0  0  0  0  0  0
  1  2  1  0
  2  3  1  0
  1  4  1  0
  4  5  2  3
  4  6  1  0
  2  7  1  0
  6  8  1  0
  5  9  1  0
 10  6  1  6
  9 11  1  0
 10 12  1  0
 10 13  1  0
 11 14  1  0
 12 15  1  0
 16 13  1  0
 15 16  1  0
 16 17  2  0
 16 18  2  0
 14 19  1  0
 20 19  1  6
 20 21  1  0
 20 22  1  0
 21 22  1  0
 22 23  1  1
 23 24  1  0
 24 25  1  0
 24 26  2  0
 25 27  1  0
 25 28  1  0
 28 29  1  0
 29 30  2  0
 29 31  1  0
 30 32  1  0
 31 33  2  0
 32 33  1  0
 33 34  1  0
M  END
