x0216_0_A-x0259_0_A
     RDKit          3D

 22 23  0  0  0  0  0  0  0  0999 V2000
   17.8130   28.4790    6.3230 N   0  0  0  0  0  0  0  0  0  0  0  0
   17.1160   29.7250    6.6100 C   0  0  0  0  0  0  0  0  0  0  0  0
   15.6350   29.5180    6.8160 C   0  0  0  0  0  0  0  0  0  0  0  0
   19.2170   28.3920    6.5990 C   0  0  2  0  0  0  0  0  0  0  0  0
   19.6000   29.6560    7.2020 N   0  0  0  0  0  0  0  0  0  0  0  0
   19.8990   28.1650    5.3240 N   0  0  0  0  0  0  0  0  0  0  0  0
   17.3660   30.7280    5.4760 C   0  0  0  0  0  0  0  0  0  0  0  0
   19.4430   27.2670    7.6360 C   0  0  0  0  0  0  0  0  0  0  0  0
   19.0860   28.2270    4.1020 C   0  0  0  0  0  0  0  0  0  0  0  0
   21.1190   27.3920    5.0810 C   0  0  1  0  0  0  0  0  0  0  0  0
   19.0990   30.0710    8.5370 C   0  0  1  0  0  0  0  0  0  0  0  0
   22.4150   27.5670    5.9100 C   0  0  2  0  0  0  0  0  0  0  0  0
   20.9790   25.8770    4.9540 C   0  0  0  0  0  0  0  0  0  0  0  0
   18.9240   31.5840    8.6670 C   0  0  0  0  0  0  0  0  0  0  0  0
   17.6670   29.5940    8.8620 C   0  0  0  0  0  0  0  0  0  0  0  0
   22.9380   29.2550    6.1240 Cl  0  0  0  0  0  0  0  0  0  0  0  0
   23.4720   26.8080    5.1100 C   0  0  0  0  0  0  0  0  0  0  0  0
   22.5910   25.4810    4.3000 S   0  0  0  0  0  0  0  0  0  0  0  0
   16.7290   30.6670    8.6280 O   0  0  0  0  0  0  0  0  0  0  0  0
   17.4560   31.8710    8.4080 C   0  0  0  0  0  0  0  0  0  0  0  0
   22.5920   25.7260    2.8760 O   0  0  0  0  0  0  0  0  0  0  0  0
   23.0460   24.2370    4.8740 O   0  0  0  0  0  0  0  0  0  0  0  0
  1  2  1  0
  2  3  1  0
  4  1  1  0
  4  5  1  0
  4  6  1  0
  2  7  1  0
  4  8  1  1
  6  9  1  0
 10  6  1  1
 11  5  1  6
 10 12  1  0
 10 13  1  0
 11 14  1  0
 11 15  1  0
 12 16  1  6
 12 17  1  0
 18 13  1  0
 17 18  1  0
 15 19  1  0
 14 20  1  0
 19 20  1  0
 18 21  2  0
 18 22  2  0
M  END
