x0216_0_A-x0301_0_B
     RDKit          3D

 23 24  0  0  0  0  0  0  0  0999 V2000
   17.9830   28.8510    5.9690 N   0  0  0  0  0  0  0  0  0  0  0  0
   17.1580   29.4790    6.9360 C   0  0  0  0  0  0  0  0  0  0  0  0
   16.0560   28.7200    7.4880 C   0  0  0  0  0  0  0  0  0  0  0  0
   19.3250   27.8270    6.3200 S   0  0  0  0  0  0  0  0  0  0  0  0
   18.0050   29.9330    5.0570 C   0  0  0  0  0  0  0  0  0  0  0  0
   19.5240   28.4770    7.5270 O   0  0  0  0  0  0  0  0  0  0  0  0
   20.7390   28.2540    5.7650 N   0  0  0  0  0  0  0  0  0  0  0  0
   17.7980   30.3700    7.9550 C   0  0  0  0  0  0  0  0  0  0  0  0
   19.2950   27.1750    4.7670 C   0  0  0  0  0  0  0  0  0  0  0  0
   19.2060   26.2860    6.9550 C   0  0  0  0  0  0  0  0  0  0  0  0
   18.5240   30.1000    3.8360 N   0  0  0  0  0  0  0  0  0  0  0  0
   17.4060   31.0450    5.3870 N   0  0  0  0  0  0  0  0  0  0  0  0
   20.7970   28.6510    4.4090 C   0  0  0  0  0  0  0  0  0  0  0  0
   21.5960   27.2040    6.0860 C   0  0  2  0  0  0  0  0  0  0  0  0
   17.4990   31.9260    4.4530 N   0  0  0  0  0  0  0  0  0  0  0  0
   18.1850   31.3700    3.4800 N   0  0  0  0  0  0  0  0  0  0  0  0
   16.9300   33.2590    4.5310 C   0  0  0  0  0  0  0  0  0  0  0  0
   22.9960   27.7810    5.9250 C   0  0  0  0  0  0  0  0  0  0  0  0
   21.4850   25.8900    5.3760 C   0  0  0  0  0  0  0  0  0  0  0  0
   23.3980   27.6280    4.5040 C   0  0  0  0  0  0  0  0  0  0  0  0
   22.7840   26.0050    4.1440 S   0  0  0  0  0  0  0  0  0  0  0  0
   22.2570   25.9590    2.7550 O   0  0  0  0  0  0  0  0  0  0  0  0
   23.8470   24.9780    4.4100 O   0  0  0  0  0  0  0  0  0  0  0  0
  1  2  1  0
  2  3  1  0
  1  4  1  0
  1  5  1  0
  4  6  2  0
  4  7  1  0
  2  8  1  0
  4  9  1  0
  4 10  1  0
  5 11  1  0
  5 12  2  0
  7 13  1  0
 14  7  1  6
 12 15  1  0
 11 16  2  0
 15 16  1  0
 15 17  1  0
 14 18  1  0
 14 19  1  0
 18 20  1  0
 21 19  1  0
 20 21  1  0
 21 22  2  0
 21 23  2  0
M  END
