x0216_0_A_α-x0918_4_B_α
     RDKit          3D

 29 30  0  0  0  0  0  0  0  0999 V2000
   18.0790   29.0900    6.1830 N   0  0  0  0  0  0  0  0  0  0  0  0
   17.1800   29.8170    7.0940 C   0  0  0  0  0  0  0  0  0  0  0  0
   15.7310   29.4130    6.9190 C   0  0  0  0  0  0  0  0  0  0  0  0
   18.9390   28.0780    6.5510 C   0  0  0  0  0  0  0  0  0  0  0  0
   18.9800   27.3940    7.6530 N   0  0  0  0  0  0  0  0  0  0  0  0
   19.8660   27.7760    5.5700 N   0  0  0  0  0  0  0  0  0  0  0  0
   17.3590   31.3270    6.9710 C   0  0  0  0  0  0  0  0  0  0  0  0
   19.3450   27.6440    4.1970 C   0  0  0  0  0  0  0  0  0  0  0  0
   18.0570   27.5750    8.7610 C   0  0  0  0  0  0  0  0  0  0  0  0
   20.9460   26.8540    5.9960 C   0  0  2  0  0  0  0  0  0  0  0  0
   18.4710   26.6820    9.9510 C   0  0  0  0  0  0  0  0  0  0  0  0
   22.2970   27.5750    6.1110 C   0  0  0  0  0  0  0  0  0  0  0  0
   21.1370   25.6110    5.1190 C   0  0  0  0  0  0  0  0  0  0  0  0
   18.3890   25.1670    9.6840 C   0  0  0  0  0  0  0  0  0  0  0  0
   22.8340   27.6230    4.6950 C   0  0  0  0  0  0  0  0  0  0  0  0
   22.5720   25.9630    4.1100 S   0  0  0  0  0  0  0  0  0  0  0  0
   22.1750   26.0140    2.7190 O   0  0  0  0  0  0  0  0  0  0  0  0
   23.6800   25.1510    4.5650 O   0  0  0  0  0  0  0  0  0  0  0  0
   17.0040   24.5840    9.9890 C   0  0  0  0  0  0  0  0  0  0  0  0
   16.6780   24.3700   11.4940 C   0  0  0  0  0  0  0  0  0  0  0  0
   15.4060   23.5340   11.7970 C   0  0  0  0  0  0  0  0  0  0  0  0
   14.3260   24.1450   12.7190 C   0  0  0  0  0  0  0  0  0  0  0  0
   13.8590   23.2150   13.7350 N   0  0  0  0  0  0  0  0  0  0  0  0
   13.4730   21.9120   13.4230 C   0  0  0  0  0  0  0  0  0  0  0  0
   12.3030   21.3950   13.9890 C   0  0  0  0  0  0  0  0  0  0  0  0
   14.1900   21.0790   12.5750 C   0  0  0  0  0  0  0  0  0  0  0  0
   11.9250   20.0960   13.6900 C   0  0  0  0  0  0  0  0  0  0  0  0
   13.7360   19.7970   12.3310 C   0  0  0  0  0  0  0  0  0  0  0  0
   12.6180   19.2820   12.8770 N   0  0  0  0  0  0  0  0  0  0  0  0
  1  2  1  0
  2  3  1  0
  1  4  1  0
  4  5  2  3
  4  6  1  0
  2  7  1  0
  6  8  1  0
  5  9  1  0
 10  6  1  6
  9 11  1  0
 10 12  1  0
 10 13  1  0
 11 14  1  0
 12 15  1  0
 16 13  1  0
 15 16  1  0
 16 17  2  0
 16 18  2  0
 14 19  1  0
 19 20  1  0
 20 21  1  0
 21 22  1  0
 22 23  1  0
 23 24  1  0
 24 25  2  0
 24 26  1  0
 25 27  1  0
 26 28  2  0
 27 29  2  0
 28 29  1  0
M  END
