x0216_0_A_α-x0259_0_A_α
     RDKit          3D

 22 23  0  0  0  0  0  0  0  0999 V2000
   17.7810   28.5510    6.2110 N   0  0  0  0  0  0  0  0  0  0  0  0
   17.0990   29.7780    6.5990 C   0  0  0  0  0  0  0  0  0  0  0  0
   15.6260   29.5530    6.8540 C   0  0  0  0  0  0  0  0  0  0  0  0
   19.1690   28.3610    6.5370 C   0  0  2  0  0  0  0  0  0  0  0  0
   19.6440   29.5770    7.1650 N   0  0  0  0  0  0  0  0  0  0  0  0
   19.8720   28.0880    5.2790 N   0  0  0  0  0  0  0  0  0  0  0  0
   17.2860   30.8420    5.5060 C   0  0  0  0  0  0  0  0  0  0  0  0
   19.2780   27.2090    7.5620 C   0  0  0  0  0  0  0  0  0  0  0  0
   19.0830   28.0930    4.0450 C   0  0  0  0  0  0  0  0  0  0  0  0
   21.1150   27.3450    5.0780 C   0  0  1  0  0  0  0  0  0  0  0  0
   19.1310   30.0430    8.4820 C   0  0  1  0  0  0  0  0  0  0  0  0
   22.3870   27.5650    5.9290 C   0  0  2  0  0  0  0  0  0  0  0  0
   21.0210   25.8280    4.9670 C   0  0  0  0  0  0  0  0  0  0  0  0
   18.8760   31.5490    8.5240 C   0  0  0  0  0  0  0  0  0  0  0  0
   17.7380   29.4780    8.8440 C   0  0  0  0  0  0  0  0  0  0  0  0
   22.8350   29.2690    6.1710 Cl  0  0  0  0  0  0  0  0  0  0  0  0
   23.4790   26.8510    5.1330 C   0  0  0  0  0  0  0  0  0  0  0  0
   22.6500   25.4840    4.3300 S   0  0  0  0  0  0  0  0  0  0  0  0
   16.7380   30.5140    8.7390 O   0  0  0  0  0  0  0  0  0  0  0  0
   17.3740   31.7630    8.4960 C   0  0  0  0  0  0  0  0  0  0  0  0
   22.6450   25.7130    2.9010 O   0  0  0  0  0  0  0  0  0  0  0  0
   23.1440   24.2590    4.9180 O   0  0  0  0  0  0  0  0  0  0  0  0
  1  2  1  0
  2  3  1  0
  4  1  1  0
  4  5  1  0
  4  6  1  0
  2  7  1  0
  4  8  1  1
  6  9  1  0
 10  6  1  1
 11  5  1  6
 10 12  1  0
 10 13  1  0
 11 14  1  0
 11 15  1  0
 12 16  1  6
 12 17  1  0
 18 13  1  0
 17 18  1  0
 15 19  1  0
 14 20  1  0
 19 20  1  0
 18 21  2  0
 18 22  2  0
M  END
