x0228_0_B_β-x0228_0_B_α
     RDKit          3D

 17 18  0  0  0  0  0  0  0  0999 V2000
   -7.0060   25.1210  -13.4970 C   0  0  0  0  0  0  0  0  0  0  0  0
   -7.5380   25.7790  -14.6010 N   0  0  0  0  0  0  0  0  0  0  0  0
   -8.8640   25.5390  -14.9090 N   0  0  0  0  0  0  0  0  0  0  0  0
   -7.7660   24.4250  -12.8290 O   0  0  0  0  0  0  0  0  0  0  0  0
   -5.5440   25.1540  -13.0090 C   0  0  0  0  0  0  0  0  0  0  0  0
   -5.4330   24.4130  -11.8170 C   0  0  0  0  0  0  0  0  0  0  0  0
   -4.3430   25.7620  -13.5200 C   0  0  0  0  0  0  0  0  0  0  0  0
   -4.3520   26.4970  -14.6760 O   0  0  0  0  0  0  0  0  0  0  0  0
   -4.2390   24.2400  -11.1250 C   0  0  0  0  0  0  0  0  0  0  0  0
   -3.1390   25.5810  -12.8040 C   0  0  0  0  0  0  0  0  0  0  0  0
   -9.3590   24.5410  -15.6970 C   0  0  0  0  0  0  0  0  0  0  0  0
   -9.9480   26.2540  -14.4840 C   0  0  0  0  0  0  0  0  0  0  0  0
   -3.0730   26.8530  -15.2140 C   0  0  0  0  0  0  0  0  0  0  0  0
   -4.2450   23.4290   -9.8670 C   0  0  0  0  0  0  0  0  0  0  0  0
   -3.0910   24.8290  -11.6320 C   0  0  0  0  0  0  0  0  0  0  0  0
  -10.6760   24.6350  -15.7570 N   0  0  0  0  0  0  0  0  0  0  0  0
  -11.0500   25.7240  -14.9830 N   0  0  0  0  0  0  0  0  0  0  0  0
  1  2  1  0
  2  3  1  0
  1  4  2  0
  1  5  1  0
  5  6  2  0
  5  7  1  0
  7  8  1  0
  6  9  1  0
  7 10  2  0
  3 11  1  0
  3 12  1  0
  8 13  1  0
  9 14  1  0
  9 15  2  0
 10 15  1  0
 11 16  2  0
 12 17  2  0
 16 17  1  0
M  END
