x0228_0_B-x0417_0_B
     RDKit          3D

 33 36  0  0  0  0  0  0  0  0999 V2000
   -6.4950   25.1320  -14.3840 N   0  0  0  0  0  0  0  0  0  0  0  0
   -7.8020   25.0460  -14.0700 C   0  0  0  0  0  0  0  0  0  0  0  0
   -8.5220   25.8720  -14.8810 N   0  0  0  0  0  0  0  0  0  0  0  0
   -5.5070   25.1890  -13.4400 C   0  0  0  0  0  0  0  0  0  0  0  0
   -8.2880   24.3460  -13.1910 O   0  0  0  0  0  0  0  0  0  0  0  0
   -4.3700   25.9200  -13.7800 C   0  0  0  0  0  0  0  0  0  0  0  0
   -5.6250   24.5580  -12.2100 C   0  0  0  0  0  0  0  0  0  0  0  0
   -4.2990   26.5010  -14.9840 O   0  0  0  0  0  0  0  0  0  0  0  0
   -3.3670   26.0330  -12.9100 C   0  0  0  0  0  0  0  0  0  0  0  0
   -4.5970   24.6630  -11.3210 C   0  0  0  0  0  0  0  0  0  0  0  0
   -9.7830   25.4980  -15.1220 N   0  0  0  0  0  0  0  0  0  0  0  0
   -3.1460   27.3080  -15.1040 C   0  0  0  0  0  0  0  0  0  0  0  0
   -4.6690   23.9690   -9.9790 C   0  0  0  0  0  0  0  0  0  0  0  0
   -3.5000   25.4230  -11.7360 C   0  0  0  0  0  0  0  0  0  0  0  0
  -10.1720   24.4420  -15.8670 C   0  0  0  0  0  0  0  0  0  0  0  0
  -10.8840   26.1200  -14.6570 C   0  0  0  0  0  0  0  0  0  0  0  0
  -11.4870   24.4040  -15.8690 N   0  0  0  0  0  0  0  0  0  0  0  0
  -11.9370   25.4690  -15.1000 N   0  0  0  0  0  0  0  0  0  0  0  0
   -3.4970   28.7490  -15.4810 C   0  0  2  0  0  0  0  0  0  0  0  0
   -2.2020   29.4510  -15.8740 C   0  0  0  0  0  0  0  0  0  0  0  0
   -4.0370   29.6630  -14.4580 N   0  0  0  0  0  0  0  0  0  0  0  0
   -2.5790   30.9280  -15.8090 C   0  0  2  0  0  0  0  0  0  0  0  0
   -3.9560   30.8710  -15.1540 C   0  0  0  0  0  0  0  0  0  0  0  0
   -5.1980   29.4420  -13.6170 C   0  0  0  0  0  0  0  0  0  0  0  0
   -2.5670   31.6350  -17.0960 N   0  0  0  0  0  0  0  0  0  0  0  0
   -4.8100   31.7100  -15.2740 O   0  0  0  0  0  0  0  0  0  0  0  0
   -6.4820   29.4180  -14.1780 C   0  0  0  0  0  0  0  0  0  0  0  0
   -5.1440   29.2570  -12.2230 C   0  0  0  0  0  0  0  0  0  0  0  0
   -1.2750   31.7760  -17.7440 C   0  0  0  0  0  0  0  0  0  0  0  0
   -4.0080   29.2620  -11.5710 F   0  0  0  0  0  0  0  0  0  0  0  0
   -7.6310   29.2220  -13.3860 C   0  0  0  0  0  0  0  0  0  0  0  0
   -6.2780   29.0630  -11.4300 C   0  0  0  0  0  0  0  0  0  0  0  0
   -7.5270   29.0460  -12.0140 C   0  0  0  0  0  0  0  0  0  0  0  0
  1  2  1  0
  2  3  1  0
  1  4  1  0
  2  5  2  0
  4  6  1  0
  4  7  2  0
  6  8  1  0
  6  9  2  0
  7 10  1  0
  3 11  1  0
  8 12  1  0
 10 13  1  0
  9 14  1  0
 10 14  2  0
 11 15  1  0
 11 16  1  0
 15 17  2  0
 16 18  2  0
 17 18  1  0
 19 12  1  1
 19 20  1  0
 19 21  1  0
 20 22  1  0
 21 23  1  0
 22 23  1  0
 21 24  1  0
 22 25  1  6
 23 26  2  0
 24 27  2  0
 24 28  1  0
 25 29  1  0
 28 30  1  0
 27 31  1  0
 28 32  2  0
 31 33  2  0
 32 33  1  0
M  END
