x0228_1_A_β-x0792_0_A_α
     RDKit          3D

 23 24  0  0  0  0  0  0  0  0999 V2000
    2.2720   27.1270   16.8830 N   0  0  0  0  0  0  0  0  0  0  0  0
    1.3460   28.0300   16.3190 C   0  0  0  0  0  0  0  0  0  0  0  0
    0.2570   27.5440   15.5600 C   0  0  0  0  0  0  0  0  0  0  0  0
    1.5330   29.3830   16.5310 C   0  0  0  0  0  0  0  0  0  0  0  0
    0.1710   26.1370   15.3960 N   0  0  0  0  0  0  0  0  0  0  0  0
    0.6400   30.3020   16.0020 C   0  0  0  0  0  0  0  0  0  0  0  0
   -0.6430   28.4730   15.0300 C   0  0  0  0  0  0  0  0  0  0  0  0
   -1.0150   25.8060   14.5740 C   0  0  0  0  0  0  0  0  0  0  0  0
    0.8530   31.7600   16.2370 C   0  0  0  0  0  0  0  0  0  0  0  0
    1.4310   25.5390   14.8980 C   0  0  0  0  0  0  0  0  0  0  0  0
   -0.4510   29.8420   15.2520 C   0  0  0  0  0  0  0  0  0  0  0  0
    2.6380   25.7010   15.8480 C   0  0  0  0  0  0  0  0  0  0  0  0
    3.8250   26.4790   15.2800 C   0  0  0  0  0  0  0  0  0  0  0  0
    5.2130   25.8100   15.3390 C   0  0  0  0  0  0  0  0  0  0  0  0
    5.7430   25.3890   16.6390 N   0  0  0  0  0  0  0  0  0  0  0  0
    5.5310   26.4480   17.6160 C   0  0  0  0  0  0  0  0  0  0  0  0
    7.1850   24.9650   16.4610 C   0  0  0  0  0  0  0  0  0  0  0  0
    6.8580   27.0250   18.0710 C   0  0  2  0  0  0  0  0  0  0  0  0
    8.2300   25.0590   17.6350 C   0  0  2  0  0  0  0  0  0  0  0  0
    8.8740   23.7950   18.2850 C   0  0  0  0  0  0  0  0  0  0  0  0
    7.6010   27.6270   16.8780 C   0  0  0  0  0  0  0  0  0  0  0  0
    7.6750   25.9350   18.7310 C   0  0  0  0  0  0  0  0  0  0  0  0
    9.6090   22.9530   17.4190 O   0  0  0  0  0  0  0  0  0  0  0  0
  1  2  1  0
  2  3  2  0
  2  4  1  0
  3  5  1  0
  4  6  2  0
  3  7  1  0
  5  8  1  0
  6  9  1  0
  5 10  1  0
  6 11  1  0
  7 11  2  0
 10 12  1  0
 12 13  1  0
 13 14  1  0
 14 15  1  0
 15 16  1  0
 15 17  1  0
 16 18  1  0
 17 19  1  0
 19 20  1  1
 18 21  1  6
 18 22  1  0
 19 22  1  0
 20 23  1  0
M  END
