x0228_1_A_β-x0933_1_A_α
     RDKit          3D

 21 22  0  0  0  0  0  0  0  0999 V2000
    1.2160   26.4670   16.9840 N   0  0  0  0  0  0  0  0  0  0  0  0
    0.6590   27.6110   16.3740 C   0  0  0  0  0  0  0  0  0  0  0  0
   -0.4790   27.4730   15.5410 C   0  0  0  0  0  0  0  0  0  0  0  0
    1.2380   28.8610   16.6100 C   0  0  0  0  0  0  0  0  0  0  0  0
   -1.0320   26.1680   15.3400 N   0  0  0  0  0  0  0  0  0  0  0  0
    0.7000   30.0040   16.0310 C   0  0  0  0  0  0  0  0  0  0  0  0
   -1.0050   28.6320   14.9620 C   0  0  0  0  0  0  0  0  0  0  0  0
   -2.1020   26.2010   14.3330 C   0  0  0  0  0  0  0  0  0  0  0  0
    1.3230   31.3420   16.2970 C   0  0  0  0  0  0  0  0  0  0  0  0
   -0.1110   25.0410   15.1900 C   0  0  0  0  0  0  0  0  0  0  0  0
   -0.4230   29.8810   15.2070 C   0  0  0  0  0  0  0  0  0  0  0  0
    1.2600   25.5170   14.7430 C   0  0  0  0  0  0  0  0  0  0  0  0
    2.1380   25.9150   15.9170 C   0  0  0  0  0  0  0  0  0  0  0  0
    3.6000   26.0420   15.5290 C   0  0  0  0  0  0  0  0  0  0  0  0
    4.4200   25.0520   16.2370 N   0  0  0  0  0  0  0  0  0  0  0  0
    4.3010   25.2480   17.6730 C   0  0  1  0  0  0  0  0  0  0  0  0
    5.7700   25.0720   15.6390 C   0  0  0  0  0  0  0  0  0  0  0  0
    3.4560   24.2480   18.2460 N   0  0  0  0  0  0  0  0  0  0  0  0
    6.9750   25.3330   16.5230 C   0  0  0  0  0  0  0  0  0  0  0  0
    5.4970   25.2570   18.4210 N   0  0  0  0  0  0  0  0  0  0  0  0
    6.5640   26.0000   17.8070 C   0  0  0  0  0  0  0  0  0  0  0  0
  1  2  1  0
  2  3  2  0
  2  4  1  0
  3  5  1  0
  4  6  2  0
  3  7  1  0
  5  8  1  0
  6  9  1  0
  5 10  1  0
  6 11  1  0
  7 11  2  0
 10 12  1  0
 12 13  1  0
 13 14  1  0
 14 15  1  0
 15 16  1  0
 15 17  1  0
 16 18  1  1
 17 19  1  0
 16 20  1  0
 19 21  1  0
 20 21  1  0
M  END
