x0228_1_A-x0516_0_A
     RDKit          3D

 31 34  0  0  0  0  0  0  0  0999 V2000
    2.7760   27.4560   15.6430 N   0  0  0  0  0  0  0  0  0  0  0  0
    2.9160   26.4700   16.6070 C   0  0  1  0  0  0  0  0  0  0  0  0
    3.8720   25.3660   16.5760 N   0  0  0  0  0  0  0  0  0  0  0  0
    1.7110   28.3780   15.7400 C   0  0  0  0  0  0  0  0  0  0  0  0
    3.1180   27.1860   17.8110 O   0  0  0  0  0  0  0  0  0  0  0  0
    0.3790   28.0930   15.2670 C   0  0  0  0  0  0  0  0  0  0  0  0
    1.9230   29.6260   16.3050 C   0  0  0  0  0  0  0  0  0  0  0  0
    1.4730   25.9700   16.5510 C   0  0  0  0  0  0  0  0  0  0  0  0
    0.1070   26.8800   14.6990 O   0  0  0  0  0  0  0  0  0  0  0  0
    3.5190   24.4900   17.6640 C   0  0  0  0  0  0  0  0  0  0  0  0
   -0.6300   29.0420   15.3780 C   0  0  0  0  0  0  0  0  0  0  0  0
    0.9090   30.5710   16.4090 C   0  0  0  0  0  0  0  0  0  0  0  0
    5.2790   25.6540   16.6760 N   0  0  0  0  0  0  0  0  0  0  0  0
    0.9650   25.3140   15.4020 C   0  0  0  0  0  0  0  0  0  0  0  0
    0.6060   26.1850   17.6500 C   0  0  0  0  0  0  0  0  0  0  0  0
   -1.2830   26.7190   14.3700 C   0  0  0  0  0  0  0  0  0  0  0  0
    1.2100   31.9020   17.0180 C   0  0  0  0  0  0  0  0  0  0  0  0
    4.0970   24.8070   19.0550 C   0  0  2  0  0  0  0  0  0  0  0  0
   -0.3660   30.2750   15.9450 C   0  0  0  0  0  0  0  0  0  0  0  0
    5.8770   26.5100   17.5490 C   0  0  0  0  0  0  0  0  0  0  0  0
    6.3000   25.1290   15.9380 C   0  0  0  0  0  0  0  0  0  0  0  0
   -0.3570   24.9150   15.4060 C   0  0  0  0  0  0  0  0  0  0  0  0
   -0.7240   25.7720   17.6210 C   0  0  0  0  0  0  0  0  0  0  0  0
    5.4550   25.5080   19.1070 C   0  0  0  0  0  0  0  0  0  0  0  0
    4.1460   23.5630   19.7460 O   0  0  0  0  0  0  0  0  0  0  0  0
    7.1810   26.5040   17.3660 N   0  0  0  0  0  0  0  0  0  0  0  0
    7.4480   25.6290   16.3460 N   0  0  0  0  0  0  0  0  0  0  0  0
   -1.1750   25.1430   16.4830 C   0  0  0  0  0  0  0  0  0  0  0  0
   -1.0110   24.2790   14.3980 O   0  0  0  0  0  0  0  0  0  0  0  0
   -2.4390   24.6830   16.2760 O   0  0  0  0  0  0  0  0  0  0  0  0
   -2.3700   24.3730   14.8670 C   0  0  0  0  0  0  0  0  0  0  0  0
  1  2  1  0
  2  3  1  0
  1  4  1  0
  2  5  1  1
  4  6  2  0
  4  7  1  0
  2  8  1  0
  6  9  1  0
  3 10  1  0
  6 11  1  0
  7 12  2  0
  3 13  1  0
  8 14  2  0
  8 15  1  0
  9 16  1  0
 12 17  1  0
 10 18  1  0
 11 19  2  0
 12 19  1  0
 13 20  1  0
 13 21  1  0
 14 22  1  0
 15 23  2  0
 18 24  1  6
 18 25  1  0
 20 26  2  0
 21 27  2  0
 26 27  1  0
 22 28  2  0
 23 28  1  0
 22 29  1  0
 28 30  1  0
 29 31  1  0
 30 31  1  0
M  END
