x0228_1_A_β-x0933_3_B_α
     RDKit          3D

 21 22  0  0  0  0  0  0  0  0999 V2000
    1.6880   26.3480   16.7580 N   0  0  0  0  0  0  0  0  0  0  0  0
    0.8820   27.4020   16.2840 C   0  0  0  0  0  0  0  0  0  0  0  0
   -0.0790   27.1590   15.2950 C   0  0  0  0  0  0  0  0  0  0  0  0
    1.0380   28.7040   16.7900 C   0  0  0  0  0  0  0  0  0  0  0  0
   -0.1560   25.8540   14.8720 O   0  0  0  0  0  0  0  0  0  0  0  0
    0.2600   29.7770   16.2970 C   0  0  0  0  0  0  0  0  0  0  0  0
   -0.8640   28.2080   14.8200 C   0  0  0  0  0  0  0  0  0  0  0  0
   -1.4400   25.4030   14.4650 C   0  0  0  0  0  0  0  0  0  0  0  0
    0.4500   31.1960   16.7910 C   0  0  0  0  0  0  0  0  0  0  0  0
   -0.6920   29.5030   15.3130 C   0  0  0  0  0  0  0  0  0  0  0  0
    1.1070   32.1660   15.7650 C   0  0  0  0  0  0  0  0  0  0  0  0
    0.3920   32.3990   14.4060 C   0  0  0  0  0  0  0  0  0  0  0  0
    1.2030   33.1080   13.2880 C   0  0  0  0  0  0  0  0  0  0  0  0
    0.3890   34.0570   12.3700 C   0  0  0  0  0  0  0  0  0  0  0  0
    0.5500   33.7570   10.9220 N   0  0  0  0  0  0  0  0  0  0  0  0
    0.6890   34.8610    9.9850 C   0  0  0  0  0  0  0  0  0  0  0  0
    1.1720   34.3930    8.7190 N   0  0  0  0  0  0  0  0  0  0  0  0
   -0.5740   35.5260    9.8480 N   0  0  0  0  0  0  0  0  0  0  0  0
    1.2580   35.4040    7.6700 C   0  0  0  0  0  0  0  0  0  0  0  0
   -0.5590   36.6260    8.8810 C   0  0  0  0  0  0  0  0  0  0  0  0
   -0.0220   36.2140    7.5150 C   0  0  0  0  0  0  0  0  0  0  0  0
  1  2  1  0
  2  3  2  0
  2  4  1  0
  3  5  1  0
  4  6  2  0
  3  7  1  0
  5  8  1  0
  6  9  1  0
  6 10  1  0
  7 10  2  0
  9 11  1  0
 11 12  1  0
 12 13  1  0
 13 14  1  0
 14 15  1  0
 15 16  1  0
 16 17  1  0
 16 18  1  0
 17 19  1  0
 18 20  1  0
 19 21  1  0
 20 21  1  0
M  END
