x0228_1_A_α-mac-189_0_A_α
     RDKit          3D

 18 19  0  0  0  0  0  0  0  0999 V2000
    4.1340   26.9570   16.3720 C   0  0  0  0  0  0  0  0  0  0  0  0
    4.6790   25.7390   16.3330 N   0  0  0  0  0  0  0  0  0  0  0  0
    5.9540   25.6810   16.7630 N   0  0  0  0  0  0  0  0  0  0  0  0
    4.4800   27.9870   17.0540 N   0  0  0  0  0  0  0  0  0  0  0  0
    3.4960   28.9580   16.6570 C   0  0  2  0  0  0  0  0  0  0  0  0
    3.0390   29.8670   17.6410 O   0  0  0  0  0  0  0  0  0  0  0  0
    6.5350   26.2820   17.8300 C   0  0  0  0  0  0  0  0  0  0  0  0
    6.8990   24.9550   16.1850 C   0  0  0  0  0  0  0  0  0  0  0  0
    2.4380   28.0460   16.0500 C   0  0  0  0  0  0  0  0  0  0  0  0
    7.7980   25.9250   17.8900 N   0  0  0  0  0  0  0  0  0  0  0  0
    8.0340   25.0740   16.8340 N   0  0  0  0  0  0  0  0  0  0  0  0
    2.8680   26.8230   15.5160 C   0  0  0  0  0  0  0  0  0  0  0  0
    1.0740   28.3470   15.9870 C   0  0  0  0  0  0  0  0  0  0  0  0
    1.9940   25.9210   14.9460 C   0  0  0  0  0  0  0  0  0  0  0  0
    0.1860   27.4230   15.3990 C   0  0  0  0  0  0  0  0  0  0  0  0
    0.6590   26.2050   14.8800 C   0  0  0  0  0  0  0  0  0  0  0  0
   -0.2520   25.3550   14.3250 O   0  0  0  0  0  0  0  0  0  0  0  0
   -1.5860   25.3660   14.7850 C   0  0  0  0  0  0  0  0  0  0  0  0
  1  2  1  0
  2  3  1  0
  1  4  2  3
  4  5  1  0
  5  6  1  1
  3  7  1  0
  3  8  1  0
  5  9  1  0
  7 10  2  0
  8 11  2  0
 10 11  1  0
  9 12  2  0
  9 13  1  0
 12 14  1  0
 13 15  2  0
 14 16  2  0
 15 16  1  0
 16 17  1  0
 17 18  1  0
M  END
