x0228_0_B_α-x0380_0_B_α
     RDKit          3D

 22 23  0  0  0  0  0  0  0  0999 V2000
   -7.6970   25.6820  -14.2440 C   0  0  0  0  0  0  0  0  0  0  0  0
   -8.6050   26.2590  -15.1320 N   0  0  0  0  0  0  0  0  0  0  0  0
   -8.5790   27.6940  -15.4680 C   0  0  0  0  0  0  0  0  0  0  0  0
   -7.9120   24.7340  -13.4810 O   0  0  0  0  0  0  0  0  0  0  0  0
   -9.7860   25.6240  -15.2210 N   0  0  0  0  0  0  0  0  0  0  0  0
  -10.0550   24.4730  -15.8780 C   0  0  0  0  0  0  0  0  0  0  0  0
  -10.9320   26.0550  -14.6500 C   0  0  0  0  0  0  0  0  0  0  0  0
   -7.5370   28.3210  -14.6200 C   0  0  0  0  0  0  0  0  0  0  0  0
  -11.3330   24.2000  -15.7210 N   0  0  0  0  0  0  0  0  0  0  0  0
  -11.8870   25.2060  -14.9420 N   0  0  0  0  0  0  0  0  0  0  0  0
   -7.7550   28.4040  -13.2650 C   0  0  0  0  0  0  0  0  0  0  0  0
   -6.3370   28.7960  -15.1600 C   0  0  0  0  0  0  0  0  0  0  0  0
   -6.7750   28.9240  -12.4730 C   0  0  0  0  0  0  0  0  0  0  0  0
   -5.3450   29.3260  -14.3400 C   0  0  0  0  0  0  0  0  0  0  0  0
   -4.1160   29.7990  -14.8350 N   0  0  0  0  0  0  0  0  0  0  0  0
   -7.0850   28.9770  -10.8350 Cl  0  0  0  0  0  0  0  0  0  0  0  0
   -5.5840   29.3730  -12.9680 C   0  0  0  0  0  0  0  0  0  0  0  0
   -4.5730   29.8920  -12.0430 C   0  0  0  0  0  0  0  0  0  0  0  0
   -3.8240   31.0290  -15.3800 C   0  0  0  0  0  0  0  0  0  0  0  0
   -4.5900   31.9690  -15.5170 O   0  0  0  0  0  0  0  0  0  0  0  0
   -2.3710   31.1250  -15.8500 C   0  0  0  0  0  0  0  0  0  0  0  0
   -2.3220   31.4530  -17.2960 N   0  0  0  0  0  0  0  0  0  0  0  0
  1  2  1  0
  2  3  1  0
  1  4  2  0
  2  5  1  0
  5  6  1  0
  5  7  1  0
  3  8  1  0
  6  9  2  0
  7 10  2  0
  9 10  1  0
  8 11  2  0
  8 12  1  0
 11 13  1  0
 12 14  2  0
 14 15  1  0
 13 16  1  0
 13 17  2  0
 14 17  1  0
 17 18  1  0
 15 19  1  0
 19 20  2  0
 19 21  1  0
 21 22  1  0
M  END
