x0228_0_B-x0918_0_B
     RDKit          3D

 26 28  0  0  0  0  0  0  0  0999 V2000
   -6.1930   25.6240  -13.9180 N   0  0  0  0  0  0  0  0  0  0  0  0
   -7.4880   25.1640  -13.8830 C   0  0  0  0  0  0  0  0  0  0  0  0
   -8.2110   25.7550  -14.9010 N   0  0  0  0  0  0  0  0  0  0  0  0
   -5.1100   25.3130  -13.0730 C   0  0  0  0  0  0  0  0  0  0  0  0
   -7.9610   24.3550  -13.0940 O   0  0  0  0  0  0  0  0  0  0  0  0
   -3.8600   25.8720  -13.4230 C   0  0  0  0  0  0  0  0  0  0  0  0
   -5.2200   24.4980  -11.9390 C   0  0  0  0  0  0  0  0  0  0  0  0
   -3.8260   26.6580  -14.5520 O   0  0  0  0  0  0  0  0  0  0  0  0
   -2.7520   25.6070  -12.6310 C   0  0  0  0  0  0  0  0  0  0  0  0
   -4.0980   24.2320  -11.1500 C   0  0  0  0  0  0  0  0  0  0  0  0
   -9.5100   25.4270  -15.0720 N   0  0  0  0  0  0  0  0  0  0  0  0
   -2.5410   27.1250  -14.9950 C   0  0  0  0  0  0  0  0  0  0  0  0
   -4.2040   23.3590   -9.9290 C   0  0  0  0  0  0  0  0  0  0  0  0
   -2.8860   24.7970  -11.5210 C   0  0  0  0  0  0  0  0  0  0  0  0
   -9.9790   24.3790  -15.7890 C   0  0  0  0  0  0  0  0  0  0  0  0
  -10.5780   26.0860  -14.5650 C   0  0  0  0  0  0  0  0  0  0  0  0
   -2.2250   28.5030  -14.3740 C   0  0  0  0  0  0  0  0  0  0  0  0
  -11.2940   24.3870  -15.7310 N   0  0  0  0  0  0  0  0  0  0  0  0
  -11.6740   25.4700  -14.9550 N   0  0  0  0  0  0  0  0  0  0  0  0
   -3.2920   29.5090  -14.6070 N   0  0  0  0  0  0  0  0  0  0  0  0
   -4.4560   29.3650  -13.8350 C   0  0  0  0  0  0  0  0  0  0  0  0
   -5.6950   29.7750  -14.3280 C   0  0  0  0  0  0  0  0  0  0  0  0
   -4.4110   28.8120  -12.5600 C   0  0  0  0  0  0  0  0  0  0  0  0
   -6.8200   29.6170  -13.5320 C   0  0  0  0  0  0  0  0  0  0  0  0
   -5.5880   28.6920  -11.8360 C   0  0  0  0  0  0  0  0  0  0  0  0
   -6.7990   29.0830  -12.2900 N   0  0  0  0  0  0  0  0  0  0  0  0
  1  2  1  0
  2  3  1  0
  1  4  1  0
  2  5  2  0
  4  6  1  0
  4  7  2  0
  6  8  1  0
  6  9  2  0
  7 10  1  0
  3 11  1  0
  8 12  1  0
 10 13  1  0
  9 14  1  0
 10 14  2  0
 11 15  1  0
 11 16  1  0
 12 17  1  0
 15 18  2  0
 16 19  2  0
 18 19  1  0
 17 20  1  0
 20 21  1  0
 21 22  2  0
 21 23  1  0
 22 24  1  0
 23 25  2  0
 24 26  2  0
 25 26  1  0
M  END
