x0228_0_B_β-x0766_1_B_α
     RDKit          3D

 22 24  0  0  0  0  0  0  0  0999 V2000
   -6.1480   25.4000  -13.9690 N   0  0  0  0  0  0  0  0  0  0  0  0
   -7.1580   26.2610  -13.6550 C   0  0  0  0  0  0  0  0  0  0  0  0
   -8.1720   26.5110  -14.3050 O   0  0  0  0  0  0  0  0  0  0  0  0
   -5.0620   25.1670  -13.1140 C   0  0  0  0  0  0  0  0  0  0  0  0
   -5.1750   24.3980  -11.9590 C   0  0  0  0  0  0  0  0  0  0  0  0
   -3.8240   25.7540  -13.4600 C   0  0  0  0  0  0  0  0  0  0  0  0
   -6.9030   26.9500  -12.3300 C   0  0  2  0  0  0  0  0  0  0  0  0
   -3.8020   26.4960  -14.6180 O   0  0  0  0  0  0  0  0  0  0  0  0
   -4.0750   24.1960  -11.1370 C   0  0  0  0  0  0  0  0  0  0  0  0
   -2.7270   25.5530  -12.6350 C   0  0  0  0  0  0  0  0  0  0  0  0
   -7.8650   26.5280  -11.2090 C   0  0  0  0  0  0  0  0  0  0  0  0
   -7.1410   28.4400  -12.5160 C   0  0  1  0  0  0  0  0  0  0  0  0
   -2.5200   26.8050  -15.1650 C   0  0  0  0  0  0  0  0  0  0  0  0
   -4.2200   23.3660   -9.8940 C   0  0  0  0  0  0  0  0  0  0  0  0
   -2.8590   24.7800  -11.4950 C   0  0  0  0  0  0  0  0  0  0  0  0
   -8.6480   27.8000  -10.9310 C   0  0  0  0  0  0  0  0  0  0  0  0
   -7.5900   28.8870  -11.1510 C   0  0  0  0  0  0  0  0  0  0  0  0
   -6.0350   29.1560  -13.2420 C   0  0  0  0  0  0  0  0  0  0  0  0
   -4.6730   29.0580  -12.9990 C   0  0  0  0  0  0  0  0  0  0  0  0
   -6.2900   30.0460  -14.3270 C   0  0  0  0  0  0  0  0  0  0  0  0
   -5.1580   30.5790  -14.8700 C   0  0  0  0  0  0  0  0  0  0  0  0
   -3.7590   30.0180  -14.0810 S   0  0  0  0  0  0  0  0  0  0  0  0
  1  2  1  0
  2  3  2  0
  1  4  1  0
  4  5  2  0
  4  6  1  0
  7  2  1  6
  6  8  1  0
  5  9  1  0
  6 10  2  0
  7 11  1  0
  7 12  1  0
  8 13  1  0
  9 14  1  0
  9 15  2  0
 10 15  1  0
 11 16  1  0
 12 17  1  0
 16 17  1  0
 12 18  1  1
 18 19  2  0
 18 20  1  0
 20 21  2  0
 19 22  1  0
 21 22  1  0
M  END
