x0228_1_A_α-x0423_0_B_α
     RDKit          3D

 26 28  0  0  0  0  0  0  0  0999 V2000
    3.7950   26.6460   15.8400 C   0  0  0  0  0  0  0  0  0  0  0  0
    4.1410   25.4310   16.3650 N   0  0  0  0  0  0  0  0  0  0  0  0
    5.3780   25.3010   17.0380 N   0  0  0  0  0  0  0  0  0  0  0  0
    3.9350   27.7470   16.3570 O   0  0  0  0  0  0  0  0  0  0  0  0
    5.7160   26.3940   17.9330 C   0  0  0  0  0  0  0  0  0  0  0  0
    6.4950   25.3960   16.1050 C   0  0  0  0  0  0  0  0  0  0  0  0
    7.1370   26.1930   18.2170 N   0  0  0  0  0  0  0  0  0  0  0  0
    7.6920   25.8240   16.9020 N   0  0  0  0  0  0  0  0  0  0  0  0
    8.2960   27.0870   16.4160 C   0  0  0  0  0  0  0  0  0  0  0  0
    9.7230   27.0130   15.8220 C   0  0  0  0  0  0  0  0  0  0  0  0
   10.6830   26.0660   16.5400 C   0  0  0  0  0  0  0  0  0  0  0  0
   12.0460   26.7010   16.8290 C   0  0  0  0  0  0  0  0  0  0  0  0
   12.9770   26.8030   15.6050 C   0  0  0  0  0  0  0  0  0  0  0  0
   14.1480   25.9220   15.6490 N   0  0  0  0  0  0  0  0  0  0  0  0
   14.3330   25.1800   14.4010 C   0  0  2  0  0  0  0  0  0  0  0  0
   13.3900   23.9580   14.2550 C   0  0  0  0  0  0  0  0  0  0  0  0
   15.7960   24.7420   14.2340 C   0  0  0  0  0  0  0  0  0  0  0  0
   14.1560   22.9240   13.5540 N   0  0  0  0  0  0  0  0  0  0  0  0
   16.0130   24.2540   12.8020 C   0  0  0  0  0  0  0  0  0  0  0  0
   14.8160   23.4170   12.3480 C   0  0  0  0  0  0  0  0  0  0  0  0
   13.5010   21.6990   13.3840 C   0  0  0  0  0  0  0  0  0  0  0  0
   12.4310   21.3840   14.2050 C   0  0  0  0  0  0  0  0  0  0  0  0
   13.9020   20.8210   12.4390 N   0  0  0  0  0  0  0  0  0  0  0  0
   13.2680   19.6180   12.2820 N   0  0  0  0  0  0  0  0  0  0  0  0
   11.7870   20.1730   14.0540 C   0  0  0  0  0  0  0  0  0  0  0  0
   12.2300   19.3170   13.0850 C   0  0  0  0  0  0  0  0  0  0  0  0
  1  2  1  0
  2  3  1  0
  1  4  2  0
  3  5  1  0
  3  6  1  0
  5  7  1  0
  6  8  1  0
  7  8  1  0
  8  9  1  0
  9 10  1  0
 10 11  1  0
 11 12  1  0
 12 13  1  0
 13 14  1  0
 15 14  1  1
 15 16  1  0
 15 17  1  0
 16 18  1  0
 17 19  1  0
 18 20  1  0
 19 20  1  0
 18 21  1  0
 21 22  2  0
 21 23  1  0
 23 24  2  0
 22 25  1  0
 24 26  1  0
 25 26  2  0
M  END
