x0228_0_B_α-x0797_0_B_α
     RDKit          3D

 21 23  0  0  0  0  0  0  0  0999 V2000
   -7.5170   25.4380  -13.5650 C   0  0  0  0  0  0  0  0  0  0  0  0
   -8.1890   26.0490  -14.6900 N   0  0  0  0  0  0  0  0  0  0  0  0
   -9.5020   25.5660  -14.9810 N   0  0  0  0  0  0  0  0  0  0  0  0
   -8.1140   24.2200  -13.2070 O   0  0  0  0  0  0  0  0  0  0  0  0
   -6.2010   25.1410  -13.9340 O   0  0  0  0  0  0  0  0  0  0  0  0
   -7.4780   26.3390  -12.3200 C   0  0  2  0  0  0  0  0  0  0  0  0
   -8.4240   25.9430  -11.2130 C   0  0  0  0  0  0  0  0  0  0  0  0
   -7.7920   27.8340  -12.4650 C   0  0  2  0  0  0  0  0  0  0  0  0
   -9.8770   24.4820  -15.7210 C   0  0  0  0  0  0  0  0  0  0  0  0
  -10.6600   26.1350  -14.5540 C   0  0  0  0  0  0  0  0  0  0  0  0
   -6.5990   28.5970  -12.9760 C   0  0  0  0  0  0  0  0  0  0  0  0
   -8.3140   27.0150  -10.2810 O   0  0  0  0  0  0  0  0  0  0  0  0
   -8.1750   28.2260  -11.0460 C   0  0  0  0  0  0  0  0  0  0  0  0
  -11.1900   24.3980  -15.7450 N   0  0  0  0  0  0  0  0  0  0  0  0
  -11.6880   25.4470  -15.0020 N   0  0  0  0  0  0  0  0  0  0  0  0
   -6.6750   29.5630  -14.0000 C   0  0  0  0  0  0  0  0  0  0  0  0
   -5.3500   28.3120  -12.4000 C   0  0  0  0  0  0  0  0  0  0  0  0
   -7.9710   29.9370  -14.6670 C   0  0  0  0  0  0  0  0  0  0  0  0
   -4.1990   28.9480  -12.8250 C   0  0  0  0  0  0  0  0  0  0  0  0
   -5.4970   30.2000  -14.4210 C   0  0  0  0  0  0  0  0  0  0  0  0
   -4.2680   29.8910  -13.8380 C   0  0  0  0  0  0  0  0  0  0  0  0
  1  2  1  0
  2  3  1  0
  1  4  1  0
  1  5  1  0
  6  1  1  6
  6  7  1  0
  6  8  1  0
  3  9  1  0
  3 10  1  0
  8 11  1  1
  7 12  1  0
  8 13  1  0
 12 13  1  0
  9 14  2  0
 10 15  2  0
 14 15  1  0
 11 16  2  0
 11 17  1  0
 16 18  1  0
 17 19  2  0
 16 20  1  0
 19 21  1  0
 20 21  2  0
M  END
