x0228_1_A-x0516_0_A
     RDKit          3D

 31 34  0  0  0  0  0  0  0  0999 V2000
    2.7640   27.4460   15.6340 N   0  0  0  0  0  0  0  0  0  0  0  0
    2.9130   26.4680   16.6060 C   0  0  1  0  0  0  0  0  0  0  0  0
    3.8680   25.3630   16.5850 N   0  0  0  0  0  0  0  0  0  0  0  0
    1.7030   28.3720   15.7330 C   0  0  0  0  0  0  0  0  0  0  0  0
    3.1150   27.2010   17.8000 O   0  0  0  0  0  0  0  0  0  0  0  0
    0.3690   28.0890   15.2610 C   0  0  0  0  0  0  0  0  0  0  0  0
    1.9190   29.6180   16.2970 C   0  0  0  0  0  0  0  0  0  0  0  0
    1.4690   25.9660   16.5520 C   0  0  0  0  0  0  0  0  0  0  0  0
    0.0950   26.8770   14.6940 O   0  0  0  0  0  0  0  0  0  0  0  0
    3.5170   24.4840   17.6730 C   0  0  0  0  0  0  0  0  0  0  0  0
   -0.6380   29.0410   15.3740 C   0  0  0  0  0  0  0  0  0  0  0  0
    0.9060   30.5660   16.4040 C   0  0  0  0  0  0  0  0  0  0  0  0
    5.2760   25.6520   16.6800 N   0  0  0  0  0  0  0  0  0  0  0  0
    0.9590   25.3110   15.4050 C   0  0  0  0  0  0  0  0  0  0  0  0
    0.6060   26.1790   17.6530 C   0  0  0  0  0  0  0  0  0  0  0  0
   -1.2940   26.7170   14.3640 C   0  0  0  0  0  0  0  0  0  0  0  0
    1.2080   31.8950   17.0160 C   0  0  0  0  0  0  0  0  0  0  0  0
    4.1010   24.7970   19.0630 C   0  0  2  0  0  0  0  0  0  0  0  0
   -0.3710   30.2720   15.9420 C   0  0  0  0  0  0  0  0  0  0  0  0
    5.8760   26.5100   17.5550 C   0  0  0  0  0  0  0  0  0  0  0  0
    6.2950   25.1290   15.9440 C   0  0  0  0  0  0  0  0  0  0  0  0
   -0.3610   24.9120   15.4090 C   0  0  0  0  0  0  0  0  0  0  0  0
   -0.7240   25.7660   17.6270 C   0  0  0  0  0  0  0  0  0  0  0  0
    5.4570   25.4990   19.1090 C   0  0  0  0  0  0  0  0  0  0  0  0
    4.1540   23.5510   19.7520 O   0  0  0  0  0  0  0  0  0  0  0  0
    7.1800   26.5010   17.3690 N   0  0  0  0  0  0  0  0  0  0  0  0
    7.4430   25.6260   16.3480 N   0  0  0  0  0  0  0  0  0  0  0  0
   -1.1770   25.1380   16.4890 C   0  0  0  0  0  0  0  0  0  0  0  0
   -1.0180   24.2750   14.4020 O   0  0  0  0  0  0  0  0  0  0  0  0
   -2.4400   24.6780   16.2830 O   0  0  0  0  0  0  0  0  0  0  0  0
   -2.3750   24.3650   14.8750 C   0  0  0  0  0  0  0  0  0  0  0  0
  1  2  1  0
  2  3  1  0
  1  4  1  0
  2  5  1  1
  4  6  2  0
  4  7  1  0
  2  8  1  0
  6  9  1  0
  3 10  1  0
  6 11  1  0
  7 12  2  0
  3 13  1  0
  8 14  2  0
  8 15  1  0
  9 16  1  0
 12 17  1  0
 10 18  1  0
 11 19  2  0
 12 19  1  0
 13 20  1  0
 13 21  1  0
 14 22  1  0
 15 23  2  0
 18 24  1  6
 18 25  1  0
 20 26  2  0
 21 27  2  0
 26 27  1  0
 22 28  2  0
 23 28  1  0
 22 29  1  0
 28 30  1  0
 29 31  1  0
 30 31  1  0
M  END
