x0228_1_A-x0933_1_A
     RDKit          3D

 24 26  0  0  0  0  0  0  0  0999 V2000
    2.2320   27.3470   16.3310 N   0  0  0  0  0  0  0  0  0  0  0  0
    3.5220   27.3110   15.8270 C   0  0  0  0  0  0  0  0  0  0  0  0
    4.4630   27.8710   16.7170 N   0  0  0  0  0  0  0  0  0  0  0  0
    1.1700   28.1770   15.9090 C   0  0  0  0  0  0  0  0  0  0  0  0
    3.8200   26.8550   14.7430 O   0  0  0  0  0  0  0  0  0  0  0  0
    0.0200   27.5730   15.3320 C   0  0  0  0  0  0  0  0  0  0  0  0
    1.2290   29.5620   16.0460 C   0  0  0  0  0  0  0  0  0  0  0  0
    0.0330   26.1940   15.2290 O   0  0  0  0  0  0  0  0  0  0  0  0
   -1.0350   28.3860   14.9090 C   0  0  0  0  0  0  0  0  0  0  0  0
    0.1760   30.3690   15.6230 C   0  0  0  0  0  0  0  0  0  0  0  0
    5.8090   27.3780   16.7820 N   0  0  0  0  0  0  0  0  0  0  0  0
   -1.0570   25.5760   14.5480 C   0  0  0  0  0  0  0  0  0  0  0  0
    0.2750   31.8560   15.7800 C   0  0  0  0  0  0  0  0  0  0  0  0
   -0.9560   29.7740   15.0550 C   0  0  0  0  0  0  0  0  0  0  0  0
    6.8200   28.0360   17.6120 C   0  0  0  0  0  0  0  0  0  0  0  0
    5.8700   26.0500   17.3680 C   0  0  2  0  0  0  0  0  0  0  0  0
    7.8990   27.0380   17.7680 N   0  0  0  0  0  0  0  0  0  0  0  0
    7.3100   25.7680   17.3190 N   0  0  0  0  0  0  0  0  0  0  0  0
    4.9890   25.1430   16.4620 C   0  0  0  0  0  0  0  0  0  0  0  0
    5.3380   25.9980   18.8370 C   0  0  0  0  0  0  0  0  0  0  0  0
    3.6130   24.9560   16.9610 N   0  0  0  0  0  0  0  0  0  0  0  0
    4.4510   24.8880   19.2090 N   0  0  0  0  0  0  0  0  0  0  0  0
    3.4190   24.5110   18.3070 C   0  0  1  0  0  0  0  0  0  0  0  0
    2.1850   24.9660   18.8400 N   0  0  0  0  0  0  0  0  0  0  0  0
  1  2  1  0
  2  3  1  0
  1  4  1  0
  2  5  2  0
  4  6  2  0
  4  7  1  0
  6  8  1  0
  6  9  1  0
  7 10  2  0
  3 11  1  0
  8 12  1  0
 10 13  1  0
  9 14  2  0
 10 14  1  0
 11 15  1  0
 16 11  1  0
 15 17  1  0
 16 18  1  0
 17 18  1  0
 16 19  1  6
 16 20  1  0
 19 21  1  0
 20 22  1  0
 21 23  1  0
 22 23  1  0
 23 24  1  1
M  END
