x0228_1_A_β-x0600_0_A_α
     RDKit          3D

 31 32  0  0  0  0  0  0  0  0999 V2000
    2.3290   26.2770   15.8780 N   0  0  0  0  0  0  0  0  0  0  0  0
    1.4240   27.3520   15.7680 C   0  0  0  0  0  0  0  0  0  0  0  0
    0.1100   27.1300   15.3160 C   0  0  0  0  0  0  0  0  0  0  0  0
    1.8320   28.6500   16.1090 C   0  0  0  0  0  0  0  0  0  0  0  0
   -0.1800   25.8160   15.0360 O   0  0  0  0  0  0  0  0  0  0  0  0
    0.9470   29.7300   15.9920 C   0  0  0  0  0  0  0  0  0  0  0  0
   -0.7690   28.2060   15.1920 C   0  0  0  0  0  0  0  0  0  0  0  0
   -1.3820   25.4740   14.3380 C   0  0  0  0  0  0  0  0  0  0  0  0
    1.3840   31.1190   16.3600 C   0  0  0  0  0  0  0  0  0  0  0  0
   -0.3490   29.4990   15.5280 C   0  0  0  0  0  0  0  0  0  0  0  0
   -2.5900   25.2320   15.2470 C   0  0  0  0  0  0  0  0  0  0  0  0
   -2.8460   26.2780   16.3260 C   0  0  0  0  0  0  0  0  0  0  0  0
   -4.1000   27.1340   16.1160 C   0  0  0  0  0  0  0  0  0  0  0  0
   -5.4140   26.3680   16.2910 C   0  0  0  0  0  0  0  0  0  0  0  0
   -6.6340   27.2590   16.0410 C   0  0  0  0  0  0  0  0  0  0  0  0
   -7.9830   26.5730   16.3050 C   0  0  0  0  0  0  0  0  0  0  0  0
   -9.0620   27.4900   16.8920 C   0  0  0  0  0  0  0  0  0  0  0  0
  -10.2460   26.7070   17.2440 N   0  0  0  0  0  0  0  0  0  0  0  0
  -11.1640   26.3680   16.3920 C   0  0  0  0  0  0  0  0  0  0  0  0
  -12.3840   25.5600   16.7900 C   0  0  0  0  0  0  0  0  0  0  0  0
  -11.0770   26.7620   14.9480 C   0  0  0  0  0  0  0  0  0  0  0  0
  -12.1540   26.4220   14.1340 C   0  0  0  0  0  0  0  0  0  0  0  0
   -9.9950   27.4440   14.3750 C   0  0  0  0  0  0  0  0  0  0  0  0
  -12.1620   26.7470   12.7850 C   0  0  0  0  0  0  0  0  0  0  0  0
  -10.0110   27.7670   13.0160 C   0  0  0  0  0  0  0  0  0  0  0  0
  -11.0880   27.4190   12.2110 C   0  0  0  0  0  0  0  0  0  0  0  0
  -11.0050   27.7750   10.8900 O   0  0  0  0  0  0  0  0  0  0  0  0
   -9.8060   28.4310   10.4580 C   0  0  0  0  0  0  0  0  0  0  0  0
   -9.8600   29.9190   10.7690 C   0  0  0  0  0  0  0  0  0  0  0  0
   -8.8970   30.6680   10.7650 O   0  0  0  0  0  0  0  0  0  0  0  0
  -11.1080   30.3540   11.0670 O   0  0  0  0  0  0  0  0  0  0  0  0
  1  2  1  0
  2  3  2  0
  2  4  1  0
  3  5  1  0
  4  6  2  0
  3  7  1  0
  5  8  1  0
  6  9  1  0
  6 10  1  0
  7 10  2  0
  8 11  1  0
 11 12  1  0
 12 13  1  0
 13 14  1  0
 14 15  1  0
 15 16  1  0
 16 17  1  0
 17 18  1  0
 18 19  2  3
 19 20  1  0
 19 21  1  0
 21 22  2  0
 21 23  1  0
 22 24  1  0
 23 25  2  0
 24 26  2  0
 25 26  1  0
 26 27  1  0
 27 28  1  0
 28 29  1  0
 29 30  2  0
 29 31  1  0
M  END
