x0228_1_A_α-x0516_0_A_α
     RDKit          3D

 21 23  0  0  0  0  0  0  0  0999 V2000
    3.3090   27.1290   16.5250 C   0  0  0  0  0  0  0  0  0  0  0  0
    4.3570   26.2250   16.5730 N   0  0  0  0  0  0  0  0  0  0  0  0
    4.9920   25.9550   15.3340 C   0  0  0  0  0  0  0  0  0  0  0  0
    3.5080   28.3360   16.6190 O   0  0  0  0  0  0  0  0  0  0  0  0
    1.8900   26.6880   16.3380 C   0  0  0  0  0  0  0  0  0  0  0  0
    5.2950   26.1810   17.5520 N   0  0  0  0  0  0  0  0  0  0  0  0
    1.4210   26.0420   15.1710 C   0  0  0  0  0  0  0  0  0  0  0  0
    1.0090   26.9550   17.4060 C   0  0  0  0  0  0  0  0  0  0  0  0
    5.9450   24.8040   15.5440 C   0  0  1  0  0  0  0  0  0  0  0  0
    5.1790   25.9170   18.8680 C   0  0  0  0  0  0  0  0  0  0  0  0
    6.6110   26.4090   17.3020 C   0  0  0  0  0  0  0  0  0  0  0  0
    0.0740   25.7030   15.1380 C   0  0  0  0  0  0  0  0  0  0  0  0
   -0.3390   26.5950   17.3330 C   0  0  0  0  0  0  0  0  0  0  0  0
    7.1710   25.0160   16.4340 C   0  0  0  0  0  0  0  0  0  0  0  0
    5.1300   23.8750   16.1820 O   0  0  0  0  0  0  0  0  0  0  0  0
    6.3830   25.9760   19.4080 N   0  0  0  0  0  0  0  0  0  0  0  0
    7.2910   26.2870   18.4150 N   0  0  0  0  0  0  0  0  0  0  0  0
   -0.7750   25.9740   16.1870 C   0  0  0  0  0  0  0  0  0  0  0  0
   -0.5900   25.0850   14.1280 O   0  0  0  0  0  0  0  0  0  0  0  0
   -2.0510   25.5600   15.9460 O   0  0  0  0  0  0  0  0  0  0  0  0
   -1.9560   25.3280   14.5220 C   0  0  0  0  0  0  0  0  0  0  0  0
  1  2  1  0
  2  3  1  0
  1  4  2  0
  1  5  1  0
  2  6  1  0
  5  7  2  0
  5  8  1  0
  3  9  1  0
  6 10  1  0
  6 11  1  0
  7 12  1  0
  8 13  2  0
  9 14  1  1
  9 15  1  0
 10 16  2  0
 11 17  2  0
 16 17  1  0
 12 18  2  0
 13 18  1  0
 12 19  1  0
 18 20  1  0
 19 21  1  0
 20 21  1  0
M  END
