x0228_1_A_α-x0228_1_A_β
     RDKit          3D

 17 18  0  0  0  0  0  0  0  0999 V2000
    3.3700   26.9730   16.1530 C   0  0  0  0  0  0  0  0  0  0  0  0
    3.7370   25.6550   16.3280 N   0  0  0  0  0  0  0  0  0  0  0  0
    5.0440   25.5300   16.7030 N   0  0  0  0  0  0  0  0  0  0  0  0
    4.2610   27.8110   16.2550 O   0  0  0  0  0  0  0  0  0  0  0  0
    1.9710   27.5490   15.8690 C   0  0  0  0  0  0  0  0  0  0  0  0
    1.9910   28.9190   16.2060 C   0  0  0  0  0  0  0  0  0  0  0  0
    0.7290   27.0160   15.3540 C   0  0  0  0  0  0  0  0  0  0  0  0
    0.5940   25.6980   14.9970 O   0  0  0  0  0  0  0  0  0  0  0  0
    5.5710   25.8790   17.9070 C   0  0  0  0  0  0  0  0  0  0  0  0
    6.0690   25.0450   15.9530 C   0  0  0  0  0  0  0  0  0  0  0  0
    0.9000   29.7660   16.0610 C   0  0  0  0  0  0  0  0  0  0  0  0
   -0.3690   27.8980   15.2160 C   0  0  0  0  0  0  0  0  0  0  0  0
   -0.7180   25.2860   14.5880 C   0  0  0  0  0  0  0  0  0  0  0  0
    1.0180   31.2110   16.4360 C   0  0  0  0  0  0  0  0  0  0  0  0
    6.8610   25.6250   17.9030 N   0  0  0  0  0  0  0  0  0  0  0  0
    7.1800   25.0940   16.6700 N   0  0  0  0  0  0  0  0  0  0  0  0
   -0.2860   29.2480   15.5610 C   0  0  0  0  0  0  0  0  0  0  0  0
  1  2  1  0
  2  3  1  0
  1  4  2  0
  1  5  1  0
  5  6  2  0
  5  7  1  0
  7  8  1  0
  3  9  1  0
  3 10  1  0
  6 11  1  0
  7 12  2  0
  8 13  1  0
 11 14  1  0
  9 15  2  0
 10 16  2  0
 15 16  1  0
 11 17  2  0
 12 17  1  0
M  END
