x0228_1_A-x0334_0_A
     RDKit          3D

 28 30  0  0  0  0  0  0  0  0999 V2000
    2.5360   26.8340   15.8760 N   0  0  0  0  0  0  0  0  0  0  0  0
    2.7760   26.3680   17.1970 C   0  0  1  0  0  0  0  0  0  0  0  0
    3.8470   25.3680   17.4670 N   0  0  0  0  0  0  0  0  0  0  0  0
    1.6250   27.7860   15.5220 C   0  0  0  0  0  0  0  0  0  0  0  0
    3.1030   27.5020   17.9950 O   0  0  0  0  0  0  0  0  0  0  0  0
    1.4650   28.9580   16.1640 C   0  0  0  0  0  0  0  0  0  0  0  0
    1.3520   25.8540   17.7630 C   0  0  1  0  0  0  0  0  0  0  0  0
    3.9990   25.0500   18.9040 C   0  0  0  0  0  0  0  0  0  0  0  0
    0.4780   30.0570   15.7940 C   0  0  2  0  0  0  0  0  0  0  0  0
    5.1810   25.7360   17.0630 N   0  0  0  0  0  0  0  0  0  0  0  0
    0.9260   26.1090   19.2010 C   0  0  0  0  0  0  0  0  0  0  0  0
    0.0290   26.1810   16.9650 C   0  0  1  0  0  0  0  0  0  0  0  0
    0.6860   31.2520   16.7270 C   0  0  0  0  0  0  0  0  0  0  0  0
    3.0620   23.8930   19.2920 C   0  0  0  0  0  0  0  0  0  0  0  0
    3.7630   26.1740   19.9130 C   0  0  0  0  0  0  0  0  0  0  0  0
   -0.7910   25.0310   16.4610 N   0  0  0  0  0  0  0  0  0  0  0  0
   -1.0130   29.6670   15.6980 C   0  0  0  0  0  0  0  0  0  0  0  0
    6.0090   26.5280   17.8080 C   0  0  0  0  0  0  0  0  0  0  0  0
    5.8950   25.4080   15.9500 C   0  0  0  0  0  0  0  0  0  0  0  0
   -0.7140   27.1740   17.9090 C   0  0  0  0  0  0  0  0  0  0  0  0
   -0.2010   26.8250   19.2700 C   0  0  0  0  0  0  0  0  0  0  0  0
   -0.7110   24.9000   14.9890 C   0  0  0  0  0  0  0  0  0  0  0  0
   -2.2070   25.0620   16.8700 C   0  0  0  0  0  0  0  0  0  0  0  0
   -1.2330   28.4750   14.8020 C   0  0  0  0  0  0  0  0  0  0  0  0
    7.1560   26.6740   17.1980 N   0  0  0  0  0  0  0  0  0  0  0  0
    7.0830   25.9670   16.0240 N   0  0  0  0  0  0  0  0  0  0  0  0
   -1.1260   26.1170   14.3520 O   0  0  0  0  0  0  0  0  0  0  0  0
   -0.9380   27.2180   15.1280 C   0  0  0  0  0  0  0  0  0  0  0  0
  1  2  1  0
  2  3  1  0
  1  4  1  0
  2  5  1  1
  4  6  2  0
  2  7  1  0
  3  8  1  0
  6  9  1  0
  3 10  1  0
  7 11  1  1
  7 12  1  0
  9 13  1  1
  8 14  1  0
  8 15  1  0
 12 16  1  0
  9 17  1  0
 10 18  1  0
 10 19  1  0
 12 20  1  1
 11 21  2  0
 20 21  1  0
 16 22  1  0
 16 23  1  0
 17 24  1  0
 18 25  2  0
 19 26  2  0
 25 26  1  0
 22 27  1  0
 24 28  2  0
 27 28  1  0
M  END
