x0228_1_A_α-x0091_0_B_α
     RDKit          3D

 27 29  0  0  0  0  0  0  0  0999 V2000
    3.7130   26.5630   16.0260 C   0  0  0  0  0  0  0  0  0  0  0  0
    4.7730   25.7390   16.2650 N   0  0  0  0  0  0  0  0  0  0  0  0
    6.0670   26.2180   16.6180 N   0  0  0  0  0  0  0  0  0  0  0  0
    3.7010   27.7270   16.4130 O   0  0  0  0  0  0  0  0  0  0  0  0
    6.3330   26.5630   18.0100 C   0  0  0  0  0  0  0  0  0  0  0  0
    7.1790   25.3660   16.2090 C   0  0  0  0  0  0  0  0  0  0  0  0
    7.6570   26.0310   18.3700 N   0  0  0  0  0  0  0  0  0  0  0  0
    8.0580   25.0720   17.3520 N   0  0  0  0  0  0  0  0  0  0  0  0
    9.5160   25.2400   17.1060 C   0  0  0  0  0  0  0  0  0  0  0  0
   10.3980   23.9770   17.3250 C   0  0  0  0  0  0  0  0  0  0  0  0
   11.6330   23.8170   16.4010 C   0  0  0  0  0  0  0  0  0  0  0  0
   11.5740   22.5570   15.5100 C   0  0  0  0  0  0  0  0  0  0  0  0
   12.8930   21.8980   15.1070 C   0  0  0  0  0  0  0  0  0  0  0  0
   12.8330   21.1580   13.8280 N   0  0  0  0  0  0  0  0  0  0  0  0
   12.2400   19.8090   13.8390 C   0  0  0  0  0  0  0  0  0  0  0  0
   13.6880   21.5820   12.8140 C   0  0  0  0  0  0  0  0  0  0  0  0
   14.0250   20.8480   11.8820 O   0  0  0  0  0  0  0  0  0  0  0  0
   14.1230   22.8820   12.9290 N   0  0  0  0  0  0  0  0  0  0  0  0
   13.1780   18.7930   14.4260 C   0  0  0  0  0  0  0  0  0  0  0  0
   12.7020   17.7200   15.0780 N   0  0  0  0  0  0  0  0  0  0  0  0
   14.5980   18.7740   14.4050 C   0  0  0  0  0  0  0  0  0  0  0  0
   15.1790   23.4080   12.1180 C   0  0  0  0  0  0  0  0  0  0  0  0
   13.8060   16.9970   15.4900 O   0  0  0  0  0  0  0  0  0  0  0  0
   14.9350   17.6280   15.0870 C   0  0  0  0  0  0  0  0  0  0  0  0
   16.6160   23.1380   12.4700 C   0  0  0  0  0  0  0  0  0  0  0  0
   16.0490   24.5100   12.6620 C   0  0  0  0  0  0  0  0  0  0  0  0
   16.2100   16.9810   15.4460 C   0  0  0  0  0  0  0  0  0  0  0  0
  1  2  1  0
  2  3  1  0
  1  4  2  0
  3  5  1  0
  3  6  1  0
  5  7  1  0
  6  8  1  0
  7  8  1  0
  8  9  1  0
  9 10  1  0
 10 11  1  0
 11 12  1  0
 12 13  1  0
 13 14  1  0
 14 15  1  0
 14 16  1  0
 16 17  2  0
 16 18  1  0
 15 19  1  0
 19 20  2  0
 19 21  1  0
 18 22  1  0
 20 23  1  0
 21 24  2  0
 23 24  1  0
 22 25  1  0
 22 26  1  0
 25 26  1  0
 24 27  1  0
M  END
