x0228_0_B_α-x0228_0_B_β
     RDKit          3D

 17 18  0  0  0  0  0  0  0  0999 V2000
   -7.0550   25.0290  -13.4880 C   0  0  0  0  0  0  0  0  0  0  0  0
   -7.5880   25.7340  -14.5640 N   0  0  0  0  0  0  0  0  0  0  0  0
   -8.9120   25.5100  -14.8850 N   0  0  0  0  0  0  0  0  0  0  0  0
   -7.8010   24.2850  -12.8590 O   0  0  0  0  0  0  0  0  0  0  0  0
   -5.5850   25.0850  -12.9920 C   0  0  0  0  0  0  0  0  0  0  0  0
   -5.4560   24.3800  -11.7740 C   0  0  0  0  0  0  0  0  0  0  0  0
   -4.3870   25.6920  -13.5210 C   0  0  0  0  0  0  0  0  0  0  0  0
   -4.4020   26.3940  -14.6980 O   0  0  0  0  0  0  0  0  0  0  0  0
   -9.4020   24.5180  -15.6830 C   0  0  0  0  0  0  0  0  0  0  0  0
   -9.9900   26.2330  -14.4660 C   0  0  0  0  0  0  0  0  0  0  0  0
   -4.2500   24.2430  -11.0840 C   0  0  0  0  0  0  0  0  0  0  0  0
   -3.1750   25.5450  -12.8050 C   0  0  0  0  0  0  0  0  0  0  0  0
   -3.1250   26.7900  -15.2170 C   0  0  0  0  0  0  0  0  0  0  0  0
   -4.2250   23.4730   -9.7980 C   0  0  0  0  0  0  0  0  0  0  0  0
  -10.7190   24.6230  -15.7530 N   0  0  0  0  0  0  0  0  0  0  0  0
  -11.0920   25.7110  -14.9820 N   0  0  0  0  0  0  0  0  0  0  0  0
   -3.1080   24.8330  -11.6120 C   0  0  0  0  0  0  0  0  0  0  0  0
  1  2  1  0
  2  3  1  0
  1  4  2  0
  1  5  1  0
  5  6  2  0
  5  7  1  0
  7  8  1  0
  3  9  1  0
  3 10  1  0
  6 11  1  0
  7 12  2  0
  8 13  1  0
 11 14  1  0
  9 15  2  0
 10 16  2  0
 15 16  1  0
 11 17  2  0
 12 17  1  0
M  END
