x0228_0_B_β-5LW0_0_A_β
     RDKit          3D

 22 22  0  0  0  0  0  0  0  0999 V2000
   -6.5980   25.5280  -14.3390 N   0  0  0  0  0  0  0  0  0  0  0  0
   -5.5830   25.3910  -13.3710 C   0  0  0  0  0  0  0  0  0  0  0  0
   -4.3500   25.9020  -13.6180 C   0  0  0  0  0  0  0  0  0  0  0  0
   -5.8410   24.7290  -12.1450 C   0  0  0  0  0  0  0  0  0  0  0  0
   -4.0500   26.5750  -14.8440 O   0  0  0  0  0  0  0  0  0  0  0  0
   -4.8870   24.5910  -11.2050 C   0  0  0  0  0  0  0  0  0  0  0  0
   -3.4020   25.7760  -12.7020 C   0  0  0  0  0  0  0  0  0  0  0  0
   -2.6450   26.7940  -15.1180 C   0  0  0  0  0  0  0  0  0  0  0  0
   -5.3410   23.8080   -9.8570 C   0  0  0  0  0  0  0  0  0  0  0  0
   -3.6730   25.1180  -11.4870 C   0  0  0  0  0  0  0  0  0  0  0  0
   -4.2030   23.4580   -8.8510 C   0  0  0  0  0  0  0  0  0  0  0  0
   -3.8330   22.0110   -8.7290 C   0  0  0  0  0  0  0  0  0  0  0  0
   -2.5720   21.6290   -7.8700 C   0  0  0  0  0  0  0  0  0  0  0  0
   -1.8320   20.6900   -8.6390 O   0  0  0  0  0  0  0  0  0  0  0  0
   -0.9860   19.5150   -7.7520 P   0  0  0  0  0  0  0  0  0  0  0  0
   -1.0230   19.1590   -6.2350 O   0  0  0  0  0  0  0  0  0  0  0  0
   -0.0770   18.5040   -8.8400 O   0  0  0  0  0  0  0  0  0  0  0  0
    0.2280   20.4370   -7.7830 O   0  0  0  0  0  0  0  0  0  0  0  0
   -1.5490   17.5630   -5.9670 P   0  0  0  0  0  0  0  0  0  0  0  0
   -0.5640   16.4730   -5.2640 O   0  0  0  0  0  0  0  0  0  0  0  0
   -2.8900   17.1360   -6.7360 O   0  0  0  0  0  0  0  0  0  0  0  0
   -2.2600   18.0680   -4.7590 O   0  0  0  0  0  0  0  0  0  0  0  0
  1  2  1  0
  2  3  2  0
  2  4  1  0
  3  5  1  0
  4  6  2  0
  3  7  1  0
  5  8  1  0
  6  9  1  0
  6 10  1  0
  7 10  2  0
  9 11  1  0
 11 12  1  0
 12 13  1  0
 13 14  1  0
 14 15  1  0
 15 16  1  0
 15 17  1  0
 15 18  1  0
 16 19  1  0
 19 20  1  0
 19 21  1  0
 19 22  1  0
M  CHG  2  17  -1  21  -1
M  END
