x0228_1_A_α-x0822_0_A_α
     RDKit          3D

 22 24  0  0  0  0  0  0  0  0999 V2000
    5.2140   28.1050   18.1830 C   0  0  0  0  0  0  0  0  0  0  0  0
    5.0670   26.7470   18.1280 N   0  0  0  0  0  0  0  0  0  0  0  0
    6.2630   26.1450   17.8490 N   0  0  0  0  0  0  0  0  0  0  0  0
    5.2870   28.8350   17.2030 O   0  0  0  0  0  0  0  0  0  0  0  0
    3.7940   26.3670   17.5240 C   0  0  1  0  0  0  0  0  0  0  0  0
    6.5490   25.1610   16.9750 C   0  0  0  0  0  0  0  0  0  0  0  0
    7.4270   26.4720   18.4430 C   0  0  0  0  0  0  0  0  0  0  0  0
    3.5860   27.2000   16.2690 C   0  0  1  0  0  0  0  0  0  0  0  0
    3.7980   24.9340   17.1050 C   0  0  0  0  0  0  0  0  0  0  0  0
    7.8320   24.8980   17.0380 N   0  0  0  0  0  0  0  0  0  0  0  0
    8.3910   25.7260   17.9640 N   0  0  0  0  0  0  0  0  0  0  0  0
    4.4030   26.6200   15.1260 C   0  0  0  0  0  0  0  0  0  0  0  0
    5.0580   24.6620   16.5200 O   0  0  0  0  0  0  0  0  0  0  0  0
    2.1350   27.3940   15.9130 C   0  0  0  0  0  0  0  0  0  0  0  0
    5.4560   25.5800   15.4930 C   0  0  0  0  0  0  0  0  0  0  0  0
    1.5570   28.6440   16.1770 C   0  0  0  0  0  0  0  0  0  0  0  0
    1.3600   26.3900   15.3330 C   0  0  0  0  0  0  0  0  0  0  0  0
    0.2290   28.8860   15.8650 C   0  0  0  0  0  0  0  0  0  0  0  0
    0.0300   26.6230   15.0220 C   0  0  0  0  0  0  0  0  0  0  0  0
   -0.8130   25.7160   14.4600 O   0  0  0  0  0  0  0  0  0  0  0  0
   -0.5340   27.8750   15.2870 C   0  0  0  0  0  0  0  0  0  0  0  0
   -2.1400   26.1340   14.1980 C   0  0  0  0  0  0  0  0  0  0  0  0
  1  2  1  0
  2  3  1  0
  1  4  2  0
  5  2  1  6
  3  6  1  0
  3  7  1  0
  5  8  1  0
  5  9  1  0
  6 10  2  0
  7 11  2  0
 10 11  1  0
  8 12  1  0
  9 13  1  0
  8 14  1  6
 12 15  1  0
 13 15  1  0
 14 16  2  0
 14 17  1  0
 16 18  1  0
 17 19  2  0
 19 20  1  0
 18 21  2  0
 19 21  1  0
 20 22  1  0
M  END
