x0228_0_B_α-x0766_1_B_α
     RDKit          3D

 19 21  0  0  0  0  0  0  0  0999 V2000
   -7.2500   25.7400  -13.6930 C   0  0  0  0  0  0  0  0  0  0  0  0
   -8.1620   26.3810  -14.6260 N   0  0  0  0  0  0  0  0  0  0  0  0
   -9.4140   25.7250  -14.8990 N   0  0  0  0  0  0  0  0  0  0  0  0
   -7.7880   24.4950  -13.3060 O   0  0  0  0  0  0  0  0  0  0  0  0
   -6.0310   25.5250  -14.3620 O   0  0  0  0  0  0  0  0  0  0  0  0
   -6.9370   26.6240  -12.4430 C   0  0  2  0  0  0  0  0  0  0  0  0
   -7.7350   26.2310  -11.1820 C   0  0  0  0  0  0  0  0  0  0  0  0
   -7.1810   28.1540  -12.5890 C   0  0  1  0  0  0  0  0  0  0  0  0
   -9.6650   24.5890  -15.6200 C   0  0  0  0  0  0  0  0  0  0  0  0
  -10.6340   26.1540  -14.4680 C   0  0  0  0  0  0  0  0  0  0  0  0
   -8.5720   27.4660  -10.8790 C   0  0  0  0  0  0  0  0  0  0  0  0
   -7.5930   28.5900  -11.1940 C   0  0  0  0  0  0  0  0  0  0  0  0
   -6.0740   28.9230  -13.2680 C   0  0  0  0  0  0  0  0  0  0  0  0
  -10.9620   24.3450  -15.6270 N   0  0  0  0  0  0  0  0  0  0  0  0
  -11.5740   25.3410  -14.8960 N   0  0  0  0  0  0  0  0  0  0  0  0
   -4.7180   28.8700  -12.9920 C   0  0  0  0  0  0  0  0  0  0  0  0
   -6.3340   29.8350  -14.3400 C   0  0  0  0  0  0  0  0  0  0  0  0
   -5.2040   30.4230  -14.8370 C   0  0  0  0  0  0  0  0  0  0  0  0
   -3.8080   29.8910  -14.0220 S   0  0  0  0  0  0  0  0  0  0  0  0
  1  2  1  0
  2  3  1  0
  1  4  1  0
  1  5  1  0
  6  1  1  6
  6  7  1  0
  6  8  1  0
  3  9  1  0
  3 10  1  0
  7 11  1  0
  8 12  1  0
 11 12  1  0
  8 13  1  1
  9 14  2  0
 10 15  2  0
 14 15  1  0
 13 16  2  0
 13 17  1  0
 17 18  2  0
 16 19  1  0
 18 19  1  0
M  END
