x0253_0_A-x0933_0_A
     RDKit          3D

 24 25  0  0  0  0  0  0  0  0999 V2000
    0.3770   11.7900   -5.2160 N   0  0  0  0  0  0  0  0  0  0  0  0
    1.0600   11.6680   -6.4140 C   0  0  0  0  0  0  0  0  0  0  0  0
    2.1220   12.2390   -6.5830 O   0  0  0  0  0  0  0  0  0  0  0  0
    1.0210   12.4370   -4.0680 C   0  0  0  0  0  0  0  0  0  0  0  0
    0.6310   11.8110   -2.7120 C   0  0  0  0  0  0  0  0  0  0  0  0
    0.4730   10.7780   -7.4780 C   0  0  0  0  0  0  0  0  0  0  0  0
    0.6140   12.4780   -1.6080 N   0  0  0  0  0  0  0  0  0  0  0  0
    0.3030   10.4970   -2.7440 O   0  0  0  0  0  0  0  0  0  0  0  0
   -0.5110    9.8610   -7.0840 C   0  0  0  0  0  0  0  0  0  0  0  0
    0.8500   10.8070   -8.8330 C   0  0  0  0  0  0  0  0  0  0  0  0
    0.9580   13.8860   -1.4750 C   0  0  0  0  0  0  0  0  0  0  0  0
   -1.1070    8.9970   -8.0120 C   0  0  0  0  0  0  0  0  0  0  0  0
    0.2640    9.9540   -9.7610 C   0  0  0  0  0  0  0  0  0  0  0  0
   -2.1590    8.0240   -7.5710 C   0  0  0  0  0  0  0  0  0  0  0  0
   -0.1640   14.5790   -0.7080 C   0  0  0  0  0  0  0  0  0  0  0  0
   -0.7130    9.0500   -9.3550 C   0  0  0  0  0  0  0  0  0  0  0  0
   -1.5060   14.4030   -1.4380 C   0  0  0  0  0  0  0  0  0  0  0  0
   -2.7250   14.2320   -0.5130 C   0  0  2  0  0  0  0  0  0  0  0  0
   -3.9870   14.7880   -1.1960 C   0  0  0  0  0  0  0  0  0  0  0  0
   -2.5610   14.8080    0.9100 C   0  0  0  0  0  0  0  0  0  0  0  0
   -5.1220   14.4210   -0.3750 N   0  0  0  0  0  0  0  0  0  0  0  0
   -3.8280   15.1140    1.5530 N   0  0  0  0  0  0  0  0  0  0  0  0
   -5.0210   15.2290    0.7840 C   0  0  2  0  0  0  0  0  0  0  0  0
   -6.0670   14.8010    1.6530 N   0  0  0  0  0  0  0  0  0  0  0  0
  1  2  1  0
  2  3  2  0
  1  4  1  0
  4  5  1  0
  2  6  1  0
  5  7  2  3
  5  8  1  0
  6  9  2  0
  6 10  1  0
  7 11  1  0
  9 12  1  0
 10 13  2  0
 12 14  1  0
 11 15  1  0
 12 16  2  0
 13 16  1  0
 15 17  1  0
 18 17  1  6
 18 19  1  0
 18 20  1  0
 19 21  1  0
 20 22  1  0
 21 23  1  0
 22 23  1  0
 23 24  1  1
M  END
