x0253_0_A_α-x0685_1_A_α
     RDKit          3D

 17 18  0  0  0  0  0  0  0  0999 V2000
    0.7220   12.4340   -5.3170 N   0  0  0  0  0  0  0  0  0  0  0  0
    1.1480   11.9160   -6.4640 C   0  0  0  0  0  0  0  0  0  0  0  0
    2.2650   12.2680   -6.7500 O   0  0  0  0  0  0  0  0  0  0  0  0
    0.1590   11.5960   -4.3120 C   0  0  1  0  0  0  0  0  0  0  0  0
    0.6240   11.9630   -2.8760 C   0  0  0  0  0  0  0  0  0  0  0  0
   -1.3000   11.3560   -4.5990 C   0  0  0  0  0  0  0  0  0  0  0  0
    0.3590   10.9270   -7.2780 C   0  0  0  0  0  0  0  0  0  0  0  0
    0.0280   13.0780   -2.3030 O   0  0  0  0  0  0  0  0  0  0  0  0
    0.3840   10.8330   -2.0610 O   0  0  0  0  0  0  0  0  0  0  0  0
   -1.3550   10.1810   -5.5120 N   0  0  0  0  0  0  0  0  0  0  0  0
    2.0030   12.2480   -2.8720 O   0  0  0  0  0  0  0  0  0  0  0  0
   -0.7520   10.1550   -6.8310 C   0  0  0  0  0  0  0  0  0  0  0  0
    0.8100   10.7790   -8.6230 C   0  0  0  0  0  0  0  0  0  0  0  0
   -1.3330    9.2520   -7.7960 C   0  0  0  0  0  0  0  0  0  0  0  0
    0.2270    9.9080   -9.5250 C   0  0  0  0  0  0  0  0  0  0  0  0
   -2.5090    8.3650   -7.4550 C   0  0  0  0  0  0  0  0  0  0  0  0
   -0.8400    9.1430   -9.1140 C   0  0  0  0  0  0  0  0  0  0  0  0
  1  2  1  0
  2  3  2  0
  1  4  1  0
  4  5  1  1
  4  6  1  0
  2  7  1  0
  5  8  1  0
  5  9  1  0
  6 10  1  0
  5 11  1  0
  7 12  2  0
 10 12  1  0
  7 13  1  0
 12 14  1  0
 13 15  2  0
 14 16  1  0
 14 17  2  0
 15 17  1  0
M  END
