x0253_0_A-x0591_0_A
     RDKit          3D

 30 31  0  0  0  0  0  0  0  0999 V2000
    0.4100   11.5120   -5.3840 N   0  0  0  0  0  0  0  0  0  0  0  0
    1.0790   11.5290   -6.5730 C   0  0  0  0  0  0  0  0  0  0  0  0
    2.1050   12.1680   -6.7070 O   0  0  0  0  0  0  0  0  0  0  0  0
    0.4730   12.5370   -4.3600 C   0  0  1  0  0  0  0  0  0  0  0  0
    0.8660   12.0310   -2.9710 C   0  0  0  0  0  0  0  0  0  0  0  0
    1.1930   13.8090   -4.7820 C   0  0  0  0  0  0  0  0  0  0  0  0
    0.4790   10.6790   -7.6240 C   0  0  0  0  0  0  0  0  0  0  0  0
    1.5110   12.6650   -2.1560 O   0  0  0  0  0  0  0  0  0  0  0  0
    0.4050   10.7890   -2.7160 O   0  0  0  0  0  0  0  0  0  0  0  0
    0.1290   14.8690   -4.9040 C   0  0  0  0  0  0  0  0  0  0  0  0
   -0.5020    9.7600   -7.2460 C   0  0  0  0  0  0  0  0  0  0  0  0
    0.8660   10.7700   -8.9640 C   0  0  0  0  0  0  0  0  0  0  0  0
   -1.1950   14.1690   -4.9230 N   0  0  0  0  0  0  0  0  0  0  0  0
   -1.1020    8.9350   -8.1970 C   0  0  0  0  0  0  0  0  0  0  0  0
    0.2740    9.9490   -9.9160 C   0  0  0  0  0  0  0  0  0  0  0  0
   -2.1540    7.9580   -7.7720 C   0  0  0  0  0  0  0  0  0  0  0  0
   -2.4170   15.0450   -5.0490 S   0  0  1  0  0  0  0  0  0  0  0  0
   -0.7070    9.0340   -9.5360 C   0  0  0  0  0  0  0  0  0  0  0  0
   -1.5950   16.4930   -4.9320 N   0  0  0  0  0  0  0  0  0  0  0  0
   -3.2160   15.2480   -6.2320 O   0  0  0  0  0  0  0  0  0  0  0  0
   -3.4810   14.8930   -3.6490 C   0  0  0  0  0  0  0  0  0  0  0  0
   -2.9890   14.7890   -2.3410 C   0  0  0  0  0  0  0  0  0  0  0  0
   -4.8420   14.8940   -3.8820 C   0  0  0  0  0  0  0  0  0  0  0  0
   -3.8950   14.7020   -1.2720 C   0  0  0  0  0  0  0  0  0  0  0  0
   -5.7340   14.8130   -2.8260 C   0  0  0  0  0  0  0  0  0  0  0  0
   -5.2760   14.7210   -1.5170 C   0  0  0  0  0  0  0  0  0  0  0  0
   -6.2470   14.6470   -0.4060 C   0  0  0  0  0  0  0  0  0  0  0  0
   -5.8540   14.5280    0.8990 N   0  0  0  0  0  0  0  0  0  0  0  0
   -7.4490   14.6990   -0.6520 O   0  0  0  0  0  0  0  0  0  0  0  0
   -6.7360   14.5110    2.0420 C   0  0  0  0  0  0  0  0  0  0  0  0
  1  2  1  0
  2  3  2  0
  1  4  1  0
  4  5  1  0
  4  6  1  6
  2  7  1  0
  5  8  2  0
  5  9  1  0
  6 10  1  0
  7 11  2  0
  7 12  1  0
 10 13  1  0
 11 14  1  0
 12 15  2  0
 14 16  1  0
 13 17  2  0
 14 18  2  0
 15 18  1  0
 17 19  1  1
 17 20  2  0
 17 21  1  0
 21 22  2  0
 21 23  1  0
 22 24  1  0
 23 25  2  0
 24 26  2  0
 25 26  1  0
 26 27  1  0
 27 28  1  0
 27 29  2  0
 28 30  1  0
M  END
