x0253_0_A-x1012_0_A
     RDKit          3D

 23 24  0  0  0  0  0  0  0  0999 V2000
    0.7310   11.6870   -5.2500 N   0  0  0  0  0  0  0  0  0  0  0  0
    1.1660   11.6070   -6.5330 C   0  0  0  0  0  0  0  0  0  0  0  0
    2.1390   12.2590   -6.7980 O   0  0  0  0  0  0  0  0  0  0  0  0
    1.4840   12.3960   -4.2130 C   0  0  0  0  0  0  0  0  0  0  0  0
    0.5960   12.6360   -3.0120 C   0  0  0  0  0  0  0  0  0  0  0  0
    0.5040   10.7230   -7.5290 C   0  0  0  0  0  0  0  0  0  0  0  0
    1.3680   12.9310   -1.8630 O   0  0  0  0  0  0  0  0  0  0  0  0
   -0.2020   11.4900   -2.7600 O   0  0  0  0  0  0  0  0  0  0  0  0
   -0.4770    9.8220   -7.1140 C   0  0  0  0  0  0  0  0  0  0  0  0
    0.8580   10.7840   -8.8850 C   0  0  0  0  0  0  0  0  0  0  0  0
   -0.0840   13.8600   -3.5850 C   0  0  0  0  0  0  0  0  0  0  0  0
   -1.1050    8.9840   -8.0460 C   0  0  0  0  0  0  0  0  0  0  0  0
    0.2390    9.9550   -9.8120 C   0  0  0  0  0  0  0  0  0  0  0  0
   -1.5110   14.2550   -3.2600 C   0  0  0  0  0  0  0  0  0  0  0  0
    0.8140   15.0840   -3.5480 C   0  0  0  0  0  0  0  0  0  0  0  0
   -2.1610    8.0170   -7.5970 C   0  0  0  0  0  0  0  0  0  0  0  0
   -0.7400    9.0570   -9.3940 C   0  0  0  0  0  0  0  0  0  0  0  0
   -1.9480   15.1320   -4.4440 C   0  0  0  0  0  0  0  0  0  0  0  0
    0.4950   15.7990   -4.8320 C   0  0  0  0  0  0  0  0  0  0  0  0
   -0.9290   16.1490   -4.8310 N   0  0  0  0  0  0  0  0  0  0  0  0
   -1.3120   17.4450   -4.8440 C   0  0  0  0  0  0  0  0  0  0  0  0
   -0.3220   18.3540   -4.7820 N   0  0  0  0  0  0  0  0  0  0  0  0
   -2.4520   17.8290   -4.8980 O   0  0  0  0  0  0  0  0  0  0  0  0
  1  2  1  0
  2  3  2  0
  1  4  1  0
  4  5  1  0
  2  6  1  0
  5  7  1  0
  5  8  1  0
  6  9  2  0
  6 10  1  0
  5 11  1  0
  9 12  1  0
 10 13  2  0
 11 14  1  0
 11 15  1  0
 12 16  1  0
 12 17  2  0
 13 17  1  0
 14 18  1  0
 15 19  1  0
 18 20  1  0
 19 20  1  0
 20 21  1  0
 21 22  1  0
 21 23  2  0
M  END
