x0259_0_A-x0216_0_A
     RDKit          3D

 22 23  0  0  0  0  0  0  0  0999 V2000
   19.4610   28.4920    6.7640 C   0  0  2  0  0  0  0  0  0  0  0  0
   19.6170   27.6420    8.0540 C   0  0  0  0  0  0  0  0  0  0  0  0
   19.6780   29.9520    7.2830 C   0  0  0  0  0  0  0  0  0  0  0  0
   18.0880   28.4390    6.2460 N   0  0  0  0  0  0  0  0  0  0  0  0
   20.3890   27.9290    5.5390 C   0  0  0  0  0  0  0  0  0  0  0  0
   17.1590   29.5430    6.4700 C   0  0  0  0  0  0  0  0  0  0  0  0
   18.7360   30.5100    8.3930 C   0  0  1  0  0  0  0  0  0  0  0  0
   19.7880   27.7600    4.2510 N   0  0  0  0  0  0  0  0  0  0  0  0
   21.7080   27.5920    5.6520 C   0  0  0  0  0  0  0  0  0  0  0  0
   22.6530   27.7380    7.1090 Cl  0  0  0  0  0  0  0  0  0  0  0  0
   15.7170   29.1210    6.6020 C   0  0  0  0  0  0  0  0  0  0  0  0
   17.3030   30.8200    5.6420 C   0  0  0  0  0  0  0  0  0  0  0  0
   18.4420   32.0000    8.3240 C   0  0  0  0  0  0  0  0  0  0  0  0
   17.3200   29.9080    8.4920 C   0  0  0  0  0  0  0  0  0  0  0  0
   20.3980   27.0920    3.2810 C   0  0  0  0  0  0  0  0  0  0  0  0
   22.5390   27.0230    4.5250 C   0  0  0  0  0  0  0  0  0  0  0  0
   18.6970   28.5440    3.7110 C   0  0  0  0  0  0  0  0  0  0  0  0
   23.7540   26.8480    4.6530 O   0  0  0  0  0  0  0  0  0  0  0  0
   16.3890   30.8520    7.9400 O   0  0  0  0  0  0  0  0  0  0  0  0
   16.9530   32.1480    8.0420 C   0  0  0  0  0  0  0  0  0  0  0  0
   21.7780   26.6820    3.3260 N   0  0  0  0  0  0  0  0  0  0  0  0
   22.3000   26.0390    2.3610 O   0  0  0  0  0  0  0  0  0  0  0  0
  1  2  1  1
  1  3  1  0
  1  4  1  0
  1  5  1  0
  4  6  1  0
  7  3  1  6
  5  8  1  0
  5  9  2  0
  9 10  1  0
  6 11  1  0
  6 12  1  0
  7 13  1  0
  7 14  1  0
  8 15  1  0
  9 16  1  0
  8 17  1  0
 16 18  2  0
 14 19  1  0
 13 20  1  0
 19 20  1  0
 15 21  2  0
 16 21  1  0
 21 22  1  0
M  CHG  2  21   1  22  -1
M  END
