x0253_0_A_α-x0128_0_A_α
     RDKit          3D

 34 36  0  0  0  0  0  0  0  0999 V2000
    0.4430   11.9550   -5.3130 N   0  0  0  0  0  0  0  0  0  0  0  0
    1.1220   11.6900   -6.4850 C   0  0  0  0  0  0  0  0  0  0  0  0
    2.2260   12.1610   -6.6430 O   0  0  0  0  0  0  0  0  0  0  0  0
    1.1890   12.7150   -4.3080 C   0  0  0  0  0  0  0  0  0  0  0  0
    0.6260   12.5220   -2.9020 C   0  0  0  0  0  0  0  0  0  0  0  0
    0.4990   10.7880   -7.5150 C   0  0  0  0  0  0  0  0  0  0  0  0
    0.5510   13.5240   -2.0760 N   0  0  0  0  0  0  0  0  0  0  0  0
    0.2340   11.2580   -2.6410 O   0  0  0  0  0  0  0  0  0  0  0  0
   -0.4840    9.8820   -7.0920 C   0  0  0  0  0  0  0  0  0  0  0  0
    0.8530   10.8040   -8.8760 C   0  0  0  0  0  0  0  0  0  0  0  0
    0.0070   13.4070   -0.7180 C   0  0  0  0  0  0  0  0  0  0  0  0
   -1.1010    9.0130   -8.0030 C   0  0  0  0  0  0  0  0  0  0  0  0
    0.2450    9.9440   -9.7850 C   0  0  0  0  0  0  0  0  0  0  0  0
   -2.1530    8.0480   -7.5360 C   0  0  0  0  0  0  0  0  0  0  0  0
   -0.3670   14.7610   -0.1250 C   0  0  0  0  0  0  0  0  0  0  0  0
   -0.7310    9.0510   -9.3520 C   0  0  0  0  0  0  0  0  0  0  0  0
   -1.7990   14.7770    0.4260 C   0  0  0  0  0  0  0  0  0  0  0  0
   -2.7920   14.6770   -0.7310 C   0  0  0  0  0  0  0  0  0  0  0  0
   -4.2560   14.7600   -0.3810 C   0  0  0  0  0  0  0  0  0  0  0  0
   -5.1360   14.9550   -1.4460 C   0  0  0  0  0  0  0  0  0  0  0  0
   -4.7730   14.6460    0.9280 C   0  0  0  0  0  0  0  0  0  0  0  0
   -6.5010   15.0260   -1.2330 C   0  0  0  0  0  0  0  0  0  0  0  0
   -6.1690   14.7180    1.1450 C   0  0  0  0  0  0  0  0  0  0  0  0
   -6.6710   14.6040    2.4570 N   0  0  0  0  0  0  0  0  0  0  0  0
   -7.0130   14.9030    0.0500 C   0  0  0  0  0  0  0  0  0  0  0  0
   -7.8300   15.1570    2.9820 C   0  0  0  0  0  0  0  0  0  0  0  0
   -8.8140   15.5040    2.3420 O   0  0  0  0  0  0  0  0  0  0  0  0
   -7.6950   15.2630    4.3520 N   0  0  0  0  0  0  0  0  0  0  0  0
   -8.4760   16.0650    5.2240 C   0  0  0  0  0  0  0  0  0  0  0  0
   -9.1580   17.2190    4.8450 C   0  0  0  0  0  0  0  0  0  0  0  0
   -8.5840   15.6840    6.5630 C   0  0  0  0  0  0  0  0  0  0  0  0
   -9.9100   17.9790    5.6820 N   0  0  0  0  0  0  0  0  0  0  0  0
   -9.3500   16.4500    7.4470 C   0  0  0  0  0  0  0  0  0  0  0  0
   -9.9880   17.5790    6.9620 C   0  0  0  0  0  0  0  0  0  0  0  0
  1  2  1  0
  2  3  2  0
  1  4  1  0
  4  5  1  0
  2  6  1  0
  5  7  2  3
  5  8  1  0
  6  9  2  0
  6 10  1  0
  7 11  1  0
  9 12  1  0
 10 13  2  0
 12 14  1  0
 11 15  1  0
 12 16  2  0
 13 16  1  0
 15 17  1  0
 17 18  1  0
 18 19  1  0
 19 20  2  0
 19 21  1  0
 20 22  1  0
 21 23  2  0
 23 24  1  0
 22 25  2  0
 23 25  1  0
 24 26  1  0
 26 27  2  0
 26 28  1  0
 28 29  1  0
 29 30  2  0
 29 31  1  0
 30 32  1  0
 31 33  2  0
 32 34  2  0
 33 34  1  0
M  END
