x0253_0_A_α-x0681_0_A_α
     RDKit          3D

 28 30  0  0  0  0  0  0  0  0999 V2000
    0.3420   11.9500   -5.3470 N   0  0  0  0  0  0  0  0  0  0  0  0
    1.0840   11.6820   -6.4780 C   0  0  0  0  0  0  0  0  0  0  0  0
    2.1990   12.1480   -6.6190 O   0  0  0  0  0  0  0  0  0  0  0  0
    0.7620   12.9840   -4.4060 C   0  0  0  0  0  0  0  0  0  0  0  0
    0.6940   12.5620   -2.9010 C   0  0  0  0  0  0  0  0  0  0  0  0
    0.4670   10.7590   -7.4890 C   0  0  0  0  0  0  0  0  0  0  0  0
    2.0010   12.4190   -2.4160 O   0  0  0  0  0  0  0  0  0  0  0  0
    0.0760   11.2780   -2.7870 O   0  0  0  0  0  0  0  0  0  0  0  0
    0.0370   13.6560   -2.0160 C   0  0  0  0  0  0  0  0  0  0  0  0
   -0.5120    9.8400   -7.0970 C   0  0  0  0  0  0  0  0  0  0  0  0
    0.8550   10.7920   -8.8420 C   0  0  0  0  0  0  0  0  0  0  0  0
   -1.4170   13.4230   -1.5870 C   0  0  0  0  0  0  0  0  0  0  0  0
   -1.1020    8.9690   -8.0280 C   0  0  0  0  0  0  0  0  0  0  0  0
    0.2760    9.9310   -9.7720 C   0  0  0  0  0  0  0  0  0  0  0  0
   -2.1520    7.9920   -7.5930 C   0  0  0  0  0  0  0  0  0  0  0  0
   -2.2690   14.3020   -2.3890 N   0  0  0  0  0  0  0  0  0  0  0  0
   -0.6990    9.0250   -9.3690 C   0  0  0  0  0  0  0  0  0  0  0  0
   -3.3800   14.8590   -2.0250 C   0  0  0  0  0  0  0  0  0  0  0  0
   -3.9680   15.6180   -2.9930 N   0  0  0  0  0  0  0  0  0  0  0  0
   -4.1760   14.8230   -0.7290 C   0  0  1  0  0  0  0  0  0  0  0  0
   -4.9390   13.5600   -0.5670 C   0  0  0  0  0  0  0  0  0  0  0  0
   -3.5020   15.3470    0.5470 C   0  0  0  0  0  0  0  0  0  0  0  0
   -5.6450   13.3850    0.5740 N   0  0  0  0  0  0  0  0  0  0  0  0
   -4.2090   14.8980    1.8290 C   0  0  0  0  0  0  0  0  0  0  0  0
   -5.0760   12.5220   -1.3670 N   0  0  0  0  0  0  0  0  0  0  0  0
   -5.6390   14.4010    1.5960 C   0  0  0  0  0  0  0  0  0  0  0  0
   -6.2800   12.1860    0.5310 C   0  0  0  0  0  0  0  0  0  0  0  0
   -5.9130   11.6620   -0.6890 C   0  0  0  0  0  0  0  0  0  0  0  0
  1  2  1  0
  2  3  2  0
  1  4  1  0
  4  5  1  0
  2  6  1  0
  5  7  1  0
  5  8  1  0
  5  9  1  0
  6 10  2  0
  6 11  1  0
  9 12  1  0
 10 13  1  0
 11 14  2  0
 13 15  1  0
 12 16  1  0
 13 17  2  0
 14 17  1  0
 16 18  2  3
 18 19  1  0
 20 18  1  6
 20 21  1  0
 20 22  1  0
 21 23  1  0
 22 24  1  0
 21 25  2  0
 23 26  1  0
 24 26  1  0
 23 27  1  0
 25 28  1  0
 27 28  2  0
M  END
