x0253_0_A-x0910_0_A
     RDKit          3D

 23 24  0  0  0  0  0  0  0  0999 V2000
    0.4410   12.2160   -5.5950 N   0  0  0  0  0  0  0  0  0  0  0  0
    1.1630   11.7350   -6.6220 C   0  0  0  0  0  0  0  0  0  0  0  0
    2.3160   12.0600   -6.6990 O   0  0  0  0  0  0  0  0  0  0  0  0
    1.1670   12.6750   -4.4300 C   0  0  0  0  0  0  0  0  0  0  0  0
    0.4080   12.1750   -3.2520 C   0  0  0  0  0  0  0  0  0  0  0  0
    0.5150   10.7950   -7.5910 C   0  0  0  0  0  0  0  0  0  0  0  0
   -0.2080   12.9570   -2.4960 N   0  0  0  0  0  0  0  0  0  0  0  0
    0.3950   10.8360   -3.0970 O   0  0  0  0  0  0  0  0  0  0  0  0
   -0.4600    9.8890   -7.1490 C   0  0  0  0  0  0  0  0  0  0  0  0
    0.8720   10.8040   -8.9480 C   0  0  0  0  0  0  0  0  0  0  0  0
   -0.9900   12.3260   -1.4800 C   0  0  0  0  0  0  0  0  0  0  0  0
   -1.0700    9.0060   -8.0510 C   0  0  0  0  0  0  0  0  0  0  0  0
    0.2690    9.9300   -9.8440 C   0  0  0  0  0  0  0  0  0  0  0  0
   -2.1110    8.0440   -7.5640 C   0  0  0  0  0  0  0  0  0  0  0  0
   -2.4140   12.1820   -2.0460 C   0  0  0  0  0  0  0  0  0  0  0  0
   -0.6990    9.0320   -9.4010 C   0  0  0  0  0  0  0  0  0  0  0  0
   -3.4010   13.2560   -1.5880 C   0  0  0  0  0  0  0  0  0  0  0  0
   -2.7710   14.5610   -1.5210 N   0  0  0  0  0  0  0  0  0  0  0  0
   -1.8440   14.7290   -0.5650 C   0  0  0  0  0  0  0  0  0  0  0  0
   -2.1920   14.7240    0.7580 N   0  0  0  0  0  0  0  0  0  0  0  0
   -0.5450   14.9150   -0.6700 N   0  0  0  0  0  0  0  0  0  0  0  0
   -1.1100   14.9080    1.5310 N   0  0  0  0  0  0  0  0  0  0  0  0
   -0.1440   15.0230    0.6240 C   0  0  0  0  0  0  0  0  0  0  0  0
  1  2  1  0
  2  3  2  0
  1  4  1  0
  4  5  1  0
  2  6  1  0
  5  7  2  3
  5  8  1  0
  6  9  2  0
  6 10  1  0
  7 11  1  0
  9 12  1  0
 10 13  2  0
 12 14  1  0
 11 15  1  0
 12 16  2  0
 13 16  1  0
 15 17  1  0
 17 18  1  0
 18 19  1  0
 19 20  1  0
 19 21  2  0
 20 22  1  0
 21 23  1  0
 22 23  2  0
M  END
