x0253_0_A_α-x0805_0_A_β
     RDKit          3D

 20 21  0  0  0  0  0  0  0  0999 V2000
   -0.0210   12.1390   -5.6030 N   0  0  0  0  0  0  0  0  0  0  0  0
    0.9150   11.7170   -6.5410 C   0  0  0  0  0  0  0  0  0  0  0  0
    2.0810   12.0870   -6.5180 O   0  0  0  0  0  0  0  0  0  0  0  0
   -0.3600   11.3840   -4.3880 C   0  0  0  0  0  0  0  0  0  0  0  0
    0.2270   12.0040   -3.0970 C   0  0  0  0  0  0  0  0  0  0  0  0
    0.4180   10.7710   -7.5800 C   0  0  0  0  0  0  0  0  0  0  0  0
   -0.5630   11.9690   -1.9110 O   0  0  0  0  0  0  0  0  0  0  0  0
    1.2700   11.2110   -2.7480 O   0  0  0  0  0  0  0  0  0  0  0  0
   -0.5440    9.8400   -7.1810 C   0  0  0  0  0  0  0  0  0  0  0  0
    0.8560   10.7680   -8.9160 C   0  0  0  0  0  0  0  0  0  0  0  0
    0.6810   13.4140   -3.3600 C   0  0  2  0  0  0  0  0  0  0  0  0
   -1.0700    8.9170   -8.0880 C   0  0  0  0  0  0  0  0  0  0  0  0
    0.3360    9.8490   -9.8260 C   0  0  0  0  0  0  0  0  0  0  0  0
   -0.4100   14.3270   -3.8990 C   0  0  0  0  0  0  0  0  0  0  0  0
    1.9080   13.5300   -4.2560 C   0  0  0  0  0  0  0  0  0  0  0  0
   -2.1040    7.9310   -7.6330 C   0  0  0  0  0  0  0  0  0  0  0  0
   -0.6240    8.9280   -9.4140 C   0  0  0  0  0  0  0  0  0  0  0  0
    2.4280   14.8160   -3.9900 O   0  0  0  0  0  0  0  0  0  0  0  0
    0.0930   15.7300   -3.7550 C   0  0  0  0  0  0  0  0  0  0  0  0
    1.4920   15.8610   -4.3320 C   0  0  0  0  0  0  0  0  0  0  0  0
  1  2  1  0
  2  3  2  0
  1  4  1  0
  4  5  1  0
  2  6  1  0
  5  7  1  0
  5  8  1  0
  6  9  2  0
  6 10  1  0
 11  5  1  6
  9 12  1  0
 10 13  2  0
 11 14  1  0
 11 15  1  0
 12 16  1  0
 12 17  2  0
 13 17  1  0
 15 18  1  0
 14 19  1  0
 18 20  1  0
 19 20  1  0
M  END
