x0253_0_A-x0282_0_A
     RDKit          3D

 29 31  0  0  0  0  0  0  0  0999 V2000
    0.4450   12.4860   -6.0210 N   0  0  0  0  0  0  0  0  0  0  0  0
    1.1630   11.6880   -6.8010 C   0  0  0  0  0  0  0  0  0  0  0  0
    2.3500   11.7580   -6.6960 O   0  0  0  0  0  0  0  0  0  0  0  0
    1.2380   13.0770   -4.9850 C   0  0  0  0  0  0  0  0  0  0  0  0
    0.6590   12.5280   -3.7410 C   0  0  0  0  0  0  0  0  0  0  0  0
    0.4890   10.7370   -7.7240 C   0  0  0  0  0  0  0  0  0  0  0  0
    0.3670   13.2760   -2.8120 N   0  0  0  0  0  0  0  0  0  0  0  0
    0.4540   11.1990   -3.7330 O   0  0  0  0  0  0  0  0  0  0  0  0
   -0.4750    9.8380   -7.2630 C   0  0  0  0  0  0  0  0  0  0  0  0
    0.8360   10.7470   -9.0810 C   0  0  0  0  0  0  0  0  0  0  0  0
   -0.2450   12.5570   -1.7750 C   0  0  0  0  0  0  0  0  0  0  0  0
   -1.0970    8.9510   -8.1470 C   0  0  0  0  0  0  0  0  0  0  0  0
    0.2240    9.8700   -9.9660 C   0  0  0  0  0  0  0  0  0  0  0  0
   -2.1360    7.9910   -7.6450 C   0  0  0  0  0  0  0  0  0  0  0  0
   -0.7410    8.9740   -9.5050 C   0  0  0  0  0  0  0  0  0  0  0  0
   -0.6480   13.4640   -0.6980 C   0  0  0  0  0  0  0  0  0  0  0  0
   -1.9210   13.7480   -0.5760 N   0  0  0  0  0  0  0  0  0  0  0  0
    0.2950   13.9310    0.0980 C   0  0  0  0  0  0  0  0  0  0  0  0
   -0.1070   14.7180    1.1150 C   0  0  0  0  0  0  0  0  0  0  0  0
   -2.2600   14.5280    0.4260 C   0  0  0  0  0  0  0  0  0  0  0  0
   -3.5700   14.7920    0.5130 N   0  0  0  0  0  0  0  0  0  0  0  0
   -1.3900   15.0320    1.3200 N   0  0  0  0  0  0  0  0  0  0  0  0
   -4.1270   14.1890    1.6790 C   0  0  0  0  0  0  0  0  0  0  0  0
   -4.3080   14.8350   -0.7610 C   0  0  0  0  0  0  0  0  0  0  0  0
   -5.4870   14.7840    1.8480 C   0  0  0  0  0  0  0  0  0  0  0  0
   -5.8160   15.0580   -0.5920 C   0  0  0  0  0  0  0  0  0  0  0  0
   -6.3280   14.3490    0.6690 C   0  0  0  0  0  0  0  0  0  0  0  0
   -7.8230   14.4690    0.9750 C   0  0  0  0  0  0  0  0  0  0  0  0
   -8.6010   14.6070   -0.2020 O   0  0  0  0  0  0  0  0  0  0  0  0
  1  2  1  0
  2  3  2  0
  1  4  1  0
  4  5  1  0
  2  6  1  0
  5  7  2  3
  5  8  1  0
  6  9  2  0
  6 10  1  0
  7 11  1  0
  9 12  1  0
 10 13  2  0
 12 14  1  0
 12 15  2  0
 13 15  1  0
 11 16  1  0
 16 17  2  0
 16 18  1  0
 18 19  2  0
 17 20  1  0
 20 21  1  0
 19 22  1  0
 20 22  2  0
 21 23  1  0
 21 24  1  0
 23 25  1  0
 24 26  1  0
 25 27  1  0
 26 27  1  0
 27 28  1  0
 28 29  1  0
M  END
