x0253_0_A_α-x0766_0_A_α
     RDKit          3D

 24 26  0  0  0  0  0  0  0  0999 V2000
    0.6120   11.3960   -5.3880 N   0  0  0  0  0  0  0  0  0  0  0  0
    1.2070   11.4400   -6.5960 C   0  0  0  0  0  0  0  0  0  0  0  0
    2.2130   12.0860   -6.7450 O   0  0  0  0  0  0  0  0  0  0  0  0
    1.4760   11.3490   -4.2440 C   0  0  0  0  0  0  0  0  0  0  0  0
    0.9040   12.1940   -3.1290 C   0  0  0  0  0  0  0  0  0  0  0  0
    0.5580   10.6420   -7.6660 C   0  0  0  0  0  0  0  0  0  0  0  0
    1.8730   12.6980   -2.2340 O   0  0  0  0  0  0  0  0  0  0  0  0
    0.0600   11.3270   -2.4140 O   0  0  0  0  0  0  0  0  0  0  0  0
   -0.4260    9.7390   -7.2560 C   0  0  0  0  0  0  0  0  0  0  0  0
    0.8720   10.7450   -9.0290 C   0  0  0  0  0  0  0  0  0  0  0  0
    0.1550   13.3570   -3.8070 C   0  0  2  0  0  0  0  0  0  0  0  0
   -1.0980    8.9420   -8.1840 C   0  0  0  0  0  0  0  0  0  0  0  0
    0.2060    9.9530   -9.9590 C   0  0  0  0  0  0  0  0  0  0  0  0
    0.9760   13.8930   -5.0080 C   0  0  0  0  0  0  0  0  0  0  0  0
   -0.0210   14.5850   -2.8850 C   0  0  1  0  0  0  0  0  0  0  0  0
   -2.1520    7.9800   -7.7280 C   0  0  0  0  0  0  0  0  0  0  0  0
   -0.7740    9.0550   -9.5390 C   0  0  0  0  0  0  0  0  0  0  0  0
    1.4370   15.2850   -4.6120 C   0  0  0  0  0  0  0  0  0  0  0  0
    0.2940   15.7910   -3.7690 C   0  0  0  0  0  0  0  0  0  0  0  0
   -1.3370   14.6740   -2.1550 C   0  0  0  0  0  0  0  0  0  0  0  0
   -2.5980   14.7300   -2.7290 C   0  0  0  0  0  0  0  0  0  0  0  0
   -1.4410   14.7150   -0.7210 C   0  0  0  0  0  0  0  0  0  0  0  0
   -2.7390   14.8020   -0.2800 C   0  0  0  0  0  0  0  0  0  0  0  0
   -3.8520   14.8350   -1.5710 S   0  0  0  0  0  0  0  0  0  0  0  0
  1  2  1  0
  2  3  2  0
  1  4  1  0
  4  5  1  0
  2  6  1  0
  5  7  1  0
  5  8  1  0
  6  9  2  0
  6 10  1  0
 11  5  1  1
  9 12  1  0
 10 13  2  0
 11 14  1  0
 11 15  1  0
 12 16  1  0
 12 17  2  0
 13 17  1  0
 14 18  1  0
 15 19  1  0
 18 19  1  0
 15 20  1  6
 20 21  2  0
 20 22  1  0
 22 23  2  0
 21 24  1  0
 23 24  1  0
M  END
