x0253_0_A-x0685_1_A
     RDKit          3D

 17 18  0  0  0  0  0  0  0  0999 V2000
    0.7240   12.4360   -5.3160 N   0  0  0  0  0  0  0  0  0  0  0  0
    1.1440   11.9190   -6.4640 C   0  0  0  0  0  0  0  0  0  0  0  0
    2.2650   12.2640   -6.7490 O   0  0  0  0  0  0  0  0  0  0  0  0
    0.1580   11.5990   -4.3110 C   0  0  1  0  0  0  0  0  0  0  0  0
    0.6240   11.9650   -2.8710 C   0  0  0  0  0  0  0  0  0  0  0  0
   -1.3000   11.3590   -4.5990 C   0  0  0  0  0  0  0  0  0  0  0  0
    0.3610   10.9340   -7.2770 C   0  0  0  0  0  0  0  0  0  0  0  0
    0.0300   13.0910   -2.3040 O   0  0  0  0  0  0  0  0  0  0  0  0
    0.3770   10.8380   -2.0620 O   0  0  0  0  0  0  0  0  0  0  0  0
   -1.3520   10.1860   -5.5130 N   0  0  0  0  0  0  0  0  0  0  0  0
    2.0040   12.2420   -2.8720 O   0  0  0  0  0  0  0  0  0  0  0  0
   -0.7510   10.1600   -6.8290 C   0  0  0  0  0  0  0  0  0  0  0  0
    0.8070   10.7830   -8.6220 C   0  0  0  0  0  0  0  0  0  0  0  0
   -1.3310    9.2550   -7.7980 C   0  0  0  0  0  0  0  0  0  0  0  0
    0.2280    9.9130   -9.5270 C   0  0  0  0  0  0  0  0  0  0  0  0
   -2.5030    8.3600   -7.4610 C   0  0  0  0  0  0  0  0  0  0  0  0
   -0.8370    9.1490   -9.1160 C   0  0  0  0  0  0  0  0  0  0  0  0
  1  2  1  0
  2  3  2  0
  1  4  1  0
  4  5  1  1
  4  6  1  0
  2  7  1  0
  5  8  1  0
  5  9  1  0
  6 10  1  0
  5 11  1  0
  7 12  2  0
 10 12  1  0
  7 13  1  0
 12 14  1  0
 13 15  2  0
 14 16  1  0
 14 17  2  0
 15 17  1  0
M  END
