x0253_0_A_α-x0910_1_A_α
     RDKit          3D

 24 25  0  0  0  0  0  0  0  0999 V2000
    1.1620   12.1160   -5.4760 N   0  0  0  0  0  0  0  0  0  0  0  0
    1.3410   11.6390   -6.6950 C   0  0  0  0  0  0  0  0  0  0  0  0
    2.3840   11.9650   -7.1630 O   0  0  0  0  0  0  0  0  0  0  0  0
    1.4450   12.7870   -4.1960 C   0  0  0  0  0  0  0  0  0  0  0  0
    0.5950   12.5250   -2.9800 C   0  0  0  0  0  0  0  0  0  0  0  0
    0.5130   10.7390   -7.5360 C   0  0  0  0  0  0  0  0  0  0  0  0
    0.3200   13.4120   -2.0920 N   0  0  0  0  0  0  0  0  0  0  0  0
    0.1170   11.2740   -2.8260 O   0  0  0  0  0  0  0  0  0  0  0  0
   -0.4960    9.9190   -7.0300 C   0  0  0  0  0  0  0  0  0  0  0  0
    0.7950   10.7190   -8.9130 C   0  0  0  0  0  0  0  0  0  0  0  0
   -0.4990   13.2040   -0.9070 C   0  0  0  0  0  0  0  0  0  0  0  0
   -1.2200    9.0830   -7.9030 C   0  0  0  0  0  0  0  0  0  0  0  0
    0.0840    9.8980   -9.7750 C   0  0  0  0  0  0  0  0  0  0  0  0
   -2.3010    8.1980   -7.3710 C   0  0  0  0  0  0  0  0  0  0  0  0
   -1.2670   14.4890   -0.6100 C   0  0  0  0  0  0  0  0  0  0  0  0
   -0.9220    9.0810   -9.2740 C   0  0  0  0  0  0  0  0  0  0  0  0
   -2.6010   14.3250    0.1380 C   0  0  0  0  0  0  0  0  0  0  0  0
   -3.5520   15.5140   -0.0450 C   0  0  0  0  0  0  0  0  0  0  0  0
   -4.9870   15.2080   -0.0270 C   0  0  0  0  0  0  0  0  0  0  0  0
   -5.7710   15.4490   -1.0810 N   0  0  0  0  0  0  0  0  0  0  0  0
   -5.6090   14.6610    1.0520 N   0  0  0  0  0  0  0  0  0  0  0  0
   -6.8480   14.5480    0.6590 C   0  0  0  0  0  0  0  0  0  0  0  0
   -6.9540   15.0190   -0.6180 N   0  0  0  0  0  0  0  0  0  0  0  0
   -7.8780   14.0600    1.3580 N   0  0  0  0  0  0  0  0  0  0  0  0
  1  2  1  0
  2  3  2  0
  1  4  1  0
  4  5  1  0
  2  6  1  0
  5  7  2  3
  5  8  1  0
  6  9  2  0
  6 10  1  0
  7 11  1  0
  9 12  1  0
 10 13  2  0
 12 14  1  0
 11 15  1  0
 12 16  2  0
 13 16  1  0
 15 17  1  0
 17 18  1  0
 18 19  1  0
 19 20  2  0
 19 21  1  0
 21 22  2  0
 20 23  1  0
 22 23  1  0
 22 24  1  0
M  END
