x0253_0_A-x0962_3_A
     RDKit          3D

 14 14  0  0  0  0  0  0  0  0999 V2000
    0.3350   11.9500   -5.4380 N   0  0  0  0  0  0  0  0  0  0  0  0
    1.0960   11.6750   -6.5530 C   0  0  0  0  0  0  0  0  0  0  0  0
    2.2130   12.1300   -6.6470 O   0  0  0  0  0  0  0  0  0  0  0  0
    0.9170   12.8600   -4.4640 C   0  0  0  0  0  0  0  0  0  0  0  0
    0.8380   12.2970   -3.0510 C   0  0  0  0  0  0  0  0  0  0  0  0
    0.5010   10.7700   -7.5890 C   0  0  0  0  0  0  0  0  0  0  0  0
    1.1210   12.8910   -2.0250 O   0  0  0  0  0  0  0  0  0  0  0  0
    0.4130   11.0230   -2.9920 O   0  0  0  0  0  0  0  0  0  0  0  0
   -0.4730    9.8610   -7.1650 C   0  0  0  0  0  0  0  0  0  0  0  0
    0.8700   10.7870   -8.9450 C   0  0  0  0  0  0  0  0  0  0  0  0
   -1.0790    8.9830   -8.0670 C   0  0  0  0  0  0  0  0  0  0  0  0
    0.2700    9.9130   -9.8480 C   0  0  0  0  0  0  0  0  0  0  0  0
   -2.1250    8.0190   -7.5900 C   0  0  0  0  0  0  0  0  0  0  0  0
   -0.7020    9.0120   -9.4160 C   0  0  0  0  0  0  0  0  0  0  0  0
  1  2  1  0
  2  3  2  0
  1  4  1  0
  4  5  1  0
  2  6  1  0
  5  7  2  0
  5  8  1  0
  6  9  2  0
  6 10  1  0
  9 11  1  0
 10 12  2  0
 11 13  1  0
 11 14  2  0
 12 14  1  0
M  END
