x0253_0_A-x0742_0_A
     RDKit          3D

 31 34  0  0  0  0  0  0  0  0999 V2000
    0.2240   12.0190   -5.6290 N   0  0  0  0  0  0  0  0  0  0  0  0
    0.9430   11.6560   -6.7150 C   0  0  0  0  0  0  0  0  0  0  0  0
    2.1110   11.9720   -6.7660 O   0  0  0  0  0  0  0  0  0  0  0  0
    0.7860   13.1230   -4.9040 C   0  0  0  0  0  0  0  0  0  0  0  0
    0.7640   12.8780   -3.4240 C   0  0  0  0  0  0  0  0  0  0  0  0
    0.2900   10.8270   -7.7720 C   0  0  0  0  0  0  0  0  0  0  0  0
    0.9260   13.7690   -2.5340 N   0  0  0  0  0  0  0  0  0  0  0  0
    0.5520   11.5920   -3.0240 O   0  0  0  0  0  0  0  0  0  0  0  0
   -0.8690   10.0960   -7.4840 C   0  0  0  0  0  0  0  0  0  0  0  0
    0.8320   10.7520   -9.0580 C   0  0  0  0  0  0  0  0  0  0  0  0
    0.8870   13.4610   -1.1400 C   0  0  0  0  0  0  0  0  0  0  0  0
   -1.4610    9.2850   -8.4440 C   0  0  0  0  0  0  0  0  0  0  0  0
    0.2390    9.9520  -10.0260 C   0  0  0  0  0  0  0  0  0  0  0  0
   -2.6850    8.4930   -8.0970 C   0  0  0  0  0  0  0  0  0  0  0  0
   -0.9030    9.2150   -9.7200 C   0  0  0  0  0  0  0  0  0  0  0  0
   -0.3390   13.8780   -0.4050 C   0  0  0  0  0  0  0  0  0  0  0  0
   -0.3570   14.0050    0.9890 C   0  0  0  0  0  0  0  0  0  0  0  0
   -1.5120   14.1490   -1.0800 C   0  0  0  0  0  0  0  0  0  0  0  0
   -1.4240   14.3720    1.7190 N   0  0  0  0  0  0  0  0  0  0  0  0
   -2.6240   14.5220   -0.3620 C   0  0  0  0  0  0  0  0  0  0  0  0
   -3.9540   14.8430   -0.9430 C   0  0  2  0  0  0  0  0  0  0  0  0
   -2.5370   14.6200    1.0080 C   0  0  0  0  0  0  0  0  0  0  0  0
   -5.1240   14.1040   -0.2610 C   0  0  1  0  0  0  0  0  0  0  0  0
   -4.2970   14.8090   -2.4300 C   0  0  0  0  0  0  0  0  0  0  0  0
   -3.7700   15.0310    1.7310 C   0  0  0  0  0  0  0  0  0  0  0  0
   -5.4240   12.6040   -0.5430 C   0  0  0  0  0  0  0  0  0  0  0  0
   -5.0310   14.2660    1.2820 C   0  0  0  0  0  0  0  0  0  0  0  0
   -6.2470   14.8810   -0.9450 C   0  0  0  0  0  0  0  0  0  0  0  0
   -5.8390   14.7930   -2.4210 C   0  0  0  0  0  0  0  0  0  0  0  0
   -4.9110   12.0240   -1.5140 O   0  0  0  0  0  0  0  0  0  0  0  0
   -6.3600   11.8390    0.3520 C   0  0  0  0  0  0  0  0  0  0  0  0
  1  2  1  0
  2  3  2  0
  1  4  1  0
  4  5  1  0
  2  6  1  0
  5  7  2  3
  5  8  1  0
  6  9  2  0
  6 10  1  0
  7 11  1  0
  9 12  1  0
 10 13  2  0
 12 14  1  0
 12 15  2  0
 13 15  1  0
 11 16  1  0
 16 17  2  0
 16 18  1  0
 17 19  1  0
 18 20  2  0
 20 21  1  0
 19 22  2  0
 20 22  1  0
 21 23  1  0
 21 24  1  6
 22 25  1  0
 23 26  1  1
 23 27  1  0
 25 27  1  0
 23 28  1  0
 24 29  1  0
 28 29  1  0
 26 30  2  0
 26 31  1  0
M  END
