x0253_0_A-x0805_0_A
     RDKit          3D

 28 30  0  0  0  0  0  0  0  0999 V2000
   -0.0190   10.8750   -5.2770 N   0  0  0  0  0  0  0  0  0  0  0  0
    0.6580   11.4190   -6.3840 C   0  0  0  0  0  0  0  0  0  0  0  0
    1.4680   12.3490   -6.4000 O   0  0  0  0  0  0  0  0  0  0  0  0
   -0.5640   11.5070   -4.0800 C   0  0  0  0  0  0  0  0  0  0  0  0
    0.4370   12.2270   -3.2000 C   0  0  0  0  0  0  0  0  0  0  0  0
    0.2990   10.6430   -7.5920 C   0  0  0  0  0  0  0  0  0  0  0  0
    0.0730   12.5740   -1.8620 O   0  0  0  0  0  0  0  0  0  0  0  0
    1.4620   11.3280   -3.0540 O   0  0  0  0  0  0  0  0  0  0  0  0
   -0.6830    9.6850   -7.3470 C   0  0  0  0  0  0  0  0  0  0  0  0
    0.8240   10.7670   -8.8860 C   0  0  0  0  0  0  0  0  0  0  0  0
    0.7510   13.4060   -4.0580 C   0  0  2  0  0  0  0  0  0  0  0  0
   -1.1550    8.8540   -8.3520 C   0  0  0  0  0  0  0  0  0  0  0  0
    0.3560    9.9350   -9.9040 C   0  0  0  0  0  0  0  0  0  0  0  0
    2.2180   13.8100   -3.9340 C   0  0  0  0  0  0  0  0  0  0  0  0
   -0.3690   14.5030   -4.0600 C   0  0  1  0  0  0  0  0  0  0  0  0
   -2.2090    7.8440   -8.0410 C   0  0  0  0  0  0  0  0  0  0  0  0
   -0.6310    8.9810   -9.6380 C   0  0  0  0  0  0  0  0  0  0  0  0
   -1.6920   14.3380   -3.2970 C   0  0  0  0  0  0  0  0  0  0  0  0
    2.4330   15.1510   -3.5350 O   0  0  0  0  0  0  0  0  0  0  0  0
    0.1810   15.8480   -3.6500 C   0  0  0  0  0  0  0  0  0  0  0  0
   -2.8600   13.8150   -3.8660 C   0  0  0  0  0  0  0  0  0  0  0  0
   -1.7460   14.7480   -1.9520 C   0  0  0  0  0  0  0  0  0  0  0  0
    1.5420   16.0450   -4.1910 C   0  0  0  0  0  0  0  0  0  0  0  0
   -2.9100   14.6570   -1.1970 C   0  0  0  0  0  0  0  0  0  0  0  0
   -4.0360   13.7160   -3.1120 C   0  0  0  0  0  0  0  0  0  0  0  0
   -3.0270   15.0460    0.1090 O   0  0  0  0  0  0  0  0  0  0  0  0
   -4.0620   14.1370   -1.7810 C   0  0  0  0  0  0  0  0  0  0  0  0
   -4.2730   15.5840    0.5480 C   0  0  0  0  0  0  0  0  0  0  0  0
  1  2  1  0
  2  3  2  0
  1  4  1  0
  4  5  1  0
  2  6  1  0
  5  7  1  0
  5  8  1  0
  6  9  2  0
  6 10  1  0
 11  5  1  1
  9 12  1  0
 10 13  2  0
 11 14  1  0
 11 15  1  0
 12 16  1  0
 12 17  2  0
 13 17  1  0
 15 18  1  1
 14 19  1  0
 15 20  1  0
 18 21  2  0
 18 22  1  0
 19 23  1  0
 20 23  1  0
 22 24  2  0
 21 25  1  0
 24 26  1  0
 24 27  1  0
 25 27  2  0
 26 28  1  0
M  END
