x0253_0_A_α-x0592_0_A_α
     RDKit          3D

 28 29  0  0  0  0  0  0  0  0999 V2000
    0.4360   11.9550   -5.4830 N   0  0  0  0  0  0  0  0  0  0  0  0
    1.0060   11.7010   -6.6880 C   0  0  0  0  0  0  0  0  0  0  0  0
    2.1320   12.1240   -6.8180 O   0  0  0  0  0  0  0  0  0  0  0  0
    1.4370   12.2610   -4.4820 C   0  0  0  0  0  0  0  0  0  0  0  0
    0.8170   12.3710   -3.1230 C   0  0  0  0  0  0  0  0  0  0  0  0
    0.3100   10.8710   -7.7230 C   0  0  0  0  0  0  0  0  0  0  0  0
    0.8450   13.4040   -2.3940 N   0  0  0  0  0  0  0  0  0  0  0  0
    0.1810   11.2560   -2.6870 O   0  0  0  0  0  0  0  0  0  0  0  0
   -0.8570   10.1530   -7.4240 C   0  0  0  0  0  0  0  0  0  0  0  0
    0.8350   10.7810   -9.0180 C   0  0  0  0  0  0  0  0  0  0  0  0
    0.1860   13.3950   -1.1270 C   0  0  0  0  0  0  0  0  0  0  0  0
   -1.4710    9.3450   -8.3800 C   0  0  0  0  0  0  0  0  0  0  0  0
    0.2250    9.9870   -9.9810 C   0  0  0  0  0  0  0  0  0  0  0  0
   -2.6990    8.5750   -8.0010 C   0  0  0  0  0  0  0  0  0  0  0  0
    0.1340   14.8050   -0.6200 C   0  0  0  0  0  0  0  0  0  0  0  0
   -0.9230    9.2650   -9.6660 C   0  0  0  0  0  0  0  0  0  0  0  0
   -1.0140   14.8610    0.3450 C   0  0  0  0  0  0  0  0  0  0  0  0
   -2.2820   14.8430   -0.3900 N   0  0  0  0  0  0  0  0  0  0  0  0
   -3.3150   14.8600    0.3360 C   0  0  0  0  0  0  0  0  0  0  0  0
   -3.1090   14.8740    1.6850 N   0  0  0  0  0  0  0  0  0  0  0  0
   -4.7140   14.8690   -0.0240 C   0  0  0  0  0  0  0  0  0  0  0  0
   -5.4080   15.1350   -1.2340 C   0  0  0  0  0  0  0  0  0  0  0  0
   -5.7190   14.5920    0.8640 C   0  0  0  0  0  0  0  0  0  0  0  0
   -6.7440   15.0300   -1.1040 N   0  0  0  0  0  0  0  0  0  0  0  0
   -6.8900   14.6970    0.1990 N   0  0  0  0  0  0  0  0  0  0  0  0
   -8.1890   14.4830    0.8040 C   0  0  0  0  0  0  0  0  0  0  0  0
   -8.0280   14.0680    2.2620 C   0  0  0  0  0  0  0  0  0  0  0  0
   -7.2330   15.0090    2.9840 O   0  0  0  0  0  0  0  0  0  0  0  0
  1  2  1  0
  2  3  2  0
  1  4  1  0
  4  5  1  0
  2  6  1  0
  5  7  2  3
  5  8  1  0
  6  9  2  0
  6 10  1  0
  7 11  1  0
  9 12  1  0
 10 13  2  0
 12 14  1  0
 11 15  1  0
 12 16  2  0
 13 16  1  0
 15 17  1  0
 17 18  1  0
 18 19  2  3
 19 20  1  0
 19 21  1  0
 21 22  1  0
 21 23  2  0
 22 24  2  0
 23 25  1  0
 24 25  1  0
 25 26  1  0
 26 27  1  0
 27 28  1  0
M  END
