x0253_0_A-x0471_0_A
     RDKit          3D

 33 35  0  0  0  0  0  0  0  0999 V2000
    0.4630   11.9350   -5.3410 N   0  0  0  0  0  0  0  0  0  0  0  0
    1.0960   11.6820   -6.5270 C   0  0  0  0  0  0  0  0  0  0  0  0
    2.1740   12.1780   -6.7440 O   0  0  0  0  0  0  0  0  0  0  0  0
    1.2840   12.5620   -4.3140 C   0  0  0  0  0  0  0  0  0  0  0  0
    0.6630   12.4090   -2.9410 C   0  0  0  0  0  0  0  0  0  0  0  0
    0.4520   10.7560   -7.5160 C   0  0  0  0  0  0  0  0  0  0  0  0
    0.6410   13.4090   -2.1530 N   0  0  0  0  0  0  0  0  0  0  0  0
    0.1580   11.1790   -2.6850 O   0  0  0  0  0  0  0  0  0  0  0  0
   -0.5340    9.8450   -7.1170 C   0  0  0  0  0  0  0  0  0  0  0  0
    0.8380   10.7880   -8.8640 C   0  0  0  0  0  0  0  0  0  0  0  0
    0.0450   13.4600   -0.8310 C   0  0  0  0  0  0  0  0  0  0  0  0
   -1.1230    8.9840   -8.0540 C   0  0  0  0  0  0  0  0  0  0  0  0
    0.2580    9.9360   -9.7970 C   0  0  0  0  0  0  0  0  0  0  0  0
   -2.1790    8.0130   -7.6200 C   0  0  0  0  0  0  0  0  0  0  0  0
   -0.6090   14.8220   -0.6890 C   0  0  0  0  0  0  0  0  0  0  0  0
   -0.7230    9.0350   -9.3930 C   0  0  0  0  0  0  0  0  0  0  0  0
   -1.5640   14.9030    0.4980 C   0  0  0  0  0  0  0  0  0  0  0  0
   -3.0300   14.9620    0.0880 C   0  0  0  0  0  0  0  0  0  0  0  0
   -3.4730   15.2500   -1.2240 C   0  0  0  0  0  0  0  0  0  0  0  0
   -3.9720   14.7080    1.0760 C   0  0  0  0  0  0  0  0  0  0  0  0
   -5.3370   14.7310    0.7640 C   0  0  0  0  0  0  0  0  0  0  0  0
   -4.8410   15.2820   -1.5590 C   0  0  0  0  0  0  0  0  0  0  0  0
   -6.4140   14.5030    1.5770 N   0  0  0  0  0  0  0  0  0  0  0  0
   -5.7430   15.0110   -0.5300 C   0  0  0  0  0  0  0  0  0  0  0  0
   -7.1180   14.9430   -0.4720 N   0  0  0  0  0  0  0  0  0  0  0  0
   -7.4750   14.6320    0.8240 C   0  0  0  0  0  0  0  0  0  0  0  0
   -8.8880   14.4770    1.2640 C   0  0  0  0  0  0  0  0  0  0  0  0
   -8.8960   14.0690    2.6580 N   0  0  0  0  0  0  0  0  0  0  0  0
   -8.9830   14.9990    3.6770 C   0  0  0  0  0  0  0  0  0  0  0  0
   -9.2870   16.1720    3.4690 O   0  0  0  0  0  0  0  0  0  0  0  0
   -8.6830   14.4330    5.0650 C   0  0  0  0  0  0  0  0  0  0  0  0
   -9.8940   13.6670    5.6040 C   0  0  0  0  0  0  0  0  0  0  0  0
   -8.2780   15.5430    6.0340 C   0  0  0  0  0  0  0  0  0  0  0  0
  1  2  1  0
  2  3  2  0
  1  4  1  0
  4  5  1  0
  2  6  1  0
  5  7  2  3
  5  8  1  0
  6  9  2  0
  6 10  1  0
  7 11  1  0
  9 12  1  0
 10 13  2  0
 12 14  1  0
 11 15  1  0
 12 16  2  0
 13 16  1  0
 15 17  1  0
 17 18  1  0
 18 19  2  0
 18 20  1  0
 20 21  2  0
 19 22  1  0
 21 23  1  0
 21 24  1  0
 22 24  2  0
 24 25  1  0
 23 26  2  0
 25 26  1  0
 26 27  1  0
 27 28  1  0
 28 29  1  0
 29 30  2  0
 29 31  1  0
 31 32  1  0
 31 33  1  0
M  END
