x0253_0_A_α-x1012_0_A_α
     RDKit          3D

 23 24  0  0  0  0  0  0  0  0999 V2000
    0.7260   11.6920   -5.2510 N   0  0  0  0  0  0  0  0  0  0  0  0
    1.1660   11.6070   -6.5350 C   0  0  0  0  0  0  0  0  0  0  0  0
    2.1410   12.2510   -6.7990 O   0  0  0  0  0  0  0  0  0  0  0  0
    1.4820   12.3960   -4.2150 C   0  0  0  0  0  0  0  0  0  0  0  0
    0.5980   12.6380   -3.0120 C   0  0  0  0  0  0  0  0  0  0  0  0
    0.5020   10.7230   -7.5300 C   0  0  0  0  0  0  0  0  0  0  0  0
    1.3710   12.9290   -1.8630 O   0  0  0  0  0  0  0  0  0  0  0  0
   -0.2020   11.4930   -2.7640 O   0  0  0  0  0  0  0  0  0  0  0  0
   -0.4800    9.8210   -7.1130 C   0  0  0  0  0  0  0  0  0  0  0  0
    0.8570   10.7830   -8.8830 C   0  0  0  0  0  0  0  0  0  0  0  0
   -0.0850   13.8640   -3.5840 C   0  0  0  0  0  0  0  0  0  0  0  0
   -1.1090    8.9830   -8.0450 C   0  0  0  0  0  0  0  0  0  0  0  0
    0.2360    9.9540   -9.8090 C   0  0  0  0  0  0  0  0  0  0  0  0
   -1.5150   14.2540   -3.2600 C   0  0  0  0  0  0  0  0  0  0  0  0
    0.8140   15.0850   -3.5460 C   0  0  0  0  0  0  0  0  0  0  0  0
   -2.1630    8.0170   -7.5960 C   0  0  0  0  0  0  0  0  0  0  0  0
   -0.7430    9.0580   -9.3930 C   0  0  0  0  0  0  0  0  0  0  0  0
   -1.9520   15.1320   -4.4440 C   0  0  0  0  0  0  0  0  0  0  0  0
    0.4930   15.7990   -4.8320 C   0  0  0  0  0  0  0  0  0  0  0  0
   -0.9290   16.1450   -4.8300 N   0  0  0  0  0  0  0  0  0  0  0  0
   -1.3150   17.4440   -4.8440 C   0  0  0  0  0  0  0  0  0  0  0  0
   -0.3240   18.3510   -4.7790 N   0  0  0  0  0  0  0  0  0  0  0  0
   -2.4540   17.8240   -4.8980 O   0  0  0  0  0  0  0  0  0  0  0  0
  1  2  1  0
  2  3  2  0
  1  4  1  0
  4  5  1  0
  2  6  1  0
  5  7  1  0
  5  8  1  0
  6  9  2  0
  6 10  1  0
  5 11  1  0
  9 12  1  0
 10 13  2  0
 11 14  1  0
 11 15  1  0
 12 16  1  0
 12 17  2  0
 13 17  1  0
 14 18  1  0
 15 19  1  0
 18 20  1  0
 19 20  1  0
 20 21  1  0
 21 22  1  0
 21 23  2  0
M  END
