x0253_0_A-x0926_0_A
     RDKit          3D

 24 25  0  0  0  0  0  0  0  0999 V2000
    0.2900   11.9190   -5.5670 N   0  0  0  0  0  0  0  0  0  0  0  0
    1.0660   11.5980   -6.6300 C   0  0  0  0  0  0  0  0  0  0  0  0
    2.1960   12.0330   -6.6950 O   0  0  0  0  0  0  0  0  0  0  0  0
    0.7240   13.0520   -4.8060 C   0  0  0  0  0  0  0  0  0  0  0  0
    0.6640   12.8080   -3.3270 C   0  0  0  0  0  0  0  0  0  0  0  0
    0.4660   10.6870   -7.6380 C   0  0  0  0  0  0  0  0  0  0  0  0
    0.6640   13.7030   -2.4220 N   0  0  0  0  0  0  0  0  0  0  0  0
    0.6070   11.5140   -2.9270 O   0  0  0  0  0  0  0  0  0  0  0  0
   -0.5030    9.7620   -7.2450 C   0  0  0  0  0  0  0  0  0  0  0  0
    0.8560   10.7420   -8.9840 C   0  0  0  0  0  0  0  0  0  0  0  0
    0.6280   13.2120   -1.0820 C   0  0  0  0  0  0  0  0  0  0  0  0
   -1.0870    8.8990   -8.1780 C   0  0  0  0  0  0  0  0  0  0  0  0
    0.2820    9.8850   -9.9180 C   0  0  0  0  0  0  0  0  0  0  0  0
   -2.1280    7.9200   -7.7280 C   0  0  0  0  0  0  0  0  0  0  0  0
   -0.7230   13.3480   -0.4010 C   0  0  0  0  0  0  0  0  0  0  0  0
   -0.6870    8.9670   -9.5170 C   0  0  0  0  0  0  0  0  0  0  0  0
   -1.3310   14.7290   -0.4870 C   0  0  0  0  0  0  0  0  0  0  0  0
   -2.8650   14.6780   -0.4400 C   0  0  2  0  0  0  0  0  0  0  0  0
   -3.4540   15.4210   -1.5590 N   0  0  0  0  0  0  0  0  0  0  0  0
   -3.4680   15.0850    0.8650 C   0  0  0  0  0  0  0  0  0  0  0  0
   -4.7670   15.3460    0.9240 C   0  0  0  0  0  0  0  0  0  0  0  0
   -4.8650   15.4490   -1.5040 N   0  0  0  0  0  0  0  0  0  0  0  0
   -5.5600   15.2320   -0.3310 C   0  0  0  0  0  0  0  0  0  0  0  0
   -6.7550   14.9610   -0.3170 O   0  0  0  0  0  0  0  0  0  0  0  0
  1  2  1  0
  2  3  2  0
  1  4  1  0
  4  5  1  0
  2  6  1  0
  5  7  2  3
  5  8  1  0
  6  9  2  0
  6 10  1  0
  7 11  1  0
  9 12  1  0
 10 13  2  0
 12 14  1  0
 11 15  1  0
 12 16  2  0
 13 16  1  0
 15 17  1  0
 18 17  1  1
 18 19  1  0
 18 20  1  0
 20 21  2  0
 19 22  1  0
 21 23  1  0
 22 23  1  0
 23 24  2  0
M  END
