x0253_0_A-x0631_0_A
     RDKit          3D

 24 25  0  0  0  0  0  0  0  0999 V2000
    0.4070   11.9800   -5.7170 N   0  0  0  0  0  0  0  0  0  0  0  0
    1.1740   11.6410   -6.8150 C   0  0  0  0  0  0  0  0  0  0  0  0
    2.2880   12.0940   -6.7730 O   0  0  0  0  0  0  0  0  0  0  0  0
    0.8850   12.9090   -4.6830 C   0  0  0  0  0  0  0  0  0  0  0  0
    0.8110   12.3120   -3.2800 C   0  0  0  0  0  0  0  0  0  0  0  0
    0.6030   10.7170   -7.8800 C   0  0  0  0  0  0  0  0  0  0  0  0
    1.0520   12.8990   -2.2350 O   0  0  0  0  0  0  0  0  0  0  0  0
    0.4550   11.0170   -3.2570 O   0  0  0  0  0  0  0  0  0  0  0  0
   -0.3520    9.9060   -7.2880 C   0  0  0  0  0  0  0  0  0  0  0  0
    0.8510   10.5220   -9.3220 C   0  0  0  0  0  0  0  0  0  0  0  0
    1.7220   11.1200  -10.2490 N   0  0  0  0  0  0  0  0  0  0  0  0
   -1.0600    8.9510   -7.9820 C   0  0  0  0  0  0  0  0  0  0  0  0
    0.0920    9.5400   -9.9640 C   0  0  0  0  0  0  0  0  0  0  0  0
   -2.0400    8.1400   -7.2380 C   0  0  0  0  0  0  0  0  0  0  0  0
    1.8550   10.3770  -11.5310 C   0  0  2  0  0  0  0  0  0  0  0  0
   -0.8440    8.7670   -9.3230 C   0  0  0  0  0  0  0  0  0  0  0  0
   -3.3010    8.9460   -6.9650 C   0  0  0  0  0  0  0  0  0  0  0  0
   -1.3160    7.7340   -5.9610 C   0  0  0  0  0  0  0  0  0  0  0  0
    2.4120    9.1230  -11.1440 O   0  0  0  0  0  0  0  0  0  0  0  0
    2.7240   10.9690  -12.6770 C   0  0  1  0  0  0  0  0  0  0  0  0
    3.8480   10.1110  -13.0040 O   0  0  0  0  0  0  0  0  0  0  0  0
    2.1040   11.3180  -14.0010 C   0  0  0  0  0  0  0  0  0  0  0  0
    3.3620   11.5340  -14.8070 C   0  0  0  0  0  0  0  0  0  0  0  0
    4.2150   10.3700  -14.3660 C   0  0  0  0  0  0  0  0  0  0  0  0
  1  2  1  0
  2  3  2  0
  1  4  1  0
  4  5  1  0
  2  6  1  0
  5  7  2  0
  5  8  1  0
  6  9  2  0
  6 10  1  0
 10 11  1  0
  9 12  1  0
 10 13  2  0
 12 14  1  0
 11 15  1  0
 12 16  2  0
 13 16  1  0
 14 17  1  0
 14 18  1  0
 15 19  1  1
 15 20  1  0
 20 21  1  0
 20 22  1  6
 22 23  1  0
 21 24  1  0
 23 24  1  0
M  END
