x0253_0_A_α-x0844_0_A_α
     RDKit          3D

 25 26  0  0  0  0  0  0  0  0999 V2000
    0.3040   11.9360   -5.3200 N   0  0  0  0  0  0  0  0  0  0  0  0
    1.0660   11.7120   -6.4560 C   0  0  0  0  0  0  0  0  0  0  0  0
    2.1710   12.2130   -6.5730 O   0  0  0  0  0  0  0  0  0  0  0  0
    0.9190   12.4080   -4.0750 C   0  0  0  0  0  0  0  0  0  0  0  0
    0.2490   11.8330   -2.7800 C   0  0  0  0  0  0  0  0  0  0  0  0
    0.4930   10.8000   -7.5070 C   0  0  0  0  0  0  0  0  0  0  0  0
    0.8390   12.4110   -1.6170 O   0  0  0  0  0  0  0  0  0  0  0  0
    0.4570   10.4360   -2.6310 O   0  0  0  0  0  0  0  0  0  0  0  0
   -1.2600   12.1080   -2.6920 C   0  0  0  0  0  0  0  0  0  0  0  0
   -0.4870    9.8840   -7.0990 C   0  0  0  0  0  0  0  0  0  0  0  0
    0.8780   10.8080   -8.8600 C   0  0  0  0  0  0  0  0  0  0  0  0
   -1.6820   13.4280   -2.0290 C   0  0  0  0  0  0  0  0  0  0  0  0
   -1.0730    8.9990   -8.0160 C   0  0  0  0  0  0  0  0  0  0  0  0
    0.3020    9.9320   -9.7710 C   0  0  0  0  0  0  0  0  0  0  0  0
   -2.1210    8.0300   -7.5660 C   0  0  0  0  0  0  0  0  0  0  0  0
   -2.5100   14.3450   -2.9300 C   0  0  0  0  0  0  0  0  0  0  0  0
   -0.6700    9.0310   -9.3550 C   0  0  0  0  0  0  0  0  0  0  0  0
   -3.2280   15.2990   -2.1450 O   0  0  0  0  0  0  0  0  0  0  0  0
   -4.0840   14.7240   -1.1460 C   0  0  1  0  0  0  0  0  0  0  0  0
   -3.5570   15.1090    0.1950 C   0  0  0  0  0  0  0  0  0  0  0  0
   -5.5410   15.1410   -1.3210 C   0  0  0  0  0  0  0  0  0  0  0  0
   -4.3670   15.1480    1.2530 C   0  0  0  0  0  0  0  0  0  0  0  0
   -6.3680   14.8880   -0.0820 C   0  0  0  0  0  0  0  0  0  0  0  0
   -7.5910   14.7470   -0.1190 O   0  0  0  0  0  0  0  0  0  0  0  0
   -5.6850   14.8310    1.1060 N   0  0  0  0  0  0  0  0  0  0  0  0
  1  2  1  0
  2  3  2  0
  1  4  1  0
  4  5  1  0
  2  6  1  0
  5  7  1  0
  5  8  1  0
  5  9  1  0
  6 10  2  0
  6 11  1  0
  9 12  1  0
 10 13  1  0
 11 14  2  0
 13 15  1  0
 12 16  1  0
 13 17  2  0
 14 17  1  0
 16 18  1  0
 19 18  1  6
 19 20  1  0
 19 21  1  0
 20 22  2  0
 21 23  1  0
 23 24  2  0
 22 25  1  0
 23 25  1  0
M  END
