x0253_0_A-x0849_0_A
     RDKit          3D

 26 28  0  0  0  0  0  0  0  0999 V2000
    0.3270   11.9140   -5.5360 N   0  0  0  0  0  0  0  0  0  0  0  0
    1.0930   11.6130   -6.6160 C   0  0  0  0  0  0  0  0  0  0  0  0
    2.2230   12.0610   -6.6540 O   0  0  0  0  0  0  0  0  0  0  0  0
    0.7290   13.0820   -4.7950 C   0  0  0  0  0  0  0  0  0  0  0  0
    0.7540   12.8270   -3.3100 C   0  0  0  0  0  0  0  0  0  0  0  0
    0.5090   10.7290   -7.6590 C   0  0  0  0  0  0  0  0  0  0  0  0
    0.9500   13.8290   -2.5350 N   0  0  0  0  0  0  0  0  0  0  0  0
    0.5570   11.5440   -2.9020 O   0  0  0  0  0  0  0  0  0  0  0  0
   -0.4630    9.8170   -7.2320 C   0  0  0  0  0  0  0  0  0  0  0  0
    0.8720   10.7620   -9.0130 C   0  0  0  0  0  0  0  0  0  0  0  0
    0.9640   13.5440   -1.1270 C   0  0  0  0  0  0  0  0  0  0  0  0
   -1.0720    8.9450   -8.1400 C   0  0  0  0  0  0  0  0  0  0  0  0
    0.2710    9.8980   -9.9190 C   0  0  0  0  0  0  0  0  0  0  0  0
   -2.1130    7.9750   -7.6640 C   0  0  0  0  0  0  0  0  0  0  0  0
   -0.6980    8.9910   -9.4880 C   0  0  0  0  0  0  0  0  0  0  0  0
   -0.2120   14.0140   -0.3420 C   0  0  0  0  0  0  0  0  0  0  0  0
   -0.2570   14.0740    1.0490 C   0  0  0  0  0  0  0  0  0  0  0  0
   -1.3420   14.4000   -1.0010 C   0  0  0  0  0  0  0  0  0  0  0  0
   -2.4600   14.8070   -0.2880 C   0  0  0  0  0  0  0  0  0  0  0  0
   -1.3100   14.4720    1.7620 N   0  0  0  0  0  0  0  0  0  0  0  0
   -2.3910   14.8240    1.1070 C   0  0  0  0  0  0  0  0  0  0  0  0
   -3.6580   15.1980   -0.8860 C   0  0  0  0  0  0  0  0  0  0  0  0
   -3.8400   15.1990   -2.7800 Br  0  0  0  0  0  0  0  0  0  0  0  0
   -3.4120   15.1870    1.8340 N   0  0  0  0  0  0  0  0  0  0  0  0
   -4.7330   15.5820   -0.1160 C   0  0  0  0  0  0  0  0  0  0  0  0
   -4.5480   15.5510    1.2470 C   0  0  0  0  0  0  0  0  0  0  0  0
  1  2  1  0
  2  3  2  0
  1  4  1  0
  4  5  1  0
  2  6  1  0
  5  7  2  3
  5  8  1  0
  6  9  2  0
  6 10  1  0
  7 11  1  0
  9 12  1  0
 10 13  2  0
 12 14  1  0
 12 15  2  0
 13 15  1  0
 11 16  1  0
 16 17  2  0
 16 18  1  0
 18 19  2  0
 17 20  1  0
 19 21  1  0
 20 21  2  0
 19 22  1  0
 22 23  1  0
 21 24  1  0
 22 25  2  0
 24 26  2  0
 25 26  1  0
M  END
