x0253_0_A_α-x0159_0_B_α
     RDKit          3D

 22 23  0  0  0  0  0  0  0  0999 V2000
    0.2100   12.2290   -5.3890 N   0  0  0  0  0  0  0  0  0  0  0  0
    0.8330   11.7250   -6.4870 C   0  0  0  0  0  0  0  0  0  0  0  0
    1.9280   12.1580   -6.7950 O   0  0  0  0  0  0  0  0  0  0  0  0
    0.9100   12.9670   -4.3500 C   0  0  0  0  0  0  0  0  0  0  0  0
    0.8420   12.3470   -2.9620 C   0  0  0  0  0  0  0  0  0  0  0  0
    0.2270   10.6200   -7.2590 C   0  0  0  0  0  0  0  0  0  0  0  0
    1.0990   12.8830   -1.9020 O   0  0  0  0  0  0  0  0  0  0  0  0
    0.4530   11.0550   -2.9820 O   0  0  0  0  0  0  0  0  0  0  0  0
   -1.0900   10.2280   -7.1050 C   0  0  0  0  0  0  0  0  0  0  0  0
    1.0320    9.9640   -8.1410 C   0  0  0  0  0  0  0  0  0  0  0  0
   -1.5740    9.1520   -7.8650 C   0  0  0  0  0  0  0  0  0  0  0  0
    0.5920    8.8950   -8.8920 C   0  0  0  0  0  0  0  0  0  0  0  0
   -2.9820    8.6820   -7.7330 C   0  0  0  0  0  0  0  0  0  0  0  0
    1.5180    8.1580   -9.8190 C   0  0  0  0  0  0  0  0  0  0  0  0
   -0.7250    8.4950   -8.7560 C   0  0  0  0  0  0  0  0  0  0  0  0
    1.0550    6.7010  -10.0070 C   0  0  0  0  0  0  0  0  0  0  0  0
    1.4050    5.7090   -8.9120 C   0  0  0  0  0  0  0  0  0  0  0  0
    0.8210    5.7480   -7.6290 C   0  0  0  0  0  0  0  0  0  0  0  0
    2.3440    4.7090   -9.1890 C   0  0  0  0  0  0  0  0  0  0  0  0
    1.1830    4.8000   -6.6710 C   0  0  0  0  0  0  0  0  0  0  0  0
    2.6970    3.7720   -8.2320 C   0  0  0  0  0  0  0  0  0  0  0  0
    2.1210    3.8190   -6.9810 C   0  0  0  0  0  0  0  0  0  0  0  0
  1  2  1  0
  2  3  2  0
  1  4  1  0
  4  5  1  0
  2  6  1  0
  5  7  2  0
  5  8  1  0
  6  9  2  0
  6 10  1  0
  9 11  1  0
 10 12  2  0
 11 13  1  0
 12 14  1  0
 11 15  2  0
 12 15  1  0
 14 16  1  0
 16 17  1  0
 17 18  2  0
 17 19  1  0
 18 20  1  0
 19 21  2  0
 20 22  2  0
 21 22  1  0
M  END
