x0253_0_A-x0969_0_A
     RDKit          3D

 27 29  0  0  0  0  0  0  0  0999 V2000
    0.3600   12.0010   -5.4000 N   0  0  0  0  0  0  0  0  0  0  0  0
    1.0790   11.6830   -6.5230 C   0  0  0  0  0  0  0  0  0  0  0  0
    2.1980   12.1420   -6.6400 O   0  0  0  0  0  0  0  0  0  0  0  0
    1.0350   12.7460   -4.3430 C   0  0  0  0  0  0  0  0  0  0  0  0
    0.6220   12.3020   -2.9390 C   0  0  0  0  0  0  0  0  0  0  0  0
    0.4640   10.7530   -7.5200 C   0  0  0  0  0  0  0  0  0  0  0  0
    0.4190   13.1350   -1.9770 N   0  0  0  0  0  0  0  0  0  0  0  0
    0.4690   10.9710   -2.7660 O   0  0  0  0  0  0  0  0  0  0  0  0
   -0.5110    9.8390   -7.1230 C   0  0  0  0  0  0  0  0  0  0  0  0
    0.8600   10.7880   -8.8690 C   0  0  0  0  0  0  0  0  0  0  0  0
    0.5700   14.5830   -2.1680 C   0  0  0  0  0  0  0  0  0  0  0  0
   -1.0900    8.9700   -8.0570 C   0  0  0  0  0  0  0  0  0  0  0  0
    0.2910    9.9260   -9.8010 C   0  0  0  0  0  0  0  0  0  0  0  0
   -2.1400    7.9870   -7.6340 C   0  0  0  0  0  0  0  0  0  0  0  0
   -0.5140   15.3270   -1.3510 C   0  0  0  0  0  0  0  0  0  0  0  0
   -0.6820    9.0200   -9.3970 C   0  0  0  0  0  0  0  0  0  0  0  0
   -1.9060   15.4540   -2.0210 C   0  0  0  0  0  0  0  0  0  0  0  0
   -3.1700   15.2930   -1.1880 C   0  0  0  0  0  0  0  0  0  0  0  0
   -4.4150   15.0760   -1.6810 C   0  0  0  0  0  0  0  0  0  0  0  0
   -2.9760   15.3810    0.2690 C   0  0  0  0  0  0  0  0  0  0  0  0
   -5.5230   14.9080   -0.8070 C   0  0  0  0  0  0  0  0  0  0  0  0
   -4.0230   15.2260    1.0920 C   0  0  0  0  0  0  0  0  0  0  0  0
   -6.8020   14.6740   -1.0180 N   0  0  0  0  0  0  0  0  0  0  0  0
   -5.2840   14.9830    0.5540 N   0  0  0  0  0  0  0  0  0  0  0  0
   -6.5230   14.7700    1.1390 C   0  0  0  0  0  0  0  0  0  0  0  0
   -7.4250   14.5880    0.2030 N   0  0  0  0  0  0  0  0  0  0  0  0
   -6.7390   14.7640    2.4720 N   0  0  0  0  0  0  0  0  0  0  0  0
  1  2  1  0
  2  3  2  0
  1  4  1  0
  4  5  1  0
  2  6  1  0
  5  7  2  3
  5  8  1  0
  6  9  2  0
  6 10  1  0
  7 11  1  0
  9 12  1  0
 10 13  2  0
 12 14  1  0
 11 15  1  0
 12 16  2  0
 13 16  1  0
 15 17  1  0
 17 18  1  0
 18 19  2  0
 18 20  1  0
 19 21  1  0
 20 22  2  0
 21 23  2  0
 21 24  1  0
 22 24  1  0
 24 25  1  0
 23 26  1  0
 25 26  2  0
 25 27  1  0
M  END
