x0253_0_A_α-x0926_0_A_α
     RDKit          3D

 24 25  0  0  0  0  0  0  0  0999 V2000
    0.2850   11.9230   -5.5660 N   0  0  0  0  0  0  0  0  0  0  0  0
    1.0630   11.6020   -6.6280 C   0  0  0  0  0  0  0  0  0  0  0  0
    2.1920   12.0350   -6.6900 O   0  0  0  0  0  0  0  0  0  0  0  0
    0.7240   13.0530   -4.8040 C   0  0  0  0  0  0  0  0  0  0  0  0
    0.6640   12.8060   -3.3250 C   0  0  0  0  0  0  0  0  0  0  0  0
    0.4640   10.6910   -7.6400 C   0  0  0  0  0  0  0  0  0  0  0  0
    0.6630   13.6990   -2.4200 N   0  0  0  0  0  0  0  0  0  0  0  0
    0.6060   11.5110   -2.9290 O   0  0  0  0  0  0  0  0  0  0  0  0
   -0.5050    9.7680   -7.2450 C   0  0  0  0  0  0  0  0  0  0  0  0
    0.8570   10.7440   -8.9850 C   0  0  0  0  0  0  0  0  0  0  0  0
    0.6260   13.2090   -1.0800 C   0  0  0  0  0  0  0  0  0  0  0  0
   -1.0860    8.9030   -8.1760 C   0  0  0  0  0  0  0  0  0  0  0  0
    0.2830    9.8830   -9.9170 C   0  0  0  0  0  0  0  0  0  0  0  0
   -2.1280    7.9230   -7.7280 C   0  0  0  0  0  0  0  0  0  0  0  0
   -0.7260   13.3450   -0.4040 C   0  0  0  0  0  0  0  0  0  0  0  0
   -0.6850    8.9670   -9.5150 C   0  0  0  0  0  0  0  0  0  0  0  0
   -1.3320   14.7300   -0.4900 C   0  0  0  0  0  0  0  0  0  0  0  0
   -2.8640   14.6820   -0.4440 C   0  0  2  0  0  0  0  0  0  0  0  0
   -3.4560   15.4240   -1.5630 N   0  0  0  0  0  0  0  0  0  0  0  0
   -3.4660   15.0890    0.8630 C   0  0  0  0  0  0  0  0  0  0  0  0
   -4.7660   15.3490    0.9230 C   0  0  0  0  0  0  0  0  0  0  0  0
   -4.8670   15.4490   -1.5060 N   0  0  0  0  0  0  0  0  0  0  0  0
   -5.5590   15.2360   -0.3290 C   0  0  0  0  0  0  0  0  0  0  0  0
   -6.7550   14.9670   -0.3130 O   0  0  0  0  0  0  0  0  0  0  0  0
  1  2  1  0
  2  3  2  0
  1  4  1  0
  4  5  1  0
  2  6  1  0
  5  7  2  3
  5  8  1  0
  6  9  2  0
  6 10  1  0
  7 11  1  0
  9 12  1  0
 10 13  2  0
 12 14  1  0
 11 15  1  0
 12 16  2  0
 13 16  1  0
 15 17  1  0
 18 17  1  1
 18 19  1  0
 18 20  1  0
 20 21  2  0
 19 22  1  0
 21 23  1  0
 22 23  1  0
 23 24  2  0
M  END
