x0253_0_A_α-x0967_0_A_α
     RDKit          3D

 27 29  0  0  0  0  0  0  0  0999 V2000
    0.4880   11.9290   -5.3540 N   0  0  0  0  0  0  0  0  0  0  0  0
    1.0900   11.6770   -6.5540 C   0  0  0  0  0  0  0  0  0  0  0  0
    2.1610   12.1800   -6.7780 O   0  0  0  0  0  0  0  0  0  0  0  0
    1.3650   12.5510   -4.3640 C   0  0  0  0  0  0  0  0  0  0  0  0
    0.7330   12.4990   -2.9900 C   0  0  0  0  0  0  0  0  0  0  0  0
    0.4360   10.7500   -7.5300 C   0  0  0  0  0  0  0  0  0  0  0  0
    0.7110   13.4710   -2.1680 N   0  0  0  0  0  0  0  0  0  0  0  0
    0.1560   11.3130   -2.6670 O   0  0  0  0  0  0  0  0  0  0  0  0
   -0.5500    9.8440   -7.1290 C   0  0  0  0  0  0  0  0  0  0  0  0
    0.8200   10.7830   -8.8800 C   0  0  0  0  0  0  0  0  0  0  0  0
    0.0670   13.4420   -0.8660 C   0  0  0  0  0  0  0  0  0  0  0  0
   -1.1460    8.9820   -8.0620 C   0  0  0  0  0  0  0  0  0  0  0  0
    0.2340    9.9300   -9.8090 C   0  0  0  0  0  0  0  0  0  0  0  0
   -2.2000    8.0140   -7.6210 C   0  0  0  0  0  0  0  0  0  0  0  0
   -0.5700   14.8080   -0.6710 C   0  0  0  0  0  0  0  0  0  0  0  0
   -0.7460    9.0320   -9.4020 C   0  0  0  0  0  0  0  0  0  0  0  0
   -1.5570   14.8680    0.4910 C   0  0  0  0  0  0  0  0  0  0  0  0
   -3.0130   14.8530    0.0900 C   0  0  0  0  0  0  0  0  0  0  0  0
   -3.4740   14.8570   -1.2270 C   0  0  0  0  0  0  0  0  0  0  0  0
   -3.9770   14.8230    1.0760 C   0  0  0  0  0  0  0  0  0  0  0  0
   -5.3370   14.7840    0.7410 C   0  0  0  0  0  0  0  0  0  0  0  0
   -4.7860   14.8220   -1.5770 N   0  0  0  0  0  0  0  0  0  0  0  0
   -5.7110   14.7820   -0.6120 C   0  0  0  0  0  0  0  0  0  0  0  0
   -6.3380   14.7420    1.7260 C   0  0  0  0  0  0  0  0  0  0  0  0
   -7.0020   14.7370   -0.9580 N   0  0  0  0  0  0  0  0  0  0  0  0
   -7.6670   14.6910    1.3550 C   0  0  0  0  0  0  0  0  0  0  0  0
   -7.9450   14.6910    0.0100 C   0  0  0  0  0  0  0  0  0  0  0  0
  1  2  1  0
  2  3  2  0
  1  4  1  0
  4  5  1  0
  2  6  1  0
  5  7  2  3
  5  8  1  0
  6  9  2  0
  6 10  1  0
  7 11  1  0
  9 12  1  0
 10 13  2  0
 12 14  1  0
 11 15  1  0
 12 16  2  0
 13 16  1  0
 15 17  1  0
 17 18  1  0
 18 19  2  0
 18 20  1  0
 20 21  2  0
 19 22  1  0
 21 23  1  0
 22 23  2  0
 21 24  1  0
 23 25  1  0
 24 26  2  0
 25 27  2  0
 26 27  1  0
M  END
