x0253_0_A_α-x0628_0_A_α
     RDKit          3D

 20 21  0  0  0  0  0  0  0  0999 V2000
   -2.0390    8.7650   -7.2720 C   0  0  0  0  0  0  0  0  0  0  0  0
   -0.8420    9.3170   -7.9540 C   0  0  0  0  0  0  0  0  0  0  0  0
   -0.3380    9.0420   -9.2260 C   0  0  0  0  0  0  0  0  0  0  0  0
   -2.2150    9.8770   -6.2930 C   0  0  0  0  0  0  0  0  0  0  0  0
   -0.2190   10.2340   -7.1390 C   0  0  0  0  0  0  0  0  0  0  0  0
   -2.7200    9.8430   -5.0240 N   0  0  0  0  0  0  0  0  0  0  0  0
   -1.8570   11.1250   -6.5590 N   0  0  0  0  0  0  0  0  0  0  0  0
    0.8840   10.9180   -7.5170 C   0  0  0  0  0  0  0  0  0  0  0  0
    0.8110    9.7370   -9.6400 C   0  0  0  0  0  0  0  0  0  0  0  0
   -2.1160   11.9080   -5.4750 N   0  0  0  0  0  0  0  0  0  0  0  0
   -2.6330   11.1330   -4.5510 C   0  0  0  0  0  0  0  0  0  0  0  0
    1.4610   11.8940   -6.5570 C   0  0  0  0  0  0  0  0  0  0  0  0
   -3.0640   11.5430   -3.2020 C   0  0  0  0  0  0  0  0  0  0  0  0
    1.4150   10.6750   -8.7820 C   0  0  0  0  0  0  0  0  0  0  0  0
    2.6120   12.2220   -6.6250 O   0  0  0  0  0  0  0  0  0  0  0  0
    0.6180   12.4700   -5.4440 C   0  0  0  0  0  0  0  0  0  0  0  0
    1.5270   12.9230   -4.3060 C   0  0  0  0  0  0  0  0  0  0  0  0
    1.0120   12.5190   -2.9420 C   0  0  0  0  0  0  0  0  0  0  0  0
    0.9770   13.2080   -1.9390 O   0  0  0  0  0  0  0  0  0  0  0  0
    0.5600   11.2470   -2.9110 O   0  0  0  0  0  0  0  0  0  0  0  0
  1  2  1  0
  2  3  2  0
  1  4  1  0
  2  5  1  0
  4  6  1  0
  4  7  2  0
  5  8  2  0
  3  9  1  0
  7 10  1  0
  6 11  1  0
 10 11  2  0
  8 12  1  0
 11 13  1  0
  8 14  1  0
  9 14  2  0
 12 15  2  0
 12 16  1  0
 16 17  1  0
 17 18  1  0
 18 19  2  0
 18 20  1  0
M  END
