x0253_0_A-x1018_0_A
     RDKit          3D

 27 29  0  0  0  0  0  0  0  0999 V2000
    0.5070   11.9250   -5.4170 N   0  0  0  0  0  0  0  0  0  0  0  0
    1.1140   11.6230   -6.5940 C   0  0  0  0  0  0  0  0  0  0  0  0
    2.2040   12.1040   -6.7720 O   0  0  0  0  0  0  0  0  0  0  0  0
    1.3540   12.6800   -4.5140 C   0  0  0  0  0  0  0  0  0  0  0  0
    0.8400   12.6630   -3.0950 C   0  0  0  0  0  0  0  0  0  0  0  0
    0.4580   10.7090   -7.5660 C   0  0  0  0  0  0  0  0  0  0  0  0
    0.8800   13.6570   -2.3020 N   0  0  0  0  0  0  0  0  0  0  0  0
    0.2930   11.4880   -2.6860 O   0  0  0  0  0  0  0  0  0  0  0  0
   -0.5170    9.8010   -7.1510 C   0  0  0  0  0  0  0  0  0  0  0  0
    0.8260   10.7550   -8.9180 C   0  0  0  0  0  0  0  0  0  0  0  0
    0.3660   13.6820   -0.9680 C   0  0  0  0  0  0  0  0  0  0  0  0
   -1.1260    8.9470   -8.0770 C   0  0  0  0  0  0  0  0  0  0  0  0
    0.2270    9.9090   -9.8420 C   0  0  0  0  0  0  0  0  0  0  0  0
   -2.1780    7.9700   -7.6390 C   0  0  0  0  0  0  0  0  0  0  0  0
   -1.1440   13.6580   -1.0500 C   0  0  0  0  0  0  0  0  0  0  0  0
   -0.7470    9.0070   -9.4240 C   0  0  0  0  0  0  0  0  0  0  0  0
   -1.7670   14.5510    0.0060 C   0  0  0  0  0  0  0  0  0  0  0  0
   -3.0730   15.0650   -0.4310 N   0  0  0  0  0  0  0  0  0  0  0  0
   -3.2580   15.0810   -1.8800 N   0  0  0  0  0  0  0  0  0  0  0  0
   -4.1210   14.1550    0.0070 C   0  0  2  0  0  0  0  0  0  0  0  0
   -4.6730   15.0540   -2.0970 N   0  0  0  0  0  0  0  0  0  0  0  0
   -5.1640   14.3350   -1.0070 N   0  0  0  0  0  0  0  0  0  0  0  0
   -4.5900   14.4560    1.3830 C   0  0  0  0  0  0  0  0  0  0  0  0
   -6.5020   14.4660   -0.7270 N   0  0  0  0  0  0  0  0  0  0  0  0
   -5.8750   14.6710    1.6620 C   0  0  0  0  0  0  0  0  0  0  0  0
   -6.8270   14.6100    0.5260 C   0  0  0  0  0  0  0  0  0  0  0  0
   -8.5250   14.7350    0.8560 Cl  0  0  0  0  0  0  0  0  0  0  0  0
  1  2  1  0
  2  3  2  0
  1  4  1  0
  4  5  1  0
  2  6  1  0
  5  7  2  3
  5  8  1  0
  6  9  2  0
  6 10  1  0
  7 11  1  0
  9 12  1  0
 10 13  2  0
 12 14  1  0
 11 15  1  0
 12 16  2  0
 13 16  1  0
 15 17  1  0
 17 18  1  0
 18 19  1  0
 18 20  1  0
 19 21  1  0
 20 22  1  0
 21 22  1  0
 20 23  1  1
 22 24  1  0
 23 25  2  0
 24 26  2  0
 25 26  1  0
 26 27  1  0
M  END
