x0253_0_A-x0895_1_A
     RDKit          3D

 24 25  0  0  0  0  0  0  0  0999 V2000
    0.4630   11.9310   -5.3940 N   0  0  0  0  0  0  0  0  0  0  0  0
    1.1160   11.6440   -6.5550 C   0  0  0  0  0  0  0  0  0  0  0  0
    2.2170   12.1270   -6.6940 O   0  0  0  0  0  0  0  0  0  0  0  0
    1.2520   12.6150   -4.3890 C   0  0  0  0  0  0  0  0  0  0  0  0
    0.6770   12.4610   -3.0030 C   0  0  0  0  0  0  0  0  0  0  0  0
    0.4760   10.7330   -7.5480 C   0  0  0  0  0  0  0  0  0  0  0  0
    0.6850   13.4730   -2.2220 N   0  0  0  0  0  0  0  0  0  0  0  0
    0.1720   11.2450   -2.6820 O   0  0  0  0  0  0  0  0  0  0  0  0
   -0.5040    9.8180   -7.1460 C   0  0  0  0  0  0  0  0  0  0  0  0
    0.8500   10.7780   -8.9000 C   0  0  0  0  0  0  0  0  0  0  0  0
    0.0830   13.3300   -0.9070 C   0  0  0  0  0  0  0  0  0  0  0  0
   -1.1050    8.9610   -8.0780 C   0  0  0  0  0  0  0  0  0  0  0  0
    0.2570    9.9290   -9.8300 C   0  0  0  0  0  0  0  0  0  0  0  0
   -2.1560    7.9870   -7.6360 C   0  0  0  0  0  0  0  0  0  0  0  0
   -0.5580   14.6510   -0.5600 C   0  0  0  0  0  0  0  0  0  0  0  0
   -0.7170    9.0250   -9.4220 C   0  0  0  0  0  0  0  0  0  0  0  0
   -0.4870   14.8970    0.9360 C   0  0  0  0  0  0  0  0  0  0  0  0
   -1.7940   14.7470    1.5780 N   0  0  0  0  0  0  0  0  0  0  0  0
   -2.8720   14.6800    0.8730 C   0  0  0  0  0  0  0  0  0  0  0  0
   -3.1200   14.6950   -0.6290 C   0  0  0  0  0  0  0  0  0  0  0  0
   -4.0760   14.5710    1.4810 N   0  0  0  0  0  0  0  0  0  0  0  0
   -4.4950   15.0860   -0.6240 N   0  0  0  0  0  0  0  0  0  0  0  0
   -5.0690   14.8110    0.5940 C   0  0  0  0  0  0  0  0  0  0  0  0
   -6.2640   14.7900    0.8110 O   0  0  0  0  0  0  0  0  0  0  0  0
  1  2  1  0
  2  3  2  0
  1  4  1  0
  4  5  1  0
  2  6  1  0
  5  7  2  3
  5  8  1  0
  6  9  2  0
  6 10  1  0
  7 11  1  0
  9 12  1  0
 10 13  2  0
 12 14  1  0
 11 15  1  0
 12 16  2  0
 13 16  1  0
 15 17  1  0
 17 18  1  0
 18 19  2  3
 19 20  1  0
 19 21  1  0
 20 22  1  0
 21 23  1  0
 22 23  1  0
 23 24  2  0
M  END
