x0253_0_A_α-x0950_0_A_α
     RDKit          3D

 15 15  0  0  0  0  0  0  0  0999 V2000
    0.4070   12.0620   -5.4500 N   0  0  0  0  0  0  0  0  0  0  0  0
    1.0540   11.7620   -6.6160 C   0  0  0  0  0  0  0  0  0  0  0  0
    2.2000   12.1210   -6.7250 O   0  0  0  0  0  0  0  0  0  0  0  0
    1.1850   12.7410   -4.4020 C   0  0  1  0  0  0  0  0  0  0  0  0
    0.7140   12.2550   -3.0410 C   0  0  0  0  0  0  0  0  0  0  0  0
    2.6930   12.4850   -4.5020 C   0  0  0  0  0  0  0  0  0  0  0  0
    0.3740   10.9400   -7.6840 C   0  0  0  0  0  0  0  0  0  0  0  0
    1.1440   12.6450   -1.9680 O   0  0  0  0  0  0  0  0  0  0  0  0
   -0.2560   11.3250   -3.0960 O   0  0  0  0  0  0  0  0  0  0  0  0
   -0.7970   10.2500   -7.3490 C   0  0  0  0  0  0  0  0  0  0  0  0
    0.8620   10.8150   -8.9950 C   0  0  0  0  0  0  0  0  0  0  0  0
   -1.4520    9.4340   -8.2780 C   0  0  0  0  0  0  0  0  0  0  0  0
    0.2090   10.0140   -9.9260 C   0  0  0  0  0  0  0  0  0  0  0  0
   -2.6830    8.6840   -7.8810 C   0  0  0  0  0  0  0  0  0  0  0  0
   -0.9400    9.3230   -9.5680 C   0  0  0  0  0  0  0  0  0  0  0  0
  1  2  1  0
  2  3  2  0
  1  4  1  0
  4  5  1  0
  4  6  1  6
  2  7  1  0
  5  8  2  0
  5  9  1  0
  7 10  2  0
  7 11  1  0
 10 12  1  0
 11 13  2  0
 12 14  1  0
 12 15  2  0
 13 15  1  0
M  END
