x0253_0_A_α-x0933_0_A_α
     RDKit          3D

 24 25  0  0  0  0  0  0  0  0999 V2000
    0.2900   11.8410   -5.3280 N   0  0  0  0  0  0  0  0  0  0  0  0
    1.0490   11.6640   -6.4700 C   0  0  0  0  0  0  0  0  0  0  0  0
    2.1440   12.1870   -6.5830 O   0  0  0  0  0  0  0  0  0  0  0  0
    0.8860   12.4140   -4.1270 C   0  0  0  0  0  0  0  0  0  0  0  0
    0.5520   11.6050   -2.8610 C   0  0  0  0  0  0  0  0  0  0  0  0
    0.4800   10.7690   -7.5340 C   0  0  0  0  0  0  0  0  0  0  0  0
    0.3930   12.1290   -1.7020 N   0  0  0  0  0  0  0  0  0  0  0  0
    0.4230   10.2940   -3.0600 O   0  0  0  0  0  0  0  0  0  0  0  0
   -0.4960    9.8500   -7.1340 C   0  0  0  0  0  0  0  0  0  0  0  0
    0.8670   10.7990   -8.8860 C   0  0  0  0  0  0  0  0  0  0  0  0
    0.4680   13.5420   -1.5620 C   0  0  0  0  0  0  0  0  0  0  0  0
   -1.0820    8.9770   -8.0580 C   0  0  0  0  0  0  0  0  0  0  0  0
    0.2860    9.9300   -9.8090 C   0  0  0  0  0  0  0  0  0  0  0  0
   -2.1290    8.0000   -7.6110 C   0  0  0  0  0  0  0  0  0  0  0  0
   -0.7940   13.9860   -2.2840 C   0  0  0  0  0  0  0  0  0  0  0  0
   -0.6850    9.0230   -9.4000 C   0  0  0  0  0  0  0  0  0  0  0  0
   -1.6680   14.8480   -1.4100 C   0  0  0  0  0  0  0  0  0  0  0  0
   -2.7610   14.2250   -0.5470 C   0  0  2  0  0  0  0  0  0  0  0  0
   -4.1130   14.5800   -1.1960 C   0  0  0  0  0  0  0  0  0  0  0  0
   -2.6710   14.7090    0.9240 C   0  0  0  0  0  0  0  0  0  0  0  0
   -5.1890   14.1940   -0.3040 N   0  0  0  0  0  0  0  0  0  0  0  0
   -3.9340   15.0880    1.5380 N   0  0  0  0  0  0  0  0  0  0  0  0
   -5.1290   15.1080    0.7660 C   0  0  2  0  0  0  0  0  0  0  0  0
   -6.1590   14.7140    1.6680 N   0  0  0  0  0  0  0  0  0  0  0  0
  1  2  1  0
  2  3  2  0
  1  4  1  0
  4  5  1  0
  2  6  1  0
  5  7  2  3
  5  8  1  0
  6  9  2  0
  6 10  1  0
  7 11  1  0
  9 12  1  0
 10 13  2  0
 12 14  1  0
 11 15  1  0
 12 16  2  0
 13 16  1  0
 15 17  1  0
 18 17  1  6
 18 19  1  0
 18 20  1  0
 19 21  1  0
 20 22  1  0
 21 23  1  0
 22 23  1  0
 23 24  1  1
M  END
