x0253_0_A_α-x0849_0_A_α
     RDKit          3D

 26 28  0  0  0  0  0  0  0  0999 V2000
    0.3250   11.9120   -5.5340 N   0  0  0  0  0  0  0  0  0  0  0  0
    1.0940   11.6130   -6.6150 C   0  0  0  0  0  0  0  0  0  0  0  0
    2.2200   12.0610   -6.6540 O   0  0  0  0  0  0  0  0  0  0  0  0
    0.7270   13.0790   -4.7930 C   0  0  0  0  0  0  0  0  0  0  0  0
    0.7540   12.8260   -3.3080 C   0  0  0  0  0  0  0  0  0  0  0  0
    0.5070   10.7260   -7.6560 C   0  0  0  0  0  0  0  0  0  0  0  0
    0.9500   13.8310   -2.5340 N   0  0  0  0  0  0  0  0  0  0  0  0
    0.5560   11.5450   -2.8970 O   0  0  0  0  0  0  0  0  0  0  0  0
   -0.4610    9.8150   -7.2310 C   0  0  0  0  0  0  0  0  0  0  0  0
    0.8710   10.7620   -9.0120 C   0  0  0  0  0  0  0  0  0  0  0  0
    0.9650   13.5480   -1.1260 C   0  0  0  0  0  0  0  0  0  0  0  0
   -1.0710    8.9420   -8.1370 C   0  0  0  0  0  0  0  0  0  0  0  0
    0.2690    9.8930   -9.9210 C   0  0  0  0  0  0  0  0  0  0  0  0
   -2.1110    7.9720   -7.6620 C   0  0  0  0  0  0  0  0  0  0  0  0
   -0.6970    8.9900   -9.4860 C   0  0  0  0  0  0  0  0  0  0  0  0
   -0.2110   14.0180   -0.3420 C   0  0  0  0  0  0  0  0  0  0  0  0
   -0.2570   14.0780    1.0470 C   0  0  0  0  0  0  0  0  0  0  0  0
   -1.3410   14.4030   -1.0050 C   0  0  0  0  0  0  0  0  0  0  0  0
   -2.4610   14.8100   -0.2890 C   0  0  0  0  0  0  0  0  0  0  0  0
   -1.3100   14.4760    1.7610 N   0  0  0  0  0  0  0  0  0  0  0  0
   -2.3910   14.8260    1.1040 C   0  0  0  0  0  0  0  0  0  0  0  0
   -3.6570   15.2010   -0.8910 C   0  0  0  0  0  0  0  0  0  0  0  0
   -3.8390   15.2030   -2.7830 Br  0  0  0  0  0  0  0  0  0  0  0  0
   -3.4120   15.1860    1.8330 N   0  0  0  0  0  0  0  0  0  0  0  0
   -4.7340   15.5850   -0.1180 C   0  0  0  0  0  0  0  0  0  0  0  0
   -4.5460   15.5520    1.2440 C   0  0  0  0  0  0  0  0  0  0  0  0
  1  2  1  0
  2  3  2  0
  1  4  1  0
  4  5  1  0
  2  6  1  0
  5  7  2  3
  5  8  1  0
  6  9  2  0
  6 10  1  0
  7 11  1  0
  9 12  1  0
 10 13  2  0
 12 14  1  0
 12 15  2  0
 13 15  1  0
 11 16  1  0
 16 17  2  0
 16 18  1  0
 18 19  2  0
 17 20  1  0
 19 21  1  0
 20 21  2  0
 19 22  1  0
 22 23  1  0
 21 24  1  0
 22 25  2  0
 24 26  2  0
 25 26  1  0
M  END
