x0253_0_A-x0438_0_A
     RDKit          3D

 31 33  0  0  0  0  0  0  0  0999 V2000
    0.4470   11.9570   -5.3860 N   0  0  0  0  0  0  0  0  0  0  0  0
    1.0140   11.7420   -6.6030 C   0  0  0  0  0  0  0  0  0  0  0  0
    2.1260   12.1770   -6.7780 O   0  0  0  0  0  0  0  0  0  0  0  0
    1.3790   12.2770   -4.3200 C   0  0  0  0  0  0  0  0  0  0  0  0
    0.6980   12.2790   -2.9730 C   0  0  0  0  0  0  0  0  0  0  0  0
    0.3030   10.9120   -7.6390 C   0  0  0  0  0  0  0  0  0  0  0  0
    0.7790   13.3230   -2.2340 N   0  0  0  0  0  0  0  0  0  0  0  0
    0.0310   11.1550   -2.6410 O   0  0  0  0  0  0  0  0  0  0  0  0
   -0.8660   10.2060   -7.3390 C   0  0  0  0  0  0  0  0  0  0  0  0
    0.8250   10.8150   -8.9370 C   0  0  0  0  0  0  0  0  0  0  0  0
    0.1120   13.3840   -0.9460 C   0  0  0  0  0  0  0  0  0  0  0  0
   -1.4880    9.3990   -8.2980 C   0  0  0  0  0  0  0  0  0  0  0  0
    0.2070   10.0240   -9.9000 C   0  0  0  0  0  0  0  0  0  0  0  0
   -2.7230    8.6320   -7.9330 C   0  0  0  0  0  0  0  0  0  0  0  0
   -0.5650   14.7420   -0.8400 C   0  0  0  0  0  0  0  0  0  0  0  0
   -0.9420    9.3140   -9.5800 C   0  0  0  0  0  0  0  0  0  0  0  0
   -1.5420   14.8410    0.3290 C   0  0  0  0  0  0  0  0  0  0  0  0
   -3.0180   14.9010   -0.0170 C   0  0  0  0  0  0  0  0  0  0  0  0
   -3.5240   15.2960   -1.2790 C   0  0  0  0  0  0  0  0  0  0  0  0
   -3.9100   14.5340    0.9810 C   0  0  0  0  0  0  0  0  0  0  0  0
   -5.2840   14.5500    0.7280 C   0  0  0  0  0  0  0  0  0  0  0  0
   -4.9010   15.3240   -1.5500 C   0  0  0  0  0  0  0  0  0  0  0  0
   -6.3270   14.2230    1.5520 N   0  0  0  0  0  0  0  0  0  0  0  0
   -5.7540   14.9380   -0.5150 C   0  0  0  0  0  0  0  0  0  0  0  0
   -7.1220   14.8290   -0.4070 N   0  0  0  0  0  0  0  0  0  0  0  0
   -7.4250   14.3870    0.8650 C   0  0  0  0  0  0  0  0  0  0  0  0
   -8.8090   14.1380    1.3470 C   0  0  0  0  0  0  0  0  0  0  0  0
   -9.4140   15.3490    2.5120 S   0  0  0  0  0  0  0  0  0  0  0  0
   -8.1860   15.4990    3.7960 C   0  0  0  0  0  0  0  0  0  0  0  0
  -10.5810   14.7510    3.1450 O   0  0  0  0  0  0  0  0  0  0  0  0
   -9.5730   16.6150    1.8380 O   0  0  0  0  0  0  0  0  0  0  0  0
  1  2  1  0
  2  3  2  0
  1  4  1  0
  4  5  1  0
  2  6  1  0
  5  7  2  3
  5  8  1  0
  6  9  2  0
  6 10  1  0
  7 11  1  0
  9 12  1  0
 10 13  2  0
 12 14  1  0
 11 15  1  0
 12 16  2  0
 13 16  1  0
 15 17  1  0
 17 18  1  0
 18 19  2  0
 18 20  1  0
 20 21  2  0
 19 22  1  0
 21 23  1  0
 21 24  1  0
 22 24  2  0
 24 25  1  0
 23 26  2  0
 25 26  1  0
 26 27  1  0
 28 27  1  0
 28 29  1  0
 28 30  2  0
 28 31  2  0
M  END
