x0253_0_A-x1012_0_A
     RDKit          3D

 23 24  0  0  0  0  0  0  0  0999 V2000
    0.7310   11.6840   -5.2490 N   0  0  0  0  0  0  0  0  0  0  0  0
    1.1680   11.6050   -6.5340 C   0  0  0  0  0  0  0  0  0  0  0  0
    2.1410   12.2570   -6.7960 O   0  0  0  0  0  0  0  0  0  0  0  0
    1.4840   12.3980   -4.2180 C   0  0  0  0  0  0  0  0  0  0  0  0
    0.5960   12.6310   -3.0160 C   0  0  0  0  0  0  0  0  0  0  0  0
    0.5060   10.7240   -7.5340 C   0  0  0  0  0  0  0  0  0  0  0  0
    1.3660   12.9250   -1.8650 O   0  0  0  0  0  0  0  0  0  0  0  0
   -0.2020   11.4880   -2.7630 O   0  0  0  0  0  0  0  0  0  0  0  0
   -0.4760    9.8210   -7.1190 C   0  0  0  0  0  0  0  0  0  0  0  0
    0.8600   10.7860   -8.8900 C   0  0  0  0  0  0  0  0  0  0  0  0
   -0.0820   13.8600   -3.5870 C   0  0  0  0  0  0  0  0  0  0  0  0
   -1.1040    8.9860   -8.0490 C   0  0  0  0  0  0  0  0  0  0  0  0
    0.2400    9.9580   -9.8170 C   0  0  0  0  0  0  0  0  0  0  0  0
   -1.5100   14.2510   -3.2560 C   0  0  0  0  0  0  0  0  0  0  0  0
    0.8130   15.0810   -3.5480 C   0  0  0  0  0  0  0  0  0  0  0  0
   -2.1610    8.0200   -7.6020 C   0  0  0  0  0  0  0  0  0  0  0  0
   -0.7380    9.0600   -9.3990 C   0  0  0  0  0  0  0  0  0  0  0  0
   -1.9490   15.1340   -4.4390 C   0  0  0  0  0  0  0  0  0  0  0  0
    0.4940   15.7990   -4.8330 C   0  0  0  0  0  0  0  0  0  0  0  0
   -0.9290   16.1510   -4.8260 N   0  0  0  0  0  0  0  0  0  0  0  0
   -1.3130   17.4520   -4.8430 C   0  0  0  0  0  0  0  0  0  0  0  0
   -0.3210   18.3550   -4.7870 N   0  0  0  0  0  0  0  0  0  0  0  0
   -2.4510   17.8380   -4.8930 O   0  0  0  0  0  0  0  0  0  0  0  0
  1  2  1  0
  2  3  2  0
  1  4  1  0
  4  5  1  0
  2  6  1  0
  5  7  1  0
  5  8  1  0
  6  9  2  0
  6 10  1  0
  5 11  1  0
  9 12  1  0
 10 13  2  0
 11 14  1  0
 11 15  1  0
 12 16  1  0
 12 17  2  0
 13 17  1  0
 14 18  1  0
 15 19  1  0
 18 20  1  0
 19 20  1  0
 20 21  1  0
 21 22  1  0
 21 23  2  0
M  END
