x0253_0_A-x0805_0_A
     RDKit          3D

 28 30  0  0  0  0  0  0  0  0999 V2000
   -0.0130   10.8770   -5.2770 N   0  0  0  0  0  0  0  0  0  0  0  0
    0.6590   11.4260   -6.3840 C   0  0  0  0  0  0  0  0  0  0  0  0
    1.4620   12.3630   -6.4090 O   0  0  0  0  0  0  0  0  0  0  0  0
   -0.5600   11.5040   -4.0820 C   0  0  0  0  0  0  0  0  0  0  0  0
    0.4410   12.2260   -3.1990 C   0  0  0  0  0  0  0  0  0  0  0  0
    0.2960   10.6450   -7.5920 C   0  0  0  0  0  0  0  0  0  0  0  0
    0.0710   12.5790   -1.8630 O   0  0  0  0  0  0  0  0  0  0  0  0
    1.4680   11.3300   -3.0550 O   0  0  0  0  0  0  0  0  0  0  0  0
   -0.6830    9.6870   -7.3460 C   0  0  0  0  0  0  0  0  0  0  0  0
    0.8230   10.7750   -8.8840 C   0  0  0  0  0  0  0  0  0  0  0  0
    0.7540   13.4030   -4.0550 C   0  0  2  0  0  0  0  0  0  0  0  0
   -1.1560    8.8540   -8.3540 C   0  0  0  0  0  0  0  0  0  0  0  0
    0.3550    9.9410   -9.9030 C   0  0  0  0  0  0  0  0  0  0  0  0
    2.2210   13.8130   -3.9300 C   0  0  0  0  0  0  0  0  0  0  0  0
   -0.3650   14.5000   -4.0610 C   0  0  1  0  0  0  0  0  0  0  0  0
   -2.2100    7.8430   -8.0410 C   0  0  0  0  0  0  0  0  0  0  0  0
   -0.6290    8.9860   -9.6400 C   0  0  0  0  0  0  0  0  0  0  0  0
   -1.6890   14.3350   -3.3000 C   0  0  0  0  0  0  0  0  0  0  0  0
    2.4300   15.1500   -3.5220 O   0  0  0  0  0  0  0  0  0  0  0  0
    0.1800   15.8460   -3.6510 C   0  0  0  0  0  0  0  0  0  0  0  0
   -2.8580   13.8120   -3.8660 C   0  0  0  0  0  0  0  0  0  0  0  0
   -1.7400   14.7510   -1.9560 C   0  0  0  0  0  0  0  0  0  0  0  0
    1.5430   16.0450   -4.1820 C   0  0  0  0  0  0  0  0  0  0  0  0
   -2.9040   14.6610   -1.1980 C   0  0  0  0  0  0  0  0  0  0  0  0
   -4.0330   13.7150   -3.1080 C   0  0  0  0  0  0  0  0  0  0  0  0
   -3.0220   15.0540    0.1080 O   0  0  0  0  0  0  0  0  0  0  0  0
   -4.0550   14.1380   -1.7790 C   0  0  0  0  0  0  0  0  0  0  0  0
   -4.2690   15.5860    0.5430 C   0  0  0  0  0  0  0  0  0  0  0  0
  1  2  1  0
  2  3  2  0
  1  4  1  0
  4  5  1  0
  2  6  1  0
  5  7  1  0
  5  8  1  0
  6  9  2  0
  6 10  1  0
 11  5  1  1
  9 12  1  0
 10 13  2  0
 11 14  1  0
 11 15  1  0
 12 16  1  0
 12 17  2  0
 13 17  1  0
 15 18  1  1
 14 19  1  0
 15 20  1  0
 18 21  2  0
 18 22  1  0
 19 23  1  0
 20 23  1  0
 22 24  2  0
 21 25  1  0
 24 26  1  0
 24 27  1  0
 25 27  2  0
 26 28  1  0
M  END
