x0259_0_A_α-x0216_0_A_α
     RDKit          3D

 22 23  0  0  0  0  0  0  0  0999 V2000
   19.5080   28.5030    6.8510 C   0  0  2  0  0  0  0  0  0  0  0  0
   19.7090   27.6800    8.1510 C   0  0  0  0  0  0  0  0  0  0  0  0
   19.6900   29.9810    7.3360 C   0  0  0  0  0  0  0  0  0  0  0  0
   18.1290   28.3960    6.3620 N   0  0  0  0  0  0  0  0  0  0  0  0
   20.4140   27.9380    5.6030 C   0  0  0  0  0  0  0  0  0  0  0  0
   17.1920   29.5050    6.5190 C   0  0  0  0  0  0  0  0  0  0  0  0
   18.7270   30.5420    8.4300 C   0  0  1  0  0  0  0  0  0  0  0  0
   19.7890   27.7810    4.3260 N   0  0  0  0  0  0  0  0  0  0  0  0
   21.7340   27.5880    5.6900 C   0  0  0  0  0  0  0  0  0  0  0  0
   22.7080   27.7170    7.1240 Cl  0  0  0  0  0  0  0  0  0  0  0  0
   15.7440   29.0860    6.5960 C   0  0  0  0  0  0  0  0  0  0  0  0
   17.3710   30.7540    5.6610 C   0  0  0  0  0  0  0  0  0  0  0  0
   18.4320   32.0320    8.3610 C   0  0  0  0  0  0  0  0  0  0  0  0
   17.3080   29.9420    8.5030 C   0  0  0  0  0  0  0  0  0  0  0  0
   20.3740   27.1120    3.3370 C   0  0  0  0  0  0  0  0  0  0  0  0
   22.5380   27.0220    4.5430 C   0  0  0  0  0  0  0  0  0  0  0  0
   18.5940   28.4540    3.8660 C   0  0  0  0  0  0  0  0  0  0  0  0
   23.7550   26.8390    4.6500 O   0  0  0  0  0  0  0  0  0  0  0  0
   16.3880   30.8800    7.9230 O   0  0  0  0  0  0  0  0  0  0  0  0
   16.9600   32.1760    7.9980 C   0  0  0  0  0  0  0  0  0  0  0  0
   21.7530   26.6920    3.3580 N   0  0  0  0  0  0  0  0  0  0  0  0
   22.2550   26.0490    2.3790 O   0  0  0  0  0  0  0  0  0  0  0  0
  1  2  1  1
  1  3  1  0
  1  4  1  0
  1  5  1  0
  4  6  1  0
  7  3  1  6
  5  8  1  0
  5  9  2  0
  9 10  1  0
  6 11  1  0
  6 12  1  0
  7 13  1  0
  7 14  1  0
  8 15  1  0
  9 16  1  0
  8 17  1  0
 16 18  2  0
 14 19  1  0
 13 20  1  0
 19 20  1  0
 15 21  2  0
 16 21  1  0
 21 22  1  0
M  CHG  2  21   1  22  -1
M  END
