x0253_0_A_α-x0471_0_A_α
     RDKit          3D

 33 35  0  0  0  0  0  0  0  0999 V2000
    0.4620   11.9400   -5.3460 N   0  0  0  0  0  0  0  0  0  0  0  0
    1.0930   11.6830   -6.5310 C   0  0  0  0  0  0  0  0  0  0  0  0
    2.1730   12.1790   -6.7440 O   0  0  0  0  0  0  0  0  0  0  0  0
    1.2850   12.5650   -4.3200 C   0  0  0  0  0  0  0  0  0  0  0  0
    0.6650   12.4130   -2.9480 C   0  0  0  0  0  0  0  0  0  0  0  0
    0.4510   10.7570   -7.5170 C   0  0  0  0  0  0  0  0  0  0  0  0
    0.6390   13.4110   -2.1580 N   0  0  0  0  0  0  0  0  0  0  0  0
    0.1620   11.1790   -2.6940 O   0  0  0  0  0  0  0  0  0  0  0  0
   -0.5370    9.8470   -7.1220 C   0  0  0  0  0  0  0  0  0  0  0  0
    0.8350   10.7850   -8.8660 C   0  0  0  0  0  0  0  0  0  0  0  0
    0.0440   13.4630   -0.8350 C   0  0  0  0  0  0  0  0  0  0  0  0
   -1.1270    8.9830   -8.0550 C   0  0  0  0  0  0  0  0  0  0  0  0
    0.2560    9.9330   -9.7970 C   0  0  0  0  0  0  0  0  0  0  0  0
   -2.1830    8.0110   -7.6220 C   0  0  0  0  0  0  0  0  0  0  0  0
   -0.6070   14.8280   -0.6930 C   0  0  0  0  0  0  0  0  0  0  0  0
   -0.7240    9.0320   -9.3920 C   0  0  0  0  0  0  0  0  0  0  0  0
   -1.5670   14.9100    0.4940 C   0  0  0  0  0  0  0  0  0  0  0  0
   -3.0290   14.9680    0.0850 C   0  0  0  0  0  0  0  0  0  0  0  0
   -3.4750   15.2570   -1.2260 C   0  0  0  0  0  0  0  0  0  0  0  0
   -3.9740   14.7150    1.0750 C   0  0  0  0  0  0  0  0  0  0  0  0
   -5.3370   14.7370    0.7620 C   0  0  0  0  0  0  0  0  0  0  0  0
   -4.8400   15.2890   -1.5590 C   0  0  0  0  0  0  0  0  0  0  0  0
   -6.4130   14.5080    1.5760 N   0  0  0  0  0  0  0  0  0  0  0  0
   -5.7440   15.0170   -0.5330 C   0  0  0  0  0  0  0  0  0  0  0  0
   -7.1190   14.9460   -0.4720 N   0  0  0  0  0  0  0  0  0  0  0  0
   -7.4740   14.6350    0.8250 C   0  0  0  0  0  0  0  0  0  0  0  0
   -8.8860   14.4780    1.2650 C   0  0  0  0  0  0  0  0  0  0  0  0
   -8.8960   14.0680    2.6600 N   0  0  0  0  0  0  0  0  0  0  0  0
   -8.9850   14.9990    3.6760 C   0  0  0  0  0  0  0  0  0  0  0  0
   -9.2920   16.1700    3.4690 O   0  0  0  0  0  0  0  0  0  0  0  0
   -8.6830   14.4330    5.0650 C   0  0  0  0  0  0  0  0  0  0  0  0
   -9.8930   13.6670    5.6030 C   0  0  0  0  0  0  0  0  0  0  0  0
   -8.2790   15.5440    6.0330 C   0  0  0  0  0  0  0  0  0  0  0  0
  1  2  1  0
  2  3  2  0
  1  4  1  0
  4  5  1  0
  2  6  1  0
  5  7  2  3
  5  8  1  0
  6  9  2  0
  6 10  1  0
  7 11  1  0
  9 12  1  0
 10 13  2  0
 12 14  1  0
 11 15  1  0
 12 16  2  0
 13 16  1  0
 15 17  1  0
 17 18  1  0
 18 19  2  0
 18 20  1  0
 20 21  2  0
 19 22  1  0
 21 23  1  0
 21 24  1  0
 22 24  2  0
 24 25  1  0
 23 26  2  0
 25 26  1  0
 26 27  1  0
 27 28  1  0
 28 29  1  0
 29 30  2  0
 29 31  1  0
 31 32  1  0
 31 33  1  0
M  END
