x0253_0_A_α-x0631_0_A_β
     RDKit          3D

 16 16  0  0  0  0  0  0  0  0999 V2000
    0.3970   11.9920   -5.5110 N   0  0  0  0  0  0  0  0  0  0  0  0
    1.1870   11.7300   -6.5950 C   0  0  0  0  0  0  0  0  0  0  0  0
    2.3030   12.1930   -6.6200 O   0  0  0  0  0  0  0  0  0  0  0  0
    0.9740   12.8340   -4.4860 C   0  0  0  0  0  0  0  0  0  0  0  0
    0.8060   12.2530   -3.0860 C   0  0  0  0  0  0  0  0  0  0  0  0
    0.6390   10.8420   -7.6650 C   0  0  0  0  0  0  0  0  0  0  0  0
    1.2560   12.7780   -2.0770 O   0  0  0  0  0  0  0  0  0  0  0  0
    0.1100   11.0930   -3.0370 O   0  0  0  0  0  0  0  0  0  0  0  0
   -0.2650    9.9040   -7.2210 C   0  0  0  0  0  0  0  0  0  0  0  0
    0.9560   10.8730   -9.0350 C   0  0  0  0  0  0  0  0  0  0  0  0
   -0.8570    9.0080   -8.0930 C   0  0  0  0  0  0  0  0  0  0  0  0
    0.3650    9.9760   -9.9210 C   0  0  0  0  0  0  0  0  0  0  0  0
   -1.8090    8.0350   -7.5030 C   0  0  0  0  0  0  0  0  0  0  0  0
   -0.5490    9.0380   -9.4520 C   0  0  0  0  0  0  0  0  0  0  0  0
   -1.1540    7.5600   -6.2070 C   0  0  0  0  0  0  0  0  0  0  0  0
   -3.1600    8.6950   -7.2570 C   0  0  0  0  0  0  0  0  0  0  0  0
  1  2  1  0
  2  3  2  0
  1  4  1  0
  4  5  1  0
  2  6  1  0
  5  7  2  0
  5  8  1  0
  6  9  2  0
  6 10  1  0
  9 11  1  0
 10 12  2  0
 11 13  1  0
 11 14  2  0
 12 14  1  0
 13 15  1  0
 13 16  1  0
M  END
