x0253_0_A-x0926_0_A
     RDKit          3D

 24 25  0  0  0  0  0  0  0  0999 V2000
    0.2870   11.9270   -5.5660 N   0  0  0  0  0  0  0  0  0  0  0  0
    1.0640   11.6040   -6.6300 C   0  0  0  0  0  0  0  0  0  0  0  0
    2.1930   12.0350   -6.6900 O   0  0  0  0  0  0  0  0  0  0  0  0
    0.7310   13.0520   -4.8020 C   0  0  0  0  0  0  0  0  0  0  0  0
    0.6690   12.8050   -3.3230 C   0  0  0  0  0  0  0  0  0  0  0  0
    0.4650   10.6930   -7.6390 C   0  0  0  0  0  0  0  0  0  0  0  0
    0.6640   13.6980   -2.4190 N   0  0  0  0  0  0  0  0  0  0  0  0
    0.6090   11.5100   -2.9280 O   0  0  0  0  0  0  0  0  0  0  0  0
   -0.5040    9.7710   -7.2460 C   0  0  0  0  0  0  0  0  0  0  0  0
    0.8570   10.7440   -8.9870 C   0  0  0  0  0  0  0  0  0  0  0  0
    0.6240   13.2060   -1.0790 C   0  0  0  0  0  0  0  0  0  0  0  0
   -1.0850    8.9050   -8.1760 C   0  0  0  0  0  0  0  0  0  0  0  0
    0.2840    9.8840   -9.9180 C   0  0  0  0  0  0  0  0  0  0  0  0
   -2.1260    7.9240   -7.7280 C   0  0  0  0  0  0  0  0  0  0  0  0
   -0.7300   13.3440   -0.4060 C   0  0  0  0  0  0  0  0  0  0  0  0
   -0.6850    8.9680   -9.5150 C   0  0  0  0  0  0  0  0  0  0  0  0
   -1.3320   14.7290   -0.4910 C   0  0  0  0  0  0  0  0  0  0  0  0
   -2.8650   14.6840   -0.4470 C   0  0  2  0  0  0  0  0  0  0  0  0
   -3.4560   15.4250   -1.5640 N   0  0  0  0  0  0  0  0  0  0  0  0
   -3.4660   15.0920    0.8610 C   0  0  0  0  0  0  0  0  0  0  0  0
   -4.7650   15.3520    0.9230 C   0  0  0  0  0  0  0  0  0  0  0  0
   -4.8690   15.4490   -1.5060 N   0  0  0  0  0  0  0  0  0  0  0  0
   -5.5590   15.2380   -0.3290 C   0  0  0  0  0  0  0  0  0  0  0  0
   -6.7540   14.9660   -0.3110 O   0  0  0  0  0  0  0  0  0  0  0  0
  1  2  1  0
  2  3  2  0
  1  4  1  0
  4  5  1  0
  2  6  1  0
  5  7  2  3
  5  8  1  0
  6  9  2  0
  6 10  1  0
  7 11  1  0
  9 12  1  0
 10 13  2  0
 12 14  1  0
 11 15  1  0
 12 16  2  0
 13 16  1  0
 15 17  1  0
 18 17  1  1
 18 19  1  0
 18 20  1  0
 20 21  2  0
 19 22  1  0
 21 23  1  0
 22 23  1  0
 23 24  2  0
M  END
