x0253_0_A-x0290_0_A
     RDKit          3D

 29 30  0  0  0  0  0  0  0  0999 V2000
    0.5560   12.2290   -5.6180 N   0  0  0  0  0  0  0  0  0  0  0  0
    1.1840   11.7650   -6.6910 C   0  0  0  0  0  0  0  0  0  0  0  0
    2.3070   12.1470   -6.7990 O   0  0  0  0  0  0  0  0  0  0  0  0
    1.4350   12.5980   -4.5240 C   0  0  0  0  0  0  0  0  0  0  0  0
    0.6350   12.2600   -3.3390 C   0  0  0  0  0  0  0  0  0  0  0  0
    0.5130   10.8090   -7.6340 C   0  0  0  0  0  0  0  0  0  0  0  0
    0.6800   12.8610   -2.2480 N   0  0  0  0  0  0  0  0  0  0  0  0
   -0.2250   11.2450   -3.5310 O   0  0  0  0  0  0  0  0  0  0  0  0
   -0.4650    9.9180   -7.1760 C   0  0  0  0  0  0  0  0  0  0  0  0
    0.8650   10.8000   -8.9900 C   0  0  0  0  0  0  0  0  0  0  0  0
   -0.4310   12.2620   -1.5780 C   0  0  0  0  0  0  0  0  0  0  0  0
   -1.0850    9.0280   -8.0640 C   0  0  0  0  0  0  0  0  0  0  0  0
    0.2510    9.9160   -9.8730 C   0  0  0  0  0  0  0  0  0  0  0  0
   -2.1330    8.0750   -7.5660 C   0  0  0  0  0  0  0  0  0  0  0  0
   -1.5690   12.8390   -2.4340 C   0  0  0  0  0  0  0  0  0  0  0  0
   -0.7200    9.0340   -9.4150 C   0  0  0  0  0  0  0  0  0  0  0  0
   -1.5370   14.3560   -2.3030 C   0  0  0  0  0  0  0  0  0  0  0  0
   -1.5970   14.5080   -0.8390 C   0  0  0  0  0  0  0  0  0  0  0  0
   -0.4560   14.4990   -0.0420 C   0  0  0  0  0  0  0  0  0  0  0  0
   -2.8400   14.6300   -0.2640 C   0  0  0  0  0  0  0  0  0  0  0  0
   -0.6380   14.5940    1.3130 C   0  0  0  0  0  0  0  0  0  0  0  0
   -2.9410   14.7230    1.0970 C   0  0  0  0  0  0  0  0  0  0  0  0
   -4.2330   14.8330    1.5890 N   0  0  0  0  0  0  0  0  0  0  0  0
   -1.8570   14.6950    1.8970 N   0  0  0  0  0  0  0  0  0  0  0  0
   -5.3980   14.5120    0.9520 C   0  0  0  0  0  0  0  0  0  0  0  0
   -5.4240   14.5500   -0.2840 O   0  0  0  0  0  0  0  0  0  0  0  0
   -6.6300   14.1030    1.7690 C   0  0  0  0  0  0  0  0  0  0  0  0
   -7.7740   13.8260    0.8760 N   0  0  0  0  0  0  0  0  0  0  0  0
   -8.6470   14.9750    0.7470 C   0  0  0  0  0  0  0  0  0  0  0  0
  1  2  1  0
  2  3  2  0
  1  4  1  0
  4  5  1  0
  2  6  1  0
  5  7  2  3
  5  8  1  0
  6  9  2  0
  6 10  1  0
  7 11  1  0
  9 12  1  0
 10 13  2  0
 12 14  1  0
 11 15  1  0
 12 16  2  0
 13 16  1  0
 15 17  1  0
 17 18  1  0
 18 19  2  0
 18 20  1  0
 19 21  1  0
 20 22  2  0
 22 23  1  0
 21 24  2  0
 22 24  1  0
 23 25  1  0
 25 26  2  0
 25 27  1  0
 27 28  1  0
 28 29  1  0
M  END
