x0253_0_A-x0933_0_A
     RDKit          3D

 24 25  0  0  0  0  0  0  0  0999 V2000
    0.3860   11.7820   -5.2120 N   0  0  0  0  0  0  0  0  0  0  0  0
    1.0680   11.6570   -6.4140 C   0  0  0  0  0  0  0  0  0  0  0  0
    2.1310   12.2220   -6.5840 O   0  0  0  0  0  0  0  0  0  0  0  0
    1.0330   12.4280   -4.0640 C   0  0  0  0  0  0  0  0  0  0  0  0
    0.6210   11.8110   -2.7060 C   0  0  0  0  0  0  0  0  0  0  0  0
    0.4760   10.7660   -7.4750 C   0  0  0  0  0  0  0  0  0  0  0  0
    0.5810   12.4930   -1.6100 N   0  0  0  0  0  0  0  0  0  0  0  0
    0.3030   10.4970   -2.7360 O   0  0  0  0  0  0  0  0  0  0  0  0
   -0.5080    9.8500   -7.0790 C   0  0  0  0  0  0  0  0  0  0  0  0
    0.8520   10.7970   -8.8330 C   0  0  0  0  0  0  0  0  0  0  0  0
    0.9150   13.9020   -1.4910 C   0  0  0  0  0  0  0  0  0  0  0  0
   -1.1100    8.9860   -8.0090 C   0  0  0  0  0  0  0  0  0  0  0  0
    0.2600    9.9410   -9.7590 C   0  0  0  0  0  0  0  0  0  0  0  0
   -2.1650    8.0130   -7.5680 C   0  0  0  0  0  0  0  0  0  0  0  0
   -0.2070   14.6100   -0.7380 C   0  0  0  0  0  0  0  0  0  0  0  0
   -0.7170    9.0390   -9.3490 C   0  0  0  0  0  0  0  0  0  0  0  0
   -1.5450   14.4670   -1.4910 C   0  0  0  0  0  0  0  0  0  0  0  0
   -2.7830   14.3480   -0.5810 C   0  0  2  0  0  0  0  0  0  0  0  0
   -4.0340   15.0020   -1.2250 C   0  0  0  0  0  0  0  0  0  0  0  0
   -2.6240   14.8690    0.8500 C   0  0  0  0  0  0  0  0  0  0  0  0
   -5.2240   14.6830   -0.4260 N   0  0  0  0  0  0  0  0  0  0  0  0
   -3.8520   14.5720    1.5240 N   0  0  0  0  0  0  0  0  0  0  0  0
   -4.9990   15.1300    0.9140 C   0  0  2  0  0  0  0  0  0  0  0  0
   -6.0990   14.6770    1.6950 N   0  0  0  0  0  0  0  0  0  0  0  0
  1  2  1  0
  2  3  2  0
  1  4  1  0
  4  5  1  0
  2  6  1  0
  5  7  2  3
  5  8  1  0
  6  9  2  0
  6 10  1  0
  7 11  1  0
  9 12  1  0
 10 13  2  0
 12 14  1  0
 11 15  1  0
 12 16  2  0
 13 16  1  0
 15 17  1  0
 18 17  1  6
 18 19  1  0
 18 20  1  0
 19 21  1  0
 20 22  1  0
 21 23  1  0
 22 23  1  0
 23 24  1  1
M  END
