x0253_0_A_α-x1015_0_A_α
     RDKit          3D

 26 28  0  0  0  0  0  0  0  0999 V2000
    0.4520   12.7930   -5.9760 N   0  0  0  0  0  0  0  0  0  0  0  0
    1.2500   11.9360   -6.6830 C   0  0  0  0  0  0  0  0  0  0  0  0
    2.4500   11.9740   -6.5460 O   0  0  0  0  0  0  0  0  0  0  0  0
    1.0610   13.6830   -5.0060 C   0  0  0  0  0  0  0  0  0  0  0  0
    2.2570   13.0050   -4.3570 C   0  0  0  0  0  0  0  0  0  0  0  0
    0.5660   10.9530   -7.5880 C   0  0  0  0  0  0  0  0  0  0  0  0
    2.2370   12.4900   -3.2360 O   0  0  0  0  0  0  0  0  0  0  0  0
   -0.4860   10.2490   -7.0720 C   0  0  0  0  0  0  0  0  0  0  0  0
    0.9260   10.7160   -8.9230 C   0  0  0  0  0  0  0  0  0  0  0  0
   -1.2070    9.3220   -7.8210 C   0  0  0  0  0  0  0  0  0  0  0  0
    0.2220    9.7750   -9.6970 C   0  0  0  0  0  0  0  0  0  0  0  0
   -2.3280    8.7150   -7.0440 C   0  0  0  0  0  0  0  0  0  0  0  0
   -0.8540    9.0700   -9.1460 C   0  0  0  0  0  0  0  0  0  0  0  0
   -2.4000    9.7320   -5.9420 C   0  0  0  0  0  0  0  0  0  0  0  0
   -2.1890   11.0680   -6.3060 C   0  0  0  0  0  0  0  0  0  0  0  0
   -2.6350    9.4410   -4.6070 C   0  0  0  0  0  0  0  0  0  0  0  0
   -2.1980   12.0820   -5.3560 C   0  0  0  0  0  0  0  0  0  0  0  0
   -2.6430   10.4750   -3.6500 C   0  0  0  0  0  0  0  0  0  0  0  0
   -2.4180   11.8280   -4.0020 C   0  0  0  0  0  0  0  0  0  0  0  0
   -2.4020   12.8630   -3.0860 N   0  0  0  0  0  0  0  0  0  0  0  0
   -1.9620   14.2290   -3.4490 C   0  0  1  0  0  0  0  0  0  0  0  0
   -2.0100   12.5790   -1.7230 C   0  0  0  0  0  0  0  0  0  0  0  0
   -3.1050   15.2290   -3.3790 C   0  0  0  0  0  0  0  0  0  0  0  0
   -1.2250   13.6960   -1.3180 N   0  0  0  0  0  0  0  0  0  0  0  0
   -0.9490   14.5410   -2.3560 C   0  0  0  0  0  0  0  0  0  0  0  0
   -0.0540   15.3680   -2.3670 O   0  0  0  0  0  0  0  0  0  0  0  0
  1  2  1  0
  2  3  2  0
  1  4  1  0
  4  5  1  0
  2  6  1  0
  5  7  2  0
  6  8  2  0
  6  9  1  0
  8 10  1  0
  9 11  2  0
 10 12  1  0
 10 13  2  0
 11 13  1  0
 12 14  1  0
 14 15  2  0
 14 16  1  0
 15 17  1  0
 16 18  2  0
 17 19  2  0
 18 19  1  0
 19 20  1  0
 20 21  1  0
 20 22  1  0
 21 23  1  1
 22 24  1  0
 21 25  1  0
 24 25  1  0
 25 26  2  0
M  END
