x0253_0_A-x0844_0_A
     RDKit          3D

 25 26  0  0  0  0  0  0  0  0999 V2000
    0.2900   11.9320   -5.3270 N   0  0  0  0  0  0  0  0  0  0  0  0
    1.0540   11.7060   -6.4620 C   0  0  0  0  0  0  0  0  0  0  0  0
    2.1570   12.2050   -6.5800 O   0  0  0  0  0  0  0  0  0  0  0  0
    0.9150   12.4060   -4.0860 C   0  0  0  0  0  0  0  0  0  0  0  0
    0.2510   11.8250   -2.7920 C   0  0  0  0  0  0  0  0  0  0  0  0
    0.4800   10.7900   -7.5120 C   0  0  0  0  0  0  0  0  0  0  0  0
    0.8450   12.4010   -1.6270 O   0  0  0  0  0  0  0  0  0  0  0  0
    0.4580   10.4280   -2.6440 O   0  0  0  0  0  0  0  0  0  0  0  0
   -1.2580   12.1010   -2.6990 C   0  0  0  0  0  0  0  0  0  0  0  0
   -0.4980    9.8740   -7.1040 C   0  0  0  0  0  0  0  0  0  0  0  0
    0.8670   10.7970   -8.8660 C   0  0  0  0  0  0  0  0  0  0  0  0
   -1.6840   13.4160   -2.0330 C   0  0  0  0  0  0  0  0  0  0  0  0
   -1.0830    8.9850   -8.0180 C   0  0  0  0  0  0  0  0  0  0  0  0
    0.2900    9.9170   -9.7770 C   0  0  0  0  0  0  0  0  0  0  0  0
   -2.1300    8.0150   -7.5610 C   0  0  0  0  0  0  0  0  0  0  0  0
   -2.5060   14.3500   -2.9250 C   0  0  0  0  0  0  0  0  0  0  0  0
   -0.6810    9.0150   -9.3580 C   0  0  0  0  0  0  0  0  0  0  0  0
   -3.2270   15.2990   -2.1360 O   0  0  0  0  0  0  0  0  0  0  0  0
   -4.0850   14.7220   -1.1430 C   0  0  1  0  0  0  0  0  0  0  0  0
   -3.5570   15.1070    0.2000 C   0  0  0  0  0  0  0  0  0  0  0  0
   -5.5400   15.1420   -1.3190 C   0  0  0  0  0  0  0  0  0  0  0  0
   -4.3670   15.1480    1.2540 C   0  0  0  0  0  0  0  0  0  0  0  0
   -6.3680   14.8900   -0.0790 C   0  0  0  0  0  0  0  0  0  0  0  0
   -7.5900   14.7450   -0.1190 O   0  0  0  0  0  0  0  0  0  0  0  0
   -5.6870   14.8320    1.1090 N   0  0  0  0  0  0  0  0  0  0  0  0
  1  2  1  0
  2  3  2  0
  1  4  1  0
  4  5  1  0
  2  6  1  0
  5  7  1  0
  5  8  1  0
  5  9  1  0
  6 10  2  0
  6 11  1  0
  9 12  1  0
 10 13  1  0
 11 14  2  0
 13 15  1  0
 12 16  1  0
 13 17  2  0
 14 17  1  0
 16 18  1  0
 19 18  1  6
 19 20  1  0
 19 21  1  0
 20 22  2  0
 21 23  1  0
 23 24  2  0
 22 25  1  0
 23 25  1  0
M  END
