x0253_0_A-x0592_0_A
     RDKit          3D

 28 29  0  0  0  0  0  0  0  0999 V2000
    0.4360   11.9560   -5.4890 N   0  0  0  0  0  0  0  0  0  0  0  0
    1.0070   11.7030   -6.6910 C   0  0  0  0  0  0  0  0  0  0  0  0
    2.1320   12.1270   -6.8250 O   0  0  0  0  0  0  0  0  0  0  0  0
    1.4380   12.2650   -4.4870 C   0  0  0  0  0  0  0  0  0  0  0  0
    0.8170   12.3720   -3.1280 C   0  0  0  0  0  0  0  0  0  0  0  0
    0.3100   10.8720   -7.7260 C   0  0  0  0  0  0  0  0  0  0  0  0
    0.8440   13.4030   -2.3940 N   0  0  0  0  0  0  0  0  0  0  0  0
    0.1800   11.2560   -2.6940 O   0  0  0  0  0  0  0  0  0  0  0  0
   -0.8560   10.1610   -7.4200 C   0  0  0  0  0  0  0  0  0  0  0  0
    0.8360   10.7820   -9.0170 C   0  0  0  0  0  0  0  0  0  0  0  0
    0.1850   13.3930   -1.1270 C   0  0  0  0  0  0  0  0  0  0  0  0
   -1.4710    9.3500   -8.3780 C   0  0  0  0  0  0  0  0  0  0  0  0
    0.2240    9.9850   -9.9820 C   0  0  0  0  0  0  0  0  0  0  0  0
   -2.6980    8.5860   -8.0020 C   0  0  0  0  0  0  0  0  0  0  0  0
    0.1320   14.8050   -0.6220 C   0  0  0  0  0  0  0  0  0  0  0  0
   -0.9230    9.2670   -9.6610 C   0  0  0  0  0  0  0  0  0  0  0  0
   -1.0170   14.8670    0.3430 C   0  0  0  0  0  0  0  0  0  0  0  0
   -2.2840   14.8530   -0.3930 N   0  0  0  0  0  0  0  0  0  0  0  0
   -3.3190   14.8670    0.3350 C   0  0  0  0  0  0  0  0  0  0  0  0
   -3.1140   14.8780    1.6810 N   0  0  0  0  0  0  0  0  0  0  0  0
   -4.7140   14.8760   -0.0280 C   0  0  0  0  0  0  0  0  0  0  0  0
   -5.4110   15.1390   -1.2350 C   0  0  0  0  0  0  0  0  0  0  0  0
   -5.7180   14.5970    0.8640 C   0  0  0  0  0  0  0  0  0  0  0  0
   -6.7450   15.0310   -1.1030 N   0  0  0  0  0  0  0  0  0  0  0  0
   -6.8890   14.6990    0.2000 N   0  0  0  0  0  0  0  0  0  0  0  0
   -8.1870   14.4820    0.8040 C   0  0  0  0  0  0  0  0  0  0  0  0
   -8.0320   14.0660    2.2640 C   0  0  0  0  0  0  0  0  0  0  0  0
   -7.2400   15.0050    2.9910 O   0  0  0  0  0  0  0  0  0  0  0  0
  1  2  1  0
  2  3  2  0
  1  4  1  0
  4  5  1  0
  2  6  1  0
  5  7  2  3
  5  8  1  0
  6  9  2  0
  6 10  1  0
  7 11  1  0
  9 12  1  0
 10 13  2  0
 12 14  1  0
 11 15  1  0
 12 16  2  0
 13 16  1  0
 15 17  1  0
 17 18  1  0
 18 19  2  3
 19 20  1  0
 19 21  1  0
 21 22  1  0
 21 23  2  0
 22 24  2  0
 23 25  1  0
 24 25  1  0
 25 26  1  0
 26 27  1  0
 27 28  1  0
M  END
