x0253_0_A-x0438_0_A
     RDKit          3D

 31 33  0  0  0  0  0  0  0  0999 V2000
    0.4500   11.9500   -5.3800 N   0  0  0  0  0  0  0  0  0  0  0  0
    1.0110   11.7360   -6.6020 C   0  0  0  0  0  0  0  0  0  0  0  0
    2.1220   12.1730   -6.7850 O   0  0  0  0  0  0  0  0  0  0  0  0
    1.3830   12.2710   -4.3190 C   0  0  0  0  0  0  0  0  0  0  0  0
    0.6990   12.2750   -2.9670 C   0  0  0  0  0  0  0  0  0  0  0  0
    0.2980   10.9070   -7.6370 C   0  0  0  0  0  0  0  0  0  0  0  0
    0.7840   13.3190   -2.2300 N   0  0  0  0  0  0  0  0  0  0  0  0
    0.0260   11.1530   -2.6350 O   0  0  0  0  0  0  0  0  0  0  0  0
   -0.8730   10.1990   -7.3390 C   0  0  0  0  0  0  0  0  0  0  0  0
    0.8170   10.8090   -8.9390 C   0  0  0  0  0  0  0  0  0  0  0  0
    0.1150   13.3800   -0.9410 C   0  0  0  0  0  0  0  0  0  0  0  0
   -1.4920    9.3950   -8.3010 C   0  0  0  0  0  0  0  0  0  0  0  0
    0.1970   10.0190   -9.9030 C   0  0  0  0  0  0  0  0  0  0  0  0
   -2.7260    8.6280   -7.9350 C   0  0  0  0  0  0  0  0  0  0  0  0
   -0.5630   14.7400   -0.8370 C   0  0  0  0  0  0  0  0  0  0  0  0
   -0.9530    9.3100   -9.5850 C   0  0  0  0  0  0  0  0  0  0  0  0
   -1.5440   14.8380    0.3290 C   0  0  0  0  0  0  0  0  0  0  0  0
   -3.0210   14.8970   -0.0190 C   0  0  0  0  0  0  0  0  0  0  0  0
   -3.5240   15.2890   -1.2790 C   0  0  0  0  0  0  0  0  0  0  0  0
   -3.9090   14.5330    0.9820 C   0  0  0  0  0  0  0  0  0  0  0  0
   -5.2860   14.5490    0.7310 C   0  0  0  0  0  0  0  0  0  0  0  0
   -4.9060   15.3180   -1.5540 C   0  0  0  0  0  0  0  0  0  0  0  0
   -6.3270   14.2240    1.5550 N   0  0  0  0  0  0  0  0  0  0  0  0
   -5.7520   14.9340   -0.5140 C   0  0  0  0  0  0  0  0  0  0  0  0
   -7.1230   14.8250   -0.4070 N   0  0  0  0  0  0  0  0  0  0  0  0
   -7.4230   14.3870    0.8670 C   0  0  0  0  0  0  0  0  0  0  0  0
   -8.8070   14.1380    1.3480 C   0  0  0  0  0  0  0  0  0  0  0  0
   -9.4140   15.3490    2.5130 S   0  0  0  0  0  0  0  0  0  0  0  0
   -8.1860   15.4970    3.7980 C   0  0  0  0  0  0  0  0  0  0  0  0
  -10.5830   14.7540    3.1430 O   0  0  0  0  0  0  0  0  0  0  0  0
   -9.5720   16.6160    1.8380 O   0  0  0  0  0  0  0  0  0  0  0  0
  1  2  1  0
  2  3  2  0
  1  4  1  0
  4  5  1  0
  2  6  1  0
  5  7  2  3
  5  8  1  0
  6  9  2  0
  6 10  1  0
  7 11  1  0
  9 12  1  0
 10 13  2  0
 12 14  1  0
 11 15  1  0
 12 16  2  0
 13 16  1  0
 15 17  1  0
 17 18  1  0
 18 19  2  0
 18 20  1  0
 20 21  2  0
 19 22  1  0
 21 23  1  0
 21 24  1  0
 22 24  2  0
 24 25  1  0
 23 26  2  0
 25 26  1  0
 26 27  1  0
 28 27  1  0
 28 29  1  0
 28 30  2  0
 28 31  2  0
M  END
