x0253_0_A-x0724_0_A
     RDKit          3D

 31 33  0  0  0  0  0  0  0  0999 V2000
    0.3840   11.9430   -5.3280 N   0  0  0  0  0  0  0  0  0  0  0  0
    1.0530   11.6350   -6.4910 C   0  0  0  0  0  0  0  0  0  0  0  0
    2.1660   12.1080   -6.6280 O   0  0  0  0  0  0  0  0  0  0  0  0
    1.0270   12.6100   -4.1870 C   0  0  0  0  0  0  0  0  0  0  0  0
    0.6490   11.9170   -2.8750 C   0  0  0  0  0  0  0  0  0  0  0  0
    0.4480   10.7280   -7.5050 C   0  0  0  0  0  0  0  0  0  0  0  0
    0.7360   12.4840   -1.7200 N   0  0  0  0  0  0  0  0  0  0  0  0
    0.2030   10.6520   -3.0020 O   0  0  0  0  0  0  0  0  0  0  0  0
   -0.5340    9.8140   -7.1130 C   0  0  0  0  0  0  0  0  0  0  0  0
    0.8480   10.7720   -8.8480 C   0  0  0  0  0  0  0  0  0  0  0  0
    1.2250   13.8570   -1.6500 C   0  0  0  0  0  0  0  0  0  0  0  0
   -1.1140    8.9540   -8.0540 C   0  0  0  0  0  0  0  0  0  0  0  0
    0.2740    9.9180   -9.7840 C   0  0  0  0  0  0  0  0  0  0  0  0
   -2.1710    7.9840   -7.6110 C   0  0  0  0  0  0  0  0  0  0  0  0
    0.0630   14.7220   -1.1710 C   0  0  0  0  0  0  0  0  0  0  0  0
   -0.7050    9.0110   -9.3900 C   0  0  0  0  0  0  0  0  0  0  0  0
   -1.2110   14.5630   -2.0230 C   0  0  0  0  0  0  0  0  0  0  0  0
   -2.5330   14.6060   -1.2930 C   0  0  0  0  0  0  0  0  0  0  0  0
   -2.5780   14.7270    0.1040 C   0  0  0  0  0  0  0  0  0  0  0  0
   -3.7410   14.5220   -2.0010 C   0  0  0  0  0  0  0  0  0  0  0  0
   -3.7950   14.7580    0.7810 C   0  0  0  0  0  0  0  0  0  0  0  0
   -4.9620   14.5520   -1.3280 C   0  0  0  0  0  0  0  0  0  0  0  0
   -4.9970   14.6670    0.0680 C   0  0  0  0  0  0  0  0  0  0  0  0
   -6.2410   14.6920    0.7480 N   0  0  0  0  0  0  0  0  0  0  0  0
   -7.4280   14.5670    0.0980 N   0  0  0  0  0  0  0  0  0  0  0  0
   -6.4360   14.8390    2.1030 C   0  0  0  0  0  0  0  0  0  0  0  0
   -7.7930   14.8230    2.3390 C   0  0  0  0  0  0  0  0  0  0  0  0
   -8.3500   14.6490    1.0590 C   0  0  0  0  0  0  0  0  0  0  0  0
   -8.4980   14.9630    3.6400 C   0  0  0  0  0  0  0  0  0  0  0  0
   -8.2730   13.7890    4.4740 N   0  0  0  0  0  0  0  0  0  0  0  0
   -8.7220   13.9790    5.8440 C   0  0  0  0  0  0  0  0  0  0  0  0
  1  2  1  0
  2  3  2  0
  1  4  1  0
  4  5  1  0
  2  6  1  0
  5  7  2  3
  5  8  1  0
  6  9  2  0
  6 10  1  0
  7 11  1  0
  9 12  1  0
 10 13  2  0
 12 14  1  0
 11 15  1  0
 12 16  2  0
 13 16  1  0
 15 17  1  0
 17 18  1  0
 18 19  2  0
 18 20  1  0
 19 21  1  0
 20 22  2  0
 21 23  2  0
 22 23  1  0
 23 24  1  0
 24 25  1  0
 24 26  1  0
 26 27  2  0
 25 28  2  0
 27 28  1  0
 27 29  1  0
 29 30  1  0
 30 31  1  0
M  END
