x0253_0_A_α-x0727_0_A_α
     RDKit          3D

 15 15  0  0  0  0  0  0  0  0999 V2000
    0.2320   11.7820   -5.4570 N   0  0  0  0  0  0  0  0  0  0  0  0
    1.0520   11.6250   -6.5460 C   0  0  0  0  0  0  0  0  0  0  0  0
    2.1540   12.1400   -6.6140 O   0  0  0  0  0  0  0  0  0  0  0  0
    0.3820   12.8700   -4.4980 C   0  0  1  0  0  0  0  0  0  0  0  0
    0.7190   12.2870   -3.1240 C   0  0  0  0  0  0  0  0  0  0  0  0
    1.4260   13.8660   -4.9470 C   0  0  0  0  0  0  0  0  0  0  0  0
    0.4990   10.7450   -7.6230 C   0  0  0  0  0  0  0  0  0  0  0  0
    1.3470   12.8490   -2.2410 O   0  0  0  0  0  0  0  0  0  0  0  0
    0.2520   11.0400   -2.9230 O   0  0  0  0  0  0  0  0  0  0  0  0
   -0.4710    9.8240   -7.2170 C   0  0  0  0  0  0  0  0  0  0  0  0
    0.8790   10.7840   -8.9710 C   0  0  0  0  0  0  0  0  0  0  0  0
   -1.0630    8.9500   -8.1380 C   0  0  0  0  0  0  0  0  0  0  0  0
    0.2950    9.9180   -9.8900 C   0  0  0  0  0  0  0  0  0  0  0  0
   -2.1040    7.9720   -7.6850 C   0  0  0  0  0  0  0  0  0  0  0  0
   -0.6720    9.0040   -9.4800 C   0  0  0  0  0  0  0  0  0  0  0  0
  1  2  1  0
  2  3  2  0
  1  4  1  0
  4  5  1  0
  4  6  1  6
  2  7  1  0
  5  8  2  0
  5  9  1  0
  7 10  2  0
  7 11  1  0
 10 12  1  0
 11 13  2  0
 12 14  1  0
 12 15  2  0
 13 15  1  0
M  END
