x0253_0_A-x0900_1_A
     RDKit          3D

 14 14  0  0  0  0  0  0  0  0999 V2000
    0.3390   11.9460   -5.4340 N   0  0  0  0  0  0  0  0  0  0  0  0
    1.0910   11.6670   -6.5480 C   0  0  0  0  0  0  0  0  0  0  0  0
    2.2130   12.1180   -6.6460 O   0  0  0  0  0  0  0  0  0  0  0  0
    0.9330   12.8470   -4.4590 C   0  0  0  0  0  0  0  0  0  0  0  0
    0.8250   12.2960   -3.0440 C   0  0  0  0  0  0  0  0  0  0  0  0
    0.4910   10.7640   -7.5830 C   0  0  0  0  0  0  0  0  0  0  0  0
    1.1530   12.8740   -2.0220 O   0  0  0  0  0  0  0  0  0  0  0  0
    0.3110   11.0540   -2.9740 O   0  0  0  0  0  0  0  0  0  0  0  0
   -0.4810    9.8540   -7.1590 C   0  0  0  0  0  0  0  0  0  0  0  0
    0.8550   10.7850   -8.9400 C   0  0  0  0  0  0  0  0  0  0  0  0
   -1.0900    8.9760   -8.0690 C   0  0  0  0  0  0  0  0  0  0  0  0
    0.2550    9.9170   -9.8470 C   0  0  0  0  0  0  0  0  0  0  0  0
   -2.1330    8.0050   -7.5980 C   0  0  0  0  0  0  0  0  0  0  0  0
   -0.7140    9.0160   -9.4160 C   0  0  0  0  0  0  0  0  0  0  0  0
  1  2  1  0
  2  3  2  0
  1  4  1  0
  4  5  1  0
  2  6  1  0
  5  7  2  0
  5  8  1  0
  6  9  2  0
  6 10  1  0
  9 11  1  0
 10 12  2  0
 11 13  1  0
 11 14  2  0
 12 14  1  0
M  END
