x0253_0_A_α-x0574_0_A_α
     RDKit          3D

 28 30  0  0  0  0  0  0  0  0999 V2000
    0.4350   11.8830   -5.5520 N   0  0  0  0  0  0  0  0  0  0  0  0
    1.1100   11.5940   -6.6780 C   0  0  0  0  0  0  0  0  0  0  0  0
    2.2190   12.0630   -6.7550 O   0  0  0  0  0  0  0  0  0  0  0  0
    1.2310   12.6750   -4.6560 C   0  0  0  0  0  0  0  0  0  0  0  0
    0.7910   12.5420   -3.2400 C   0  0  0  0  0  0  0  0  0  0  0  0
    0.4990   10.7140   -7.7000 C   0  0  0  0  0  0  0  0  0  0  0  0
    0.8570   13.5790   -2.5230 N   0  0  0  0  0  0  0  0  0  0  0  0
    0.3420   11.3330   -2.8230 O   0  0  0  0  0  0  0  0  0  0  0  0
   -0.4720    9.8120   -7.2570 C   0  0  0  0  0  0  0  0  0  0  0  0
    0.8470   10.7490   -9.0540 C   0  0  0  0  0  0  0  0  0  0  0  0
    0.3970   13.4430   -1.1780 C   0  0  0  0  0  0  0  0  0  0  0  0
   -1.1000    8.9450   -8.1560 C   0  0  0  0  0  0  0  0  0  0  0  0
    0.2280    9.8890   -9.9550 C   0  0  0  0  0  0  0  0  0  0  0  0
   -2.1430    7.9830   -7.6720 C   0  0  0  0  0  0  0  0  0  0  0  0
    0.7450   14.6830   -0.3610 C   0  0  0  0  0  0  0  0  0  0  0  0
   -0.7420    8.9910   -9.5090 C   0  0  0  0  0  0  0  0  0  0  0  0
    0.1920   14.4950    0.9830 N   0  0  0  0  0  0  0  0  0  0  0  0
   -1.1000   14.5740    0.8500 C   0  0  0  0  0  0  0  0  0  0  0  0
   -2.0530   14.5550    1.7300 N   0  0  0  0  0  0  0  0  0  0  0  0
   -1.5340   14.7280   -0.7880 S   0  0  0  0  0  0  0  0  0  0  0  0
   -3.2500   14.6840    1.0270 C   0  0  0  0  0  0  0  0  0  0  0  0
   -3.1440   14.7980   -0.3550 C   0  0  0  0  0  0  0  0  0  0  0  0
   -4.5320   14.7100    1.5610 C   0  0  0  0  0  0  0  0  0  0  0  0
   -4.2270   14.9430   -1.2120 C   0  0  0  0  0  0  0  0  0  0  0  0
   -5.6390   14.8440    0.7260 C   0  0  0  0  0  0  0  0  0  0  0  0
   -5.4820   14.9640   -0.6450 C   0  0  0  0  0  0  0  0  0  0  0  0
   -6.9330   14.8690    1.1470 O   0  0  0  0  0  0  0  0  0  0  0  0
   -7.1230   14.6450    2.5370 C   0  0  0  0  0  0  0  0  0  0  0  0
  1  2  1  0
  2  3  2  0
  1  4  1  0
  4  5  1  0
  2  6  1  0
  5  7  2  3
  5  8  1  0
  6  9  2  0
  6 10  1  0
  7 11  1  0
  9 12  1  0
 10 13  2  0
 12 14  1  0
 11 15  1  0
 12 16  2  0
 13 16  1  0
 15 17  1  0
 17 18  1  0
 18 19  2  0
 18 20  1  0
 19 21  1  0
 20 22  1  0
 21 22  2  0
 21 23  1  0
 22 24  1  0
 23 25  2  0
 24 26  2  0
 25 26  1  0
 25 27  1  0
 27 28  1  0
M  END
