x0253_0_A-x0591_0_A
     RDKit          3D

 30 31  0  0  0  0  0  0  0  0999 V2000
    0.4120   11.5140   -5.3870 N   0  0  0  0  0  0  0  0  0  0  0  0
    1.0850   11.5330   -6.5740 C   0  0  0  0  0  0  0  0  0  0  0  0
    2.1070   12.1720   -6.7060 O   0  0  0  0  0  0  0  0  0  0  0  0
    0.4750   12.5390   -4.3620 C   0  0  1  0  0  0  0  0  0  0  0  0
    0.8650   12.0320   -2.9750 C   0  0  0  0  0  0  0  0  0  0  0  0
    1.1970   13.8080   -4.7810 C   0  0  0  0  0  0  0  0  0  0  0  0
    0.4810   10.6800   -7.6240 C   0  0  0  0  0  0  0  0  0  0  0  0
    1.5130   12.6660   -2.1590 O   0  0  0  0  0  0  0  0  0  0  0  0
    0.4020   10.7910   -2.7170 O   0  0  0  0  0  0  0  0  0  0  0  0
    0.1360   14.8730   -4.9030 C   0  0  0  0  0  0  0  0  0  0  0  0
   -0.4990    9.7620   -7.2460 C   0  0  0  0  0  0  0  0  0  0  0  0
    0.8670   10.7720   -8.9660 C   0  0  0  0  0  0  0  0  0  0  0  0
   -1.1910   14.1720   -4.9210 N   0  0  0  0  0  0  0  0  0  0  0  0
   -1.1010    8.9350   -8.1960 C   0  0  0  0  0  0  0  0  0  0  0  0
    0.2720    9.9480   -9.9170 C   0  0  0  0  0  0  0  0  0  0  0  0
   -2.1550    7.9570   -7.7770 C   0  0  0  0  0  0  0  0  0  0  0  0
   -2.4190   15.0430   -5.0490 S   0  0  1  0  0  0  0  0  0  0  0  0
   -0.7090    9.0350   -9.5340 C   0  0  0  0  0  0  0  0  0  0  0  0
   -1.5970   16.4900   -4.9360 N   0  0  0  0  0  0  0  0  0  0  0  0
   -3.2190   15.2460   -6.2310 O   0  0  0  0  0  0  0  0  0  0  0  0
   -3.4820   14.8920   -3.6500 C   0  0  0  0  0  0  0  0  0  0  0  0
   -2.9880   14.7880   -2.3450 C   0  0  0  0  0  0  0  0  0  0  0  0
   -4.8430   14.8920   -3.8820 C   0  0  0  0  0  0  0  0  0  0  0  0
   -3.8900   14.7010   -1.2720 C   0  0  0  0  0  0  0  0  0  0  0  0
   -5.7350   14.8110   -2.8250 C   0  0  0  0  0  0  0  0  0  0  0  0
   -5.2740   14.7190   -1.5170 C   0  0  0  0  0  0  0  0  0  0  0  0
   -6.2440   14.6440   -0.4030 C   0  0  0  0  0  0  0  0  0  0  0  0
   -5.8550   14.5270    0.9010 N   0  0  0  0  0  0  0  0  0  0  0  0
   -7.4460   14.6940   -0.6550 O   0  0  0  0  0  0  0  0  0  0  0  0
   -6.7420   14.5200    2.0410 C   0  0  0  0  0  0  0  0  0  0  0  0
  1  2  1  0
  2  3  2  0
  1  4  1  0
  4  5  1  0
  4  6  1  6
  2  7  1  0
  5  8  2  0
  5  9  1  0
  6 10  1  0
  7 11  2  0
  7 12  1  0
 10 13  1  0
 11 14  1  0
 12 15  2  0
 14 16  1  0
 13 17  2  0
 14 18  2  0
 15 18  1  0
 17 19  1  1
 17 20  2  0
 17 21  1  0
 21 22  2  0
 21 23  1  0
 22 24  1  0
 23 25  2  0
 24 26  2  0
 25 26  1  0
 26 27  1  0
 27 28  1  0
 27 29  2  0
 28 30  1  0
M  END
