x0253_0_A_α-x0591_0_A_α
     RDKit          3D

 30 31  0  0  0  0  0  0  0  0999 V2000
    0.4180   11.5050   -5.3800 N   0  0  0  0  0  0  0  0  0  0  0  0
    1.0780   11.5320   -6.5720 C   0  0  0  0  0  0  0  0  0  0  0  0
    2.0980   12.1750   -6.7100 O   0  0  0  0  0  0  0  0  0  0  0  0
    0.4720   12.5370   -4.3590 C   0  0  1  0  0  0  0  0  0  0  0  0
    0.8550   12.0300   -2.9690 C   0  0  0  0  0  0  0  0  0  0  0  0
    1.1980   13.8000   -4.7790 C   0  0  0  0  0  0  0  0  0  0  0  0
    0.4740   10.6820   -7.6210 C   0  0  0  0  0  0  0  0  0  0  0  0
    1.4970   12.6690   -2.1510 O   0  0  0  0  0  0  0  0  0  0  0  0
    0.3950   10.7900   -2.7060 O   0  0  0  0  0  0  0  0  0  0  0  0
    0.1430   14.8730   -4.9030 C   0  0  0  0  0  0  0  0  0  0  0  0
   -0.5090    9.7650   -7.2460 C   0  0  0  0  0  0  0  0  0  0  0  0
    0.8590   10.7710   -8.9630 C   0  0  0  0  0  0  0  0  0  0  0  0
   -1.1860   14.1760   -4.9280 N   0  0  0  0  0  0  0  0  0  0  0  0
   -1.1120    8.9390   -8.1960 C   0  0  0  0  0  0  0  0  0  0  0  0
    0.2640    9.9520   -9.9150 C   0  0  0  0  0  0  0  0  0  0  0  0
   -2.1660    7.9610   -7.7830 C   0  0  0  0  0  0  0  0  0  0  0  0
   -2.4160   15.0450   -5.0550 S   0  0  1  0  0  0  0  0  0  0  0  0
   -0.7190    9.0390   -9.5340 C   0  0  0  0  0  0  0  0  0  0  0  0
   -1.5970   16.4950   -4.9480 N   0  0  0  0  0  0  0  0  0  0  0  0
   -3.2190   15.2400   -6.2360 O   0  0  0  0  0  0  0  0  0  0  0  0
   -3.4820   14.8910   -3.6530 C   0  0  0  0  0  0  0  0  0  0  0  0
   -2.9840   14.7870   -2.3480 C   0  0  0  0  0  0  0  0  0  0  0  0
   -4.8430   14.8900   -3.8820 C   0  0  0  0  0  0  0  0  0  0  0  0
   -3.8880   14.6980   -1.2730 C   0  0  0  0  0  0  0  0  0  0  0  0
   -5.7350   14.8080   -2.8200 C   0  0  0  0  0  0  0  0  0  0  0  0
   -5.2700   14.7160   -1.5160 C   0  0  0  0  0  0  0  0  0  0  0  0
   -6.2450   14.6390   -0.4010 C   0  0  0  0  0  0  0  0  0  0  0  0
   -5.8580   14.5280    0.9050 N   0  0  0  0  0  0  0  0  0  0  0  0
   -7.4450   14.6820   -0.6560 O   0  0  0  0  0  0  0  0  0  0  0  0
   -6.7470   14.5230    2.0440 C   0  0  0  0  0  0  0  0  0  0  0  0
  1  2  1  0
  2  3  2  0
  1  4  1  0
  4  5  1  0
  4  6  1  6
  2  7  1  0
  5  8  2  0
  5  9  1  0
  6 10  1  0
  7 11  2  0
  7 12  1  0
 10 13  1  0
 11 14  1  0
 12 15  2  0
 14 16  1  0
 13 17  2  0
 14 18  2  0
 15 18  1  0
 17 19  1  1
 17 20  2  0
 17 21  1  0
 21 22  2  0
 21 23  1  0
 22 24  1  0
 23 25  2  0
 24 26  2  0
 25 26  1  0
 26 27  1  0
 27 28  1  0
 27 29  2  0
 28 30  1  0
M  END
