x0253_0_A-x0962_0_A
     RDKit          3D

 23 24  0  0  0  0  0  0  0  0999 V2000
    0.5390   11.7430   -5.3920 N   0  0  0  0  0  0  0  0  0  0  0  0
    1.0410   11.6770   -6.6520 C   0  0  0  0  0  0  0  0  0  0  0  0
    2.0930   12.2350   -6.8320 O   0  0  0  0  0  0  0  0  0  0  0  0
    1.5220   11.8850   -4.3220 C   0  0  0  0  0  0  0  0  0  0  0  0
    0.8650   12.1940   -3.0200 C   0  0  0  0  0  0  0  0  0  0  0  0
    0.3340   10.8680   -7.7010 C   0  0  0  0  0  0  0  0  0  0  0  0
    1.2080   13.2610   -2.4450 N   0  0  0  0  0  0  0  0  0  0  0  0
   -0.0670   11.3180   -2.5810 O   0  0  0  0  0  0  0  0  0  0  0  0
   -0.8360   10.1600   -7.4010 C   0  0  0  0  0  0  0  0  0  0  0  0
    0.8430   10.7900   -9.0030 C   0  0  0  0  0  0  0  0  0  0  0  0
    0.5280   13.6660   -1.2450 C   0  0  0  0  0  0  0  0  0  0  0  0
   -1.4680    9.3700   -8.3620 C   0  0  0  0  0  0  0  0  0  0  0  0
    0.2130   10.0150   -9.9700 C   0  0  0  0  0  0  0  0  0  0  0  0
   -2.7000    8.5990   -7.9980 C   0  0  0  0  0  0  0  0  0  0  0  0
   -0.2920   14.8430   -1.7400 C   0  0  0  0  0  0  0  0  0  0  0  0
   -0.9380    9.3010   -9.6500 C   0  0  0  0  0  0  0  0  0  0  0  0
   -1.6970   14.7690   -1.3530 C   0  0  0  0  0  0  0  0  0  0  0  0
   -2.7750   14.7890   -0.8750 C   0  0  0  0  0  0  0  0  0  0  0  0
   -3.9170   14.8550   -0.0830 C   0  0  0  0  0  0  0  0  0  0  0  0
   -3.8380   15.0270    1.2620 N   0  0  0  0  0  0  0  0  0  0  0  0
   -5.2500   14.7770   -0.3720 C   0  0  0  0  0  0  0  0  0  0  0  0
   -5.1040   15.0440    1.7460 C   0  0  0  0  0  0  0  0  0  0  0  0
   -5.9860   14.8940    0.7800 N   0  0  0  0  0  0  0  0  0  0  0  0
  1  2  1  0
  2  3  2  0
  1  4  1  0
  4  5  1  0
  2  6  1  0
  5  7  2  3
  5  8  1  0
  6  9  2  0
  6 10  1  0
  7 11  1  0
  9 12  1  0
 10 13  2  0
 12 14  1  0
 11 15  1  0
 12 16  2  0
 13 16  1  0
 15 17  1  0
 17 18  3  0
 18 19  1  0
 19 20  1  0
 19 21  2  0
 20 22  1  0
 21 23  1  0
 22 23  2  0
M  END
