x0253_0_A_α-x0969_0_A_α
     RDKit          3D

 27 29  0  0  0  0  0  0  0  0999 V2000
    0.3600   11.9980   -5.4020 N   0  0  0  0  0  0  0  0  0  0  0  0
    1.0770   11.6830   -6.5250 C   0  0  0  0  0  0  0  0  0  0  0  0
    2.1940   12.1450   -6.6470 O   0  0  0  0  0  0  0  0  0  0  0  0
    1.0370   12.7440   -4.3430 C   0  0  0  0  0  0  0  0  0  0  0  0
    0.6210   12.3000   -2.9410 C   0  0  0  0  0  0  0  0  0  0  0  0
    0.4620   10.7540   -7.5200 C   0  0  0  0  0  0  0  0  0  0  0  0
    0.4190   13.1350   -1.9750 N   0  0  0  0  0  0  0  0  0  0  0  0
    0.4710   10.9690   -2.7680 O   0  0  0  0  0  0  0  0  0  0  0  0
   -0.5140    9.8400   -7.1220 C   0  0  0  0  0  0  0  0  0  0  0  0
    0.8580   10.7880   -8.8680 C   0  0  0  0  0  0  0  0  0  0  0  0
    0.5710   14.5800   -2.1660 C   0  0  0  0  0  0  0  0  0  0  0  0
   -1.0900    8.9710   -8.0550 C   0  0  0  0  0  0  0  0  0  0  0  0
    0.2900    9.9260   -9.7980 C   0  0  0  0  0  0  0  0  0  0  0  0
   -2.1400    7.9880   -7.6310 C   0  0  0  0  0  0  0  0  0  0  0  0
   -0.5150   15.3270   -1.3480 C   0  0  0  0  0  0  0  0  0  0  0  0
   -0.6820    9.0190   -9.3960 C   0  0  0  0  0  0  0  0  0  0  0  0
   -1.9050   15.4540   -2.0210 C   0  0  0  0  0  0  0  0  0  0  0  0
   -3.1730   15.2950   -1.1870 C   0  0  0  0  0  0  0  0  0  0  0  0
   -4.4160   15.0780   -1.6830 C   0  0  0  0  0  0  0  0  0  0  0  0
   -2.9740   15.3830    0.2640 C   0  0  0  0  0  0  0  0  0  0  0  0
   -5.5240   14.9090   -0.8070 C   0  0  0  0  0  0  0  0  0  0  0  0
   -4.0220   15.2270    1.0920 C   0  0  0  0  0  0  0  0  0  0  0  0
   -6.8060   14.6770   -1.0180 N   0  0  0  0  0  0  0  0  0  0  0  0
   -5.2840   14.9840    0.5510 N   0  0  0  0  0  0  0  0  0  0  0  0
   -6.5220   14.7710    1.1400 C   0  0  0  0  0  0  0  0  0  0  0  0
   -7.4270   14.5900    0.2040 N   0  0  0  0  0  0  0  0  0  0  0  0
   -6.7390   14.7630    2.4710 N   0  0  0  0  0  0  0  0  0  0  0  0
  1  2  1  0
  2  3  2  0
  1  4  1  0
  4  5  1  0
  2  6  1  0
  5  7  2  3
  5  8  1  0
  6  9  2  0
  6 10  1  0
  7 11  1  0
  9 12  1  0
 10 13  2  0
 12 14  1  0
 11 15  1  0
 12 16  2  0
 13 16  1  0
 15 17  1  0
 17 18  1  0
 18 19  2  0
 18 20  1  0
 19 21  1  0
 20 22  2  0
 21 23  2  0
 21 24  1  0
 22 24  1  0
 24 25  1  0
 23 26  1  0
 25 26  2  0
 25 27  1  0
M  END
