x0253_0_A-x0471_0_A
     RDKit          3D

 33 35  0  0  0  0  0  0  0  0999 V2000
    0.4590   11.9380   -5.3470 N   0  0  0  0  0  0  0  0  0  0  0  0
    1.0930   11.6810   -6.5330 C   0  0  0  0  0  0  0  0  0  0  0  0
    2.1720   12.1740   -6.7470 O   0  0  0  0  0  0  0  0  0  0  0  0
    1.2840   12.5620   -4.3220 C   0  0  0  0  0  0  0  0  0  0  0  0
    0.6620   12.4120   -2.9500 C   0  0  0  0  0  0  0  0  0  0  0  0
    0.4470   10.7510   -7.5170 C   0  0  0  0  0  0  0  0  0  0  0  0
    0.6390   13.4120   -2.1610 N   0  0  0  0  0  0  0  0  0  0  0  0
    0.1560   11.1830   -2.6940 O   0  0  0  0  0  0  0  0  0  0  0  0
   -0.5380    9.8450   -7.1220 C   0  0  0  0  0  0  0  0  0  0  0  0
    0.8370   10.7840   -8.8650 C   0  0  0  0  0  0  0  0  0  0  0  0
    0.0450   13.4680   -0.8370 C   0  0  0  0  0  0  0  0  0  0  0  0
   -1.1290    8.9800   -8.0550 C   0  0  0  0  0  0  0  0  0  0  0  0
    0.2550    9.9290   -9.7960 C   0  0  0  0  0  0  0  0  0  0  0  0
   -2.1820    8.0100   -7.6220 C   0  0  0  0  0  0  0  0  0  0  0  0
   -0.6080   14.8310   -0.6920 C   0  0  0  0  0  0  0  0  0  0  0  0
   -0.7250    9.0300   -9.3940 C   0  0  0  0  0  0  0  0  0  0  0  0
   -1.5680   14.9100    0.4940 C   0  0  0  0  0  0  0  0  0  0  0  0
   -3.0320   14.9670    0.0860 C   0  0  0  0  0  0  0  0  0  0  0  0
   -3.4760   15.2540   -1.2260 C   0  0  0  0  0  0  0  0  0  0  0  0
   -3.9740   14.7150    1.0750 C   0  0  0  0  0  0  0  0  0  0  0  0
   -5.3390   14.7350    0.7630 C   0  0  0  0  0  0  0  0  0  0  0  0
   -4.8440   15.2860   -1.5600 C   0  0  0  0  0  0  0  0  0  0  0  0
   -6.4160   14.5070    1.5770 N   0  0  0  0  0  0  0  0  0  0  0  0
   -5.7450   15.0150   -0.5320 C   0  0  0  0  0  0  0  0  0  0  0  0
   -7.1220   14.9440   -0.4730 N   0  0  0  0  0  0  0  0  0  0  0  0
   -7.4760   14.6340    0.8230 C   0  0  0  0  0  0  0  0  0  0  0  0
   -8.8890   14.4770    1.2650 C   0  0  0  0  0  0  0  0  0  0  0  0
   -8.8980   14.0670    2.6580 N   0  0  0  0  0  0  0  0  0  0  0  0
   -8.9850   14.9970    3.6770 C   0  0  0  0  0  0  0  0  0  0  0  0
   -9.2910   16.1700    3.4680 O   0  0  0  0  0  0  0  0  0  0  0  0
   -8.6850   14.4310    5.0650 C   0  0  0  0  0  0  0  0  0  0  0  0
   -9.8960   13.6670    5.6030 C   0  0  0  0  0  0  0  0  0  0  0  0
   -8.2790   15.5410    6.0330 C   0  0  0  0  0  0  0  0  0  0  0  0
  1  2  1  0
  2  3  2  0
  1  4  1  0
  4  5  1  0
  2  6  1  0
  5  7  2  3
  5  8  1  0
  6  9  2  0
  6 10  1  0
  7 11  1  0
  9 12  1  0
 10 13  2  0
 12 14  1  0
 11 15  1  0
 12 16  2  0
 13 16  1  0
 15 17  1  0
 17 18  1  0
 18 19  2  0
 18 20  1  0
 20 21  2  0
 19 22  1  0
 21 23  1  0
 21 24  1  0
 22 24  2  0
 24 25  1  0
 23 26  2  0
 25 26  1  0
 26 27  1  0
 27 28  1  0
 28 29  1  0
 29 30  2  0
 29 31  1  0
 31 32  1  0
 31 33  1  0
M  END
