x0253_0_A-x0676_0_B
     RDKit          3D

 28 30  0  0  0  0  0  0  0  0999 V2000
    0.3930   12.0450   -5.4580 N   0  0  0  0  0  0  0  0  0  0  0  0
    1.1080   11.6600   -6.5620 C   0  0  0  0  0  0  0  0  0  0  0  0
    2.2040   12.1390   -6.7290 O   0  0  0  0  0  0  0  0  0  0  0  0
    1.0740   12.8340   -4.4470 C   0  0  0  0  0  0  0  0  0  0  0  0
    0.8630   12.2850   -3.0380 C   0  0  0  0  0  0  0  0  0  0  0  0
    0.4830   10.6300   -7.4540 C   0  0  0  0  0  0  0  0  0  0  0  0
    1.3030   12.8310   -2.0350 O   0  0  0  0  0  0  0  0  0  0  0  0
    0.1480   11.1360   -2.9740 O   0  0  0  0  0  0  0  0  0  0  0  0
   -0.5480    9.9080   -6.8480 C   0  0  0  0  0  0  0  0  0  0  0  0
    0.8410   10.3410   -8.8030 C   0  0  0  0  0  0  0  0  0  0  0  0
   -1.2300    8.9160   -7.5370 C   0  0  0  0  0  0  0  0  0  0  0  0
    0.1290    9.3160   -9.4790 C   0  0  0  0  0  0  0  0  0  0  0  0
   -2.3380    8.1410   -6.8940 C   0  0  0  0  0  0  0  0  0  0  0  0
    0.2950    8.8060  -10.8830 C   0  0  0  0  0  0  0  0  0  0  0  0
   -0.8810    8.6370   -8.8330 C   0  0  0  0  0  0  0  0  0  0  0  0
    1.6110    8.7610  -11.4550 N   0  0  0  0  0  0  0  0  0  0  0  0
    2.7250    8.2190  -11.1400 C   0  0  0  0  0  0  0  0  0  0  0  0
    3.0260    7.3900   -9.8950 C   0  0  0  0  0  0  0  0  0  0  0  0
    3.8870    8.2530  -11.8470 N   0  0  0  0  0  0  0  0  0  0  0  0
    4.9930    7.7260  -11.1890 N   0  0  0  0  0  0  0  0  0  0  0  0
    4.5340    7.2480  -10.0720 C   0  0  0  0  0  0  0  0  0  0  0  0
    4.0780    9.2290  -12.8610 C   0  0  0  0  0  0  0  0  0  0  0  0
    5.4260    6.6200   -9.0530 C   0  0  0  0  0  0  0  0  0  0  0  0
    3.1620   10.3070  -12.9190 C   0  0  0  0  0  0  0  0  0  0  0  0
    5.0980    9.2030  -13.8090 C   0  0  0  0  0  0  0  0  0  0  0  0
    3.2650   11.3080  -13.8780 C   0  0  0  0  0  0  0  0  0  0  0  0
    5.2040   10.2070  -14.7780 C   0  0  0  0  0  0  0  0  0  0  0  0
    4.2860   11.2600  -14.8110 C   0  0  0  0  0  0  0  0  0  0  0  0
  1  2  1  0
  2  3  2  0
  1  4  1  0
  4  5  1  0
  2  6  1  0
  5  7  2  0
  5  8  1  0
  6  9  2  0
  6 10  1  0
  9 11  1  0
 10 12  2  0
 11 13  1  0
 12 14  1  0
 11 15  2  0
 12 15  1  0
 14 16  1  0
 16 17  2  3
 17 18  1  0
 17 19  1  0
 19 20  1  0
 18 21  1  0
 20 21  2  0
 19 22  1  0
 21 23  1  0
 22 24  2  0
 22 25  1  0
 24 26  1  0
 25 27  2  0
 26 28  2  0
 27 28  1  0
M  END
