x0253_0_A-x1015_0_A
     RDKit          3D

 26 28  0  0  0  0  0  0  0  0999 V2000
    0.4470   12.8000   -5.9740 N   0  0  0  0  0  0  0  0  0  0  0  0
    1.2440   11.9370   -6.6820 C   0  0  0  0  0  0  0  0  0  0  0  0
    2.4420   11.9740   -6.5470 O   0  0  0  0  0  0  0  0  0  0  0  0
    1.0560   13.6880   -5.0010 C   0  0  0  0  0  0  0  0  0  0  0  0
    2.2540   13.0210   -4.3430 C   0  0  0  0  0  0  0  0  0  0  0  0
    0.5590   10.9530   -7.5850 C   0  0  0  0  0  0  0  0  0  0  0  0
    2.2360   12.5220   -3.2170 O   0  0  0  0  0  0  0  0  0  0  0  0
   -0.4950   10.2430   -7.0730 C   0  0  0  0  0  0  0  0  0  0  0  0
    0.9200   10.7150   -8.9220 C   0  0  0  0  0  0  0  0  0  0  0  0
   -1.2120    9.3150   -7.8230 C   0  0  0  0  0  0  0  0  0  0  0  0
    0.2210    9.7750   -9.6960 C   0  0  0  0  0  0  0  0  0  0  0  0
   -2.3330    8.7030   -7.0460 C   0  0  0  0  0  0  0  0  0  0  0  0
   -0.8570    9.0650   -9.1490 C   0  0  0  0  0  0  0  0  0  0  0  0
   -2.4060    9.7250   -5.9440 C   0  0  0  0  0  0  0  0  0  0  0  0
   -2.1970   11.0590   -6.3130 C   0  0  0  0  0  0  0  0  0  0  0  0
   -2.6400    9.4390   -4.6070 C   0  0  0  0  0  0  0  0  0  0  0  0
   -2.2040   12.0780   -5.3660 C   0  0  0  0  0  0  0  0  0  0  0  0
   -2.6440   10.4800   -3.6550 C   0  0  0  0  0  0  0  0  0  0  0  0
   -2.4200   11.8280   -4.0100 C   0  0  0  0  0  0  0  0  0  0  0  0
   -2.4040   12.8670   -3.0920 N   0  0  0  0  0  0  0  0  0  0  0  0
   -1.9600   14.2330   -3.4480 C   0  0  1  0  0  0  0  0  0  0  0  0
   -2.0150   12.5810   -1.7260 C   0  0  0  0  0  0  0  0  0  0  0  0
   -3.1060   15.2370   -3.3840 C   0  0  0  0  0  0  0  0  0  0  0  0
   -1.2440   13.7000   -1.3100 N   0  0  0  0  0  0  0  0  0  0  0  0
   -0.9530   14.5410   -2.3490 C   0  0  0  0  0  0  0  0  0  0  0  0
   -0.0510   15.3600   -2.3550 O   0  0  0  0  0  0  0  0  0  0  0  0
  1  2  1  0
  2  3  2  0
  1  4  1  0
  4  5  1  0
  2  6  1  0
  5  7  2  0
  6  8  2  0
  6  9  1  0
  8 10  1  0
  9 11  2  0
 10 12  1  0
 10 13  2  0
 11 13  1  0
 12 14  1  0
 14 15  2  0
 14 16  1  0
 15 17  1  0
 16 18  2  0
 17 19  2  0
 18 19  1  0
 19 20  1  0
 20 21  1  0
 20 22  1  0
 21 23  1  1
 22 24  1  0
 21 25  1  0
 24 25  1  0
 25 26  2  0
M  END
