x0253_0_A-x0837_0_A
     RDKit          3D

 25 26  0  0  0  0  0  0  0  0999 V2000
    0.3960   11.9450   -5.3140 N   0  0  0  0  0  0  0  0  0  0  0  0
    1.0810   11.6430   -6.5100 C   0  0  0  0  0  0  0  0  0  0  0  0
    2.2280   12.1220   -6.6060 O   0  0  0  0  0  0  0  0  0  0  0  0
    0.9620   12.9040   -4.3700 C   0  0  0  0  0  0  0  0  0  0  0  0
    0.9620   12.3500   -2.9760 C   0  0  0  0  0  0  0  0  0  0  0  0
    0.5240   10.7800   -7.5550 C   0  0  0  0  0  0  0  0  0  0  0  0
    2.3030   12.3260   -2.5960 O   0  0  0  0  0  0  0  0  0  0  0  0
    0.5110   11.0100   -2.9190 O   0  0  0  0  0  0  0  0  0  0  0  0
    0.3340   13.1520   -1.9040 C   0  0  0  0  0  0  0  0  0  0  0  0
   -0.4480    9.8600   -7.1940 C   0  0  0  0  0  0  0  0  0  0  0  0
    0.8960   10.8200   -8.8690 C   0  0  0  0  0  0  0  0  0  0  0  0
   -1.1060   13.3870   -2.0880 C   0  0  0  0  0  0  0  0  0  0  0  0
   -1.0290    9.0120   -8.0920 C   0  0  0  0  0  0  0  0  0  0  0  0
    0.3150    9.9740   -9.8020 C   0  0  0  0  0  0  0  0  0  0  0  0
   -2.0590    8.0540   -7.6630 C   0  0  0  0  0  0  0  0  0  0  0  0
   -1.3720   14.6450   -2.8180 C   0  0  0  0  0  0  0  0  0  0  0  0
   -0.6410    9.0780   -9.4050 C   0  0  0  0  0  0  0  0  0  0  0  0
   -3.4410   15.0610   -2.8850 I   0  0  0  0  0  0  0  0  0  0  0  0
   -4.3940   14.6600   -1.0380 C   0  0  1  0  0  0  0  0  0  0  0  0
   -3.6650   15.1190    0.1590 C   0  0  0  0  0  0  0  0  0  0  0  0
   -5.7540   15.2560   -1.0030 C   0  0  0  0  0  0  0  0  0  0  0  0
   -4.2480   15.2180    1.3270 C   0  0  0  0  0  0  0  0  0  0  0  0
   -6.4380   14.8650    0.2490 C   0  0  0  0  0  0  0  0  0  0  0  0
   -7.6480   14.5660    0.2680 O   0  0  0  0  0  0  0  0  0  0  0  0
   -5.6170   14.8720    1.4310 N   0  0  0  0  0  0  0  0  0  0  0  0
  1  2  1  0
  2  3  2  0
  1  4  1  0
  4  5  1  0
  2  6  1  0
  5  7  1  0
  5  8  1  0
  5  9  1  0
  6 10  2  0
  6 11  1  0
  9 12  1  0
 10 13  1  0
 11 14  2  0
 13 15  1  0
 12 16  1  0
 13 17  2  0
 14 17  1  0
 16 18  1  0
 19 18  1  6
 19 20  1  0
 19 21  1  0
 20 22  2  0
 21 23  1  0
 23 24  2  0
 22 25  1  0
 23 25  1  0
M  END
