x0253_0_A_α-x1018_0_A_α
     RDKit          3D

 27 29  0  0  0  0  0  0  0  0999 V2000
    0.4920   12.0220   -5.5370 N   0  0  0  0  0  0  0  0  0  0  0  0
    1.1370   11.6280   -6.6530 C   0  0  0  0  0  0  0  0  0  0  0  0
    2.2580   12.0420   -6.7700 O   0  0  0  0  0  0  0  0  0  0  0  0
    1.3370   12.7660   -4.6370 C   0  0  0  0  0  0  0  0  0  0  0  0
    0.8330   12.6270   -3.2300 C   0  0  0  0  0  0  0  0  0  0  0  0
    0.4840   10.7130   -7.6150 C   0  0  0  0  0  0  0  0  0  0  0  0
    0.7990   13.5240   -2.3500 N   0  0  0  0  0  0  0  0  0  0  0  0
    0.3580   11.3950   -2.9040 O   0  0  0  0  0  0  0  0  0  0  0  0
   -0.4890    9.8060   -7.1900 C   0  0  0  0  0  0  0  0  0  0  0  0
    0.8430   10.7540   -8.9670 C   0  0  0  0  0  0  0  0  0  0  0  0
    0.2300   13.2010   -1.0990 C   0  0  0  0  0  0  0  0  0  0  0  0
   -1.1030    8.9480   -8.1080 C   0  0  0  0  0  0  0  0  0  0  0  0
    0.2390    9.9040   -9.8840 C   0  0  0  0  0  0  0  0  0  0  0  0
   -2.1510    7.9740   -7.6510 C   0  0  0  0  0  0  0  0  0  0  0  0
   -1.2580   13.4880   -1.1720 C   0  0  0  0  0  0  0  0  0  0  0  0
   -0.7320    9.0040   -9.4590 C   0  0  0  0  0  0  0  0  0  0  0  0
   -1.6990   14.5140   -0.1450 C   0  0  0  0  0  0  0  0  0  0  0  0
   -3.0230   15.0610   -0.4860 N   0  0  0  0  0  0  0  0  0  0  0  0
   -3.2680   15.1130   -1.9260 N   0  0  0  0  0  0  0  0  0  0  0  0
   -4.0730   14.1600   -0.0160 C   0  0  2  0  0  0  0  0  0  0  0  0
   -4.6900   15.0840   -2.0930 N   0  0  0  0  0  0  0  0  0  0  0  0
   -5.1420   14.3300   -1.0120 N   0  0  0  0  0  0  0  0  0  0  0  0
   -4.5260   14.4830    1.3600 C   0  0  0  0  0  0  0  0  0  0  0  0
   -6.4770   14.4410   -0.7130 N   0  0  0  0  0  0  0  0  0  0  0  0
   -5.8100   14.6930    1.6590 C   0  0  0  0  0  0  0  0  0  0  0  0
   -6.7810   14.6000    0.5410 C   0  0  0  0  0  0  0  0  0  0  0  0
   -8.4740   14.7100    0.8950 Cl  0  0  0  0  0  0  0  0  0  0  0  0
  1  2  1  0
  2  3  2  0
  1  4  1  0
  4  5  1  0
  2  6  1  0
  5  7  2  3
  5  8  1  0
  6  9  2  0
  6 10  1  0
  7 11  1  0
  9 12  1  0
 10 13  2  0
 12 14  1  0
 11 15  1  0
 12 16  2  0
 13 16  1  0
 15 17  1  0
 17 18  1  0
 18 19  1  0
 18 20  1  0
 19 21  1  0
 20 22  1  0
 21 22  1  0
 20 23  1  1
 22 24  1  0
 23 25  2  0
 24 26  2  0
 25 26  1  0
 26 27  1  0
M  END
