x0253_0_A-x0950_1_A
     RDKit          3D

 15 15  0  0  0  0  0  0  0  0999 V2000
    0.2480   11.8110   -5.4260 N   0  0  0  0  0  0  0  0  0  0  0  0
    1.0550   11.6280   -6.5260 C   0  0  0  0  0  0  0  0  0  0  0  0
    2.1630   12.1310   -6.6070 O   0  0  0  0  0  0  0  0  0  0  0  0
    0.4700   12.8870   -4.4610 C   0  0  1  0  0  0  0  0  0  0  0  0
    0.7210   12.2920   -3.0760 C   0  0  0  0  0  0  0  0  0  0  0  0
    1.6080   13.7930   -4.8740 C   0  0  0  0  0  0  0  0  0  0  0  0
    0.4900   10.7400   -7.5920 C   0  0  0  0  0  0  0  0  0  0  0  0
    1.2730   12.8650   -2.1500 O   0  0  0  0  0  0  0  0  0  0  0  0
    0.2710   11.0330   -2.9190 O   0  0  0  0  0  0  0  0  0  0  0  0
   -0.4860    9.8190   -7.1840 C   0  0  0  0  0  0  0  0  0  0  0  0
    0.8670   10.7710   -8.9400 C   0  0  0  0  0  0  0  0  0  0  0  0
   -1.0800    8.9460   -8.1040 C   0  0  0  0  0  0  0  0  0  0  0  0
    0.2800    9.9030   -9.8600 C   0  0  0  0  0  0  0  0  0  0  0  0
   -2.1260    7.9670   -7.6550 C   0  0  0  0  0  0  0  0  0  0  0  0
   -0.6900    8.9950   -9.4420 C   0  0  0  0  0  0  0  0  0  0  0  0
  1  2  1  0
  2  3  2  0
  1  4  1  0
  4  5  1  0
  4  6  1  6
  2  7  1  0
  5  8  2  0
  5  9  1  0
  7 10  2  0
  7 11  1  0
 10 12  1  0
 11 13  2  0
 12 14  1  0
 12 15  2  0
 13 15  1  0
M  END
