x0253_0_A-x0844_0_A
     RDKit          3D

 25 26  0  0  0  0  0  0  0  0999 V2000
    0.3000   11.9340   -5.3240 N   0  0  0  0  0  0  0  0  0  0  0  0
    1.0620   11.7090   -6.4590 C   0  0  0  0  0  0  0  0  0  0  0  0
    2.1670   12.2090   -6.5770 O   0  0  0  0  0  0  0  0  0  0  0  0
    0.9240   12.4100   -4.0820 C   0  0  0  0  0  0  0  0  0  0  0  0
    0.2550   11.8340   -2.7840 C   0  0  0  0  0  0  0  0  0  0  0  0
    0.4870   10.7940   -7.5110 C   0  0  0  0  0  0  0  0  0  0  0  0
    0.8530   12.4040   -1.6220 O   0  0  0  0  0  0  0  0  0  0  0  0
    0.4480   10.4350   -2.6430 O   0  0  0  0  0  0  0  0  0  0  0  0
   -1.2510   12.1290   -2.6950 C   0  0  0  0  0  0  0  0  0  0  0  0
   -0.4920    9.8790   -7.1020 C   0  0  0  0  0  0  0  0  0  0  0  0
    0.8700   10.8000   -8.8660 C   0  0  0  0  0  0  0  0  0  0  0  0
   -1.6560   13.4590   -2.0470 C   0  0  0  0  0  0  0  0  0  0  0  0
   -1.0780    8.9910   -8.0180 C   0  0  0  0  0  0  0  0  0  0  0  0
    0.2920    9.9220   -9.7760 C   0  0  0  0  0  0  0  0  0  0  0  0
   -2.1250    8.0210   -7.5620 C   0  0  0  0  0  0  0  0  0  0  0  0
   -2.5170   14.3660   -2.9330 C   0  0  0  0  0  0  0  0  0  0  0  0
   -0.6790    9.0190   -9.3570 C   0  0  0  0  0  0  0  0  0  0  0  0
   -3.2310   15.3130   -2.1380 O   0  0  0  0  0  0  0  0  0  0  0  0
   -4.0860   14.7320   -1.1450 C   0  0  1  0  0  0  0  0  0  0  0  0
   -3.5610   15.1090    0.2000 C   0  0  0  0  0  0  0  0  0  0  0  0
   -5.5430   15.1440   -1.3190 C   0  0  0  0  0  0  0  0  0  0  0  0
   -4.3720   15.1440    1.2540 C   0  0  0  0  0  0  0  0  0  0  0  0
   -6.3710   14.8880   -0.0820 C   0  0  0  0  0  0  0  0  0  0  0  0
   -7.5940   14.7450   -0.1210 O   0  0  0  0  0  0  0  0  0  0  0  0
   -5.6910   14.8250    1.1070 N   0  0  0  0  0  0  0  0  0  0  0  0
  1  2  1  0
  2  3  2  0
  1  4  1  0
  4  5  1  0
  2  6  1  0
  5  7  1  0
  5  8  1  0
  5  9  1  0
  6 10  2  0
  6 11  1  0
  9 12  1  0
 10 13  1  0
 11 14  2  0
 13 15  1  0
 12 16  1  0
 13 17  2  0
 14 17  1  0
 16 18  1  0
 19 18  1  6
 19 20  1  0
 19 21  1  0
 20 22  2  0
 21 23  1  0
 23 24  2  0
 22 25  1  0
 23 25  1  0
M  END
