x0253_0_A-x0676_0_B
     RDKit          3D

 28 30  0  0  0  0  0  0  0  0999 V2000
    0.3920   12.0470   -5.4590 N   0  0  0  0  0  0  0  0  0  0  0  0
    1.1070   11.6610   -6.5620 C   0  0  0  0  0  0  0  0  0  0  0  0
    2.2020   12.1410   -6.7300 O   0  0  0  0  0  0  0  0  0  0  0  0
    1.0740   12.8340   -4.4440 C   0  0  0  0  0  0  0  0  0  0  0  0
    0.8630   12.2860   -3.0340 C   0  0  0  0  0  0  0  0  0  0  0  0
    0.4830   10.6300   -7.4560 C   0  0  0  0  0  0  0  0  0  0  0  0
    1.3000   12.8320   -2.0330 O   0  0  0  0  0  0  0  0  0  0  0  0
    0.1460   11.1370   -2.9730 O   0  0  0  0  0  0  0  0  0  0  0  0
   -0.5510    9.9070   -6.8530 C   0  0  0  0  0  0  0  0  0  0  0  0
    0.8420   10.3380   -8.8060 C   0  0  0  0  0  0  0  0  0  0  0  0
   -1.2320    8.9150   -7.5370 C   0  0  0  0  0  0  0  0  0  0  0  0
    0.1320    9.3130   -9.4810 C   0  0  0  0  0  0  0  0  0  0  0  0
   -2.3430    8.1410   -6.8940 C   0  0  0  0  0  0  0  0  0  0  0  0
    0.2960    8.8000  -10.8830 C   0  0  0  0  0  0  0  0  0  0  0  0
   -0.8810    8.6340   -8.8350 C   0  0  0  0  0  0  0  0  0  0  0  0
    1.6100    8.7570  -11.4560 N   0  0  0  0  0  0  0  0  0  0  0  0
    2.7270    8.2140  -11.1400 C   0  0  0  0  0  0  0  0  0  0  0  0
    3.0280    7.3870   -9.8970 C   0  0  0  0  0  0  0  0  0  0  0  0
    3.8880    8.2510  -11.8490 N   0  0  0  0  0  0  0  0  0  0  0  0
    4.9940    7.7280  -11.1940 N   0  0  0  0  0  0  0  0  0  0  0  0
    4.5350    7.2480  -10.0750 C   0  0  0  0  0  0  0  0  0  0  0  0
    4.0740    9.2290  -12.8600 C   0  0  0  0  0  0  0  0  0  0  0  0
    5.4260    6.6210   -9.0550 C   0  0  0  0  0  0  0  0  0  0  0  0
    3.1580   10.3070  -12.9200 C   0  0  0  0  0  0  0  0  0  0  0  0
    5.0950    9.2030  -13.8090 C   0  0  0  0  0  0  0  0  0  0  0  0
    3.2610   11.3090  -13.8810 C   0  0  0  0  0  0  0  0  0  0  0  0
    5.2010   10.2050  -14.7790 C   0  0  0  0  0  0  0  0  0  0  0  0
    4.2850   11.2580  -14.8140 C   0  0  0  0  0  0  0  0  0  0  0  0
  1  2  1  0
  2  3  2  0
  1  4  1  0
  4  5  1  0
  2  6  1  0
  5  7  2  0
  5  8  1  0
  6  9  2  0
  6 10  1  0
  9 11  1  0
 10 12  2  0
 11 13  1  0
 12 14  1  0
 11 15  2  0
 12 15  1  0
 14 16  1  0
 16 17  2  3
 17 18  1  0
 17 19  1  0
 19 20  1  0
 18 21  1  0
 20 21  2  0
 19 22  1  0
 21 23  1  0
 22 24  2  0
 22 25  1  0
 24 26  1  0
 25 27  2  0
 26 28  2  0
 27 28  1  0
M  END
