x0253_0_A-x0465_0_A
     RDKit          3D

 22 23  0  0  0  0  0  0  0  0999 V2000
    0.2800   11.4570   -5.4910 N   0  0  0  0  0  0  0  0  0  0  0  0
    0.9810   11.4720   -6.7070 C   0  0  0  0  0  0  0  0  0  0  0  0
    2.0380   12.0640   -6.8160 O   0  0  0  0  0  0  0  0  0  0  0  0
    0.5620   12.5990   -4.5750 C   0  0  1  0  0  0  0  0  0  0  0  0
   -0.9360   10.7040   -5.4120 C   0  0  0  0  0  0  0  0  0  0  0  0
    0.6570   12.2170   -3.0900 C   0  0  0  0  0  0  0  0  0  0  0  0
    1.7720   13.4540   -4.9280 C   0  0  0  0  0  0  0  0  0  0  0  0
    0.4110   10.6950   -7.8640 C   0  0  0  0  0  0  0  0  0  0  0  0
   -1.0280    9.3620   -5.8650 C   0  0  0  0  0  0  0  0  0  0  0  0
   -2.0840   11.2900   -4.8780 C   0  0  0  0  0  0  0  0  0  0  0  0
    1.1740   12.8500   -2.1840 O   0  0  0  0  0  0  0  0  0  0  0  0
    0.0860   11.0240   -2.8090 O   0  0  0  0  0  0  0  0  0  0  0  0
    0.0180    8.7120   -6.3990 F   0  0  0  0  0  0  0  0  0  0  0  0
   -0.6550    9.8200   -7.6420 C   0  0  0  0  0  0  0  0  0  0  0  0
    0.9110   10.8100   -9.1650 C   0  0  0  0  0  0  0  0  0  0  0  0
   -2.2130    8.6520   -5.7840 C   0  0  0  0  0  0  0  0  0  0  0  0
   -3.2780   10.5710   -4.8000 C   0  0  0  0  0  0  0  0  0  0  0  0
   -1.2150    9.0680   -8.6760 C   0  0  0  0  0  0  0  0  0  0  0  0
    0.3600   10.0650  -10.2060 C   0  0  0  0  0  0  0  0  0  0  0  0
   -3.3440    9.2540   -5.2510 C   0  0  0  0  0  0  0  0  0  0  0  0
   -2.3560    8.1340   -8.3970 C   0  0  0  0  0  0  0  0  0  0  0  0
   -0.6980    9.1960   -9.9620 C   0  0  0  0  0  0  0  0  0  0  0  0
  1  2  1  0
  2  3  2  0
  1  4  1  0
  1  5  1  0
  4  6  1  0
  4  7  1  6
  2  8  1  0
  5  9  2  0
  5 10  1  0
  6 11  2  0
  6 12  1  0
  9 13  1  0
  8 14  2  0
  8 15  1  0
  9 16  1  0
 10 17  2  0
 14 18  1  0
 15 19  2  0
 16 20  2  0
 17 20  1  0
 18 21  1  0
 18 22  2  0
 19 22  1  0
M  END
