x0282_0_A-x0628_0_A
     RDKit          3D

 27 29  0  0  0  0  0  0  0  0999 V2000
   -7.6870   14.4090    1.1360 C   0  0  0  0  0  0  0  0  0  0  0  0
   -8.5200   14.6070    0.0050 O   0  0  0  0  0  0  0  0  0  0  0  0
   -6.2010   14.3020    0.7860 C   0  0  0  0  0  0  0  0  0  0  0  0
   -5.2920   14.9310    1.8240 C   0  0  0  0  0  0  0  0  0  0  0  0
   -5.7830   14.9180   -0.5500 C   0  0  0  0  0  0  0  0  0  0  0  0
   -3.9800   14.1990    1.7460 C   0  0  0  0  0  0  0  0  0  0  0  0
   -4.2620   15.1150   -0.5720 C   0  0  0  0  0  0  0  0  0  0  0  0
   -3.5580   14.2170    0.3600 N   0  0  0  0  0  0  0  0  0  0  0  0
   -2.1910   14.3690    0.2880 C   0  0  0  0  0  0  0  0  0  0  0  0
   -1.6580   14.3390   -0.9360 N   0  0  0  0  0  0  0  0  0  0  0  0
   -1.4640   14.5320    1.4170 N   0  0  0  0  0  0  0  0  0  0  0  0
   -0.3410   14.4820   -1.0520 C   0  0  0  0  0  0  0  0  0  0  0  0
   -0.1490   14.6740    1.2360 C   0  0  0  0  0  0  0  0  0  0  0  0
    0.3010   14.4270   -2.3980 C   0  0  0  0  0  0  0  0  0  0  0  0
    0.4550   14.6640    0.0070 C   0  0  0  0  0  0  0  0  0  0  0  0
    1.2620   13.3600   -2.2750 O   0  0  0  0  0  0  0  0  0  0  0  0
    1.1400   12.3770   -3.1840 C   0  0  0  0  0  0  0  0  0  0  0  0
    0.7180   11.2430   -2.9700 O   0  0  0  0  0  0  0  0  0  0  0  0
    1.6120   12.9170   -4.5090 C   0  0  0  0  0  0  0  0  0  0  0  0
    0.4510   13.1590   -5.4520 C   0  0  0  0  0  0  0  0  0  0  0  0
   -0.3360   11.9640   -5.6670 N   0  0  0  0  0  0  0  0  0  0  0  0
    0.0760   11.0550   -6.5620 N   0  0  0  0  0  0  0  0  0  0  0  0
   -1.5140   11.5760   -5.0690 C   0  0  0  0  0  0  0  0  0  0  0  0
   -2.2370   12.3530   -4.0340 C   0  0  0  0  0  0  0  0  0  0  0  0
   -1.8760   10.4110   -5.5720 N   0  0  0  0  0  0  0  0  0  0  0  0
   -0.8820   10.1280   -6.4730 C   0  0  0  0  0  0  0  0  0  0  0  0
   -0.8710    8.8960   -7.2820 C   0  0  0  0  0  0  0  0  0  0  0  0
  1  2  1  0
  1  3  1  0
  3  4  1  0
  3  5  1  0
  4  6  1  0
  5  7  1  0
  6  8  1  0
  7  8  1  0
  8  9  1  0
  9 10  2  0
  9 11  1  0
 10 12  1  0
 11 13  2  0
 12 14  1  0
 12 15  2  0
 13 15  1  0
 14 16  1  0
 16 17  1  0
 17 18  2  0
 17 19  1  0
 19 20  1  0
 20 21  1  0
 21 22  1  0
 21 23  1  0
 23 24  1  0
 23 25  2  0
 22 26  2  0
 25 26  1  0
 26 27  1  0
M  END
