x0282_0_A-x1018_0_A
     RDKit          3D

 17 19  0  0  0  0  0  0  0  0999 V2000
   -7.6180   14.8170    0.3910 C   0  0  0  0  0  0  0  0  0  0  0  0
   -8.5270   13.7870    0.0480 O   0  0  0  0  0  0  0  0  0  0  0  0
   -6.1770   14.3010    0.4580 C   0  0  2  0  0  0  0  0  0  0  0  0
   -5.3280   14.9260    1.5980 C   0  0  0  0  0  0  0  0  0  0  0  0
   -5.3570   14.5930   -0.7370 C   0  0  0  0  0  0  0  0  0  0  0  0
   -3.9760   14.1990    1.7340 C   0  0  0  0  0  0  0  0  0  0  0  0
   -4.0190   14.5090   -0.6200 C   0  0  0  0  0  0  0  0  0  0  0  0
   -5.6660   14.9510   -2.0160 N   0  0  0  0  0  0  0  0  0  0  0  0
   -3.3060   14.1920    0.4430 N   0  0  0  0  0  0  0  0  0  0  0  0
   -3.5160   14.8170   -1.8290 N   0  0  0  0  0  0  0  0  0  0  0  0
   -4.5080   15.0860   -2.6820 N   0  0  0  0  0  0  0  0  0  0  0  0
   -1.9820   14.4240    0.3800 C   0  0  0  0  0  0  0  0  0  0  0  0
   -1.5210   14.5770   -0.8690 N   0  0  0  0  0  0  0  0  0  0  0  0
   -1.2480   14.4860    1.4930 N   0  0  0  0  0  0  0  0  0  0  0  0
   -0.2390   14.8100   -1.0310 C   0  0  0  0  0  0  0  0  0  0  0  0
    0.0340   14.7210    1.2630 C   0  0  0  0  0  0  0  0  0  0  0  0
    0.5940   14.8970    0.0120 C   0  0  0  0  0  0  0  0  0  0  0  0
  1  2  1  0
  3  1  1  6
  3  4  1  0
  3  5  1  0
  4  6  1  0
  5  7  2  0
  5  8  1  0
  6  9  1  0
  7  9  1  0
  7 10  1  0
  8 11  2  0
 10 11  1  0
  9 12  1  0
 12 13  2  0
 12 14  1  0
 13 15  1  0
 14 16  2  0
 15 17  2  0
 16 17  1  0
M  END
