x0282_0_A_α-x0926_0_A_α
     RDKit          3D

 14 15  0  0  0  0  0  0  0  0999 V2000
   -7.0720   13.3520    0.5720 C   0  0  0  0  0  0  0  0  0  0  0  0
   -8.4480   13.6110    0.3010 O   0  0  0  0  0  0  0  0  0  0  0  0
   -6.3520   14.6850    0.6080 C   0  0  0  0  0  0  0  0  0  0  0  0
   -5.4100   14.8340    1.8110 C   0  0  0  0  0  0  0  0  0  0  0  0
   -5.6300   15.0580   -0.6980 C   0  0  0  0  0  0  0  0  0  0  0  0
   -4.1360   14.0190    1.6280 C   0  0  0  0  0  0  0  0  0  0  0  0
   -4.3170   14.2980   -0.8800 C   0  0  0  0  0  0  0  0  0  0  0  0
   -3.5420   14.3320    0.3520 N   0  0  0  0  0  0  0  0  0  0  0  0
   -2.1870   14.4670    0.2720 C   0  0  0  0  0  0  0  0  0  0  0  0
   -1.6830   14.5520   -0.9680 N   0  0  0  0  0  0  0  0  0  0  0  0
   -1.4310   14.5090    1.3910 N   0  0  0  0  0  0  0  0  0  0  0  0
   -0.3690   14.6900   -1.1050 C   0  0  0  0  0  0  0  0  0  0  0  0
   -0.1130   14.6460    1.1910 C   0  0  0  0  0  0  0  0  0  0  0  0
    0.4720   14.7470   -0.0500 C   0  0  0  0  0  0  0  0  0  0  0  0
  1  2  1  0
  1  3  1  0
  3  4  1  0
  3  5  1  0
  4  6  1  0
  5  7  1  0
  6  8  1  0
  7  8  1  0
  8  9  1  0
  9 10  2  0
  9 11  1  0
 10 12  1  0
 11 13  2  0
 12 14  2  0
 13 14  1  0
M  END
