x0282_0_A_α-x0910_2_B_α
     RDKit          3D

 26 28  0  0  0  0  0  0  0  0999 V2000
   -7.4470   13.5160    0.1830 C   0  0  0  0  0  0  0  0  0  0  0  0
   -8.7320   14.1010   -0.0350 O   0  0  0  0  0  0  0  0  0  0  0  0
   -8.7870   15.0200   -1.1370 C   0  0  0  0  0  0  0  0  0  0  0  0
   -6.4580   14.5950    0.5940 C   0  0  0  0  0  0  0  0  0  0  0  0
   -5.5490   14.2070    1.7660 C   0  0  0  0  0  0  0  0  0  0  0  0
   -5.7010   15.2470   -0.5880 C   0  0  0  0  0  0  0  0  0  0  0  0
   -9.0800   16.4390   -0.6510 C   0  0  0  0  0  0  0  0  0  0  0  0
   -4.1220   13.7950    1.4250 C   0  0  0  0  0  0  0  0  0  0  0  0
   -4.2950   14.7210   -0.8170 C   0  0  0  0  0  0  0  0  0  0  0  0
  -10.4930   16.9310   -0.9620 C   0  0  0  0  0  0  0  0  0  0  0  0
   -3.5920   14.7120    0.4530 N   0  0  0  0  0  0  0  0  0  0  0  0
  -10.5970   18.0810   -1.9650 C   0  0  0  0  0  0  0  0  0  0  0  0
   -2.2210   14.6460    0.3180 C   0  0  0  0  0  0  0  0  0  0  0  0
  -11.5680   19.2060   -1.5820 C   0  0  0  0  0  0  0  0  0  0  0  0
   -1.7460   14.6440   -0.9340 N   0  0  0  0  0  0  0  0  0  0  0  0
   -1.4390   14.5940    1.4170 N   0  0  0  0  0  0  0  0  0  0  0  0
  -12.2950   19.8360   -2.7750 C   0  0  0  0  0  0  0  0  0  0  0  0
   -0.4320   14.5980   -1.1080 C   0  0  0  0  0  0  0  0  0  0  0  0
   -0.1230   14.5490    1.1840 C   0  0  0  0  0  0  0  0  0  0  0  0
  -11.8320   21.1940   -3.0130 N   0  0  0  0  0  0  0  0  0  0  0  0
    0.4380   14.5530   -0.0790 C   0  0  0  0  0  0  0  0  0  0  0  0
  -12.2970   22.2020   -2.2420 C   0  0  0  0  0  0  0  0  0  0  0  0
  -11.7980   23.4650   -2.3710 N   0  0  0  0  0  0  0  0  0  0  0  0
  -13.2200   22.2040   -1.3030 N   0  0  0  0  0  0  0  0  0  0  0  0
  -12.3880   24.3100   -1.5170 N   0  0  0  0  0  0  0  0  0  0  0  0
  -13.2400   23.5030   -0.8880 C   0  0  0  0  0  0  0  0  0  0  0  0
  1  2  1  0
  2  3  1  0
  1  4  1  0
  4  5  1  0
  4  6  1  0
  3  7  1  0
  5  8  1  0
  6  9  1  0
  7 10  1  0
  8 11  1  0
  9 11  1  0
 10 12  1  0
 11 13  1  0
 12 14  1  0
 13 15  2  0
 13 16  1  0
 14 17  1  0
 15 18  1  0
 16 19  2  0
 17 20  1  0
 18 21  2  0
 19 21  1  0
 20 22  1  0
 22 23  1  0
 22 24  2  0
 23 25  1  0
 24 26  1  0
 25 26  2  0
M  END
