x0282_0_A-x1015_0_A
     RDKit          3D

 29 32  0  0  0  0  0  0  0  0999 V2000
   -7.0910   13.4570    0.4550 C   0  0  0  0  0  0  0  0  0  0  0  0
   -8.4710   13.7660    0.2560 O   0  0  0  0  0  0  0  0  0  0  0  0
   -6.3150   14.7560    0.2790 C   0  0  0  0  0  0  0  0  0  0  0  0
   -5.3670   15.0500    1.4570 C   0  0  0  0  0  0  0  0  0  0  0  0
   -5.5670   14.8840   -1.0510 C   0  0  0  0  0  0  0  0  0  0  0  0
   -4.0870   14.2430    1.4030 C   0  0  0  0  0  0  0  0  0  0  0  0
   -4.1540   14.2840   -1.0380 C   0  0  0  0  0  0  0  0  0  0  0  0
   -3.4700   14.5720    0.2070 N   0  0  0  0  0  0  0  0  0  0  0  0
   -2.1190   14.6540    0.2150 C   0  0  0  0  0  0  0  0  0  0  0  0
   -1.5730   14.7580   -0.9670 N   0  0  0  0  0  0  0  0  0  0  0  0
   -1.4210   14.6300    1.3760 N   0  0  0  0  0  0  0  0  0  0  0  0
   -0.2720   14.8580   -1.0360 C   0  0  0  0  0  0  0  0  0  0  0  0
   -0.0900   14.7320    1.2350 C   0  0  0  0  0  0  0  0  0  0  0  0
    0.1900   14.9480   -2.3160 N   0  0  0  0  0  0  0  0  0  0  0  0
    0.5340   14.8580    0.0180 C   0  0  0  0  0  0  0  0  0  0  0  0
    0.2170   13.8210   -2.8700 C   0  0  0  0  0  0  0  0  0  0  0  0
    0.5330   13.4120   -4.2730 C   0  0  2  0  0  0  0  0  0  0  0  0
   -0.1120   12.7360   -2.1240 N   0  0  0  0  0  0  0  0  0  0  0  0
   -0.4880   14.1420   -5.1470 C   0  0  0  0  0  0  0  0  0  0  0  0
    0.2460   11.9850   -4.1510 N   0  0  0  0  0  0  0  0  0  0  0  0
    0.1870   11.6080   -2.8050 C   0  0  0  0  0  0  0  0  0  0  0  0
    0.3600   10.5060   -2.2770 O   0  0  0  0  0  0  0  0  0  0  0  0
   -0.3060   11.2450   -5.2120 C   0  0  0  0  0  0  0  0  0  0  0  0
    0.1590   11.4460   -6.5170 C   0  0  0  0  0  0  0  0  0  0  0  0
   -1.3170   10.3010   -5.0020 C   0  0  0  0  0  0  0  0  0  0  0  0
   -0.3680   10.7190   -7.5830 C   0  0  0  0  0  0  0  0  0  0  0  0
   -1.8490    9.5710   -6.0670 C   0  0  0  0  0  0  0  0  0  0  0  0
   -1.3690    9.7840   -7.3540 C   0  0  0  0  0  0  0  0  0  0  0  0
   -2.0160    8.8870   -8.6660 Cl  0  0  0  0  0  0  0  0  0  0  0  0
  1  2  1  0
  1  3  1  0
  3  4  1  0
  3  5  1  0
  4  6  1  0
  5  7  1  0
  6  8  1  0
  7  8  1  0
  8  9  1  0
  9 10  2  0
  9 11  1  0
 10 12  1  0
 11 13  2  0
 12 14  1  0
 12 15  2  0
 13 15  1  0
 14 16  2  3
 16 17  1  0
 16 18  1  0
 17 19  1  6
 17 20  1  0
 18 21  1  0
 20 21  1  0
 21 22  2  0
 20 23  1  0
 23 24  2  0
 23 25  1  0
 24 26  1  0
 25 27  2  0
 26 28  2  0
 27 28  1  0
 28 29  1  0
M  END
