x0282_0_A-x0766_0_A
     RDKit          3D

 25 28  0  0  0  0  0  0  0  0999 V2000
   -7.3580   13.3150    0.7040 C   0  0  0  0  0  0  0  0  0  0  0  0
   -8.6350   13.7970    0.2840 O   0  0  0  0  0  0  0  0  0  0  0  0
   -6.4110   14.4990    0.8000 C   0  0  0  0  0  0  0  0  0  0  0  0
   -5.4220   14.3640    1.9620 C   0  0  0  0  0  0  0  0  0  0  0  0
   -5.6580   14.8230   -0.4990 C   0  0  0  0  0  0  0  0  0  0  0  0
   -3.9900   14.5850    1.4790 C   0  0  0  0  0  0  0  0  0  0  0  0
   -4.5620   13.7640   -0.7310 C   0  0  0  0  0  0  0  0  0  0  0  0
   -3.5960   13.6870    0.3780 N   0  0  0  0  0  0  0  0  0  0  0  0
   -2.1490   13.7970    0.0390 C   0  0  1  0  0  0  0  0  0  0  0  0
   -1.7420   15.0010   -0.9040 C   0  0  1  0  0  0  0  0  0  0  0  0
   -1.5760   13.9910    1.3790 N   0  0  0  0  0  0  0  0  0  0  0  0
   -0.6210   15.8530   -0.3650 C   0  0  0  0  0  0  0  0  0  0  0  0
   -0.1650   14.1310    1.3210 C   0  0  0  0  0  0  0  0  0  0  0  0
   -1.3870   14.8650   -2.3880 C   0  0  0  0  0  0  0  0  0  0  0  0
   -3.3120   15.7960   -1.4250 S   0  0  0  0  0  0  0  0  0  0  0  0
    0.1100   15.4060    0.6670 C   0  0  0  0  0  0  0  0  0  0  0  0
   -0.0510   14.3610   -3.0140 C   0  0  1  0  0  0  0  0  0  0  0  0
   -2.5350   15.3470   -2.8980 C   0  0  0  0  0  0  0  0  0  0  0  0
   -0.0280   13.0830   -3.8320 C   0  0  2  0  0  0  0  0  0  0  0  0
    0.4770   15.4630   -3.9120 C   0  0  0  0  0  0  0  0  0  0  0  0
    0.4600   12.0330   -2.8810 C   0  0  0  0  0  0  0  0  0  0  0  0
    0.9940   13.3370   -4.9650 C   0  0  0  0  0  0  0  0  0  0  0  0
    1.4700   14.7820   -4.8100 C   0  0  0  0  0  0  0  0  0  0  0  0
    1.3600   12.1730   -2.0810 O   0  0  0  0  0  0  0  0  0  0  0  0
   -0.2090   10.8720   -2.9610 O   0  0  0  0  0  0  0  0  0  0  0  0
  1  2  1  0
  1  3  1  0
  3  4  1  0
  3  5  1  0
  4  6  1  0
  5  7  1  0
  6  8  1  0
  7  8  1  0
  9  8  1  1
  9 10  1  0
  9 11  1  0
 10 12  1  1
 11 13  1  0
 10 14  1  0
 10 15  1  0
 12 16  2  0
 13 16  1  0
 17 14  1  6
 14 18  2  0
 15 18  1  0
 17 19  1  0
 17 20  1  0
 19 21  1  1
 19 22  1  0
 20 23  1  0
 22 23  1  0
 21 24  2  0
 21 25  1  0
M  END
