x0282_0_A_α-x0685_1_A_α
     RDKit          3D

 27 29  0  0  0  0  0  0  0  0999 V2000
   -7.8720   14.5250    0.5910 C   0  0  0  0  0  0  0  0  0  0  0  0
   -8.6840   14.4220   -0.5590 O   0  0  0  0  0  0  0  0  0  0  0  0
   -6.3830   14.4110    0.2580 C   0  0  0  0  0  0  0  0  0  0  0  0
   -5.5900   14.4590    1.5350 C   0  0  0  0  0  0  0  0  0  0  0  0
   -5.7650   15.3450   -0.8090 C   0  0  0  0  0  0  0  0  0  0  0  0
   -4.2510   15.1760    1.3800 C   0  0  0  0  0  0  0  0  0  0  0  0
   -4.2980   14.9790   -1.0700 C   0  0  0  0  0  0  0  0  0  0  0  0
   -3.6170   14.6910    0.1870 N   0  0  0  0  0  0  0  0  0  0  0  0
   -2.2590   14.5490    0.1760 C   0  0  0  0  0  0  0  0  0  0  0  0
   -1.7220   14.3260   -1.0280 N   0  0  0  0  0  0  0  0  0  0  0  0
   -1.5330   14.6310    1.3210 N   0  0  0  0  0  0  0  0  0  0  0  0
   -0.4060   14.1850   -1.1180 C   0  0  0  0  0  0  0  0  0  0  0  0
   -0.2060   14.4880    1.1630 C   0  0  0  0  0  0  0  0  0  0  0  0
    0.0700   13.9510   -2.3780 O   0  0  0  0  0  0  0  0  0  0  0  0
    0.3900   14.2650   -0.0620 C   0  0  0  0  0  0  0  0  0  0  0  0
    0.6350   12.5410   -2.9310 S   0  0  0  0  0  0  0  0  0  0  0  0
    0.0640   12.5340   -4.6110 C   0  0  0  0  0  0  0  0  0  0  0  0
    2.2370   12.4850   -3.0380 O   0  0  0  0  0  0  0  0  0  0  0  0
    0.0630   11.1880   -2.2720 O   0  0  0  0  0  0  0  0  0  0  0  0
   -1.3840   12.0660   -4.7050 C   0  0  0  0  0  0  0  0  0  0  0  0
   -1.4560   10.6360   -5.0090 N   0  0  0  0  0  0  0  0  0  0  0  0
   -0.7760   10.3310   -6.2730 C   0  0  0  0  0  0  0  0  0  0  0  0
   -0.6000    8.8200   -6.5020 C   0  0  0  0  0  0  0  0  0  0  0  0
   -1.5820   10.9300   -7.4360 C   0  0  0  0  0  0  0  0  0  0  0  0
    0.0580    8.4960   -7.8430 C   0  0  0  0  0  0  0  0  0  0  0  0
   -0.9840   10.6030   -8.8060 C   0  0  0  0  0  0  0  0  0  0  0  0
   -0.7000    9.1110   -9.0140 C   0  0  0  0  0  0  0  0  0  0  0  0
  1  2  1  0
  1  3  1  0
  3  4  1  0
  3  5  1  0
  4  6  1  0
  5  7  1  0
  6  8  1  0
  7  8  1  0
  8  9  1  0
  9 10  2  0
  9 11  1  0
 10 12  1  0
 11 13  2  0
 12 14  1  0
 12 15  2  0
 13 15  1  0
 16 14  1  0
 16 17  1  0
 16 18  1  0
 16 19  1  0
 17 20  1  0
 20 21  1  0
 21 22  1  0
 22 23  1  0
 22 24  1  0
 23 25  1  0
 24 26  1  0
 25 27  1  0
 26 27  1  0
M  END
