x0282_0_A-x0967_0_A
     RDKit          3D

 18 20  0  0  0  0  0  0  0  0999 V2000
   -7.4420   12.6770    0.9410 C   0  0  0  0  0  0  0  0  0  0  0  0
   -8.5230   13.3590    0.3010 O   0  0  0  0  0  0  0  0  0  0  0  0
   -6.1480   12.9360    0.1710 C   0  0  0  0  0  0  0  0  0  0  0  0
   -5.7350   14.3950   -0.0250 C   0  0  1  0  0  0  0  0  0  0  0  0
   -4.3600   14.5490   -0.7280 C   0  0  0  0  0  0  0  0  0  0  0  0
   -6.8750   15.1040   -0.6680 N   0  0  0  0  0  0  0  0  0  0  0  0
   -5.3750   15.0230    1.3150 C   0  0  1  0  0  0  0  0  0  0  0  0
   -6.5630   14.9100    2.2200 C   0  0  0  0  0  0  0  0  0  0  0  0
   -4.1130   14.2340    1.6610 C   0  0  0  0  0  0  0  0  0  0  0  0
   -3.4660   14.1750    0.3680 N   0  0  0  0  0  0  0  0  0  0  0  0
   -8.0690   15.0840    0.1950 C   0  0  0  0  0  0  0  0  0  0  0  0
   -2.1370   14.3830    0.2710 C   0  0  0  0  0  0  0  0  0  0  0  0
   -7.7970   14.9320    1.6850 C   0  0  0  0  0  0  0  0  0  0  0  0
   -1.6500   14.4980   -0.9690 N   0  0  0  0  0  0  0  0  0  0  0  0
   -1.3940   14.4600    1.3960 N   0  0  0  0  0  0  0  0  0  0  0  0
   -0.3440   14.7030   -1.1020 C   0  0  0  0  0  0  0  0  0  0  0  0
   -0.0880   14.6640    1.1950 C   0  0  0  0  0  0  0  0  0  0  0  0
    0.4910   14.7980   -0.0450 C   0  0  0  0  0  0  0  0  0  0  0  0
  1  2  1  0
  1  3  1  0
  4  3  1  1
  4  5  1  0
  4  6  1  0
  4  7  1  0
  7  8  1  1
  7  9  1  0
  5 10  1  0
  9 10  1  0
  6 11  1  0
 10 12  1  0
  8 13  2  0
 11 13  1  0
 12 14  2  0
 12 15  1  0
 14 16  1  0
 15 17  2  0
 16 18  2  0
 17 18  1  0
M  END
