x0282_0_A_α-x0421_0_A_α
     RDKit          3D

 19 21  0  0  0  0  0  0  0  0999 V2000
   -6.8860   12.5510    0.3950 C   0  0  0  0  0  0  0  0  0  0  0  0
   -8.0430   12.4980   -0.1820 O   0  0  0  0  0  0  0  0  0  0  0  0
   -6.6140   14.3730    1.0900 S   0  0  0  0  0  0  0  0  0  0  0  0
   -5.1070   15.2550    1.7620 C   0  0  0  0  0  0  0  0  0  0  0  0
   -5.5940   15.0120   -0.2870 C   0  0  0  0  0  0  0  0  0  0  0  0
   -8.1260   14.9110    2.0890 C   0  0  0  0  0  0  0  0  0  0  0  0
   -8.3810   15.0490    0.7710 C   0  0  0  0  0  0  0  0  0  0  0  0
   -3.9950   14.2590    1.6560 C   0  0  0  0  0  0  0  0  0  0  0  0
   -4.3520   14.3470   -0.6070 C   0  0  1  0  0  0  0  0  0  0  0  0
   -3.7350   14.8840   -1.9060 C   0  0  0  0  0  0  0  0  0  0  0  0
   -3.3660   14.2020    0.4120 N   0  0  0  0  0  0  0  0  0  0  0  0
   -4.5300   15.0770   -3.0360 N   0  0  0  0  0  0  0  0  0  0  0  0
   -2.5060   15.1200   -1.9260 O   0  0  0  0  0  0  0  0  0  0  0  0
   -2.0360   14.3910    0.3060 C   0  0  0  0  0  0  0  0  0  0  0  0
   -1.5170   14.4150   -0.9100 N   0  0  0  0  0  0  0  0  0  0  0  0
   -1.2700   14.5500    1.3930 N   0  0  0  0  0  0  0  0  0  0  0  0
   -0.2400   14.6060   -1.1430 C   0  0  0  0  0  0  0  0  0  0  0  0
    0.0340   14.7400    1.1790 C   0  0  0  0  0  0  0  0  0  0  0  0
    0.5810   14.7790   -0.0900 C   0  0  0  0  0  0  0  0  0  0  0  0
  1  2  1  0
  1  3  1  0
  3  4  1  0
  3  5  1  0
  3  6  1  0
  3  7  1  0
  6  7  1  0
  4  8  1  0
  5  9  1  0
  9 10  1  6
  8 11  1  0
  9 11  1  0
 10 12  1  0
 10 13  2  0
 11 14  1  0
 14 15  2  0
 14 16  1  0
 15 17  1  0
 16 18  2  0
 17 19  2  0
 18 19  1  0
M  END
