x0282_0_A-x0727_0_A
     RDKit          3D

 28 30  0  0  0  0  0  0  0  0999 V2000
   -7.6810   14.4060    1.1410 C   0  0  0  0  0  0  0  0  0  0  0  0
   -8.4790   14.5980   -0.0170 O   0  0  0  0  0  0  0  0  0  0  0  0
   -6.1920   14.3120    0.7900 C   0  0  0  0  0  0  0  0  0  0  0  0
   -5.2680   14.9340    1.8190 C   0  0  0  0  0  0  0  0  0  0  0  0
   -5.7610   14.9120   -0.5440 C   0  0  0  0  0  0  0  0  0  0  0  0
   -3.9530   14.2080    1.7520 C   0  0  0  0  0  0  0  0  0  0  0  0
   -4.2370   15.0950   -0.5890 C   0  0  0  0  0  0  0  0  0  0  0  0
   -3.5270   14.2210    0.3680 N   0  0  0  0  0  0  0  0  0  0  0  0
   -2.1560   14.3600    0.2820 C   0  0  0  0  0  0  0  0  0  0  0  0
   -1.6360   14.2900   -0.9420 N   0  0  0  0  0  0  0  0  0  0  0  0
   -1.4160   14.5490    1.3980 N   0  0  0  0  0  0  0  0  0  0  0  0
   -0.3170   14.4190   -1.0860 C   0  0  0  0  0  0  0  0  0  0  0  0
   -0.1000   14.6810    1.1940 C   0  0  0  0  0  0  0  0  0  0  0  0
    0.2600   14.3050   -2.4600 C   0  0  0  0  0  0  0  0  0  0  0  0
    0.4920   14.6290   -0.0440 C   0  0  0  0  0  0  0  0  0  0  0  0
   -0.3550   13.1360   -3.0020 O   0  0  0  0  0  0  0  0  0  0  0  0
    0.4190   12.0920   -3.3510 C   0  0  0  0  0  0  0  0  0  0  0  0
    0.8950   12.3110   -4.7790 C   0  0  1  0  0  0  0  0  0  0  0  0
    0.6640   11.1190   -2.6430 O   0  0  0  0  0  0  0  0  0  0  0  0
    0.1510   11.3880   -5.6370 N   0  0  0  0  0  0  0  0  0  0  0  0
    0.6310   13.7480   -5.1900 C   0  0  0  0  0  0  0  0  0  0  0  0
    0.7220   11.0710   -6.8380 C   0  0  0  0  0  0  0  0  0  0  0  0
    1.6620   11.6940   -7.2410 O   0  0  0  0  0  0  0  0  0  0  0  0
    0.1090    9.8840   -7.5780 C   0  0  0  0  0  0  0  0  0  0  0  0
   -1.1940   10.2580   -8.2830 C   0  0  0  0  0  0  0  0  0  0  0  0
   -0.2220    8.7240   -6.6190 C   0  0  0  0  0  0  0  0  0  0  0  0
   -2.1670    9.1210   -8.0000 C   0  0  0  0  0  0  0  0  0  0  0  0
   -1.7300    8.5340   -6.6700 C   0  0  0  0  0  0  0  0  0  0  0  0
  1  2  1  0
  1  3  1  0
  3  4  1  0
  3  5  1  0
  4  6  1  0
  5  7  1  0
  6  8  1  0
  7  8  1  0
  8  9  1  0
  9 10  2  0
  9 11  1  0
 10 12  1  0
 11 13  2  0
 12 14  1  0
 12 15  2  0
 13 15  1  0
 14 16  1  0
 16 17  1  0
 17 18  1  0
 17 19  2  0
 18 20  1  0
 18 21  1  6
 20 22  1  0
 22 23  2  0
 22 24  1  0
 24 25  1  0
 24 26  1  0
 25 27  1  0
 26 28  1  0
 27 28  1  0
M  END
