x0282_0_A_α-x0631_0_A_β
     RDKit          3D

 27 29  0  0  0  0  0  0  0  0999 V2000
   -7.1010   13.3620    0.5010 C   0  0  0  0  0  0  0  0  0  0  0  0
   -8.4540   13.6220    0.1330 O   0  0  0  0  0  0  0  0  0  0  0  0
   -6.3850   14.6950    0.5890 C   0  0  0  0  0  0  0  0  0  0  0  0
   -5.4480   14.7700    1.8030 C   0  0  0  0  0  0  0  0  0  0  0  0
   -5.6820   15.1410   -0.7060 C   0  0  0  0  0  0  0  0  0  0  0  0
   -4.1460   14.0230    1.5680 C   0  0  0  0  0  0  0  0  0  0  0  0
   -4.3360   14.4620   -0.8980 C   0  0  0  0  0  0  0  0  0  0  0  0
   -3.5620   14.4960    0.3340 N   0  0  0  0  0  0  0  0  0  0  0  0
   -2.2070   14.4360    0.2270 C   0  0  0  0  0  0  0  0  0  0  0  0
   -1.7430   14.1520   -0.9990 N   0  0  0  0  0  0  0  0  0  0  0  0
   -1.4150   14.6510    1.2950 N   0  0  0  0  0  0  0  0  0  0  0  0
   -0.4290   14.0750   -1.2070 C   0  0  0  0  0  0  0  0  0  0  0  0
   -0.1010   14.5730    1.0490 C   0  0  0  0  0  0  0  0  0  0  0  0
    0.0170   13.7370   -2.6190 C   0  0  0  0  0  0  0  0  0  0  0  0
    0.4470   14.2890   -0.1950 C   0  0  0  0  0  0  0  0  0  0  0  0
    0.5440   12.2870   -2.7520 C   0  0  0  0  0  0  0  0  0  0  0  0
   -0.4490   11.2670   -3.3580 C   0  0  0  0  0  0  0  0  0  0  0  0
   -0.3590   10.9510   -4.8760 C   0  0  0  0  0  0  0  0  0  0  0  0
   -0.6240    9.4560   -5.1850 C   0  0  0  0  0  0  0  0  0  0  0  0
   -0.3040    8.8900   -6.6130 C   0  0  1  0  0  0  0  0  0  0  0  0
   -1.5730    8.3300   -7.2910 C   0  0  0  0  0  0  0  0  0  0  0  0
    0.6030    9.7370   -7.4340 N   0  0  0  0  0  0  0  0  0  0  0  0
   -2.6230    9.3370   -7.7210 C   0  0  0  0  0  0  0  0  0  0  0  0
    0.7580    9.2780   -8.7880 N   0  0  0  0  0  0  0  0  0  0  0  0
    0.3450   11.1180   -7.4130 N   0  0  0  0  0  0  0  0  0  0  0  0
    0.8430   10.5040   -9.5700 C   0  0  0  0  0  0  0  0  0  0  0  0
    0.2110   11.5340   -8.7690 N   0  0  0  0  0  0  0  0  0  0  0  0
  1  2  1  0
  1  3  1  0
  3  4  1  0
  3  5  1  0
  4  6  1  0
  5  7  1  0
  6  8  1  0
  7  8  1  0
  8  9  1  0
  9 10  2  0
  9 11  1  0
 10 12  1  0
 11 13  2  0
 12 14  1  0
 12 15  2  0
 13 15  1  0
 14 16  1  0
 16 17  1  0
 17 18  1  0
 18 19  1  0
 20 19  1  1
 20 21  1  0
 20 22  1  0
 21 23  1  0
 22 24  1  0
 22 25  1  0
 24 26  1  0
 25 27  1  0
 26 27  1  0
M  END
