x0282_0_A_α-x0844_0_A_α
     RDKit          3D

 15 16  0  0  0  0  0  0  0  0999 V2000
   -7.7200   14.4580    1.1240 C   0  0  0  0  0  0  0  0  0  0  0  0
   -8.5500   14.6310   -0.0100 O   0  0  0  0  0  0  0  0  0  0  0  0
   -6.2340   14.3260    0.7840 C   0  0  2  0  0  0  0  0  0  0  0  0
   -5.2910   14.9040    1.8310 C   0  0  0  0  0  0  0  0  0  0  0  0
   -5.7770   14.8690   -0.5830 C   0  0  0  0  0  0  0  0  0  0  0  0
   -3.9720   14.1770    1.6710 C   0  0  0  0  0  0  0  0  0  0  0  0
   -4.3620   14.3260   -0.8140 C   0  0  1  0  0  0  0  0  0  0  0  0
   -3.6300   14.8420   -2.5470 Br  0  0  0  0  0  0  0  0  0  0  0  0
   -3.4830   14.5260    0.3470 N   0  0  0  0  0  0  0  0  0  0  0  0
   -2.1230   14.5780    0.2590 C   0  0  0  0  0  0  0  0  0  0  0  0
   -1.6290   14.6050   -0.9820 N   0  0  0  0  0  0  0  0  0  0  0  0
   -1.3660   14.6020    1.3650 N   0  0  0  0  0  0  0  0  0  0  0  0
   -0.3170   14.6730   -1.1370 C   0  0  0  0  0  0  0  0  0  0  0  0
   -0.0490   14.6670    1.1560 C   0  0  0  0  0  0  0  0  0  0  0  0
    0.5330   14.7120   -0.0970 C   0  0  0  0  0  0  0  0  0  0  0  0
  1  2  1  0
  3  1  1  1
  3  4  1  0
  3  5  1  0
  4  6  1  0
  5  7  1  0
  7  8  1  6
  6  9  1  0
  7  9  1  0
  9 10  1  0
 10 11  2  0
 10 12  1  0
 11 13  1  0
 12 14  2  0
 13 15  2  0
 14 15  1  0
M  END
