x0282_0_A-x0805_0_A
     RDKit          3D

 31 34  0  0  0  0  0  0  0  0999 V2000
   -7.7300   13.7620    0.8130 C   0  0  0  0  0  0  0  0  0  0  0  0
   -8.4110   14.7360    0.0370 O   0  0  0  0  0  0  0  0  0  0  0  0
   -6.2110   13.7790    0.5570 C   0  0  2  0  0  0  0  0  0  0  0  0
   -5.4880   13.5230    1.8730 C   0  0  0  0  0  0  0  0  0  0  0  0
   -5.7020   15.1220    0.0130 C   0  0  2  0  0  0  0  0  0  0  0  0
   -5.3050   15.3910   -1.4020 C   0  0  0  0  0  0  0  0  0  0  0  0
   -4.0240   13.3070    1.5840 C   0  0  0  0  0  0  0  0  0  0  0  0
   -4.4530   15.5740    0.7800 C   0  0  0  0  0  0  0  0  0  0  0  0
   -3.9080   15.5620   -1.4790 O   0  0  0  0  0  0  0  0  0  0  0  0
   -3.5820   14.4130    0.7890 N   0  0  0  0  0  0  0  0  0  0  0  0
   -2.2150   14.5390    0.5860 C   0  0  0  0  0  0  0  0  0  0  0  0
   -3.4280   14.5030   -2.1360 C   0  0  0  0  0  0  0  0  0  0  0  0
   -1.7920   14.6430   -0.6760 N   0  0  0  0  0  0  0  0  0  0  0  0
   -1.3820   14.5430    1.6320 N   0  0  0  0  0  0  0  0  0  0  0  0
   -4.1060   13.2950   -2.1840 C   0  0  0  0  0  0  0  0  0  0  0  0
   -2.2130   14.6480   -2.7860 C   0  0  0  0  0  0  0  0  0  0  0  0
   -0.4900   14.7600   -0.9140 C   0  0  0  0  0  0  0  0  0  0  0  0
   -0.0840   14.6590    1.3380 C   0  0  0  0  0  0  0  0  0  0  0  0
   -3.5730   12.2330   -2.8900 C   0  0  0  0  0  0  0  0  0  0  0  0
   -1.6600   13.5940   -3.4950 C   0  0  0  0  0  0  0  0  0  0  0  0
    0.4230   14.7770    0.0670 C   0  0  0  0  0  0  0  0  0  0  0  0
   -2.3550   12.3820   -3.5440 C   0  0  0  0  0  0  0  0  0  0  0  0
   -0.3270   13.7670   -4.1940 C   0  0  2  0  0  0  0  0  0  0  0  0
    0.7860   13.1330   -3.3910 C   0  0  1  0  0  0  0  0  0  0  0  0
    0.1070   15.2190   -4.4340 C   0  0  0  0  0  0  0  0  0  0  0  0
    0.4570   11.9660   -2.5140 C   0  0  0  0  0  0  0  0  0  0  0  0
    1.9720   12.9440   -4.2740 C   0  0  0  0  0  0  0  0  0  0  0  0
    1.6310   15.3920   -4.3930 C   0  0  0  0  0  0  0  0  0  0  0  0
    0.1050   10.8020   -3.0900 O   0  0  0  0  0  0  0  0  0  0  0  0
    0.5050   12.1100   -1.3050 O   0  0  0  0  0  0  0  0  0  0  0  0
    2.4450   14.2250   -4.6560 O   0  0  0  0  0  0  0  0  0  0  0  0
  1  2  1  0
  3  1  1  1
  3  4  1  0
  3  5  1  0
  5  6  1  6
  4  7  1  0
  5  8  1  0
  6  9  1  0
  7 10  1  0
  8 10  1  0
 10 11  1  0
  9 12  1  0
 11 13  2  0
 11 14  1  0
 12 15  2  0
 12 16  1  0
 13 17  1  0
 14 18  2  0
 15 19  1  0
 16 20  2  0
 17 21  2  0
 18 21  1  0
 19 22  2  0
 20 22  1  0
 23 20  1  1
 23 24  1  0
 23 25  1  0
 24 26  1  6
 24 27  1  0
 25 28  1  0
 26 29  1  0
 26 30  2  0
 27 31  1  0
 28 31  1  0
M  END
