x0282_0_A-x0910_1_A
     RDKit          3D

 14 15  0  0  0  0  0  0  0  0999 V2000
   -7.0710   13.3530    0.5720 C   0  0  0  0  0  0  0  0  0  0  0  0
   -8.4470   13.6130    0.3000 O   0  0  0  0  0  0  0  0  0  0  0  0
   -6.3510   14.6890    0.6060 C   0  0  0  0  0  0  0  0  0  0  0  0
   -5.4080   14.8360    1.8080 C   0  0  0  0  0  0  0  0  0  0  0  0
   -5.6270   15.0570   -0.6980 C   0  0  0  0  0  0  0  0  0  0  0  0
   -4.1390   14.0170    1.6260 C   0  0  0  0  0  0  0  0  0  0  0  0
   -4.3160   14.2950   -0.8790 C   0  0  0  0  0  0  0  0  0  0  0  0
   -3.5420   14.3330    0.3510 N   0  0  0  0  0  0  0  0  0  0  0  0
   -2.1870   14.4660    0.2710 C   0  0  0  0  0  0  0  0  0  0  0  0
   -1.6830   14.5470   -0.9680 N   0  0  0  0  0  0  0  0  0  0  0  0
   -1.4310   14.5090    1.3930 N   0  0  0  0  0  0  0  0  0  0  0  0
   -0.3680   14.6840   -1.1040 C   0  0  0  0  0  0  0  0  0  0  0  0
   -0.1110   14.6440    1.1910 C   0  0  0  0  0  0  0  0  0  0  0  0
    0.4730   14.7430   -0.0530 C   0  0  0  0  0  0  0  0  0  0  0  0
  1  2  1  0
  1  3  1  0
  3  4  1  0
  3  5  1  0
  4  6  1  0
  5  7  1  0
  6  8  1  0
  7  8  1  0
  8  9  1  0
  9 10  2  0
  9 11  1  0
 10 12  1  0
 11 13  2  0
 12 14  2  0
 13 14  1  0
M  END
