x0282_0_A-x0662_0_A
     RDKit          3D

 35 38  0  0  0  0  0  0  0  0999 V2000
   -7.0400   13.3500    0.5590 C   0  0  0  0  0  0  0  0  0  0  0  0
   -8.4200   13.6000    0.2960 O   0  0  0  0  0  0  0  0  0  0  0  0
   -6.3260   14.6910    0.6000 C   0  0  0  0  0  0  0  0  0  0  0  0
   -5.3580   14.8520    1.7900 C   0  0  0  0  0  0  0  0  0  0  0  0
   -5.6370   15.0710   -0.7210 C   0  0  0  0  0  0  0  0  0  0  0  0
   -4.0940   14.0320    1.6110 C   0  0  0  0  0  0  0  0  0  0  0  0
   -4.3140   14.3220   -0.8870 C   0  0  0  0  0  0  0  0  0  0  0  0
   -3.5170   14.3450    0.3310 N   0  0  0  0  0  0  0  0  0  0  0  0
   -2.1600   14.4120    0.1900 C   0  0  0  0  0  0  0  0  0  0  0  0
   -1.6690   14.3470   -1.0570 N   0  0  0  0  0  0  0  0  0  0  0  0
   -1.4020   14.5380    1.3050 N   0  0  0  0  0  0  0  0  0  0  0  0
   -0.3450   14.4150   -1.2390 C   0  0  0  0  0  0  0  0  0  0  0  0
   -0.0850   14.6070    1.0790 C   0  0  0  0  0  0  0  0  0  0  0  0
    0.2060   14.3390   -2.6580 C   0  0  0  0  0  0  0  0  0  0  0  0
    0.4980   14.5540   -0.1770 C   0  0  0  0  0  0  0  0  0  0  0  0
    0.4680   12.8970   -3.1650 C   0  0  0  0  0  0  0  0  0  0  0  0
   -0.8320   12.1770   -3.5570 C   0  0  0  0  0  0  0  0  0  0  0  0
   -0.7720   11.4240   -4.8320 N   0  0  0  0  0  0  0  0  0  0  0  0
    0.1140   11.4750   -5.7800 C   0  0  0  0  0  0  0  0  0  0  0  0
    1.1500   12.1620   -5.8630 O   0  0  0  0  0  0  0  0  0  0  0  0
    0.0140   10.6320   -7.0380 C   0  0  0  0  0  0  0  0  0  0  0  0
   -0.9200    9.5940   -7.0840 C   0  0  0  0  0  0  0  0  0  0  0  0
    0.8280   10.8670   -8.1600 C   0  0  0  0  0  0  0  0  0  0  0  0
   -1.0380    8.8070   -8.2290 C   0  0  0  0  0  0  0  0  0  0  0  0
    0.7130   10.0810   -9.3250 C   0  0  0  0  0  0  0  0  0  0  0  0
    1.5450   10.3520  -10.4430 N   0  0  0  0  0  0  0  0  0  0  0  0
   -0.2260    9.0520   -9.3420 C   0  0  0  0  0  0  0  0  0  0  0  0
    2.2130    9.4690  -11.2890 C   0  0  0  0  0  0  0  0  0  0  0  0
    2.2230    8.2730  -10.9960 O   0  0  0  0  0  0  0  0  0  0  0  0
    2.9180    9.9700  -12.5010 C   0  0  0  0  0  0  0  0  0  0  0  0
    2.7380   11.2150  -13.1780 C   0  0  0  0  0  0  0  0  0  0  0  0
    3.8710    9.2340  -13.1110 N   0  0  0  0  0  0  0  0  0  0  0  0
    4.2800   10.0040  -14.1380 N   0  0  0  0  0  0  0  0  0  0  0  0
    3.6310   11.2010  -14.2250 C   0  0  0  0  0  0  0  0  0  0  0  0
    5.3200    9.5180  -15.0170 C   0  0  0  0  0  0  0  0  0  0  0  0
  1  2  1  0
  1  3  1  0
  3  4  1  0
  3  5  1  0
  4  6  1  0
  5  7  1  0
  6  8  1  0
  7  8  1  0
  8  9  1  0
  9 10  2  0
  9 11  1  0
 10 12  1  0
 11 13  2  0
 12 14  1  0
 12 15  2  0
 13 15  1  0
 14 16  1  0
 16 17  1  0
 17 18  1  0
 18 19  2  3
 19 20  1  0
 19 21  1  0
 21 22  2  0
 21 23  1  0
 22 24  1  0
 23 25  2  0
 25 26  1  0
 24 27  2  0
 25 27  1  0
 26 28  1  0
 28 29  2  0
 28 30  1  0
 30 31  1  0
 30 32  2  0
 32 33  1  0
 31 34  2  0
 33 34  1  0
 33 35  1  0
M  CHG  1  20  -1
M  END
