x0282_0_A_α-x1018_0_A_α
     RDKit          3D

 17 19  0  0  0  0  0  0  0  0999 V2000
   -7.6210   14.6800   -0.0330 C   0  0  0  0  0  0  0  0  0  0  0  0
   -8.4970   14.5230    1.0670 O   0  0  0  0  0  0  0  0  0  0  0  0
   -6.1950   14.2010    0.2630 C   0  0  2  0  0  0  0  0  0  0  0  0
   -5.4600   14.8030    1.4990 C   0  0  0  0  0  0  0  0  0  0  0  0
   -5.2990   14.5330   -0.8560 C   0  0  0  0  0  0  0  0  0  0  0  0
   -4.0510   14.1830    1.6970 C   0  0  0  0  0  0  0  0  0  0  0  0
   -3.9760   14.4880   -0.6620 C   0  0  0  0  0  0  0  0  0  0  0  0
   -5.5470   14.9040   -2.1450 N   0  0  0  0  0  0  0  0  0  0  0  0
   -3.3210   14.1770    0.4330 N   0  0  0  0  0  0  0  0  0  0  0  0
   -3.4150   14.8340   -1.8340 N   0  0  0  0  0  0  0  0  0  0  0  0
   -4.3620   15.0870   -2.7430 N   0  0  0  0  0  0  0  0  0  0  0  0
   -1.9940   14.4150    0.4030 C   0  0  0  0  0  0  0  0  0  0  0  0
   -1.5260   14.5810   -0.8450 N   0  0  0  0  0  0  0  0  0  0  0  0
   -1.2630   14.4700    1.5180 N   0  0  0  0  0  0  0  0  0  0  0  0
   -0.2490   14.8190   -1.0040 C   0  0  0  0  0  0  0  0  0  0  0  0
    0.0210   14.7130    1.2870 C   0  0  0  0  0  0  0  0  0  0  0  0
    0.5830   14.9010    0.0380 C   0  0  0  0  0  0  0  0  0  0  0  0
  1  2  1  0
  3  1  1  6
  3  4  1  0
  3  5  1  0
  4  6  1  0
  5  7  2  0
  5  8  1  0
  6  9  1  0
  7  9  1  0
  7 10  1  0
  8 11  2  0
 10 11  1  0
  9 12  1  0
 12 13  2  0
 12 14  1  0
 13 15  1  0
 14 16  2  0
 15 17  2  0
 16 17  1  0
M  END
