x0282_0_A-x0626_0_A
     RDKit          3D

 17 18  0  0  0  0  0  0  0  0999 V2000
   -6.3080   13.3760    0.0810 C   0  0  2  0  0  0  0  0  0  0  0  0
   -7.0380   12.6630    1.0820 O   0  0  0  0  0  0  0  0  0  0  0  0
   -4.8420   12.9080   -0.1010 C   0  0  0  0  0  0  0  0  0  0  0  0
   -6.3300   14.8250    0.4260 C   0  0  0  0  0  0  0  0  0  0  0  0
   -3.8540   13.4240    0.7800 N   0  0  0  0  0  0  0  0  0  0  0  0
   -4.6160   12.1310   -1.0170 O   0  0  0  0  0  0  0  0  0  0  0  0
   -5.5920   14.9350    1.7770 C   0  0  0  0  0  0  0  0  0  0  0  0
   -5.7780   15.6560   -0.7340 C   0  0  0  0  0  0  0  0  0  0  0  0
   -4.2210   15.6130    1.8030 C   0  0  0  0  0  0  0  0  0  0  0  0
   -4.2740   15.5600   -0.7260 C   0  0  0  0  0  0  0  0  0  0  0  0
   -2.6640   14.1330    0.2830 N   0  0  0  0  0  0  0  0  0  0  0  0
   -3.6270   15.9920    0.5190 N   0  0  0  0  0  0  0  0  0  0  0  0
   -1.5540   14.4250    1.2490 C   0  0  0  0  0  0  0  0  0  0  0  0
   -2.0830   13.5830   -0.9530 C   0  0  0  0  0  0  0  0  0  0  0  0
   -1.0100   14.3760   -1.5480 N   0  0  0  0  0  0  0  0  0  0  0  0
   -0.2170   14.7950    0.6300 C   0  0  0  0  0  0  0  0  0  0  0  0
   -0.0100   14.7550   -0.6900 C   0  0  0  0  0  0  0  0  0  0  0  0
  1  2  1  1
  1  3  1  0
  1  4  1  0
  3  5  1  0
  3  6  2  0
  4  7  1  0
  4  8  1  0
  7  9  1  0
  8 10  1  0
  5 11  1  0
  9 12  1  0
 10 12  1  0
 11 13  1  0
 11 14  1  0
 14 15  1  0
 13 16  1  0
 15 17  1  0
 16 17  2  0
M  END
