x0282_0_A-x0962_0_A
     RDKit          3D

 16 17  0  0  0  0  0  0  0  0999 V2000
   -7.0220   13.3410    0.6490 C   0  0  0  0  0  0  0  0  0  0  0  0
   -8.3940   13.5850    0.3420 O   0  0  0  0  0  0  0  0  0  0  0  0
   -6.3080   14.6860    0.6630 C   0  0  1  0  0  0  0  0  0  0  0  0
   -5.3320   14.9070    1.8170 C   0  0  0  0  0  0  0  0  0  0  0  0
   -5.5870   15.0160   -0.6530 C   0  0  0  0  0  0  0  0  0  0  0  0
   -4.0920   14.0320    1.6910 C   0  0  0  0  0  0  0  0  0  0  0  0
   -4.2870   14.2050   -0.8620 C   0  0  1  0  0  0  0  0  0  0  0  0
   -3.4900   14.7530   -1.9860 C   0  0  0  0  0  0  0  0  0  0  0  0
   -3.5020   14.1420    0.3730 N   0  0  0  0  0  0  0  0  0  0  0  0
   -2.8210   15.1390   -2.8490 N   0  0  0  0  0  0  0  0  0  0  0  0
   -2.1460   14.3660    0.3030 C   0  0  0  0  0  0  0  0  0  0  0  0
   -1.6330   14.4900   -0.9270 N   0  0  0  0  0  0  0  0  0  0  0  0
   -1.4070   14.4450    1.4280 N   0  0  0  0  0  0  0  0  0  0  0  0
   -0.3340   14.7100   -1.0570 C   0  0  0  0  0  0  0  0  0  0  0  0
   -0.0980   14.6630    1.2370 C   0  0  0  0  0  0  0  0  0  0  0  0
    0.4900   14.8100    0.0010 C   0  0  0  0  0  0  0  0  0  0  0  0
  1  2  1  0
  3  1  1  6
  3  4  1  0
  3  5  1  0
  4  6  1  0
  5  7  1  0
  7  8  1  6
  6  9  1  0
  7  9  1  0
  8 10  3  0
  9 11  1  0
 11 12  2  0
 11 13  1  0
 12 14  1  0
 13 15  2  0
 14 16  2  0
 15 16  1  0
M  END
