x0282_0_A-x0421_0_A
     RDKit          3D

 19 21  0  0  0  0  0  0  0  0999 V2000
   -6.8860   12.5510    0.3960 C   0  0  0  0  0  0  0  0  0  0  0  0
   -8.0450   12.4990   -0.1830 O   0  0  0  0  0  0  0  0  0  0  0  0
   -6.6140   14.3720    1.0890 S   0  0  0  0  0  0  0  0  0  0  0  0
   -5.1070   15.2550    1.7620 C   0  0  0  0  0  0  0  0  0  0  0  0
   -5.5940   15.0130   -0.2870 C   0  0  0  0  0  0  0  0  0  0  0  0
   -8.1260   14.9090    2.0890 C   0  0  0  0  0  0  0  0  0  0  0  0
   -8.3800   15.0480    0.7700 C   0  0  0  0  0  0  0  0  0  0  0  0
   -3.9970   14.2590    1.6570 C   0  0  0  0  0  0  0  0  0  0  0  0
   -4.3540   14.3500   -0.6080 C   0  0  1  0  0  0  0  0  0  0  0  0
   -3.7360   14.8850   -1.9070 C   0  0  0  0  0  0  0  0  0  0  0  0
   -3.3650   14.2000    0.4110 N   0  0  0  0  0  0  0  0  0  0  0  0
   -4.5330   15.0760   -3.0350 N   0  0  0  0  0  0  0  0  0  0  0  0
   -2.5070   15.1200   -1.9280 O   0  0  0  0  0  0  0  0  0  0  0  0
   -2.0380   14.3880    0.3050 C   0  0  0  0  0  0  0  0  0  0  0  0
   -1.5160   14.4140   -0.9110 N   0  0  0  0  0  0  0  0  0  0  0  0
   -1.2710   14.5480    1.3910 N   0  0  0  0  0  0  0  0  0  0  0  0
   -0.2390   14.6060   -1.1430 C   0  0  0  0  0  0  0  0  0  0  0  0
    0.0330   14.7390    1.1800 C   0  0  0  0  0  0  0  0  0  0  0  0
    0.5810   14.7800   -0.0890 C   0  0  0  0  0  0  0  0  0  0  0  0
  1  2  1  0
  1  3  1  0
  3  4  1  0
  3  5  1  0
  3  6  1  0
  3  7  1  0
  6  7  1  0
  4  8  1  0
  5  9  1  0
  9 10  1  6
  8 11  1  0
  9 11  1  0
 10 12  1  0
 10 13  2  0
 11 14  1  0
 14 15  2  0
 14 16  1  0
 15 17  1  0
 16 18  2  0
 17 19  2  0
 18 19  1  0
M  END
