x0282_0_A-x0574_0_A
     RDKit          3D

 15 16  0  0  0  0  0  0  0  0999 V2000
   -7.6020   14.1880    1.1930 C   0  0  2  0  0  0  0  0  0  0  0  0
   -8.4060   14.8960    0.2430 O   0  0  0  0  0  0  0  0  0  0  0  0
   -7.8250   14.8070    2.5710 C   0  0  0  0  0  0  0  0  0  0  0  0
   -6.1230   14.2180    0.7560 C   0  0  0  0  0  0  0  0  0  0  0  0
   -5.2230   14.8990    1.7820 C   0  0  0  0  0  0  0  0  0  0  0  0
   -5.7440   14.8740   -0.5630 C   0  0  0  0  0  0  0  0  0  0  0  0
   -3.8710   14.2440    1.7290 C   0  0  0  0  0  0  0  0  0  0  0  0
   -4.2150   15.0590   -0.6330 C   0  0  0  0  0  0  0  0  0  0  0  0
   -3.4560   14.2520    0.3480 N   0  0  0  0  0  0  0  0  0  0  0  0
   -2.1100   14.4230    0.2280 C   0  0  0  0  0  0  0  0  0  0  0  0
   -1.6190   14.5010   -1.0150 N   0  0  0  0  0  0  0  0  0  0  0  0
   -1.3590   14.5060    1.3480 N   0  0  0  0  0  0  0  0  0  0  0  0
   -0.3100   14.6750   -1.1520 C   0  0  0  0  0  0  0  0  0  0  0  0
   -0.0530   14.6770    1.1470 C   0  0  0  0  0  0  0  0  0  0  0  0
    0.5270   14.7720   -0.0970 C   0  0  0  0  0  0  0  0  0  0  0  0
  1  2  1  0
  1  3  1  1
  1  4  1  0
  4  5  1  0
  4  6  1  0
  5  7  1  0
  6  8  1  0
  7  9  1  0
  8  9  1  0
  9 10  1  0
 10 11  2  0
 10 12  1  0
 11 13  1  0
 12 14  2  0
 13 15  2  0
 14 15  1  0
M  END
