x0282_0_A_α-x0910_1_A_α
     RDKit          3D

 14 15  0  0  0  0  0  0  0  0999 V2000
   -7.0680   13.3500    0.5720 C   0  0  0  0  0  0  0  0  0  0  0  0
   -8.4430   13.6030    0.2940 O   0  0  0  0  0  0  0  0  0  0  0  0
   -6.3500   14.6890    0.6040 C   0  0  0  0  0  0  0  0  0  0  0  0
   -5.4070   14.8360    1.8050 C   0  0  0  0  0  0  0  0  0  0  0  0
   -5.6270   15.0610   -0.7010 C   0  0  0  0  0  0  0  0  0  0  0  0
   -4.1420   14.0060    1.6230 C   0  0  0  0  0  0  0  0  0  0  0  0
   -4.3150   14.3020   -0.8810 C   0  0  0  0  0  0  0  0  0  0  0  0
   -3.5440   14.3330    0.3520 N   0  0  0  0  0  0  0  0  0  0  0  0
   -2.1890   14.4650    0.2730 C   0  0  0  0  0  0  0  0  0  0  0  0
   -1.6850   14.5410   -0.9680 N   0  0  0  0  0  0  0  0  0  0  0  0
   -1.4300   14.5120    1.3930 N   0  0  0  0  0  0  0  0  0  0  0  0
   -0.3740   14.6740   -1.1040 C   0  0  0  0  0  0  0  0  0  0  0  0
   -0.1130   14.6430    1.1910 C   0  0  0  0  0  0  0  0  0  0  0  0
    0.4720   14.7350   -0.0560 C   0  0  0  0  0  0  0  0  0  0  0  0
  1  2  1  0
  1  3  1  0
  3  4  1  0
  3  5  1  0
  4  6  1  0
  5  7  1  0
  6  8  1  0
  7  8  1  0
  8  9  1  0
  9 10  2  0
  9 11  1  0
 10 12  1  0
 11 13  2  0
 12 14  2  0
 13 14  1  0
M  END
