x0282_0_A_α-x0104_0_A_β
     RDKit          3D

 17 18  0  0  0  0  0  0  0  0999 V2000
   -7.4050   13.3770    0.2350 C   0  0  0  0  0  0  0  0  0  0  0  0
   -8.7450   13.7770   -0.0340 O   0  0  0  0  0  0  0  0  0  0  0  0
   -6.5790   14.6240    0.5110 C   0  0  1  0  0  0  0  0  0  0  0  0
   -5.6990   14.4260    1.7500 C   0  0  2  0  0  0  0  0  0  0  0  0
   -5.7590   15.1860   -0.6660 C   0  0  0  0  0  0  0  0  0  0  0  0
   -6.3970   15.0490    2.8820 N   0  0  0  0  0  0  0  0  0  0  0  0
   -4.2490   14.9680    1.5580 C   0  0  0  0  0  0  0  0  0  0  0  0
   -4.4080   14.4880   -0.8720 C   0  0  1  0  0  0  0  0  0  0  0  0
   -3.7230   15.3610   -1.7770 O   0  0  0  0  0  0  0  0  0  0  0  0
   -3.6550   14.3700    0.3760 N   0  0  0  0  0  0  0  0  0  0  0  0
   -3.7000   14.8830   -3.1050 C   0  0  0  0  0  0  0  0  0  0  0  0
   -2.2710   14.4840    0.2800 C   0  0  0  0  0  0  0  0  0  0  0  0
   -1.7500   14.5590   -0.9560 N   0  0  0  0  0  0  0  0  0  0  0  0
   -1.5000   14.5150    1.3970 N   0  0  0  0  0  0  0  0  0  0  0  0
   -0.4300   14.6710   -1.0890 C   0  0  0  0  0  0  0  0  0  0  0  0
   -0.1740   14.6240    1.2030 C   0  0  0  0  0  0  0  0  0  0  0  0
    0.4140   14.7110   -0.0380 C   0  0  0  0  0  0  0  0  0  0  0  0
  1  2  1  0
  3  1  1  6
  3  4  1  0
  3  5  1  0
  4  6  1  1
  4  7  1  0
  5  8  1  0
  8  9  1  6
  7 10  1  0
  8 10  1  0
  9 11  1  0
 10 12  1  0
 12 13  2  0
 12 14  1  0
 13 15  1  0
 14 16  2  0
 15 17  2  0
 16 17  1  0
M  END
