x0282_0_A-x0592_0_A
     RDKit          3D

 18 19  0  0  0  0  0  0  0  0999 V2000
   -7.8100   14.6400    1.1180 C   0  0  0  0  0  0  0  0  0  0  0  0
   -8.7020   13.6640    0.6450 O   0  0  0  0  0  0  0  0  0  0  0  0
   -8.0990   14.9070    2.4770 O   0  0  0  0  0  0  0  0  0  0  0  0
   -6.3570   14.2210    0.8940 C   0  0  2  0  0  0  0  0  0  0  0  0
   -5.4550   14.4900    2.1200 C   0  0  0  0  0  0  0  0  0  0  0  0
   -5.7310   14.8220   -0.3610 C   0  0  0  0  0  0  0  0  0  0  0  0
   -4.0540   13.9010    1.9790 C   0  0  0  0  0  0  0  0  0  0  0  0
   -4.2630   15.1250   -0.1010 C   0  0  2  0  0  0  0  0  0  0  0  0
   -3.4520   15.2340   -1.3560 C   0  0  0  0  0  0  0  0  0  0  0  0
   -3.5820   14.0650    0.6470 N   0  0  0  0  0  0  0  0  0  0  0  0
   -2.1450   15.0260   -1.1210 N   0  0  0  0  0  0  0  0  0  0  0  0
   -3.8550   15.4470   -2.4730 O   0  0  0  0  0  0  0  0  0  0  0  0
   -2.2160   14.1650    0.4760 C   0  0  0  0  0  0  0  0  0  0  0  0
   -1.7480   14.0100   -0.7740 N   0  0  0  0  0  0  0  0  0  0  0  0
   -1.4250   14.4230    1.5340 N   0  0  0  0  0  0  0  0  0  0  0  0
   -0.4460   14.1420   -0.9980 C   0  0  0  0  0  0  0  0  0  0  0  0
   -0.1160   14.5460    1.2490 C   0  0  0  0  0  0  0  0  0  0  0  0
    0.4210   14.4210   -0.0190 C   0  0  0  0  0  0  0  0  0  0  0  0
  1  2  1  0
  1  3  1  0
  4  1  1  1
  4  5  1  0
  4  6  1  0
  5  7  1  0
  6  8  1  0
  8  9  1  6
  7 10  1  0
  8 10  1  0
  9 11  1  0
  9 12  2  0
 10 13  1  0
 13 14  2  0
 13 15  1  0
 14 16  1  0
 15 17  2  0
 16 18  2  0
 17 18  1  0
M  END
