x0282_0_A_α-x0864_0_A_α
     RDKit          3D

 27 29  0  0  0  0  0  0  0  0999 V2000
   -7.0010   13.3480    0.6320 C   0  0  0  0  0  0  0  0  0  0  0  0
   -8.3380   13.6470    0.2230 O   0  0  0  0  0  0  0  0  0  0  0  0
   -6.2240   14.6600    0.5890 C   0  0  0  0  0  0  0  0  0  0  0  0
   -5.2330   14.8820    1.7370 C   0  0  0  0  0  0  0  0  0  0  0  0
   -5.4870   14.9030   -0.7320 C   0  0  0  0  0  0  0  0  0  0  0  0
   -4.0180   13.9510    1.6300 C   0  0  0  0  0  0  0  0  0  0  0  0
   -4.2770   13.9780   -0.9120 C   0  0  0  0  0  0  0  0  0  0  0  0
   -3.4380   13.9410    0.2850 N   0  0  0  0  0  0  0  0  0  0  0  0
   -2.1010   14.2470    0.1820 C   0  0  0  0  0  0  0  0  0  0  0  0
   -1.3020   13.5200   -0.6230 N   0  0  0  0  0  0  0  0  0  0  0  0
   -1.6440   15.2720    0.8790 N   0  0  0  0  0  0  0  0  0  0  0  0
    0.0040   13.8880   -0.6940 C   0  0  0  0  0  0  0  0  0  0  0  0
   -0.3510   15.5740    0.7310 C   0  0  0  0  0  0  0  0  0  0  0  0
    0.9580   13.1350   -1.5470 C   0  0  0  0  0  0  0  0  0  0  0  0
    0.5080   14.9160   -0.0350 C   0  0  0  0  0  0  0  0  0  0  0  0
    0.8260   13.4570   -2.9140 N   0  0  0  0  0  0  0  0  0  0  0  0
    0.6350   12.5060   -3.7000 C   0  0  0  0  0  0  0  0  0  0  0  0
    0.4810   12.8120   -5.1590 C   0  0  0  0  0  0  0  0  0  0  0  0
    0.5520   11.1980   -3.3440 O   0  0  0  0  0  0  0  0  0  0  0  0
   -0.2720   11.7710   -5.8120 N   0  0  0  0  0  0  0  0  0  0  0  0
   -1.3390   11.1800   -5.1650 C   0  0  0  0  0  0  0  0  0  0  0  0
    0.4360   11.1150   -6.7890 C   0  0  0  0  0  0  0  0  0  0  0  0
    1.5530   11.4410   -7.1540 O   0  0  0  0  0  0  0  0  0  0  0  0
   -1.8700   10.0500   -5.6380 C   0  0  0  0  0  0  0  0  0  0  0  0
   -0.2220    9.9470   -7.3950 C   0  0  0  0  0  0  0  0  0  0  0  0
   -1.3270    9.4500   -6.8300 C   0  0  0  0  0  0  0  0  0  0  0  0
   -2.2050    7.9730   -7.5470 Br  0  0  0  0  0  0  0  0  0  0  0  0
  1  2  1  0
  1  3  1  0
  3  4  1  0
  3  5  1  0
  4  6  1  0
  5  7  1  0
  6  8  1  0
  7  8  1  0
  8  9  1  0
  9 10  2  0
  9 11  1  0
 10 12  1  0
 11 13  2  0
 12 14  1  0
 12 15  2  0
 13 15  1  0
 14 16  1  0
 16 17  2  3
 17 18  1  0
 17 19  1  0
 18 20  1  0
 20 21  1  0
 20 22  1  0
 22 23  2  0
 21 24  2  0
 22 25  1  0
 24 26  1  0
 25 26  2  0
 26 27  1  0
M  END
