x0282_0_A-x0900_0_A
     RDKit          3D

 14 15  0  0  0  0  0  0  0  0999 V2000
   -7.0560   13.3510    0.5560 C   0  0  0  0  0  0  0  0  0  0  0  0
   -8.4310   13.6040    0.2770 O   0  0  0  0  0  0  0  0  0  0  0  0
   -6.3450   14.6910    0.6000 C   0  0  0  0  0  0  0  0  0  0  0  0
   -5.3990   14.8410    1.7980 C   0  0  0  0  0  0  0  0  0  0  0  0
   -5.6340   15.0600   -0.7130 C   0  0  0  0  0  0  0  0  0  0  0  0
   -4.1430   14.0030    1.6110 C   0  0  0  0  0  0  0  0  0  0  0  0
   -4.3250   14.2960   -0.8930 C   0  0  0  0  0  0  0  0  0  0  0  0
   -3.5520   14.3330    0.3380 N   0  0  0  0  0  0  0  0  0  0  0  0
   -2.1950   14.4600    0.2660 C   0  0  0  0  0  0  0  0  0  0  0  0
   -1.6880   14.5190   -0.9730 N   0  0  0  0  0  0  0  0  0  0  0  0
   -1.4500   14.5200    1.3930 N   0  0  0  0  0  0  0  0  0  0  0  0
   -0.3700   14.6500   -1.1000 C   0  0  0  0  0  0  0  0  0  0  0  0
   -0.1290   14.6490    1.1990 C   0  0  0  0  0  0  0  0  0  0  0  0
    0.4600   14.7250   -0.0430 C   0  0  0  0  0  0  0  0  0  0  0  0
  1  2  1  0
  1  3  1  0
  3  4  1  0
  3  5  1  0
  4  6  1  0
  5  7  1  0
  6  8  1  0
  7  8  1  0
  8  9  1  0
  9 10  2  0
  9 11  1  0
 10 12  1  0
 11 13  2  0
 12 14  2  0
 13 14  1  0
M  END
