x0282_0_A_α-x0950_0_A_α
     RDKit          3D

 21 22  0  0  0  0  0  0  0  0999 V2000
   -7.4380   13.6280    0.9450 C   0  0  0  0  0  0  0  0  0  0  0  0
   -8.6800   14.0700    0.4000 O   0  0  0  0  0  0  0  0  0  0  0  0
   -6.3660   14.6150    0.5210 C   0  0  0  0  0  0  0  0  0  0  0  0
   -5.3720   14.9290    1.6690 C   0  0  0  0  0  0  0  0  0  0  0  0
   -5.6530   14.2460   -0.7710 C   0  0  0  0  0  0  0  0  0  0  0  0
   -4.1340   14.0540    1.6250 C   0  0  0  0  0  0  0  0  0  0  0  0
   -4.2440   14.7860   -0.7790 C   0  0  0  0  0  0  0  0  0  0  0  0
   -3.5080   14.2370    0.3420 N   0  0  0  0  0  0  0  0  0  0  0  0
   -2.1710   14.3580    0.2960 C   0  0  0  0  0  0  0  0  0  0  0  0
   -1.6520   14.2780   -0.9300 N   0  0  0  0  0  0  0  0  0  0  0  0
   -1.4480   14.5410    1.4230 N   0  0  0  0  0  0  0  0  0  0  0  0
   -0.3410   14.3930   -1.0550 C   0  0  0  0  0  0  0  0  0  0  0  0
   -0.1310   14.6570    1.2280 C   0  0  0  0  0  0  0  0  0  0  0  0
    0.2780   14.2740   -2.4010 C   0  0  0  0  0  0  0  0  0  0  0  0
    0.4650   14.5960   -0.0090 C   0  0  0  0  0  0  0  0  0  0  0  0
    1.0570   13.0670   -2.2950 O   0  0  0  0  0  0  0  0  0  0  0  0
    0.8420   12.1510   -3.2570 C   0  0  0  0  0  0  0  0  0  0  0  0
    1.2620   12.7410   -4.5960 C   0  0  1  0  0  0  0  0  0  0  0  0
    0.3900   11.0200   -3.1040 O   0  0  0  0  0  0  0  0  0  0  0  0
    2.7510   13.0090   -4.5980 C   0  0  0  0  0  0  0  0  0  0  0  0
    0.9360   11.8860   -5.6860 O   0  0  0  0  0  0  0  0  0  0  0  0
  1  2  1  0
  1  3  1  0
  3  4  1  0
  3  5  1  0
  4  6  1  0
  5  7  1  0
  6  8  1  0
  7  8  1  0
  8  9  1  0
  9 10  2  0
  9 11  1  0
 10 12  1  0
 11 13  2  0
 12 14  1  0
 12 15  2  0
 13 15  1  0
 14 16  1  0
 16 17  1  0
 17 18  1  0
 17 19  2  0
 18 20  1  1
 18 21  1  0
M  END
