x0282_0_A-x0962_2_B
     RDKit          3D

 22 24  0  0  0  0  0  0  0  0999 V2000
   -7.5590   14.3480    1.1420 C   0  0  0  0  0  0  0  0  0  0  0  0
   -8.3710   14.7120    0.0340 O   0  0  0  0  0  0  0  0  0  0  0  0
   -9.7400   14.8480    0.4360 C   0  0  0  0  0  0  0  0  0  0  0  0
   -6.0840   14.3050    0.7840 C   0  0  0  0  0  0  0  0  0  0  0  0
   -5.1850   15.0640    1.7310 C   0  0  0  0  0  0  0  0  0  0  0  0
   -5.7130   14.8060   -0.6060 C   0  0  0  0  0  0  0  0  0  0  0  0
   -9.8680   15.9030    1.5670 C   0  0  1  0  0  0  0  0  0  0  0  0
   -3.8780   14.3250    1.7040 C   0  0  0  0  0  0  0  0  0  0  0  0
   -4.1940   14.9810   -0.7320 C   0  0  0  0  0  0  0  0  0  0  0  0
  -11.2890   16.1480    1.8240 N   0  0  0  0  0  0  0  0  0  0  0  0
   -3.4390   14.2750    0.3180 N   0  0  0  0  0  0  0  0  0  0  0  0
   -9.1970   15.5020    2.8480 C   0  0  0  0  0  0  0  0  0  0  0  0
   -2.0960   14.4350    0.2210 C   0  0  0  0  0  0  0  0  0  0  0  0
   -8.8780   16.3940    3.8490 N   0  0  0  0  0  0  0  0  0  0  0  0
   -8.7600   14.2880    3.3340 C   0  0  0  0  0  0  0  0  0  0  0  0
   -1.5960   14.5060   -1.0150 N   0  0  0  0  0  0  0  0  0  0  0  0
   -1.3550   14.5160    1.3470 N   0  0  0  0  0  0  0  0  0  0  0  0
   -8.2750   15.6990    4.8550 C   0  0  0  0  0  0  0  0  0  0  0  0
   -8.1920   14.4220    4.5720 N   0  0  0  0  0  0  0  0  0  0  0  0
   -0.2900   14.6740   -1.1490 C   0  0  0  0  0  0  0  0  0  0  0  0
   -0.0480   14.6820    1.1490 C   0  0  0  0  0  0  0  0  0  0  0  0
    0.5430   14.7720   -0.0920 C   0  0  0  0  0  0  0  0  0  0  0  0
  1  2  1  0
  2  3  1  0
  1  4  1  0
  4  5  1  0
  4  6  1  0
  3  7  1  0
  5  8  1  0
  6  9  1  0
  7 10  1  1
  8 11  1  0
  9 11  1  0
  7 12  1  0
 11 13  1  0
 12 14  1  0
 12 15  2  0
 13 16  2  0
 13 17  1  0
 14 18  1  0
 15 19  1  0
 18 19  2  0
 16 20  1  0
 17 21  2  0
 20 22  2  0
 21 22  1  0
M  END
