x0282_0_A_α-x0849_0_A_α
     RDKit          3D

 15 16  0  0  0  0  0  0  0  0999 V2000
   -7.7320   14.4570    1.1400 C   0  0  0  0  0  0  0  0  0  0  0  0
   -8.5690   14.6320    0.0100 O   0  0  0  0  0  0  0  0  0  0  0  0
   -6.2500   14.3300    0.7880 C   0  0  2  0  0  0  0  0  0  0  0  0
   -5.3000   14.8990    1.8320 C   0  0  0  0  0  0  0  0  0  0  0  0
   -5.8070   14.8950   -0.5740 C   0  0  0  0  0  0  0  0  0  0  0  0
   -3.9880   14.1660    1.6580 C   0  0  0  0  0  0  0  0  0  0  0  0
   -4.3860   14.3880   -0.8270 C   0  0  1  0  0  0  0  0  0  0  0  0
   -3.6910   15.0330   -2.5340 Br  0  0  0  0  0  0  0  0  0  0  0  0
   -3.4960   14.5370    0.3390 N   0  0  0  0  0  0  0  0  0  0  0  0
   -2.1350   14.5790    0.2510 C   0  0  0  0  0  0  0  0  0  0  0  0
   -1.6400   14.6020   -0.9910 N   0  0  0  0  0  0  0  0  0  0  0  0
   -1.3760   14.6000    1.3560 N   0  0  0  0  0  0  0  0  0  0  0  0
   -0.3260   14.6600   -1.1440 C   0  0  0  0  0  0  0  0  0  0  0  0
   -0.0580   14.6580    1.1500 C   0  0  0  0  0  0  0  0  0  0  0  0
    0.5220   14.6960   -0.1030 C   0  0  0  0  0  0  0  0  0  0  0  0
  1  2  1  0
  3  1  1  1
  3  4  1  0
  3  5  1  0
  4  6  1  0
  5  7  1  0
  7  8  1  6
  6  9  1  0
  7  9  1  0
  9 10  1  0
 10 11  2  0
 10 12  1  0
 11 13  1  0
 12 14  2  0
 13 15  2  0
 14 15  1  0
M  END
