x0282_0_A_α-x0711_0_A_α
     RDKit          3D

 26 28  0  0  0  0  0  0  0  0999 V2000
   -6.4360   13.5280   -0.5200 C   0  0  2  0  0  0  0  0  0  0  0  0
   -7.6410   13.7720   -1.2160 O   0  0  0  0  0  0  0  0  0  0  0  0
   -6.5960   12.2120    0.0530 N   0  0  0  0  0  0  0  0  0  0  0  0
   -6.2250   14.6410    0.5240 C   0  0  0  0  0  0  0  0  0  0  0  0
   -5.2430   13.7210   -1.4610 C   0  0  0  0  0  0  0  0  0  0  0  0
   -5.5480   14.1690    1.8140 C   0  0  0  0  0  0  0  0  0  0  0  0
   -5.3410   15.7350   -0.0920 C   0  0  0  0  0  0  0  0  0  0  0  0
   -5.2630   14.6620   -2.5100 C   0  0  0  0  0  0  0  0  0  0  0  0
   -4.0580   12.9650   -1.2820 C   0  0  0  0  0  0  0  0  0  0  0  0
   -4.0310   14.4260    1.8220 C   0  0  0  0  0  0  0  0  0  0  0  0
   -4.0960   15.1320   -0.6120 C   0  0  0  0  0  0  0  0  0  0  0  0
   -4.1460   14.8490   -3.3310 C   0  0  0  0  0  0  0  0  0  0  0  0
   -2.9380   13.1560   -2.1100 C   0  0  0  0  0  0  0  0  0  0  0  0
   -3.4460   14.4490    0.4870 N   0  0  0  0  0  0  0  0  0  0  0  0
   -2.9830   14.1100   -3.1370 C   0  0  0  0  0  0  0  0  0  0  0  0
   -1.8580   14.3440   -3.9880 N   0  0  0  0  0  0  0  0  0  0  0  0
   -2.1120   14.5610    0.4040 C   0  0  0  0  0  0  0  0  0  0  0  0
   -0.4380   13.4360   -3.9490 S   0  0  0  0  0  0  0  0  0  0  0  0
   -1.6420   14.6960   -0.8410 N   0  0  0  0  0  0  0  0  0  0  0  0
   -1.3490   14.5470    1.5040 N   0  0  0  0  0  0  0  0  0  0  0  0
   -0.8470   12.0530   -4.9930 C   0  0  0  0  0  0  0  0  0  0  0  0
    0.6300   14.1810   -4.5730 O   0  0  0  0  0  0  0  0  0  0  0  0
   -0.2990   12.9280   -2.5990 O   0  0  0  0  0  0  0  0  0  0  0  0
   -0.3440   14.8330   -1.0130 C   0  0  0  0  0  0  0  0  0  0  0  0
   -0.0450   14.6850    1.2690 C   0  0  0  0  0  0  0  0  0  0  0  0
    0.5120   14.8390    0.0160 C   0  0  0  0  0  0  0  0  0  0  0  0
  1  2  1  0
  1  3  1  1
  1  4  1  0
  1  5  1  0
  4  6  1  0
  4  7  1  0
  5  8  2  0
  5  9  1  0
  6 10  1  0
  7 11  1  0
  8 12  1  0
  9 13  2  0
 10 14  1  0
 11 14  1  0
 12 15  2  0
 13 15  1  0
 15 16  1  0
 14 17  1  0
 18 16  1  0
 17 19  2  0
 17 20  1  0
 18 21  1  0
 18 22  2  0
 18 23  2  0
 19 24  1  0
 20 25  2  0
 24 26  2  0
 25 26  1  0
M  END
