x0282_0_A-x0910_1_A
     RDKit          3D

 14 15  0  0  0  0  0  0  0  0999 V2000
   -7.0710   13.3540    0.5650 C   0  0  0  0  0  0  0  0  0  0  0  0
   -8.4460   13.6140    0.2900 O   0  0  0  0  0  0  0  0  0  0  0  0
   -6.3480   14.6890    0.5980 C   0  0  0  0  0  0  0  0  0  0  0  0
   -5.4080   14.8310    1.8020 C   0  0  0  0  0  0  0  0  0  0  0  0
   -5.6210   15.0590   -0.7060 C   0  0  0  0  0  0  0  0  0  0  0  0
   -4.1450   14.0030    1.6180 C   0  0  0  0  0  0  0  0  0  0  0  0
   -4.3100   14.3000   -0.8830 C   0  0  0  0  0  0  0  0  0  0  0  0
   -3.5430   14.3350    0.3530 N   0  0  0  0  0  0  0  0  0  0  0  0
   -2.1870   14.4640    0.2760 C   0  0  0  0  0  0  0  0  0  0  0  0
   -1.6850   14.5350   -0.9640 N   0  0  0  0  0  0  0  0  0  0  0  0
   -1.4320   14.5130    1.3970 N   0  0  0  0  0  0  0  0  0  0  0  0
   -0.3710   14.6680   -1.1050 C   0  0  0  0  0  0  0  0  0  0  0  0
   -0.1130   14.6430    1.1910 C   0  0  0  0  0  0  0  0  0  0  0  0
    0.4700   14.7310   -0.0540 C   0  0  0  0  0  0  0  0  0  0  0  0
  1  2  1  0
  1  3  1  0
  3  4  1  0
  3  5  1  0
  4  6  1  0
  5  7  1  0
  6  8  1  0
  7  8  1  0
  8  9  1  0
  9 10  2  0
  9 11  1  0
 10 12  1  0
 11 13  2  0
 12 14  2  0
 13 14  1  0
M  END
