x0282_0_A_α-x0805_0_A_α
     RDKit          3D

 22 24  0  0  0  0  0  0  0  0999 V2000
   -7.7570   14.4770    1.3120 C   0  0  0  0  0  0  0  0  0  0  0  0
   -8.3850   14.6270    0.0430 O   0  0  0  0  0  0  0  0  0  0  0  0
   -6.2590   14.1320    1.1800 C   0  0  2  0  0  0  0  0  0  0  0  0
   -5.3930   14.6260    2.3640 C   0  0  0  0  0  0  0  0  0  0  0  0
   -5.5270   14.4960   -0.1240 C   0  0  1  0  0  0  0  0  0  0  0  0
   -4.9180   15.8860   -0.2170 C   0  0  0  0  0  0  0  0  0  0  0  0
   -3.9410   14.1380    2.2780 C   0  0  0  0  0  0  0  0  0  0  0  0
   -4.3000   13.6280   -0.1320 C   0  0  0  0  0  0  0  0  0  0  0  0
   -3.5920   15.7270   -0.7320 O   0  0  0  0  0  0  0  0  0  0  0  0
   -3.4790   14.2200    0.9090 N   0  0  0  0  0  0  0  0  0  0  0  0
   -2.1440   14.4050    0.6450 C   0  0  0  0  0  0  0  0  0  0  0  0
   -3.3950   15.0650   -1.9250 C   0  0  0  0  0  0  0  0  0  0  0  0
   -1.7550   14.5120   -0.6310 N   0  0  0  0  0  0  0  0  0  0  0  0
   -1.2980   14.4670    1.6650 N   0  0  0  0  0  0  0  0  0  0  0  0
   -4.5160   14.4240   -2.4450 C   0  0  0  0  0  0  0  0  0  0  0  0
   -2.1950   14.9880   -2.6360 C   0  0  0  0  0  0  0  0  0  0  0  0
   -0.4660   14.6860   -0.9000 C   0  0  0  0  0  0  0  0  0  0  0  0
   -0.0220   14.6420    1.3470 C   0  0  0  0  0  0  0  0  0  0  0  0
   -2.1110   14.3010   -3.8370 C   0  0  0  0  0  0  0  0  0  0  0  0
   -4.4390   13.7300   -3.6490 C   0  0  0  0  0  0  0  0  0  0  0  0
    0.4580   14.7640    0.0640 C   0  0  0  0  0  0  0  0  0  0  0  0
   -3.2390   13.6710   -4.3480 C   0  0  0  0  0  0  0  0  0  0  0  0
  1  2  1  0
  3  1  1  6
  3  4  1  0
  3  5  1  0
  5  6  1  1
  4  7  1  0
  5  8  1  0
  6  9  1  0
  7 10  1  0
  8 10  1  0
 10 11  1  0
  9 12  1  0
 11 13  2  0
 11 14  1  0
 12 15  2  0
 12 16  1  0
 13 17  1  0
 14 18  2  0
 16 19  2  0
 15 20  1  0
 17 21  2  0
 18 21  1  0
 19 22  1  0
 20 22  2  0
M  END
