x0282_0_A_α-x1015_0_A_α
     RDKit          3D

 29 32  0  0  0  0  0  0  0  0999 V2000
   -7.0910   13.4520    0.4510 C   0  0  0  0  0  0  0  0  0  0  0  0
   -8.4720   13.7590    0.2530 O   0  0  0  0  0  0  0  0  0  0  0  0
   -6.3190   14.7520    0.2700 C   0  0  0  0  0  0  0  0  0  0  0  0
   -5.3700   15.0470    1.4510 C   0  0  0  0  0  0  0  0  0  0  0  0
   -5.5700   14.8760   -1.0590 C   0  0  0  0  0  0  0  0  0  0  0  0
   -4.0910   14.2460    1.4000 C   0  0  0  0  0  0  0  0  0  0  0  0
   -4.1580   14.2780   -1.0380 C   0  0  0  0  0  0  0  0  0  0  0  0
   -3.4730   14.5760    0.2090 N   0  0  0  0  0  0  0  0  0  0  0  0
   -2.1220   14.6570    0.2150 C   0  0  0  0  0  0  0  0  0  0  0  0
   -1.5780   14.7580   -0.9630 N   0  0  0  0  0  0  0  0  0  0  0  0
   -1.4200   14.6360    1.3780 N   0  0  0  0  0  0  0  0  0  0  0  0
   -0.2760   14.8570   -1.0340 C   0  0  0  0  0  0  0  0  0  0  0  0
   -0.0930   14.7370    1.2390 C   0  0  0  0  0  0  0  0  0  0  0  0
    0.1860   14.9420   -2.3130 N   0  0  0  0  0  0  0  0  0  0  0  0
    0.5320   14.8600    0.0240 C   0  0  0  0  0  0  0  0  0  0  0  0
    0.2290   13.8150   -2.8630 C   0  0  0  0  0  0  0  0  0  0  0  0
    0.5500   13.4090   -4.2630 C   0  0  2  0  0  0  0  0  0  0  0  0
   -0.0880   12.7260   -2.1150 N   0  0  0  0  0  0  0  0  0  0  0  0
   -0.4410   14.1670   -5.1460 C   0  0  0  0  0  0  0  0  0  0  0  0
    0.2400   11.9850   -4.1460 N   0  0  0  0  0  0  0  0  0  0  0  0
    0.1900   11.6010   -2.8060 C   0  0  0  0  0  0  0  0  0  0  0  0
    0.3550   10.4940   -2.2870 O   0  0  0  0  0  0  0  0  0  0  0  0
   -0.3100   11.2500   -5.2110 C   0  0  0  0  0  0  0  0  0  0  0  0
    0.1510   11.4550   -6.5150 C   0  0  0  0  0  0  0  0  0  0  0  0
   -1.3160   10.3000   -5.0020 C   0  0  0  0  0  0  0  0  0  0  0  0
   -0.3730   10.7320   -7.5830 C   0  0  0  0  0  0  0  0  0  0  0  0
   -1.8470    9.5690   -6.0700 C   0  0  0  0  0  0  0  0  0  0  0  0
   -1.3690    9.7910   -7.3540 C   0  0  0  0  0  0  0  0  0  0  0  0
   -2.0140    8.8960   -8.6700 Cl  0  0  0  0  0  0  0  0  0  0  0  0
  1  2  1  0
  1  3  1  0
  3  4  1  0
  3  5  1  0
  4  6  1  0
  5  7  1  0
  6  8  1  0
  7  8  1  0
  8  9  1  0
  9 10  2  0
  9 11  1  0
 10 12  1  0
 11 13  2  0
 12 14  1  0
 12 15  2  0
 13 15  1  0
 14 16  2  3
 16 17  1  0
 16 18  1  0
 17 19  1  6
 17 20  1  0
 18 21  1  0
 20 21  1  0
 21 22  2  0
 20 23  1  0
 23 24  2  0
 23 25  1  0
 24 26  1  0
 25 27  2  0
 26 28  2  0
 27 28  1  0
 28 29  1  0
M  END
