x0282_0_A-x0950_0_A
     RDKit          3D

 21 22  0  0  0  0  0  0  0  0999 V2000
   -7.4560   13.6640    0.9560 C   0  0  0  0  0  0  0  0  0  0  0  0
   -8.6830   14.1170    0.3960 O   0  0  0  0  0  0  0  0  0  0  0  0
   -6.3590   14.6230    0.5170 C   0  0  0  0  0  0  0  0  0  0  0  0
   -5.3680   14.9370    1.6630 C   0  0  0  0  0  0  0  0  0  0  0  0
   -5.6480   14.2040   -0.7600 C   0  0  0  0  0  0  0  0  0  0  0  0
   -4.1290   14.0610    1.6270 C   0  0  0  0  0  0  0  0  0  0  0  0
   -4.2390   14.7500   -0.7850 C   0  0  0  0  0  0  0  0  0  0  0  0
   -3.5030   14.2240    0.3420 N   0  0  0  0  0  0  0  0  0  0  0  0
   -2.1650   14.3550    0.2960 C   0  0  0  0  0  0  0  0  0  0  0  0
   -1.6460   14.2750   -0.9290 N   0  0  0  0  0  0  0  0  0  0  0  0
   -1.4460   14.5450    1.4230 N   0  0  0  0  0  0  0  0  0  0  0  0
   -0.3350   14.3970   -1.0550 C   0  0  0  0  0  0  0  0  0  0  0  0
   -0.1290   14.6690    1.2270 C   0  0  0  0  0  0  0  0  0  0  0  0
    0.2800   14.2780   -2.4030 C   0  0  0  0  0  0  0  0  0  0  0  0
    0.4650   14.6090   -0.0070 C   0  0  0  0  0  0  0  0  0  0  0  0
    1.0590   13.0690   -2.2930 O   0  0  0  0  0  0  0  0  0  0  0  0
    0.8420   12.1530   -3.2530 C   0  0  0  0  0  0  0  0  0  0  0  0
    1.2660   12.7420   -4.5930 C   0  0  1  0  0  0  0  0  0  0  0  0
    0.3880   11.0220   -3.1010 O   0  0  0  0  0  0  0  0  0  0  0  0
    2.7550   13.0050   -4.5980 C   0  0  0  0  0  0  0  0  0  0  0  0
    0.9320   11.8900   -5.6830 O   0  0  0  0  0  0  0  0  0  0  0  0
  1  2  1  0
  1  3  1  0
  3  4  1  0
  3  5  1  0
  4  6  1  0
  5  7  1  0
  6  8  1  0
  7  8  1  0
  8  9  1  0
  9 10  2  0
  9 11  1  0
 10 12  1  0
 11 13  2  0
 12 14  1  0
 12 15  2  0
 13 15  1  0
 14 16  1  0
 16 17  1  0
 17 18  1  0
 17 19  2  0
 18 20  1  1
 18 21  1  0
M  END
