x0282_0_A_α-x0967_0_A_α
     RDKit          3D

 18 20  0  0  0  0  0  0  0  0999 V2000
   -7.4400   12.6770    0.9380 C   0  0  0  0  0  0  0  0  0  0  0  0
   -8.5200   13.3540    0.2890 O   0  0  0  0  0  0  0  0  0  0  0  0
   -6.1450   12.9350    0.1690 C   0  0  0  0  0  0  0  0  0  0  0  0
   -5.7340   14.3990   -0.0260 C   0  0  1  0  0  0  0  0  0  0  0  0
   -4.3610   14.5560   -0.7300 C   0  0  0  0  0  0  0  0  0  0  0  0
   -6.8740   15.1080   -0.6640 N   0  0  0  0  0  0  0  0  0  0  0  0
   -5.3720   15.0280    1.3130 C   0  0  1  0  0  0  0  0  0  0  0  0
   -6.5610   14.9120    2.2200 C   0  0  0  0  0  0  0  0  0  0  0  0
   -4.1130   14.2320    1.6590 C   0  0  0  0  0  0  0  0  0  0  0  0
   -3.4680   14.1800    0.3650 N   0  0  0  0  0  0  0  0  0  0  0  0
   -8.0680   15.0800    0.1950 C   0  0  0  0  0  0  0  0  0  0  0  0
   -2.1400   14.3870    0.2700 C   0  0  0  0  0  0  0  0  0  0  0  0
   -7.7950   14.9300    1.6820 C   0  0  0  0  0  0  0  0  0  0  0  0
   -1.6500   14.5000   -0.9700 N   0  0  0  0  0  0  0  0  0  0  0  0
   -1.4010   14.4630    1.3950 N   0  0  0  0  0  0  0  0  0  0  0  0
   -0.3440   14.7060   -1.0990 C   0  0  0  0  0  0  0  0  0  0  0  0
   -0.0960   14.6660    1.1990 C   0  0  0  0  0  0  0  0  0  0  0  0
    0.4890   14.8000   -0.0400 C   0  0  0  0  0  0  0  0  0  0  0  0
  1  2  1  0
  1  3  1  0
  4  3  1  1
  4  5  1  0
  4  6  1  0
  4  7  1  0
  7  8  1  1
  7  9  1  0
  5 10  1  0
  9 10  1  0
  6 11  1  0
 10 12  1  0
  8 13  2  0
 11 13  1  0
 12 14  2  0
 12 15  1  0
 14 16  1  0
 15 17  2  0
 16 18  2  0
 17 18  1  0
M  END
