x0282_0_A_α-x0128_0_A_α
     RDKit          3D

 24 26  0  0  0  0  0  0  0  0999 V2000
   -7.8880   14.4150    0.5090 C   0  0  0  0  0  0  0  0  0  0  0  0
   -8.5360   14.0180   -0.6870 O   0  0  0  0  0  0  0  0  0  0  0  0
   -6.3760   14.1850    0.4530 C   0  0  2  0  0  0  0  0  0  0  0  0
   -5.6710   14.1560    1.8240 C   0  0  2  0  0  0  0  0  0  0  0  0
   -5.6620   15.1610   -0.5020 C   0  0  0  0  0  0  0  0  0  0  0  0
   -6.2050   15.0890    2.8180 N   0  0  0  0  0  0  0  0  0  0  0  0
   -4.1290   14.3230    1.7130 C   0  0  0  0  0  0  0  0  0  0  0  0
   -4.2910   14.6240   -0.8430 C   0  0  0  0  0  0  0  0  0  0  0  0
   -7.5490   15.1990    3.2110 C   0  0  0  0  0  0  0  0  0  0  0  0
   -3.5530   14.2780    0.3680 N   0  0  0  0  0  0  0  0  0  0  0  0
   -8.4980   15.2850    2.4430 O   0  0  0  0  0  0  0  0  0  0  0  0
   -7.6380   15.2250    4.5750 N   0  0  0  0  0  0  0  0  0  0  0  0
   -2.1980   14.4290    0.2770 C   0  0  0  0  0  0  0  0  0  0  0  0
   -1.6980   14.5120   -0.9650 N   0  0  0  0  0  0  0  0  0  0  0  0
   -1.4370   14.4870    1.3940 N   0  0  0  0  0  0  0  0  0  0  0  0
   -8.4640   16.0670    5.3580 C   0  0  0  0  0  0  0  0  0  0  0  0
   -0.3860   14.6660   -1.1020 C   0  0  0  0  0  0  0  0  0  0  0  0
   -0.1220   14.6400    1.1930 C   0  0  0  0  0  0  0  0  0  0  0  0
   -9.1210   17.2070    4.8990 C   0  0  0  0  0  0  0  0  0  0  0  0
   -8.6410   15.7350    6.7010 C   0  0  0  0  0  0  0  0  0  0  0  0
    0.4600   14.7410   -0.0520 C   0  0  0  0  0  0  0  0  0  0  0  0
   -9.9120   17.9980    5.6700 N   0  0  0  0  0  0  0  0  0  0  0  0
   -9.4480   16.5320    7.5180 C   0  0  0  0  0  0  0  0  0  0  0  0
  -10.0550   17.6430    6.9590 C   0  0  0  0  0  0  0  0  0  0  0  0
  1  2  1  0
  3  1  1  1
  3  4  1  0
  3  5  1  0
  4  6  1  1
  4  7  1  0
  5  8  1  0
  6  9  1  0
  7 10  1  0
  8 10  1  0
  9 11  2  0
  9 12  1  0
 10 13  1  0
 13 14  2  0
 13 15  1  0
 12 16  1  0
 14 17  1  0
 15 18  2  0
 16 19  2  0
 16 20  1  0
 17 21  2  0
 18 21  1  0
 19 22  1  0
 20 23  2  0
 22 24  2  0
 23 24  1  0
M  END
