x0282_0_A_α-x0591_0_A_α
     RDKit          3D

 26 28  0  0  0  0  0  0  0  0999 V2000
   -7.2660   13.5030    0.7380 C   0  0  1  0  0  0  0  0  0  0  0  0
   -8.6010   13.9650    0.6300 O   0  0  0  0  0  0  0  0  0  0  0  0
   -6.8550   13.0180   -0.5080 N   0  0  0  0  0  0  0  0  0  0  0  0
   -6.3460   14.6740    1.0060 C   0  0  0  0  0  0  0  0  0  0  0  0
   -6.8250   14.1940   -1.3480 C   0  0  0  0  0  0  0  0  0  0  0  0
   -5.4000   14.3290    2.1150 C   0  0  0  0  0  0  0  0  0  0  0  0
   -5.6840   15.2820   -0.2590 C   0  0  0  0  0  0  0  0  0  0  0  0
   -3.9130   14.1440    1.8530 C   0  0  0  0  0  0  0  0  0  0  0  0
   -4.2390   15.6700   -0.0390 C   0  0  0  0  0  0  0  0  0  0  0  0
   -5.5880   14.2420   -2.1950 C   0  0  0  0  0  0  0  0  0  0  0  0
   -3.5090   14.5880    0.5640 N   0  0  0  0  0  0  0  0  0  0  0  0
   -4.3010   13.8170   -1.7830 C   0  0  0  0  0  0  0  0  0  0  0  0
   -5.7660   14.7380   -3.4630 C   0  0  0  0  0  0  0  0  0  0  0  0
   -2.1690   14.6060    0.3890 C   0  0  0  0  0  0  0  0  0  0  0  0
   -3.2220   13.9040   -2.6730 C   0  0  0  0  0  0  0  0  0  0  0  0
   -4.7120   14.8220   -4.3380 C   0  0  0  0  0  0  0  0  0  0  0  0
   -1.7190   14.6370   -0.8650 N   0  0  0  0  0  0  0  0  0  0  0  0
   -1.3730   14.5930    1.4710 N   0  0  0  0  0  0  0  0  0  0  0  0
   -3.4600   14.4110   -3.9500 C   0  0  0  0  0  0  0  0  0  0  0  0
   -2.2190   14.5640   -5.1810 S   0  0  0  0  0  0  0  0  0  0  0  0
   -0.4100   14.6650   -1.0640 C   0  0  0  0  0  0  0  0  0  0  0  0
   -0.0640   14.6220    1.2170 C   0  0  0  0  0  0  0  0  0  0  0  0
   -1.1360   15.6920   -4.5620 N   0  0  0  0  0  0  0  0  0  0  0  0
   -1.5110   13.3100   -5.2690 O   0  0  0  0  0  0  0  0  0  0  0  0
   -2.8950   15.1670   -6.3040 O   0  0  0  0  0  0  0  0  0  0  0  0
    0.4760   14.6630   -0.0530 C   0  0  0  0  0  0  0  0  0  0  0  0
  1  2  1  6
  1  3  1  0
  1  4  1  0
  3  5  1  0
  4  6  1  0
  4  7  1  0
  6  8  1  0
  7  9  1  0
  5 10  1  0
  8 11  1  0
  9 11  1  0
 10 12  2  0
 10 13  1  0
 11 14  1  0
 12 15  1  0
 13 16  2  0
 14 17  2  0
 14 18  1  0
 15 19  2  0
 16 19  1  0
 19 20  1  0
 17 21  1  0
 18 22  2  0
 20 23  1  0
 20 24  2  0
 20 25  2  0
 21 26  2  0
 22 26  1  0
M  END
