x0282_0_A_α-x0689_0_A_α
     RDKit          3D

 16 17  0  0  0  0  0  0  0  0999 V2000
   -7.4540   13.4770    0.4960 C   0  0  0  0  0  0  0  0  0  0  0  0
   -8.6920   14.0930    0.1560 O   0  0  0  0  0  0  0  0  0  0  0  0
   -6.4510   14.5620    0.8810 C   0  0  0  0  0  0  0  0  0  0  0  0
   -5.3910   14.1200    1.8650 C   0  0  0  0  0  0  0  0  0  0  0  0
   -5.7890   15.1900   -0.3630 C   0  0  0  0  0  0  0  0  0  0  0  0
   -4.2580   13.3060    1.2230 C   0  0  0  0  0  0  0  0  0  0  0  0
   -4.7810   14.2660   -1.0550 C   0  0  0  0  0  0  0  0  0  0  0  0
   -3.7840   13.7140   -0.1390 N   0  0  0  0  0  0  0  0  0  0  0  0
   -2.4470   14.3370   -0.2320 C   0  0  2  0  0  0  0  0  0  0  0  0
   -1.5500   13.9670   -1.3250 N   0  0  0  0  0  0  0  0  0  0  0  0
   -1.8480   14.2460    1.1160 N   0  0  0  0  0  0  0  0  0  0  0  0
   -2.8200   14.9150    2.0190 N   0  0  0  0  0  0  0  0  0  0  0  0
   -0.2270   14.3100   -1.2640 C   0  0  0  0  0  0  0  0  0  0  0  0
   -0.5410   14.9460    1.0950 C   0  0  0  0  0  0  0  0  0  0  0  0
   -3.6860   15.8900    1.3560 C   0  0  0  0  0  0  0  0  0  0  0  0
    0.3010   14.7810   -0.1430 C   0  0  0  0  0  0  0  0  0  0  0  0
  1  2  1  0
  1  3  1  0
  3  4  1  0
  3  5  1  0
  4  6  1  0
  5  7  1  0
  6  8  1  0
  7  8  1  0
  9  8  1  1
  9 10  1  0
  9 11  1  0
 11 12  1  0
 10 13  1  0
 11 14  1  0
 12 15  1  0
 13 16  2  0
 14 16  1  0
M  END
