x0282_0_A-x0962_1_A
     RDKit          3D

 15 16  0  0  0  0  0  0  0  0999 V2000
   -7.7600   14.4660    1.1230 C   0  0  0  0  0  0  0  0  0  0  0  0
   -8.5850   14.6440   -0.0130 O   0  0  0  0  0  0  0  0  0  0  0  0
   -6.2690   14.3570    0.7870 C   0  0  2  0  0  0  0  0  0  0  0  0
   -5.3130   14.8880    1.8360 C   0  0  0  0  0  0  0  0  0  0  0  0
   -5.7400   14.8860   -0.5490 C   0  0  0  0  0  0  0  0  0  0  0  0
   -3.9980   14.1630    1.7050 C   0  0  0  0  0  0  0  0  0  0  0  0
   -4.2850   14.4120   -0.8300 C   0  0  2  0  0  0  0  0  0  0  0  0
   -3.4890   14.4950    0.3960 N   0  0  0  0  0  0  0  0  0  0  0  0
   -3.7730   15.0770   -2.0220 N   0  0  0  0  0  0  0  0  0  0  0  0
   -2.1350   14.5610    0.2620 C   0  0  0  0  0  0  0  0  0  0  0  0
   -1.6500   14.5920   -0.9870 N   0  0  0  0  0  0  0  0  0  0  0  0
   -1.3690   14.5940    1.3710 N   0  0  0  0  0  0  0  0  0  0  0  0
   -0.3360   14.6700   -1.1380 C   0  0  0  0  0  0  0  0  0  0  0  0
   -0.0560   14.6710    1.1560 C   0  0  0  0  0  0  0  0  0  0  0  0
    0.5200   14.7170   -0.0990 C   0  0  0  0  0  0  0  0  0  0  0  0
  1  2  1  0
  3  1  1  1
  3  4  1  0
  3  5  1  0
  4  6  1  0
  5  7  1  0
  6  8  1  0
  7  8  1  0
  7  9  1  6
  8 10  1  0
 10 11  2  0
 10 12  1  0
 11 13  1  0
 12 14  2  0
 13 15  2  0
 14 15  1  0
M  END
