x0282_0_A_α-x0128_0_A_α
     RDKit          3D

 24 26  0  0  0  0  0  0  0  0999 V2000
   -7.8890   14.4170    0.5080 C   0  0  0  0  0  0  0  0  0  0  0  0
   -8.5370   14.0230   -0.6890 O   0  0  0  0  0  0  0  0  0  0  0  0
   -6.3760   14.1900    0.4520 C   0  0  2  0  0  0  0  0  0  0  0  0
   -5.6750   14.1610    1.8220 C   0  0  2  0  0  0  0  0  0  0  0  0
   -5.6610   15.1590   -0.5040 C   0  0  0  0  0  0  0  0  0  0  0  0
   -6.2070   15.0930    2.8150 N   0  0  0  0  0  0  0  0  0  0  0  0
   -4.1320   14.3240    1.7140 C   0  0  0  0  0  0  0  0  0  0  0  0
   -4.2870   14.6230   -0.8400 C   0  0  0  0  0  0  0  0  0  0  0  0
   -7.5490   15.1970    3.2080 C   0  0  0  0  0  0  0  0  0  0  0  0
   -3.5520   14.2790    0.3730 N   0  0  0  0  0  0  0  0  0  0  0  0
   -8.4970   15.2860    2.4390 O   0  0  0  0  0  0  0  0  0  0  0  0
   -7.6420   15.2240    4.5710 N   0  0  0  0  0  0  0  0  0  0  0  0
   -2.1970   14.4280    0.2790 C   0  0  0  0  0  0  0  0  0  0  0  0
   -1.6980   14.5090   -0.9620 N   0  0  0  0  0  0  0  0  0  0  0  0
   -1.4350   14.4850    1.3940 N   0  0  0  0  0  0  0  0  0  0  0  0
   -8.4640   16.0640    5.3550 C   0  0  0  0  0  0  0  0  0  0  0  0
   -0.3860   14.6620   -1.1050 C   0  0  0  0  0  0  0  0  0  0  0  0
   -0.1200   14.6360    1.1890 C   0  0  0  0  0  0  0  0  0  0  0  0
   -9.1210   17.2080    4.8960 C   0  0  0  0  0  0  0  0  0  0  0  0
   -8.6430   15.7330    6.6970 C   0  0  0  0  0  0  0  0  0  0  0  0
    0.4630   14.7350   -0.0560 C   0  0  0  0  0  0  0  0  0  0  0  0
   -9.9110   17.9970    5.6700 N   0  0  0  0  0  0  0  0  0  0  0  0
   -9.4480   16.5300    7.5160 C   0  0  0  0  0  0  0  0  0  0  0  0
  -10.0550   17.6420    6.9580 C   0  0  0  0  0  0  0  0  0  0  0  0
  1  2  1  0
  3  1  1  1
  3  4  1  0
  3  5  1  0
  4  6  1  1
  4  7  1  0
  5  8  1  0
  6  9  1  0
  7 10  1  0
  8 10  1  0
  9 11  2  0
  9 12  1  0
 10 13  1  0
 13 14  2  0
 13 15  1  0
 12 16  1  0
 14 17  1  0
 15 18  2  0
 16 19  2  0
 16 20  1  0
 17 21  2  0
 18 21  1  0
 19 22  1  0
 20 23  2  0
 22 24  2  0
 23 24  1  0
M  END
