x0282_0_A-x0711_0_A
     RDKit          3D

 26 28  0  0  0  0  0  0  0  0999 V2000
   -6.4400   13.5220   -0.5160 C   0  0  2  0  0  0  0  0  0  0  0  0
   -7.6520   13.7580   -1.2080 O   0  0  0  0  0  0  0  0  0  0  0  0
   -6.5950   12.2080    0.0630 N   0  0  0  0  0  0  0  0  0  0  0  0
   -6.2290   14.6370    0.5260 C   0  0  0  0  0  0  0  0  0  0  0  0
   -5.2500   13.7190   -1.4590 C   0  0  0  0  0  0  0  0  0  0  0  0
   -5.5460   14.1700    1.8160 C   0  0  0  0  0  0  0  0  0  0  0  0
   -5.3440   15.7310   -0.0940 C   0  0  0  0  0  0  0  0  0  0  0  0
   -5.2700   14.6610   -2.5110 C   0  0  0  0  0  0  0  0  0  0  0  0
   -4.0630   12.9670   -1.2830 C   0  0  0  0  0  0  0  0  0  0  0  0
   -4.0310   14.4260    1.8190 C   0  0  0  0  0  0  0  0  0  0  0  0
   -4.0980   15.1270   -0.6120 C   0  0  0  0  0  0  0  0  0  0  0  0
   -4.1520   14.8460   -3.3340 C   0  0  0  0  0  0  0  0  0  0  0  0
   -2.9440   13.1550   -2.1090 C   0  0  0  0  0  0  0  0  0  0  0  0
   -3.4460   14.4520    0.4860 N   0  0  0  0  0  0  0  0  0  0  0  0
   -2.9900   14.1080   -3.1380 C   0  0  0  0  0  0  0  0  0  0  0  0
   -1.8660   14.3410   -3.9880 N   0  0  0  0  0  0  0  0  0  0  0  0
   -2.1110   14.5660    0.4070 C   0  0  0  0  0  0  0  0  0  0  0  0
   -0.4440   13.4350   -3.9450 S   0  0  0  0  0  0  0  0  0  0  0  0
   -1.6440   14.6960   -0.8390 N   0  0  0  0  0  0  0  0  0  0  0  0
   -1.3460   14.5540    1.5020 N   0  0  0  0  0  0  0  0  0  0  0  0
   -0.8410   12.0540   -4.9940 C   0  0  0  0  0  0  0  0  0  0  0  0
    0.6180   14.1930   -4.5690 O   0  0  0  0  0  0  0  0  0  0  0  0
   -0.2990   12.9300   -2.5970 O   0  0  0  0  0  0  0  0  0  0  0  0
   -0.3460   14.8340   -1.0160 C   0  0  0  0  0  0  0  0  0  0  0  0
   -0.0420   14.6920    1.2620 C   0  0  0  0  0  0  0  0  0  0  0  0
    0.5190   14.8440    0.0090 C   0  0  0  0  0  0  0  0  0  0  0  0
  1  2  1  0
  1  3  1  1
  1  4  1  0
  1  5  1  0
  4  6  1  0
  4  7  1  0
  5  8  2  0
  5  9  1  0
  6 10  1  0
  7 11  1  0
  8 12  1  0
  9 13  2  0
 10 14  1  0
 11 14  1  0
 12 15  2  0
 13 15  1  0
 15 16  1  0
 14 17  1  0
 18 16  1  0
 17 19  2  0
 17 20  1  0
 18 21  1  0
 18 22  2  0
 18 23  2  0
 19 24  1  0
 20 25  2  0
 24 26  2  0
 25 26  1  0
M  END
