x0282_0_A-x0849_0_A
     RDKit          3D

 15 16  0  0  0  0  0  0  0  0999 V2000
   -7.7340   14.4550    1.1400 C   0  0  0  0  0  0  0  0  0  0  0  0
   -8.5700   14.6310    0.0100 O   0  0  0  0  0  0  0  0  0  0  0  0
   -6.2500   14.3280    0.7870 C   0  0  2  0  0  0  0  0  0  0  0  0
   -5.3010   14.8980    1.8310 C   0  0  0  0  0  0  0  0  0  0  0  0
   -5.8090   14.8920   -0.5750 C   0  0  0  0  0  0  0  0  0  0  0  0
   -3.9870   14.1660    1.6560 C   0  0  0  0  0  0  0  0  0  0  0  0
   -4.3850   14.3880   -0.8290 C   0  0  1  0  0  0  0  0  0  0  0  0
   -3.6930   15.0340   -2.5350 Br  0  0  0  0  0  0  0  0  0  0  0  0
   -3.4970   14.5390    0.3390 N   0  0  0  0  0  0  0  0  0  0  0  0
   -2.1350   14.5800    0.2510 C   0  0  0  0  0  0  0  0  0  0  0  0
   -1.6420   14.6020   -0.9910 N   0  0  0  0  0  0  0  0  0  0  0  0
   -1.3770   14.6000    1.3570 N   0  0  0  0  0  0  0  0  0  0  0  0
   -0.3270   14.6590   -1.1440 C   0  0  0  0  0  0  0  0  0  0  0  0
   -0.0600   14.6570    1.1500 C   0  0  0  0  0  0  0  0  0  0  0  0
    0.5230   14.6940   -0.1040 C   0  0  0  0  0  0  0  0  0  0  0  0
  1  2  1  0
  3  1  1  1
  3  4  1  0
  3  5  1  0
  4  6  1  0
  5  7  1  0
  7  8  1  6
  6  9  1  0
  7  9  1  0
  9 10  1  0
 10 11  2  0
 10 12  1  0
 11 13  1  0
 12 14  2  0
 13 15  2  0
 14 15  1  0
M  END
