x0282_0_A-x0926_0_A
     RDKit          3D

 14 15  0  0  0  0  0  0  0  0999 V2000
   -7.0700   13.3500    0.5700 C   0  0  0  0  0  0  0  0  0  0  0  0
   -8.4460   13.6100    0.3000 O   0  0  0  0  0  0  0  0  0  0  0  0
   -6.3520   14.6840    0.6090 C   0  0  0  0  0  0  0  0  0  0  0  0
   -5.4090   14.8290    1.8090 C   0  0  0  0  0  0  0  0  0  0  0  0
   -5.6350   15.0580   -0.6980 C   0  0  0  0  0  0  0  0  0  0  0  0
   -4.1320   14.0230    1.6260 C   0  0  0  0  0  0  0  0  0  0  0  0
   -4.3220   14.2970   -0.8830 C   0  0  0  0  0  0  0  0  0  0  0  0
   -3.5450   14.3370    0.3460 N   0  0  0  0  0  0  0  0  0  0  0  0
   -2.1920   14.4700    0.2650 C   0  0  0  0  0  0  0  0  0  0  0  0
   -1.6870   14.5520   -0.9750 N   0  0  0  0  0  0  0  0  0  0  0  0
   -1.4390   14.5140    1.3880 N   0  0  0  0  0  0  0  0  0  0  0  0
   -0.3720   14.6910   -1.1060 C   0  0  0  0  0  0  0  0  0  0  0  0
   -0.1190   14.6510    1.1930 C   0  0  0  0  0  0  0  0  0  0  0  0
    0.4680   14.7510   -0.0530 C   0  0  0  0  0  0  0  0  0  0  0  0
  1  2  1  0
  1  3  1  0
  3  4  1  0
  3  5  1  0
  4  6  1  0
  5  7  1  0
  6  8  1  0
  7  8  1  0
  8  9  1  0
  9 10  2  0
  9 11  1  0
 10 12  1  0
 11 13  2  0
 12 14  2  0
 13 14  1  0
M  END
