x0282_0_A_α-x1012_0_A_α
     RDKit          3D

 27 29  0  0  0  0  0  0  0  0999 V2000
   -7.2780   13.3780    0.4680 C   0  0  0  0  0  0  0  0  0  0  0  0
   -8.5850   13.8730    0.1780 O   0  0  0  0  0  0  0  0  0  0  0  0
   -6.3840   14.5800    0.7230 C   0  0  0  0  0  0  0  0  0  0  0  0
   -5.3130   14.3480    1.7840 C   0  0  0  0  0  0  0  0  0  0  0  0
   -5.7600   15.1290   -0.5800 C   0  0  0  0  0  0  0  0  0  0  0  0
   -4.1260   15.2940    1.6450 C   0  0  0  0  0  0  0  0  0  0  0  0
   -4.2910   14.7400   -0.7750 C   0  0  0  0  0  0  0  0  0  0  0  0
   -3.4920   15.2560    0.3220 N   0  0  0  0  0  0  0  0  0  0  0  0
   -2.2470   14.6980    0.4550 C   0  0  0  0  0  0  0  0  0  0  0  0
   -1.4800   14.3550   -0.6080 N   0  0  0  0  0  0  0  0  0  0  0  0
   -1.8760   14.5130    1.7320 N   0  0  0  0  0  0  0  0  0  0  0  0
   -0.3080   13.7770   -0.2690 C   0  0  0  0  0  0  0  0  0  0  0  0
   -0.7190   13.9440    1.8990 C   0  0  0  0  0  0  0  0  0  0  0  0
    0.7480   13.2840   -1.1740 C   0  0  0  0  0  0  0  0  0  0  0  0
    0.0310   13.5770    0.9520 C   0  0  0  0  0  0  0  0  0  0  0  0
    0.4620   13.6810   -2.4170 N   0  0  0  0  0  0  0  0  0  0  0  0
    0.2170   12.8780   -3.2940 C   0  0  0  0  0  0  0  0  0  0  0  0
    0.2060   11.5230   -3.2610 O   0  0  0  0  0  0  0  0  0  0  0  0
   -0.1260   13.6950   -4.4220 C   0  0  0  0  0  0  0  0  0  0  0  0
   -1.4090   13.5420   -5.1480 C   0  0  0  0  0  0  0  0  0  0  0  0
    1.0120   14.3320   -5.1300 C   0  0  0  0  0  0  0  0  0  0  0  0
   -1.9310   14.9710   -5.1740 C   0  0  0  0  0  0  0  0  0  0  0  0
    0.6100   15.7880   -5.1730 C   0  0  0  0  0  0  0  0  0  0  0  0
   -0.8650   16.0400   -5.1200 N   0  0  0  0  0  0  0  0  0  0  0  0
   -1.3340   17.2860   -4.8380 C   0  0  0  0  0  0  0  0  0  0  0  0
   -0.4150   18.2570   -4.6450 N   0  0  0  0  0  0  0  0  0  0  0  0
   -2.5070   17.5630   -4.7460 O   0  0  0  0  0  0  0  0  0  0  0  0
  1  2  1  0
  1  3  1  0
  3  4  1  0
  3  5  1  0
  4  6  1  0
  5  7  1  0
  6  8  1  0
  7  8  1  0
  8  9  1  0
  9 10  2  0
  9 11  1  0
 10 12  1  0
 11 13  2  0
 12 14  1  0
 12 15  2  0
 13 15  1  0
 14 16  1  0
 16 17  2  3
 17 18  1  0
 17 19  1  0
 19 20  1  0
 19 21  1  0
 20 22  1  0
 21 23  1  0
 22 24  1  0
 23 24  1  0
 24 25  1  0
 25 26  1  0
 25 27  2  0
M  END
