x0282_0_A-x0628_0_A
     RDKit          3D

 27 29  0  0  0  0  0  0  0  0999 V2000
   -7.6860   14.4080    1.1380 C   0  0  0  0  0  0  0  0  0  0  0  0
   -8.5200   14.6050    0.0100 O   0  0  0  0  0  0  0  0  0  0  0  0
   -6.2020   14.3080    0.7860 C   0  0  0  0  0  0  0  0  0  0  0  0
   -5.2900   14.9370    1.8230 C   0  0  0  0  0  0  0  0  0  0  0  0
   -5.7810   14.9230   -0.5530 C   0  0  0  0  0  0  0  0  0  0  0  0
   -3.9830   14.2010    1.7440 C   0  0  0  0  0  0  0  0  0  0  0  0
   -4.2590   15.1180   -0.5720 C   0  0  0  0  0  0  0  0  0  0  0  0
   -3.5570   14.2180    0.3590 N   0  0  0  0  0  0  0  0  0  0  0  0
   -2.1910   14.3700    0.2860 C   0  0  0  0  0  0  0  0  0  0  0  0
   -1.6580   14.3390   -0.9360 N   0  0  0  0  0  0  0  0  0  0  0  0
   -1.4630   14.5330    1.4160 N   0  0  0  0  0  0  0  0  0  0  0  0
   -0.3430   14.4820   -1.0560 C   0  0  0  0  0  0  0  0  0  0  0  0
   -0.1480   14.6740    1.2320 C   0  0  0  0  0  0  0  0  0  0  0  0
    0.2990   14.4240   -2.3990 C   0  0  0  0  0  0  0  0  0  0  0  0
    0.4560   14.6630    0.0040 C   0  0  0  0  0  0  0  0  0  0  0  0
    1.2590   13.3570   -2.2770 O   0  0  0  0  0  0  0  0  0  0  0  0
    1.1440   12.3750   -3.1860 C   0  0  0  0  0  0  0  0  0  0  0  0
    0.7220   11.2410   -2.9730 O   0  0  0  0  0  0  0  0  0  0  0  0
    1.6120   12.9170   -4.5090 C   0  0  0  0  0  0  0  0  0  0  0  0
    0.4530   13.1580   -5.4520 C   0  0  0  0  0  0  0  0  0  0  0  0
   -0.3370   11.9630   -5.6660 N   0  0  0  0  0  0  0  0  0  0  0  0
    0.0760   11.0550   -6.5620 N   0  0  0  0  0  0  0  0  0  0  0  0
   -1.5140   11.5760   -5.0690 C   0  0  0  0  0  0  0  0  0  0  0  0
   -2.2380   12.3530   -4.0340 C   0  0  0  0  0  0  0  0  0  0  0  0
   -1.8770   10.4120   -5.5720 N   0  0  0  0  0  0  0  0  0  0  0  0
   -0.8830   10.1300   -6.4730 C   0  0  0  0  0  0  0  0  0  0  0  0
   -0.8710    8.8990   -7.2810 C   0  0  0  0  0  0  0  0  0  0  0  0
  1  2  1  0
  1  3  1  0
  3  4  1  0
  3  5  1  0
  4  6  1  0
  5  7  1  0
  6  8  1  0
  7  8  1  0
  8  9  1  0
  9 10  2  0
  9 11  1  0
 10 12  1  0
 11 13  2  0
 12 14  1  0
 12 15  2  0
 13 15  1  0
 14 16  1  0
 16 17  1  0
 17 18  2  0
 17 19  1  0
 19 20  1  0
 20 21  1  0
 21 22  1  0
 21 23  1  0
 23 24  1  0
 23 25  2  0
 22 26  2  0
 25 26  1  0
 26 27  1  0
M  END
