x0282_0_A-x0895_0_A
     RDKit          3D

 16 17  0  0  0  0  0  0  0  0999 V2000
   -6.7630   13.3210    1.0240 C   0  0  0  0  0  0  0  0  0  0  0  0
   -8.1060   13.3970    0.5380 O   0  0  0  0  0  0  0  0  0  0  0  0
   -6.1670   14.7040    0.8390 C   0  0  0  0  0  0  0  0  0  0  0  0
   -5.0660   15.2150    1.7820 C   0  0  0  0  0  0  0  0  0  0  0  0
   -5.6870   14.9690   -0.5620 C   0  0  0  0  0  0  0  0  0  0  0  0
   -3.7090   14.6100    1.5770 C   0  0  0  0  0  0  0  0  0  0  0  0
   -4.2140   14.7040   -0.7850 C   0  0  0  0  0  0  0  0  0  0  0  0
   -2.8940   14.5480    2.5020 O   0  0  0  0  0  0  0  0  0  0  0  0
   -3.8220   14.9320   -1.9290 O   0  0  0  0  0  0  0  0  0  0  0  0
   -3.4370   14.2490    0.2870 N   0  0  0  0  0  0  0  0  0  0  0  0
   -2.0570   14.4090    0.1060 C   0  0  0  0  0  0  0  0  0  0  0  0
   -1.5530   14.4320   -1.1320 N   0  0  0  0  0  0  0  0  0  0  0  0
   -1.3020   14.5420    1.2210 N   0  0  0  0  0  0  0  0  0  0  0  0
   -0.2380   14.6010   -1.2600 C   0  0  0  0  0  0  0  0  0  0  0  0
   -0.0010   14.7070    1.0360 C   0  0  0  0  0  0  0  0  0  0  0  0
    0.5960   14.7490   -0.2000 C   0  0  0  0  0  0  0  0  0  0  0  0
  1  2  1  0
  1  3  1  0
  3  4  1  0
  3  5  1  0
  4  6  1  0
  5  7  1  0
  6  8  2  0
  7  9  2  0
  6 10  1  0
  7 10  1  0
 10 11  1  0
 11 12  2  0
 11 13  1  0
 12 14  1  0
 13 15  2  0
 14 16  2  0
 15 16  1  0
M  END
