x0282_0_A-x0910_0_A
     RDKit          3D

 15 16  0  0  0  0  0  0  0  0999 V2000
   -7.8040   14.4320    1.1620 C   0  0  0  0  0  0  0  0  0  0  0  0
   -8.5980   14.6330   -0.0020 O   0  0  0  0  0  0  0  0  0  0  0  0
   -6.3240   14.2700    0.8050 C   0  0  0  0  0  0  0  0  0  0  0  0
   -5.3580   14.8800    1.8100 C   0  0  0  0  0  0  0  0  0  0  0  0
   -5.9080   14.8400   -0.5400 C   0  0  0  0  0  0  0  0  0  0  0  0
   -4.0010   14.2530    1.6200 C   0  0  0  0  0  0  0  0  0  0  0  0
   -4.4250   14.5240   -0.8080 C   0  0  0  0  0  0  0  0  0  0  0  0
   -3.5190   14.7390    0.3410 N   0  0  0  0  0  0  0  0  0  0  0  0
   -2.1720   14.2760    0.1120 C   0  0  1  0  0  0  0  0  0  0  0  0
   -1.5500   14.4720   -1.2230 N   0  0  0  0  0  0  0  0  0  0  0  0
   -1.4340   14.7960    1.2580 N   0  0  0  0  0  0  0  0  0  0  0  0
   -2.3200   14.7220   -2.3650 N   0  0  0  0  0  0  0  0  0  0  0  0
   -0.2150   14.7540   -1.2880 C   0  0  0  0  0  0  0  0  0  0  0  0
   -0.0500   14.3970    1.1330 C   0  0  0  0  0  0  0  0  0  0  0  0
    0.5370   14.7360   -0.2070 C   0  0  0  0  0  0  0  0  0  0  0  0
  1  2  1  0
  1  3  1  0
  3  4  1  0
  3  5  1  0
  4  6  1  0
  5  7  1  0
  6  8  1  0
  7  8  1  0
  9  8  1  6
  9 10  1  0
  9 11  1  0
 10 12  1  0
 10 13  1  0
 11 14  1  0
 13 15  2  0
 14 15  1  0
M  END
