x0282_0_A-x0905_0_A
     RDKit          3D

 14 15  0  0  0  0  0  0  0  0999 V2000
   -7.0710   13.3520    0.5720 C   0  0  0  0  0  0  0  0  0  0  0  0
   -8.4460   13.6110    0.2990 O   0  0  0  0  0  0  0  0  0  0  0  0
   -6.3480   14.6870    0.6040 C   0  0  0  0  0  0  0  0  0  0  0  0
   -5.4070   14.8310    1.8070 C   0  0  0  0  0  0  0  0  0  0  0  0
   -5.6290   15.0570   -0.7000 C   0  0  0  0  0  0  0  0  0  0  0  0
   -4.1380   14.0150    1.6230 C   0  0  0  0  0  0  0  0  0  0  0  0
   -4.3160   14.2970   -0.8830 C   0  0  0  0  0  0  0  0  0  0  0  0
   -3.5430   14.3340    0.3480 N   0  0  0  0  0  0  0  0  0  0  0  0
   -2.1880   14.4660    0.2700 C   0  0  0  0  0  0  0  0  0  0  0  0
   -1.6850   14.5450   -0.9700 N   0  0  0  0  0  0  0  0  0  0  0  0
   -1.4350   14.5120    1.3910 N   0  0  0  0  0  0  0  0  0  0  0  0
   -0.3700   14.6810   -1.1060 C   0  0  0  0  0  0  0  0  0  0  0  0
   -0.1170   14.6470    1.1910 C   0  0  0  0  0  0  0  0  0  0  0  0
    0.4690   14.7420   -0.0520 C   0  0  0  0  0  0  0  0  0  0  0  0
  1  2  1  0
  1  3  1  0
  3  4  1  0
  3  5  1  0
  4  6  1  0
  5  7  1  0
  6  8  1  0
  7  8  1  0
  8  9  1  0
  9 10  2  0
  9 11  1  0
 10 12  1  0
 11 13  2  0
 12 14  2  0
 13 14  1  0
M  END
