x0282_0_A_α-x0290_0_A_α
     RDKit          3D

 19 20  0  0  0  0  0  0  0  0999 V2000
   -7.2090   14.3840    1.3960 C   0  0  2  0  0  0  0  0  0  0  0  0
   -7.7030   15.2400    0.3560 O   0  0  0  0  0  0  0  0  0  0  0  0
   -5.8690   14.8300    2.0060 C   0  0  0  0  0  0  0  0  0  0  0  0
   -7.0610   13.0180    0.7680 C   0  0  0  0  0  0  0  0  0  0  0  0
   -4.7980   15.2180    0.9780 C   0  0  0  0  0  0  0  0  0  0  0  0
   -6.1810   12.1690    1.6610 C   0  0  0  0  0  0  0  0  0  0  0  0
   -6.4580   13.0610   -0.6410 C   0  0  0  0  0  0  0  0  0  0  0  0
   -5.0640   15.6130   -0.1570 O   0  0  0  0  0  0  0  0  0  0  0  0
   -3.5100   15.0570    1.5030 N   0  0  0  0  0  0  0  0  0  0  0  0
   -4.7890   12.7590    1.7330 C   0  0  0  0  0  0  0  0  0  0  0  0
   -5.0600   12.4550   -0.7050 C   0  0  0  0  0  0  0  0  0  0  0  0
   -4.1870   12.8720    0.3990 N   0  0  0  0  0  0  0  0  0  0  0  0
   -2.4740   14.4200    0.7260 N   0  0  0  0  0  0  0  0  0  0  0  0
   -1.1400   14.9230    1.1320 C   0  0  0  0  0  0  0  0  0  0  0  0
   -2.6890   14.6480   -0.7280 C   0  0  0  0  0  0  0  0  0  0  0  0
   -1.5520   14.4330   -1.6560 N   0  0  0  0  0  0  0  0  0  0  0  0
   -0.0480   14.9450    0.0970 C   0  0  0  0  0  0  0  0  0  0  0  0
   -1.8760   14.6510   -3.0590 C   0  0  0  0  0  0  0  0  0  0  0  0
   -0.2870   14.7100   -1.1860 C   0  0  0  0  0  0  0  0  0  0  0  0
  1  2  1  6
  1  3  1  0
  1  4  1  0
  3  5  1  0
  4  6  1  0
  4  7  1  0
  5  8  2  0
  5  9  1  0
  6 10  1  0
  7 11  1  0
 10 12  1  0
 11 12  1  0
  9 13  1  0
 13 14  1  0
 13 15  1  0
 15 16  1  0
 14 17  1  0
 16 18  1  0
 16 19  1  0
 17 19  2  0
M  END
