x0282_0_A_α-x0950_1_A_α
     RDKit          3D

 21 22  0  0  0  0  0  0  0  0999 V2000
   -7.4290   13.7150    1.0130 C   0  0  0  0  0  0  0  0  0  0  0  0
   -8.6580   14.1650    0.4500 O   0  0  0  0  0  0  0  0  0  0  0  0
   -6.3120   14.6290    0.5230 C   0  0  0  0  0  0  0  0  0  0  0  0
   -5.3090   14.9670    1.6520 C   0  0  0  0  0  0  0  0  0  0  0  0
   -5.6160   14.1360   -0.7350 C   0  0  0  0  0  0  0  0  0  0  0  0
   -4.0760   14.0800    1.6320 C   0  0  0  0  0  0  0  0  0  0  0  0
   -4.2020   14.6650   -0.8090 C   0  0  0  0  0  0  0  0  0  0  0  0
   -3.4480   14.2140    0.3450 N   0  0  0  0  0  0  0  0  0  0  0  0
   -2.1120   14.3740    0.2850 C   0  0  0  0  0  0  0  0  0  0  0  0
   -1.5850   14.3490   -0.9400 N   0  0  0  0  0  0  0  0  0  0  0  0
   -1.3950   14.5440    1.4150 N   0  0  0  0  0  0  0  0  0  0  0  0
   -0.2720   14.5070   -1.0700 C   0  0  0  0  0  0  0  0  0  0  0  0
   -0.0820   14.7000    1.2190 C   0  0  0  0  0  0  0  0  0  0  0  0
    0.3320   14.4550   -2.4330 C   0  0  0  0  0  0  0  0  0  0  0  0
    0.5190   14.6970   -0.0110 C   0  0  0  0  0  0  0  0  0  0  0  0
   -0.2000   13.2570   -3.0080 O   0  0  0  0  0  0  0  0  0  0  0  0
    0.6430   12.2240   -3.2640 C   0  0  0  0  0  0  0  0  0  0  0  0
    1.3900   12.5350   -4.5620 C   0  0  2  0  0  0  0  0  0  0  0  0
    0.7410   11.2160   -2.5780 O   0  0  0  0  0  0  0  0  0  0  0  0
    1.2110   13.9870   -4.9540 C   0  0  0  0  0  0  0  0  0  0  0  0
    0.9090   11.7340   -5.6390 O   0  0  0  0  0  0  0  0  0  0  0  0
  1  2  1  0
  1  3  1  0
  3  4  1  0
  3  5  1  0
  4  6  1  0
  5  7  1  0
  6  8  1  0
  7  8  1  0
  8  9  1  0
  9 10  2  0
  9 11  1  0
 10 12  1  0
 11 13  2  0
 12 14  1  0
 12 15  2  0
 13 15  1  0
 14 16  1  0
 16 17  1  0
 17 18  1  0
 17 19  2  0
 18 20  1  6
 18 21  1  0
M  END
