x0282_0_A-x0465_0_A
     RDKit          3D

 28 30  0  0  0  0  0  0  0  0999 V2000
   -7.1410   13.3630    0.3560 C   0  0  0  0  0  0  0  0  0  0  0  0
   -8.5120   13.6500    0.0880 O   0  0  0  0  0  0  0  0  0  0  0  0
   -6.4190   14.6800    0.5670 C   0  0  0  0  0  0  0  0  0  0  0  0
   -5.5360   14.6310    1.8230 C   0  0  0  0  0  0  0  0  0  0  0  0
   -5.6970   15.2330   -0.6880 C   0  0  0  0  0  0  0  0  0  0  0  0
   -4.1290   14.0930    1.5430 C   0  0  0  0  0  0  0  0  0  0  0  0
   -4.2980   14.6600   -0.8490 C   0  0  0  0  0  0  0  0  0  0  0  0
   -3.5630   14.7720    0.4010 N   0  0  0  0  0  0  0  0  0  0  0  0
   -2.2040   14.5940    0.2780 C   0  0  0  0  0  0  0  0  0  0  0  0
   -1.8120   13.6820   -0.5900 N   0  0  0  0  0  0  0  0  0  0  0  0
   -1.3420   15.3260    1.0000 N   0  0  0  0  0  0  0  0  0  0  0  0
   -0.5100   13.5000   -0.7540 C   0  0  0  0  0  0  0  0  0  0  0  0
   -0.0330   15.1070    0.7810 C   0  0  0  0  0  0  0  0  0  0  0  0
   -0.0820   12.4590   -1.7070 C   0  0  0  0  0  0  0  0  0  0  0  0
    0.4230   14.1970   -0.1060 C   0  0  0  0  0  0  0  0  0  0  0  0
    0.2890   13.0200   -2.9440 N   0  0  0  0  0  0  0  0  0  0  0  0
    0.4960   12.1270   -3.7770 C   0  0  0  0  0  0  0  0  0  0  0  0
    0.8770   12.5180   -5.1660 C   0  0  1  0  0  0  0  0  0  0  0  0
    0.3820   10.8130   -3.4770 O   0  0  0  0  0  0  0  0  0  0  0  0
    2.3190   12.9610   -5.0840 C   0  0  0  0  0  0  0  0  0  0  0  0
    0.7500   11.3960   -6.0380 O   0  0  0  0  0  0  0  0  0  0  0  0
   -0.4740   10.7740   -5.9660 C   0  0  0  0  0  0  0  0  0  0  0  0
   -0.6380    9.6080   -6.7020 C   0  0  0  0  0  0  0  0  0  0  0  0
   -1.5330   11.2650   -5.1960 C   0  0  0  0  0  0  0  0  0  0  0  0
    0.3840    9.1460   -7.4390 F   0  0  0  0  0  0  0  0  0  0  0  0
   -1.8380    8.9130   -6.6880 C   0  0  0  0  0  0  0  0  0  0  0  0
   -2.7510   10.5670   -5.1760 C   0  0  0  0  0  0  0  0  0  0  0  0
   -2.9020    9.3940   -5.9210 C   0  0  0  0  0  0  0  0  0  0  0  0
  1  2  1  0
  1  3  1  0
  3  4  1  0
  3  5  1  0
  4  6  1  0
  5  7  1  0
  6  8  1  0
  7  8  1  0
  8  9  1  0
  9 10  2  0
  9 11  1  0
 10 12  1  0
 11 13  2  0
 12 14  1  0
 12 15  2  0
 13 15  1  0
 14 16  1  0
 16 17  2  3
 17 18  1  0
 17 19  1  0
 18 20  1  1
 18 21  1  0
 21 22  1  0
 22 23  2  0
 22 24  1  0
 23 25  1  0
 23 26  1  0
 24 27  2  0
 26 28  2  0
 27 28  1  0
M  END
