x0282_0_A_α-x0626_0_A_α
     RDKit          3D

 17 18  0  0  0  0  0  0  0  0999 V2000
   -6.3500   13.3920    0.0090 C   0  0  2  0  0  0  0  0  0  0  0  0
   -7.1250   12.6800    0.9740 O   0  0  0  0  0  0  0  0  0  0  0  0
   -4.8840   12.9020   -0.1160 C   0  0  0  0  0  0  0  0  0  0  0  0
   -6.3550   14.8310    0.3870 C   0  0  0  0  0  0  0  0  0  0  0  0
   -3.9060   13.5500    0.6810 N   0  0  0  0  0  0  0  0  0  0  0  0
   -4.6600   12.0100   -0.9180 O   0  0  0  0  0  0  0  0  0  0  0  0
   -5.6170   14.9180    1.7440 C   0  0  0  0  0  0  0  0  0  0  0  0
   -5.7890   15.6690   -0.7590 C   0  0  0  0  0  0  0  0  0  0  0  0
   -4.2290   15.5620    1.7620 C   0  0  0  0  0  0  0  0  0  0  0  0
   -4.2920   15.5210   -0.7740 C   0  0  0  0  0  0  0  0  0  0  0  0
   -2.4830   13.5550    0.3090 N   0  0  0  0  0  0  0  0  0  0  0  0
   -3.6090   15.8870    0.4710 N   0  0  0  0  0  0  0  0  0  0  0  0
   -1.5660   14.3220    1.2100 C   0  0  0  0  0  0  0  0  0  0  0  0
   -2.2370   14.0330   -1.0630 C   0  0  0  0  0  0  0  0  0  0  0  0
   -0.8480   13.9350   -1.5020 N   0  0  0  0  0  0  0  0  0  0  0  0
   -0.2100   14.6840    0.6310 C   0  0  0  0  0  0  0  0  0  0  0  0
    0.0790   14.4810   -0.6560 C   0  0  0  0  0  0  0  0  0  0  0  0
  1  2  1  1
  1  3  1  0
  1  4  1  0
  3  5  1  0
  3  6  2  0
  4  7  1  0
  4  8  1  0
  7  9  1  0
  8 10  1  0
  5 11  1  0
  9 12  1  0
 10 12  1  0
 11 13  1  0
 11 14  1  0
 14 15  1  0
 13 16  1  0
 15 17  1  0
 16 17  2  0
M  END
