x0282_0_A-x0844_0_A
     RDKit          3D

 15 16  0  0  0  0  0  0  0  0999 V2000
   -7.7230   14.4590    1.1250 C   0  0  0  0  0  0  0  0  0  0  0  0
   -8.5550   14.6320   -0.0090 O   0  0  0  0  0  0  0  0  0  0  0  0
   -6.2340   14.3260    0.7810 C   0  0  2  0  0  0  0  0  0  0  0  0
   -5.2940   14.9060    1.8320 C   0  0  0  0  0  0  0  0  0  0  0  0
   -5.7770   14.8710   -0.5820 C   0  0  0  0  0  0  0  0  0  0  0  0
   -3.9730   14.1810    1.6690 C   0  0  0  0  0  0  0  0  0  0  0  0
   -4.3640   14.3270   -0.8140 C   0  0  1  0  0  0  0  0  0  0  0  0
   -3.6370   14.8420   -2.5490 Br  0  0  0  0  0  0  0  0  0  0  0  0
   -3.4830   14.5310    0.3470 N   0  0  0  0  0  0  0  0  0  0  0  0
   -2.1240   14.5810    0.2560 C   0  0  0  0  0  0  0  0  0  0  0  0
   -1.6270   14.6080   -0.9830 N   0  0  0  0  0  0  0  0  0  0  0  0
   -1.3660   14.6040    1.3630 N   0  0  0  0  0  0  0  0  0  0  0  0
   -0.3150   14.6750   -1.1380 C   0  0  0  0  0  0  0  0  0  0  0  0
   -0.0500   14.6680    1.1550 C   0  0  0  0  0  0  0  0  0  0  0  0
    0.5310   14.7110   -0.0940 C   0  0  0  0  0  0  0  0  0  0  0  0
  1  2  1  0
  3  1  1  1
  3  4  1  0
  3  5  1  0
  4  6  1  0
  5  7  1  0
  7  8  1  6
  6  9  1  0
  7  9  1  0
  9 10  1  0
 10 11  2  0
 10 12  1  0
 11 13  1  0
 12 14  2  0
 13 15  2  0
 14 15  1  0
M  END
