x0282_0_A_α-x0574_0_A_α
     RDKit          3D

 15 16  0  0  0  0  0  0  0  0999 V2000
   -7.6050   14.1880    1.1910 C   0  0  2  0  0  0  0  0  0  0  0  0
   -8.4090   14.9020    0.2460 O   0  0  0  0  0  0  0  0  0  0  0  0
   -7.8210   14.8040    2.5700 C   0  0  0  0  0  0  0  0  0  0  0  0
   -6.1270   14.2160    0.7530 C   0  0  0  0  0  0  0  0  0  0  0  0
   -5.2250   14.8920    1.7800 C   0  0  0  0  0  0  0  0  0  0  0  0
   -5.7440   14.8690   -0.5660 C   0  0  0  0  0  0  0  0  0  0  0  0
   -3.8730   14.2400    1.7270 C   0  0  0  0  0  0  0  0  0  0  0  0
   -4.2190   15.0570   -0.6350 C   0  0  0  0  0  0  0  0  0  0  0  0
   -3.4570   14.2490    0.3440 N   0  0  0  0  0  0  0  0  0  0  0  0
   -2.1120   14.4210    0.2280 C   0  0  0  0  0  0  0  0  0  0  0  0
   -1.6200   14.4930   -1.0160 N   0  0  0  0  0  0  0  0  0  0  0  0
   -1.3630   14.5090    1.3450 N   0  0  0  0  0  0  0  0  0  0  0  0
   -0.3120   14.6670   -1.1530 C   0  0  0  0  0  0  0  0  0  0  0  0
   -0.0560   14.6810    1.1440 C   0  0  0  0  0  0  0  0  0  0  0  0
    0.5280   14.7720   -0.1000 C   0  0  0  0  0  0  0  0  0  0  0  0
  1  2  1  0
  1  3  1  1
  1  4  1  0
  4  5  1  0
  4  6  1  0
  5  7  1  0
  6  8  1  0
  7  9  1  0
  8  9  1  0
  9 10  1  0
 10 11  2  0
 10 12  1  0
 11 13  1  0
 12 14  2  0
 13 15  2  0
 14 15  1  0
M  END
