x0282_0_A_α-x0766_0_A_α
     RDKit          3D

 25 28  0  0  0  0  0  0  0  0999 V2000
   -7.3590   13.3170    0.7040 C   0  0  0  0  0  0  0  0  0  0  0  0
   -8.6370   13.8000    0.2880 O   0  0  0  0  0  0  0  0  0  0  0  0
   -6.4120   14.5000    0.8000 C   0  0  0  0  0  0  0  0  0  0  0  0
   -5.4200   14.3650    1.9610 C   0  0  0  0  0  0  0  0  0  0  0  0
   -5.6580   14.8230   -0.5000 C   0  0  0  0  0  0  0  0  0  0  0  0
   -3.9900   14.5860    1.4790 C   0  0  0  0  0  0  0  0  0  0  0  0
   -4.5630   13.7650   -0.7320 C   0  0  0  0  0  0  0  0  0  0  0  0
   -3.5950   13.6870    0.3780 N   0  0  0  0  0  0  0  0  0  0  0  0
   -2.1490   13.7980    0.0390 C   0  0  1  0  0  0  0  0  0  0  0  0
   -1.7400   15.0010   -0.9060 C   0  0  1  0  0  0  0  0  0  0  0  0
   -1.5760   13.9900    1.3790 N   0  0  0  0  0  0  0  0  0  0  0  0
   -0.6220   15.8520   -0.3660 C   0  0  0  0  0  0  0  0  0  0  0  0
   -0.1640   14.1310    1.3190 C   0  0  0  0  0  0  0  0  0  0  0  0
   -1.3890   14.8650   -2.3880 C   0  0  0  0  0  0  0  0  0  0  0  0
   -3.3130   15.7960   -1.4240 S   0  0  0  0  0  0  0  0  0  0  0  0
    0.1100   15.4070    0.6670 C   0  0  0  0  0  0  0  0  0  0  0  0
   -0.0510   14.3610   -3.0160 C   0  0  1  0  0  0  0  0  0  0  0  0
   -2.5340   15.3450   -2.8990 C   0  0  0  0  0  0  0  0  0  0  0  0
   -0.0270   13.0830   -3.8330 C   0  0  2  0  0  0  0  0  0  0  0  0
    0.4760   15.4620   -3.9120 C   0  0  0  0  0  0  0  0  0  0  0  0
    0.4600   12.0340   -2.8810 C   0  0  0  0  0  0  0  0  0  0  0  0
    0.9920   13.3370   -4.9650 C   0  0  0  0  0  0  0  0  0  0  0  0
    1.4720   14.7840   -4.8110 C   0  0  0  0  0  0  0  0  0  0  0  0
    1.3590   12.1740   -2.0810 O   0  0  0  0  0  0  0  0  0  0  0  0
   -0.2070   10.8720   -2.9620 O   0  0  0  0  0  0  0  0  0  0  0  0
  1  2  1  0
  1  3  1  0
  3  4  1  0
  3  5  1  0
  4  6  1  0
  5  7  1  0
  6  8  1  0
  7  8  1  0
  9  8  1  1
  9 10  1  0
  9 11  1  0
 10 12  1  1
 11 13  1  0
 10 14  1  0
 10 15  1  0
 12 16  2  0
 13 16  1  0
 17 14  1  6
 14 18  2  0
 15 18  1  0
 17 19  1  0
 17 20  1  0
 19 21  1  1
 19 22  1  0
 20 23  1  0
 22 23  1  0
 21 24  2  0
 21 25  1  0
M  END
