x0282_0_A-x0895_1_A
     RDKit          3D

 15 16  0  0  0  0  0  0  0  0999 V2000
   -7.4450   14.3330    1.2310 C   0  0  0  0  0  0  0  0  0  0  0  0
   -8.3540   14.5880    0.1660 O   0  0  0  0  0  0  0  0  0  0  0  0
   -5.9720   14.2920    0.7830 C   0  0  2  0  0  0  0  0  0  0  0  0
   -5.0340   15.0160    1.7240 C   0  0  0  0  0  0  0  0  0  0  0  0
   -5.7140   14.8410   -0.6200 C   0  0  0  0  0  0  0  0  0  0  0  0
   -3.6140   14.6190    1.4490 C   0  0  0  0  0  0  0  0  0  0  0  0
   -4.2130   14.9340   -0.9130 C   0  0  0  0  0  0  0  0  0  0  0  0
   -2.7630   14.5930    2.3320 O   0  0  0  0  0  0  0  0  0  0  0  0
   -3.3600   14.3450    0.1310 N   0  0  0  0  0  0  0  0  0  0  0  0
   -1.9950   14.4500   -0.0750 C   0  0  0  0  0  0  0  0  0  0  0  0
   -1.4980   14.4390   -1.3120 N   0  0  0  0  0  0  0  0  0  0  0  0
   -1.2470   14.5700    1.0150 N   0  0  0  0  0  0  0  0  0  0  0  0
   -0.1690   14.5670   -1.4210 C   0  0  0  0  0  0  0  0  0  0  0  0
    0.0520   14.6990    0.8710 C   0  0  0  0  0  0  0  0  0  0  0  0
    0.6680   14.7050   -0.3530 C   0  0  0  0  0  0  0  0  0  0  0  0
  1  2  1  0
  3  1  1  1
  3  4  1  0
  3  5  1  0
  4  6  1  0
  5  7  1  0
  6  8  2  0
  6  9  1  0
  7  9  1  0
  9 10  1  0
 10 11  2  0
 10 12  1  0
 11 13  1  0
 12 14  2  0
 13 15  2  0
 14 15  1  0
M  END
