x0282_0_A_α-x0852_0_B_α
     RDKit          3D

 26 28  0  0  0  0  0  0  0  0999 V2000
   -7.6980   14.9010    0.4270 C   0  0  0  0  0  0  0  0  0  0  0  0
   -8.6990   13.9820    0.0190 O   0  0  0  0  0  0  0  0  0  0  0  0
  -10.0090   14.5750    0.1200 C   0  0  0  0  0  0  0  0  0  0  0  0
   -6.2840   14.3200    0.4090 C   0  0  0  0  0  0  0  0  0  0  0  0
   -5.4050   14.8530    1.5550 C   0  0  0  0  0  0  0  0  0  0  0  0
   -5.5880   14.6780   -0.8990 C   0  0  0  0  0  0  0  0  0  0  0  0
   -9.9110   16.1110    0.1640 C   0  0  0  0  0  0  0  0  0  0  0  0
   -4.0590   14.1420    1.6370 C   0  0  0  0  0  0  0  0  0  0  0  0
   -4.1430   15.0880   -0.6510 C   0  0  0  0  0  0  0  0  0  0  0  0
  -10.4030   16.5870    1.4330 O   0  0  0  0  0  0  0  0  0  0  0  0
   -3.4740   14.2230    0.3220 N   0  0  0  0  0  0  0  0  0  0  0  0
   -2.1220   14.4020    0.2670 C   0  0  0  0  0  0  0  0  0  0  0  0
   -9.7120   16.1840    2.5520 C   0  0  0  0  0  0  0  0  0  0  0  0
   -1.6160   14.4990   -0.9710 N   0  0  0  0  0  0  0  0  0  0  0  0
   -1.3840   14.4740    1.3930 N   0  0  0  0  0  0  0  0  0  0  0  0
   -8.8260   15.1080    2.5960 C   0  0  0  0  0  0  0  0  0  0  0  0
   -9.9270   16.9240    3.7290 C   0  0  0  0  0  0  0  0  0  0  0  0
   -0.3110   14.6840   -1.1000 C   0  0  0  0  0  0  0  0  0  0  0  0
   -0.0750   14.6580    1.1970 C   0  0  0  0  0  0  0  0  0  0  0  0
   -8.1640   14.7760    3.7680 C   0  0  0  0  0  0  0  0  0  0  0  0
   -9.2610   16.5830    4.9200 C   0  0  0  0  0  0  0  0  0  0  0  0
   -9.4960   17.3330    6.1150 C   0  0  0  0  0  0  0  0  0  0  0  0
    0.5150   14.7750   -0.0440 C   0  0  0  0  0  0  0  0  0  0  0  0
   -8.3740   15.5030    4.9260 C   0  0  0  0  0  0  0  0  0  0  0  0
   -9.7220   17.8700    7.1200 N   0  0  0  0  0  0  0  0  0  0  0  0
   -7.6680   15.0810    6.0130 O   0  0  0  0  0  0  0  0  0  0  0  0
  1  2  1  0
  2  3  1  0
  1  4  1  0
  4  5  1  0
  4  6  1  0
  3  7  1  0
  5  8  1  0
  6  9  1  0
  7 10  1  0
  8 11  1  0
  9 11  1  0
 11 12  1  0
 10 13  1  0
 12 14  2  0
 12 15  1  0
 13 16  2  0
 13 17  1  0
 14 18  1  0
 15 19  2  0
 16 20  1  0
 17 21  2  0
 21 22  1  0
 18 23  2  0
 19 23  1  0
 20 24  2  0
 21 24  1  0
 22 25  3  0
 24 26  1  0
M  END
