x0282_0_A-x0662_0_A
     RDKit          3D

 35 38  0  0  0  0  0  0  0  0999 V2000
   -7.0400   13.3410    0.5560 C   0  0  0  0  0  0  0  0  0  0  0  0
   -8.4200   13.5850    0.2940 O   0  0  0  0  0  0  0  0  0  0  0  0
   -6.3370   14.6870    0.6010 C   0  0  0  0  0  0  0  0  0  0  0  0
   -5.3690   14.8540    1.7900 C   0  0  0  0  0  0  0  0  0  0  0  0
   -5.6490   15.0690   -0.7200 C   0  0  0  0  0  0  0  0  0  0  0  0
   -4.0980   14.0420    1.6130 C   0  0  0  0  0  0  0  0  0  0  0  0
   -4.3240   14.3210   -0.8850 C   0  0  0  0  0  0  0  0  0  0  0  0
   -3.5240   14.3530    0.3320 N   0  0  0  0  0  0  0  0  0  0  0  0
   -2.1650   14.4220    0.1900 C   0  0  0  0  0  0  0  0  0  0  0  0
   -1.6740   14.3530   -1.0560 N   0  0  0  0  0  0  0  0  0  0  0  0
   -1.4090   14.5510    1.3060 N   0  0  0  0  0  0  0  0  0  0  0  0
   -0.3450   14.4190   -1.2380 C   0  0  0  0  0  0  0  0  0  0  0  0
   -0.0910   14.6210    1.0810 C   0  0  0  0  0  0  0  0  0  0  0  0
    0.2070   14.3390   -2.6560 C   0  0  0  0  0  0  0  0  0  0  0  0
    0.4920   14.5630   -0.1720 C   0  0  0  0  0  0  0  0  0  0  0  0
    0.4720   12.8940   -3.1640 C   0  0  0  0  0  0  0  0  0  0  0  0
   -0.8250   12.1690   -3.5620 C   0  0  0  0  0  0  0  0  0  0  0  0
   -0.7600   11.4170   -4.8340 N   0  0  0  0  0  0  0  0  0  0  0  0
    0.1240   11.4780   -5.7820 C   0  0  0  0  0  0  0  0  0  0  0  0
    1.1530   12.1750   -5.8740 O   0  0  0  0  0  0  0  0  0  0  0  0
    0.0210   10.6350   -7.0380 C   0  0  0  0  0  0  0  0  0  0  0  0
   -0.9130    9.5980   -7.0810 C   0  0  0  0  0  0  0  0  0  0  0  0
    0.8330   10.8720   -8.1580 C   0  0  0  0  0  0  0  0  0  0  0  0
   -1.0350    8.8140   -8.2280 C   0  0  0  0  0  0  0  0  0  0  0  0
    0.7160   10.0870   -9.3260 C   0  0  0  0  0  0  0  0  0  0  0  0
    1.5440   10.3540  -10.4440 N   0  0  0  0  0  0  0  0  0  0  0  0
   -0.2250    9.0590   -9.3410 C   0  0  0  0  0  0  0  0  0  0  0  0
    2.2040    9.4710  -11.2950 C   0  0  0  0  0  0  0  0  0  0  0  0
    2.2060    8.2720  -11.0070 O   0  0  0  0  0  0  0  0  0  0  0  0
    2.9090    9.9690  -12.5040 C   0  0  0  0  0  0  0  0  0  0  0  0
    2.7320   11.2160  -13.1820 C   0  0  0  0  0  0  0  0  0  0  0  0
    3.8610    9.2340  -13.1120 N   0  0  0  0  0  0  0  0  0  0  0  0
    4.2730   10.0020  -14.1380 N   0  0  0  0  0  0  0  0  0  0  0  0
    3.6260   11.2000  -14.2260 C   0  0  0  0  0  0  0  0  0  0  0  0
    5.3150    9.5180  -15.0120 C   0  0  0  0  0  0  0  0  0  0  0  0
  1  2  1  0
  1  3  1  0
  3  4  1  0
  3  5  1  0
  4  6  1  0
  5  7  1  0
  6  8  1  0
  7  8  1  0
  8  9  1  0
  9 10  2  0
  9 11  1  0
 10 12  1  0
 11 13  2  0
 12 14  1  0
 12 15  2  0
 13 15  1  0
 14 16  1  0
 16 17  1  0
 17 18  1  0
 18 19  2  3
 19 20  1  0
 19 21  1  0
 21 22  2  0
 21 23  1  0
 22 24  1  0
 23 25  2  0
 25 26  1  0
 24 27  2  0
 25 27  1  0
 26 28  1  0
 28 29  2  0
 28 30  1  0
 30 31  1  0
 30 32  2  0
 32 33  1  0
 31 34  2  0
 33 34  1  0
 33 35  1  0
M  CHG  1  20  -1
M  END
