x0282_0_A_α-x0895_0_A_α
     RDKit          3D

 16 17  0  0  0  0  0  0  0  0999 V2000
   -6.7620   13.3250    1.0240 C   0  0  0  0  0  0  0  0  0  0  0  0
   -8.1070   13.4030    0.5420 O   0  0  0  0  0  0  0  0  0  0  0  0
   -6.1620   14.7070    0.8390 C   0  0  0  0  0  0  0  0  0  0  0  0
   -5.0650   15.2170    1.7810 C   0  0  0  0  0  0  0  0  0  0  0  0
   -5.6820   14.9690   -0.5650 C   0  0  0  0  0  0  0  0  0  0  0  0
   -3.7070   14.6120    1.5740 C   0  0  0  0  0  0  0  0  0  0  0  0
   -4.2120   14.7060   -0.7870 C   0  0  0  0  0  0  0  0  0  0  0  0
   -2.8930   14.5470    2.5000 O   0  0  0  0  0  0  0  0  0  0  0  0
   -3.8190   14.9300   -1.9310 O   0  0  0  0  0  0  0  0  0  0  0  0
   -3.4350   14.2480    0.2850 N   0  0  0  0  0  0  0  0  0  0  0  0
   -2.0560   14.4070    0.1050 C   0  0  0  0  0  0  0  0  0  0  0  0
   -1.5530   14.4310   -1.1350 N   0  0  0  0  0  0  0  0  0  0  0  0
   -1.3020   14.5380    1.2180 N   0  0  0  0  0  0  0  0  0  0  0  0
   -0.2370   14.6000   -1.2620 C   0  0  0  0  0  0  0  0  0  0  0  0
    0.0010   14.7020    1.0340 C   0  0  0  0  0  0  0  0  0  0  0  0
    0.5960   14.7450   -0.2050 C   0  0  0  0  0  0  0  0  0  0  0  0
  1  2  1  0
  1  3  1  0
  3  4  1  0
  3  5  1  0
  4  6  1  0
  5  7  1  0
  6  8  2  0
  7  9  2  0
  6 10  1  0
  7 10  1  0
 10 11  1  0
 11 12  2  0
 11 13  1  0
 12 14  1  0
 13 15  2  0
 14 16  2  0
 15 16  1  0
M  END
