x0282_0_A-x0900_0_A
     RDKit          3D

 14 15  0  0  0  0  0  0  0  0999 V2000
   -7.0730   13.3510    0.5730 C   0  0  0  0  0  0  0  0  0  0  0  0
   -8.4480   13.6110    0.3010 O   0  0  0  0  0  0  0  0  0  0  0  0
   -6.3480   14.6850    0.6040 C   0  0  0  0  0  0  0  0  0  0  0  0
   -5.4090   14.8320    1.8080 C   0  0  0  0  0  0  0  0  0  0  0  0
   -5.6260   15.0580   -0.6990 C   0  0  0  0  0  0  0  0  0  0  0  0
   -4.1370   14.0160    1.6230 C   0  0  0  0  0  0  0  0  0  0  0  0
   -4.3150   14.2980   -0.8830 C   0  0  0  0  0  0  0  0  0  0  0  0
   -3.5400   14.3320    0.3470 N   0  0  0  0  0  0  0  0  0  0  0  0
   -2.1880   14.4650    0.2700 C   0  0  0  0  0  0  0  0  0  0  0  0
   -1.6840   14.5440   -0.9720 N   0  0  0  0  0  0  0  0  0  0  0  0
   -1.4330   14.5110    1.3910 N   0  0  0  0  0  0  0  0  0  0  0  0
   -0.3700   14.6810   -1.1060 C   0  0  0  0  0  0  0  0  0  0  0  0
   -0.1170   14.6460    1.1900 C   0  0  0  0  0  0  0  0  0  0  0  0
    0.4710   14.7410   -0.0530 C   0  0  0  0  0  0  0  0  0  0  0  0
  1  2  1  0
  1  3  1  0
  3  4  1  0
  3  5  1  0
  4  6  1  0
  5  7  1  0
  6  8  1  0
  7  8  1  0
  8  9  1  0
  9 10  2  0
  9 11  1  0
 10 12  1  0
 11 13  2  0
 12 14  2  0
 13 14  1  0
M  END
