x0282_0_A-x1015_0_A
     RDKit          3D

 29 32  0  0  0  0  0  0  0  0999 V2000
   -7.0880   13.4540    0.4530 C   0  0  0  0  0  0  0  0  0  0  0  0
   -8.4700   13.7600    0.2550 O   0  0  0  0  0  0  0  0  0  0  0  0
   -6.3160   14.7550    0.2760 C   0  0  0  0  0  0  0  0  0  0  0  0
   -5.3680   15.0490    1.4550 C   0  0  0  0  0  0  0  0  0  0  0  0
   -5.5690   14.8830   -1.0530 C   0  0  0  0  0  0  0  0  0  0  0  0
   -4.0890   14.2440    1.4020 C   0  0  0  0  0  0  0  0  0  0  0  0
   -4.1560   14.2840   -1.0390 C   0  0  0  0  0  0  0  0  0  0  0  0
   -3.4720   14.5740    0.2080 N   0  0  0  0  0  0  0  0  0  0  0  0
   -2.1200   14.6550    0.2140 C   0  0  0  0  0  0  0  0  0  0  0  0
   -1.5740   14.7580   -0.9660 N   0  0  0  0  0  0  0  0  0  0  0  0
   -1.4210   14.6320    1.3760 N   0  0  0  0  0  0  0  0  0  0  0  0
   -0.2720   14.8570   -1.0360 C   0  0  0  0  0  0  0  0  0  0  0  0
   -0.0900   14.7320    1.2360 C   0  0  0  0  0  0  0  0  0  0  0  0
    0.1880   14.9490   -2.3150 N   0  0  0  0  0  0  0  0  0  0  0  0
    0.5330   14.8580    0.0200 C   0  0  0  0  0  0  0  0  0  0  0  0
    0.2160   13.8190   -2.8720 C   0  0  0  0  0  0  0  0  0  0  0  0
    0.5310   13.4140   -4.2740 C   0  0  2  0  0  0  0  0  0  0  0  0
   -0.1120   12.7340   -2.1260 N   0  0  0  0  0  0  0  0  0  0  0  0
   -0.4910   14.1410   -5.1490 C   0  0  0  0  0  0  0  0  0  0  0  0
    0.2470   11.9840   -4.1510 N   0  0  0  0  0  0  0  0  0  0  0  0
    0.1870   11.6070   -2.8060 C   0  0  0  0  0  0  0  0  0  0  0  0
    0.3590   10.5050   -2.2800 O   0  0  0  0  0  0  0  0  0  0  0  0
   -0.3060   11.2460   -5.2110 C   0  0  0  0  0  0  0  0  0  0  0  0
    0.1590   11.4450   -6.5180 C   0  0  0  0  0  0  0  0  0  0  0  0
   -1.3170   10.3000   -5.0030 C   0  0  0  0  0  0  0  0  0  0  0  0
   -0.3680   10.7190   -7.5820 C   0  0  0  0  0  0  0  0  0  0  0  0
   -1.8490    9.5690   -6.0660 C   0  0  0  0  0  0  0  0  0  0  0  0
   -1.3680    9.7830   -7.3530 C   0  0  0  0  0  0  0  0  0  0  0  0
   -2.0170    8.8870   -8.6670 Cl  0  0  0  0  0  0  0  0  0  0  0  0
  1  2  1  0
  1  3  1  0
  3  4  1  0
  3  5  1  0
  4  6  1  0
  5  7  1  0
  6  8  1  0
  7  8  1  0
  8  9  1  0
  9 10  2  0
  9 11  1  0
 10 12  1  0
 11 13  2  0
 12 14  1  0
 12 15  2  0
 13 15  1  0
 14 16  2  3
 16 17  1  0
 16 18  1  0
 17 19  1  6
 17 20  1  0
 18 21  1  0
 20 21  1  0
 21 22  2  0
 20 23  1  0
 23 24  2  0
 23 25  1  0
 24 26  1  0
 25 27  2  0
 26 28  2  0
 27 28  1  0
 28 29  1  0
M  END
