x0282_0_A_α-x0104_0_A_α
     RDKit          3D

 23 25  0  0  0  0  0  0  0  0999 V2000
   -7.0460   13.3480    0.7070 C   0  0  0  0  0  0  0  0  0  0  0  0
   -8.4190   13.5950    0.3340 O   0  0  0  0  0  0  0  0  0  0  0  0
   -8.9350   14.8560    0.8000 C   0  0  0  0  0  0  0  0  0  0  0  0
   -6.2880   14.6710    0.6430 C   0  0  0  0  0  0  0  0  0  0  0  0
   -5.2890   14.9220    1.7840 C   0  0  0  0  0  0  0  0  0  0  0  0
   -5.6150   14.9140   -0.7180 C   0  0  0  0  0  0  0  0  0  0  0  0
   -9.0930   15.0770    2.2430 N   0  0  0  0  0  0  0  0  0  0  0  0
   -4.0710   14.0300    1.6470 C   0  0  0  0  0  0  0  0  0  0  0  0
   -4.2950   14.1580   -0.8620 C   0  0  0  0  0  0  0  0  0  0  0  0
   -8.1040   14.8360    3.0360 C   0  0  0  0  0  0  0  0  0  0  0  0
   -3.5020   14.2660    0.3500 N   0  0  0  0  0  0  0  0  0  0  0  0
   -8.0350   14.9540    4.3920 N   0  0  0  0  0  0  0  0  0  0  0  0
   -2.1610   14.4300    0.2560 C   0  0  0  0  0  0  0  0  0  0  0  0
   -1.6620   14.5120   -0.9830 N   0  0  0  0  0  0  0  0  0  0  0  0
   -1.4150   14.4990    1.3800 N   0  0  0  0  0  0  0  0  0  0  0  0
   -9.1070   15.0170    5.2410 C   0  0  0  0  0  0  0  0  0  0  0  0
   -0.3510   14.6740   -1.1160 C   0  0  0  0  0  0  0  0  0  0  0  0
   -0.1010   14.6600    1.1820 C   0  0  0  0  0  0  0  0  0  0  0  0
   -9.0620   15.1280    6.6220 C   0  0  0  0  0  0  0  0  0  0  0  0
  -10.7450   14.9670    4.7060 S   0  0  0  0  0  0  0  0  0  0  0  0
    0.4880   14.7600   -0.0620 C   0  0  0  0  0  0  0  0  0  0  0  0
  -10.3600   15.1680    7.2240 C   0  0  0  0  0  0  0  0  0  0  0  0
  -11.3650   15.0880    6.2900 C   0  0  0  0  0  0  0  0  0  0  0  0
  1  2  1  0
  2  3  1  0
  1  4  1  0
  4  5  1  0
  4  6  1  0
  3  7  1  0
  5  8  1  0
  6  9  1  0
  7 10  2  3
  8 11  1  0
  9 11  1  0
 10 12  1  0
 11 13  1  0
 13 14  2  0
 13 15  1  0
 12 16  1  0
 14 17  1  0
 15 18  2  0
 16 19  2  0
 16 20  1  0
 17 21  2  0
 18 21  1  0
 19 22  1  0
 20 23  1  0
 22 23  2  0
M  END
