x0282_0_A-x0104_0_A
     RDKit          3D

 25 27  0  0  0  0  0  0  0  0999 V2000
   -7.3440   13.4290    0.1320 C   0  0  0  0  0  0  0  0  0  0  0  0
   -8.7110   13.7760   -0.1180 O   0  0  0  0  0  0  0  0  0  0  0  0
   -6.5750   14.7210    0.3130 C   0  0  1  0  0  0  0  0  0  0  0  0
   -5.7980   14.7990    1.6350 C   0  0  1  0  0  0  0  0  0  0  0  0
   -5.7470   15.1600   -0.8970 C   0  0  0  0  0  0  0  0  0  0  0  0
   -6.6930   14.3670    2.7030 N   0  0  0  0  0  0  0  0  0  0  0  0
   -4.4580   14.0040    1.5080 C   0  0  0  0  0  0  0  0  0  0  0  0
   -4.3840   14.4950   -0.9920 C   0  0  1  0  0  0  0  0  0  0  0  0
   -7.8090   14.9880    3.1770 C   0  0  0  0  0  0  0  0  0  0  0  0
   -3.6470   15.3390   -1.8770 O   0  0  0  0  0  0  0  0  0  0  0  0
   -3.7260   14.4400    0.3040 N   0  0  0  0  0  0  0  0  0  0  0  0
   -7.8880   15.0140    4.5360 N   0  0  0  0  0  0  0  0  0  0  0  0
   -8.6930   15.4820    2.4760 O   0  0  0  0  0  0  0  0  0  0  0  0
   -3.6900   14.8930   -3.2180 C   0  0  0  0  0  0  0  0  0  0  0  0
   -2.3390   14.5020    0.2970 C   0  0  0  0  0  0  0  0  0  0  0  0
   -1.7980   14.5580   -0.9280 N   0  0  0  0  0  0  0  0  0  0  0  0
   -1.5860   14.5070    1.4340 N   0  0  0  0  0  0  0  0  0  0  0  0
   -9.0040   15.0590    5.3570 C   0  0  0  0  0  0  0  0  0  0  0  0
   -0.4740   14.6300   -1.0470 C   0  0  0  0  0  0  0  0  0  0  0  0
   -0.2500   14.5770    1.2510 C   0  0  0  0  0  0  0  0  0  0  0  0
   -9.1850   15.1920    6.7170 C   0  0  0  0  0  0  0  0  0  0  0  0
  -10.4930   14.9180    4.5290 S   0  0  0  0  0  0  0  0  0  0  0  0
    0.3550   14.6480    0.0130 C   0  0  0  0  0  0  0  0  0  0  0  0
  -11.3900   15.0330    5.9830 C   0  0  0  0  0  0  0  0  0  0  0  0
  -10.5700   15.1740    7.0800 C   0  0  0  0  0  0  0  0  0  0  0  0
  1  2  1  0
  3  1  1  6
  3  4  1  0
  3  5  1  0
  4  6  1  1
  4  7  1  0
  5  8  1  0
  6  9  1  0
  8 10  1  6
  7 11  1  0
  8 11  1  0
  9 12  1  0
  9 13  2  0
 10 14  1  0
 11 15  1  0
 15 16  2  0
 15 17  1  0
 12 18  1  0
 16 19  1  0
 17 20  2  0
 18 21  2  0
 18 22  1  0
 19 23  2  0
 20 23  1  0
 22 24  1  0
 21 25  1  0
 24 25  2  0
M  END
