x0282_0_A_α-x0722_0_A_α
     RDKit          3D

 24 26  0  0  0  0  0  0  0  0999 V2000
   -7.1360   14.7780   -0.4110 C   0  0  2  0  0  0  0  0  0  0  0  0
   -8.1140   13.9450   -1.0440 O   0  0  0  0  0  0  0  0  0  0  0  0
   -6.5600   15.7960   -1.4040 C   0  0  0  0  0  0  0  0  0  0  0  0
   -5.9620   13.9460    0.0980 C   0  0  0  0  0  0  0  0  0  0  0  0
   -5.4080   15.1630   -2.2070 C   0  0  0  0  0  0  0  0  0  0  0  0
   -5.6720   13.7960    1.5740 C   0  0  0  0  0  0  0  0  0  0  0  0
   -5.7200   12.6280   -0.6120 C   0  0  0  0  0  0  0  0  0  0  0  0
   -4.2190   13.3410    1.6860 C   0  0  0  0  0  0  0  0  0  0  0  0
   -4.2130   12.5570   -0.7680 C   0  0  0  0  0  0  0  0  0  0  0  0
   -3.9860   15.4960   -1.8130 C   0  0  0  0  0  0  0  0  0  0  0  0
   -3.5870   13.2490    0.3700 N   0  0  0  0  0  0  0  0  0  0  0  0
   -3.4000   15.8290   -0.5370 C   0  0  0  0  0  0  0  0  0  0  0  0
   -2.9060   15.5400   -2.6880 C   0  0  0  0  0  0  0  0  0  0  0  0
   -4.0140   15.9620    0.8090 C   0  0  0  0  0  0  0  0  0  0  0  0
   -2.8320   15.3000   -4.1490 C   0  0  0  0  0  0  0  0  0  0  0  0
   -2.2670   13.6380    0.2410 C   0  0  0  0  0  0  0  0  0  0  0  0
   -2.0840   16.0470   -0.6460 N   0  0  0  0  0  0  0  0  0  0  0  0
   -1.8120   15.8680   -1.9430 N   0  0  0  0  0  0  0  0  0  0  0  0
   -0.4520   16.0320   -2.4090 C   0  0  0  0  0  0  0  0  0  0  0  0
   -1.7170   13.4710   -0.9730 N   0  0  0  0  0  0  0  0  0  0  0  0
   -1.5800   14.1520    1.3040 N   0  0  0  0  0  0  0  0  0  0  0  0
   -0.4450   13.8290   -1.1450 C   0  0  0  0  0  0  0  0  0  0  0  0
   -0.2990   14.4880    1.0630 C   0  0  0  0  0  0  0  0  0  0  0  0
    0.3210   14.3510   -0.1520 C   0  0  0  0  0  0  0  0  0  0  0  0
  1  2  1  6
  1  3  1  0
  1  4  1  0
  3  5  1  0
  4  6  1  0
  4  7  1  0
  6  8  1  0
  7  9  1  0
  5 10  1  0
  8 11  1  0
  9 11  1  0
 10 12  1  0
 10 13  2  0
 12 14  1  0
 13 15  1  0
 11 16  1  0
 12 17  2  0
 13 18  1  0
 17 18  1  0
 18 19  1  0
 16 20  2  0
 16 21  1  0
 20 22  1  0
 21 23  2  0
 22 24  2  0
 23 24  1  0
M  END
