x0282_0_A-x0689_0_A
     RDKit          3D

 16 17  0  0  0  0  0  0  0  0999 V2000
   -7.4460   13.4780    0.5000 C   0  0  0  0  0  0  0  0  0  0  0  0
   -8.6890   14.0870    0.1610 O   0  0  0  0  0  0  0  0  0  0  0  0
   -6.4500   14.5640    0.8830 C   0  0  0  0  0  0  0  0  0  0  0  0
   -5.3880   14.1220    1.8670 C   0  0  0  0  0  0  0  0  0  0  0  0
   -5.7870   15.1960   -0.3610 C   0  0  0  0  0  0  0  0  0  0  0  0
   -4.2530   13.3110    1.2230 C   0  0  0  0  0  0  0  0  0  0  0  0
   -4.7790   14.2680   -1.0540 C   0  0  0  0  0  0  0  0  0  0  0  0
   -3.7840   13.7170   -0.1400 N   0  0  0  0  0  0  0  0  0  0  0  0
   -2.4460   14.3390   -0.2360 C   0  0  2  0  0  0  0  0  0  0  0  0
   -1.5480   13.9660   -1.3270 N   0  0  0  0  0  0  0  0  0  0  0  0
   -1.8490   14.2450    1.1100 N   0  0  0  0  0  0  0  0  0  0  0  0
   -2.8200   14.9070    2.0180 N   0  0  0  0  0  0  0  0  0  0  0  0
   -0.2260   14.3150   -1.2640 C   0  0  0  0  0  0  0  0  0  0  0  0
   -0.5430   14.9500    1.0940 C   0  0  0  0  0  0  0  0  0  0  0  0
   -3.6800   15.8880    1.3580 C   0  0  0  0  0  0  0  0  0  0  0  0
    0.2990   14.7840   -0.1450 C   0  0  0  0  0  0  0  0  0  0  0  0
  1  2  1  0
  1  3  1  0
  3  4  1  0
  3  5  1  0
  4  6  1  0
  5  7  1  0
  6  8  1  0
  7  8  1  0
  9  8  1  1
  9 10  1  0
  9 11  1  0
 11 12  1  0
 10 13  1  0
 11 14  1  0
 12 15  1  0
 13 16  2  0
 14 16  1  0
M  END
