x0282_0_A-x0591_0_A
     RDKit          3D

 26 28  0  0  0  0  0  0  0  0999 V2000
   -7.1020   13.3490    0.7290 C   0  0  1  0  0  0  0  0  0  0  0  0
   -8.4830   13.5920    0.5160 O   0  0  0  0  0  0  0  0  0  0  0  0
   -6.5660   12.6880   -0.4120 N   0  0  0  0  0  0  0  0  0  0  0  0
   -6.3930   14.6840    0.9350 C   0  0  0  0  0  0  0  0  0  0  0  0
   -6.9160   13.4520   -1.5920 C   0  0  0  0  0  0  0  0  0  0  0  0
   -5.4260   14.5890    2.0970 C   0  0  0  0  0  0  0  0  0  0  0  0
   -5.7020   15.3100   -0.3110 C   0  0  0  0  0  0  0  0  0  0  0  0
   -4.0640   15.1820    1.8150 C   0  0  0  0  0  0  0  0  0  0  0  0
   -4.3550   14.6590   -0.5890 C   0  0  0  0  0  0  0  0  0  0  0  0
   -5.7110   13.7470   -2.4490 C   0  0  0  0  0  0  0  0  0  0  0  0
   -3.5570   14.5830    0.6130 N   0  0  0  0  0  0  0  0  0  0  0  0
   -4.4020   13.3420   -2.0940 C   0  0  0  0  0  0  0  0  0  0  0  0
   -5.9100   14.4400   -3.6350 C   0  0  0  0  0  0  0  0  0  0  0  0
   -2.2150   14.5960    0.4350 C   0  0  0  0  0  0  0  0  0  0  0  0
   -3.3190   13.6360   -2.9320 C   0  0  0  0  0  0  0  0  0  0  0  0
   -4.8440   14.7250   -4.4670 C   0  0  0  0  0  0  0  0  0  0  0  0
   -1.7810   14.6130   -0.8300 N   0  0  0  0  0  0  0  0  0  0  0  0
   -1.4050   14.5940    1.5050 N   0  0  0  0  0  0  0  0  0  0  0  0
   -3.5680   14.3280   -4.1170 C   0  0  0  0  0  0  0  0  0  0  0  0
   -2.2920   14.7350   -5.2580 S   0  0  0  0  0  0  0  0  0  0  0  0
   -0.4720   14.6410   -1.0450 C   0  0  0  0  0  0  0  0  0  0  0  0
   -0.0990   14.6210    1.2310 C   0  0  0  0  0  0  0  0  0  0  0  0
   -1.2490   15.7230   -4.3850 N   0  0  0  0  0  0  0  0  0  0  0  0
   -1.5520   13.5320   -5.5590 O   0  0  0  0  0  0  0  0  0  0  0  0
   -2.9240   15.5470   -6.2700 O   0  0  0  0  0  0  0  0  0  0  0  0
    0.4270   14.6500   -0.0450 C   0  0  0  0  0  0  0  0  0  0  0  0
  1  2  1  6
  1  3  1  0
  1  4  1  0
  3  5  1  0
  4  6  1  0
  4  7  1  0
  6  8  1  0
  7  9  1  0
  5 10  1  0
  8 11  1  0
  9 11  1  0
 10 12  2  0
 10 13  1  0
 11 14  1  0
 12 15  1  0
 13 16  2  0
 14 17  2  0
 14 18  1  0
 15 19  2  0
 16 19  1  0
 19 20  1  0
 17 21  1  0
 18 22  2  0
 20 23  1  0
 20 24  2  0
 20 25  2  0
 21 26  2  0
 22 26  1  0
M  END
