x0282_0_A_α-x0805_0_A_β
     RDKit          3D

 24 26  0  0  0  0  0  0  0  0999 V2000
   -7.0850   13.3570    0.4790 C   0  0  0  0  0  0  0  0  0  0  0  0
   -8.4520   13.5950    0.1540 O   0  0  0  0  0  0  0  0  0  0  0  0
   -6.4020   14.7030    0.6170 C   0  0  0  0  0  0  0  0  0  0  0  0
   -5.4810   14.7900    1.8430 C   0  0  0  0  0  0  0  0  0  0  0  0
   -5.6960   15.1680   -0.6700 C   0  0  0  0  0  0  0  0  0  0  0  0
   -4.1620   14.0630    1.6140 C   0  0  0  0  0  0  0  0  0  0  0  0
   -4.3110   14.5460   -0.8220 C   0  0  0  0  0  0  0  0  0  0  0  0
   -3.5710   14.6020    0.4310 N   0  0  0  0  0  0  0  0  0  0  0  0
   -2.2180   14.5100    0.3160 C   0  0  0  0  0  0  0  0  0  0  0  0
   -1.7820   13.5780   -0.4970 N   0  0  0  0  0  0  0  0  0  0  0  0
   -1.3960   15.3260    0.9850 N   0  0  0  0  0  0  0  0  0  0  0  0
   -0.4800   13.4530   -0.6710 C   0  0  0  0  0  0  0  0  0  0  0  0
   -0.0780   15.1680    0.7610 C   0  0  0  0  0  0  0  0  0  0  0  0
    0.0160   12.3910   -1.5740 C   0  0  0  0  0  0  0  0  0  0  0  0
    0.4200   14.2360   -0.0780 C   0  0  0  0  0  0  0  0  0  0  0  0
    0.1960   12.9710   -2.8140 N   0  0  0  0  0  0  0  0  0  0  0  0
    0.2450   12.1740   -3.7340 C   0  0  0  0  0  0  0  0  0  0  0  0
    0.1670   10.8330   -3.6100 O   0  0  0  0  0  0  0  0  0  0  0  0
    0.3640   12.8360   -5.0360 C   0  0  1  0  0  0  0  0  0  0  0  0
   -0.4620   14.1340   -4.8760 C   0  0  0  0  0  0  0  0  0  0  0  0
    1.8180   13.1110   -5.3200 C   0  0  0  0  0  0  0  0  0  0  0  0
    2.3490   13.9700   -4.2980 O   0  0  0  0  0  0  0  0  0  0  0  0
    0.2080   15.1620   -3.9610 C   0  0  0  0  0  0  0  0  0  0  0  0
    1.6950   15.2480   -4.2500 C   0  0  0  0  0  0  0  0  0  0  0  0
  1  2  1  0
  1  3  1  0
  3  4  1  0
  3  5  1  0
  4  6  1  0
  5  7  1  0
  6  8  1  0
  7  8  1  0
  8  9  1  0
  9 10  2  0
  9 11  1  0
 10 12  1  0
 11 13  2  0
 12 14  1  0
 12 15  2  0
 13 15  1  0
 14 16  1  0
 16 17  2  3
 17 18  1  0
 19 17  1  1
 19 20  1  0
 19 21  1  0
 21 22  1  0
 20 23  1  0
 22 24  1  0
 23 24  1  0
M  END
