x0282_0_A_α-x0855_0_A_α
     RDKit          3D

 25 27  0  0  0  0  0  0  0  0999 V2000
   -7.0850   13.3540    0.5480 C   0  0  0  0  0  0  0  0  0  0  0  0
   -8.4430   13.6250    0.2030 O   0  0  0  0  0  0  0  0  0  0  0  0
   -6.3650   14.6880    0.5880 C   0  0  0  0  0  0  0  0  0  0  0  0
   -5.4320   14.8050    1.8010 C   0  0  0  0  0  0  0  0  0  0  0  0
   -5.6530   15.0890   -0.7220 C   0  0  0  0  0  0  0  0  0  0  0  0
   -4.1610   13.9940    1.6070 C   0  0  0  0  0  0  0  0  0  0  0  0
   -4.3090   14.3840   -0.8760 C   0  0  0  0  0  0  0  0  0  0  0  0
   -3.5550   14.4190    0.3690 N   0  0  0  0  0  0  0  0  0  0  0  0
   -2.1950   14.4760    0.2680 C   0  0  0  0  0  0  0  0  0  0  0  0
   -1.6860   14.4290   -0.9720 N   0  0  0  0  0  0  0  0  0  0  0  0
   -1.4400   14.5690    1.3830 N   0  0  0  0  0  0  0  0  0  0  0  0
   -0.3610   14.4880   -1.1300 C   0  0  0  0  0  0  0  0  0  0  0  0
   -0.1210   14.6320    1.1770 C   0  0  0  0  0  0  0  0  0  0  0  0
    0.2190   14.4260   -2.5260 C   0  0  0  0  0  0  0  0  0  0  0  0
    0.4670   14.5990   -0.0720 C   0  0  0  0  0  0  0  0  0  0  0  0
    1.2110   13.3760   -2.5620 O   0  0  0  0  0  0  0  0  0  0  0  0
    0.8580   12.2700   -3.2580 C   0  0  0  0  0  0  0  0  0  0  0  0
    0.7300   11.1540   -2.7580 O   0  0  0  0  0  0  0  0  0  0  0  0
    0.6220   12.5500   -4.7140 C   0  0  0  0  0  0  0  0  0  0  0  0
   -0.4270   11.6880   -5.2100 N   0  0  0  0  0  0  0  0  0  0  0  0
   -0.3150   10.7260   -6.1650 C   0  0  0  0  0  0  0  0  0  0  0  0
   -1.6750   11.8010   -4.6990 N   0  0  0  0  0  0  0  0  0  0  0  0
   -1.5600   10.1750   -6.2720 C   0  0  0  0  0  0  0  0  0  0  0  0
   -2.3650   10.8650   -5.3580 C   0  0  0  0  0  0  0  0  0  0  0  0
   -2.1130    8.7910   -7.3880 Br  0  0  0  0  0  0  0  0  0  0  0  0
  1  2  1  0
  1  3  1  0
  3  4  1  0
  3  5  1  0
  4  6  1  0
  5  7  1  0
  6  8  1  0
  7  8  1  0
  8  9  1  0
  9 10  2  0
  9 11  1  0
 10 12  1  0
 11 13  2  0
 12 14  1  0
 12 15  2  0
 13 15  1  0
 14 16  1  0
 16 17  1  0
 17 18  2  0
 17 19  1  0
 19 20  1  0
 20 21  1  0
 20 22  1  0
 21 23  2  0
 22 24  2  0
 23 24  1  0
 23 25  1  0
M  END
