x0282_0_A-x0685_0_A
     RDKit          3D

 19 20  0  0  0  0  0  0  0  0999 V2000
   -7.4270   13.4310   -0.0780 C   0  0  0  0  0  0  0  0  0  0  0  0
   -8.8060   13.7800   -0.1310 O   0  0  0  0  0  0  0  0  0  0  0  0
   -6.6560   14.6700    0.3180 C   0  0  1  0  0  0  0  0  0  0  0  0
   -5.8760   14.4930    1.6320 C   0  0  1  0  0  0  0  0  0  0  0  0
   -5.7340   15.1790   -0.8120 C   0  0  0  0  0  0  0  0  0  0  0  0
   -4.4520   15.1440    1.4700 C   0  0  0  0  0  0  0  0  0  0  0  0
   -4.4320   14.3830   -0.9100 C   0  0  1  0  0  0  0  0  0  0  0  0
   -6.7780   15.0220    2.7950 C   0  0  0  0  0  0  0  0  0  0  0  0
   -3.6900   14.8740   -2.1170 C   0  0  0  0  0  0  0  0  0  0  0  0
   -3.7140   14.4810    0.3820 N   0  0  0  0  0  0  0  0  0  0  0  0
   -7.5820   14.0230    3.6140 C   0  0  0  0  0  0  0  0  0  0  0  0
   -3.1640   15.2340   -3.0940 N   0  0  0  0  0  0  0  0  0  0  0  0
   -2.3210   14.5420    0.3300 C   0  0  0  0  0  0  0  0  0  0  0  0
   -7.7570   12.7020    2.9020 C   0  0  0  0  0  0  0  0  0  0  0  0
   -1.7870   14.5940   -0.9000 N   0  0  0  0  0  0  0  0  0  0  0  0
   -1.5540   14.5470    1.4530 N   0  0  0  0  0  0  0  0  0  0  0  0
   -0.4700   14.6600   -1.0380 C   0  0  0  0  0  0  0  0  0  0  0  0
   -0.2210   14.6110    1.2540 C   0  0  0  0  0  0  0  0  0  0  0  0
    0.3720   14.6750    0.0120 C   0  0  0  0  0  0  0  0  0  0  0  0
  1  2  1  0
  3  1  1  6
  3  4  1  0
  3  5  1  0
  4  6  1  0
  5  7  1  0
  4  8  1  1
  7  9  1  6
  6 10  1  0
  7 10  1  0
  8 11  1  0
  9 12  3  0
 10 13  1  0
 11 14  1  0
 13 15  2  0
 13 16  1  0
 15 17  1  0
 16 18  2  0
 17 19  2  0
 18 19  1  0
M  END
