x0290_0_A-x0685_0_A
     RDKit          3D

 22 23  0  0  0  0  0  0  0  0999 V2000
   -7.7420   14.3500    2.0650 N   0  0  0  0  0  0  0  0  0  0  0  0
   -8.6430   15.1170    1.1850 C   0  0  0  0  0  0  0  0  0  0  0  0
   -6.5780   13.7900    1.3170 C   0  0  2  0  0  0  0  0  0  0  0  0
   -7.4200   15.0640    3.3020 C   0  0  0  0  0  0  0  0  0  0  0  0
   -5.2370   13.3640    1.9120 C   0  0  0  0  0  0  0  0  0  0  0  0
   -5.8430   14.4110    0.2410 C   0  0  0  0  0  0  0  0  0  0  0  0
   -5.1900   12.2370    2.3270 O   0  0  0  0  0  0  0  0  0  0  0  0
   -4.0420   14.0840    1.9100 N   0  0  0  0  0  0  0  0  0  0  0  0
   -4.8140   15.2690    0.5220 C   0  0  0  0  0  0  0  0  0  0  0  0
   -6.2100   14.0190   -0.9720 N   0  0  0  0  0  0  0  0  0  0  0  0
   -2.8500   14.2250    1.1320 C   0  0  0  0  0  0  0  0  0  0  0  0
   -4.0830   15.7140   -0.5250 C   0  0  0  0  0  0  0  0  0  0  0  0
   -5.4760   14.4720   -1.9770 C   0  0  0  0  0  0  0  0  0  0  0  0
   -1.7490   14.3980    1.9040 N   0  0  0  0  0  0  0  0  0  0  0  0
   -2.7130   14.2010   -0.2550 C   0  0  0  0  0  0  0  0  0  0  0  0
   -4.4010   15.2940   -1.8100 C   0  0  0  0  0  0  0  0  0  0  0  0
   -3.6700   15.6520   -2.9630 C   0  0  0  0  0  0  0  0  0  0  0  0
   -0.5440   14.5450    1.3120 C   0  0  0  0  0  0  0  0  0  0  0  0
   -1.4520   14.3620   -0.8550 C   0  0  0  0  0  0  0  0  0  0  0  0
   -1.3010   14.3420   -2.3500 C   0  0  0  0  0  0  0  0  0  0  0  0
   -3.0610   15.8680   -3.9220 N   0  0  0  0  0  0  0  0  0  0  0  0
   -0.3410   14.5380   -0.0470 C   0  0  0  0  0  0  0  0  0  0  0  0
  1  2  1  0
  1  3  1  0
  1  4  1  0
  3  5  1  1
  3  6  1  0
  5  7  2  0
  5  8  1  0
  6  9  2  0
  6 10  1  0
  8 11  1  0
  9 12  1  0
 10 13  2  0
 11 14  2  0
 11 15  1  0
 12 16  2  0
 13 16  1  0
 16 17  1  0
 14 18  1  0
 15 19  2  0
 19 20  1  0
 17 21  3  0
 18 22  2  0
 19 22  1  0
M  END
