x0290_0_A-x0253_0_A
     RDKit          3D

 29 30  0  0  0  0  0  0  0  0999 V2000
   -7.8390   13.8250    1.0540 N   0  0  0  0  0  0  0  0  0  0  0  0
   -8.6350   14.9880    0.6930 C   0  0  0  0  0  0  0  0  0  0  0  0
   -6.6220   14.1790    1.8110 C   0  0  0  0  0  0  0  0  0  0  0  0
   -5.4360   14.5930    0.9320 C   0  0  0  0  0  0  0  0  0  0  0  0
   -5.5260   14.6950   -0.2970 O   0  0  0  0  0  0  0  0  0  0  0  0
   -4.2160   14.8480    1.4860 N   0  0  0  0  0  0  0  0  0  0  0  0
   -2.9540   14.6800    0.9570 C   0  0  0  0  0  0  0  0  0  0  0  0
   -1.9110   14.7650    1.8180 N   0  0  0  0  0  0  0  0  0  0  0  0
   -2.7630   14.4280   -0.3660 C   0  0  0  0  0  0  0  0  0  0  0  0
   -0.6570   14.6010    1.3370 C   0  0  0  0  0  0  0  0  0  0  0  0
   -1.4790   14.2540   -0.8370 C   0  0  0  0  0  0  0  0  0  0  0  0
   -1.2850   13.9350   -2.2590 C   0  0  0  0  0  0  0  0  0  0  0  0
   -0.3960   14.3490    0.0230 C   0  0  0  0  0  0  0  0  0  0  0  0
   -0.9950   12.4310   -2.2130 C   0  0  0  0  0  0  0  0  0  0  0  0
    0.4310   12.2100   -1.7110 C   0  0  0  0  0  0  0  0  0  0  0  0
    1.1760   12.9450   -2.6420 N   0  0  0  0  0  0  0  0  0  0  0  0
    0.8640   12.5550   -3.7750 C   0  0  0  0  0  0  0  0  0  0  0  0
    0.0250   11.5220   -3.9700 O   0  0  0  0  0  0  0  0  0  0  0  0
    1.3250   13.1670   -5.0390 C   0  0  0  0  0  0  0  0  0  0  0  0
    0.4920   12.5960   -6.0690 N   0  0  0  0  0  0  0  0  0  0  0  0
    1.1980   11.7340   -6.8020 C   0  0  0  0  0  0  0  0  0  0  0  0
    2.3770   11.7490   -6.6570 O   0  0  0  0  0  0  0  0  0  0  0  0
    0.5260   10.7920   -7.7390 C   0  0  0  0  0  0  0  0  0  0  0  0
   -0.4340    9.9100   -7.2380 C   0  0  0  0  0  0  0  0  0  0  0  0
    0.8430   10.7740   -9.1020 C   0  0  0  0  0  0  0  0  0  0  0  0
   -1.0830    9.0090   -8.0950 C   0  0  0  0  0  0  0  0  0  0  0  0
    0.2010    9.8820   -9.9570 C   0  0  0  0  0  0  0  0  0  0  0  0
   -2.1150    8.0630   -7.5640 C   0  0  0  0  0  0  0  0  0  0  0  0
   -0.7550    9.0060   -9.4570 C   0  0  0  0  0  0  0  0  0  0  0  0
  1  2  1  0
  1  3  1  0
  3  4  1  0
  4  5  2  0
  4  6  1  0
  6  7  1  0
  7  8  2  0
  7  9  1  0
  8 10  1  0
  9 11  2  0
 11 12  1  0
 10 13  2  0
 11 13  1  0
 12 14  1  0
 14 15  1  0
 15 16  1  0
 16 17  2  3
 17 18  1  0
 17 19  1  0
 19 20  1  0
 20 21  1  0
 21 22  2  0
 21 23  1  0
 23 24  2  0
 23 25  1  0
 24 26  1  0
 25 27  2  0
 26 28  1  0
 26 29  2  0
 27 29  1  0
M  END
