x0299_0_A-x0814_0_B
     RDKit          3D

 31 33  0  0  0  0  0  0  0  0999 V2000
   14.4600    7.7310   12.7170 N   0  0  0  0  0  0  0  0  0  0  0  0
   15.1790    8.4620   13.6060 C   0  0  0  0  0  0  0  0  0  0  0  0
   16.2820    8.9310   13.3640 O   0  0  0  0  0  0  0  0  0  0  0  0
   14.2170    8.0730   11.3400 C   0  0  1  0  0  0  0  0  0  0  0  0
   14.4490    8.6020   14.9200 C   0  0  0  0  0  0  0  0  0  0  0  0
   14.8480    9.3510   10.7600 C   0  0  0  0  0  0  0  0  0  0  0  0
   14.5260    6.8310   10.5560 C   0  0  0  0  0  0  0  0  0  0  0  0
   15.0480    7.7170   16.0040 C   0  0  0  0  0  0  0  0  0  0  0  0
   14.2890    5.6140   11.1370 N   0  0  0  0  0  0  0  0  0  0  0  0
   15.0210    6.6940    9.3310 N   0  0  0  0  0  0  0  0  0  0  0  0
   14.6970   10.6800   11.5510 C   0  0  2  0  0  0  0  0  0  0  0  0
   16.0330    8.4800   16.8690 C   0  0  0  0  0  0  0  0  0  0  0  0
   15.1060    5.3150    9.1530 C   0  0  0  0  0  0  0  0  0  0  0  0
   14.6470    4.6350   10.2730 C   0  0  0  0  0  0  0  0  0  0  0  0
   13.2370   10.8330   11.9010 C   0  0  0  0  0  0  0  0  0  0  0  0
   15.1330   11.9950   10.8640 C   0  0  0  0  0  0  0  0  0  0  0  0
   14.6050    3.2460   10.3870 C   0  0  0  0  0  0  0  0  0  0  0  0
   15.5660    4.5510    8.0680 C   0  0  0  0  0  0  0  0  0  0  0  0
   13.1600   11.8940   12.8840 N   0  0  0  0  0  0  0  0  0  0  0  0
   14.7810   13.2490   11.6730 C   0  0  2  0  0  0  0  0  0  0  0  0
   15.8750   14.3280   11.7430 C   0  0  0  0  0  0  0  0  0  0  0  0
   11.6540   12.4400   13.2640 S   0  0  0  0  0  0  0  0  0  0  0  0
   15.0620    2.5140    9.2930 C   0  0  0  0  0  0  0  0  0  0  0  0
   15.5360    3.1510    8.1500 C   0  0  0  0  0  0  0  0  0  0  0  0
   14.3450   12.7740   13.0510 C   0  0  1  0  0  0  0  0  0  0  0  0
   14.1410   13.9290   14.0210 C   0  0  0  0  0  0  0  0  0  0  0  0
   11.6970   13.8710   13.0610 O   0  0  0  0  0  0  0  0  0  0  0  0
   17.1620   13.9060   11.5440 N   0  0  0  0  0  0  0  0  0  0  0  0
   10.6460   11.5790   12.6470 O   0  0  0  0  0  0  0  0  0  0  0  0
   15.6790   15.5190   11.9650 O   0  0  0  0  0  0  0  0  0  0  0  0
   11.6850   12.0780   15.0130 C   0  0  0  0  0  0  0  0  0  0  0  0
  1  2  1  0
  2  3  2  0
  1  4  1  0
  2  5  1  0
  4  6  1  6
  4  7  1  0
  5  8  1  0
  7  9  1  0
  7 10  2  0
 11  6  1  6
  8 12  1  0
 10 13  1  0
  9 14  1  0
 13 14  2  0
 11 15  1  0
 11 16  1  0
 14 17  1  0
 13 18  1  0
 15 19  1  0
 16 20  1  0
 20 21  1  1
 19 22  1  0
 17 23  2  0
 18 24  2  0
 23 24  1  0
 19 25  1  0
 20 25  1  0
 25 26  1  1
 22 27  2  0
 21 28  1  0
 22 29  2  0
 21 30  2  0
 22 31  1  0
M  END
