x0299_0_A-x0158_0_B
     RDKit          3D

 33 35  0  0  0  0  0  0  0  0999 V2000
   14.0540    8.2730   12.3380 N   0  0  0  0  0  0  0  0  0  0  0  0
   14.8740    8.2170   13.4420 C   0  0  0  0  0  0  0  0  0  0  0  0
   16.0050    8.6890   13.4720 O   0  0  0  0  0  0  0  0  0  0  0  0
   14.5760    8.3560   10.9950 C   0  0  0  0  0  0  0  0  0  0  0  0
   14.2260    7.4910   14.6270 C   0  0  1  0  0  0  0  0  0  0  0  0
   14.7650    6.9840   10.4460 C   0  0  0  0  0  0  0  0  0  0  0  0
   15.0920    7.5560   15.9100 C   0  0  0  0  0  0  0  0  0  0  0  0
   12.7570    7.9030   14.8420 C   0  0  0  0  0  0  0  0  0  0  0  0
   14.3960    5.8460   11.1330 N   0  0  0  0  0  0  0  0  0  0  0  0
   15.2900    6.6720    9.2830 N   0  0  0  0  0  0  0  0  0  0  0  0
   15.7570    8.8810   16.2530 C   0  0  0  0  0  0  0  0  0  0  0  0
   12.4470    9.1760   15.6430 C   0  0  0  0  0  0  0  0  0  0  0  0
   15.2740    5.2890    9.2280 C   0  0  0  0  0  0  0  0  0  0  0  0
   14.7110    4.7530   10.3730 C   0  0  0  0  0  0  0  0  0  0  0  0
   11.1810    9.9000   15.1950 C   0  0  0  0  0  0  0  0  0  0  0  0
   14.5590    3.3800   10.5830 C   0  0  0  0  0  0  0  0  0  0  0  0
   15.7250    4.4130    8.2250 C   0  0  0  0  0  0  0  0  0  0  0  0
   11.4590   11.3360   14.9530 N   0  0  0  0  0  0  0  0  0  0  0  0
   15.0090    2.5300    9.5680 C   0  0  0  0  0  0  0  0  0  0  0  0
   15.5840    3.0360    8.4060 C   0  0  0  0  0  0  0  0  0  0  0  0
   11.7500   11.7340   13.4780 S   0  0  0  0  0  0  0  0  0  0  0  0
   10.7890   11.4600   12.4290 O   0  0  0  0  0  0  0  0  0  0  0  0
   13.2540   10.8740   13.0340 C   0  0  0  0  0  0  0  0  0  0  0  0
   12.0760   13.5060   13.4460 C   0  0  0  0  0  0  0  0  0  0  0  0
   14.3020   11.7750   12.3980 C   0  0  0  0  0  0  0  0  0  0  0  0
   13.4140   13.9320   12.8990 C   0  0  0  0  0  0  0  0  0  0  0  0
   14.5160   13.0230   13.1490 N   0  0  0  0  0  0  0  0  0  0  0  0
   15.8030   13.6900   12.7660 C   0  0  0  0  0  0  0  0  0  0  0  0
   15.8730   15.1870   13.0730 C   0  0  0  0  0  0  0  0  0  0  0  0
   15.9720   15.9410   11.9380 O   0  0  0  0  0  0  0  0  0  0  0  0
   15.8520   15.6360   14.2100 O   0  0  0  0  0  0  0  0  0  0  0  0
   16.0870   17.3640   12.1100 C   0  0  0  0  0  0  0  0  0  0  0  0
   17.1530   17.9390   11.1930 C   0  0  0  0  0  0  0  0  0  0  0  0
  1  2  1  0
  2  3  2  0
  1  4  1  0
  2  5  1  0
  4  6  1  0
  5  7  1  1
  5  8  1  0
  6  9  1  0
  6 10  2  0
  7 11  1  0
  8 12  1  0
 10 13  1  0
  9 14  1  0
 13 14  2  0
 12 15  1  0
 14 16  1  0
 13 17  1  0
 15 18  1  0
 16 19  2  0
 17 20  2  0
 19 20  1  0
 18 21  2  0
 21 22  2  0
 21 23  1  0
 21 24  1  0
 23 25  1  0
 24 26  1  0
 25 27  1  0
 26 27  1  0
 27 28  1  0
 28 29  1  0
 29 30  1  0
 29 31  2  0
 30 32  1  0
 32 33  1  0
M  END
