x0290_0_A-x0128_0_A
     RDKit          3D

 26 28  0  0  0  0  0  0  0  0999 V2000
   -4.9450   12.6060    0.7600 O   0  0  0  0  0  0  0  0  0  0  0  0
   -4.2140   13.1970    1.5570 C   0  0  0  0  0  0  0  0  0  0  0  0
   -3.7980   14.4870    1.3770 N   0  0  0  0  0  0  0  0  0  0  0  0
   -2.5060   14.5470    0.8560 C   0  0  0  0  0  0  0  0  0  0  0  0
   -4.7980   14.8390    0.5290 C   0  0  0  0  0  0  0  0  0  0  0  0
   -1.4940   14.5690    1.7300 N   0  0  0  0  0  0  0  0  0  0  0  0
   -2.3020   14.5700   -0.5170 C   0  0  0  0  0  0  0  0  0  0  0  0
   -4.6290   15.4310   -0.7040 C   0  0  0  0  0  0  0  0  0  0  0  0
   -6.0470   14.5120    0.9810 C   0  0  0  0  0  0  0  0  0  0  0  0
   -0.2540   14.6210    1.2270 C   0  0  0  0  0  0  0  0  0  0  0  0
   -1.0120   14.6230   -1.0250 C   0  0  0  0  0  0  0  0  0  0  0  0
   -7.1520   14.7390    0.2350 C   0  0  0  0  0  0  0  0  0  0  0  0
   -5.7430   15.6690   -1.4850 C   0  0  0  0  0  0  0  0  0  0  0  0
   -0.7840   14.6500   -2.5040 C   0  0  0  0  0  0  0  0  0  0  0  0
    0.0410   14.6500   -0.1210 C   0  0  0  0  0  0  0  0  0  0  0  0
   -7.0100   15.3250   -1.0210 C   0  0  0  0  0  0  0  0  0  0  0  0
   -8.3610   14.3700    0.7810 N   0  0  0  0  0  0  0  0  0  0  0  0
   -9.1530   15.2360    1.4540 C   0  0  0  0  0  0  0  0  0  0  0  0
   -9.1320   15.7490    2.7030 C   0  0  0  0  0  0  0  0  0  0  0  0
   -8.3130   15.6070    3.8070 N   0  0  0  0  0  0  0  0  0  0  0  0
   -8.7500   16.1700    5.0160 C   0  0  0  0  0  0  0  0  0  0  0  0
   -9.3890   17.4090    4.9330 C   0  0  0  0  0  0  0  0  0  0  0  0
   -8.6370   15.6320    6.3010 C   0  0  0  0  0  0  0  0  0  0  0  0
   -9.9010   18.1080    5.9640 N   0  0  0  0  0  0  0  0  0  0  0  0
   -9.1580   16.3310    7.3980 C   0  0  0  0  0  0  0  0  0  0  0  0
   -9.7770   17.5540    7.1760 C   0  0  0  0  0  0  0  0  0  0  0  0
  1  2  2  0
  2  3  1  0
  3  4  1  0
  3  5  1  0
  4  6  2  0
  4  7  1  0
  5  8  2  0
  5  9  1  0
  6 10  1  0
  7 11  2  0
  9 12  2  0
  8 13  1  0
 11 14  1  0
 10 15  2  0
 11 15  1  0
 12 16  1  0
 13 16  2  0
 12 17  1  0
 17 18  1  0
 18 19  2  3
 19 20  1  0
 20 21  1  0
 21 22  2  0
 21 23  1  0
 22 24  1  0
 23 25  2  0
 24 26  2  0
 25 26  1  0
M  END
