x0290_0_A_α-x0104_0_A_β
     RDKit          3D

 20 21  0  0  0  0  0  0  0  0999 V2000
   -4.8280   12.5510    1.7850 O   0  0  0  0  0  0  0  0  0  0  0  0
   -4.5490   13.6640    1.4170 C   0  0  0  0  0  0  0  0  0  0  0  0
   -3.4590   14.3130    1.7940 N   0  0  0  0  0  0  0  0  0  0  0  0
   -5.4130   14.2430    0.4760 C   0  0  0  0  0  0  0  0  0  0  0  0
   -2.3450   14.4640    1.0350 C   0  0  0  0  0  0  0  0  0  0  0  0
   -6.7110   14.3670    0.8200 C   0  0  0  0  0  0  0  0  0  0  0  0
   -4.8460   14.5930   -0.6700 N   0  0  0  0  0  0  0  0  0  0  0  0
   -1.2650   14.6340    1.7730 N   0  0  0  0  0  0  0  0  0  0  0  0
   -2.3190   14.4380   -0.3530 C   0  0  0  0  0  0  0  0  0  0  0  0
   -5.6630   15.1070   -1.5610 C   0  0  0  0  0  0  0  0  0  0  0  0
   -7.5580   14.9030   -0.1060 C   0  0  0  0  0  0  0  0  0  0  0  0
   -0.1170   14.7960    1.1300 C   0  0  0  0  0  0  0  0  0  0  0  0
   -1.1030   14.5980   -1.0100 C   0  0  0  0  0  0  0  0  0  0  0  0
   -5.1430   15.4750   -2.7740 O   0  0  0  0  0  0  0  0  0  0  0  0
   -7.0190   15.2860   -1.3360 C   0  0  0  0  0  0  0  0  0  0  0  0
   -8.8700   15.0030    0.2770 N   0  0  0  0  0  0  0  0  0  0  0  0
   -1.0130   14.5690   -2.5070 C   0  0  0  0  0  0  0  0  0  0  0  0
    0.0320   14.7850   -0.2390 C   0  0  0  0  0  0  0  0  0  0  0  0
   -3.7450   15.2330   -2.8740 C   0  0  0  0  0  0  0  0  0  0  0  0
   -9.1870   14.9200    1.6780 C   0  0  0  0  0  0  0  0  0  0  0  0
  1  2  2  0
  2  3  1  0
  2  4  1  0
  3  5  1  0
  4  6  2  0
  4  7  1  0
  5  8  2  0
  5  9  1  0
  7 10  2  0
  6 11  1  0
  8 12  1  0
  9 13  2  0
 10 14  1  0
 10 15  1  0
 11 15  2  0
 11 16  1  0
 13 17  1  0
 12 18  2  0
 13 18  1  0
 14 19  1  0
 16 20  1  0
M  END
