x0299_0_A_α-x0128_1_A_α
     RDKit          3D

 37 40  0  0  0  0  0  0  0  0999 V2000
   14.0380    8.2670   12.3190 N   0  0  0  0  0  0  0  0  0  0  0  0
   14.8880    8.4200   13.3970 C   0  0  0  0  0  0  0  0  0  0  0  0
   16.0820    8.6700   13.2820 O   0  0  0  0  0  0  0  0  0  0  0  0
   14.5520    8.3550   10.9600 C   0  0  0  0  0  0  0  0  0  0  0  0
   14.1980    8.2430   14.7360 C   0  0  0  0  0  0  0  0  0  0  0  0
   14.6640    7.0030   10.3360 C   0  0  0  0  0  0  0  0  0  0  0  0
   15.1100    7.5590   15.7510 C   0  0  0  0  0  0  0  0  0  0  0  0
   14.5240    5.8380   11.0550 N   0  0  0  0  0  0  0  0  0  0  0  0
   14.9080    6.7430    9.0640 N   0  0  0  0  0  0  0  0  0  0  0  0
   15.8610    8.5690   16.6050 C   0  0  0  0  0  0  0  0  0  0  0  0
   14.9230    5.3670    8.9660 C   0  0  0  0  0  0  0  0  0  0  0  0
   14.6870    4.7800   10.2040 C   0  0  0  0  0  0  0  0  0  0  0  0
   14.6490    3.4010   10.4080 C   0  0  0  0  0  0  0  0  0  0  0  0
   15.1340    4.5420    7.8500 C   0  0  0  0  0  0  0  0  0  0  0  0
   14.8650    2.5960    9.2840 C   0  0  0  0  0  0  0  0  0  0  0  0
   15.1040    3.1420    8.0140 C   0  0  0  0  0  0  0  0  0  0  0  0
   15.3280    2.2340    6.8240 C   0  0  0  0  0  0  0  0  0  0  0  0
   14.1740    2.3670    5.8310 C   0  0  0  0  0  0  0  0  0  0  0  0
   14.1240    1.3040    4.7340 C   0  0  0  0  0  0  0  0  0  0  0  0
   13.1030    1.5420    3.6120 C   0  0  0  0  0  0  0  0  0  0  0  0
   11.6870    0.9750    3.8330 C   0  0  0  0  0  0  0  0  0  0  0  0
   10.8380    0.8890    2.6360 N   0  0  0  0  0  0  0  0  0  0  0  0
   11.1700   -0.2600    1.7330 C   0  0  0  0  0  0  0  0  0  0  0  0
    9.4130    0.9850    2.9760 C   0  0  0  0  0  0  0  0  0  0  0  0
    9.9600   -0.8400    0.9100 C   0  0  2  0  0  0  0  0  0  0  0  0
    8.6050    1.0200    1.7390 C   0  0  0  0  0  0  0  0  0  0  0  0
   10.3960   -1.1440   -0.4500 N   0  0  0  0  0  0  0  0  0  0  0  0
    8.8620    0.1560    0.7560 C   0  0  0  0  0  0  0  0  0  0  0  0
    9.7390   -2.0640   -1.2570 C   0  0  0  0  0  0  0  0  0  0  0  0
   10.5870   -2.4700   -2.2680 N   0  0  0  0  0  0  0  0  0  0  0  0
    8.5850   -2.4340   -1.0610 O   0  0  0  0  0  0  0  0  0  0  0  0
   10.3300   -3.3310   -3.3560 C   0  0  0  0  0  0  0  0  0  0  0  0
    9.2470   -4.2130   -3.4260 C   0  0  0  0  0  0  0  0  0  0  0  0
   11.2340   -3.2840   -4.4270 C   0  0  0  0  0  0  0  0  0  0  0  0
    9.0750   -5.0330   -4.5480 C   0  0  0  0  0  0  0  0  0  0  0  0
   11.0620   -4.1030   -5.5480 C   0  0  0  0  0  0  0  0  0  0  0  0
    9.9810   -4.9780   -5.6050 C   0  0  0  0  0  0  0  0  0  0  0  0
  1  2  1  0
  2  3  2  0
  1  4  1  0
  2  5  1  0
  4  6  1  0
  5  7  1  0
  6  8  1  0
  6  9  2  0
  7 10  1  0
  9 11  1  0
  8 12  1  0
 11 12  2  0
 12 13  1  0
 11 14  1  0
 13 15  2  0
 14 16  2  0
 15 16  1  0
 16 17  1  0
 17 18  1  0
 18 19  1  0
 19 20  1  0
 20 21  1  0
 21 22  1  0
 22 23  1  0
 22 24  1  0
 23 25  1  0
 24 26  1  0
 25 27  1  6
 25 28  1  0
 26 28  2  0
 27 29  1  0
 29 30  1  0
 29 31  2  0
 30 32  1  0
 32 33  2  0
 32 34  1  0
 33 35  1  0
 34 36  2  0
 35 37  2  0
 36 37  1  0
M  END
