x0290_0_A_α-x0967_0_A_α
     RDKit          3D

 23 25  0  0  0  0  0  0  0  0999 V2000
   -7.0780   12.6560    0.6750 N   0  0  0  0  0  0  0  0  0  0  0  0
   -8.3540   12.6220    1.3840 C   0  0  0  0  0  0  0  0  0  0  0  0
   -5.9410   12.8880    1.5970 C   0  0  0  0  0  0  0  0  0  0  0  0
   -4.6090   13.3310    0.9110 C   0  0  0  0  0  0  0  0  0  0  0  0
   -4.4470   13.5700   -0.3650 N   0  0  0  0  0  0  0  0  0  0  0  0
   -3.5210   13.5360    1.6970 N   0  0  0  0  0  0  0  0  0  0  0  0
   -2.3550   13.9880    1.0450 C   0  0  0  0  0  0  0  0  0  0  0  0
   -5.4100   13.6010   -1.3130 N   0  0  0  0  0  0  0  0  0  0  0  0
   -1.3130   14.3130    1.8210 N   0  0  0  0  0  0  0  0  0  0  0  0
   -2.2710   14.0880   -0.3470 C   0  0  0  0  0  0  0  0  0  0  0  0
   -6.4540   14.0580   -0.4070 C   0  0  2  0  0  0  0  0  0  0  0  0
   -4.7710   14.5650   -2.0350 C   0  0  0  0  0  0  0  0  0  0  0  0
   -0.1900   14.7270    1.2110 C   0  0  0  0  0  0  0  0  0  0  0  0
   -1.0980   14.5250   -0.9590 C   0  0  0  0  0  0  0  0  0  0  0  0
   -7.7590   14.6140   -0.7340 N   0  0  0  0  0  0  0  0  0  0  0  0
   -5.7130   15.0080    0.4930 C   0  0  0  0  0  0  0  0  0  0  0  0
   -4.3530   15.6500   -1.3770 C   0  0  0  0  0  0  0  0  0  0  0  0
   -1.0040   14.6320   -2.4510 C   0  0  0  0  0  0  0  0  0  0  0  0
   -0.0290   14.8500   -0.1480 C   0  0  0  0  0  0  0  0  0  0  0  0
   -6.3110   14.9360    1.7910 C   0  0  0  0  0  0  0  0  0  0  0  0
   -8.2890   15.0110    0.3880 C   0  0  0  0  0  0  0  0  0  0  0  0
   -4.6790   15.7690    0.0470 C   0  0  0  0  0  0  0  0  0  0  0  0
   -7.6650   14.9250    1.7630 C   0  0  0  0  0  0  0  0  0  0  0  0
  1  2  1  0
  1  3  1  0
  3  4  1  0
  4  5  2  3
  4  6  1  0
  6  7  1  0
  5  8  1  0
  7  9  2  0
  7 10  1  0
  8 11  1  0
  8 12  1  0
  9 13  1  0
 10 14  2  0
 11 15  1  6
 11 16  1  0
 12 17  2  0
 14 18  1  0
 13 19  2  0
 14 19  1  0
 16 20  1  0
 15 21  2  0
 16 22  2  0
 17 22  1  0
 20 23  2  0
 21 23  1  0
M  END
