x0290_0_A-x0967_0_A
     RDKit          3D

 23 25  0  0  0  0  0  0  0  0999 V2000
   -7.0760   12.6580    0.6730 N   0  0  0  0  0  0  0  0  0  0  0  0
   -8.3520   12.6230    1.3840 C   0  0  0  0  0  0  0  0  0  0  0  0
   -5.9390   12.8880    1.5970 C   0  0  0  0  0  0  0  0  0  0  0  0
   -4.6080   13.3290    0.9100 C   0  0  0  0  0  0  0  0  0  0  0  0
   -4.4470   13.5690   -0.3670 N   0  0  0  0  0  0  0  0  0  0  0  0
   -3.5210   13.5350    1.6960 N   0  0  0  0  0  0  0  0  0  0  0  0
   -2.3560   13.9870    1.0440 C   0  0  0  0  0  0  0  0  0  0  0  0
   -5.4110   13.6010   -1.3130 N   0  0  0  0  0  0  0  0  0  0  0  0
   -1.3140   14.3140    1.8210 N   0  0  0  0  0  0  0  0  0  0  0  0
   -2.2700   14.0880   -0.3470 C   0  0  0  0  0  0  0  0  0  0  0  0
   -6.4520   14.0560   -0.4070 C   0  0  2  0  0  0  0  0  0  0  0  0
   -4.7710   14.5640   -2.0350 C   0  0  0  0  0  0  0  0  0  0  0  0
   -0.1920   14.7270    1.2110 C   0  0  0  0  0  0  0  0  0  0  0  0
   -1.1000   14.5250   -0.9600 C   0  0  0  0  0  0  0  0  0  0  0  0
   -7.7580   14.6140   -0.7330 N   0  0  0  0  0  0  0  0  0  0  0  0
   -5.7140   15.0080    0.4950 C   0  0  0  0  0  0  0  0  0  0  0  0
   -4.3530   15.6490   -1.3760 C   0  0  0  0  0  0  0  0  0  0  0  0
   -1.0050   14.6340   -2.4490 C   0  0  0  0  0  0  0  0  0  0  0  0
   -0.0280   14.8520   -0.1470 C   0  0  0  0  0  0  0  0  0  0  0  0
   -6.3110   14.9360    1.7910 C   0  0  0  0  0  0  0  0  0  0  0  0
   -8.2890   15.0090    0.3890 C   0  0  0  0  0  0  0  0  0  0  0  0
   -4.6800   15.7670    0.0470 C   0  0  0  0  0  0  0  0  0  0  0  0
   -7.6650   14.9240    1.7650 C   0  0  0  0  0  0  0  0  0  0  0  0
  1  2  1  0
  1  3  1  0
  3  4  1  0
  4  5  2  3
  4  6  1  0
  6  7  1  0
  5  8  1  0
  7  9  2  0
  7 10  1  0
  8 11  1  0
  8 12  1  0
  9 13  1  0
 10 14  2  0
 11 15  1  6
 11 16  1  0
 12 17  2  0
 14 18  1  0
 13 19  2  0
 14 19  1  0
 16 20  1  0
 15 21  2  0
 16 22  2  0
 17 22  1  0
 20 23  2  0
 21 23  1  0
M  END
