x0290_0_A_α-x0685_1_A_α
     RDKit          3D

 27 28  0  0  0  0  0  0  0  0999 V2000
   -7.8420   13.8030    0.9850 N   0  0  0  0  0  0  0  0  0  0  0  0
   -8.6410   14.9850    0.6790 C   0  0  0  0  0  0  0  0  0  0  0  0
   -6.6420   14.1240    1.7820 C   0  0  0  0  0  0  0  0  0  0  0  0
   -5.4290   14.4800    0.9290 C   0  0  0  0  0  0  0  0  0  0  0  0
   -5.5520   14.5300   -0.3030 O   0  0  0  0  0  0  0  0  0  0  0  0
   -4.2060   14.7330    1.4500 N   0  0  0  0  0  0  0  0  0  0  0  0
   -2.9410   14.6720    0.8930 C   0  0  0  0  0  0  0  0  0  0  0  0
   -1.9160   14.5990    1.7840 N   0  0  0  0  0  0  0  0  0  0  0  0
   -2.7310   14.6800   -0.4640 C   0  0  0  0  0  0  0  0  0  0  0  0
   -0.6590   14.5310    1.2960 C   0  0  0  0  0  0  0  0  0  0  0  0
   -1.4350   14.6120   -0.9530 C   0  0  0  0  0  0  0  0  0  0  0  0
   -1.1600   14.6140   -2.4250 C   0  0  0  0  0  0  0  0  0  0  0  0
   -0.3700   14.5370   -0.0460 C   0  0  0  0  0  0  0  0  0  0  0  0
    0.3360   14.5590   -2.5830 C   0  0  0  0  0  0  0  0  0  0  0  0
    0.7120   13.3470   -1.9520 O   0  0  0  0  0  0  0  0  0  0  0  0
    0.9570   12.1130   -2.9270 S   0  0  0  0  0  0  0  0  0  0  0  0
    0.0740   12.4710   -4.4410 C   0  0  0  0  0  0  0  0  0  0  0  0
    2.5050   12.1320   -3.3300 O   0  0  0  0  0  0  0  0  0  0  0  0
    0.4250   10.6850   -2.3640 O   0  0  0  0  0  0  0  0  0  0  0  0
   -1.3600   11.9460   -4.4340 C   0  0  0  0  0  0  0  0  0  0  0  0
   -1.4340   10.5390   -4.8960 N   0  0  0  0  0  0  0  0  0  0  0  0
   -0.7680   10.3510   -6.2010 C   0  0  0  0  0  0  0  0  0  0  0  0
   -0.5730    8.8510   -6.4610 C   0  0  0  0  0  0  0  0  0  0  0  0
   -1.5710   10.9850   -7.3590 C   0  0  0  0  0  0  0  0  0  0  0  0
    0.0480    8.5740   -7.8260 C   0  0  0  0  0  0  0  0  0  0  0  0
   -1.0200   10.6810   -8.7560 C   0  0  0  0  0  0  0  0  0  0  0  0
   -0.7520    9.1930   -8.9740 C   0  0  0  0  0  0  0  0  0  0  0  0
  1  2  1  0
  1  3  1  0
  3  4  1  0
  4  5  2  0
  4  6  1  0
  6  7  1  0
  7  8  2  0
  7  9  1  0
  8 10  1  0
  9 11  2  0
 11 12  1  0
 10 13  2  0
 11 13  1  0
 12 14  1  0
 14 15  1  0
 16 15  1  0
 16 17  1  0
 16 18  1  0
 16 19  1  0
 17 20  1  0
 20 21  1  0
 21 22  1  0
 22 23  1  0
 22 24  1  0
 23 25  1  0
 24 26  1  0
 25 27  1  0
 26 27  1  0
M  END
