x0299_0_A-x0796_0_B
     RDKit          3D

 31 35  0  0  0  0  0  0  0  0999 V2000
   14.4040    8.1140   12.8720 N   0  0  0  0  0  0  0  0  0  0  0  0
   15.7300    7.8180   12.9580 C   0  0  0  0  0  0  0  0  0  0  0  0
   16.7020    8.5750   12.5270 N   0  0  0  0  0  0  0  0  0  0  0  0
   13.7970    7.9780   11.5370 C   0  0  0  0  0  0  0  0  0  0  0  0
   15.9860    6.5100   13.6570 C   0  0  0  0  0  0  0  0  0  0  0  0
   14.2440    6.7890   10.7220 C   0  0  0  0  0  0  0  0  0  0  0  0
   15.5910    6.6450   15.1480 C   0  0  0  0  0  0  0  0  0  0  0  0
   14.1230    5.5310   11.2500 N   0  0  0  0  0  0  0  0  0  0  0  0
   14.7670    6.7460    9.4850 N   0  0  0  0  0  0  0  0  0  0  0  0
   16.0420    9.7500   12.3010 C   0  0  0  0  0  0  0  0  0  0  0  0
   15.8780    8.0150   15.7750 C   0  0  0  0  0  0  0  0  0  0  0  0
   14.9730    5.3940    9.2470 C   0  0  0  0  0  0  0  0  0  0  0  0
   14.5730    4.6270   10.3400 C   0  0  0  0  0  0  0  0  0  0  0  0
   16.6980   10.9460   12.5590 C   0  0  0  0  0  0  0  0  0  0  0  0
   14.7130    9.7100   11.9180 C   0  0  0  0  0  0  0  0  0  0  0  0
   14.6560    3.2350   10.3910 C   0  0  0  0  0  0  0  0  0  0  0  0
   15.4940    4.7220    8.1290 C   0  0  0  0  0  0  0  0  0  0  0  0
   14.0100   10.8640   11.8700 C   0  0  0  0  0  0  0  0  0  0  0  0
   15.9830   12.1270   12.5010 C   0  0  0  0  0  0  0  0  0  0  0  0
   15.1720    2.5920    9.2670 C   0  0  0  0  0  0  0  0  0  0  0  0
   15.5860    3.3230    8.1490 C   0  0  0  0  0  0  0  0  0  0  0  0
   12.6460   10.8780   11.5550 N   0  0  0  0  0  0  0  0  0  0  0  0
   14.6310   12.0530   12.1900 C   0  0  0  0  0  0  0  0  0  0  0  0
   13.7040   13.1860   12.2180 C   0  0  0  0  0  0  0  0  0  0  0  0
   11.8330   11.5900   12.4050 C   0  0  0  0  0  0  0  0  0  0  0  0
   10.6120   11.4330   12.4900 O   0  0  0  0  0  0  0  0  0  0  0  0
   12.6970   12.5660   13.2290 C   0  0  2  0  0  0  0  0  0  0  0  0
   11.9230   13.5270   14.0780 N   0  0  0  0  0  0  0  0  0  0  0  0
   13.4000   11.6930   14.2850 C   0  0  0  0  0  0  0  0  0  0  0  0
   12.4030   11.6450   15.4200 C   0  0  0  0  0  0  0  0  0  0  0  0
   12.0140   13.0930   15.4950 C   0  0  0  0  0  0  0  0  0  0  0  0
  1  2  1  0
  2  3  2  3
  1  4  1  0
  2  5  1  0
  4  6  1  0
  5  7  1  0
  6  8  1  0
  6  9  2  0
  3 10  1  0
  7 11  1  0
  9 12  1  0
  8 13  1  0
 12 13  2  0
 10 14  2  0
 10 15  1  0
 13 16  1  0
 12 17  1  0
 15 18  2  0
 14 19  1  0
 16 20  2  0
 17 21  2  0
 20 21  1  0
 18 22  1  0
 18 23  1  0
 19 23  2  0
 23 24  1  0
 22 25  1  0
 25 26  2  0
 27 24  1  6
 27 25  1  0
 27 28  1  0
 27 29  1  0
 29 30  1  0
 28 31  1  0
 30 31  1  0
M  END
