x0290_0_A_α-x0950_0_A_α
     RDKit          3D

 20 20  0  0  0  0  0  0  0  0999 V2000
   -7.6630   13.7350    1.0250 N   0  0  0  0  0  0  0  0  0  0  0  0
   -8.5020   14.9120    0.7840 C   0  0  0  0  0  0  0  0  0  0  0  0
   -6.4230   14.0560    1.7790 C   0  0  0  0  0  0  0  0  0  0  0  0
   -5.2880   14.4900    0.8430 C   0  0  0  0  0  0  0  0  0  0  0  0
   -5.4630   14.5230   -0.3750 O   0  0  0  0  0  0  0  0  0  0  0  0
   -4.1150   14.8080    1.4940 N   0  0  0  0  0  0  0  0  0  0  0  0
   -2.8370   14.6760    0.9520 C   0  0  0  0  0  0  0  0  0  0  0  0
   -1.8500   14.5600    1.8640 N   0  0  0  0  0  0  0  0  0  0  0  0
   -2.5890   14.6620   -0.4110 C   0  0  0  0  0  0  0  0  0  0  0  0
   -0.5870   14.4280    1.4100 C   0  0  0  0  0  0  0  0  0  0  0  0
   -1.2720   14.5240   -0.8600 C   0  0  0  0  0  0  0  0  0  0  0  0
   -0.9080   14.4950   -2.3170 C   0  0  0  0  0  0  0  0  0  0  0  0
   -0.2540   14.4070    0.0800 C   0  0  0  0  0  0  0  0  0  0  0  0
    0.6080   14.3430   -2.4550 C   0  0  0  0  0  0  0  0  0  0  0  0
    1.0360   12.9980   -2.1500 O   0  0  0  0  0  0  0  0  0  0  0  0
    0.8470   12.1060   -3.1490 C   0  0  0  0  0  0  0  0  0  0  0  0
    1.2510   12.7140   -4.4940 C   0  0  1  0  0  0  0  0  0  0  0  0
    0.4100   10.9680   -3.0070 O   0  0  0  0  0  0  0  0  0  0  0  0
    2.7400   13.0060   -4.5280 C   0  0  0  0  0  0  0  0  0  0  0  0
    0.9230   11.8490   -5.5800 O   0  0  0  0  0  0  0  0  0  0  0  0
  1  2  1  0
  1  3  1  0
  3  4  1  0
  4  5  2  0
  4  6  1  0
  6  7  1  0
  7  8  2  0
  7  9  1  0
  8 10  1  0
  9 11  2  0
 11 12  1  0
 10 13  2  0
 11 13  1  0
 12 14  1  0
 14 15  1  0
 15 16  1  0
 16 17  1  0
 16 18  2  0
 17 19  1  1
 17 20  1  0
M  END
