x0290_0_A_α-x0727_0_A_α
     RDKit          3D

 28 29  0  0  0  0  0  0  0  0999 V2000
   -7.7690   13.8500    0.8710 N   0  0  0  0  0  0  0  0  0  0  0  0
   -8.6520   14.9900    0.7280 C   0  0  0  0  0  0  0  0  0  0  0  0
   -6.6110   14.1540    1.7340 C   0  0  0  0  0  0  0  0  0  0  0  0
   -5.3800   14.4770    0.8760 C   0  0  0  0  0  0  0  0  0  0  0  0
   -5.4700   14.5190   -0.3570 O   0  0  0  0  0  0  0  0  0  0  0  0
   -4.1620   14.7140    1.4340 N   0  0  0  0  0  0  0  0  0  0  0  0
   -2.8970   14.6920    0.8690 C   0  0  0  0  0  0  0  0  0  0  0  0
   -1.8430   14.6170    1.7260 N   0  0  0  0  0  0  0  0  0  0  0  0
   -2.7280   14.7380   -0.4880 C   0  0  0  0  0  0  0  0  0  0  0  0
   -0.5980   14.5900    1.1840 C   0  0  0  0  0  0  0  0  0  0  0  0
   -1.4530   14.7090   -1.0340 C   0  0  0  0  0  0  0  0  0  0  0  0
   -1.3570   14.7570   -2.5320 C   0  0  0  0  0  0  0  0  0  0  0  0
   -0.3510   14.6350   -0.1790 C   0  0  0  0  0  0  0  0  0  0  0  0
   -0.0220   15.1250   -3.1440 C   0  0  0  0  0  0  0  0  0  0  0  0
    0.0090   14.7850   -4.6300 C   0  0  0  0  0  0  0  0  0  0  0  0
    1.1420   13.8880   -5.0850 C   0  0  0  0  0  0  0  0  0  0  0  0
    1.0880   12.3850   -4.8030 C   0  0  2  0  0  0  0  0  0  0  0  0
    0.1510   11.6510   -5.6610 N   0  0  0  0  0  0  0  0  0  0  0  0
    0.8400   11.9510   -3.3590 C   0  0  0  0  0  0  0  0  0  0  0  0
    0.2470   10.9380   -3.0240 O   0  0  0  0  0  0  0  0  0  0  0  0
    0.6540   11.1430   -6.8220 C   0  0  0  0  0  0  0  0  0  0  0  0
    1.3510   12.7720   -2.4340 O   0  0  0  0  0  0  0  0  0  0  0  0
    1.6540   11.6190   -7.2840 O   0  0  0  0  0  0  0  0  0  0  0  0
   -0.0220    9.9540   -7.4870 C   0  0  0  0  0  0  0  0  0  0  0  0
   -1.3210   10.3020   -8.2050 C   0  0  0  0  0  0  0  0  0  0  0  0
   -0.3620    8.8260   -6.4990 C   0  0  0  0  0  0  0  0  0  0  0  0
   -2.2170    9.0980   -7.9890 C   0  0  0  0  0  0  0  0  0  0  0  0
   -1.8580    8.6130   -6.5980 C   0  0  0  0  0  0  0  0  0  0  0  0
  1  2  1  0
  1  3  1  0
  3  4  1  0
  4  5  2  0
  4  6  1  0
  6  7  1  0
  7  8  2  0
  7  9  1  0
  8 10  1  0
  9 11  2  0
 11 12  1  0
 10 13  2  0
 11 13  1  0
 12 14  1  0
 14 15  1  0
 15 16  1  0
 17 16  1  1
 17 18  1  0
 17 19  1  0
 19 20  2  0
 18 21  1  0
 19 22  1  0
 21 23  2  0
 21 24  1  0
 24 25  1  0
 24 26  1  0
 25 27  1  0
 26 28  1  0
 27 28  1  0
M  END
