x0290_0_A_α-x0689_0_A_α
     RDKit          3D

 13 13  0  0  0  0  0  0  0  0999 V2000
   -7.7440   13.8130    0.9460 N   0  0  0  0  0  0  0  0  0  0  0  0
   -8.5980   14.9640    0.6810 C   0  0  0  0  0  0  0  0  0  0  0  0
   -6.5480   14.1630    1.7420 C   0  0  0  0  0  0  0  0  0  0  0  0
   -5.3310   14.4590    0.8570 C   0  0  0  0  0  0  0  0  0  0  0  0
   -5.4450   14.4960   -0.3740 O   0  0  0  0  0  0  0  0  0  0  0  0
   -4.1000   14.6720    1.3880 N   0  0  0  0  0  0  0  0  0  0  0  0
   -2.8250   14.6390    0.8290 C   0  0  0  0  0  0  0  0  0  0  0  0
   -1.8100   14.5710    1.7280 N   0  0  0  0  0  0  0  0  0  0  0  0
   -2.5930   14.6650   -0.5300 C   0  0  0  0  0  0  0  0  0  0  0  0
   -0.5480   14.5290    1.2470 C   0  0  0  0  0  0  0  0  0  0  0  0
   -1.2810   14.6220   -1.0100 C   0  0  0  0  0  0  0  0  0  0  0  0
   -1.0200   14.6460   -2.4870 C   0  0  0  0  0  0  0  0  0  0  0  0
   -0.2320   14.5530   -0.0950 C   0  0  0  0  0  0  0  0  0  0  0  0
  1  2  1  0
  1  3  1  0
  3  4  1  0
  4  5  2  0
  4  6  1  0
  6  7  1  0
  7  8  2  0
  7  9  1  0
  8 10  1  0
  9 11  2  0
 11 12  1  0
 10 13  2  0
 11 13  1  0
M  END
