x0299_0_A-x0142_0_A
     RDKit          3D

 28 31  0  0  0  0  0  0  0  0999 V2000
   14.5870    7.4280   12.0750 C   0  0  2  0  0  0  0  0  0  0  0  0
   15.1520    6.9760   13.4470 C   0  0  0  0  0  0  0  0  0  0  0  0
   16.3560    6.7810   13.5940 O   0  0  0  0  0  0  0  0  0  0  0  0
   13.1510    6.8860   11.8990 C   0  0  0  0  0  0  0  0  0  0  0  0
   15.4370    6.8860   10.9560 C   0  0  0  0  0  0  0  0  0  0  0  0
   14.8400    8.8580   12.4880 C   0  0  0  0  0  0  0  0  0  0  0  0
   14.2280    6.8730   14.6650 C   0  0  0  0  0  0  0  0  0  0  0  0
   15.7380    5.5770   10.8880 N   0  0  0  0  0  0  0  0  0  0  0  0
   15.8410    7.6030   10.0340 O   0  0  0  0  0  0  0  0  0  0  0  0
   12.7540    5.7840   10.8740 C   0  0  0  0  0  0  0  0  0  0  0  0
   14.3630    9.2070   13.7530 C   0  0  0  0  0  0  0  0  0  0  0  0
   15.5200    9.8150   11.7400 C   0  0  0  0  0  0  0  0  0  0  0  0
   14.9950    7.0930   15.9740 C   0  0  0  0  0  0  0  0  0  0  0  0
   13.5900    4.8510   10.1250 C   0  0  0  0  0  0  0  0  0  0  0  0
   14.9850    4.7280   10.1330 C   0  0  0  0  0  0  0  0  0  0  0  0
   14.5590   10.4630   14.2740 C   0  0  0  0  0  0  0  0  0  0  0  0
   15.7210   11.0950   12.2680 C   0  0  0  0  0  0  0  0  0  0  0  0
   11.3660    5.6880   10.6610 C   0  0  0  0  0  0  0  0  0  0  0  0
   15.6280    8.4730   16.0870 C   0  0  0  0  0  0  0  0  0  0  0  0
   10.7500    4.8190    9.8390 N   0  0  0  0  0  0  0  0  0  0  0  0
   12.9310    3.9350    9.2630 C   0  0  0  0  0  0  0  0  0  0  0  0
   15.6890    3.7770    9.3680 C   0  0  0  0  0  0  0  0  0  0  0  0
   15.2420   11.4140   13.5410 C   0  0  0  0  0  0  0  0  0  0  0  0
   15.3690   12.6040   14.1880 O   0  0  0  0  0  0  0  0  0  0  0  0
   15.0210    2.9040    8.5450 C   0  0  0  0  0  0  0  0  0  0  0  0
   13.6510    2.9930    8.4940 C   0  0  0  0  0  0  0  0  0  0  0  0
   11.5430    3.9720    9.1650 C   0  0  0  0  0  0  0  0  0  0  0  0
   15.4050   12.5410   15.6100 C   0  0  0  0  0  0  0  0  0  0  0  0
  1  2  1  1
  2  3  2  0
  1  4  1  0
  1  5  1  0
  1  6  1  0
  2  7  1  0
  5  8  1  0
  5  9  2  0
  4 10  1  0
  6 11  2  0
  6 12  1  0
  7 13  1  0
 10 14  1  0
  8 15  1  0
 14 15  2  0
 11 16  1  0
 12 17  2  0
 10 18  2  0
 13 19  1  0
 18 20  1  0
 14 21  1  0
 15 22  1  0
 16 23  2  0
 17 23  1  0
 23 24  1  0
 22 25  2  0
 21 26  2  0
 25 26  1  0
 20 27  2  0
 21 27  1  0
 24 28  1  0
M  END
