x0290_0_A-x0962_0_A
     RDKit          3D

 19 20  0  0  0  0  0  0  0  0999 V2000
   -7.4340   13.5430    1.3810 N   0  0  0  0  0  0  0  0  0  0  0  0
   -8.3600   14.6730    1.4690 C   0  0  0  0  0  0  0  0  0  0  0  0
   -6.2470   13.6780    2.2610 C   0  0  0  0  0  0  0  0  0  0  0  0
   -4.9250   13.5480    1.5030 C   0  0  0  0  0  0  0  0  0  0  0  0
   -4.9650   13.0590    0.3610 O   0  0  0  0  0  0  0  0  0  0  0  0
   -3.6930   13.9320    1.9690 N   0  0  0  0  0  0  0  0  0  0  0  0
   -2.5290   14.2270    1.2860 C   0  0  0  0  0  0  0  0  0  0  0  0
   -1.3540   14.3390    1.9270 N   0  0  0  0  0  0  0  0  0  0  0  0
   -2.5680   14.4020   -0.0060 C   0  0  0  0  0  0  0  0  0  0  0  0
   -0.2440   14.6250    1.1850 C   0  0  0  0  0  0  0  0  0  0  0  0
   -1.4760   14.6940   -0.7550 C   0  0  0  0  0  0  0  0  0  0  0  0
   -2.0840   14.8060   -1.9820 C   0  0  0  0  0  0  0  0  0  0  0  0
   -0.2260   14.8170   -0.1990 C   0  0  0  0  0  0  0  0  0  0  0  0
   -3.1780   14.9550   -2.3480 C   0  0  0  0  0  0  0  0  0  0  0  0
   -4.5190   15.0540   -1.9470 C   0  0  0  0  0  0  0  0  0  0  0  0
   -4.7470   15.1860   -0.6010 N   0  0  0  0  0  0  0  0  0  0  0  0
   -5.7610   15.0530   -2.5130 C   0  0  0  0  0  0  0  0  0  0  0  0
   -6.0700   15.2440   -0.3990 C   0  0  0  0  0  0  0  0  0  0  0  0
   -6.7260   15.1750   -1.5280 N   0  0  0  0  0  0  0  0  0  0  0  0
  1  2  1  0
  1  3  1  0
  3  4  1  0
  4  5  2  0
  4  6  1  0
  6  7  1  0
  7  8  2  0
  7  9  1  0
  8 10  1  0
  9 11  2  0
 11 12  1  0
 10 13  2  0
 11 13  1  0
 12 14  3  0
 14 15  1  0
 15 16  1  0
 15 17  2  0
 16 18  1  0
 17 19  1  0
 18 19  2  0
M  END
