x0290_0_A_α-x0159_0_B_α
     RDKit          3D

 28 29  0  0  0  0  0  0  0  0999 V2000
   -7.7830   13.8070    0.9600 N   0  0  0  0  0  0  0  0  0  0  0  0
   -8.6330   14.9770    0.7640 C   0  0  0  0  0  0  0  0  0  0  0  0
   -6.5440   14.1100    1.7030 C   0  0  0  0  0  0  0  0  0  0  0  0
   -5.3340   14.4190    0.8090 C   0  0  0  0  0  0  0  0  0  0  0  0
   -5.4320   14.4810   -0.4220 O   0  0  0  0  0  0  0  0  0  0  0  0
   -4.0910   14.6290    1.3260 N   0  0  0  0  0  0  0  0  0  0  0  0
   -2.8220   14.6130    0.7630 C   0  0  0  0  0  0  0  0  0  0  0  0
   -1.8160   14.5630    1.6640 N   0  0  0  0  0  0  0  0  0  0  0  0
   -2.5700   14.6380   -0.5950 C   0  0  0  0  0  0  0  0  0  0  0  0
   -0.5420   14.5360    1.2060 C   0  0  0  0  0  0  0  0  0  0  0  0
   -1.2470   14.6100   -1.0620 C   0  0  0  0  0  0  0  0  0  0  0  0
   -0.9830   14.6350   -2.5470 C   0  0  0  0  0  0  0  0  0  0  0  0
   -0.2100   14.5580   -0.1350 C   0  0  0  0  0  0  0  0  0  0  0  0
   -0.0720   13.5180   -3.0700 C   0  0  0  0  0  0  0  0  0  0  0  0
   -0.2310   13.3150   -4.5830 C   0  0  0  0  0  0  0  0  0  0  0  0
    0.3120   11.9700   -5.0550 C   0  0  0  0  0  0  0  0  0  0  0  0
    1.2540   12.1100   -6.2540 C   0  0  0  0  0  0  0  0  0  0  0  0
    1.1610   11.0420   -7.3610 C   0  0  0  0  0  0  0  0  0  0  0  0
    0.0750    9.9640   -7.2400 C   0  0  0  0  0  0  0  0  0  0  0  0
    0.0230    8.9960   -8.4300 C   0  0  0  0  0  0  0  0  0  0  0  0
    1.3600    8.2900   -8.7010 C   0  0  0  0  0  0  0  0  0  0  0  0
    1.1650    6.9660   -9.4370 C   0  0  0  0  0  0  0  0  0  0  0  0
    1.4960    5.7600   -8.6040 C   0  0  0  0  0  0  0  0  0  0  0  0
    0.9180    5.5790   -7.3430 C   0  0  0  0  0  0  0  0  0  0  0  0
    2.3910    4.8040   -9.0940 C   0  0  0  0  0  0  0  0  0  0  0  0
    1.2390    4.4580   -6.5930 C   0  0  0  0  0  0  0  0  0  0  0  0
    2.7090    3.6850   -8.3400 C   0  0  0  0  0  0  0  0  0  0  0  0
    2.1380    3.5150   -7.0980 C   0  0  0  0  0  0  0  0  0  0  0  0
  1  2  1  0
  1  3  1  0
  3  4  1  0
  4  5  2  0
  4  6  1  0
  6  7  1  0
  7  8  2  0
  7  9  1  0
  8 10  1  0
  9 11  2  0
 11 12  1  0
 10 13  2  0
 11 13  1  0
 12 14  1  0
 14 15  1  0
 15 16  1  0
 16 17  1  0
 17 18  1  0
 18 19  1  0
 19 20  1  0
 20 21  1  0
 21 22  1  0
 22 23  1  0
 23 24  2  0
 23 25  1  0
 24 26  1  0
 25 27  2  0
 26 28  2  0
 27 28  1  0
M  END
