x0299_0_A-x0814_0_B
     RDKit          3D

 31 33  0  0  0  0  0  0  0  0999 V2000
   14.4630    7.7280   12.7140 N   0  0  0  0  0  0  0  0  0  0  0  0
   15.1840    8.4590   13.5960 C   0  0  0  0  0  0  0  0  0  0  0  0
   16.2870    8.9260   13.3510 O   0  0  0  0  0  0  0  0  0  0  0  0
   14.2180    8.0760   11.3380 C   0  0  1  0  0  0  0  0  0  0  0  0
   14.4560    8.5940   14.9130 C   0  0  0  0  0  0  0  0  0  0  0  0
   14.8480    9.3540   10.7610 C   0  0  0  0  0  0  0  0  0  0  0  0
   14.5270    6.8300   10.5570 C   0  0  0  0  0  0  0  0  0  0  0  0
   15.0500    7.7150   16.0000 C   0  0  0  0  0  0  0  0  0  0  0  0
   14.2880    5.6140   11.1400 N   0  0  0  0  0  0  0  0  0  0  0  0
   15.0240    6.6920    9.3320 N   0  0  0  0  0  0  0  0  0  0  0  0
   14.6940   10.6890   11.5460 C   0  0  2  0  0  0  0  0  0  0  0  0
   16.0340    8.4800   16.8690 C   0  0  0  0  0  0  0  0  0  0  0  0
   15.1060    5.3130    9.1570 C   0  0  0  0  0  0  0  0  0  0  0  0
   14.6460    4.6320   10.2750 C   0  0  0  0  0  0  0  0  0  0  0  0
   13.2350   10.8410   11.8970 C   0  0  0  0  0  0  0  0  0  0  0  0
   15.1320   12.0070   10.8600 C   0  0  0  0  0  0  0  0  0  0  0  0
   14.6040    3.2430   10.3890 C   0  0  0  0  0  0  0  0  0  0  0  0
   15.5650    4.5510    8.0680 C   0  0  0  0  0  0  0  0  0  0  0  0
   13.1550   11.9050   12.8770 N   0  0  0  0  0  0  0  0  0  0  0  0
   14.7780   13.2570   11.6720 C   0  0  2  0  0  0  0  0  0  0  0  0
   15.8700   14.3390   11.7410 C   0  0  0  0  0  0  0  0  0  0  0  0
   11.6520   12.4480   13.2610 S   0  0  0  0  0  0  0  0  0  0  0  0
   15.0610    2.5130    9.2910 C   0  0  0  0  0  0  0  0  0  0  0  0
   15.5340    3.1530    8.1500 C   0  0  0  0  0  0  0  0  0  0  0  0
   14.3430   12.7800   13.0470 C   0  0  1  0  0  0  0  0  0  0  0  0
   14.1440   13.9310   14.0170 C   0  0  0  0  0  0  0  0  0  0  0  0
   11.6910   13.8810   13.0620 O   0  0  0  0  0  0  0  0  0  0  0  0
   17.1560   13.9140   11.5420 N   0  0  0  0  0  0  0  0  0  0  0  0
   10.6450   11.5880   12.6400 O   0  0  0  0  0  0  0  0  0  0  0  0
   15.6730   15.5310   11.9620 O   0  0  0  0  0  0  0  0  0  0  0  0
   11.6850   12.0800   15.0090 C   0  0  0  0  0  0  0  0  0  0  0  0
  1  2  1  0
  2  3  2  0
  1  4  1  0
  2  5  1  0
  4  6  1  6
  4  7  1  0
  5  8  1  0
  7  9  1  0
  7 10  2  0
 11  6  1  6
  8 12  1  0
 10 13  1  0
  9 14  1  0
 13 14  2  0
 11 15  1  0
 11 16  1  0
 14 17  1  0
 13 18  1  0
 15 19  1  0
 16 20  1  0
 20 21  1  1
 19 22  1  0
 17 23  2  0
 18 24  2  0
 23 24  1  0
 19 25  1  0
 20 25  1  0
 25 26  1  1
 22 27  2  0
 21 28  1  0
 22 29  2  0
 21 30  2  0
 22 31  1  0
M  END
