x0299_0_A_α-x0814_0_B_α
     RDKit          3D

 31 33  0  0  0  0  0  0  0  0999 V2000
   14.4650    7.7270   12.7140 N   0  0  0  0  0  0  0  0  0  0  0  0
   15.1820    8.4590   13.5990 C   0  0  0  0  0  0  0  0  0  0  0  0
   16.2860    8.9270   13.3570 O   0  0  0  0  0  0  0  0  0  0  0  0
   14.2170    8.0740   11.3360 C   0  0  1  0  0  0  0  0  0  0  0  0
   14.4510    8.5990   14.9150 C   0  0  0  0  0  0  0  0  0  0  0  0
   14.8470    9.3550   10.7620 C   0  0  0  0  0  0  0  0  0  0  0  0
   14.5250    6.8310   10.5550 C   0  0  0  0  0  0  0  0  0  0  0  0
   15.0460    7.7170   16.0020 C   0  0  0  0  0  0  0  0  0  0  0  0
   14.2880    5.6140   11.1360 N   0  0  0  0  0  0  0  0  0  0  0  0
   15.0230    6.6910    9.3300 N   0  0  0  0  0  0  0  0  0  0  0  0
   14.6930   10.6860   11.5480 C   0  0  2  0  0  0  0  0  0  0  0  0
   16.0350    8.4800   16.8680 C   0  0  0  0  0  0  0  0  0  0  0  0
   15.1070    5.3130    9.1550 C   0  0  0  0  0  0  0  0  0  0  0  0
   14.6450    4.6330   10.2750 C   0  0  0  0  0  0  0  0  0  0  0  0
   13.2350   10.8400   11.8990 C   0  0  0  0  0  0  0  0  0  0  0  0
   15.1340   12.0030   10.8600 C   0  0  0  0  0  0  0  0  0  0  0  0
   14.6040    3.2420   10.3880 C   0  0  0  0  0  0  0  0  0  0  0  0
   15.5670    4.5500    8.0690 C   0  0  0  0  0  0  0  0  0  0  0  0
   13.1550   11.9020   12.8790 N   0  0  0  0  0  0  0  0  0  0  0  0
   14.7790   13.2540   11.6700 C   0  0  2  0  0  0  0  0  0  0  0  0
   15.8720   14.3370   11.7420 C   0  0  0  0  0  0  0  0  0  0  0  0
   11.6520   12.4460   13.2620 S   0  0  0  0  0  0  0  0  0  0  0  0
   15.0620    2.5110    9.2930 C   0  0  0  0  0  0  0  0  0  0  0  0
   15.5370    3.1510    8.1500 C   0  0  0  0  0  0  0  0  0  0  0  0
   14.3440   12.7800   13.0450 C   0  0  1  0  0  0  0  0  0  0  0  0
   14.1420   13.9290   14.0180 C   0  0  0  0  0  0  0  0  0  0  0  0
   11.6960   13.8790   13.0630 O   0  0  0  0  0  0  0  0  0  0  0  0
   17.1580   13.9100   11.5420 N   0  0  0  0  0  0  0  0  0  0  0  0
   10.6450   11.5870   12.6410 O   0  0  0  0  0  0  0  0  0  0  0  0
   15.6740   15.5260   11.9650 O   0  0  0  0  0  0  0  0  0  0  0  0
   11.6850   12.0780   15.0120 C   0  0  0  0  0  0  0  0  0  0  0  0
  1  2  1  0
  2  3  2  0
  1  4  1  0
  2  5  1  0
  4  6  1  6
  4  7  1  0
  5  8  1  0
  7  9  1  0
  7 10  2  0
 11  6  1  6
  8 12  1  0
 10 13  1  0
  9 14  1  0
 13 14  2  0
 11 15  1  0
 11 16  1  0
 14 17  1  0
 13 18  1  0
 15 19  1  0
 16 20  1  0
 20 21  1  1
 19 22  1  0
 17 23  2  0
 18 24  2  0
 23 24  1  0
 19 25  1  0
 20 25  1  0
 25 26  1  1
 22 27  2  0
 21 28  1  0
 22 29  2  0
 21 30  2  0
 22 31  1  0
M  END
