x0290_0_A-x1018_0_A
     RDKit          3D

 22 24  0  0  0  0  0  0  0  0999 V2000
   -7.2780   12.6060    1.4460 N   0  0  0  0  0  0  0  0  0  0  0  0
   -7.9440   13.8130    0.9580 C   0  0  0  0  0  0  0  0  0  0  0  0
   -6.9700   14.7130    0.1650 C   0  0  2  0  0  0  0  0  0  0  0  0
   -6.0820   12.9340    2.2450 C   0  0  0  0  0  0  0  0  0  0  0  0
   -4.8970   13.2470    1.3280 C   0  0  0  0  0  0  0  0  0  0  0  0
   -4.9650   12.9550    0.1250 O   0  0  0  0  0  0  0  0  0  0  0  0
   -3.7480   13.8540    1.7680 N   0  0  0  0  0  0  0  0  0  0  0  0
   -6.5650   14.1120   -1.1110 N   0  0  0  0  0  0  0  0  0  0  0  0
   -5.7360   15.1400    0.9690 C   0  0  0  0  0  0  0  0  0  0  0  0
   -2.5240   14.1120    1.1350 C   0  0  0  0  0  0  0  0  0  0  0  0
   -5.4420   14.6250   -1.6980 C   0  0  0  0  0  0  0  0  0  0  0  0
   -4.5570   15.4130    0.3990 C   0  0  0  0  0  0  0  0  0  0  0  0
   -1.4410   14.4150    1.8490 N   0  0  0  0  0  0  0  0  0  0  0  0
   -2.4710   14.0410   -0.2590 C   0  0  0  0  0  0  0  0  0  0  0  0
   -5.0870   14.6100   -3.0310 N   0  0  0  0  0  0  0  0  0  0  0  0
   -4.4720   15.2500   -1.0150 C   0  0  0  0  0  0  0  0  0  0  0  0
   -0.2900   14.6550    1.1980 C   0  0  0  0  0  0  0  0  0  0  0  0
   -1.2640   14.2970   -0.9260 C   0  0  0  0  0  0  0  0  0  0  0  0
   -3.4670   15.6490   -1.8620 N   0  0  0  0  0  0  0  0  0  0  0  0
   -3.7030   14.9740   -3.1100 N   0  0  0  0  0  0  0  0  0  0  0  0
   -1.1710   14.2320   -2.4200 C   0  0  0  0  0  0  0  0  0  0  0  0
   -0.1470   14.6110   -0.1670 C   0  0  0  0  0  0  0  0  0  0  0  0
  1  2  1  0
  3  2  1  1
  1  4  1  0
  4  5  1  0
  5  6  2  0
  5  7  1  0
  3  8  1  0
  3  9  1  0
  7 10  1  0
  8 11  1  0
  9 12  2  0
 10 13  2  0
 10 14  1  0
 11 15  1  0
 11 16  2  0
 12 16  1  0
 13 17  1  0
 14 18  2  0
 16 19  1  0
 15 20  1  0
 19 20  1  0
 18 21  1  0
 17 22  2  0
 18 22  1  0
M  END
