x0290_0_A-x0727_0_A
     RDKit          3D

 28 29  0  0  0  0  0  0  0  0999 V2000
   -7.7660   13.8480    0.8620 N   0  0  0  0  0  0  0  0  0  0  0  0
   -8.6480   14.9870    0.7140 C   0  0  0  0  0  0  0  0  0  0  0  0
   -6.6170   14.1510    1.7390 C   0  0  0  0  0  0  0  0  0  0  0  0
   -5.3850   14.4790    0.8850 C   0  0  0  0  0  0  0  0  0  0  0  0
   -5.4750   14.5170   -0.3470 O   0  0  0  0  0  0  0  0  0  0  0  0
   -4.1640   14.7250    1.4370 N   0  0  0  0  0  0  0  0  0  0  0  0
   -2.9010   14.7030    0.8640 C   0  0  0  0  0  0  0  0  0  0  0  0
   -1.8430   14.6280    1.7170 N   0  0  0  0  0  0  0  0  0  0  0  0
   -2.7320   14.7470   -0.4970 C   0  0  0  0  0  0  0  0  0  0  0  0
   -0.6010   14.6020    1.1720 C   0  0  0  0  0  0  0  0  0  0  0  0
   -1.4590   14.7180   -1.0460 C   0  0  0  0  0  0  0  0  0  0  0  0
   -1.3660   14.7610   -2.5470 C   0  0  0  0  0  0  0  0  0  0  0  0
   -0.3540   14.6460   -0.1930 C   0  0  0  0  0  0  0  0  0  0  0  0
   -0.0430   15.1510   -3.1740 C   0  0  0  0  0  0  0  0  0  0  0  0
   -0.0080   14.7820   -4.6570 C   0  0  0  0  0  0  0  0  0  0  0  0
    1.1300   13.8900   -5.1030 C   0  0  0  0  0  0  0  0  0  0  0  0
    1.0870   12.3860   -4.8150 C   0  0  2  0  0  0  0  0  0  0  0  0
    0.1500   11.6500   -5.6660 N   0  0  0  0  0  0  0  0  0  0  0  0
    0.8450   11.9570   -3.3690 C   0  0  0  0  0  0  0  0  0  0  0  0
    0.2450   10.9500   -3.0260 O   0  0  0  0  0  0  0  0  0  0  0  0
    0.6530   11.1350   -6.8250 C   0  0  0  0  0  0  0  0  0  0  0  0
    1.3780   12.7780   -2.4550 O   0  0  0  0  0  0  0  0  0  0  0  0
    1.6540   11.6090   -7.2900 O   0  0  0  0  0  0  0  0  0  0  0  0
   -0.0280    9.9500   -7.4840 C   0  0  0  0  0  0  0  0  0  0  0  0
   -1.3220   10.3080   -8.2040 C   0  0  0  0  0  0  0  0  0  0  0  0
   -0.3770    8.8260   -6.4920 C   0  0  0  0  0  0  0  0  0  0  0  0
   -2.2220    9.1050   -7.9950 C   0  0  0  0  0  0  0  0  0  0  0  0
   -1.8720    8.6170   -6.6010 C   0  0  0  0  0  0  0  0  0  0  0  0
  1  2  1  0
  1  3  1  0
  3  4  1  0
  4  5  2  0
  4  6  1  0
  6  7  1  0
  7  8  2  0
  7  9  1  0
  8 10  1  0
  9 11  2  0
 11 12  1  0
 10 13  2  0
 11 13  1  0
 12 14  1  0
 14 15  1  0
 15 16  1  0
 17 16  1  1
 17 18  1  0
 17 19  1  0
 19 20  2  0
 18 21  1  0
 19 22  1  0
 21 23  2  0
 21 24  1  0
 24 25  1  0
 24 26  1  0
 25 27  1  0
 26 28  1  0
 27 28  1  0
M  END
