x0290_0_A-x0591_0_A
     RDKit          3D

 23 24  0  0  0  0  0  0  0  0999 V2000
   -7.8980   13.8880    1.1740 N   0  0  0  0  0  0  0  0  0  0  0  0
   -8.5750   15.0470    0.5970 C   0  0  0  0  0  0  0  0  0  0  0  0
   -6.6280   14.2420    1.8590 C   0  0  0  0  0  0  0  0  0  0  0  0
   -5.4750   14.4020    0.8180 C   0  0  0  0  0  0  0  0  0  0  0  0
   -5.8060   14.2220   -0.4320 N   0  0  0  0  0  0  0  0  0  0  0  0
   -4.2220   14.7070    1.3680 N   0  0  0  0  0  0  0  0  0  0  0  0
   -2.9030   14.6510    0.8850 C   0  0  0  0  0  0  0  0  0  0  0  0
   -4.9820   14.2670   -1.5390 C   0  0  0  0  0  0  0  0  0  0  0  0
   -1.9260   14.4630    1.8240 N   0  0  0  0  0  0  0  0  0  0  0  0
   -2.5430   14.7710   -0.4510 C   0  0  0  0  0  0  0  0  0  0  0  0
   -3.7500   13.6240   -1.4980 C   0  0  0  0  0  0  0  0  0  0  0  0
   -5.3740   14.9310   -2.7020 C   0  0  0  0  0  0  0  0  0  0  0  0
   -0.6360   14.3890    1.4230 C   0  0  0  0  0  0  0  0  0  0  0  0
   -1.1950   14.6890   -0.8470 C   0  0  0  0  0  0  0  0  0  0  0  0
   -2.9020   13.6410   -2.6030 C   0  0  0  0  0  0  0  0  0  0  0  0
   -4.5250   14.9400   -3.8070 C   0  0  0  0  0  0  0  0  0  0  0  0
   -0.7950   14.8150   -2.2860 C   0  0  0  0  0  0  0  0  0  0  0  0
   -0.2250   14.4950    0.1190 C   0  0  0  0  0  0  0  0  0  0  0  0
   -3.3050   14.3100   -3.7550 C   0  0  0  0  0  0  0  0  0  0  0  0
   -2.2980   14.3880   -5.2080 S   0  0  0  0  0  0  0  0  0  0  0  0
   -1.1070   15.5170   -4.8220 N   0  0  0  0  0  0  0  0  0  0  0  0
   -1.6160   13.1260   -5.3470 O   0  0  0  0  0  0  0  0  0  0  0  0
   -3.1040   14.9640   -6.2600 O   0  0  0  0  0  0  0  0  0  0  0  0
  1  2  1  0
  1  3  1  0
  3  4  1  0
  4  5  2  3
  4  6  1  0
  6  7  1  0
  5  8  1  0
  7  9  2  0
  7 10  1  0
  8 11  2  0
  8 12  1  0
  9 13  1  0
 10 14  2  0
 11 15  1  0
 12 16  2  0
 14 17  1  0
 13 18  2  0
 14 18  1  0
 15 19  2  0
 16 19  1  0
 19 20  1  0
 20 21  1  0
 20 22  2  0
 20 23  2  0
M  END
