x0290_0_A-x0711_0_A
     RDKit          3D

 22 23  0  0  0  0  0  0  0  0999 V2000
   -7.5020   13.8050    0.8950 N   0  0  0  0  0  0  0  0  0  0  0  0
   -8.5100   14.8560    0.7860 C   0  0  0  0  0  0  0  0  0  0  0  0
   -6.4310   14.1350    1.8590 C   0  0  0  0  0  0  0  0  0  0  0  0
   -5.0070   13.7120    1.4220 C   0  0  0  0  0  0  0  0  0  0  0  0
   -3.9400   14.5850    1.9610 N   0  0  0  0  0  0  0  0  0  0  0  0
   -2.6710   14.4620    1.3680 C   0  0  0  0  0  0  0  0  0  0  0  0
   -1.5120   14.5640    2.0170 N   0  0  0  0  0  0  0  0  0  0  0  0
   -2.6540   14.2240    0.0330 C   0  0  0  0  0  0  0  0  0  0  0  0
   -0.3520   14.4420    1.3360 C   0  0  0  0  0  0  0  0  0  0  0  0
   -1.4770   14.0950   -0.6890 C   0  0  0  0  0  0  0  0  0  0  0  0
   -1.7610   13.8530   -2.1230 C   0  0  2  0  0  0  0  0  0  0  0  0
   -0.2650   14.2090   -0.0270 C   0  0  0  0  0  0  0  0  0  0  0  0
   -0.4300   14.1520   -3.3030 S   0  0  0  0  0  0  0  0  0  0  0  0
   -3.1500   14.4490   -2.0800 C   0  0  0  0  0  0  0  0  0  0  0  0
   -0.8780   13.1760   -4.7250 C   0  0  0  0  0  0  0  0  0  0  0  0
   -0.3930   15.5320   -3.7430 O   0  0  0  0  0  0  0  0  0  0  0  0
    0.7710   13.5600   -2.7470 O   0  0  0  0  0  0  0  0  0  0  0  0
   -4.2000   14.4750   -2.9850 C   0  0  0  0  0  0  0  0  0  0  0  0
   -3.3530   15.0610   -0.8240 C   0  0  0  0  0  0  0  0  0  0  0  0
   -5.4100   15.0840   -2.6110 C   0  0  0  0  0  0  0  0  0  0  0  0
   -4.5400   15.6600   -0.4580 C   0  0  0  0  0  0  0  0  0  0  0  0
   -5.5770   15.6660   -1.3590 C   0  0  0  0  0  0  0  0  0  0  0  0
  1  2  1  0
  1  3  1  0
  3  4  1  0
  4  5  1  0
  5  6  1  0
  6  7  2  0
  6  8  1  0
  7  9  1  0
  8 10  2  0
 10 11  1  0
  9 12  2  0
 10 12  1  0
 11 13  1  6
 11 14  1  0
 13 15  1  0
 13 16  2  0
 13 17  2  0
 14 18  2  0
 14 19  1  0
 18 20  1  0
 19 21  2  0
 20 22  2  0
 21 22  1  0
M  END
