x0299_0_A_α-x0918_3_A_α
     RDKit          3D

 17 18  0  0  0  0  0  0  0  0999 V2000
   14.0360    8.3120   12.4250 N   0  0  0  0  0  0  0  0  0  0  0  0
   14.8340    8.4000   13.5250 C   0  0  0  0  0  0  0  0  0  0  0  0
   16.0280    8.6410   13.3660 O   0  0  0  0  0  0  0  0  0  0  0  0
   14.4980    8.4470   11.0700 C   0  0  0  0  0  0  0  0  0  0  0  0
   14.1880    8.1990   14.8790 C   0  0  0  0  0  0  0  0  0  0  0  0
   14.6250    7.1020   10.4600 C   0  0  0  0  0  0  0  0  0  0  0  0
   15.1270    7.5460   15.8910 C   0  0  0  0  0  0  0  0  0  0  0  0
   14.4250    5.9220   11.1590 N   0  0  0  0  0  0  0  0  0  0  0  0
   14.9390    6.8630    9.2150 N   0  0  0  0  0  0  0  0  0  0  0  0
   15.9330    8.5660   16.6800 C   0  0  0  0  0  0  0  0  0  0  0  0
   14.9480    5.4940    9.1070 C   0  0  0  0  0  0  0  0  0  0  0  0
   14.6310    4.8750   10.2990 C   0  0  0  0  0  0  0  0  0  0  0  0
   14.5750    3.4850   10.4380 C   0  0  0  0  0  0  0  0  0  0  0  0
   15.2320    4.7490    7.9770 C   0  0  0  0  0  0  0  0  0  0  0  0
   15.5520    5.4310    6.8020 N   0  0  0  0  0  0  0  0  0  0  0  0
   14.8620    2.7290    9.2890 C   0  0  0  0  0  0  0  0  0  0  0  0
   15.1860    3.3490    8.0740 C   0  0  0  0  0  0  0  0  0  0  0  0
  1  2  1  0
  2  3  2  0
  1  4  1  0
  2  5  1  0
  4  6  1  0
  5  7  1  0
  6  8  1  0
  6  9  2  0
  7 10  1  0
  9 11  1  0
  8 12  1  0
 11 12  2  0
 12 13  1  0
 11 14  1  0
 14 15  1  0
 13 16  2  0
 14 17  2  0
 16 17  1  0
M  END
