x0290_0_A_α-x0253_0_A_α
     RDKit          3D

 29 30  0  0  0  0  0  0  0  0999 V2000
   -7.8370   13.8260    1.0550 N   0  0  0  0  0  0  0  0  0  0  0  0
   -8.6350   14.9860    0.6900 C   0  0  0  0  0  0  0  0  0  0  0  0
   -6.6230   14.1790    1.8140 C   0  0  0  0  0  0  0  0  0  0  0  0
   -5.4360   14.5950    0.9360 C   0  0  0  0  0  0  0  0  0  0  0  0
   -5.5290   14.6990   -0.2920 O   0  0  0  0  0  0  0  0  0  0  0  0
   -4.2170   14.8490    1.4890 N   0  0  0  0  0  0  0  0  0  0  0  0
   -2.9540   14.6810    0.9600 C   0  0  0  0  0  0  0  0  0  0  0  0
   -1.9090   14.7710    1.8170 N   0  0  0  0  0  0  0  0  0  0  0  0
   -2.7650   14.4240   -0.3640 C   0  0  0  0  0  0  0  0  0  0  0  0
   -0.6570   14.6050    1.3330 C   0  0  0  0  0  0  0  0  0  0  0  0
   -1.4840   14.2510   -0.8350 C   0  0  0  0  0  0  0  0  0  0  0  0
   -1.2910   13.9270   -2.2600 C   0  0  0  0  0  0  0  0  0  0  0  0
   -0.3980   14.3490    0.0200 C   0  0  0  0  0  0  0  0  0  0  0  0
   -0.9950   12.4240   -2.2040 C   0  0  0  0  0  0  0  0  0  0  0  0
    0.4330   12.2080   -1.7100 C   0  0  0  0  0  0  0  0  0  0  0  0
    1.1770   12.9410   -2.6400 N   0  0  0  0  0  0  0  0  0  0  0  0
    0.8560   12.5570   -3.7710 C   0  0  0  0  0  0  0  0  0  0  0  0
    0.0120   11.5260   -3.9640 O   0  0  0  0  0  0  0  0  0  0  0  0
    1.3080   13.1670   -5.0370 C   0  0  0  0  0  0  0  0  0  0  0  0
    0.4790   12.5820   -6.0570 N   0  0  0  0  0  0  0  0  0  0  0  0
    1.1900   11.7310   -6.8030 C   0  0  0  0  0  0  0  0  0  0  0  0
    2.3710   11.7520   -6.6580 O   0  0  0  0  0  0  0  0  0  0  0  0
    0.5230   10.7920   -7.7440 C   0  0  0  0  0  0  0  0  0  0  0  0
   -0.4390    9.9080   -7.2420 C   0  0  0  0  0  0  0  0  0  0  0  0
    0.8410   10.7730   -9.1060 C   0  0  0  0  0  0  0  0  0  0  0  0
   -1.0850    9.0080   -8.1000 C   0  0  0  0  0  0  0  0  0  0  0  0
    0.2040    9.8810   -9.9600 C   0  0  0  0  0  0  0  0  0  0  0  0
   -2.1190    8.0610   -7.5630 C   0  0  0  0  0  0  0  0  0  0  0  0
   -0.7560    9.0020   -9.4610 C   0  0  0  0  0  0  0  0  0  0  0  0
  1  2  1  0
  1  3  1  0
  3  4  1  0
  4  5  2  0
  4  6  1  0
  6  7  1  0
  7  8  2  0
  7  9  1  0
  8 10  1  0
  9 11  2  0
 11 12  1  0
 10 13  2  0
 11 13  1  0
 12 14  1  0
 14 15  1  0
 15 16  1  0
 16 17  2  3
 17 18  1  0
 17 19  1  0
 19 20  1  0
 20 21  1  0
 21 22  2  0
 21 23  1  0
 23 24  2  0
 23 25  1  0
 24 26  1  0
 25 27  2  0
 26 28  1  0
 26 29  2  0
 27 29  1  0
M  END
