x0290_0_A-x0722_0_A
     RDKit          3D

 15 16  0  0  0  0  0  0  0  0999 V2000
   -7.5810   13.8910    0.7990 N   0  0  0  0  0  0  0  0  0  0  0  0
   -8.5800   14.9490    0.7910 C   0  0  0  0  0  0  0  0  0  0  0  0
   -6.4300   14.2170    1.6540 C   0  0  0  0  0  0  0  0  0  0  0  0
   -5.2460   14.9100    0.9200 C   0  0  2  0  0  0  0  0  0  0  0  0
   -5.2840   14.6880   -0.5720 C   0  0  0  0  0  0  0  0  0  0  0  0
   -3.9730   14.6000    1.5370 N   0  0  0  0  0  0  0  0  0  0  0  0
   -6.3620   14.4940   -1.1560 O   0  0  0  0  0  0  0  0  0  0  0  0
   -3.9780   14.7590   -1.3300 C   0  0  0  0  0  0  0  0  0  0  0  0
   -2.7760   14.5990    0.8860 C   0  0  0  0  0  0  0  0  0  0  0  0
   -1.7040   14.5220    1.6970 N   0  0  0  0  0  0  0  0  0  0  0  0
   -2.7070   14.6670   -0.4980 C   0  0  0  0  0  0  0  0  0  0  0  0
   -0.4950   14.5100    1.1200 C   0  0  0  0  0  0  0  0  0  0  0  0
   -1.4220   14.6440   -1.0830 C   0  0  0  0  0  0  0  0  0  0  0  0
   -1.2350   14.7000   -2.5720 C   0  0  0  0  0  0  0  0  0  0  0  0
   -0.3020   14.5670   -0.2470 C   0  0  0  0  0  0  0  0  0  0  0  0
  1  2  1  0
  1  3  1  0
  4  3  1  1
  4  5  1  0
  4  6  1  0
  5  7  2  0
  5  8  1  0
  6  9  1  0
  9 10  2  0
  8 11  1  0
  9 11  1  0
 10 12  1  0
 11 13  2  0
 13 14  1  0
 12 15  2  0
 13 15  1  0
M  END
