x0290_0_A_α-x0421_0_A_α
     RDKit          3D

 23 25  0  0  0  0  0  0  0  0999 V2000
   -7.4510   13.0170    1.5500 N   0  0  0  0  0  0  0  0  0  0  0  0
   -8.5210   13.8930    2.0270 C   0  0  0  0  0  0  0  0  0  0  0  0
   -6.2100   13.2080    2.3390 C   0  0  0  0  0  0  0  0  0  0  0  0
   -4.9460   13.1670    1.4890 C   0  0  0  0  0  0  0  0  0  0  0  0
   -4.9990   12.6330    0.3710 O   0  0  0  0  0  0  0  0  0  0  0  0
   -3.7390   13.6870    1.8760 N   0  0  0  0  0  0  0  0  0  0  0  0
   -2.6020   14.0540    1.1650 C   0  0  0  0  0  0  0  0  0  0  0  0
   -1.4710   14.2650    1.8750 N   0  0  0  0  0  0  0  0  0  0  0  0
   -2.6090   14.2000   -0.1760 C   0  0  0  0  0  0  0  0  0  0  0  0
   -0.3490   14.6160    1.2030 C   0  0  0  0  0  0  0  0  0  0  0  0
   -1.4700   14.5730   -0.8580 C   0  0  0  0  0  0  0  0  0  0  0  0
   -1.7160   14.7130   -2.2830 C   0  0  0  0  0  0  0  0  0  0  0  0
   -0.2860   14.7870   -0.1650 C   0  0  0  0  0  0  0  0  0  0  0  0
   -2.9730   15.0440   -2.6430 C   0  0  0  0  0  0  0  0  0  0  0  0
   -3.4170   15.2360   -3.9480 N   0  0  0  0  0  0  0  0  0  0  0  0
   -3.9440   15.2060   -1.5630 C   0  0  0  0  0  0  0  0  0  0  0  0
   -3.7200   15.6060   -0.2520 C   0  0  0  0  0  0  0  0  0  0  0  0
   -5.2850   14.9410   -1.7530 N   0  0  0  0  0  0  0  0  0  0  0  0
   -4.9250   15.5770    0.3460 N   0  0  0  0  0  0  0  0  0  0  0  0
   -5.8330   15.1760   -0.5720 C   0  0  0  0  0  0  0  0  0  0  0  0
   -7.3250   15.0220   -0.2220 C   0  0  0  0  0  0  0  0  0  0  0  0
   -8.3270   15.7440   -1.0670 C   0  0  0  0  0  0  0  0  0  0  0  0
   -8.2460   14.2450   -1.1100 C   0  0  0  0  0  0  0  0  0  0  0  0
  1  2  1  0
  1  3  1  0
  3  4  1  0
  4  5  2  0
  4  6  1  0
  6  7  1  0
  7  8  2  0
  7  9  1  0
  8 10  1  0
  9 11  2  0
 11 12  1  0
 10 13  2  0
 11 13  1  0
 12 14  2  3
 14 15  1  0
 14 16  1  0
 16 17  2  0
 16 18  1  0
 17 19  1  0
 18 20  2  0
 19 20  1  0
 20 21  1  0
 21 22  1  0
 21 23  1  0
 22 23  1  0
M  END
