x0290_0_A-x0852_0_B
     RDKit          3D

 24 25  0  0  0  0  0  0  0  0999 V2000
   -7.8020   13.8810    0.7500 N   0  0  0  0  0  0  0  0  0  0  0  0
   -8.5220   14.9560    0.0200 C   0  0  0  0  0  0  0  0  0  0  0  0
   -9.9520   15.3820    0.4710 C   0  0  0  0  0  0  0  0  0  0  0  0
   -6.6210   14.2690    1.5740 C   0  0  0  0  0  0  0  0  0  0  0  0
   -5.3510   14.4400    0.7330 C   0  0  0  0  0  0  0  0  0  0  0  0
   -5.3940   14.3810   -0.5020 O   0  0  0  0  0  0  0  0  0  0  0  0
   -4.1350   14.6550    1.3160 N   0  0  0  0  0  0  0  0  0  0  0  0
   -9.9310   16.4240    1.4720 O   0  0  0  0  0  0  0  0  0  0  0  0
   -2.8440   14.6290    0.7950 C   0  0  0  0  0  0  0  0  0  0  0  0
   -9.3540   16.0520    2.6490 C   0  0  0  0  0  0  0  0  0  0  0  0
   -1.8420   14.5720    1.7120 N   0  0  0  0  0  0  0  0  0  0  0  0
   -2.5840   14.6560   -0.5620 C   0  0  0  0  0  0  0  0  0  0  0  0
   -8.5490   14.9440    2.7800 C   0  0  0  0  0  0  0  0  0  0  0  0
   -9.5920   16.8390    3.7840 C   0  0  0  0  0  0  0  0  0  0  0  0
   -0.5700   14.5370    1.2540 C   0  0  0  0  0  0  0  0  0  0  0  0
   -1.2630   14.6210   -1.0170 C   0  0  0  0  0  0  0  0  0  0  0  0
   -7.9740   14.6150    3.9950 C   0  0  0  0  0  0  0  0  0  0  0  0
   -9.0340   16.5090    5.0210 C   0  0  0  0  0  0  0  0  0  0  0  0
   -0.9830   14.6460   -2.4910 C   0  0  0  0  0  0  0  0  0  0  0  0
   -9.3360   17.3230    6.1540 C   0  0  0  0  0  0  0  0  0  0  0  0
   -0.2320   14.5600   -0.0850 C   0  0  0  0  0  0  0  0  0  0  0  0
   -8.2070   15.3900    5.1160 C   0  0  0  0  0  0  0  0  0  0  0  0
   -9.6380   17.9290    7.0970 N   0  0  0  0  0  0  0  0  0  0  0  0
   -7.5800   14.9650    6.2540 O   0  0  0  0  0  0  0  0  0  0  0  0
  1  2  1  0
  2  3  1  0
  1  4  1  0
  4  5  1  0
  5  6  2  0
  5  7  1  0
  3  8  1  0
  7  9  1  0
  8 10  1  0
  9 11  2  0
  9 12  1  0
 10 13  2  0
 10 14  1  0
 11 15  1  0
 12 16  2  0
 13 17  1  0
 14 18  2  0
 16 19  1  0
 18 20  1  0
 15 21  2  0
 16 21  1  0
 17 22  2  0
 18 22  1  0
 20 23  3  0
 22 24  1  0
M  END
