x0290_0_A-x0628_0_A
     RDKit          3D

 26 27  0  0  0  0  0  0  0  0999 V2000
   -7.7570   13.8070    0.8870 N   0  0  0  0  0  0  0  0  0  0  0  0
   -8.5890   14.9850    0.7070 C   0  0  0  0  0  0  0  0  0  0  0  0
   -6.5030   14.0630    1.6170 C   0  0  0  0  0  0  0  0  0  0  0  0
   -5.3490   14.4820    0.6830 C   0  0  0  0  0  0  0  0  0  0  0  0
   -5.5250   14.6090   -0.5230 O   0  0  0  0  0  0  0  0  0  0  0  0
   -4.1570   14.6730    1.3440 N   0  0  0  0  0  0  0  0  0  0  0  0
   -2.8780   14.6060    0.7800 C   0  0  0  0  0  0  0  0  0  0  0  0
   -1.8630   14.5690    1.6850 N   0  0  0  0  0  0  0  0  0  0  0  0
   -2.6590   14.5740   -0.5960 C   0  0  0  0  0  0  0  0  0  0  0  0
   -0.6070   14.5030    1.1910 C   0  0  0  0  0  0  0  0  0  0  0  0
   -1.3460   14.5010   -1.0910 C   0  0  0  0  0  0  0  0  0  0  0  0
   -1.0420   14.4610   -2.5860 C   0  0  0  0  0  0  0  0  0  0  0  0
   -0.3030   14.4680   -0.1600 C   0  0  0  0  0  0  0  0  0  0  0  0
   -2.0900   13.8150   -3.5230 C   0  0  0  0  0  0  0  0  0  0  0  0
   -2.0770   12.2740   -3.5360 C   0  0  0  0  0  0  0  0  0  0  0  0
   -1.4290   11.6350   -4.7470 C   0  0  0  0  0  0  0  0  0  0  0  0
   -1.8350   10.5110   -5.3270 N   0  0  0  0  0  0  0  0  0  0  0  0
   -0.3300   12.0930   -5.4330 N   0  0  0  0  0  0  0  0  0  0  0  0
    0.4800   13.2710   -5.2080 C   0  0  0  0  0  0  0  0  0  0  0  0
   -0.9430   10.3310   -6.3550 C   0  0  0  0  0  0  0  0  0  0  0  0
   -0.0090   11.2760   -6.4580 N   0  0  0  0  0  0  0  0  0  0  0  0
   -1.0090    9.1740   -7.2730 C   0  0  0  0  0  0  0  0  0  0  0  0
    1.6970   12.9710   -4.3540 C   0  0  0  0  0  0  0  0  0  0  0  0
    1.2760   12.2550   -3.1080 C   0  0  0  0  0  0  0  0  0  0  0  0
    0.5890   11.2510   -3.0180 O   0  0  0  0  0  0  0  0  0  0  0  0
    1.7580   12.8590   -2.0150 O   0  0  0  0  0  0  0  0  0  0  0  0
  1  2  1  0
  1  3  1  0
  3  4  1  0
  4  5  2  0
  4  6  1  0
  6  7  1  0
  7  8  2  0
  7  9  1  0
  8 10  1  0
  9 11  2  0
 11 12  1  0
 10 13  2  0
 11 13  1  0
 12 14  1  0
 14 15  1  0
 15 16  1  0
 16 17  2  0
 16 18  1  0
 18 19  1  0
 17 20  1  0
 18 21  1  0
 20 21  2  0
 20 22  1  0
 19 23  1  0
 23 24  1  0
 24 25  2  0
 24 26  1  0
M  END
