x0290_0_A_α-x0628_0_A_α
     RDKit          3D

 26 27  0  0  0  0  0  0  0  0999 V2000
   -7.7570   13.8110    0.8800 N   0  0  0  0  0  0  0  0  0  0  0  0
   -8.5990   14.9850    0.7100 C   0  0  0  0  0  0  0  0  0  0  0  0
   -6.5040   14.0560    1.6140 C   0  0  0  0  0  0  0  0  0  0  0  0
   -5.3510   14.4770    0.6850 C   0  0  0  0  0  0  0  0  0  0  0  0
   -5.5240   14.5930   -0.5240 O   0  0  0  0  0  0  0  0  0  0  0  0
   -4.1590   14.6820    1.3440 N   0  0  0  0  0  0  0  0  0  0  0  0
   -2.8820   14.6130    0.7820 C   0  0  0  0  0  0  0  0  0  0  0  0
   -1.8690   14.5760    1.6860 N   0  0  0  0  0  0  0  0  0  0  0  0
   -2.6610   14.5790   -0.5970 C   0  0  0  0  0  0  0  0  0  0  0  0
   -0.6110   14.5110    1.1950 C   0  0  0  0  0  0  0  0  0  0  0  0
   -1.3460   14.5050   -1.0910 C   0  0  0  0  0  0  0  0  0  0  0  0
   -1.0380   14.4620   -2.5840 C   0  0  0  0  0  0  0  0  0  0  0  0
   -0.3050   14.4740   -0.1550 C   0  0  0  0  0  0  0  0  0  0  0  0
   -2.0850   13.8200   -3.5260 C   0  0  0  0  0  0  0  0  0  0  0  0
   -2.0720   12.2770   -3.5420 C   0  0  0  0  0  0  0  0  0  0  0  0
   -1.4290   11.6390   -4.7520 C   0  0  0  0  0  0  0  0  0  0  0  0
   -1.8370   10.5190   -5.3370 N   0  0  0  0  0  0  0  0  0  0  0  0
   -0.3240   12.0920   -5.4400 N   0  0  0  0  0  0  0  0  0  0  0  0
    0.4940   13.2660   -5.2110 C   0  0  0  0  0  0  0  0  0  0  0  0
   -0.9470   10.3330   -6.3650 C   0  0  0  0  0  0  0  0  0  0  0  0
   -0.0060   11.2770   -6.4640 N   0  0  0  0  0  0  0  0  0  0  0  0
   -1.0170    9.1810   -7.2870 C   0  0  0  0  0  0  0  0  0  0  0  0
    1.6780   12.9760   -4.3100 C   0  0  0  0  0  0  0  0  0  0  0  0
    1.2170   12.2260   -3.0990 C   0  0  0  0  0  0  0  0  0  0  0  0
    0.5320   11.2210   -3.0570 O   0  0  0  0  0  0  0  0  0  0  0  0
    1.6450   12.8060   -1.9690 O   0  0  0  0  0  0  0  0  0  0  0  0
  1  2  1  0
  1  3  1  0
  3  4  1  0
  4  5  2  0
  4  6  1  0
  6  7  1  0
  7  8  2  0
  7  9  1  0
  8 10  1  0
  9 11  2  0
 11 12  1  0
 10 13  2  0
 11 13  1  0
 12 14  1  0
 14 15  1  0
 15 16  1  0
 16 17  2  0
 16 18  1  0
 18 19  1  0
 17 20  1  0
 18 21  1  0
 20 21  2  0
 20 22  1  0
 19 23  1  0
 23 24  1  0
 24 25  2  0
 24 26  1  0
M  END
