x0290_0_A-x0685_1_A
     RDKit          3D

 27 28  0  0  0  0  0  0  0  0999 V2000
   -7.8570   13.8200    0.9430 N   0  0  0  0  0  0  0  0  0  0  0  0
   -8.6620   15.0100    0.6990 C   0  0  0  0  0  0  0  0  0  0  0  0
   -6.6650   14.1040    1.7660 C   0  0  0  0  0  0  0  0  0  0  0  0
   -5.4340   14.4680    0.9430 C   0  0  0  0  0  0  0  0  0  0  0  0
   -5.5400   14.5780   -0.2880 O   0  0  0  0  0  0  0  0  0  0  0  0
   -4.2080   14.6640    1.4830 N   0  0  0  0  0  0  0  0  0  0  0  0
   -2.9440   14.6250    0.9210 C   0  0  0  0  0  0  0  0  0  0  0  0
   -1.9100   14.5670    1.8040 N   0  0  0  0  0  0  0  0  0  0  0  0
   -2.7410   14.6380   -0.4410 C   0  0  0  0  0  0  0  0  0  0  0  0
   -0.6560   14.5210    1.3030 C   0  0  0  0  0  0  0  0  0  0  0  0
   -1.4450   14.5900   -0.9370 C   0  0  0  0  0  0  0  0  0  0  0  0
   -1.1820   14.5980   -2.4140 C   0  0  0  0  0  0  0  0  0  0  0  0
   -0.3740   14.5290   -0.0410 C   0  0  0  0  0  0  0  0  0  0  0  0
    0.3120   14.5500   -2.5860 C   0  0  0  0  0  0  0  0  0  0  0  0
    0.6970   13.3430   -1.9500 O   0  0  0  0  0  0  0  0  0  0  0  0
    0.9560   12.1140   -2.9220 S   0  0  0  0  0  0  0  0  0  0  0  0
    0.0880   12.4640   -4.4470 C   0  0  0  0  0  0  0  0  0  0  0  0
    2.5070   12.1370   -3.3100 O   0  0  0  0  0  0  0  0  0  0  0  0
    0.4260   10.6860   -2.3630 O   0  0  0  0  0  0  0  0  0  0  0  0
   -1.3490   11.9450   -4.4380 C   0  0  0  0  0  0  0  0  0  0  0  0
   -1.4300   10.5420   -4.9020 N   0  0  0  0  0  0  0  0  0  0  0  0
   -0.7680   10.3500   -6.2060 C   0  0  0  0  0  0  0  0  0  0  0  0
   -0.5720    8.8490   -6.4600 C   0  0  0  0  0  0  0  0  0  0  0  0
   -1.5730   10.9850   -7.3610 C   0  0  0  0  0  0  0  0  0  0  0  0
    0.0510    8.5740   -7.8230 C   0  0  0  0  0  0  0  0  0  0  0  0
   -1.0160   10.6830   -8.7540 C   0  0  0  0  0  0  0  0  0  0  0  0
   -0.7530    9.1930   -8.9710 C   0  0  0  0  0  0  0  0  0  0  0  0
  1  2  1  0
  1  3  1  0
  3  4  1  0
  4  5  2  0
  4  6  1  0
  6  7  1  0
  7  8  2  0
  7  9  1  0
  8 10  1  0
  9 11  2  0
 11 12  1  0
 10 13  2  0
 11 13  1  0
 12 14  1  0
 14 15  1  0
 16 15  1  0
 16 17  1  0
 16 18  1  0
 16 19  1  0
 17 20  1  0
 20 21  1  0
 21 22  1  0
 22 23  1  0
 22 24  1  0
 23 25  1  0
 24 26  1  0
 25 27  1  0
 26 27  1  0
M  END
