x0290_0_A-x0722_0_A
     RDKit          3D

 15 16  0  0  0  0  0  0  0  0999 V2000
   -7.5780   13.8800    0.7730 N   0  0  0  0  0  0  0  0  0  0  0  0
   -8.5780   14.9340    0.7680 C   0  0  0  0  0  0  0  0  0  0  0  0
   -6.4280   14.2010    1.6310 C   0  0  0  0  0  0  0  0  0  0  0  0
   -5.2560   14.9050    0.9020 C   0  0  2  0  0  0  0  0  0  0  0  0
   -5.2870   14.6720   -0.5920 C   0  0  0  0  0  0  0  0  0  0  0  0
   -3.9850   14.6120    1.5230 N   0  0  0  0  0  0  0  0  0  0  0  0
   -6.3610   14.4610   -1.1740 O   0  0  0  0  0  0  0  0  0  0  0  0
   -3.9790   14.7500   -1.3450 C   0  0  0  0  0  0  0  0  0  0  0  0
   -2.7840   14.6100    0.8760 C   0  0  0  0  0  0  0  0  0  0  0  0
   -1.7180   14.5440    1.6900 N   0  0  0  0  0  0  0  0  0  0  0  0
   -2.7130   14.6690   -0.5120 C   0  0  0  0  0  0  0  0  0  0  0  0
   -0.5060   14.5340    1.1140 C   0  0  0  0  0  0  0  0  0  0  0  0
   -1.4250   14.6490   -1.0940 C   0  0  0  0  0  0  0  0  0  0  0  0
   -1.2350   14.6960   -2.5810 C   0  0  0  0  0  0  0  0  0  0  0  0
   -0.3080   14.5820   -0.2520 C   0  0  0  0  0  0  0  0  0  0  0  0
  1  2  1  0
  1  3  1  0
  4  3  1  1
  4  5  1  0
  4  6  1  0
  5  7  2  0
  5  8  1  0
  6  9  1  0
  9 10  2  0
  8 11  1  0
  9 11  1  0
 10 12  1  0
 11 13  2  0
 13 14  1  0
 12 15  2  0
 13 15  1  0
M  END
