x0290_0_A-x0371_0_A
     RDKit          3D

 30 33  0  0  0  0  0  0  0  0999 V2000
   -7.5310   14.1390    1.6630 C   0  0  2  0  0  0  0  0  0  0  0  0
   -8.8870   13.8930    0.9810 C   0  0  0  0  0  0  0  0  0  0  0  0
   -6.6180   12.8830    1.7560 C   0  0  0  0  0  0  0  0  0  0  0  0
   -7.5510   14.7890    2.9760 N   0  0  0  0  0  0  0  0  0  0  0  0
   -6.5630   14.6570    0.7250 C   0  0  0  0  0  0  0  0  0  0  0  0
   -5.3270   13.1100    0.8710 C   0  0  0  0  0  0  0  0  0  0  0  0
   -8.5700   15.5260    3.5610 C   0  0  0  0  0  0  0  0  0  0  0  0
   -5.3760   15.0310    1.2340 N   0  0  0  0  0  0  0  0  0  0  0  0
   -6.6430   14.7660   -0.5780 N   0  0  0  0  0  0  0  0  0  0  0  0
   -5.4470   12.9040   -0.3360 O   0  0  0  0  0  0  0  0  0  0  0  0
   -4.1310   13.5450    1.4670 N   0  0  0  0  0  0  0  0  0  0  0  0
   -9.4130   16.1240    2.8880 O   0  0  0  0  0  0  0  0  0  0  0  0
   -8.5510   15.5380    5.0100 C   0  0  0  0  0  0  0  0  0  0  0  0
   -5.3900   15.1950   -0.9170 C   0  0  0  0  0  0  0  0  0  0  0  0
   -4.5920   15.3780    0.2070 C   0  0  0  0  0  0  0  0  0  0  0  0
   -2.8690   13.9090    0.8960 C   0  0  0  0  0  0  0  0  0  0  0  0
   -8.0020   14.4530    5.6420 O   0  0  0  0  0  0  0  0  0  0  0  0
   -8.9810   16.4390    5.9680 C   0  0  0  0  0  0  0  0  0  0  0  0
   -3.2830   15.8060    0.1800 C   0  0  0  0  0  0  0  0  0  0  0  0
   -4.8500   15.4390   -2.1660 C   0  0  0  0  0  0  0  0  0  0  0  0
   -1.8540   14.1990    1.7780 N   0  0  0  0  0  0  0  0  0  0  0  0
   -2.6470   13.9690   -0.4800 C   0  0  0  0  0  0  0  0  0  0  0  0
   -8.6740   15.8720    7.2330 C   0  0  0  0  0  0  0  0  0  0  0  0
   -8.0770   14.6620    6.9760 C   0  0  0  0  0  0  0  0  0  0  0  0
   -2.7560   16.0330   -1.0820 C   0  0  0  0  0  0  0  0  0  0  0  0
   -3.5190   15.8520   -2.2350 C   0  0  0  0  0  0  0  0  0  0  0  0
   -0.6420   14.5260    1.2700 C   0  0  0  0  0  0  0  0  0  0  0  0
   -1.3800   14.3240   -0.9760 C   0  0  0  0  0  0  0  0  0  0  0  0
   -1.1290   14.3990   -2.4550 C   0  0  0  0  0  0  0  0  0  0  0  0
   -0.3580   14.6040   -0.0740 C   0  0  0  0  0  0  0  0  0  0  0  0
  1  2  1  6
  1  3  1  0
  1  4  1  0
  1  5  1  0
  3  6  1  0
  4  7  1  0
  5  8  1  0
  5  9  2  0
  6 10  2  0
  6 11  1  0
  7 12  2  0
  7 13  1  0
  9 14  1  0
  8 15  1  0
 14 15  2  0
 11 16  1  0
 13 17  1  0
 13 18  2  0
 15 19  1  0
 14 20  1  0
 16 21  2  0
 16 22  1  0
 18 23  1  0
 17 24  1  0
 23 24  2  0
 19 25  2  0
 20 26  2  0
 25 26  1  0
 21 27  1  0
 22 28  2  0
 28 29  1  0
 27 30  2  0
 28 30  1  0
M  END
