x0290_0_A-x0421_0_A
     RDKit          3D

 23 25  0  0  0  0  0  0  0  0999 V2000
   -7.4470   12.9980    1.5620 N   0  0  0  0  0  0  0  0  0  0  0  0
   -8.5180   13.8770    2.0350 C   0  0  0  0  0  0  0  0  0  0  0  0
   -6.2080   13.2150    2.3410 C   0  0  0  0  0  0  0  0  0  0  0  0
   -4.9430   13.1570    1.4920 C   0  0  0  0  0  0  0  0  0  0  0  0
   -4.9950   12.6090    0.3820 O   0  0  0  0  0  0  0  0  0  0  0  0
   -3.7370   13.6830    1.8770 N   0  0  0  0  0  0  0  0  0  0  0  0
   -2.6010   14.0520    1.1690 C   0  0  0  0  0  0  0  0  0  0  0  0
   -1.4750   14.2630    1.8820 N   0  0  0  0  0  0  0  0  0  0  0  0
   -2.6090   14.1990   -0.1710 C   0  0  0  0  0  0  0  0  0  0  0  0
   -0.3510   14.6180    1.2150 C   0  0  0  0  0  0  0  0  0  0  0  0
   -1.4660   14.5760   -0.8520 C   0  0  0  0  0  0  0  0  0  0  0  0
   -1.7160   14.7140   -2.2760 C   0  0  0  0  0  0  0  0  0  0  0  0
   -0.2850   14.7920   -0.1540 C   0  0  0  0  0  0  0  0  0  0  0  0
   -2.9770   15.0400   -2.6440 C   0  0  0  0  0  0  0  0  0  0  0  0
   -3.4150   15.2250   -3.9520 N   0  0  0  0  0  0  0  0  0  0  0  0
   -3.9500   15.2050   -1.5660 C   0  0  0  0  0  0  0  0  0  0  0  0
   -3.7240   15.5970   -0.2590 C   0  0  0  0  0  0  0  0  0  0  0  0
   -5.2960   14.9490   -1.7570 N   0  0  0  0  0  0  0  0  0  0  0  0
   -4.9260   15.5760    0.3450 N   0  0  0  0  0  0  0  0  0  0  0  0
   -5.8390   15.1840   -0.5720 C   0  0  0  0  0  0  0  0  0  0  0  0
   -7.3270   15.0400   -0.2170 C   0  0  0  0  0  0  0  0  0  0  0  0
   -8.3370   15.7510   -1.0640 C   0  0  0  0  0  0  0  0  0  0  0  0
   -8.2440   14.2510   -1.0980 C   0  0  0  0  0  0  0  0  0  0  0  0
  1  2  1  0
  1  3  1  0
  3  4  1  0
  4  5  2  0
  4  6  1  0
  6  7  1  0
  7  8  2  0
  7  9  1  0
  8 10  1  0
  9 11  2  0
 11 12  1  0
 10 13  2  0
 11 13  1  0
 12 14  2  3
 14 15  1  0
 14 16  1  0
 16 17  2  0
 16 18  1  0
 17 19  1  0
 18 20  2  0
 19 20  1  0
 20 21  1  0
 21 22  1  0
 21 23  1  0
 22 23  1  0
M  END
