x0299_0_A_α-x0158_0_B_α
     RDKit          3D

 33 35  0  0  0  0  0  0  0  0999 V2000
   14.0530    8.2720   12.3380 N   0  0  0  0  0  0  0  0  0  0  0  0
   14.8710    8.2180   13.4420 C   0  0  0  0  0  0  0  0  0  0  0  0
   16.0030    8.6910   13.4740 O   0  0  0  0  0  0  0  0  0  0  0  0
   14.5760    8.3550   10.9950 C   0  0  0  0  0  0  0  0  0  0  0  0
   14.2240    7.4930   14.6280 C   0  0  1  0  0  0  0  0  0  0  0  0
   14.7640    6.9840   10.4440 C   0  0  0  0  0  0  0  0  0  0  0  0
   15.0860    7.5580   15.9120 C   0  0  0  0  0  0  0  0  0  0  0  0
   12.7530    7.9050   14.8390 C   0  0  0  0  0  0  0  0  0  0  0  0
   14.3950    5.8460   11.1310 N   0  0  0  0  0  0  0  0  0  0  0  0
   15.2920    6.6730    9.2810 N   0  0  0  0  0  0  0  0  0  0  0  0
   15.7660    8.8780   16.2480 C   0  0  0  0  0  0  0  0  0  0  0  0
   12.4460    9.1770   15.6420 C   0  0  0  0  0  0  0  0  0  0  0  0
   15.2740    5.2890    9.2270 C   0  0  0  0  0  0  0  0  0  0  0  0
   14.7110    4.7540   10.3700 C   0  0  0  0  0  0  0  0  0  0  0  0
   11.1780    9.9020   15.1970 C   0  0  0  0  0  0  0  0  0  0  0  0
   14.5590    3.3830   10.5840 C   0  0  0  0  0  0  0  0  0  0  0  0
   15.7260    4.4130    8.2230 C   0  0  0  0  0  0  0  0  0  0  0  0
   11.4620   11.3390   14.9550 N   0  0  0  0  0  0  0  0  0  0  0  0
   15.0090    2.5310    9.5690 C   0  0  0  0  0  0  0  0  0  0  0  0
   15.5850    3.0350    8.4060 C   0  0  0  0  0  0  0  0  0  0  0  0
   11.7490   11.7340   13.4780 S   0  0  0  0  0  0  0  0  0  0  0  0
   10.7870   11.4570   12.4310 O   0  0  0  0  0  0  0  0  0  0  0  0
   13.2560   10.8740   13.0350 C   0  0  0  0  0  0  0  0  0  0  0  0
   12.0780   13.5060   13.4450 C   0  0  0  0  0  0  0  0  0  0  0  0
   14.3010   11.7750   12.3980 C   0  0  0  0  0  0  0  0  0  0  0  0
   13.4120   13.9310   12.8970 C   0  0  0  0  0  0  0  0  0  0  0  0
   14.5190   13.0230   13.1470 N   0  0  0  0  0  0  0  0  0  0  0  0
   15.8030   13.6880   12.7660 C   0  0  0  0  0  0  0  0  0  0  0  0
   15.8730   15.1880   13.0710 C   0  0  0  0  0  0  0  0  0  0  0  0
   15.9690   15.9410   11.9370 O   0  0  0  0  0  0  0  0  0  0  0  0
   15.8510   15.6360   14.2080 O   0  0  0  0  0  0  0  0  0  0  0  0
   16.0860   17.3650   12.1090 C   0  0  0  0  0  0  0  0  0  0  0  0
   17.1530   17.9380   11.1940 C   0  0  0  0  0  0  0  0  0  0  0  0
  1  2  1  0
  2  3  2  0
  1  4  1  0
  2  5  1  0
  4  6  1  0
  5  7  1  1
  5  8  1  0
  6  9  1  0
  6 10  2  0
  7 11  1  0
  8 12  1  0
 10 13  1  0
  9 14  1  0
 13 14  2  0
 12 15  1  0
 14 16  1  0
 13 17  1  0
 15 18  1  0
 16 19  2  0
 17 20  2  0
 19 20  1  0
 18 21  2  0
 21 22  2  0
 21 23  1  0
 21 24  1  0
 23 25  1  0
 24 26  1  0
 25 27  1  0
 26 27  1  0
 27 28  1  0
 28 29  1  0
 29 30  1  0
 29 31  2  0
 30 32  1  0
 32 33  1  0
M  END
