x0290_0_A_α-x0900_1_A_α
     RDKit          3D

 23 24  0  0  0  0  0  0  0  0999 V2000
   -7.7730   13.8310    0.8640 N   0  0  0  0  0  0  0  0  0  0  0  0
   -8.6280   14.9990    0.7020 C   0  0  0  0  0  0  0  0  0  0  0  0
   -6.5730   14.1080    1.6790 C   0  0  0  0  0  0  0  0  0  0  0  0
   -5.3560   14.4590    0.8240 C   0  0  0  0  0  0  0  0  0  0  0  0
   -5.4850   14.5510   -0.4050 O   0  0  0  0  0  0  0  0  0  0  0  0
   -4.1130   14.6650    1.3400 N   0  0  0  0  0  0  0  0  0  0  0  0
   -2.8420   14.5930    0.7780 C   0  0  0  0  0  0  0  0  0  0  0  0
   -1.8210   14.5620    1.6740 N   0  0  0  0  0  0  0  0  0  0  0  0
   -2.6090   14.5490   -0.5880 C   0  0  0  0  0  0  0  0  0  0  0  0
   -0.5610   14.4930    1.1820 C   0  0  0  0  0  0  0  0  0  0  0  0
   -1.3020   14.4730   -1.0870 C   0  0  0  0  0  0  0  0  0  0  0  0
   -1.0870   14.4250   -2.5940 C   0  0  0  0  0  0  0  0  0  0  0  0
   -0.2500   14.4460   -0.1710 C   0  0  0  0  0  0  0  0  0  0  0  0
   -0.4240   13.1140   -3.0830 C   0  0  0  0  0  0  0  0  0  0  0  0
   -1.3170   12.2170   -3.9760 C   0  0  0  0  0  0  0  0  0  0  0  0
   -1.1020   12.2780   -5.5150 C   0  0  0  0  0  0  0  0  0  0  0  0
   -0.4770   11.0050   -6.1360 C   0  0  0  0  0  0  0  0  0  0  0  0
   -1.3770   10.0700   -6.9920 C   0  0  1  0  0  0  0  0  0  0  0  0
   -0.7540    9.7160   -8.3280 C   0  0  0  0  0  0  0  0  0  0  0  0
   -1.5460    8.6570   -6.4220 C   0  0  0  0  0  0  0  0  0  0  0  0
   -0.9560   10.2310   -9.4180 O   0  0  0  0  0  0  0  0  0  0  0  0
    0.0960    8.6670   -8.0840 N   0  0  0  0  0  0  0  0  0  0  0  0
   -0.3170    7.9220   -6.9270 C   0  0  0  0  0  0  0  0  0  0  0  0
  1  2  1  0
  1  3  1  0
  3  4  1  0
  4  5  2  0
  4  6  1  0
  6  7  1  0
  7  8  2  0
  7  9  1  0
  8 10  1  0
  9 11  2  0
 11 12  1  0
 10 13  2  0
 11 13  1  0
 12 14  1  0
 14 15  1  0
 15 16  1  0
 16 17  1  0
 18 17  1  1
 18 19  1  0
 18 20  1  0
 19 21  2  0
 19 22  1  0
 20 23  1  0
 22 23  1  0
M  END
