x0290_0_A_α-x0900_0_A_α
     RDKit          3D

 18 20  0  0  0  0  0  0  0  0999 V2000
   -8.0540   13.4810    1.2160 N   0  0  0  0  0  0  0  0  0  0  0  0
   -8.7020   14.7760    1.0590 C   0  0  0  0  0  0  0  0  0  0  0  0
   -6.8700   13.5540    2.0840 C   0  0  0  0  0  0  0  0  0  0  0  0
   -5.6140   13.7030    1.2270 C   0  0  1  0  0  0  0  0  0  0  0  0
   -5.8840   14.7900    0.2010 C   0  0  2  0  0  0  0  0  0  0  0  0
   -4.4460   14.2750    2.0160 C   0  0  0  0  0  0  0  0  0  0  0  0
   -3.7310   15.0580    1.0710 N   0  0  0  0  0  0  0  0  0  0  0  0
   -6.0470   14.2870   -1.2110 C   0  0  0  0  0  0  0  0  0  0  0  0
   -4.6250   15.6690    0.1470 C   0  0  1  0  0  0  0  0  0  0  0  0
   -2.4730   14.7680    0.7530 C   0  0  0  0  0  0  0  0  0  0  0  0
   -4.6980   14.2330   -1.7410 N   0  0  0  0  0  0  0  0  0  0  0  0
   -4.1670   15.5210   -1.2980 C   0  0  0  0  0  0  0  0  0  0  0  0
   -1.5710   14.5280    1.7130 N   0  0  0  0  0  0  0  0  0  0  0  0
   -2.1480   14.7360   -0.5820 C   0  0  0  0  0  0  0  0  0  0  0  0
   -0.3180   14.2660    1.3070 C   0  0  0  0  0  0  0  0  0  0  0  0
   -0.8680   14.4700   -0.9970 C   0  0  0  0  0  0  0  0  0  0  0  0
   -0.5540   14.4550   -2.4590 C   0  0  0  0  0  0  0  0  0  0  0  0
    0.0820   14.2270   -0.0220 C   0  0  0  0  0  0  0  0  0  0  0  0
  1  2  1  0
  1  3  1  0
  4  3  1  1
  4  5  1  0
  4  6  1  0
  6  7  1  0
  5  8  1  6
  5  9  1  0
  7  9  1  0
  7 10  1  0
  8 11  1  0
  9 12  1  6
 11 12  1  0
 10 13  2  0
 10 14  1  0
 13 15  1  0
 14 16  2  0
 16 17  1  0
 15 18  2  0
 16 18  1  0
M  END
