x0290_0_A-x0864_0_A
     RDKit          3D

 27 28  0  0  0  0  0  0  0  0999 V2000
   -7.7290   13.8270    0.8390 N   0  0  0  0  0  0  0  0  0  0  0  0
   -8.6120   14.9790    0.7390 C   0  0  0  0  0  0  0  0  0  0  0  0
   -6.5700   14.0990    1.7070 C   0  0  0  0  0  0  0  0  0  0  0  0
   -5.3470   14.4430    0.8510 C   0  0  0  0  0  0  0  0  0  0  0  0
   -5.4680   14.4990   -0.3790 O   0  0  0  0  0  0  0  0  0  0  0  0
   -4.1210   14.6780    1.3860 N   0  0  0  0  0  0  0  0  0  0  0  0
   -2.8400   14.6230    0.8420 C   0  0  0  0  0  0  0  0  0  0  0  0
   -1.8420   14.5590    1.7600 N   0  0  0  0  0  0  0  0  0  0  0  0
   -2.5810   14.6280   -0.5170 C   0  0  0  0  0  0  0  0  0  0  0  0
   -0.5740   14.4980    1.3040 C   0  0  0  0  0  0  0  0  0  0  0  0
   -1.2570   14.5640   -0.9720 C   0  0  0  0  0  0  0  0  0  0  0  0
   -0.9510   14.5640   -2.4510 C   0  0  0  0  0  0  0  0  0  0  0  0
   -0.2340   14.4980   -0.0310 C   0  0  0  0  0  0  0  0  0  0  0  0
    0.4450   15.1060   -2.8230 C   0  0  0  0  0  0  0  0  0  0  0  0
    1.6250   14.2660   -2.3040 C   0  0  0  0  0  0  0  0  0  0  0  0
    1.1720   12.9000   -2.0820 N   0  0  0  0  0  0  0  0  0  0  0  0
    0.7630   12.2400   -3.0920 C   0  0  0  0  0  0  0  0  0  0  0  0
    0.6430   12.6690   -4.5390 C   0  0  0  0  0  0  0  0  0  0  0  0
    0.3760   10.9710   -2.8370 O   0  0  0  0  0  0  0  0  0  0  0  0
   -0.1000   11.7190   -5.3580 N   0  0  0  0  0  0  0  0  0  0  0  0
   -1.2940   11.1830   -4.9030 C   0  0  0  0  0  0  0  0  0  0  0  0
    0.5120   11.2860   -6.5170 C   0  0  0  0  0  0  0  0  0  0  0  0
    1.5420   11.7640   -6.9620 O   0  0  0  0  0  0  0  0  0  0  0  0
   -1.8820   10.1760   -5.5580 C   0  0  0  0  0  0  0  0  0  0  0  0
   -0.1310   10.1580   -7.2230 C   0  0  0  0  0  0  0  0  0  0  0  0
   -1.2700    9.6380   -6.7520 C   0  0  0  0  0  0  0  0  0  0  0  0
   -2.1160    8.2110   -7.6010 Br  0  0  0  0  0  0  0  0  0  0  0  0
  1  2  1  0
  1  3  1  0
  3  4  1  0
  4  5  2  0
  4  6  1  0
  6  7  1  0
  7  8  2  0
  7  9  1  0
  8 10  1  0
  9 11  2  0
 11 12  1  0
 10 13  2  0
 11 13  1  0
 12 14  1  0
 14 15  1  0
 15 16  1  0
 16 17  2  3
 17 18  1  0
 17 19  1  0
 18 20  1  0
 20 21  1  0
 20 22  1  0
 22 23  2  0
 21 24  2  0
 22 25  1  0
 24 26  1  0
 25 26  2  0
 26 27  1  0
M  END
