x0299_0_A-x0918_3_A
     RDKit          3D

 17 18  0  0  0  0  0  0  0  0999 V2000
   14.0230    8.2960   12.4380 N   0  0  0  0  0  0  0  0  0  0  0  0
   14.8310    8.3980   13.5240 C   0  0  0  0  0  0  0  0  0  0  0  0
   16.0250    8.6370   13.3550 O   0  0  0  0  0  0  0  0  0  0  0  0
   14.4610    8.4430   11.0750 C   0  0  0  0  0  0  0  0  0  0  0  0
   14.2000    8.2100   14.8880 C   0  0  0  0  0  0  0  0  0  0  0  0
   14.5920    7.1020   10.4590 C   0  0  0  0  0  0  0  0  0  0  0  0
   15.1380    7.5480   15.8880 C   0  0  0  0  0  0  0  0  0  0  0  0
   14.3930    5.9180   11.1490 N   0  0  0  0  0  0  0  0  0  0  0  0
   14.9120    6.8730    9.2130 N   0  0  0  0  0  0  0  0  0  0  0  0
   15.9400    8.5620   16.6890 C   0  0  0  0  0  0  0  0  0  0  0  0
   14.9240    5.5090    9.0950 C   0  0  0  0  0  0  0  0  0  0  0  0
   14.6020    4.8770   10.2800 C   0  0  0  0  0  0  0  0  0  0  0  0
   14.5510    3.4860   10.4090 C   0  0  0  0  0  0  0  0  0  0  0  0
   15.2140    4.7740    7.9570 C   0  0  0  0  0  0  0  0  0  0  0  0
   15.5380    5.4740    6.7900 N   0  0  0  0  0  0  0  0  0  0  0  0
   14.8410    2.7420    9.2540 C   0  0  0  0  0  0  0  0  0  0  0  0
   15.1690    3.3730    8.0440 C   0  0  0  0  0  0  0  0  0  0  0  0
  1  2  1  0
  2  3  2  0
  1  4  1  0
  2  5  1  0
  4  6  1  0
  5  7  1  0
  6  8  1  0
  6  9  2  0
  7 10  1  0
  9 11  1  0
  8 12  1  0
 11 12  2  0
 12 13  1  0
 11 14  1  0
 14 15  1  0
 13 16  2  0
 14 17  2  0
 16 17  1  0
M  END
