x0290_0_A-x0724_0_A
     RDKit          3D

 26 28  0  0  0  0  0  0  0  0999 V2000
   -4.3660   12.7970   -0.0040 O   0  0  0  0  0  0  0  0  0  0  0  0
   -4.4730   13.3140    1.1080 C   0  0  0  0  0  0  0  0  0  0  0  0
   -3.6180   14.2980    1.5600 N   0  0  0  0  0  0  0  0  0  0  0  0
   -2.3170   14.4400    1.0710 C   0  0  0  0  0  0  0  0  0  0  0  0
   -1.3340   14.3770    1.9340 N   0  0  0  0  0  0  0  0  0  0  0  0
   -2.1300   14.6330   -0.2950 C   0  0  0  0  0  0  0  0  0  0  0  0
   -0.1130   14.4920    1.4400 C   0  0  0  0  0  0  0  0  0  0  0  0
   -0.8390   14.7400   -0.8210 C   0  0  0  0  0  0  0  0  0  0  0  0
   -3.3440   14.7010   -1.0260 C   0  0  0  0  0  0  0  0  0  0  0  0
   -0.5410   14.9240   -2.2870 C   0  0  0  0  0  0  0  0  0  0  0  0
    0.1980   14.6670    0.0970 C   0  0  0  0  0  0  0  0  0  0  0  0
   -4.4260   14.7270   -0.1920 C   0  0  0  0  0  0  0  0  0  0  0  0
   -3.5040   14.7390   -2.4030 C   0  0  0  0  0  0  0  0  0  0  0  0
   -4.8030   14.7970   -2.9110 C   0  0  0  0  0  0  0  0  0  0  0  0
   -5.6960   14.7720   -0.6510 C   0  0  0  0  0  0  0  0  0  0  0  0
   -6.7000   14.7680    0.3350 N   0  0  0  0  0  0  0  0  0  0  0  0
   -5.9060   14.8110   -2.0370 C   0  0  0  0  0  0  0  0  0  0  0  0
   -8.0000   14.6630    0.0410 N   0  0  0  0  0  0  0  0  0  0  0  0
   -6.4940   14.8660    1.7020 C   0  0  0  0  0  0  0  0  0  0  0  0
   -7.7140   14.8410    2.3190 C   0  0  0  0  0  0  0  0  0  0  0  0
   -8.6090   14.7050    1.2310 C   0  0  0  0  0  0  0  0  0  0  0  0
   -7.9990   14.9420    3.7850 C   0  0  0  0  0  0  0  0  0  0  0  0
  -10.0800   14.6050    1.2810 C   0  0  0  0  0  0  0  0  0  0  0  0
   -8.4510   13.6840    4.3710 N   0  0  0  0  0  0  0  0  0  0  0  0
  -10.4040   13.2210    0.9520 N   0  0  0  0  0  0  0  0  0  0  0  0
   -8.3120   13.6910    5.8200 C   0  0  0  0  0  0  0  0  0  0  0  0
  1  2  2  0
  2  3  1  0
  3  4  1  0
  4  5  2  0
  4  6  1  0
  5  7  1  0
  6  8  2  0
  6  9  1  0
  8 10  1  0
  7 11  2  0
  8 11  1  0
  9 12  2  0
  9 13  1  0
 13 14  2  0
 12 15  1  0
 15 16  1  0
 14 17  1  0
 15 17  2  0
 16 18  1  0
 16 19  1  0
 19 20  2  0
 18 21  2  0
 20 21  1  0
 20 22  1  0
 21 23  1  0
 22 24  1  0
 23 25  1  0
 24 26  1  0
M  END
