x0290_0_A-x0910_1_A
     RDKit          3D

 18 19  0  0  0  0  0  0  0  0999 V2000
   -7.4000   14.2020    1.0000 N   0  0  0  0  0  0  0  0  0  0  0  0
   -8.6470   14.7520    1.4780 C   0  0  0  0  0  0  0  0  0  0  0  0
   -6.3900   13.8480    1.9770 C   0  0  0  0  0  0  0  0  0  0  0  0
   -6.7760   14.8350    0.0330 C   0  0  0  0  0  0  0  0  0  0  0  0
   -5.0700   13.7500    1.1830 C   0  0  0  0  0  0  0  0  0  0  0  0
   -7.1840   15.1400   -1.1820 N   0  0  0  0  0  0  0  0  0  0  0  0
   -5.4990   15.2430    0.3310 N   0  0  0  0  0  0  0  0  0  0  0  0
   -5.0420   13.0610    0.1630 O   0  0  0  0  0  0  0  0  0  0  0  0
   -4.0190   14.4980    1.6800 N   0  0  0  0  0  0  0  0  0  0  0  0
   -6.1080   15.7670   -1.6650 N   0  0  0  0  0  0  0  0  0  0  0  0
   -5.1040   15.8240   -0.7570 C   0  0  0  0  0  0  0  0  0  0  0  0
   -2.7420   14.5230    1.1020 C   0  0  0  0  0  0  0  0  0  0  0  0
   -1.6490   14.5090    1.8670 N   0  0  0  0  0  0  0  0  0  0  0  0
   -2.6540   14.5560   -0.2940 C   0  0  0  0  0  0  0  0  0  0  0  0
   -0.4470   14.5310    1.2700 C   0  0  0  0  0  0  0  0  0  0  0  0
   -1.3930   14.5760   -0.9080 C   0  0  0  0  0  0  0  0  0  0  0  0
   -1.2710   14.6100   -2.4020 C   0  0  0  0  0  0  0  0  0  0  0  0
   -0.2620   14.5650   -0.0970 C   0  0  0  0  0  0  0  0  0  0  0  0
  1  2  1  0
  1  3  1  0
  1  4  1  0
  3  5  1  0
  4  6  2  0
  4  7  1  0
  5  8  2  0
  5  9  1  0
  6 10  1  0
  7 11  2  0
 10 11  1  0
  9 12  1  0
 12 13  2  0
 12 14  1  0
 13 15  1  0
 14 16  2  0
 16 17  1  0
 15 18  2  0
 16 18  1  0
M  END
