x0290_0_A-x0766_0_A
     RDKit          3D

 26 28  0  0  0  0  0  0  0  0999 V2000
   -7.6470   13.7350    1.1910 N   0  0  0  0  0  0  0  0  0  0  0  0
   -8.4780   14.8520    0.7390 C   0  0  0  0  0  0  0  0  0  0  0  0
   -6.4670   14.1780    1.9680 C   0  0  0  0  0  0  0  0  0  0  0  0
   -5.2440   14.4970    1.1090 C   0  0  0  0  0  0  0  0  0  0  0  0
   -5.3410   14.4270   -0.1260 O   0  0  0  0  0  0  0  0  0  0  0  0
   -4.0450   14.8570    1.6450 N   0  0  0  0  0  0  0  0  0  0  0  0
   -2.7250   14.8690    1.1810 C   0  0  0  0  0  0  0  0  0  0  0  0
   -1.8210   14.3800    2.0490 N   0  0  0  0  0  0  0  0  0  0  0  0
   -2.3110   15.3180   -0.0380 C   0  0  0  0  0  0  0  0  0  0  0  0
   -0.5160   14.3220    1.6960 C   0  0  0  0  0  0  0  0  0  0  0  0
   -0.9460   15.2570   -0.3750 C   0  0  0  0  0  0  0  0  0  0  0  0
   -0.5200   15.7300   -1.6860 C   0  0  0  0  0  0  0  0  0  0  0  0
   -0.0470   14.7540    0.4980 C   0  0  0  0  0  0  0  0  0  0  0  0
   -1.7180   15.2220   -2.3120 C   0  0  0  0  0  0  0  0  0  0  0  0
   -1.7940   14.5280   -3.5460 C   0  0  0  0  0  0  0  0  0  0  0  0
   -2.9400   15.3840   -1.6900 C   0  0  0  0  0  0  0  0  0  0  0  0
   -0.5680   14.2430   -4.4150 C   0  0  2  0  0  0  0  0  0  0  0  0
   -3.1200   14.1920   -3.7870 C   0  0  0  0  0  0  0  0  0  0  0  0
   -4.2050   14.7040   -2.5670 S   0  0  0  0  0  0  0  0  0  0  0  0
    0.2830   12.9510   -4.2300 C   0  0  2  0  0  0  0  0  0  0  0  0
    0.4730   15.3910   -4.3080 C   0  0  0  0  0  0  0  0  0  0  0  0
    0.3520   12.2790   -2.8710 C   0  0  0  0  0  0  0  0  0  0  0  0
    1.6730   13.3740   -4.7110 C   0  0  0  0  0  0  0  0  0  0  0  0
    1.8220   14.7380   -4.0720 C   0  0  0  0  0  0  0  0  0  0  0  0
    0.9830   12.7170   -1.9230 O   0  0  0  0  0  0  0  0  0  0  0  0
   -0.3350   11.1170   -2.7890 O   0  0  0  0  0  0  0  0  0  0  0  0
  1  2  1  0
  1  3  1  0
  3  4  1  0
  4  5  2  0
  4  6  1  0
  6  7  1  0
  7  8  2  0
  7  9  1  0
  8 10  1  0
  9 11  2  0
 11 12  1  0
 10 13  2  0
 11 13  1  0
 12 14  1  0
 14 15  1  0
 14 16  2  0
 17 15  1  1
 15 18  2  0
 16 19  1  0
 18 19  1  0
 17 20  1  0
 17 21  1  0
 20 22  1  1
 20 23  1  0
 21 24  1  0
 23 24  1  0
 22 25  2  0
 22 26  1  0
M  END
