x0290_0_A_α-x0864_0_A_α
     RDKit          3D

 27 28  0  0  0  0  0  0  0  0999 V2000
   -7.7300   13.8230    0.8420 N   0  0  0  0  0  0  0  0  0  0  0  0
   -8.6120   14.9760    0.7430 C   0  0  0  0  0  0  0  0  0  0  0  0
   -6.5700   14.1010    1.7050 C   0  0  0  0  0  0  0  0  0  0  0  0
   -5.3460   14.4460    0.8530 C   0  0  0  0  0  0  0  0  0  0  0  0
   -5.4670   14.5060   -0.3790 O   0  0  0  0  0  0  0  0  0  0  0  0
   -4.1210   14.6760    1.3870 N   0  0  0  0  0  0  0  0  0  0  0  0
   -2.8370   14.6220    0.8450 C   0  0  0  0  0  0  0  0  0  0  0  0
   -1.8390   14.5550    1.7610 N   0  0  0  0  0  0  0  0  0  0  0  0
   -2.5790   14.6300   -0.5150 C   0  0  0  0  0  0  0  0  0  0  0  0
   -0.5700   14.4940    1.3050 C   0  0  0  0  0  0  0  0  0  0  0  0
   -1.2540   14.5650   -0.9710 C   0  0  0  0  0  0  0  0  0  0  0  0
   -0.9480   14.5690   -2.4500 C   0  0  0  0  0  0  0  0  0  0  0  0
   -0.2300   14.4970   -0.0300 C   0  0  0  0  0  0  0  0  0  0  0  0
    0.4470   15.1080   -2.8250 C   0  0  0  0  0  0  0  0  0  0  0  0
    1.6240   14.2650   -2.3020 C   0  0  0  0  0  0  0  0  0  0  0  0
    1.1690   12.9010   -2.0810 N   0  0  0  0  0  0  0  0  0  0  0  0
    0.7610   12.2380   -3.0880 C   0  0  0  0  0  0  0  0  0  0  0  0
    0.6440   12.6690   -4.5380 C   0  0  0  0  0  0  0  0  0  0  0  0
    0.3760   10.9720   -2.8350 O   0  0  0  0  0  0  0  0  0  0  0  0
   -0.1000   11.7180   -5.3570 N   0  0  0  0  0  0  0  0  0  0  0  0
   -1.2930   11.1840   -4.9030 C   0  0  0  0  0  0  0  0  0  0  0  0
    0.5150   11.2850   -6.5160 C   0  0  0  0  0  0  0  0  0  0  0  0
    1.5470   11.7610   -6.9600 O   0  0  0  0  0  0  0  0  0  0  0  0
   -1.8810   10.1750   -5.5580 C   0  0  0  0  0  0  0  0  0  0  0  0
   -0.1290   10.1560   -7.2230 C   0  0  0  0  0  0  0  0  0  0  0  0
   -1.2690    9.6370   -6.7520 C   0  0  0  0  0  0  0  0  0  0  0  0
   -2.1150    8.2100   -7.6010 Br  0  0  0  0  0  0  0  0  0  0  0  0
  1  2  1  0
  1  3  1  0
  3  4  1  0
  4  5  2  0
  4  6  1  0
  6  7  1  0
  7  8  2  0
  7  9  1  0
  8 10  1  0
  9 11  2  0
 11 12  1  0
 10 13  2  0
 11 13  1  0
 12 14  1  0
 14 15  1  0
 15 16  1  0
 16 17  2  3
 17 18  1  0
 17 19  1  0
 18 20  1  0
 20 21  1  0
 20 22  1  0
 22 23  2  0
 21 24  2  0
 22 25  1  0
 24 26  1  0
 25 26  2  0
 26 27  1  0
M  END
