x0290_0_A-x0766_0_A
     RDKit          3D

 26 28  0  0  0  0  0  0  0  0999 V2000
   -7.6370   13.7270    1.2340 N   0  0  0  0  0  0  0  0  0  0  0  0
   -8.4570   14.8410    0.7520 C   0  0  0  0  0  0  0  0  0  0  0  0
   -6.4490   14.1780    1.9950 C   0  0  0  0  0  0  0  0  0  0  0  0
   -5.2380   14.4920    1.1200 C   0  0  0  0  0  0  0  0  0  0  0  0
   -5.3470   14.3880   -0.1110 O   0  0  0  0  0  0  0  0  0  0  0  0
   -4.0370   14.8860    1.6310 N   0  0  0  0  0  0  0  0  0  0  0  0
   -2.7190   14.8850    1.1740 C   0  0  0  0  0  0  0  0  0  0  0  0
   -1.8230   14.3890    2.0470 N   0  0  0  0  0  0  0  0  0  0  0  0
   -2.2980   15.3320   -0.0440 C   0  0  0  0  0  0  0  0  0  0  0  0
   -0.5170   14.3240    1.6960 C   0  0  0  0  0  0  0  0  0  0  0  0
   -0.9390   15.2620   -0.3790 C   0  0  0  0  0  0  0  0  0  0  0  0
   -0.5110   15.7300   -1.6930 C   0  0  0  0  0  0  0  0  0  0  0  0
   -0.0420   14.7520    0.4980 C   0  0  0  0  0  0  0  0  0  0  0  0
   -1.7130   15.2210   -2.3170 C   0  0  0  0  0  0  0  0  0  0  0  0
   -1.7920   14.5260   -3.5520 C   0  0  0  0  0  0  0  0  0  0  0  0
   -2.9340   15.3840   -1.6940 C   0  0  0  0  0  0  0  0  0  0  0  0
   -0.5680   14.2380   -4.4230 C   0  0  2  0  0  0  0  0  0  0  0  0
   -3.1200   14.1910   -3.7900 C   0  0  0  0  0  0  0  0  0  0  0  0
   -4.2020   14.7050   -2.5670 S   0  0  0  0  0  0  0  0  0  0  0  0
    0.2830   12.9480   -4.2350 C   0  0  2  0  0  0  0  0  0  0  0  0
    0.4710   15.3890   -4.3170 C   0  0  0  0  0  0  0  0  0  0  0  0
    0.3490   12.2770   -2.8720 C   0  0  0  0  0  0  0  0  0  0  0  0
    1.6740   13.3710   -4.7090 C   0  0  0  0  0  0  0  0  0  0  0  0
    1.8200   14.7360   -4.0720 C   0  0  0  0  0  0  0  0  0  0  0  0
    0.9790   12.7160   -1.9250 O   0  0  0  0  0  0  0  0  0  0  0  0
   -0.3390   11.1160   -2.7880 O   0  0  0  0  0  0  0  0  0  0  0  0
  1  2  1  0
  1  3  1  0
  3  4  1  0
  4  5  2  0
  4  6  1  0
  6  7  1  0
  7  8  2  0
  7  9  1  0
  8 10  1  0
  9 11  2  0
 11 12  1  0
 10 13  2  0
 11 13  1  0
 12 14  1  0
 14 15  1  0
 14 16  2  0
 17 15  1  1
 15 18  2  0
 16 19  1  0
 18 19  1  0
 17 20  1  0
 17 21  1  0
 20 22  1  1
 20 23  1  0
 21 24  1  0
 23 24  1  0
 22 25  2  0
 22 26  1  0
M  END
