x0299_0_A-x0142_0_A
     RDKit          3D

 28 31  0  0  0  0  0  0  0  0999 V2000
   14.5860    7.4160   12.0870 C   0  0  2  0  0  0  0  0  0  0  0  0
   15.1790    6.9720   13.4490 C   0  0  0  0  0  0  0  0  0  0  0  0
   16.3870    6.7920   13.5770 O   0  0  0  0  0  0  0  0  0  0  0  0
   13.1570    6.8490   11.9460 C   0  0  0  0  0  0  0  0  0  0  0  0
   15.4180    6.8960   10.9450 C   0  0  0  0  0  0  0  0  0  0  0  0
   14.8300    8.8460   12.5070 C   0  0  0  0  0  0  0  0  0  0  0  0
   14.2730    6.8540   14.6770 C   0  0  0  0  0  0  0  0  0  0  0  0
   15.7490    5.5930   10.8630 N   0  0  0  0  0  0  0  0  0  0  0  0
   15.7780    7.6260   10.0160 O   0  0  0  0  0  0  0  0  0  0  0  0
   12.7630    5.7270   10.9430 C   0  0  0  0  0  0  0  0  0  0  0  0
   14.3280    9.2040   13.7600 C   0  0  0  0  0  0  0  0  0  0  0  0
   15.5290    9.7950   11.7680 C   0  0  0  0  0  0  0  0  0  0  0  0
   15.0440    7.0970   15.9780 C   0  0  0  0  0  0  0  0  0  0  0  0
   13.5960    4.8090   10.1740 C   0  0  0  0  0  0  0  0  0  0  0  0
   14.9970    4.7220   10.1380 C   0  0  0  0  0  0  0  0  0  0  0  0
   14.5210   10.4620   14.2770 C   0  0  0  0  0  0  0  0  0  0  0  0
   15.7260   11.0770   12.2910 C   0  0  0  0  0  0  0  0  0  0  0  0
   11.3690    5.5940   10.7760 C   0  0  0  0  0  0  0  0  0  0  0  0
   15.6440    8.4920   16.0840 C   0  0  0  0  0  0  0  0  0  0  0  0
   10.7520    4.7020    9.9800 N   0  0  0  0  0  0  0  0  0  0  0  0
   12.9360    3.8710    9.3390 C   0  0  0  0  0  0  0  0  0  0  0  0
   15.6980    3.7790    9.3570 C   0  0  0  0  0  0  0  0  0  0  0  0
   15.2240   11.4060   13.5530 C   0  0  0  0  0  0  0  0  0  0  0  0
   15.3450   12.5980   14.1950 O   0  0  0  0  0  0  0  0  0  0  0  0
   15.0270    2.8870    8.5620 C   0  0  0  0  0  0  0  0  0  0  0  0
   13.6520    2.9400    8.5550 C   0  0  0  0  0  0  0  0  0  0  0  0
   11.5440    3.8710    9.2880 C   0  0  0  0  0  0  0  0  0  0  0  0
   15.4010   12.5400   15.6180 C   0  0  0  0  0  0  0  0  0  0  0  0
  1  2  1  1
  2  3  2  0
  1  4  1  0
  1  5  1  0
  1  6  1  0
  2  7  1  0
  5  8  1  0
  5  9  2  0
  4 10  1  0
  6 11  2  0
  6 12  1  0
  7 13  1  0
 10 14  1  0
  8 15  1  0
 14 15  2  0
 11 16  1  0
 12 17  2  0
 10 18  2  0
 13 19  1  0
 18 20  1  0
 14 21  1  0
 15 22  1  0
 16 23  2  0
 17 23  1  0
 23 24  1  0
 22 25  2  0
 21 26  2  0
 25 26  1  0
 20 27  2  0
 21 27  1  0
 24 28  1  0
M  END
