x0299_0_A-x0918_3_A
     RDKit          3D

 17 18  0  0  0  0  0  0  0  0999 V2000
   14.0470    8.3160   12.4220 N   0  0  0  0  0  0  0  0  0  0  0  0
   14.8440    8.4080   13.5200 C   0  0  0  0  0  0  0  0  0  0  0  0
   16.0370    8.6560   13.3610 O   0  0  0  0  0  0  0  0  0  0  0  0
   14.5010    8.4480   11.0620 C   0  0  0  0  0  0  0  0  0  0  0  0
   14.1970    8.1970   14.8750 C   0  0  0  0  0  0  0  0  0  0  0  0
   14.6220    7.1010   10.4600 C   0  0  0  0  0  0  0  0  0  0  0  0
   15.1260    7.5420   15.8950 C   0  0  0  0  0  0  0  0  0  0  0  0
   14.4190    5.9220   11.1610 N   0  0  0  0  0  0  0  0  0  0  0  0
   14.9360    6.8570    9.2150 N   0  0  0  0  0  0  0  0  0  0  0  0
   15.9310    8.5640   16.6810 C   0  0  0  0  0  0  0  0  0  0  0  0
   14.9450    5.4920    9.1110 C   0  0  0  0  0  0  0  0  0  0  0  0
   14.6270    4.8710   10.3020 C   0  0  0  0  0  0  0  0  0  0  0  0
   14.5730    3.4780   10.4400 C   0  0  0  0  0  0  0  0  0  0  0  0
   15.2330    4.7480    7.9780 C   0  0  0  0  0  0  0  0  0  0  0  0
   15.5550    5.4330    6.8040 N   0  0  0  0  0  0  0  0  0  0  0  0
   14.8650    2.7260    9.2890 C   0  0  0  0  0  0  0  0  0  0  0  0
   15.1890    3.3470    8.0750 C   0  0  0  0  0  0  0  0  0  0  0  0
  1  2  1  0
  2  3  2  0
  1  4  1  0
  2  5  1  0
  4  6  1  0
  5  7  1  0
  6  8  1  0
  6  9  2  0
  7 10  1  0
  9 11  1  0
  8 12  1  0
 11 12  2  0
 12 13  1  0
 11 14  1  0
 14 15  1  0
 13 16  2  0
 14 17  2  0
 16 17  1  0
M  END
