x0290_0_A-x0950_1_A
     RDKit          3D

 21 21  0  0  0  0  0  0  0  0999 V2000
   -7.7610   13.8060    0.9410 N   0  0  0  0  0  0  0  0  0  0  0  0
   -8.6110   14.9610    0.7190 C   0  0  0  0  0  0  0  0  0  0  0  0
   -6.5830   14.1330    1.7670 C   0  0  0  0  0  0  0  0  0  0  0  0
   -5.3800   14.4520    0.8720 C   0  0  0  0  0  0  0  0  0  0  0  0
   -5.4980   14.5040   -0.3590 O   0  0  0  0  0  0  0  0  0  0  0  0
   -4.1480   14.6750    1.3940 N   0  0  0  0  0  0  0  0  0  0  0  0
   -2.8690   14.6190    0.8600 C   0  0  0  0  0  0  0  0  0  0  0  0
   -1.8820   14.5750    1.7930 N   0  0  0  0  0  0  0  0  0  0  0  0
   -2.5910   14.6060   -0.4930 C   0  0  0  0  0  0  0  0  0  0  0  0
   -0.6060   14.5190    1.3700 C   0  0  0  0  0  0  0  0  0  0  0  0
   -1.2580   14.5470   -0.9130 C   0  0  0  0  0  0  0  0  0  0  0  0
   -0.8950   14.5250   -2.3730 C   0  0  0  0  0  0  0  0  0  0  0  0
   -0.2520   14.5060    0.0500 C   0  0  0  0  0  0  0  0  0  0  0  0
    0.6040   14.7740   -2.5910 C   0  0  0  0  0  0  0  0  0  0  0  0
    1.5110   13.9440   -1.6760 C   0  0  0  0  0  0  0  0  0  0  0  0
    1.9350   12.7600   -2.3670 O   0  0  0  0  0  0  0  0  0  0  0  0
    1.0550   12.1270   -3.1790 C   0  0  0  0  0  0  0  0  0  0  0  0
    1.3060   12.4860   -4.6560 C   0  0  2  0  0  0  0  0  0  0  0  0
    0.1800   11.3500   -2.8040 O   0  0  0  0  0  0  0  0  0  0  0  0
    0.9290   13.9010   -5.0400 C   0  0  0  0  0  0  0  0  0  0  0  0
    0.5780   11.6040   -5.5100 O   0  0  0  0  0  0  0  0  0  0  0  0
  1  2  1  0
  1  3  1  0
  3  4  1  0
  4  5  2  0
  4  6  1  0
  6  7  1  0
  7  8  2  0
  7  9  1  0
  8 10  1  0
  9 11  2  0
 11 12  1  0
 10 13  2  0
 11 13  1  0
 12 14  1  0
 14 15  1  0
 15 16  1  0
 16 17  1  0
 17 18  1  0
 17 19  2  0
 18 20  1  1
 18 21  1  0
M  END
