x0290_0_A-x0910_0_A
     RDKit          3D

 13 13  0  0  0  0  0  0  0  0999 V2000
   -7.7630   13.8200    0.9200 N   0  0  0  0  0  0  0  0  0  0  0  0
   -8.6150   14.9800    0.6870 C   0  0  0  0  0  0  0  0  0  0  0  0
   -6.5610   14.1480    1.7250 C   0  0  0  0  0  0  0  0  0  0  0  0
   -5.3460   14.4480    0.8380 C   0  0  0  0  0  0  0  0  0  0  0  0
   -5.4560   14.4650   -0.3950 O   0  0  0  0  0  0  0  0  0  0  0  0
   -4.1180   14.6880    1.3680 N   0  0  0  0  0  0  0  0  0  0  0  0
   -2.8420   14.6470    0.8160 C   0  0  0  0  0  0  0  0  0  0  0  0
   -1.8320   14.5790    1.7180 N   0  0  0  0  0  0  0  0  0  0  0  0
   -2.6020   14.6700   -0.5450 C   0  0  0  0  0  0  0  0  0  0  0  0
   -0.5670   14.5310    1.2480 C   0  0  0  0  0  0  0  0  0  0  0  0
   -1.2880   14.6190   -1.0180 C   0  0  0  0  0  0  0  0  0  0  0  0
   -1.0160   14.6380   -2.4940 C   0  0  0  0  0  0  0  0  0  0  0  0
   -0.2460   14.5480   -0.0970 C   0  0  0  0  0  0  0  0  0  0  0  0
  1  2  1  0
  1  3  1  0
  3  4  1  0
  4  5  2  0
  4  6  1  0
  6  7  1  0
  7  8  2  0
  7  9  1  0
  8 10  1  0
  9 11  2  0
 11 12  1  0
 10 13  2  0
 11 13  1  0
M  END
