x0290_0_A_α-x0950_1_A_α
     RDKit          3D

 21 21  0  0  0  0  0  0  0  0999 V2000
   -7.7660   13.8080    0.9270 N   0  0  0  0  0  0  0  0  0  0  0  0
   -8.6130   14.9650    0.7040 C   0  0  0  0  0  0  0  0  0  0  0  0
   -6.5900   14.1220    1.7590 C   0  0  0  0  0  0  0  0  0  0  0  0
   -5.3830   14.4440    0.8710 C   0  0  0  0  0  0  0  0  0  0  0  0
   -5.4980   14.4880   -0.3620 O   0  0  0  0  0  0  0  0  0  0  0  0
   -4.1560   14.6750    1.3940 N   0  0  0  0  0  0  0  0  0  0  0  0
   -2.8750   14.6200    0.8620 C   0  0  0  0  0  0  0  0  0  0  0  0
   -1.8870   14.5820    1.7940 N   0  0  0  0  0  0  0  0  0  0  0  0
   -2.5980   14.6020   -0.4910 C   0  0  0  0  0  0  0  0  0  0  0  0
   -0.6110   14.5270    1.3690 C   0  0  0  0  0  0  0  0  0  0  0  0
   -1.2660   14.5450   -0.9150 C   0  0  0  0  0  0  0  0  0  0  0  0
   -0.9000   14.5180   -2.3730 C   0  0  0  0  0  0  0  0  0  0  0  0
   -0.2590   14.5100    0.0480 C   0  0  0  0  0  0  0  0  0  0  0  0
    0.5990   14.7660   -2.5900 C   0  0  0  0  0  0  0  0  0  0  0  0
    1.5040   13.9360   -1.6770 C   0  0  0  0  0  0  0  0  0  0  0  0
    1.9280   12.7490   -2.3690 O   0  0  0  0  0  0  0  0  0  0  0  0
    1.0510   12.1190   -3.1870 C   0  0  0  0  0  0  0  0  0  0  0  0
    1.3000   12.4860   -4.6600 C   0  0  2  0  0  0  0  0  0  0  0  0
    0.1800   11.3340   -2.8160 O   0  0  0  0  0  0  0  0  0  0  0  0
    0.9230   13.9090   -5.0330 C   0  0  0  0  0  0  0  0  0  0  0  0
    0.5690   11.6100   -5.5170 O   0  0  0  0  0  0  0  0  0  0  0  0
  1  2  1  0
  1  3  1  0
  3  4  1  0
  4  5  2  0
  4  6  1  0
  6  7  1  0
  7  8  2  0
  7  9  1  0
  8 10  1  0
  9 11  2  0
 11 12  1  0
 10 13  2  0
 11 13  1  0
 12 14  1  0
 14 15  1  0
 15 16  1  0
 16 17  1  0
 17 18  1  0
 17 19  2  0
 18 20  1  1
 18 21  1  0
M  END
