x0290_0_A_α-x0591_0_A_α
     RDKit          3D

 23 24  0  0  0  0  0  0  0  0999 V2000
   -7.8960   13.8900    1.1730 N   0  0  0  0  0  0  0  0  0  0  0  0
   -8.5710   15.0480    0.5990 C   0  0  0  0  0  0  0  0  0  0  0  0
   -6.6280   14.2440    1.8530 C   0  0  0  0  0  0  0  0  0  0  0  0
   -5.4760   14.4050    0.8140 C   0  0  0  0  0  0  0  0  0  0  0  0
   -5.8060   14.2210   -0.4350 N   0  0  0  0  0  0  0  0  0  0  0  0
   -4.2250   14.7100    1.3660 N   0  0  0  0  0  0  0  0  0  0  0  0
   -2.9030   14.6540    0.8830 C   0  0  0  0  0  0  0  0  0  0  0  0
   -4.9840   14.2670   -1.5420 C   0  0  0  0  0  0  0  0  0  0  0  0
   -1.9280   14.4640    1.8220 N   0  0  0  0  0  0  0  0  0  0  0  0
   -2.5450   14.7750   -0.4520 C   0  0  0  0  0  0  0  0  0  0  0  0
   -3.7500   13.6240   -1.4980 C   0  0  0  0  0  0  0  0  0  0  0  0
   -5.3740   14.9300   -2.7050 C   0  0  0  0  0  0  0  0  0  0  0  0
   -0.6360   14.3890    1.4230 C   0  0  0  0  0  0  0  0  0  0  0  0
   -1.1940   14.6920   -0.8470 C   0  0  0  0  0  0  0  0  0  0  0  0
   -2.9000   13.6410   -2.6040 C   0  0  0  0  0  0  0  0  0  0  0  0
   -4.5230   14.9390   -3.8100 C   0  0  0  0  0  0  0  0  0  0  0  0
   -0.7960   14.8140   -2.2810 C   0  0  0  0  0  0  0  0  0  0  0  0
   -0.2260   14.4950    0.1190 C   0  0  0  0  0  0  0  0  0  0  0  0
   -3.3040   14.3100   -3.7540 C   0  0  0  0  0  0  0  0  0  0  0  0
   -2.2950   14.3860   -5.2080 S   0  0  0  0  0  0  0  0  0  0  0  0
   -1.1100   15.5220   -4.8180 N   0  0  0  0  0  0  0  0  0  0  0  0
   -1.6060   13.1280   -5.3420 O   0  0  0  0  0  0  0  0  0  0  0  0
   -3.0990   14.9570   -6.2630 O   0  0  0  0  0  0  0  0  0  0  0  0
  1  2  1  0
  1  3  1  0
  3  4  1  0
  4  5  2  3
  4  6  1  0
  6  7  1  0
  5  8  1  0
  7  9  2  0
  7 10  1  0
  8 11  2  0
  8 12  1  0
  9 13  1  0
 10 14  2  0
 11 15  1  0
 12 16  2  0
 14 17  1  0
 13 18  2  0
 14 18  1  0
 15 19  2  0
 16 19  1  0
 19 20  1  0
 20 21  1  0
 20 22  2  0
 20 23  2  0
M  END
