x0290_0_A-x0967_0_A
     RDKit          3D

 23 25  0  0  0  0  0  0  0  0999 V2000
   -7.0770   12.6590    0.6740 N   0  0  0  0  0  0  0  0  0  0  0  0
   -8.3540   12.6240    1.3840 C   0  0  0  0  0  0  0  0  0  0  0  0
   -5.9400   12.8880    1.5970 C   0  0  0  0  0  0  0  0  0  0  0  0
   -4.6080   13.3320    0.9110 C   0  0  0  0  0  0  0  0  0  0  0  0
   -4.4460   13.5710   -0.3660 N   0  0  0  0  0  0  0  0  0  0  0  0
   -3.5190   13.5370    1.6950 N   0  0  0  0  0  0  0  0  0  0  0  0
   -2.3540   13.9880    1.0430 C   0  0  0  0  0  0  0  0  0  0  0  0
   -5.4090   13.6010   -1.3110 N   0  0  0  0  0  0  0  0  0  0  0  0
   -1.3110   14.3120    1.8200 N   0  0  0  0  0  0  0  0  0  0  0  0
   -2.2660   14.0910   -0.3480 C   0  0  0  0  0  0  0  0  0  0  0  0
   -6.4530   14.0550   -0.4030 C   0  0  2  0  0  0  0  0  0  0  0  0
   -4.7730   14.5650   -2.0320 C   0  0  0  0  0  0  0  0  0  0  0  0
   -0.1880   14.7260    1.2110 C   0  0  0  0  0  0  0  0  0  0  0  0
   -1.0960   14.5250   -0.9610 C   0  0  0  0  0  0  0  0  0  0  0  0
   -7.7550   14.6150   -0.7320 N   0  0  0  0  0  0  0  0  0  0  0  0
   -5.7120   15.0050    0.4960 C   0  0  0  0  0  0  0  0  0  0  0  0
   -4.3550   15.6500   -1.3760 C   0  0  0  0  0  0  0  0  0  0  0  0
   -1.0040   14.6330   -2.4510 C   0  0  0  0  0  0  0  0  0  0  0  0
   -0.0240   14.8500   -0.1480 C   0  0  0  0  0  0  0  0  0  0  0  0
   -6.3090   14.9340    1.7950 C   0  0  0  0  0  0  0  0  0  0  0  0
   -8.2860   15.0150    0.3890 C   0  0  0  0  0  0  0  0  0  0  0  0
   -4.6790   15.7670    0.0470 C   0  0  0  0  0  0  0  0  0  0  0  0
   -7.6630   14.9270    1.7650 C   0  0  0  0  0  0  0  0  0  0  0  0
  1  2  1  0
  1  3  1  0
  3  4  1  0
  4  5  2  3
  4  6  1  0
  6  7  1  0
  5  8  1  0
  7  9  2  0
  7 10  1  0
  8 11  1  0
  8 12  1  0
  9 13  1  0
 10 14  2  0
 11 15  1  6
 11 16  1  0
 12 17  2  0
 14 18  1  0
 13 19  2  0
 14 19  1  0
 16 20  1  0
 15 21  2  0
 16 22  2  0
 17 22  1  0
 20 23  2  0
 21 23  1  0
M  END
