x0290_0_A_α-x0626_0_A_α
     RDKit          3D

 13 13  0  0  0  0  0  0  0  0999 V2000
   -7.7460   13.8160    0.9350 N   0  0  0  0  0  0  0  0  0  0  0  0
   -8.6090   14.9680    0.7000 C   0  0  0  0  0  0  0  0  0  0  0  0
   -6.5520   14.1590    1.7360 C   0  0  0  0  0  0  0  0  0  0  0  0
   -5.3330   14.4570    0.8540 C   0  0  0  0  0  0  0  0  0  0  0  0
   -5.4450   14.4950   -0.3780 O   0  0  0  0  0  0  0  0  0  0  0  0
   -4.1010   14.6760    1.3870 N   0  0  0  0  0  0  0  0  0  0  0  0
   -2.8290   14.6400    0.8270 C   0  0  0  0  0  0  0  0  0  0  0  0
   -1.8120   14.5740    1.7250 N   0  0  0  0  0  0  0  0  0  0  0  0
   -2.5930   14.6670   -0.5350 C   0  0  0  0  0  0  0  0  0  0  0  0
   -0.5480   14.5290    1.2470 C   0  0  0  0  0  0  0  0  0  0  0  0
   -1.2790   14.6200   -1.0120 C   0  0  0  0  0  0  0  0  0  0  0  0
   -1.0200   14.6450   -2.4880 C   0  0  0  0  0  0  0  0  0  0  0  0
   -0.2360   14.5520   -0.0970 C   0  0  0  0  0  0  0  0  0  0  0  0
  1  2  1  0
  1  3  1  0
  3  4  1  0
  4  5  2  0
  4  6  1  0
  6  7  1  0
  7  8  2  0
  7  9  1  0
  8 10  1  0
  9 11  2  0
 11 12  1  0
 10 13  2  0
 11 13  1  0
M  END
