x0290_0_A-x0962_0_A
     RDKit          3D

 19 20  0  0  0  0  0  0  0  0999 V2000
   -7.4400   13.5460    1.3900 N   0  0  0  0  0  0  0  0  0  0  0  0
   -8.3710   14.6730    1.4810 C   0  0  0  0  0  0  0  0  0  0  0  0
   -6.2430   13.7010    2.2580 C   0  0  0  0  0  0  0  0  0  0  0  0
   -4.9180   13.5750    1.5020 C   0  0  0  0  0  0  0  0  0  0  0  0
   -4.9430   13.0910    0.3600 O   0  0  0  0  0  0  0  0  0  0  0  0
   -3.6840   13.9580    1.9710 N   0  0  0  0  0  0  0  0  0  0  0  0
   -2.5160   14.2480    1.2890 C   0  0  0  0  0  0  0  0  0  0  0  0
   -1.3460   14.3560    1.9310 N   0  0  0  0  0  0  0  0  0  0  0  0
   -2.5510   14.4190   -0.0030 C   0  0  0  0  0  0  0  0  0  0  0  0
   -0.2320   14.6370    1.1940 C   0  0  0  0  0  0  0  0  0  0  0  0
   -1.4570   14.7060   -0.7480 C   0  0  0  0  0  0  0  0  0  0  0  0
   -2.0750   14.8110   -1.9740 C   0  0  0  0  0  0  0  0  0  0  0  0
   -0.2080   14.8260   -0.1920 C   0  0  0  0  0  0  0  0  0  0  0  0
   -3.1730   14.9520   -2.3330 C   0  0  0  0  0  0  0  0  0  0  0  0
   -4.5190   15.0500   -1.9370 C   0  0  0  0  0  0  0  0  0  0  0  0
   -4.7630   15.1660   -0.5920 N   0  0  0  0  0  0  0  0  0  0  0  0
   -5.7550   15.0570   -2.5140 C   0  0  0  0  0  0  0  0  0  0  0  0
   -6.0890   15.2250   -0.4010 C   0  0  0  0  0  0  0  0  0  0  0  0
   -6.7300   15.1690   -1.5400 N   0  0  0  0  0  0  0  0  0  0  0  0
  1  2  1  0
  1  3  1  0
  3  4  1  0
  4  5  2  0
  4  6  1  0
  6  7  1  0
  7  8  2  0
  7  9  1  0
  8 10  1  0
  9 11  2  0
 11 12  1  0
 10 13  2  0
 11 13  1  0
 12 14  3  0
 14 15  1  0
 15 16  1  0
 15 17  2  0
 16 18  1  0
 17 19  1  0
 18 19  2  0
M  END
