x0290_0_A-x0724_0_A
     RDKit          3D

 26 28  0  0  0  0  0  0  0  0999 V2000
   -4.3820   12.7960   -0.0060 O   0  0  0  0  0  0  0  0  0  0  0  0
   -4.4720   13.3070    1.1090 C   0  0  0  0  0  0  0  0  0  0  0  0
   -3.6180   14.2920    1.5540 N   0  0  0  0  0  0  0  0  0  0  0  0
   -2.3130   14.4370    1.0650 C   0  0  0  0  0  0  0  0  0  0  0  0
   -1.3330   14.3730    1.9300 N   0  0  0  0  0  0  0  0  0  0  0  0
   -2.1280   14.6290   -0.2980 C   0  0  0  0  0  0  0  0  0  0  0  0
   -0.1110   14.4890    1.4360 C   0  0  0  0  0  0  0  0  0  0  0  0
   -0.8340   14.7380   -0.8230 C   0  0  0  0  0  0  0  0  0  0  0  0
   -3.3390   14.6970   -1.0280 C   0  0  0  0  0  0  0  0  0  0  0  0
   -0.5310   14.9220   -2.2890 C   0  0  0  0  0  0  0  0  0  0  0  0
    0.2010   14.6660    0.0960 C   0  0  0  0  0  0  0  0  0  0  0  0
   -4.4240   14.7240   -0.1890 C   0  0  0  0  0  0  0  0  0  0  0  0
   -3.5020   14.7340   -2.4020 C   0  0  0  0  0  0  0  0  0  0  0  0
   -4.7970   14.7940   -2.9100 C   0  0  0  0  0  0  0  0  0  0  0  0
   -5.6900   14.7710   -0.6520 C   0  0  0  0  0  0  0  0  0  0  0  0
   -6.6970   14.7690    0.3370 N   0  0  0  0  0  0  0  0  0  0  0  0
   -5.9020   14.8110   -2.0360 C   0  0  0  0  0  0  0  0  0  0  0  0
   -7.9950   14.6680    0.0400 N   0  0  0  0  0  0  0  0  0  0  0  0
   -6.4920   14.8650    1.7030 C   0  0  0  0  0  0  0  0  0  0  0  0
   -7.7140   14.8420    2.3200 C   0  0  0  0  0  0  0  0  0  0  0  0
   -8.6080   14.7090    1.2290 C   0  0  0  0  0  0  0  0  0  0  0  0
   -7.9930   14.9430    3.7870 C   0  0  0  0  0  0  0  0  0  0  0  0
  -10.0790   14.6140    1.2700 C   0  0  0  0  0  0  0  0  0  0  0  0
   -8.5960   13.7390    4.3510 N   0  0  0  0  0  0  0  0  0  0  0  0
  -10.4120   13.2300    0.9450 N   0  0  0  0  0  0  0  0  0  0  0  0
   -8.3290   13.6230    5.7790 C   0  0  0  0  0  0  0  0  0  0  0  0
  1  2  2  0
  2  3  1  0
  3  4  1  0
  4  5  2  0
  4  6  1  0
  5  7  1  0
  6  8  2  0
  6  9  1  0
  8 10  1  0
  7 11  2  0
  8 11  1  0
  9 12  2  0
  9 13  1  0
 13 14  2  0
 12 15  1  0
 15 16  1  0
 14 17  1  0
 15 17  2  0
 16 18  1  0
 16 19  1  0
 19 20  2  0
 18 21  2  0
 20 21  1  0
 20 22  1  0
 21 23  1  0
 22 24  1  0
 23 25  1  0
 24 26  1  0
M  END
