x0290_0_A-x1012_0_A
     RDKit          3D

 25 26  0  0  0  0  0  0  0  0999 V2000
   -7.8240   13.7990    0.9930 N   0  0  0  0  0  0  0  0  0  0  0  0
   -8.6190   14.9790    0.6870 C   0  0  0  0  0  0  0  0  0  0  0  0
   -6.6160   14.1120    1.7900 C   0  0  0  0  0  0  0  0  0  0  0  0
   -5.4220   14.5950    0.9490 C   0  0  0  0  0  0  0  0  0  0  0  0
   -5.4790   14.7470   -0.2760 O   0  0  0  0  0  0  0  0  0  0  0  0
   -4.2230   14.8660    1.5600 N   0  0  0  0  0  0  0  0  0  0  0  0
   -2.9550   14.6520    1.0400 C   0  0  0  0  0  0  0  0  0  0  0  0
   -1.8220   14.7530    1.7660 N   0  0  0  0  0  0  0  0  0  0  0  0
   -2.9340   14.3200   -0.2900 C   0  0  0  0  0  0  0  0  0  0  0  0
   -0.6440   14.5200    1.1430 C   0  0  0  0  0  0  0  0  0  0  0  0
   -1.7360   14.0770   -0.9230 C   0  0  0  0  0  0  0  0  0  0  0  0
   -1.7920   13.7090   -2.3710 C   0  0  0  0  0  0  0  0  0  0  0  0
   -0.5490   14.1810   -0.1920 C   0  0  0  0  0  0  0  0  0  0  0  0
   -0.8600   14.5510   -3.1960 C   0  0  2  0  0  0  0  0  0  0  0  0
   -1.3620   14.8480   -4.6020 C   0  0  0  0  0  0  0  0  0  0  0  0
    0.6070   14.1150   -3.1970 C   0  0  1  0  0  0  0  0  0  0  0  0
    0.8450   12.6540   -2.8670 C   0  0  0  0  0  0  0  0  0  0  0  0
    1.2930   14.5200   -4.4990 C   0  0  0  0  0  0  0  0  0  0  0  0
   -0.6310   16.0190   -5.0710 N   0  0  0  0  0  0  0  0  0  0  0  0
   -1.2590   17.2220   -4.8470 C   0  0  0  0  0  0  0  0  0  0  0  0
    0.0520   11.7620   -3.4970 O   0  0  0  0  0  0  0  0  0  0  0  0
    1.6870   12.2960   -2.0830 O   0  0  0  0  0  0  0  0  0  0  0  0
    0.8310   15.8960   -4.9760 C   0  0  0  0  0  0  0  0  0  0  0  0
   -0.4540   18.3010   -4.7670 N   0  0  0  0  0  0  0  0  0  0  0  0
   -2.4640   17.3720   -4.7120 O   0  0  0  0  0  0  0  0  0  0  0  0
  1  2  1  0
  1  3  1  0
  3  4  1  0
  4  5  2  0
  4  6  1  0
  6  7  1  0
  7  8  2  0
  7  9  1  0
  8 10  1  0
  9 11  2  0
 11 12  1  0
 10 13  2  0
 11 13  1  0
 14 12  1  6
 14 15  1  0
 14 16  1  0
 16 17  1  6
 16 18  1  0
 15 19  1  0
 19 20  1  0
 17 21  1  0
 17 22  2  0
 18 23  1  0
 19 23  1  0
 20 24  1  0
 20 25  2  0
M  END
