x0290_0_A-x0421_0_A
     RDKit          3D

 23 25  0  0  0  0  0  0  0  0999 V2000
   -7.4510   13.0170    1.5520 N   0  0  0  0  0  0  0  0  0  0  0  0
   -8.5200   13.8960    2.0260 C   0  0  0  0  0  0  0  0  0  0  0  0
   -6.2110   13.2110    2.3390 C   0  0  0  0  0  0  0  0  0  0  0  0
   -4.9450   13.1660    1.4890 C   0  0  0  0  0  0  0  0  0  0  0  0
   -5.0000   12.6310    0.3740 O   0  0  0  0  0  0  0  0  0  0  0  0
   -3.7390   13.6850    1.8750 N   0  0  0  0  0  0  0  0  0  0  0  0
   -2.6020   14.0530    1.1650 C   0  0  0  0  0  0  0  0  0  0  0  0
   -1.4730   14.2640    1.8750 N   0  0  0  0  0  0  0  0  0  0  0  0
   -2.6100   14.2000   -0.1770 C   0  0  0  0  0  0  0  0  0  0  0  0
   -0.3490   14.6160    1.2050 C   0  0  0  0  0  0  0  0  0  0  0  0
   -1.4690   14.5750   -0.8580 C   0  0  0  0  0  0  0  0  0  0  0  0
   -1.7150   14.7150   -2.2830 C   0  0  0  0  0  0  0  0  0  0  0  0
   -0.2870   14.7880   -0.1660 C   0  0  0  0  0  0  0  0  0  0  0  0
   -2.9740   15.0450   -2.6440 C   0  0  0  0  0  0  0  0  0  0  0  0
   -3.4160   15.2360   -3.9480 N   0  0  0  0  0  0  0  0  0  0  0  0
   -3.9440   15.2080   -1.5640 C   0  0  0  0  0  0  0  0  0  0  0  0
   -3.7190   15.6070   -0.2550 C   0  0  0  0  0  0  0  0  0  0  0  0
   -5.2850   14.9440   -1.7540 N   0  0  0  0  0  0  0  0  0  0  0  0
   -4.9250   15.5790    0.3450 N   0  0  0  0  0  0  0  0  0  0  0  0
   -5.8330   15.1780   -0.5730 C   0  0  0  0  0  0  0  0  0  0  0  0
   -7.3260   15.0240   -0.2230 C   0  0  0  0  0  0  0  0  0  0  0  0
   -8.3280   15.7470   -1.0690 C   0  0  0  0  0  0  0  0  0  0  0  0
   -8.2470   14.2470   -1.1120 C   0  0  0  0  0  0  0  0  0  0  0  0
  1  2  1  0
  1  3  1  0
  3  4  1  0
  4  5  2  0
  4  6  1  0
  6  7  1  0
  7  8  2  0
  7  9  1  0
  8 10  1  0
  9 11  2  0
 11 12  1  0
 10 13  2  0
 11 13  1  0
 12 14  2  3
 14 15  1  0
 14 16  1  0
 16 17  2  0
 16 18  1  0
 17 19  1  0
 18 20  2  0
 19 20  1  0
 20 21  1  0
 21 22  1  0
 21 23  1  0
 22 23  1  0
M  END
