x0299_0_A_α-x0918_2_A_α
     RDKit          3D

 17 18  0  0  0  0  0  0  0  0999 V2000
   14.1220    8.3890   12.2470 N   0  0  0  0  0  0  0  0  0  0  0  0
   14.8790    8.4390   13.3770 C   0  0  0  0  0  0  0  0  0  0  0  0
   16.0830    8.6630   13.2900 O   0  0  0  0  0  0  0  0  0  0  0  0
   14.5800    8.5420   10.8820 C   0  0  0  0  0  0  0  0  0  0  0  0
   14.1770    8.2080   14.7050 C   0  0  0  0  0  0  0  0  0  0  0  0
   14.7520    7.1920   10.2770 C   0  0  0  0  0  0  0  0  0  0  0  0
   15.0770    7.5530   15.7530 C   0  0  0  0  0  0  0  0  0  0  0  0
   14.5750    6.0570   11.0130 N   0  0  0  0  0  0  0  0  0  0  0  0
   15.0810    6.8950    9.0280 N   0  0  0  0  0  0  0  0  0  0  0  0
   15.8420    8.5730   16.5850 C   0  0  0  0  0  0  0  0  0  0  0  0
   15.1260    5.5200    8.9730 C   0  0  0  0  0  0  0  0  0  0  0  0
   14.8090    4.9900   10.2030 C   0  0  0  0  0  0  0  0  0  0  0  0
   14.7630    3.6540   10.4830 C   0  0  0  0  0  0  0  0  0  0  0  0
   15.4280    4.6410    7.9190 C   0  0  0  0  0  0  0  0  0  0  0  0
   14.4300    3.2750   11.7710 N   0  0  0  0  0  0  0  0  0  0  0  0
   15.0580    2.7700    9.4370 C   0  0  0  0  0  0  0  0  0  0  0  0
   15.3890    3.2570    8.1670 C   0  0  0  0  0  0  0  0  0  0  0  0
  1  2  1  0
  2  3  2  0
  1  4  1  0
  2  5  1  0
  4  6  1  0
  5  7  1  0
  6  8  1  0
  6  9  2  0
  7 10  1  0
  9 11  1  0
  8 12  1  0
 11 12  2  0
 12 13  1  0
 11 14  1  0
 13 15  1  0
 13 16  2  0
 14 17  2  0
 16 17  1  0
M  END
