x0301_0_B-x0933_4_B
     RDKit          3D

 21 22  0  0  0  0  0  0  0  0999 V2000
   18.6520   28.5080    5.3590 N   0  0  0  0  0  0  0  0  0  0  0  0
   19.5520   27.6740    4.7780 C   0  0  0  0  0  0  0  0  0  0  0  0
   19.8870   27.6580    3.6010 O   0  0  0  0  0  0  0  0  0  0  0  0
   18.2670   29.7250    4.8770 C   0  0  0  0  0  0  0  0  0  0  0  0
   20.1640   26.6850    5.7630 C   0  0  0  0  0  0  0  0  0  0  0  0
   18.5760   30.0730    3.5840 N   0  0  0  0  0  0  0  0  0  0  0  0
   17.5950   30.6660    5.5160 N   0  0  0  0  0  0  0  0  0  0  0  0
   21.5580   27.1250    6.1930 C   0  0  0  0  0  0  0  0  0  0  0  0
   20.1690   25.2820    5.1830 C   0  0  0  0  0  0  0  0  0  0  0  0
   17.5020   31.6040    4.5680 N   0  0  0  0  0  0  0  0  0  0  0  0
   18.0750   31.2890    3.3930 N   0  0  0  0  0  0  0  0  0  0  0  0
   16.8380   32.8650    4.7930 C   0  0  0  0  0  0  0  0  0  0  0  0
   17.5850   33.8040    5.7380 C   0  0  0  0  0  0  0  0  0  0  0  0
   16.8800   34.0190    7.0770 C   0  0  0  0  0  0  0  0  0  0  0  0
   17.4470   33.1130    8.0710 N   0  0  0  0  0  0  0  0  0  0  0  0
   16.7310   31.8810    8.2540 C   0  0  0  0  0  0  0  0  0  0  0  0
   17.5970   30.8940    8.8350 N   0  0  0  0  0  0  0  0  0  0  0  0
   16.2440   31.5080    6.9560 N   0  0  0  0  0  0  0  0  0  0  0  0
   16.9460   29.5850    8.8950 C   0  0  0  0  0  0  0  0  0  0  0  0
   15.6830   30.1590    6.8600 C   0  0  0  0  0  0  0  0  0  0  0  0
   16.5950   29.1340    7.4910 C   0  0  0  0  0  0  0  0  0  0  0  0
  1  2  1  0
  2  3  2  0
  1  4  1  0
  2  5  1  0
  4  6  1  0
  4  7  2  0
  5  8  1  0
  5  9  1  0
  7 10  1  0
  6 11  2  0
 10 11  1  0
 10 12  1  0
 12 13  1  0
 13 14  1  0
 14 15  1  0
 15 16  1  0
 16 17  1  0
 16 18  1  0
 17 19  1  0
 18 20  1  0
 19 21  1  0
 20 21  1  0
M  END
