x0301_0_B-x0933_4_B
     RDKit          3D

 21 22  0  0  0  0  0  0  0  0999 V2000
   18.6590   28.5100    5.3620 N   0  0  0  0  0  0  0  0  0  0  0  0
   19.5540   27.6680    4.7780 C   0  0  0  0  0  0  0  0  0  0  0  0
   19.8830   27.6480    3.5980 O   0  0  0  0  0  0  0  0  0  0  0  0
   18.2700   29.7240    4.8770 C   0  0  0  0  0  0  0  0  0  0  0  0
   20.1680   26.6800    5.7620 C   0  0  0  0  0  0  0  0  0  0  0  0
   18.5690   30.0700    3.5830 N   0  0  0  0  0  0  0  0  0  0  0  0
   17.6020   30.6690    5.5200 N   0  0  0  0  0  0  0  0  0  0  0  0
   21.5480   27.1410    6.2180 C   0  0  0  0  0  0  0  0  0  0  0  0
   20.1990   25.2820    5.1680 C   0  0  0  0  0  0  0  0  0  0  0  0
   17.5030   31.6050    4.5700 N   0  0  0  0  0  0  0  0  0  0  0  0
   18.0690   31.2850    3.3910 N   0  0  0  0  0  0  0  0  0  0  0  0
   16.8410   32.8660    4.7940 C   0  0  0  0  0  0  0  0  0  0  0  0
   17.5860   33.8070    5.7420 C   0  0  0  0  0  0  0  0  0  0  0  0
   16.8780   34.0180    7.0790 C   0  0  0  0  0  0  0  0  0  0  0  0
   17.4440   33.1110    8.0710 N   0  0  0  0  0  0  0  0  0  0  0  0
   16.7260   31.8810    8.2520 C   0  0  0  0  0  0  0  0  0  0  0  0
   17.5930   30.8970    8.8360 N   0  0  0  0  0  0  0  0  0  0  0  0
   16.2450   31.5080    6.9520 N   0  0  0  0  0  0  0  0  0  0  0  0
   16.9420   29.5890    8.8960 C   0  0  0  0  0  0  0  0  0  0  0  0
   15.6830   30.1600    6.8560 C   0  0  0  0  0  0  0  0  0  0  0  0
   16.5980   29.1370    7.4920 C   0  0  0  0  0  0  0  0  0  0  0  0
  1  2  1  0
  2  3  2  0
  1  4  1  0
  2  5  1  0
  4  6  1  0
  4  7  2  0
  5  8  1  0
  5  9  1  0
  7 10  1  0
  6 11  2  0
 10 11  1  0
 10 12  1  0
 12 13  1  0
 13 14  1  0
 14 15  1  0
 15 16  1  0
 16 17  1  0
 16 18  1  0
 17 19  1  0
 18 20  1  0
 19 21  1  0
 20 21  1  0
M  END
