x0301_0_B-x0729_1_B
     RDKit          3D

 23 25  0  0  0  0  0  0  0  0999 V2000
   18.6270   28.8490    3.9290 N   0  0  0  0  0  0  0  0  0  0  0  0
   19.5000   28.1380    4.8040 C   0  0  2  0  0  0  0  0  0  0  0  0
   20.7680   28.7570    5.1470 N   0  0  0  0  0  0  0  0  0  0  0  0
   18.2550   30.1150    4.1850 C   0  0  0  0  0  0  0  0  0  0  0  0
   19.7720   26.6320    4.5220 C   0  0  1  0  0  0  0  0  0  0  0  0
   18.7890   31.1210    3.4330 N   0  0  0  0  0  0  0  0  0  0  0  0
   17.3700   30.5520    5.0900 N   0  0  0  0  0  0  0  0  0  0  0  0
   21.0390   26.4010    3.7500 C   0  0  0  0  0  0  0  0  0  0  0  0
   19.9630   25.9700    5.8710 C   0  0  0  0  0  0  0  0  0  0  0  0
   21.7040   28.3770    4.0690 N   0  0  0  0  0  0  0  0  0  0  0  0
   17.3870   31.8610    4.8220 N   0  0  0  0  0  0  0  0  0  0  0  0
   18.2230   32.2440    3.8500 N   0  0  0  0  0  0  0  0  0  0  0  0
   21.1190   28.1390    6.4280 C   0  0  2  0  0  0  0  0  0  0  0  0
   16.5530   32.7910    5.5280 C   0  0  0  0  0  0  0  0  0  0  0  0
   22.4420   27.3840    6.4320 C   0  0  0  0  0  0  0  0  0  0  0  0
   20.0400   27.1110    6.8700 C   0  0  2  0  0  0  0  0  0  0  0  0
   20.1740   26.7040    8.2710 N   0  0  0  0  0  0  0  0  0  0  0  0
   22.6660   26.7000    7.7730 C   0  0  0  0  0  0  0  0  0  0  0  0
   18.8840   27.2190    9.2380 S   0  0  0  0  0  0  0  0  0  0  0  0
   21.5510   26.8740    8.8110 C   0  0  0  0  0  0  0  0  0  0  0  0
   19.4080   28.1680   10.1940 O   0  0  0  0  0  0  0  0  0  0  0  0
   18.1300   26.0590    9.6520 O   0  0  0  0  0  0  0  0  0  0  0  0
   17.8420   28.1360    8.1110 C   0  0  0  0  0  0  0  0  0  0  0  0
  2  1  1  6
  2  3  1  0
  1  4  1  0
  2  5  1  0
  4  6  1  0
  4  7  2  0
  5  8  1  6
  5  9  1  0
  3 10  1  0
  7 11  1  0
  6 12  2  0
 11 12  1  0
  3 13  1  0
 11 14  1  0
 13 15  1  6
 16  9  1  6
 13 16  1  0
 16 17  1  0
 15 18  1  0
 17 19  1  0
 17 20  1  0
 18 20  1  0
 19 21  2  0
 19 22  2  0
 19 23  1  0
M  END
