x0301_0_B-x0259_0_A
     RDKit          3D

 24 26  0  0  0  0  0  0  0  0999 V2000
   18.3130   29.0880    6.0420 N   0  0  0  0  0  0  0  0  0  0  0  0
   19.6540   28.6950    6.0300 C   0  0  0  0  0  0  0  0  0  0  0  0
   20.4260   29.2480    5.2400 O   0  0  0  0  0  0  0  0  0  0  0  0
   18.0120   30.2540    5.3430 C   0  0  0  0  0  0  0  0  0  0  0  0
   17.4900   28.8450    7.2190 C   0  0  1  0  0  0  0  0  0  0  0  0
   20.2700   27.5850    6.9550 C   0  0  0  0  0  0  0  0  0  0  0  0
   18.4640   30.5670    4.0840 N   0  0  0  0  0  0  0  0  0  0  0  0
   17.2320   31.2100    5.8490 N   0  0  0  0  0  0  0  0  0  0  0  0
   17.8910   29.5800    8.4930 C   0  0  0  0  0  0  0  0  0  0  0  0
   16.0280   29.2340    7.0610 C   0  0  0  0  0  0  0  0  0  0  0  0
   21.4710   27.0440    6.1140 C   0  0  0  0  0  0  0  0  0  0  0  0
   19.3450   26.3670    7.1240 C   0  0  0  0  0  0  0  0  0  0  0  0
   20.7790   28.0460    8.3320 C   0  0  0  0  0  0  0  0  0  0  0  0
   17.2390   32.0950    4.8520 N   0  0  0  0  0  0  0  0  0  0  0  0
   17.9580   31.7550    3.7750 N   0  0  0  0  0  0  0  0  0  0  0  0
   15.9470   30.5880    7.5160 O   0  0  0  0  0  0  0  0  0  0  0  0
   16.8800   30.7160    8.5930 C   0  0  0  0  0  0  0  0  0  0  0  0
   16.5140   33.3240    4.9450 C   0  0  0  0  0  0  0  0  0  0  0  0
   21.2140   27.0950    4.6350 C   0  0  0  0  0  0  0  0  0  0  0  0
   22.2070   27.1280    3.6790 C   0  0  0  0  0  0  0  0  0  0  0  0
   19.9270   27.1180    4.1340 C   0  0  0  0  0  0  0  0  0  0  0  0
   19.6340   27.1700    2.8250 N   0  0  0  0  0  0  0  0  0  0  0  0
   21.9670   27.1800    2.3520 N   0  0  0  0  0  0  0  0  0  0  0  0
   20.6760   27.2000    1.9960 C   0  0  0  0  0  0  0  0  0  0  0  0
  1  2  1  0
  2  3  2  0
  1  4  1  0
  5  1  1  6
  6  2  1  0
  4  7  1  0
  4  8  2  0
  5  9  1  0
  5 10  1  0
  6 11  1  0
  6 12  1  0
  6 13  1  0
  8 14  1  0
  7 15  2  0
 14 15  1  0
 10 16  1  0
  9 17  1  0
 16 17  1  0
 14 18  1  0
 11 19  1  0
 19 20  2  0
 19 21  1  0
 21 22  2  0
 20 23  1  0
 22 24  1  0
 23 24  2  0
M  END
