x0301_0_B_α-x0216_0_A_α
     RDKit          3D

 23 24  0  0  0  0  0  0  0  0999 V2000
   18.7050   29.2310    5.8820 N   0  0  0  0  0  0  0  0  0  0  0  0
   19.4230   27.9190    5.5070 C   0  0  2  0  0  0  0  0  0  0  0  0
   18.9180   27.4160    4.2520 O   0  0  0  0  0  0  0  0  0  0  0  0
   17.7230   29.4970    7.0130 C   0  0  0  0  0  0  0  0  0  0  0  0
   18.2820   30.1700    4.9980 C   0  0  0  0  0  0  0  0  0  0  0  0
   19.4640   26.7840    6.6460 C   0  0  0  0  0  0  0  0  0  0  0  0
   16.3960   28.7400    7.0030 C   0  0  0  0  0  0  0  0  0  0  0  0
   18.2710   29.8020    8.3900 C   0  0  0  0  0  0  0  0  0  0  0  0
   18.6060   30.2950    3.6650 N   0  0  0  0  0  0  0  0  0  0  0  0
   17.4410   31.1290    5.3890 N   0  0  0  0  0  0  0  0  0  0  0  0
   20.9940   27.8030    5.4030 C   0  0  2  0  0  0  0  0  0  0  0  0
   20.7240   26.9660    7.5100 C   0  0  0  0  0  0  0  0  0  0  0  0
   19.5330   25.3090    6.2040 C   0  0  0  0  0  0  0  0  0  0  0  0
   18.3950   27.0320    7.5930 O   0  0  0  0  0  0  0  0  0  0  0  0
   17.2790   31.8240    4.2830 N   0  0  0  0  0  0  0  0  0  0  0  0
   17.9500   31.3700    3.2180 N   0  0  0  0  0  0  0  0  0  0  0  0
   21.8670   28.7840    4.6200 C   0  0  0  0  0  0  0  0  0  0  0  0
   21.4280   26.3830    4.9210 C   0  0  0  0  0  0  0  0  0  0  0  0
   16.4330   32.9870    4.2570 C   0  0  0  0  0  0  0  0  0  0  0  0
   23.2580   28.1700    4.5640 C   0  0  0  0  0  0  0  0  0  0  0  0
   22.9210   26.5300    3.9910 S   0  0  0  0  0  0  0  0  0  0  0  0
   22.5890   26.6110    2.5920 O   0  0  0  0  0  0  0  0  0  0  0  0
   23.8910   25.5900    4.5220 O   0  0  0  0  0  0  0  0  0  0  0  0
  1  2  1  0
  2  3  1  6
  1  4  1  0
  1  5  1  0
  2  6  1  0
  4  7  1  0
  4  8  1  0
  5  9  1  0
  5 10  2  0
  2 11  1  0
  6 12  1  0
  6 13  1  0
  6 14  1  0
 10 15  1  0
  9 16  2  0
 15 16  1  0
 11 17  1  6
 11 18  1  0
 15 19  1  0
 17 20  1  0
 21 18  1  0
 20 21  1  0
 21 22  2  0
 21 23  2  0
M  END
