x0301_0_B_α-x0423_0_B_α
     RDKit          3D

 32 34  0  0  0  0  0  0  0  0999 V2000
   18.5950   28.6940    5.5320 N   0  0  0  0  0  0  0  0  0  0  0  0
   19.4400   27.7470    5.0770 C   0  0  0  0  0  0  0  0  0  0  0  0
   19.6350   27.7660    3.8500 O   0  0  0  0  0  0  0  0  0  0  0  0
   18.1410   29.8710    5.0350 C   0  0  0  0  0  0  0  0  0  0  0  0
   20.1590   26.6910    5.9430 C   0  0  0  0  0  0  0  0  0  0  0  0
   18.4430   30.4130    3.8200 N   0  0  0  0  0  0  0  0  0  0  0  0
   17.3070   30.6340    5.7510 N   0  0  0  0  0  0  0  0  0  0  0  0
   21.6280   27.1530    6.1370 C   0  0  0  0  0  0  0  0  0  0  0  0
   20.2510   25.3820    5.1410 C   0  0  0  0  0  0  0  0  0  0  0  0
   19.5070   26.4610    7.3360 C   0  0  0  0  0  0  0  0  0  0  0  0
   17.1320   31.6580    4.8990 N   0  0  0  0  0  0  0  0  0  0  0  0
   17.7910   31.5630    3.7370 N   0  0  0  0  0  0  0  0  0  0  0  0
   16.2930   32.7800    5.2160 C   0  0  0  0  0  0  0  0  0  0  0  0
   19.1450   25.0260    7.7490 C   0  0  0  0  0  0  0  0  0  0  0  0
   19.1670   24.7700    9.2490 C   0  0  0  0  0  0  0  0  0  0  0  0
   18.0580   23.8050    9.6600 C   0  0  0  0  0  0  0  0  0  0  0  0
   16.8480   24.4890   10.2810 C   0  0  0  0  0  0  0  0  0  0  0  0
   17.0160   24.8960   11.7530 C   0  0  0  0  0  0  0  0  0  0  0  0
   16.1780   24.1720   12.8390 C   0  0  2  0  0  0  0  0  0  0  0  0
   14.9810   23.3530   12.3110 C   0  0  0  0  0  0  0  0  0  0  0  0
   15.9270   25.0550   14.0940 C   0  0  0  0  0  0  0  0  0  0  0  0
   14.5350   24.9770   14.7790 C   0  0  1  0  0  0  0  0  0  0  0  0
   14.1510   22.9720   13.4270 N   0  0  0  0  0  0  0  0  0  0  0  0
   14.0740   26.3170   15.1850 N   0  0  0  0  0  0  0  0  0  0  0  0
   13.4660   24.1000   14.0550 C   0  0  0  0  0  0  0  0  0  0  0  0
   13.4860   21.7360   13.3150 C   0  0  0  0  0  0  0  0  0  0  0  0
   12.7120   26.3840   15.6790 C   0  0  0  0  0  0  0  0  0  0  0  0
   12.4140   21.4060   14.1360 C   0  0  0  0  0  0  0  0  0  0  0  0
   13.8990   20.8350   12.3960 N   0  0  0  0  0  0  0  0  0  0  0  0
   13.2950   19.6140   12.2540 N   0  0  0  0  0  0  0  0  0  0  0  0
   11.7970   20.1710   14.0040 C   0  0  0  0  0  0  0  0  0  0  0  0
   12.2640   19.3010   13.0520 C   0  0  0  0  0  0  0  0  0  0  0  0
  1  2  1  0
  2  3  2  0
  1  4  1  0
  5  2  1  0
  4  6  1  0
  4  7  2  0
  5  8  1  0
  5  9  1  0
  5 10  1  0
  7 11  1  0
  6 12  2  0
 11 12  1  0
 11 13  1  0
 10 14  1  0
 14 15  1  0
 15 16  1  0
 16 17  1  0
 17 18  1  0
 19 18  1  6
 19 20  1  0
 19 21  1  0
 21 22  1  0
 20 23  1  0
 22 24  1  6
 22 25  1  0
 23 25  1  0
 23 26  1  0
 24 27  1  0
 26 28  2  0
 26 29  1  0
 29 30  2  0
 28 31  1  0
 30 32  1  0
 31 32  2  0
M  END
