x0301_0_B_α-x0091_0_B_α
     RDKit          3D

 32 34  0  0  0  0  0  0  0  0999 V2000
   18.5080   28.5730    5.7210 N   0  0  0  0  0  0  0  0  0  0  0  0
   19.4290   27.7350    5.1350 C   0  0  0  0  0  0  0  0  0  0  0  0
   19.7700   27.7730    3.9530 O   0  0  0  0  0  0  0  0  0  0  0  0
   18.0630   29.7740    5.2370 C   0  0  0  0  0  0  0  0  0  0  0  0
   20.0360   26.6820    6.1160 C   0  0  0  0  0  0  0  0  0  0  0  0
   18.4350   30.1950    3.9760 N   0  0  0  0  0  0  0  0  0  0  0  0
   17.2720   30.6510    5.8550 N   0  0  0  0  0  0  0  0  0  0  0  0
   21.4200   27.1330    6.6140 C   0  0  0  0  0  0  0  0  0  0  0  0
   20.1960   25.3830    5.2950 C   0  0  0  0  0  0  0  0  0  0  0  0
   19.0560   26.3590    7.3070 C   0  0  0  0  0  0  0  0  0  0  0  0
   17.1830   31.6090    4.9290 N   0  0  0  0  0  0  0  0  0  0  0  0
   17.8590   31.3800    3.7890 N   0  0  0  0  0  0  0  0  0  0  0  0
   16.4190   32.8040    5.1420 C   0  0  0  0  0  0  0  0  0  0  0  0
   19.5180   26.4450    8.7780 C   0  0  0  0  0  0  0  0  0  0  0  0
   18.3060   26.7330    9.6930 C   0  0  0  0  0  0  0  0  0  0  0  0
   18.0860   25.8240   10.9230 C   0  0  0  0  0  0  0  0  0  0  0  0
   17.0660   24.6970   10.7190 C   0  0  0  0  0  0  0  0  0  0  0  0
   16.3400   24.2800   11.9910 C   0  0  2  0  0  0  0  0  0  0  0  0
   16.7350   22.9640   12.5830 C   0  0  0  0  0  0  0  0  0  0  0  0
   15.3840   23.1020   11.9280 C   0  0  1  0  0  0  0  0  0  0  0  0
   14.2520   22.8260   12.7810 N   0  0  0  0  0  0  0  0  0  0  0  0
   13.7130   21.5500   12.7070 C   0  0  0  0  0  0  0  0  0  0  0  0
   12.7890   21.1730   13.6780 N   0  0  0  0  0  0  0  0  0  0  0  0
   14.0480   20.7710   11.8170 O   0  0  0  0  0  0  0  0  0  0  0  0
   12.1950   22.0480   14.6790 C   0  0  0  0  0  0  0  0  0  0  0  0
   12.2680   19.7960   13.6240 C   0  0  0  0  0  0  0  0  0  0  0  0
   13.1820   18.8080   14.2970 C   0  0  0  0  0  0  0  0  0  0  0  0
   12.6830   17.7990   15.0320 N   0  0  0  0  0  0  0  0  0  0  0  0
   14.6000   18.7630   14.2860 C   0  0  0  0  0  0  0  0  0  0  0  0
   13.7750   17.0890   15.5030 O   0  0  0  0  0  0  0  0  0  0  0  0
   14.9180   17.6670   15.0540 C   0  0  0  0  0  0  0  0  0  0  0  0
   16.1830   17.0320   15.4660 C   0  0  0  0  0  0  0  0  0  0  0  0
  1  2  1  0
  2  3  2  0
  1  4  1  0
  5  2  1  0
  4  6  1  0
  4  7  2  0
  5  8  1  0
  5  9  1  0
  5 10  1  0
  7 11  1  0
  6 12  2  0
 11 12  1  0
 11 13  1  0
 10 14  1  0
 14 15  1  0
 15 16  1  0
 16 17  1  0
 18 17  1  6
 18 19  1  0
 18 20  1  0
 19 20  1  0
 20 21  1  1
 21 22  1  0
 22 23  1  0
 22 24  2  0
 23 25  1  0
 23 26  1  0
 26 27  1  0
 27 28  2  0
 27 29  1  0
 28 30  1  0
 29 31  2  0
 30 31  1  0
 31 32  1  0
M  END
