x0301_0_B_α-x0933_4_B_α
     RDKit          3D

 21 22  0  0  0  0  0  0  0  0999 V2000
   18.6690   28.5150    5.3680 N   0  0  0  0  0  0  0  0  0  0  0  0
   19.5530   27.6650    4.7770 C   0  0  0  0  0  0  0  0  0  0  0  0
   19.8700   27.6430    3.5950 O   0  0  0  0  0  0  0  0  0  0  0  0
   18.2710   29.7250    4.8810 C   0  0  0  0  0  0  0  0  0  0  0  0
   20.1720   26.6800    5.7620 C   0  0  0  0  0  0  0  0  0  0  0  0
   18.5480   30.0630    3.5790 N   0  0  0  0  0  0  0  0  0  0  0  0
   17.6120   30.6760    5.5270 N   0  0  0  0  0  0  0  0  0  0  0  0
   21.5540   27.1390    6.2150 C   0  0  0  0  0  0  0  0  0  0  0  0
   20.1920   25.2760    5.1720 C   0  0  0  0  0  0  0  0  0  0  0  0
   17.4980   31.6050    4.5720 N   0  0  0  0  0  0  0  0  0  0  0  0
   18.0440   31.2770    3.3860 N   0  0  0  0  0  0  0  0  0  0  0  0
   16.8390   32.8720    4.7950 C   0  0  0  0  0  0  0  0  0  0  0  0
   17.5850   33.8080    5.7460 C   0  0  0  0  0  0  0  0  0  0  0  0
   16.8790   34.0190    7.0850 C   0  0  0  0  0  0  0  0  0  0  0  0
   17.4460   33.1100    8.0720 N   0  0  0  0  0  0  0  0  0  0  0  0
   16.7280   31.8800    8.2510 C   0  0  0  0  0  0  0  0  0  0  0  0
   17.5960   30.8980    8.8330 N   0  0  0  0  0  0  0  0  0  0  0  0
   16.2450   31.5090    6.9520 N   0  0  0  0  0  0  0  0  0  0  0  0
   16.9470   29.5900    8.8960 C   0  0  0  0  0  0  0  0  0  0  0  0
   15.6860   30.1590    6.8570 C   0  0  0  0  0  0  0  0  0  0  0  0
   16.6020   29.1390    7.4930 C   0  0  0  0  0  0  0  0  0  0  0  0
  1  2  1  0
  2  3  2  0
  1  4  1  0
  2  5  1  0
  4  6  1  0
  4  7  2  0
  5  8  1  0
  5  9  1  0
  7 10  1  0
  6 11  2  0
 10 11  1  0
 10 12  1  0
 12 13  1  0
 13 14  1  0
 14 15  1  0
 15 16  1  0
 16 17  1  0
 16 18  1  0
 17 19  1  0
 18 20  1  0
 19 21  1  0
 20 21  1  0
M  END
