x0301_0_B-x0216_0_A
     RDKit          3D

 23 24  0  0  0  0  0  0  0  0999 V2000
   18.7320   29.1730    5.8840 N   0  0  0  0  0  0  0  0  0  0  0  0
   19.5040   27.8670    5.5600 C   0  0  2  0  0  0  0  0  0  0  0  0
   19.0810   27.3110    4.3090 O   0  0  0  0  0  0  0  0  0  0  0  0
   17.7570   29.4640    7.0160 C   0  0  0  0  0  0  0  0  0  0  0  0
   18.3160   30.1090    4.9920 C   0  0  0  0  0  0  0  0  0  0  0  0
   19.5010   26.7460    6.6990 C   0  0  0  0  0  0  0  0  0  0  0  0
   16.4220   28.7180    7.0250 C   0  0  0  0  0  0  0  0  0  0  0  0
   18.3050   29.7940    8.3840 C   0  0  0  0  0  0  0  0  0  0  0  0
   18.6390   30.2360    3.6590 N   0  0  0  0  0  0  0  0  0  0  0  0
   17.4780   31.0760    5.3830 N   0  0  0  0  0  0  0  0  0  0  0  0
   21.0780   27.7900    5.4850 C   0  0  2  0  0  0  0  0  0  0  0  0
   20.7450   26.9030    7.5860 C   0  0  0  0  0  0  0  0  0  0  0  0
   19.5380   25.2690    6.2520 C   0  0  0  0  0  0  0  0  0  0  0  0
   18.4130   27.0210    7.6200 O   0  0  0  0  0  0  0  0  0  0  0  0
   17.3170   31.7730    4.2770 N   0  0  0  0  0  0  0  0  0  0  0  0
   17.9860   31.3170    3.2130 N   0  0  0  0  0  0  0  0  0  0  0  0
   21.9230   28.7670    4.6690 C   0  0  0  0  0  0  0  0  0  0  0  0
   21.5280   26.3660    5.0340 C   0  0  0  0  0  0  0  0  0  0  0  0
   16.4750   32.9380    4.2570 C   0  0  0  0  0  0  0  0  0  0  0  0
   23.3150   28.1590    4.5600 C   0  0  0  0  0  0  0  0  0  0  0  0
   22.9600   26.5150    4.0120 S   0  0  0  0  0  0  0  0  0  0  0  0
   22.5500   26.5860    2.6330 O   0  0  0  0  0  0  0  0  0  0  0  0
   23.9620   25.5820    4.4930 O   0  0  0  0  0  0  0  0  0  0  0  0
  1  2  1  0
  2  3  1  6
  1  4  1  0
  1  5  1  0
  2  6  1  0
  4  7  1  0
  4  8  1  0
  5  9  1  0
  5 10  2  0
  2 11  1  0
  6 12  1  0
  6 13  1  0
  6 14  1  0
 10 15  1  0
  9 16  2  0
 15 16  1  0
 11 17  1  6
 11 18  1  0
 15 19  1  0
 17 20  1  0
 21 18  1  0
 20 21  1  0
 21 22  2  0
 21 23  2  0
M  END
