x0301_0_B-x0729_0_A
     RDKit          3D

 23 25  0  0  0  0  0  0  0  0999 V2000
   18.6190   28.7700    4.0220 N   0  0  0  0  0  0  0  0  0  0  0  0
   19.6780   28.2140    4.7730 C   0  0  2  0  0  0  0  0  0  0  0  0
   20.9560   28.8870    4.8200 N   0  0  0  0  0  0  0  0  0  0  0  0
   18.2210   30.0360    4.2440 C   0  0  0  0  0  0  0  0  0  0  0  0
   19.8770   26.6760    4.7910 C   0  0  1  0  0  0  0  0  0  0  0  0
   18.7180   31.0260    3.4440 N   0  0  0  0  0  0  0  0  0  0  0  0
   17.3480   30.4960    5.1530 N   0  0  0  0  0  0  0  0  0  0  0  0
   21.1080   26.1540    4.0960 C   0  0  0  0  0  0  0  0  0  0  0  0
   20.0390   26.3770    6.2540 C   0  0  0  0  0  0  0  0  0  0  0  0
   21.8030   28.3110    3.7580 N   0  0  0  0  0  0  0  0  0  0  0  0
   17.3380   31.7940    4.8370 N   0  0  0  0  0  0  0  0  0  0  0  0
   18.1440   32.1560    3.8310 N   0  0  0  0  0  0  0  0  0  0  0  0
   21.4010   28.5720    6.1830 C   0  0  2  0  0  0  0  0  0  0  0  0
   16.5050   32.7410    5.5270 C   0  0  0  0  0  0  0  0  0  0  0  0
   22.7220   27.8240    6.2860 C   0  0  0  0  0  0  0  0  0  0  0  0
   20.3400   27.7080    6.9530 C   0  0  2  0  0  0  0  0  0  0  0  0
   20.6760   27.4920    8.3630 N   0  0  0  0  0  0  0  0  0  0  0  0
   23.1160   27.6560    7.7470 C   0  0  0  0  0  0  0  0  0  0  0  0
   19.3850   27.0950    9.3750 S   0  0  0  0  0  0  0  0  0  0  0  0
   22.0510   27.0080    8.6400 C   0  0  0  0  0  0  0  0  0  0  0  0
   18.2770   26.6530    8.5480 O   0  0  0  0  0  0  0  0  0  0  0  0
   19.2190   28.1740   10.3200 O   0  0  0  0  0  0  0  0  0  0  0  0
   19.9940   25.6760   10.2550 C   0  0  0  0  0  0  0  0  0  0  0  0
  2  1  1  6
  2  3  1  0
  1  4  1  0
  2  5  1  0
  4  6  1  0
  4  7  2  0
  5  8  1  6
  5  9  1  0
  3 10  1  0
  7 11  1  0
  6 12  2  0
 11 12  1  0
  3 13  1  0
 11 14  1  0
 13 15  1  6
 16  9  1  6
 13 16  1  0
 16 17  1  0
 15 18  1  0
 17 19  1  0
 17 20  1  0
 18 20  1  0
 19 21  2  0
 19 22  2  0
 19 23  1  0
M  END
