x0334_0_A-x0598_0_A
     RDKit          3D

 26 28  0  0  0  0  0  0  0  0999 V2000
    3.8800   27.2600   17.2060 N   0  0  0  0  0  0  0  0  0  0  0  0
    5.2610   26.9750   17.5600 C   0  0  2  0  0  0  0  0  0  0  0  0
    5.2460   25.8350   18.5600 C   0  0  1  0  0  0  0  0  0  0  0  0
    3.4560   26.5010   16.0400 C   0  0  0  0  0  0  0  0  0  0  0  0
    1.9820   26.2950   16.0390 C   0  0  0  0  0  0  0  0  0  0  0  0
    6.0420   27.9750   18.4200 C   0  0  0  0  0  0  0  0  0  0  0  0
    7.0600   27.0610   19.1630 C   0  0  0  0  0  0  0  0  0  0  0  0
    1.2510   26.4800   17.2120 C   0  0  0  0  0  0  0  0  0  0  0  0
    1.3110   25.9260   14.8920 C   0  0  0  0  0  0  0  0  0  0  0  0
    4.4470   24.7320   18.1510 N   0  0  0  0  0  0  0  0  0  0  0  0
    6.7360   25.6650   18.6000 C   0  0  2  0  0  0  0  0  0  0  0  0
   -0.1320   26.3000   17.2170 C   0  0  0  0  0  0  0  0  0  0  0  0
   -0.0670   25.7480   14.9040 C   0  0  0  0  0  0  0  0  0  0  0  0
    4.7830   24.4420   16.7980 C   0  0  0  0  0  0  0  0  0  0  0  0
    7.2580   25.3270   17.2070 C   0  0  1  0  0  0  0  0  0  0  0  0
   -0.8320   25.9290   16.0590 C   0  0  0  0  0  0  0  0  0  0  0  0
    8.5910   24.6250   17.0060 C   0  0  0  0  0  0  0  0  0  0  0  0
    6.1510   24.8720   16.2320 C   0  0  0  0  0  0  0  0  0  0  0  0
   -2.2090   25.7510   16.0470 N   0  0  0  0  0  0  0  0  0  0  0  0
    8.9990   24.7600   15.6200 N   0  0  0  0  0  0  0  0  0  0  0  0
   -3.0220   26.3370   17.1010 C   0  0  0  0  0  0  0  0  0  0  0  0
   -2.8420   25.6200   14.7390 C   0  0  0  0  0  0  0  0  0  0  0  0
   10.6120   24.6460   15.1860 S   0  0  0  0  0  0  0  0  0  0  0  0
   11.2510   22.9920   15.4950 C   0  0  0  0  0  0  0  0  0  0  0  0
   11.3180   25.4630   16.0720 O   0  0  0  0  0  0  0  0  0  0  0  0
   10.6160   24.9360   13.7740 O   0  0  0  0  0  0  0  0  0  0  0  0
  2  1  1  1
  2  3  1  0
  1  4  1  0
  4  5  1  0
  2  6  1  0
  6  7  1  0
  5  8  2  0
  5  9  1  0
  3 10  1  6
  3 11  1  0
 11  7  1  6
  8 12  1  0
  9 13  2  0
 10 14  1  0
 11 15  1  0
 12 16  2  0
 13 16  1  0
 15 17  1  1
 14 18  1  0
 15 18  1  0
 16 19  1  0
 17 20  1  0
 19 21  1  0
 19 22  1  0
 23 20  1  0
 23 24  1  0
 23 25  2  0
 23 26  2  0
M  END
