x0334_0_A_α-x0091_0_B_α
     RDKit          3D

 34 36  0  0  0  0  0  0  0  0999 V2000
    4.3480   25.2770   16.7840 N   0  0  0  0  0  0  0  0  0  0  0  0
    5.6520   25.8940   17.0390 C   0  0  2  0  0  0  0  0  0  0  0  0
    6.8240   25.2010   16.3210 C   0  0  0  0  0  0  0  0  0  0  0  0
    3.5860   26.0760   15.8310 C   0  0  0  0  0  0  0  0  0  0  0  0
    5.9680   26.0010   18.5220 C   0  0  0  0  0  0  0  0  0  0  0  0
    2.0890   26.0350   15.9780 C   0  0  0  0  0  0  0  0  0  0  0  0
    8.2100   25.8510   16.5700 C   0  0  0  0  0  0  0  0  0  0  0  0
    1.4280   26.2150   17.1950 C   0  0  0  0  0  0  0  0  0  0  0  0
    1.3240   25.8100   14.8510 C   0  0  0  0  0  0  0  0  0  0  0  0
    9.3170   24.9200   17.1020 C   0  0  0  0  0  0  0  0  0  0  0  0
    0.0220   26.1630   17.2490 C   0  0  0  0  0  0  0  0  0  0  0  0
   -0.0610   25.7600   14.9110 C   0  0  0  0  0  0  0  0  0  0  0  0
   10.7020   25.0160   16.4300 C   0  0  0  0  0  0  0  0  0  0  0  0
   -0.7610   25.9320   16.1010 C   0  0  0  0  0  0  0  0  0  0  0  0
   -2.1550   25.8660   16.0980 N   0  0  0  0  0  0  0  0  0  0  0  0
   11.3930   23.6320   16.3940 C   0  0  0  0  0  0  0  0  0  0  0  0
   -2.9380   26.4600   17.1760 C   0  0  0  0  0  0  0  0  0  0  0  0
   -2.8150   25.7600   14.7950 C   0  0  0  0  0  0  0  0  0  0  0  0
   12.0030   23.2040   15.0380 C   0  0  0  0  0  0  0  0  0  0  0  0
   12.4820   21.7420   14.9980 C   0  0  0  0  0  0  0  0  0  0  0  0
   12.6050   21.1060   13.6690 N   0  0  0  0  0  0  0  0  0  0  0  0
   12.1720   19.6970   13.6380 C   0  0  0  0  0  0  0  0  0  0  0  0
   13.5990   21.5680   12.8040 C   0  0  0  0  0  0  0  0  0  0  0  0
   13.9980   20.8920   11.8550 O   0  0  0  0  0  0  0  0  0  0  0  0
   14.1100   22.8190   13.0620 N   0  0  0  0  0  0  0  0  0  0  0  0
   13.1480   18.7510   14.2880 C   0  0  0  0  0  0  0  0  0  0  0  0
   12.6760   17.7170   15.0050 N   0  0  0  0  0  0  0  0  0  0  0  0
   14.5700   18.7390   14.2930 C   0  0  0  0  0  0  0  0  0  0  0  0
   15.1110   23.4060   12.2220 C   0  0  0  0  0  0  0  0  0  0  0  0
   13.7780   17.0300   15.4780 O   0  0  0  0  0  0  0  0  0  0  0  0
   14.9090   17.6430   15.0500 C   0  0  0  0  0  0  0  0  0  0  0  0
   16.5690   23.1370   12.4710 C   0  0  0  0  0  0  0  0  0  0  0  0
   16.0010   24.4890   12.7710 C   0  0  0  0  0  0  0  0  0  0  0  0
   16.1840   17.0330   15.4710 C   0  0  0  0  0  0  0  0  0  0  0  0
  1  2  1  0
  2  3  1  0
  1  4  1  0
  2  5  1  1
  4  6  1  0
  3  7  1  0
  6  8  2  0
  6  9  1  0
  7 10  1  0
  8 11  1  0
  9 12  2  0
 10 13  1  0
 11 14  2  0
 12 14  1  0
 14 15  1  0
 13 16  1  0
 15 17  1  0
 15 18  1  0
 16 19  1  0
 19 20  1  0
 20 21  1  0
 21 22  1  0
 21 23  1  0
 23 24  2  0
 23 25  1  0
 22 26  1  0
 26 27  2  0
 26 28  1  0
 25 29  1  0
 27 30  1  0
 28 31  2  0
 30 31  1  0
 29 32  1  0
 29 33  1  0
 32 33  1  0
 31 34  1  0
M  END
