x0334_0_A_α-x0933_3_B_α
     RDKit          3D

 28 29  0  0  0  0  0  0  0  0999 V2000
    4.1140   25.2320   16.7800 N   0  0  0  0  0  0  0  0  0  0  0  0
    5.4690   25.6870   16.9340 C   0  0  0  0  0  0  0  0  0  0  0  0
    6.4920   24.9190   16.1540 C   0  0  0  0  0  0  0  0  0  0  0  0
    3.4160   26.0420   15.8160 C   0  0  0  0  0  0  0  0  0  0  0  0
    5.8820   25.9970   18.3590 C   0  0  0  0  0  0  0  0  0  0  0  0
    1.9450   26.0380   15.9340 C   0  0  0  0  0  0  0  0  0  0  0  0
    1.3100   26.3230   17.1390 C   0  0  0  0  0  0  0  0  0  0  0  0
    1.1820   25.7460   14.8300 C   0  0  0  0  0  0  0  0  0  0  0  0
   -0.0840   26.3120   17.2060 C   0  0  0  0  0  0  0  0  0  0  0  0
   -0.1960   25.7370   14.9010 C   0  0  0  0  0  0  0  0  0  0  0  0
   -0.8690   26.0210   16.0880 C   0  0  0  0  0  0  0  0  0  0  0  0
   -2.2430   26.0100   16.1290 N   0  0  0  0  0  0  0  0  0  0  0  0
   -2.9160   26.0090   17.4200 C   0  0  0  0  0  0  0  0  0  0  0  0
   -2.9650   26.6710   15.0550 C   0  0  0  0  0  0  0  0  0  0  0  0
   -3.4300   28.0980   15.4330 C   0  0  0  0  0  0  0  0  0  0  0  0
   -2.3350   29.1750   15.5880 C   0  0  0  0  0  0  0  0  0  0  0  0
   -1.8410   29.7800   14.2610 C   0  0  0  0  0  0  0  0  0  0  0  0
   -2.5950   31.0570   13.8500 C   0  0  0  0  0  0  0  0  0  0  0  0
   -2.2270   31.5820   12.4480 C   0  0  0  0  0  0  0  0  0  0  0  0
   -1.8040   33.0730   12.3770 C   0  0  0  0  0  0  0  0  0  0  0  0
   -0.4960   33.2620   11.5920 C   0  0  0  0  0  0  0  0  0  0  0  0
    0.0100   34.5980   11.2680 N   0  0  0  0  0  0  0  0  0  0  0  0
   -0.1800   35.0200    9.9000 C   0  0  0  0  0  0  0  0  0  0  0  0
    0.8000   34.5610    8.9680 N   0  0  0  0  0  0  0  0  0  0  0  0
   -0.1940   36.4470    9.8950 N   0  0  0  0  0  0  0  0  0  0  0  0
    1.0780   35.4010    7.8020 C   0  0  0  0  0  0  0  0  0  0  0  0
   -0.6240   37.0260    8.6220 C   0  0  0  0  0  0  0  0  0  0  0  0
   -0.1280   36.2360    7.4230 C   0  0  0  0  0  0  0  0  0  0  0  0
  1  2  1  0
  2  3  1  0
  1  4  1  0
  2  5  1  0
  4  6  1  0
  6  7  2  0
  6  8  1  0
  7  9  1  0
  8 10  2  0
  9 11  2  0
 10 11  1  0
 11 12  1  0
 12 13  1  0
 12 14  1  0
 14 15  1  0
 15 16  1  0
 16 17  1  0
 17 18  1  0
 18 19  1  0
 19 20  1  0
 20 21  1  0
 21 22  1  0
 22 23  1  0
 23 24  1  0
 23 25  1  0
 24 26  1  0
 25 27  1  0
 26 28  1  0
 27 28  1  0
M  END
