x0334_0_A-x0598_0_A
     RDKit          3D

 26 28  0  0  0  0  0  0  0  0999 V2000
    4.0350   27.3080   17.1530 N   0  0  0  0  0  0  0  0  0  0  0  0
    5.4470   27.0430   17.4680 C   0  0  2  0  0  0  0  0  0  0  0  0
    5.4280   25.8460   18.3930 C   0  0  1  0  0  0  0  0  0  0  0  0
    3.5420   26.4910   16.0440 C   0  0  0  0  0  0  0  0  0  0  0  0
    2.0540   26.3020   16.0620 C   0  0  0  0  0  0  0  0  0  0  0  0
    6.2080   27.9900   18.4000 C   0  0  0  0  0  0  0  0  0  0  0  0
    7.2220   27.0500   19.1260 C   0  0  0  0  0  0  0  0  0  0  0  0
    1.3180   26.4730   17.2320 C   0  0  0  0  0  0  0  0  0  0  0  0
    1.3740   25.9530   14.9090 C   0  0  0  0  0  0  0  0  0  0  0  0
    4.6370   24.8180   17.8410 N   0  0  0  0  0  0  0  0  0  0  0  0
    6.9240   25.6510   18.5500 C   0  0  2  0  0  0  0  0  0  0  0  0
   -0.0710   26.3000   17.2310 C   0  0  0  0  0  0  0  0  0  0  0  0
   -0.0070   25.7820   14.9140 C   0  0  0  0  0  0  0  0  0  0  0  0
    5.1550   24.5460   16.5420 C   0  0  0  0  0  0  0  0  0  0  0  0
    7.6270   25.2350   17.2510 C   0  0  1  0  0  0  0  0  0  0  0  0
   -0.7760   25.9500   16.0670 C   0  0  0  0  0  0  0  0  0  0  0  0
    8.9280   24.3800   17.2410 C   0  0  0  0  0  0  0  0  0  0  0  0
    6.6040   24.8640   16.1650 C   0  0  0  0  0  0  0  0  0  0  0  0
   -2.1580   25.7770   16.0420 N   0  0  0  0  0  0  0  0  0  0  0  0
    9.7110   24.5370   15.9950 N   0  0  0  0  0  0  0  0  0  0  0  0
   -2.9850   26.3460   17.1010 C   0  0  0  0  0  0  0  0  0  0  0  0
   -2.7970   25.6530   14.7360 C   0  0  0  0  0  0  0  0  0  0  0  0
   11.0830   23.5950   15.5780 S   0  0  0  0  0  0  0  0  0  0  0  0
   11.0430   22.1430   16.6260 C   0  0  0  0  0  0  0  0  0  0  0  0
   12.2140   24.3610   15.8960 O   0  0  0  0  0  0  0  0  0  0  0  0
   10.9830   23.1170   14.2170 O   0  0  0  0  0  0  0  0  0  0  0  0
  2  1  1  1
  2  3  1  0
  1  4  1  0
  4  5  1  0
  2  6  1  0
  6  7  1  0
  5  8  2  0
  5  9  1  0
  3 10  1  6
  3 11  1  0
 11  7  1  6
  8 12  1  0
  9 13  2  0
 10 14  1  0
 11 15  1  0
 12 16  2  0
 13 16  1  0
 15 17  1  1
 14 18  1  0
 15 18  1  0
 16 19  1  0
 17 20  1  0
 19 21  1  0
 19 22  1  0
 23 20  1  0
 23 24  1  0
 23 25  2  0
 23 26  2  0
M  END
