x0371_0_A_β-x0729_2_B_α
     RDKit          3D

 30 32  0  0  0  0  0  0  0  0999 V2000
   -8.5560   14.4710    1.5630 C   0  0  0  0  0  0  0  0  0  0  0  0
   -7.2680   14.6520    0.8600 C   0  0  0  0  0  0  0  0  0  0  0  0
   -6.0860   14.4960    1.4060 N   0  0  0  0  0  0  0  0  0  0  0  0
   -7.1470   15.0160   -0.4680 N   0  0  0  0  0  0  0  0  0  0  0  0
   -8.2540   15.2890   -1.3850 C   0  0  0  0  0  0  0  0  0  0  0  0
   -5.1640   14.7510    0.4320 C   0  0  0  0  0  0  0  0  0  0  0  0
   -5.7990   15.0780   -0.7630 C   0  0  0  0  0  0  0  0  0  0  0  0
   -8.7080   16.7600   -1.3340 C   0  0  0  0  0  0  0  0  0  0  0  0
   -3.7670   14.7210    0.5000 C   0  0  0  0  0  0  0  0  0  0  0  0
   -5.0830   15.3780   -1.9190 C   0  0  0  0  0  0  0  0  0  0  0  0
  -10.0010   17.0660   -0.5720 C   0  0  0  0  0  0  0  0  0  0  0  0
   -3.0360   15.0180   -0.6490 C   0  0  0  0  0  0  0  0  0  0  0  0
   -3.6900   15.3420   -1.8420 C   0  0  0  0  0  0  0  0  0  0  0  0
  -10.8800   18.0910   -1.3160 C   0  0  0  0  0  0  0  0  0  0  0  0
  -11.6240   19.0700   -0.3980 C   0  0  0  0  0  0  0  0  0  0  0  0
  -12.9960   19.6090   -0.8640 C   0  0  0  0  0  0  0  0  0  0  0  0
  -12.9970   21.0720   -1.3380 C   0  0  0  0  0  0  0  0  0  0  0  0
  -14.0930   21.9000   -0.7710 C   0  0  0  0  0  0  0  0  0  0  0  0
  -14.9220   22.6140   -0.2510 C   0  0  0  0  0  0  0  0  0  0  0  0
  -15.8660   23.4830    0.5060 C   0  0  2  0  0  0  0  0  0  0  0  0
  -16.8070   24.3400   -0.3340 C   0  0  0  0  0  0  0  0  0  0  0  0
  -15.1500   24.5020    1.3730 C   0  0  2  0  0  0  0  0  0  0  0  0
  -13.8440   23.9950    1.9070 C   0  0  0  0  0  0  0  0  0  0  0  0
  -16.1040   24.8490    2.4350 N   0  0  0  0  0  0  0  0  0  0  0  0
  -17.6250   25.3650    0.5080 C   0  0  0  0  0  0  0  0  0  0  0  0
  -15.8170   24.5670    4.0750 S   0  0  0  0  0  0  0  0  0  0  0  0
  -17.1880   25.7000    1.9560 C   0  0  0  0  0  0  0  0  0  0  0  0
  -16.2920   25.7190    4.8110 O   0  0  0  0  0  0  0  0  0  0  0  0
  -14.4620   24.0980    4.1930 O   0  0  0  0  0  0  0  0  0  0  0  0
  -16.8690   23.2020    4.5070 C   0  0  0  0  0  0  0  0  0  0  0  0
  1  2  1  0
  2  3  2  0
  2  4  1  0
  4  5  1  0
  3  6  1  0
  4  7  1  0
  6  7  2  0
  5  8  1  0
  6  9  1  0
  7 10  1  0
  8 11  1  0
  9 12  2  0
 10 13  2  0
 12 13  1  0
 11 14  1  0
 14 15  1  0
 15 16  1  0
 16 17  1  0
 17 18  1  0
 18 19  3  0
 20 19  1  6
 20 21  1  0
 20 22  1  0
 22 23  1  1
 22 24  1  0
 21 25  1  0
 24 26  1  0
 24 27  1  0
 25 27  1  0
 26 28  2  0
 26 29  2  0
 26 30  1  0
M  END
