x0371_0_A-x0592_0_A
     RDKit          3D

 21 23  0  0  0  0  0  0  0  0999 V2000
   -7.4890   15.0510    2.9750 N   0  0  0  0  0  0  0  0  0  0  0  0
   -8.6010   15.6110    3.5530 C   0  0  0  0  0  0  0  0  0  0  0  0
   -9.5310   16.0960    2.9140 O   0  0  0  0  0  0  0  0  0  0  0  0
   -7.5060   14.1160    1.8900 C   0  0  0  0  0  0  0  0  0  0  0  0
   -6.5010   14.4370    0.8040 C   0  0  0  0  0  0  0  0  0  0  0  0
   -8.5580   15.5780    4.9960 C   0  0  0  0  0  0  0  0  0  0  0  0
   -5.0810   14.6080    0.8650 N   0  0  0  0  0  0  0  0  0  0  0  0
   -6.8780   14.5990   -0.4630 N   0  0  0  0  0  0  0  0  0  0  0  0
   -7.9370   14.5280    5.6240 O   0  0  0  0  0  0  0  0  0  0  0  0
   -9.0500   16.4540    5.9440 C   0  0  0  0  0  0  0  0  0  0  0  0
   -4.0390   14.5910    1.7710 C   0  0  0  0  0  0  0  0  0  0  0  0
   -5.7330   14.8430   -1.1700 C   0  0  0  0  0  0  0  0  0  0  0  0
   -4.6480   14.8470   -0.3560 C   0  0  0  0  0  0  0  0  0  0  0  0
   -8.7140   15.9130    7.2070 C   0  0  0  0  0  0  0  0  0  0  0  0
   -8.0390   14.7440    6.9600 C   0  0  0  0  0  0  0  0  0  0  0  0
   -4.2950   15.0080    3.0110 N   0  0  0  0  0  0  0  0  0  0  0  0
   -2.9250   14.2530    1.3600 O   0  0  0  0  0  0  0  0  0  0  0  0
   -3.3410   15.0590   -0.7690 C   0  0  0  0  0  0  0  0  0  0  0  0
   -5.5150   15.0730   -2.5250 C   0  0  0  0  0  0  0  0  0  0  0  0
   -3.1350   15.2730   -2.1020 C   0  0  0  0  0  0  0  0  0  0  0  0
   -4.2020   15.2830   -2.9750 C   0  0  0  0  0  0  0  0  0  0  0  0
  1  2  1  0
  2  3  2  0
  1  4  1  0
  4  5  1  0
  2  6  1  0
  5  7  1  0
  5  8  2  0
  6  9  1  0
  6 10  2  0
  7 11  1  0
  8 12  1  0
  7 13  1  0
 12 13  2  0
 10 14  1  0
  9 15  1  0
 14 15  2  0
 11 16  1  0
 11 17  2  0
 13 18  1  0
 12 19  1  0
 18 20  2  0
 19 21  2  0
 20 21  1  0
M  END
