x0371_0_A_β-x0962_2_B_α
     RDKit          3D

 19 21  0  0  0  0  0  0  0  0999 V2000
   -7.9000   13.8550    1.9760 C   0  0  0  0  0  0  0  0  0  0  0  0
   -6.8470   14.2410    1.0380 C   0  0  0  0  0  0  0  0  0  0  0  0
   -5.5780   14.0960    1.2890 N   0  0  0  0  0  0  0  0  0  0  0  0
   -7.0600   14.7900   -0.1950 N   0  0  0  0  0  0  0  0  0  0  0  0
   -8.3570   15.1030   -0.7970 C   0  0  0  0  0  0  0  0  0  0  0  0
   -4.9190   14.5430    0.2070 C   0  0  0  0  0  0  0  0  0  0  0  0
   -5.8090   14.9850   -0.7610 C   0  0  0  0  0  0  0  0  0  0  0  0
   -9.3340   16.0100    0.0190 C   0  0  0  0  0  0  0  0  0  0  0  0
   -3.5430   14.5920   -0.0050 C   0  0  0  0  0  0  0  0  0  0  0  0
   -5.3640   15.4830   -1.9770 C   0  0  0  0  0  0  0  0  0  0  0  0
  -10.1610   15.4360    1.2060 C   0  0  2  0  0  0  0  0  0  0  0  0
   -3.0810   15.0860   -1.2180 C   0  0  0  0  0  0  0  0  0  0  0  0
   -3.9800   15.5240   -2.1890 C   0  0  0  0  0  0  0  0  0  0  0  0
  -11.4360   16.1110    1.2730 N   0  0  0  0  0  0  0  0  0  0  0  0
   -9.5440   15.4150    2.5890 C   0  0  0  0  0  0  0  0  0  0  0  0
   -9.2890   16.5340    3.3590 N   0  0  0  0  0  0  0  0  0  0  0  0
   -9.1110   14.3760    3.3990 C   0  0  0  0  0  0  0  0  0  0  0  0
   -8.7260   16.1290    4.5420 C   0  0  0  0  0  0  0  0  0  0  0  0
   -8.6080   14.8270    4.5920 N   0  0  0  0  0  0  0  0  0  0  0  0
  1  2  1  0
  2  3  2  0
  2  4  1  0
  4  5  1  0
  3  6  1  0
  4  7  1  0
  6  7  2  0
  5  8  1  0
  6  9  1  0
  7 10  1  0
  8 11  1  0
  9 12  2  0
 10 13  2  0
 12 13  1  0
 11 14  1  1
 11 15  1  0
 15 16  1  0
 15 17  2  0
 16 18  1  0
 17 19  1  0
 18 19  2  0
M  END
