x0371_0_A_β-x0104_0_A_α
     RDKit          3D

 17 19  0  0  0  0  0  0  0  0999 V2000
   -7.9910   14.4380    2.1560 C   0  0  0  0  0  0  0  0  0  0  0  0
   -7.5370   14.8330    3.3700 C   0  0  0  0  0  0  0  0  0  0  0  0
   -8.0400   14.8070    4.6580 N   0  0  0  0  0  0  0  0  0  0  0  0
   -7.0740   14.6410    1.0890 C   0  0  0  0  0  0  0  0  0  0  0  0
   -5.7670   14.6040    1.4850 N   0  0  0  0  0  0  0  0  0  0  0  0
   -7.1550   14.8730   -0.2170 N   0  0  0  0  0  0  0  0  0  0  0  0
   -4.9620   14.8220    0.4220 C   0  0  0  0  0  0  0  0  0  0  0  0
   -5.8360   14.9900   -0.6400 C   0  0  0  0  0  0  0  0  0  0  0  0
   -9.2650   14.9340    5.2320 C   0  0  0  0  0  0  0  0  0  0  0  0
   -3.5750   14.8800    0.3240 C   0  0  0  0  0  0  0  0  0  0  0  0
   -5.3000   15.2390   -1.9090 C   0  0  0  0  0  0  0  0  0  0  0  0
   -9.4250   15.1310    6.5940 C   0  0  0  0  0  0  0  0  0  0  0  0
  -10.7990   14.8770    4.4570 S   0  0  0  0  0  0  0  0  0  0  0  0
   -3.0650   15.1220   -0.9460 C   0  0  0  0  0  0  0  0  0  0  0  0
   -3.9030   15.3030   -2.0470 C   0  0  0  0  0  0  0  0  0  0  0  0
  -10.7850   15.2320    6.9990 C   0  0  0  0  0  0  0  0  0  0  0  0
  -11.6400   15.1090    5.9290 C   0  0  0  0  0  0  0  0  0  0  0  0
  1  2  2  3
  2  3  1  0
  1  4  1  0
  4  5  1  0
  4  6  2  0
  5  7  1  0
  6  8  1  0
  7  8  2  0
  3  9  1  0
  7 10  1  0
  8 11  1  0
  9 12  2  0
  9 13  1  0
 10 14  2  0
 11 15  2  0
 14 15  1  0
 12 16  1  0
 13 17  1  0
 16 17  2  0
M  END
