x0371_0_A-x0967_0_A
     RDKit          3D

 18 20  0  0  0  0  0  0  0  0999 V2000
   -8.1470   14.5530    2.9650 N   0  0  0  0  0  0  0  0  0  0  0  0
   -8.8260   15.5490    3.6200 C   0  0  0  0  0  0  0  0  0  0  0  0
   -9.5140   16.3700    3.0170 O   0  0  0  0  0  0  0  0  0  0  0  0
   -8.3790   14.2700    1.5770 C   0  0  0  0  0  0  0  0  0  0  0  0
   -7.1340   14.5250    0.8040 C   0  0  0  0  0  0  0  0  0  0  0  0
   -8.6620   15.5300    5.0510 C   0  0  0  0  0  0  0  0  0  0  0  0
   -5.8880   14.4740    1.3890 N   0  0  0  0  0  0  0  0  0  0  0  0
   -7.0390   14.8170   -0.4780 N   0  0  0  0  0  0  0  0  0  0  0  0
   -8.0580   14.4510    5.6350 O   0  0  0  0  0  0  0  0  0  0  0  0
   -9.0140   16.4410    6.0260 C   0  0  0  0  0  0  0  0  0  0  0  0
   -5.6960   14.9530   -0.7230 C   0  0  0  0  0  0  0  0  0  0  0  0
   -4.9590   14.7400    0.4340 C   0  0  0  0  0  0  0  0  0  0  0  0
   -8.6020   15.8880    7.2630 C   0  0  0  0  0  0  0  0  0  0  0  0
   -8.0260   14.6770    6.9680 C   0  0  0  0  0  0  0  0  0  0  0  0
   -3.5720   14.8050    0.4920 C   0  0  0  0  0  0  0  0  0  0  0  0
   -5.0280   15.2530   -1.9100 C   0  0  0  0  0  0  0  0  0  0  0  0
   -2.9270   15.0980   -0.7050 C   0  0  0  0  0  0  0  0  0  0  0  0
   -3.6330   15.3230   -1.8880 C   0  0  0  0  0  0  0  0  0  0  0  0
  1  2  1  0
  2  3  2  0
  1  4  1  0
  4  5  1  0
  2  6  1  0
  5  7  1  0
  5  8  2  0
  6  9  1  0
  6 10  2  0
  8 11  1  0
  7 12  1  0
 11 12  2  0
 10 13  1  0
  9 14  1  0
 13 14  2  0
 12 15  1  0
 11 16  1  0
 15 17  2  0
 16 18  2  0
 17 18  1  0
M  END
