x0371_0_A_α-x0742_0_A_α
     RDKit          3D

 27 30  0  0  0  0  0  0  0  0999 V2000
   -9.8560   14.2250    3.1550 N   0  0  0  0  0  0  0  0  0  0  0  0
   -8.8290   15.1700    3.4590 C   0  0  2  0  0  0  0  0  0  0  0  0
   -9.2990   16.3990    2.9380 O   0  0  0  0  0  0  0  0  0  0  0  0
   -7.5860   14.7040    2.6840 C   0  0  0  0  0  0  0  0  0  0  0  0
   -8.6560   15.3590    4.9430 C   0  0  0  0  0  0  0  0  0  0  0  0
   -7.5610   13.2150    2.2940 C   0  0  0  0  0  0  0  0  0  0  0  0
   -8.0800   14.3370    5.6410 O   0  0  0  0  0  0  0  0  0  0  0  0
   -8.9720   16.3840    5.8200 C   0  0  0  0  0  0  0  0  0  0  0  0
   -7.4040   12.8830    0.8130 C   0  0  0  0  0  0  0  0  0  0  0  0
   -8.0270   14.7020    6.9420 C   0  0  0  0  0  0  0  0  0  0  0  0
   -8.5650   15.9500    7.1100 C   0  0  0  0  0  0  0  0  0  0  0  0
   -6.3270   11.8380    0.5630 C   0  0  0  0  0  0  0  0  0  0  0  0
   -5.4100   12.2020   -0.5980 C   0  0  0  0  0  0  0  0  0  0  0  0
   -5.2140   11.4120   -1.5250 O   0  0  0  0  0  0  0  0  0  0  0  0
   -4.7300   13.5850   -0.6220 C   0  0  2  0  0  0  0  0  0  0  0  0
   -4.7050   14.3440    0.7180 C   0  0  2  0  0  0  0  0  0  0  0  0
   -5.5700   14.5570   -1.4760 C   0  0  0  0  0  0  0  0  0  0  0  0
   -3.3360   13.4250   -1.2670 C   0  0  0  0  0  0  0  0  0  0  0  0
   -4.3590   15.7500    0.2560 C   0  0  0  0  0  0  0  0  0  0  0  0
   -2.1720   13.8480   -0.4040 C   0  0  0  0  0  0  0  0  0  0  0  0
   -3.6100   13.9040    1.6560 C   0  0  0  0  0  0  0  0  0  0  0  0
   -5.0710   15.9290   -1.0740 C   0  0  0  0  0  0  0  0  0  0  0  0
   -0.9180   14.0320   -0.9760 C   0  0  0  0  0  0  0  0  0  0  0  0
   -2.2980   14.0680    0.9780 C   0  0  0  0  0  0  0  0  0  0  0  0
   -1.2830   14.4320    1.7610 N   0  0  0  0  0  0  0  0  0  0  0  0
    0.1410   14.4170   -0.1750 C   0  0  0  0  0  0  0  0  0  0  0  0
   -0.1000   14.6000    1.1710 C   0  0  0  0  0  0  0  0  0  0  0  0
  2  1  1  1
  2  3  1  0
  2  4  1  0
  2  5  1  0
  4  6  1  0
  5  7  1  0
  5  8  2  0
  6  9  1  0
  7 10  1  0
  8 11  1  0
 10 11  2  0
  9 12  1  0
 12 13  1  0
 13 14  2  0
 15 13  1  1
 15 16  1  0
 15 17  1  0
 15 18  1  0
 16 19  1  6
 18 20  1  0
 16 21  1  0
 17 22  1  0
 19 22  1  0
 20 23  2  0
 20 24  1  0
 21 24  1  0
 24 25  2  0
 23 26  1  0
 25 27  1  0
 26 27  2  0
M  END
