x0371_0_A_β-x0104_0_A_β
     RDKit          3D

 13 14  0  0  0  0  0  0  0  0999 V2000
   -8.1770   14.8120    0.1870 C   0  0  0  0  0  0  0  0  0  0  0  0
   -6.8710   14.0150    0.3070 C   0  0  2  0  0  0  0  0  0  0  0  0
   -5.9550   14.4380    1.3850 N   0  0  0  0  0  0  0  0  0  0  0  0
   -5.9730   14.1170   -0.8760 N   0  0  0  0  0  0  0  0  0  0  0  0
   -6.5530   14.9460    2.5970 N   0  0  0  0  0  0  0  0  0  0  0  0
   -6.5650   14.2280   -2.1970 O   0  0  0  0  0  0  0  0  0  0  0  0
   -4.8540   15.2610    0.7920 C   0  0  2  0  0  0  0  0  0  0  0  0
   -5.3000   15.3870   -0.6740 C   0  0  1  0  0  0  0  0  0  0  0  0
   -5.4530   14.1700   -3.1080 C   0  0  0  0  0  0  0  0  0  0  0  0
   -3.4830   14.6530    0.8900 C   0  0  0  0  0  0  0  0  0  0  0  0
   -4.2400   15.5610   -1.6990 C   0  0  0  0  0  0  0  0  0  0  0  0
   -2.6420   14.6300   -0.1570 C   0  0  0  0  0  0  0  0  0  0  0  0
   -2.9970   15.1840   -1.4420 C   0  0  0  0  0  0  0  0  0  0  0  0
  2  1  1  6
  2  3  1  0
  2  4  1  0
  3  5  1  0
  4  6  1  0
  3  7  1  0
  4  8  1  0
  7  8  1  0
  6  9  1  0
  7 10  1  6
  8 11  1  6
 10 12  2  0
 11 13  2  0
 12 13  1  0
M  END
