x0371_0_A-x0628_0_A
     RDKit          3D

 32 35  0  0  0  0  0  0  0  0999 V2000
   -7.8780   14.6080    2.9680 N   0  0  0  0  0  0  0  0  0  0  0  0
   -8.6580   15.5320    3.6330 C   0  0  0  0  0  0  0  0  0  0  0  0
   -9.3800   16.3030    3.0080 O   0  0  0  0  0  0  0  0  0  0  0  0
   -8.2130   14.3410    1.5910 C   0  0  0  0  0  0  0  0  0  0  0  0
   -6.9960   14.5290    0.7710 C   0  0  0  0  0  0  0  0  0  0  0  0
   -8.5770   15.5240    5.0730 C   0  0  0  0  0  0  0  0  0  0  0  0
   -5.7410   14.5550    1.3270 N   0  0  0  0  0  0  0  0  0  0  0  0
   -6.9340   14.6840   -0.5410 N   0  0  0  0  0  0  0  0  0  0  0  0
   -8.0140   14.4350    5.6720 O   0  0  0  0  0  0  0  0  0  0  0  0
   -8.9680   16.4210    6.0420 C   0  0  0  0  0  0  0  0  0  0  0  0
   -5.5930   14.8010   -0.8300 C   0  0  0  0  0  0  0  0  0  0  0  0
   -4.8310   14.7270    0.3250 C   0  0  0  0  0  0  0  0  0  0  0  0
   -8.6200   15.8470    7.2920 C   0  0  0  0  0  0  0  0  0  0  0  0
   -8.0410   14.6380    7.0050 C   0  0  0  0  0  0  0  0  0  0  0  0
   -3.4450   14.8140    0.3360 C   0  0  0  0  0  0  0  0  0  0  0  0
   -4.9530   14.9660   -2.0730 C   0  0  0  0  0  0  0  0  0  0  0  0
   -2.8250   14.9690   -0.9100 C   0  0  0  0  0  0  0  0  0  0  0  0
   -3.5510   15.0410   -2.1140 C   0  0  0  0  0  0  0  0  0  0  0  0
   -2.8060   15.1930   -3.4390 C   0  0  0  0  0  0  0  0  0  0  0  0
   -2.9300   13.9640   -4.3830 C   0  0  0  0  0  0  0  0  0  0  0  0
   -2.2630   12.6670   -3.8580 C   0  0  0  0  0  0  0  0  0  0  0  0
   -1.5670   11.8400   -4.9150 C   0  0  0  0  0  0  0  0  0  0  0  0
   -1.9930   10.7030   -5.4520 N   0  0  0  0  0  0  0  0  0  0  0  0
   -0.3550   12.1450   -5.4880 N   0  0  0  0  0  0  0  0  0  0  0  0
    0.5210   13.2740   -5.2480 C   0  0  0  0  0  0  0  0  0  0  0  0
   -0.9990   10.3620   -6.3420 C   0  0  0  0  0  0  0  0  0  0  0  0
    0.0150   11.2220   -6.3940 N   0  0  0  0  0  0  0  0  0  0  0  0
   -1.0310    9.1480   -7.1810 C   0  0  0  0  0  0  0  0  0  0  0  0
    1.6300   12.9580   -4.2590 C   0  0  0  0  0  0  0  0  0  0  0  0
    1.1270   12.2950   -3.0040 C   0  0  0  0  0  0  0  0  0  0  0  0
    0.6570   11.1740   -2.9010 O   0  0  0  0  0  0  0  0  0  0  0  0
    1.2390   13.0870   -1.9340 O   0  0  0  0  0  0  0  0  0  0  0  0
  1  2  1  0
  2  3  2  0
  1  4  1  0
  4  5  1  0
  2  6  1  0
  5  7  1  0
  5  8  2  0
  6  9  1  0
  6 10  2  0
  8 11  1  0
  7 12  1  0
 11 12  2  0
 10 13  1  0
  9 14  1  0
 13 14  2  0
 12 15  1  0
 11 16  1  0
 15 17  2  0
 16 18  2  0
 17 18  1  0
 18 19  1  0
 19 20  1  0
 20 21  1  0
 21 22  1  0
 22 23  2  0
 22 24  1  0
 24 25  1  0
 23 26  1  0
 24 27  1  0
 26 27  2  0
 26 28  1  0
 25 29  1  0
 29 30  1  0
 30 31  2  0
 30 32  1  0
M  END
