x0371_0_A_β-x0950_0_A_α
     RDKit          3D

 19 20  0  0  0  0  0  0  0  0999 V2000
   -8.2950   14.2390    1.5260 C   0  0  0  0  0  0  0  0  0  0  0  0
   -7.0360   14.5530    0.8120 C   0  0  0  0  0  0  0  0  0  0  0  0
   -5.8230   14.5710    1.4510 N   0  0  0  0  0  0  0  0  0  0  0  0
   -6.8940   14.8420   -0.4660 N   0  0  0  0  0  0  0  0  0  0  0  0
   -4.8570   14.8920    0.5440 C   0  0  0  0  0  0  0  0  0  0  0  0
   -5.5430   15.0560   -0.6460 C   0  0  0  0  0  0  0  0  0  0  0  0
   -3.4760   15.0390    0.6780 C   0  0  0  0  0  0  0  0  0  0  0  0
   -4.8230   15.3920   -1.7980 C   0  0  0  0  0  0  0  0  0  0  0  0
   -2.7510   15.3740   -0.4780 C   0  0  0  0  0  0  0  0  0  0  0  0
   -3.4260   15.5480   -1.6990 C   0  0  0  0  0  0  0  0  0  0  0  0
   -1.2400   15.5410   -0.3900 C   0  0  0  0  0  0  0  0  0  0  0  0
   -0.5150   14.1890   -0.2760 C   0  0  0  0  0  0  0  0  0  0  0  0
    0.4160   13.9160   -1.4620 C   0  0  0  0  0  0  0  0  0  0  0  0
    0.7180   12.5130   -1.5210 O   0  0  0  0  0  0  0  0  0  0  0  0
    0.7250   11.9270   -2.7760 C   0  0  0  0  0  0  0  0  0  0  0  0
    1.3310   12.8390   -3.8740 C   0  0  1  0  0  0  0  0  0  0  0  0
    0.2950   10.8030   -2.9780 O   0  0  0  0  0  0  0  0  0  0  0  0
    2.8500   12.9150   -3.7890 C   0  0  0  0  0  0  0  0  0  0  0  0
    1.0050   12.3890   -5.1900 O   0  0  0  0  0  0  0  0  0  0  0  0
  1  2  1  0
  2  3  1  0
  2  4  2  0
  3  5  1  0
  4  6  1  0
  5  6  2  0
  5  7  1  0
  6  8  1  0
  7  9  2  0
  8 10  2  0
  9 10  1  0
  9 11  1  0
 11 12  1  0
 12 13  1  0
 13 14  1  0
 14 15  1  0
 15 16  1  0
 15 17  2  0
 16 18  1  6
 16 19  1  0
M  END
