x0371_0_A-x0967_0_A
     RDKit          3D

 18 20  0  0  0  0  0  0  0  0999 V2000
   -8.1490   14.5530    2.9660 N   0  0  0  0  0  0  0  0  0  0  0  0
   -8.8280   15.5490    3.6190 C   0  0  0  0  0  0  0  0  0  0  0  0
   -9.5180   16.3720    3.0170 O   0  0  0  0  0  0  0  0  0  0  0  0
   -8.3800   14.2710    1.5770 C   0  0  0  0  0  0  0  0  0  0  0  0
   -7.1360   14.5230    0.8080 C   0  0  0  0  0  0  0  0  0  0  0  0
   -8.6630   15.5320    5.0510 C   0  0  0  0  0  0  0  0  0  0  0  0
   -5.8890   14.4700    1.3930 N   0  0  0  0  0  0  0  0  0  0  0  0
   -7.0400   14.8160   -0.4740 N   0  0  0  0  0  0  0  0  0  0  0  0
   -8.0610   14.4500    5.6340 O   0  0  0  0  0  0  0  0  0  0  0  0
   -9.0120   16.4420    6.0240 C   0  0  0  0  0  0  0  0  0  0  0  0
   -5.6970   14.9490   -0.7180 C   0  0  0  0  0  0  0  0  0  0  0  0
   -4.9590   14.7350    0.4370 C   0  0  0  0  0  0  0  0  0  0  0  0
   -8.6020   15.8890    7.2620 C   0  0  0  0  0  0  0  0  0  0  0  0
   -8.0270   14.6770    6.9680 C   0  0  0  0  0  0  0  0  0  0  0  0
   -3.5730   14.7980    0.4940 C   0  0  0  0  0  0  0  0  0  0  0  0
   -5.0310   15.2490   -1.9070 C   0  0  0  0  0  0  0  0  0  0  0  0
   -2.9260   15.0910   -0.7040 C   0  0  0  0  0  0  0  0  0  0  0  0
   -3.6360   15.3160   -1.8870 C   0  0  0  0  0  0  0  0  0  0  0  0
  1  2  1  0
  2  3  2  0
  1  4  1  0
  4  5  1  0
  2  6  1  0
  5  7  1  0
  5  8  2  0
  6  9  1  0
  6 10  2  0
  8 11  1  0
  7 12  1  0
 11 12  2  0
 10 13  1  0
  9 14  1  0
 13 14  2  0
 12 15  1  0
 11 16  1  0
 15 17  2  0
 16 18  2  0
 17 18  1  0
M  END
