x0371_0_A_β-x0895_0_A_α
     RDKit          3D

 11 12  0  0  0  0  0  0  0  0999 V2000
   -8.2240   14.3730    1.6230 C   0  0  0  0  0  0  0  0  0  0  0  0
   -7.0030   14.6040    0.7990 C   0  0  0  0  0  0  0  0  0  0  0  0
   -5.7590   14.5200    1.4110 N   0  0  0  0  0  0  0  0  0  0  0  0
   -7.0190   14.8920   -0.4730 N   0  0  0  0  0  0  0  0  0  0  0  0
   -4.9330   14.7630    0.4390 C   0  0  0  0  0  0  0  0  0  0  0  0
   -5.6920   14.9980   -0.7810 C   0  0  0  0  0  0  0  0  0  0  0  0
   -3.4280   14.8220    0.4130 C   0  0  0  0  0  0  0  0  0  0  0  0
   -5.0770   15.2530   -1.9250 C   0  0  0  0  0  0  0  0  0  0  0  0
   -2.7150   14.6660    1.4010 O   0  0  0  0  0  0  0  0  0  0  0  0
   -2.8470   15.0790   -0.9240 C   0  0  0  0  0  0  0  0  0  0  0  0
   -3.6350   15.2850   -1.9880 C   0  0  0  0  0  0  0  0  0  0  0  0
  1  2  1  0
  2  3  1  0
  2  4  2  0
  3  5  2  0
  4  6  1  0
  5  6  1  0
  5  7  1  0
  6  8  2  0
  7  9  2  0
  7 10  1  0
  8 11  1  0
 10 11  2  0
M  END
