x0371_0_A-x0290_0_A
     RDKit          3D

 30 33  0  0  0  0  0  0  0  0999 V2000
   -7.7000   14.9880    2.8920 N   0  0  0  0  0  0  0  0  0  0  0  0
   -8.7000   15.5690    3.6170 C   0  0  0  0  0  0  0  0  0  0  0  0
   -9.6220   16.0990    2.9900 O   0  0  0  0  0  0  0  0  0  0  0  0
   -7.5610   14.1720    1.6770 C   0  0  2  0  0  0  0  0  0  0  0  0
   -8.8990   14.0180    0.9090 C   0  0  0  0  0  0  0  0  0  0  0  0
   -6.6400   12.9200    1.7360 C   0  0  0  0  0  0  0  0  0  0  0  0
   -6.5780   14.6800    0.7400 C   0  0  0  0  0  0  0  0  0  0  0  0
   -8.6320   15.5530    5.0560 C   0  0  0  0  0  0  0  0  0  0  0  0
   -5.3420   13.1320    0.8490 C   0  0  0  0  0  0  0  0  0  0  0  0
   -5.3860   15.0510    1.2440 N   0  0  0  0  0  0  0  0  0  0  0  0
   -6.6610   14.7820   -0.5660 N   0  0  0  0  0  0  0  0  0  0  0  0
   -8.0600   14.4890    5.6940 O   0  0  0  0  0  0  0  0  0  0  0  0
   -9.0580   16.4700    5.9940 C   0  0  0  0  0  0  0  0  0  0  0  0
   -5.4380   12.9330   -0.3540 O   0  0  0  0  0  0  0  0  0  0  0  0
   -4.1520   13.5580    1.5040 N   0  0  0  0  0  0  0  0  0  0  0  0
   -5.4040   15.2020   -0.9110 C   0  0  0  0  0  0  0  0  0  0  0  0
   -4.6010   15.3870    0.2130 C   0  0  0  0  0  0  0  0  0  0  0  0
   -8.7260   15.9370    7.2650 C   0  0  0  0  0  0  0  0  0  0  0  0
   -8.1170   14.7290    7.0270 C   0  0  0  0  0  0  0  0  0  0  0  0
   -3.2910   15.8070    0.1770 C   0  0  0  0  0  0  0  0  0  0  0  0
   -4.8610   15.4370   -2.1630 C   0  0  0  0  0  0  0  0  0  0  0  0
   -2.8670   13.9190    0.9650 C   0  0  0  0  0  0  0  0  0  0  0  0
   -2.7580   16.0270   -1.0820 C   0  0  0  0  0  0  0  0  0  0  0  0
   -3.5270   15.8430   -2.2390 C   0  0  0  0  0  0  0  0  0  0  0  0
   -1.8140   14.2320    1.7790 N   0  0  0  0  0  0  0  0  0  0  0  0
   -2.7000   13.9420   -0.4230 C   0  0  0  0  0  0  0  0  0  0  0  0
   -0.6240   14.5440    1.2170 C   0  0  0  0  0  0  0  0  0  0  0  0
   -1.4510   14.2820   -0.9870 C   0  0  0  0  0  0  0  0  0  0  0  0
   -1.2590   14.3170   -2.4750 C   0  0  0  0  0  0  0  0  0  0  0  0
   -0.3920   14.5860   -0.1380 C   0  0  0  0  0  0  0  0  0  0  0  0
  1  2  1  0
  2  3  2  0
  4  1  1  0
  4  5  1  6
  4  6  1  0
  4  7  1  0
  2  8  1  0
  6  9  1  0
  7 10  1  0
  7 11  2  0
  8 12  1  0
  8 13  2  0
  9 14  2  0
  9 15  1  0
 11 16  1  0
 10 17  1  0
 16 17  2  0
 13 18  1  0
 12 19  1  0
 18 19  2  0
 17 20  1  0
 16 21  1  0
 15 22  1  0
 20 23  2  0
 21 24  2  0
 23 24  1  0
 22 25  2  0
 22 26  1  0
 25 27  1  0
 26 28  2  0
 28 29  1  0
 27 30  2  0
 28 30  1  0
M  END
