x0371_0_A_α-x0689_0_A_α
     RDKit          3D

 19 20  0  0  0  0  0  0  0  0999 V2000
   -9.4920   13.7930    3.2990 N   0  0  0  0  0  0  0  0  0  0  0  0
   -8.7260   14.9850    3.5460 C   0  0  2  0  0  0  0  0  0  0  0  0
   -9.4630   16.0340    2.9590 O   0  0  0  0  0  0  0  0  0  0  0  0
   -7.3600   14.8600    2.8620 C   0  0  0  0  0  0  0  0  0  0  0  0
   -8.6370   15.2580    5.0100 C   0  0  0  0  0  0  0  0  0  0  0  0
   -7.0070   13.6150    2.0300 C   0  0  0  0  0  0  0  0  0  0  0  0
   -8.0550   14.2780    5.7600 O   0  0  0  0  0  0  0  0  0  0  0  0
   -9.0170   16.3060    5.8350 C   0  0  0  0  0  0  0  0  0  0  0  0
   -6.1590   14.0160    0.8060 C   0  0  0  0  0  0  0  0  0  0  0  0
   -8.0610   14.6940    7.0480 C   0  0  0  0  0  0  0  0  0  0  0  0
   -8.6430   15.9310    7.1470 C   0  0  0  0  0  0  0  0  0  0  0  0
   -4.6540   13.7340    0.9450 C   0  0  0  0  0  0  0  0  0  0  0  0
   -3.8050   14.8720    1.2520 N   0  0  0  0  0  0  0  0  0  0  0  0
   -2.4940   14.7250    0.8590 C   0  0  0  0  0  0  0  0  0  0  0  0
   -2.2840   14.7510   -0.4620 N   0  0  0  0  0  0  0  0  0  0  0  0
   -1.5270   14.5680    1.7660 N   0  0  0  0  0  0  0  0  0  0  0  0
   -1.0140   14.6110   -0.8810 C   0  0  0  0  0  0  0  0  0  0  0  0
   -0.2810   14.4350    1.3030 C   0  0  0  0  0  0  0  0  0  0  0  0
    0.0460   14.4490   -0.0270 C   0  0  0  0  0  0  0  0  0  0  0  0
  2  1  1  1
  2  3  1  0
  2  4  1  0
  2  5  1  0
  4  6  1  0
  5  7  1  0
  5  8  2  0
  6  9  1  0
  7 10  1  0
  8 11  1  0
 10 11  2  0
  9 12  1  0
 12 13  1  0
 13 14  1  0
 14 15  2  0
 14 16  1  0
 15 17  1  0
 16 18  2  0
 17 19  2  0
 18 19  1  0
M  END
