x0371_0_A_α-x0104_0_A_α
     RDKit          3D

  9 10  0  0  0  0  0  0  0  0999 V2000
   -7.8690   14.8540    3.4010 N   0  0  0  0  0  0  0  0  0  0  0  0
   -9.0020   15.5930    3.6290 C   0  0  0  0  0  0  0  0  0  0  0  0
   -9.5940   16.2680    2.8070 O   0  0  0  0  0  0  0  0  0  0  0  0
   -7.4130   14.1840    4.5330 N   0  0  0  0  0  0  0  0  0  0  0  0
   -9.3930   15.3880    5.0690 C   0  0  1  0  0  0  0  0  0  0  0  0
   -8.4810   14.2450    5.5150 C   0  0  2  0  0  0  0  0  0  0  0  0
   -8.0910   14.6440    6.9010 C   0  0  0  0  0  0  0  0  0  0  0  0
   -9.0860   16.5680    5.9790 C   0  0  0  0  0  0  0  0  0  0  0  0
   -8.4330   15.9070    7.1600 C   0  0  0  0  0  0  0  0  0  0  0  0
  1  2  1  0
  2  3  2  0
  1  4  1  0
  2  5  1  0
  4  6  1  0
  5  6  1  0
  6  7  1  1
  5  8  1  1
  7  9  2  0
  8  9  1  0
M  END
