x0371_0_A-x0253_0_A
     RDKit          3D

 35 38  0  0  0  0  0  0  0  0999 V2000
   -7.8830   14.5390    2.9550 N   0  0  0  0  0  0  0  0  0  0  0  0
   -8.6610   15.4910    3.5890 C   0  0  0  0  0  0  0  0  0  0  0  0
   -9.3760   16.2540    2.9440 O   0  0  0  0  0  0  0  0  0  0  0  0
   -8.1500   14.1900    1.5800 C   0  0  0  0  0  0  0  0  0  0  0  0
   -6.9240   14.5260    0.8140 C   0  0  0  0  0  0  0  0  0  0  0  0
   -8.5780   15.5050    5.0320 C   0  0  0  0  0  0  0  0  0  0  0  0
   -5.6930   14.5560    1.4160 N   0  0  0  0  0  0  0  0  0  0  0  0
   -6.8260   14.8270   -0.4700 N   0  0  0  0  0  0  0  0  0  0  0  0
   -8.0030   14.4320    5.6500 O   0  0  0  0  0  0  0  0  0  0  0  0
   -8.9740   16.4180    5.9930 C   0  0  0  0  0  0  0  0  0  0  0  0
   -5.4840   15.0520   -0.6880 C   0  0  0  0  0  0  0  0  0  0  0  0
   -4.7590   14.8880    0.4800 C   0  0  0  0  0  0  0  0  0  0  0  0
   -8.6200   15.8660    7.2500 C   0  0  0  0  0  0  0  0  0  0  0  0
   -8.0310   14.6570    6.9830 C   0  0  0  0  0  0  0  0  0  0  0  0
   -3.3760   15.0470    0.5700 C   0  0  0  0  0  0  0  0  0  0  0  0
   -4.8030   15.3980   -1.8590 C   0  0  0  0  0  0  0  0  0  0  0  0
   -2.6870   15.3900   -0.6070 C   0  0  0  0  0  0  0  0  0  0  0  0
   -3.4060   15.5640   -1.8060 C   0  0  0  0  0  0  0  0  0  0  0  0
   -1.1700   15.5630   -0.5680 C   0  0  0  0  0  0  0  0  0  0  0  0
   -0.4550   15.2960   -1.9120 C   0  0  0  0  0  0  0  0  0  0  0  0
    0.8450   14.4630   -1.8360 C   0  0  0  0  0  0  0  0  0  0  0  0
    0.6030   13.0210   -1.8740 N   0  0  0  0  0  0  0  0  0  0  0  0
    0.6660   12.2600   -2.9100 C   0  0  0  0  0  0  0  0  0  0  0  0
    0.4210   10.9360   -2.8640 O   0  0  0  0  0  0  0  0  0  0  0  0
    1.0220   12.7770   -4.3040 C   0  0  0  0  0  0  0  0  0  0  0  0
    0.3660   12.0040   -5.3550 N   0  0  0  0  0  0  0  0  0  0  0  0
    1.0850   11.6980   -6.4900 C   0  0  0  0  0  0  0  0  0  0  0  0
    2.2000   12.1470   -6.6490 O   0  0  0  0  0  0  0  0  0  0  0  0
    0.4640   10.7650   -7.4900 C   0  0  0  0  0  0  0  0  0  0  0  0
   -0.5140    9.8470   -7.1020 C   0  0  0  0  0  0  0  0  0  0  0  0
    0.8530   10.7940   -8.8410 C   0  0  0  0  0  0  0  0  0  0  0  0
   -1.0970    8.9760   -8.0330 C   0  0  0  0  0  0  0  0  0  0  0  0
    0.2810    9.9330   -9.7720 C   0  0  0  0  0  0  0  0  0  0  0  0
   -2.1460    8.0040   -7.5840 C   0  0  0  0  0  0  0  0  0  0  0  0
   -0.6930    9.0250   -9.3720 C   0  0  0  0  0  0  0  0  0  0  0  0
  1  2  1  0
  2  3  2  0
  1  4  1  0
  4  5  1  0
  2  6  1  0
  5  7  1  0
  5  8  2  0
  6  9  1  0
  6 10  2  0
  8 11  1  0
  7 12  1  0
 11 12  2  0
 10 13  1  0
  9 14  1  0
 13 14  2  0
 12 15  1  0
 11 16  1  0
 15 17  2  0
 16 18  2  0
 17 18  1  0
 17 19  1  0
 19 20  1  0
 20 21  1  0
 21 22  1  0
 22 23  2  3
 23 24  1  0
 23 25  1  0
 25 26  1  0
 26 27  1  0
 27 28  2  0
 27 29  1  0
 29 30  2  0
 29 31  1  0
 30 32  1  0
 31 33  2  0
 32 34  1  0
 32 35  2  0
 33 35  1  0
M  END
