x0371_0_A_β-x0471_0_A_α
     RDKit          3D

 16 17  0  0  0  0  0  0  0  0999 V2000
   -8.4880   14.2210    1.5690 C   0  0  0  0  0  0  0  0  0  0  0  0
   -8.3130   14.2670    3.0030 N   0  0  0  0  0  0  0  0  0  0  0  0
   -9.0170   15.1910    3.7450 C   0  0  0  0  0  0  0  0  0  0  0  0
   -7.2110   14.4930    0.8400 C   0  0  0  0  0  0  0  0  0  0  0  0
   -5.9680   14.4550    1.4430 N   0  0  0  0  0  0  0  0  0  0  0  0
   -7.0930   14.7950   -0.4400 N   0  0  0  0  0  0  0  0  0  0  0  0
   -9.4910   16.1970    3.2290 O   0  0  0  0  0  0  0  0  0  0  0  0
   -9.1890   14.8680    5.2280 C   0  0  0  0  0  0  0  0  0  0  0  0
   -5.0240   14.7370    0.4950 C   0  0  0  0  0  0  0  0  0  0  0  0
   -5.7500   14.9470   -0.6680 C   0  0  0  0  0  0  0  0  0  0  0  0
   -9.6740   13.4360    5.4400 C   0  0  0  0  0  0  0  0  0  0  0  0
   -7.9030   15.1370    5.9950 C   0  0  0  0  0  0  0  0  0  0  0  0
   -3.6380   14.8180    0.5670 C   0  0  0  0  0  0  0  0  0  0  0  0
   -5.0690   15.2630   -1.8500 C   0  0  0  0  0  0  0  0  0  0  0  0
   -2.9790   15.1230   -0.6230 C   0  0  0  0  0  0  0  0  0  0  0  0
   -3.6760   15.3460   -1.8120 C   0  0  0  0  0  0  0  0  0  0  0  0
  1  2  1  0
  2  3  1  0
  1  4  1  0
  4  5  1  0
  4  6  2  0
  3  7  2  0
  3  8  1  0
  5  9  1  0
  6 10  1  0
  9 10  2  0
  8 11  1  0
  8 12  1  0
  9 13  1  0
 10 14  1  0
 13 15  2  0
 14 16  2  0
 15 16  1  0
M  END
