x0371_0_A-x0855_0_A
     RDKit          3D

 31 34  0  0  0  0  0  0  0  0999 V2000
   -8.1710   14.5940    2.8820 N   0  0  0  0  0  0  0  0  0  0  0  0
   -8.8430   15.5730    3.5780 C   0  0  0  0  0  0  0  0  0  0  0  0
   -9.5450   16.4040    3.0070 O   0  0  0  0  0  0  0  0  0  0  0  0
   -8.3830   14.4360    1.4650 C   0  0  0  0  0  0  0  0  0  0  0  0
   -7.0810   14.6090    0.7630 C   0  0  0  0  0  0  0  0  0  0  0  0
   -8.6620   15.5320    5.0080 C   0  0  0  0  0  0  0  0  0  0  0  0
   -5.8850   14.4290    1.4080 N   0  0  0  0  0  0  0  0  0  0  0  0
   -6.8820   14.9410   -0.5030 N   0  0  0  0  0  0  0  0  0  0  0  0
   -8.0500   14.4460    5.5700 O   0  0  0  0  0  0  0  0  0  0  0  0
   -9.0090   16.4290    5.9970 C   0  0  0  0  0  0  0  0  0  0  0  0
   -5.5150   14.9620   -0.6650 C   0  0  0  0  0  0  0  0  0  0  0  0
   -4.8800   14.6400    0.5210 C   0  0  0  0  0  0  0  0  0  0  0  0
   -8.5850   15.8590    7.2210 C   0  0  0  0  0  0  0  0  0  0  0  0
   -8.0060   14.6550    6.9060 C   0  0  0  0  0  0  0  0  0  0  0  0
   -3.5050   14.5660    0.6810 C   0  0  0  0  0  0  0  0  0  0  0  0
   -4.7310   15.2410   -1.7910 C   0  0  0  0  0  0  0  0  0  0  0  0
   -2.7130   14.8260   -0.4380 C   0  0  0  0  0  0  0  0  0  0  0  0
   -3.3290   15.1680   -1.6660 C   0  0  0  0  0  0  0  0  0  0  0  0
   -1.2020   14.7140   -0.2710 C   0  0  0  0  0  0  0  0  0  0  0  0
   -0.3560   14.5880   -1.5530 C   0  0  0  0  0  0  0  0  0  0  0  0
    0.8630   13.6850   -1.3560 C   0  0  0  0  0  0  0  0  0  0  0  0
    1.4230   13.2900   -2.6240 O   0  0  0  0  0  0  0  0  0  0  0  0
    0.8930   12.1990   -3.2510 C   0  0  0  0  0  0  0  0  0  0  0  0
    0.6860   11.1200   -2.7120 O   0  0  0  0  0  0  0  0  0  0  0  0
    0.6150   12.5480   -4.6900 C   0  0  0  0  0  0  0  0  0  0  0  0
   -0.4340   11.6900   -5.1860 N   0  0  0  0  0  0  0  0  0  0  0  0
   -0.3210   10.7300   -6.1500 C   0  0  0  0  0  0  0  0  0  0  0  0
   -1.6800   11.7990   -4.6720 N   0  0  0  0  0  0  0  0  0  0  0  0
   -1.5680   10.1820   -6.2540 C   0  0  0  0  0  0  0  0  0  0  0  0
   -2.3710   10.8670   -5.3350 C   0  0  0  0  0  0  0  0  0  0  0  0
   -2.1240    8.8040   -7.3750 Br  0  0  0  0  0  0  0  0  0  0  0  0
  1  2  1  0
  2  3  2  0
  1  4  1  0
  4  5  1  0
  2  6  1  0
  5  7  1  0
  5  8  2  0
  6  9  1  0
  6 10  2  0
  8 11  1  0
  7 12  1  0
 11 12  2  0
 10 13  1  0
  9 14  1  0
 13 14  2  0
 12 15  1  0
 11 16  1  0
 15 17  2  0
 16 18  2  0
 17 18  1  0
 17 19  1  0
 19 20  1  0
 20 21  1  0
 21 22  1  0
 22 23  1  0
 23 24  2  0
 23 25  1  0
 25 26  1  0
 26 27  1  0
 26 28  1  0
 27 29  2  0
 28 30  2  0
 29 30  1  0
 29 31  1  0
M  END
