x0371_0_A-x0465_0_A
     RDKit          3D

 34 37  0  0  0  0  0  0  0  0999 V2000
   -8.1690   14.5610    2.8980 N   0  0  0  0  0  0  0  0  0  0  0  0
   -8.8450   15.5460    3.5750 C   0  0  0  0  0  0  0  0  0  0  0  0
   -9.5390   16.3620    2.9700 O   0  0  0  0  0  0  0  0  0  0  0  0
   -8.3850   14.3660    1.4880 C   0  0  0  0  0  0  0  0  0  0  0  0
   -7.0870   14.5640    0.7910 C   0  0  0  0  0  0  0  0  0  0  0  0
   -8.6760   15.5370    5.0130 C   0  0  0  0  0  0  0  0  0  0  0  0
   -5.8870   14.4650    1.4460 N   0  0  0  0  0  0  0  0  0  0  0  0
   -6.8990   14.8480   -0.4890 N   0  0  0  0  0  0  0  0  0  0  0  0
   -8.0730   14.4460    5.5800 O   0  0  0  0  0  0  0  0  0  0  0  0
   -9.0060   16.4350    6.0130 C   0  0  0  0  0  0  0  0  0  0  0  0
   -5.5310   14.9260   -0.6490 C   0  0  0  0  0  0  0  0  0  0  0  0
   -4.8880   14.6870    0.5530 C   0  0  0  0  0  0  0  0  0  0  0  0
   -8.5830   15.8610    7.2370 C   0  0  0  0  0  0  0  0  0  0  0  0
   -8.0200   14.6510    6.9190 C   0  0  0  0  0  0  0  0  0  0  0  0
   -3.5070   14.6880    0.7250 C   0  0  0  0  0  0  0  0  0  0  0  0
   -4.7550   15.1920   -1.7830 C   0  0  0  0  0  0  0  0  0  0  0  0
   -2.7270   14.9450   -0.4040 C   0  0  0  0  0  0  0  0  0  0  0  0
   -3.3530   15.1970   -1.6480 C   0  0  0  0  0  0  0  0  0  0  0  0
   -1.2040   14.9510   -0.2580 C   0  0  0  0  0  0  0  0  0  0  0  0
   -0.5090   13.6250   -0.1750 C   0  0  0  0  0  0  0  0  0  0  0  0
    0.5220   13.5010   -1.2920 C   0  0  0  0  0  0  0  0  0  0  0  0
    0.4680   12.1090   -1.6450 N   0  0  0  0  0  0  0  0  0  0  0  0
    0.5570   11.6800   -2.8490 C   0  0  0  0  0  0  0  0  0  0  0  0
    0.7280   12.3530   -4.2440 C   0  0  1  0  0  0  0  0  0  0  0  0
    0.4590   10.3310   -2.8490 O   0  0  0  0  0  0  0  0  0  0  0  0
    2.1090   13.0110   -4.3580 C   0  0  0  0  0  0  0  0  0  0  0  0
    0.5700   11.4620   -5.3520 O   0  0  0  0  0  0  0  0  0  0  0  0
   -0.6290   10.8250   -5.5450 C   0  0  0  0  0  0  0  0  0  0  0  0
   -0.6720    9.8310   -6.5490 C   0  0  0  0  0  0  0  0  0  0  0  0
   -1.7880   11.0950   -4.8200 C   0  0  0  0  0  0  0  0  0  0  0  0
    0.4120    9.5320   -7.2830 F   0  0  0  0  0  0  0  0  0  0  0  0
   -1.8430    9.1230   -6.8140 C   0  0  0  0  0  0  0  0  0  0  0  0
   -2.9670   10.3840   -5.0860 C   0  0  0  0  0  0  0  0  0  0  0  0
   -2.9920    9.3990   -6.0800 C   0  0  0  0  0  0  0  0  0  0  0  0
  1  2  1  0
  2  3  2  0
  1  4  1  0
  4  5  1  0
  2  6  1  0
  5  7  1  0
  5  8  2  0
  6  9  1  0
  6 10  2  0
  8 11  1  0
  7 12  1  0
 11 12  2  0
 10 13  1  0
  9 14  1  0
 13 14  2  0
 12 15  1  0
 11 16  1  0
 15 17  2  0
 16 18  2  0
 17 18  1  0
 17 19  1  0
 19 20  1  0
 20 21  1  0
 21 22  1  0
 22 23  2  3
 23 24  1  0
 23 25  1  0
 24 26  1  1
 24 27  1  0
 27 28  1  0
 28 29  2  0
 28 30  1  0
 29 31  1  0
 29 32  1  0
 30 33  2  0
 32 34  2  0
 33 34  1  0
M  END
