x0371_0_A_β-x0844_0_A_α
     RDKit          3D

 11 12  0  0  0  0  0  0  0  0999 V2000
   -8.3770   14.4570    1.7200 C   0  0  0  0  0  0  0  0  0  0  0  0
   -7.1390   14.5990    0.9230 C   0  0  0  0  0  0  0  0  0  0  0  0
   -5.8900   14.6090    1.4960 N   0  0  0  0  0  0  0  0  0  0  0  0
   -7.0520   14.7290   -0.3830 N   0  0  0  0  0  0  0  0  0  0  0  0
   -4.9600   14.7480    0.5070 C   0  0  0  0  0  0  0  0  0  0  0  0
   -5.7110   14.8170   -0.6570 C   0  0  0  0  0  0  0  0  0  0  0  0
   -3.5680   14.8130    0.5400 C   0  0  0  0  0  0  0  0  0  0  0  0
   -5.0630   14.9520   -1.8830 C   0  0  0  0  0  0  0  0  0  0  0  0
   -2.9360   14.9400   -0.6960 C   0  0  0  0  0  0  0  0  0  0  0  0
   -3.6750   15.0030   -1.8760 C   0  0  0  0  0  0  0  0  0  0  0  0
   -2.7780   15.1470   -3.5250 Br  0  0  0  0  0  0  0  0  0  0  0  0
  1  2  1  0
  2  3  1  0
  2  4  2  0
  3  5  1  0
  4  6  1  0
  5  6  2  0
  5  7  1  0
  6  8  1  0
  7  9  2  0
  8 10  2  0
  9 10  1  0
 10 11  1  0
M  END
