x0371_0_A_α-x0962_1_A_α
     RDKit          3D

 16 17  0  0  0  0  0  0  0  0999 V2000
   -9.5100   14.0540    3.1790 N   0  0  0  0  0  0  0  0  0  0  0  0
   -8.6090   15.1290    3.5280 C   0  0  2  0  0  0  0  0  0  0  0  0
   -9.1080   16.2540    2.8370 O   0  0  0  0  0  0  0  0  0  0  0  0
   -7.1860   14.6790    3.1370 C   0  0  0  0  0  0  0  0  0  0  0  0
   -8.6280   15.3870    5.0080 C   0  0  0  0  0  0  0  0  0  0  0  0
   -8.0650   14.4090    5.7780 O   0  0  0  0  0  0  0  0  0  0  0  0
   -9.0890   16.4040    5.8240 C   0  0  0  0  0  0  0  0  0  0  0  0
   -6.8230   14.7120    1.6840 C   0  0  0  0  0  0  0  0  0  0  0  0
   -8.1570   14.7960    7.0680 C   0  0  0  0  0  0  0  0  0  0  0  0
   -8.7820   16.0150    7.1560 C   0  0  0  0  0  0  0  0  0  0  0  0
   -5.5200   14.8960    1.2780 N   0  0  0  0  0  0  0  0  0  0  0  0
   -7.6230   14.5830    0.6430 N   0  0  0  0  0  0  0  0  0  0  0  0
   -5.5020   14.8890   -0.0870 C   0  0  0  0  0  0  0  0  0  0  0  0
   -6.8100   14.6930   -0.4610 C   0  0  0  0  0  0  0  0  0  0  0  0
   -4.3520   15.0530   -0.8940 C   0  0  0  0  0  0  0  0  0  0  0  0
   -3.4370   15.1870   -1.5890 N   0  0  0  0  0  0  0  0  0  0  0  0
  2  1  1  1
  2  3  1  0
  2  4  1  0
  2  5  1  0
  5  6  1  0
  5  7  2  0
  4  8  1  0
  6  9  1  0
  7 10  1  0
  9 10  2  0
  8 11  1  0
  8 12  2  0
 11 13  1  0
 12 14  1  0
 13 14  2  0
 13 15  1  0
 15 16  3  0
M  END
