x0371_0_A-x0962_1_A
     RDKit          3D

 20 22  0  0  0  0  0  0  0  0999 V2000
   -8.1560   14.4210    2.6910 N   0  0  0  0  0  0  0  0  0  0  0  0
   -8.8140   15.4400    3.3750 C   0  0  0  0  0  0  0  0  0  0  0  0
   -9.4940   16.2760    2.7820 O   0  0  0  0  0  0  0  0  0  0  0  0
   -8.1250   14.3410    1.2330 C   0  0  0  0  0  0  0  0  0  0  0  0
   -6.7250   14.6500    0.7830 C   0  0  0  0  0  0  0  0  0  0  0  0
   -8.6460   15.4440    4.8210 C   0  0  0  0  0  0  0  0  0  0  0  0
   -5.7120   14.8140    1.6110 N   0  0  0  0  0  0  0  0  0  0  0  0
   -6.2240   14.8250   -0.5050 N   0  0  0  0  0  0  0  0  0  0  0  0
   -8.0630   14.3700    5.4430 O   0  0  0  0  0  0  0  0  0  0  0  0
   -8.9840   16.3860    5.7780 C   0  0  0  0  0  0  0  0  0  0  0  0
   -6.6690   14.7950   -1.8530 C   0  0  0  0  0  0  0  0  0  0  0  0
   -4.9410   15.1030   -0.4750 C   0  0  0  0  0  0  0  0  0  0  0  0
   -4.6090   15.0910    0.8370 C   0  0  0  0  0  0  0  0  0  0  0  0
   -8.5860   15.8590    7.0330 C   0  0  0  0  0  0  0  0  0  0  0  0
   -8.0280   14.6320    6.7740 C   0  0  0  0  0  0  0  0  0  0  0  0
   -6.7810   14.7770   -2.9830 N   0  0  0  0  0  0  0  0  0  0  0  0
   -3.2840   15.3460    1.1660 C   0  0  0  0  0  0  0  0  0  0  0  0
   -4.0760   15.3570   -1.5370 C   0  0  0  0  0  0  0  0  0  0  0  0
   -2.3660   15.6090    0.1320 C   0  0  0  0  0  0  0  0  0  0  0  0
   -2.7640   15.6150   -1.2050 C   0  0  0  0  0  0  0  0  0  0  0  0
  1  2  1  0
  2  3  2  0
  1  4  1  0
  4  5  1  0
  2  6  1  0
  5  7  2  0
  5  8  1  0
  6  9  1  0
  6 10  2  0
  8 11  1  0
  8 12  1  0
  7 13  1  0
 12 13  2  0
 10 14  1  0
  9 15  1  0
 14 15  2  0
 11 16  3  0
 13 17  1  0
 12 18  1  0
 17 19  2  0
 18 20  2  0
 19 20  1  0
M  END
