x0371_0_A-x1015_0_A
     RDKit          3D

 35 39  0  0  0  0  0  0  0  0999 V2000
   -8.0400   14.4690    3.0150 N   0  0  0  0  0  0  0  0  0  0  0  0
   -8.7200   15.4910    3.6330 C   0  0  0  0  0  0  0  0  0  0  0  0
   -9.3930   16.3070    3.0030 O   0  0  0  0  0  0  0  0  0  0  0  0
   -8.2850   14.1480    1.6340 C   0  0  0  0  0  0  0  0  0  0  0  0
   -7.0470   14.4790    0.8940 C   0  0  0  0  0  0  0  0  0  0  0  0
   -8.5870   15.5140    5.0710 C   0  0  0  0  0  0  0  0  0  0  0  0
   -5.8360   14.5470    1.5270 N   0  0  0  0  0  0  0  0  0  0  0  0
   -6.9310   14.7410   -0.3950 N   0  0  0  0  0  0  0  0  0  0  0  0
   -8.0340   14.4400    5.7110 O   0  0  0  0  0  0  0  0  0  0  0  0
   -8.9310   16.4710    6.0020 C   0  0  0  0  0  0  0  0  0  0  0  0
   -5.5940   14.9790   -0.5950 C   0  0  0  0  0  0  0  0  0  0  0  0
   -4.8850   14.8720    0.5980 C   0  0  0  0  0  0  0  0  0  0  0  0
   -8.5700   15.9490    7.2700 C   0  0  0  0  0  0  0  0  0  0  0  0
   -8.0250   14.7120    7.0360 C   0  0  0  0  0  0  0  0  0  0  0  0
   -3.5100   15.0710    0.6970 C   0  0  0  0  0  0  0  0  0  0  0  0
   -4.9070   15.2910   -1.7740 C   0  0  0  0  0  0  0  0  0  0  0  0
   -2.8390   15.3790   -0.4920 C   0  0  0  0  0  0  0  0  0  0  0  0
   -3.5140   15.4840   -1.7180 C   0  0  0  0  0  0  0  0  0  0  0  0
   -2.7470   15.7920   -2.9770 C   0  0  0  0  0  0  0  0  0  0  0  0
   -2.2990   14.4690   -3.6130 C   0  0  0  0  0  0  0  0  0  0  0  0
   -1.0220   14.6090   -4.4350 C   0  0  0  0  0  0  0  0  0  0  0  0
    0.1470   13.6850   -4.0140 C   0  0  2  0  0  0  0  0  0  0  0  0
   -0.1740   12.2610   -3.9140 N   0  0  0  0  0  0  0  0  0  0  0  0
    0.4540   13.9600   -2.5420 C   0  0  0  0  0  0  0  0  0  0  0  0
    0.4950   15.0560   -2.0060 O   0  0  0  0  0  0  0  0  0  0  0  0
    0.2530   11.7400   -2.6760 C   0  0  0  0  0  0  0  0  0  0  0  0
    0.6870   12.7830   -1.9170 N   0  0  0  0  0  0  0  0  0  0  0  0
   -0.5390   11.4570   -5.0230 C   0  0  0  0  0  0  0  0  0  0  0  0
    0.2660   10.5700   -2.2830 O   0  0  0  0  0  0  0  0  0  0  0  0
    0.0430   11.6510   -6.2870 C   0  0  0  0  0  0  0  0  0  0  0  0
   -1.4940   10.4390   -4.8930 C   0  0  0  0  0  0  0  0  0  0  0  0
   -0.3180   10.8550   -7.3800 C   0  0  0  0  0  0  0  0  0  0  0  0
   -1.8580    9.6400   -5.9820 C   0  0  0  0  0  0  0  0  0  0  0  0
   -1.2690    9.8520   -7.2220 C   0  0  0  0  0  0  0  0  0  0  0  0
   -1.7210    8.8690   -8.5590 Cl  0  0  0  0  0  0  0  0  0  0  0  0
  1  2  1  0
  2  3  2  0
  1  4  1  0
  4  5  1  0
  2  6  1  0
  5  7  1  0
  5  8  2  0
  6  9  1  0
  6 10  2  0
  8 11  1  0
  7 12  1  0
 11 12  2  0
 10 13  1  0
  9 14  1  0
 13 14  2  0
 12 15  1  0
 11 16  1  0
 15 17  2  0
 16 18  2  0
 17 18  1  0
 18 19  1  0
 19 20  1  0
 20 21  1  0
 22 21  1  1
 22 23  1  0
 22 24  1  0
 24 25  2  0
 23 26  1  0
 24 27  1  0
 26 27  1  0
 23 28  1  0
 26 29  2  0
 28 30  2  0
 28 31  1  0
 30 32  1  0
 31 33  2  0
 32 34  2  0
 33 34  1  0
 34 35  1  0
M  END
