x0371_0_A_β-x0967_0_A_α
     RDKit          3D

 10 11  0  0  0  0  0  0  0  0999 V2000
   -8.3590   14.3400    1.6860 C   0  0  0  0  0  0  0  0  0  0  0  0
   -7.1380   14.5710    0.8890 C   0  0  0  0  0  0  0  0  0  0  0  0
   -5.8860   14.5160    1.4430 N   0  0  0  0  0  0  0  0  0  0  0  0
   -7.0700   14.8490   -0.3990 N   0  0  0  0  0  0  0  0  0  0  0  0
   -4.9710   14.7670    0.4660 C   0  0  0  0  0  0  0  0  0  0  0  0
   -5.7310   14.9740   -0.6760 C   0  0  0  0  0  0  0  0  0  0  0  0
   -3.5850   14.8250    0.4970 C   0  0  0  0  0  0  0  0  0  0  0  0
   -5.0820   15.2610   -1.8810 C   0  0  0  0  0  0  0  0  0  0  0  0
   -2.9550   15.1040   -0.7140 C   0  0  0  0  0  0  0  0  0  0  0  0
   -3.6860   15.3230   -1.8870 C   0  0  0  0  0  0  0  0  0  0  0  0
  1  2  1  0
  2  3  1  0
  2  4  2  0
  3  5  1  0
  4  6  1  0
  5  6  2  0
  5  7  1  0
  6  8  1  0
  7  9  2  0
  8 10  2  0
  9 10  1  0
M  END
