x0371_0_A_β-x0926_0_A_α
     RDKit          3D

 11 12  0  0  0  0  0  0  0  0999 V2000
   -8.3910   14.3070    1.8660 C   0  0  0  0  0  0  0  0  0  0  0  0
   -7.1060   14.5410    1.1610 C   0  0  0  0  0  0  0  0  0  0  0  0
   -5.9460   14.6100    1.7620 N   0  0  0  0  0  0  0  0  0  0  0  0
   -7.1210   14.7130   -0.2080 N   0  0  0  0  0  0  0  0  0  0  0  0
   -5.0740   14.8140    0.7460 C   0  0  0  0  0  0  0  0  0  0  0  0
   -5.8630   14.9000   -0.4580 C   0  0  0  0  0  0  0  0  0  0  0  0
   -3.7490   14.9240    0.7040 C   0  0  0  0  0  0  0  0  0  0  0  0
   -5.2190   15.1610   -1.7450 C   0  0  0  0  0  0  0  0  0  0  0  0
   -5.9100   15.2810   -2.7160 O   0  0  0  0  0  0  0  0  0  0  0  0
   -3.0780   15.1230   -0.5670 C   0  0  0  0  0  0  0  0  0  0  0  0
   -3.7390   15.2440   -1.7360 C   0  0  0  0  0  0  0  0  0  0  0  0
  1  2  1  0
  2  3  2  0
  2  4  1  0
  3  5  1  0
  4  6  2  0
  5  6  1  0
  5  7  2  0
  6  8  1  0
  8  9  2  0
  7 10  1  0
  8 11  1  0
 10 11  2  0
M  END
