x0371_0_A-x0910_1_A
     RDKit          3D

 18 20  0  0  0  0  0  0  0  0999 V2000
   -8.1510   14.5470    2.9670 N   0  0  0  0  0  0  0  0  0  0  0  0
   -8.8300   15.5470    3.6150 C   0  0  0  0  0  0  0  0  0  0  0  0
   -9.5150   16.3690    3.0120 O   0  0  0  0  0  0  0  0  0  0  0  0
   -8.3780   14.2720    1.5760 C   0  0  0  0  0  0  0  0  0  0  0  0
   -7.1320   14.5240    0.8100 C   0  0  0  0  0  0  0  0  0  0  0  0
   -8.6650   15.5310    5.0500 C   0  0  0  0  0  0  0  0  0  0  0  0
   -5.8850   14.4720    1.3960 N   0  0  0  0  0  0  0  0  0  0  0  0
   -7.0380   14.8160   -0.4710 N   0  0  0  0  0  0  0  0  0  0  0  0
   -8.0620   14.4500    5.6310 O   0  0  0  0  0  0  0  0  0  0  0  0
   -9.0160   16.4430    6.0230 C   0  0  0  0  0  0  0  0  0  0  0  0
   -5.6950   14.9500   -0.7140 C   0  0  0  0  0  0  0  0  0  0  0  0
   -4.9560   14.7390    0.4390 C   0  0  0  0  0  0  0  0  0  0  0  0
   -8.6020   15.8860    7.2610 C   0  0  0  0  0  0  0  0  0  0  0  0
   -8.0280   14.6770    6.9660 C   0  0  0  0  0  0  0  0  0  0  0  0
   -3.5690   14.8040    0.4950 C   0  0  0  0  0  0  0  0  0  0  0  0
   -5.0320   15.2510   -1.9060 C   0  0  0  0  0  0  0  0  0  0  0  0
   -2.9260   15.0970   -0.7060 C   0  0  0  0  0  0  0  0  0  0  0  0
   -3.6370   15.3210   -1.8850 C   0  0  0  0  0  0  0  0  0  0  0  0
  1  2  1  0
  2  3  2  0
  1  4  1  0
  4  5  1  0
  2  6  1  0
  5  7  1  0
  5  8  2  0
  6  9  1  0
  6 10  2  0
  8 11  1  0
  7 12  1  0
 11 12  2  0
 10 13  1  0
  9 14  1  0
 13 14  2  0
 12 15  1  0
 11 16  1  0
 15 17  2  0
 16 18  2  0
 17 18  1  0
M  END
