x0371_0_A-x0864_0_A
     RDKit          3D

 33 36  0  0  0  0  0  0  0  0999 V2000
   -8.3080   15.6740    0.7320 N   0  0  0  0  0  0  0  0  0  0  0  0
   -9.1020   16.2200    1.7340 C   0  0  0  0  0  0  0  0  0  0  0  0
  -10.2550   16.6930    1.5180 O   0  0  0  0  0  0  0  0  0  0  0  0
   -7.5540   15.1530   -0.2990 C   0  0  0  0  0  0  0  0  0  0  0  0
   -6.0200   15.1340   -0.2210 C   0  0  0  0  0  0  0  0  0  0  0  0
   -8.7110   16.3510    3.1500 C   0  0  0  0  0  0  0  0  0  0  0  0
   -5.1800   14.3290    0.4920 N   0  0  0  0  0  0  0  0  0  0  0  0
   -5.2320   15.9600   -0.8880 N   0  0  0  0  0  0  0  0  0  0  0  0
   -7.8080   15.7530    3.8080 O   0  0  0  0  0  0  0  0  0  0  0  0
   -9.3200   17.2430    4.0550 C   0  0  0  0  0  0  0  0  0  0  0  0
   -3.9470   15.7300   -0.6670 C   0  0  0  0  0  0  0  0  0  0  0  0
   -3.8780   14.6650    0.2610 C   0  0  0  0  0  0  0  0  0  0  0  0
   -8.6980   17.1160    5.2840 C   0  0  0  0  0  0  0  0  0  0  0  0
   -7.7260   16.1310    5.0580 C   0  0  0  0  0  0  0  0  0  0  0  0
   -2.6440   14.2210    0.6850 C   0  0  0  0  0  0  0  0  0  0  0  0
   -2.7430   16.2430   -1.0990 C   0  0  0  0  0  0  0  0  0  0  0  0
   -1.4430   14.7150    0.2420 C   0  0  0  0  0  0  0  0  0  0  0  0
   -1.5160   15.7660   -0.6650 C   0  0  0  0  0  0  0  0  0  0  0  0
   -0.1090   14.2390    0.6390 C   0  0  0  0  0  0  0  0  0  0  0  0
    0.4520   13.5310   -0.6000 C   0  0  0  0  0  0  0  0  0  0  0  0
    1.4820   14.3880   -1.3670 C   0  0  0  0  0  0  0  0  0  0  0  0
    2.0560   13.8300   -2.4160 N   0  0  0  0  0  0  0  0  0  0  0  0
    2.5660   13.3340   -3.3500 C   0  0  0  0  0  0  0  0  0  0  0  0
    2.4440   13.6700   -4.8210 C   0  0  0  0  0  0  0  0  0  0  0  0
    3.4760   12.2520   -3.1740 O   0  0  0  0  0  0  0  0  0  0  0  0
    1.5130   12.7030   -5.4590 N   0  0  0  0  0  0  0  0  0  0  0  0
    0.3430   13.2230   -5.9180 C   0  0  0  0  0  0  0  0  0  0  0  0
    1.9860   11.6140   -6.1100 C   0  0  0  0  0  0  0  0  0  0  0  0
    3.2030   11.2690   -5.9300 O   0  0  0  0  0  0  0  0  0  0  0  0
   -0.3900   12.5340   -6.8450 C   0  0  0  0  0  0  0  0  0  0  0  0
    1.2360   10.8060   -6.9590 C   0  0  0  0  0  0  0  0  0  0  0  0
   -0.0060   11.2810   -7.3420 C   0  0  0  0  0  0  0  0  0  0  0  0
   -1.2060   10.2980   -8.5130 Br  0  0  0  0  0  0  0  0  0  0  0  0
  1  2  1  0
  2  3  2  0
  1  4  1  0
  4  5  1  0
  2  6  1  0
  5  7  1  0
  5  8  2  0
  6  9  1  0
  6 10  2  0
  8 11  1  0
  7 12  1  0
 11 12  2  0
 10 13  1  0
  9 14  1  0
 13 14  2  0
 12 15  1  0
 11 16  1  0
 15 17  2  0
 16 18  2  0
 17 18  1  0
 17 19  1  0
 19 20  1  0
 20 21  1  0
 21 22  1  0
 22 23  2  3
 23 24  1  0
 23 25  1  0
 24 26  1  0
 26 27  1  0
 26 28  1  0
 28 29  2  0
 27 30  2  0
 28 31  1  0
 30 32  1  0
 31 32  2  0
 32 33  1  0
M  END
