x0371_0_A-x0900_0_A
     RDKit          3D

 19 21  0  0  0  0  0  0  0  0999 V2000
   -8.1170   14.4400    3.1740 N   0  0  0  0  0  0  0  0  0  0  0  0
   -8.7670   15.5060    3.7440 C   0  0  0  0  0  0  0  0  0  0  0  0
   -9.3820   16.3430    3.0850 O   0  0  0  0  0  0  0  0  0  0  0  0
   -8.3090   14.1390    1.7830 C   0  0  0  0  0  0  0  0  0  0  0  0
   -7.0240   14.4390    1.0700 C   0  0  0  0  0  0  0  0  0  0  0  0
   -8.6600   15.5330    5.1760 C   0  0  0  0  0  0  0  0  0  0  0  0
   -5.8590   14.5140    1.6570 N   0  0  0  0  0  0  0  0  0  0  0  0
   -7.0670   14.6610   -0.2950 N   0  0  0  0  0  0  0  0  0  0  0  0
   -8.1000   14.4620    5.8140 O   0  0  0  0  0  0  0  0  0  0  0  0
   -9.0350   16.4760    6.1040 C   0  0  0  0  0  0  0  0  0  0  0  0
   -5.8230   14.8760   -0.5520 C   0  0  0  0  0  0  0  0  0  0  0  0
   -5.0100   14.7660    0.6370 C   0  0  0  0  0  0  0  0  0  0  0  0
   -8.6820   15.9510    7.3730 C   0  0  0  0  0  0  0  0  0  0  0  0
   -8.1140   14.7240    7.1390 C   0  0  0  0  0  0  0  0  0  0  0  0
   -3.6910   14.8940    0.5780 C   0  0  0  0  0  0  0  0  0  0  0  0
   -5.2100   15.1900   -1.8360 C   0  0  0  0  0  0  0  0  0  0  0  0
   -5.9310   15.3320   -2.7850 O   0  0  0  0  0  0  0  0  0  0  0  0
   -3.0470   15.1370   -0.6970 C   0  0  0  0  0  0  0  0  0  0  0  0
   -3.7300   15.2870   -1.8490 C   0  0  0  0  0  0  0  0  0  0  0  0
  1  2  1  0
  2  3  2  0
  1  4  1  0
  4  5  1  0
  2  6  1  0
  5  7  2  0
  5  8  1  0
  6  9  1  0
  6 10  2  0
  8 11  2  0
  7 12  1  0
 11 12  1  0
 10 13  1  0
  9 14  1  0
 13 14  2  0
 12 15  2  0
 11 16  1  0
 16 17  2  0
 15 18  1  0
 16 19  1  0
 18 19  2  0
M  END
