x0371_0_A_α-x0104_0_A_β
     RDKit          3D

 16 17  0  0  0  0  0  0  0  0999 V2000
   -7.4350   14.5690    2.7570 N   0  0  0  0  0  0  0  0  0  0  0  0
   -8.4150   15.4080    3.3090 C   0  0  0  0  0  0  0  0  0  0  0  0
   -9.2210   16.0840    2.6670 O   0  0  0  0  0  0  0  0  0  0  0  0
   -6.6990   14.6850    1.5240 C   0  0  0  0  0  0  0  0  0  0  0  0
   -8.4200   15.4260    4.7680 C   0  0  0  0  0  0  0  0  0  0  0  0
   -5.3180   14.9340    1.3540 C   0  0  0  0  0  0  0  0  0  0  0  0
   -7.4320   14.5400    0.3470 C   0  0  0  0  0  0  0  0  0  0  0  0
   -7.9230   14.3570    5.4640 O   0  0  0  0  0  0  0  0  0  0  0  0
   -8.8620   16.3810    5.6670 C   0  0  0  0  0  0  0  0  0  0  0  0
   -4.6790   15.0350    0.1460 N   0  0  0  0  0  0  0  0  0  0  0  0
   -6.8050   14.6440   -0.8970 C   0  0  0  0  0  0  0  0  0  0  0  0
   -8.0450   14.6330    6.7870 C   0  0  0  0  0  0  0  0  0  0  0  0
   -8.6180   15.8650    6.9670 C   0  0  0  0  0  0  0  0  0  0  0  0
   -5.4460   14.8880   -0.9530 C   0  0  0  0  0  0  0  0  0  0  0  0
   -4.9160   14.9700   -2.2340 O   0  0  0  0  0  0  0  0  0  0  0  0
   -3.4990   15.0650   -2.2880 C   0  0  0  0  0  0  0  0  0  0  0  0
  1  2  1  0
  2  3  2  0
  1  4  1  0
  2  5  1  0
  4  6  2  0
  4  7  1  0
  5  8  1  0
  5  9  2  0
  6 10  1  0
  7 11  2  0
  8 12  1  0
  9 13  1  0
 12 13  2  0
 10 14  2  0
 11 14  1  0
 14 15  1  0
 15 16  1  0
M  END
