x0371_0_A_β-x0524_0_A_α
     RDKit          3D

 32 35  0  0  0  0  0  0  0  0999 V2000
   -8.2780   14.4740    1.7380 C   0  0  0  0  0  0  0  0  0  0  0  0
   -7.0520   14.6040    0.8850 C   0  0  0  0  0  0  0  0  0  0  0  0
   -5.7720   14.6620    1.3420 N   0  0  0  0  0  0  0  0  0  0  0  0
   -6.9590   14.6920   -0.4510 N   0  0  0  0  0  0  0  0  0  0  0  0
   -4.9060   14.7750    0.3030 C   0  0  0  0  0  0  0  0  0  0  0  0
   -5.6790   14.7900   -0.8270 C   0  0  0  0  0  0  0  0  0  0  0  0
   -3.5230   14.8620    0.2390 C   0  0  0  0  0  0  0  0  0  0  0  0
   -5.0410   14.8900   -2.0630 C   0  0  0  0  0  0  0  0  0  0  0  0
   -2.9390   14.9520   -1.0100 C   0  0  0  0  0  0  0  0  0  0  0  0
   -3.6790   14.9640   -2.2070 C   0  0  0  0  0  0  0  0  0  0  0  0
   -3.0110   15.0440   -3.5160 C   0  0  0  0  0  0  0  0  0  0  0  0
   -3.6650   14.1630   -4.6010 C   0  0  0  0  0  0  0  0  0  0  0  0
   -2.7100   13.5630   -5.5980 C   0  0  0  0  0  0  0  0  0  0  0  0
   -2.8970   12.0110   -5.6440 C   0  0  0  0  0  0  0  0  0  0  0  0
   -2.8500   11.4580   -7.0500 C   0  0  0  0  0  0  0  0  0  0  0  0
   -2.4270   10.0530   -7.2300 C   0  0  0  0  0  0  0  0  0  0  0  0
   -0.9390    9.8480   -7.1060 C   0  0  0  0  0  0  0  0  0  0  0  0
   -0.1510    9.3280   -8.0720 N   0  0  0  0  0  0  0  0  0  0  0  0
   -0.4970   10.2650   -6.0230 O   0  0  0  0  0  0  0  0  0  0  0  0
    0.7950    8.9720   -8.9680 C   0  0  0  0  0  0  0  0  0  0  0  0
    1.7440    7.9650   -8.9730 C   0  0  0  0  0  0  0  0  0  0  0  0
    0.8360    9.8140  -10.1310 C   0  0  0  0  0  0  0  0  0  0  0  0
    2.6460    7.8200  -10.0110 C   0  0  0  0  0  0  0  0  0  0  0  0
    1.7220    9.6480  -11.1300 C   0  0  0  0  0  0  0  0  0  0  0  0
    2.6660    8.6460  -11.1030 C   0  0  0  0  0  0  0  0  0  0  0  0
    3.6130    8.4810  -12.1490 N   0  0  0  0  0  0  0  0  0  0  0  0
    3.9160    9.4770  -13.1400 C   0  0  0  0  0  0  0  0  0  0  0  0
    3.1510   10.6420  -13.2510 C   0  0  0  0  0  0  0  0  0  0  0  0
    4.9710    9.2310  -13.9570 C   0  0  0  0  0  0  0  0  0  0  0  0
    3.5350   11.5250  -14.2460 C   0  0  0  0  0  0  0  0  0  0  0  0
    5.3360   10.1230  -14.9420 C   0  0  0  0  0  0  0  0  0  0  0  0
    4.5900   11.2970  -15.0820 C   0  0  0  0  0  0  0  0  0  0  0  0
  1  2  1  0
  2  3  1  0
  2  4  2  0
  3  5  1  0
  4  6  1  0
  5  6  2  0
  5  7  1  0
  6  8  1  0
  7  9  2  0
  8 10  2  0
  9 10  1  0
 10 11  1  0
 11 12  1  0
 12 13  1  0
 13 14  1  0
 14 15  1  0
 15 16  1  0
 16 17  1  0
 17 18  1  0
 17 19  2  0
 18 20  1  0
 20 21  2  0
 20 22  1  0
 21 23  1  0
 22 24  2  0
 23 25  2  0
 24 25  1  0
 25 26  1  0
 26 27  1  0
 27 28  2  0
 27 29  1  0
 28 30  1  0
 29 31  2  0
 30 32  2  0
 31 32  1  0
M  END
