x0371_0_A-x0926_0_A
     RDKit          3D

 19 21  0  0  0  0  0  0  0  0999 V2000
   -8.1250   14.4390    3.1710 N   0  0  0  0  0  0  0  0  0  0  0  0
   -8.7720   15.5030    3.7480 C   0  0  0  0  0  0  0  0  0  0  0  0
   -9.3930   16.3380    3.0940 O   0  0  0  0  0  0  0  0  0  0  0  0
   -8.3180   14.1470    1.7750 C   0  0  0  0  0  0  0  0  0  0  0  0
   -7.0270   14.4360    1.0690 C   0  0  0  0  0  0  0  0  0  0  0  0
   -8.6570   15.5290    5.1820 C   0  0  0  0  0  0  0  0  0  0  0  0
   -5.8700   14.5120    1.6680 N   0  0  0  0  0  0  0  0  0  0  0  0
   -7.0510   14.6440   -0.2990 N   0  0  0  0  0  0  0  0  0  0  0  0
   -8.1060   14.4550    5.8220 O   0  0  0  0  0  0  0  0  0  0  0  0
   -9.0170   16.4830    6.1090 C   0  0  0  0  0  0  0  0  0  0  0  0
   -5.8010   14.8570   -0.5420 C   0  0  0  0  0  0  0  0  0  0  0  0
   -5.0080   14.7520    0.6600 C   0  0  0  0  0  0  0  0  0  0  0  0
   -8.6650   15.9590    7.3780 C   0  0  0  0  0  0  0  0  0  0  0  0
   -8.1130   14.7230    7.1460 C   0  0  0  0  0  0  0  0  0  0  0  0
   -3.6860   14.8780    0.6190 C   0  0  0  0  0  0  0  0  0  0  0  0
   -5.1650   15.1580   -1.8190 C   0  0  0  0  0  0  0  0  0  0  0  0
   -5.8650   15.2930   -2.7810 O   0  0  0  0  0  0  0  0  0  0  0  0
   -3.0220   15.1120   -0.6460 C   0  0  0  0  0  0  0  0  0  0  0  0
   -3.6840   15.2540   -1.8090 C   0  0  0  0  0  0  0  0  0  0  0  0
  1  2  1  0
  2  3  2  0
  1  4  1  0
  4  5  1  0
  2  6  1  0
  5  7  2  0
  5  8  1  0
  6  9  1  0
  6 10  2  0
  8 11  2  0
  7 12  1  0
 11 12  1  0
 10 13  1  0
  9 14  1  0
 13 14  2  0
 12 15  2  0
 11 16  1  0
 16 17  2  0
 15 18  1  0
 16 19  1  0
 18 19  2  0
M  END
