x0371_0_A_β-mac-242_0_A_α
     RDKit          3D

 20 23  0  0  0  0  0  0  0  0999 V2000
   -8.4680   14.1480    1.5570 C   0  0  0  0  0  0  0  0  0  0  0  0
   -7.2860   14.5020    0.7450 C   0  0  0  0  0  0  0  0  0  0  0  0
   -6.1160   14.9270    1.3350 N   0  0  0  0  0  0  0  0  0  0  0  0
   -7.1820   14.4640   -0.5760 N   0  0  0  0  0  0  0  0  0  0  0  0
   -5.2450   15.1740    0.3280 C   0  0  0  0  0  0  0  0  0  0  0  0
   -5.9070   14.8730   -0.8390 C   0  0  0  0  0  0  0  0  0  0  0  0
   -3.9300   15.6280    0.4600 C   0  0  0  0  0  0  0  0  0  0  0  0
   -5.2230   14.9940   -2.1550 C   0  0  0  0  0  0  0  0  0  0  0  0
   -3.1910   15.3210   -0.6100 C   0  0  0  0  0  0  0  0  0  0  0  0
   -3.7470   14.5950   -1.8010 C   0  0  2  0  0  0  0  0  0  0  0  0
   -2.6320   14.3420   -2.8130 C   0  0  0  0  0  0  0  0  0  0  0  0
   -3.7150   13.4040   -0.9050 C   0  0  0  0  0  0  0  0  0  0  0  0
   -2.5120   13.7990   -0.1080 C   0  0  0  0  0  0  0  0  0  0  0  0
   -1.4020   14.0670   -2.2870 C   0  0  0  0  0  0  0  0  0  0  0  0
   -2.5180   13.8970    1.2540 C   0  0  0  0  0  0  0  0  0  0  0  0
   -1.3400   14.1040   -0.8080 C   0  0  0  0  0  0  0  0  0  0  0  0
   -3.6840   13.6430    1.9450 N   0  0  0  0  0  0  0  0  0  0  0  0
   -0.2020   14.4510   -0.0930 C   0  0  0  0  0  0  0  0  0  0  0  0
   -1.4390   14.2340    1.9600 N   0  0  0  0  0  0  0  0  0  0  0  0
   -0.3090   14.4930    1.2850 C   0  0  0  0  0  0  0  0  0  0  0  0
  1  2  1  0
  2  3  1  0
  2  4  2  0
  3  5  1  0
  4  6  1  0
  5  6  2  0
  5  7  1  0
  6  8  1  0
  7  9  2  0
 10  8  1  6
 10  9  1  0
 10 11  1  0
 10 12  1  0
 12 13  1  0
 11 14  2  0
 13 15  1  0
 13 16  2  0
 14 16  1  0
 15 17  1  0
 16 18  1  0
 15 19  2  0
 18 20  2  0
 19 20  1  0
M  END
