x0371_0_A_α-x0128_0_A_α
     RDKit          3D

 16 18  0  0  0  0  0  0  0  0999 V2000
   -7.7780   14.5410    3.2320 N   0  0  0  0  0  0  0  0  0  0  0  0
   -8.8260   15.4730    3.4150 C   0  0  0  0  0  0  0  0  0  0  0  0
   -9.3050   16.2210    2.5750 O   0  0  0  0  0  0  0  0  0  0  0  0
   -6.5500   15.0330    2.7570 N   0  0  0  0  0  0  0  0  0  0  0  0
   -7.5690   13.8040    4.3930 N   0  0  0  0  0  0  0  0  0  0  0  0
   -9.3070   15.3650    4.8430 C   0  0  1  0  0  0  0  0  0  0  0  0
   -8.6170   14.1070    5.3400 C   0  0  2  0  0  0  0  0  0  0  0  0
   -6.1540   14.9390    1.3830 C   0  0  0  0  0  0  0  0  0  0  0  0
   -8.1530   14.4840    6.7130 C   0  0  0  0  0  0  0  0  0  0  0  0
   -8.8920   16.5040    5.7700 C   0  0  0  0  0  0  0  0  0  0  0  0
   -7.0170   14.6170    0.3260 C   0  0  0  0  0  0  0  0  0  0  0  0
   -4.8030   15.2160    1.0900 C   0  0  0  0  0  0  0  0  0  0  0  0
   -8.3180   15.7800    6.9530 C   0  0  0  0  0  0  0  0  0  0  0  0
   -6.5300   14.5840   -0.9880 C   0  0  0  0  0  0  0  0  0  0  0  0
   -4.3220   15.1810   -0.2170 C   0  0  0  0  0  0  0  0  0  0  0  0
   -5.1870   14.8680   -1.2580 C   0  0  0  0  0  0  0  0  0  0  0  0
  1  2  1  0
  2  3  2  0
  1  4  1  0
  1  5  1  0
  2  6  1  0
  5  7  1  0
  6  7  1  0
  4  8  1  0
  7  9  1  1
  6 10  1  1
  8 11  2  0
  8 12  1  0
  9 13  2  0
 10 13  1  0
 11 14  1  0
 12 15  2  0
 14 16  2  0
 15 16  1  0
M  END
