x0371_0_A-x0587_0_A
     RDKit          3D

 22 24  0  0  0  0  0  0  0  0999 V2000
   -7.9000   14.3970    2.7140 N   0  0  0  0  0  0  0  0  0  0  0  0
   -8.6750   15.3720    3.3550 C   0  0  0  0  0  0  0  0  0  0  0  0
   -9.3990   16.1290    2.7070 O   0  0  0  0  0  0  0  0  0  0  0  0
   -7.8950   14.2410    1.2500 C   0  0  0  0  0  0  0  0  0  0  0  0
   -6.4980   14.5630    0.7920 C   0  0  0  0  0  0  0  0  0  0  0  0
   -8.5820   15.4370    4.8130 C   0  0  0  0  0  0  0  0  0  0  0  0
   -5.5480   14.8440    1.6590 N   0  0  0  0  0  0  0  0  0  0  0  0
   -5.9090   14.6400   -0.4890 N   0  0  0  0  0  0  0  0  0  0  0  0
   -8.0610   14.3630    5.4860 O   0  0  0  0  0  0  0  0  0  0  0  0
   -8.9300   16.4050    5.7450 C   0  0  0  0  0  0  0  0  0  0  0  0
   -6.2230   14.4660   -1.8510 C   0  0  0  0  0  0  0  0  0  0  0  0
   -4.6520   14.9810   -0.3890 C   0  0  0  0  0  0  0  0  0  0  0  0
   -4.4170   15.0930    0.9330 C   0  0  0  0  0  0  0  0  0  0  0  0
   -8.5990   15.8860    7.0270 C   0  0  0  0  0  0  0  0  0  0  0  0
   -8.0710   14.6410    6.8090 C   0  0  0  0  0  0  0  0  0  0  0  0
   -5.0750   14.8140   -2.4980 F   0  0  0  0  0  0  0  0  0  0  0  0
   -6.3940   13.1600   -2.1630 F   0  0  0  0  0  0  0  0  0  0  0  0
   -7.1750   15.2430   -2.3670 F   0  0  0  0  0  0  0  0  0  0  0  0
   -3.1340   15.4230    1.3240 C   0  0  0  0  0  0  0  0  0  0  0  0
   -3.7250   15.1870   -1.4020 C   0  0  0  0  0  0  0  0  0  0  0  0
   -2.1560   15.6410    0.3410 C   0  0  0  0  0  0  0  0  0  0  0  0
   -2.4540   15.5280   -1.0090 C   0  0  0  0  0  0  0  0  0  0  0  0
  1  2  1  0
  2  3  2  0
  1  4  1  0
  4  5  1  0
  2  6  1  0
  5  7  2  0
  5  8  1  0
  6  9  1  0
  6 10  2  0
  8 11  1  0
  8 12  1  0
  7 13  1  0
 12 13  2  0
 10 14  1  0
  9 15  1  0
 14 15  2  0
 11 16  1  0
 11 17  1  0
 11 18  1  0
 13 19  1  0
 12 20  1  0
 19 21  2  0
 20 22  2  0
 21 22  1  0
M  END
