x0371_0_A_β-5DUS_0_A_δ
     RDKit          3D

 18 21  0  0  0  0  0  0  0  0999 V2000
   -8.9440   14.1860    1.0070 C   0  0  0  0  0  0  0  0  0  0  0  0
   -7.6100   14.4160    0.4240 C   0  0  0  0  0  0  0  0  0  0  0  0
   -6.5820   14.8110    1.2050 N   0  0  0  0  0  0  0  0  0  0  0  0
   -7.2300   14.2880   -0.8400 N   0  0  0  0  0  0  0  0  0  0  0  0
   -5.4880   14.9510    0.4200 C   0  0  0  0  0  0  0  0  0  0  0  0
   -5.8900   14.6120   -0.8660 C   0  0  0  0  0  0  0  0  0  0  0  0
   -4.2330   15.3330    0.7430 C   0  0  0  0  0  0  0  0  0  0  0  0
   -4.9520   14.6330   -1.9390 C   0  0  0  0  0  0  0  0  0  0  0  0
   -3.3640   15.3360   -0.3000 C   0  0  0  0  0  0  0  0  0  0  0  0
   -3.6490   14.9980   -1.6000 C   0  0  0  0  0  0  0  0  0  0  0  0
   -2.4760   15.0740   -2.4160 N   0  0  0  0  0  0  0  0  0  0  0  0
   -1.9820   15.6890   -0.1810 C   0  0  2  0  0  0  0  0  0  0  0  0
   -1.3910   15.0020   -1.3910 C   0  0  1  0  0  0  0  0  0  0  0  0
   -1.6040   15.2360    1.1970 C   0  0  1  0  0  0  0  0  0  0  0  0
   -2.6790   14.9170    2.1130 N   0  0  0  0  0  0  0  0  0  0  0  0
   -0.6610   13.8150   -1.0170 N   0  0  0  0  0  0  0  0  0  0  0  0
   -0.7300   14.1320    1.2940 N   0  0  0  0  0  0  0  0  0  0  0  0
    0.1270   14.0530    0.1600 C   0  0  0  0  0  0  0  0  0  0  0  0
  1  2  1  0
  2  3  1  0
  2  4  2  0
  3  5  1  0
  4  6  1  0
  5  6  2  0
  5  7  1  0
  6  8  1  0
  7  9  2  0
  8 10  2  0
  9 10  1  0
 10 11  1  0
 12  9  1  6
 13 11  1  6
 12 13  1  0
 12 14  1  0
 14 15  1  1
 13 16  1  0
 14 17  1  0
 16 18  1  0
 17 18  1  0
M  END
