x0371_0_A_α-x0962_0_A_α
     RDKit          3D

 17 18  0  0  0  0  0  0  0  0999 V2000
   -9.5240   14.1180    3.1500 N   0  0  0  0  0  0  0  0  0  0  0  0
   -8.6020   15.1680    3.4890 C   0  0  2  0  0  0  0  0  0  0  0  0
   -9.1120   16.3100    2.8550 O   0  0  0  0  0  0  0  0  0  0  0  0
   -7.2140   14.7620    2.9750 C   0  0  0  0  0  0  0  0  0  0  0  0
   -8.5910   15.3930    4.9690 C   0  0  0  0  0  0  0  0  0  0  0  0
   -7.0420   14.5690    1.4600 C   0  0  0  0  0  0  0  0  0  0  0  0
   -8.0330   14.3870    5.7070 O   0  0  0  0  0  0  0  0  0  0  0  0
   -9.0170   16.3990    5.8140 C   0  0  0  0  0  0  0  0  0  0  0  0
   -8.0980   14.7490    7.0080 C   0  0  0  0  0  0  0  0  0  0  0  0
   -8.6960   15.9770    7.1300 C   0  0  0  0  0  0  0  0  0  0  0  0
   -5.7060   14.8330    0.9370 N   0  0  0  0  0  0  0  0  0  0  0  0
   -4.6340   15.3430    1.6300 C   0  0  0  0  0  0  0  0  0  0  0  0
   -5.2920   14.6130   -0.3420 C   0  0  0  0  0  0  0  0  0  0  0  0
   -3.9700   14.9940   -0.3610 C   0  0  0  0  0  0  0  0  0  0  0  0
   -3.5670   15.4480    0.8690 N   0  0  0  0  0  0  0  0  0  0  0  0
   -3.0880   14.9420   -1.4780 C   0  0  0  0  0  0  0  0  0  0  0  0
   -2.3790   14.8490   -2.3910 N   0  0  0  0  0  0  0  0  0  0  0  0
  2  1  1  1
  2  3  1  0
  2  4  1  0
  2  5  1  0
  4  6  1  0
  5  7  1  0
  5  8  2  0
  7  9  1  0
  8 10  1  0
  9 10  2  0
  6 11  1  0
 11 12  1  0
 11 13  1  0
 13 14  2  0
 12 15  2  0
 14 15  1  0
 14 16  1  0
 16 17  3  0
M  END
