x0371_0_A-x0805_0_A
     RDKit          3D

 34 38  0  0  0  0  0  0  0  0999 V2000
   -8.2650   14.7140    3.4410 N   0  0  0  0  0  0  0  0  0  0  0  0
   -8.8060   15.7770    4.0710 C   0  0  0  0  0  0  0  0  0  0  0  0
   -9.3570   16.6780    3.4330 O   0  0  0  0  0  0  0  0  0  0  0  0
   -8.7670   14.4480    2.1540 C   0  0  0  0  0  0  0  0  0  0  0  0
   -7.6810   14.6350    1.2190 C   0  0  0  0  0  0  0  0  0  0  0  0
   -8.6990   15.7180    5.4860 C   0  0  0  0  0  0  0  0  0  0  0  0
   -6.3790   14.3900    1.5750 N   0  0  0  0  0  0  0  0  0  0  0  0
   -7.8170   15.0220   -0.0050 N   0  0  0  0  0  0  0  0  0  0  0  0
   -8.0900   14.6040    5.9940 O   0  0  0  0  0  0  0  0  0  0  0  0
   -9.0770   16.5430    6.5080 C   0  0  0  0  0  0  0  0  0  0  0  0
   -6.5760   14.9930   -0.5010 C   0  0  0  0  0  0  0  0  0  0  0  0
   -5.6350   14.5950    0.4550 C   0  0  0  0  0  0  0  0  0  0  0  0
   -8.6780   15.9020    7.7080 C   0  0  0  0  0  0  0  0  0  0  0  0
   -8.0810   14.7220    7.3320 C   0  0  0  0  0  0  0  0  0  0  0  0
   -4.2870   14.4500    0.2020 C   0  0  0  0  0  0  0  0  0  0  0  0
   -6.2300   15.2910   -1.7840 C   0  0  0  0  0  0  0  0  0  0  0  0
   -4.0270   14.6800   -1.1490 C   0  0  0  0  0  0  0  0  0  0  0  0
   -4.9440   15.1090   -2.0850 C   0  0  0  0  0  0  0  0  0  0  0  0
   -3.3000   14.0310    1.2310 C   0  0  0  0  0  0  0  0  0  0  0  0
   -2.8930   14.4750   -1.8840 C   0  0  0  0  0  0  0  0  0  0  0  0
   -3.4190   13.7630   -2.9560 C   0  0  0  0  0  0  0  0  0  0  0  0
   -1.5730   14.7600   -1.7920 C   0  0  0  0  0  0  0  0  0  0  0  0
   -2.6650   13.3150   -3.9710 C   0  0  0  0  0  0  0  0  0  0  0  0
   -0.7770   14.3050   -2.8340 C   0  0  0  0  0  0  0  0  0  0  0  0
   -1.3320   13.5880   -3.9150 C   0  0  0  0  0  0  0  0  0  0  0  0
    0.6820   14.5400   -2.8530 C   0  0  1  0  0  0  0  0  0  0  0  0
    1.3830   13.2150   -3.1120 C   0  0  1  0  0  0  0  0  0  0  0  0
    1.1260   15.6760   -3.7430 C   0  0  0  0  0  0  0  0  0  0  0  0
    0.7300   12.1200   -2.3360 C   0  0  0  0  0  0  0  0  0  0  0  0
    1.4560   12.9130   -4.5960 C   0  0  0  0  0  0  0  0  0  0  0  0
    1.1080   15.2030   -5.1630 C   0  0  0  0  0  0  0  0  0  0  0  0
    0.5530   10.9270   -2.9350 O   0  0  0  0  0  0  0  0  0  0  0  0
    0.3520   12.3040   -1.1990 O   0  0  0  0  0  0  0  0  0  0  0  0
    1.9280   14.0470   -5.2900 O   0  0  0  0  0  0  0  0  0  0  0  0
  1  2  1  0
  2  3  2  0
  1  4  1  0
  4  5  1  0
  2  6  1  0
  5  7  1  0
  5  8  2  0
  6  9  1  0
  6 10  2  0
  8 11  1  0
  7 12  1  0
 11 12  2  0
 10 13  1  0
  9 14  1  0
 13 14  2  0
 12 15  1  0
 11 16  1  0
 15 17  2  0
 16 18  2  0
 17 18  1  0
 15 19  1  0
 17 20  1  0
 20 21  2  0
 20 22  1  0
 21 23  1  0
 22 24  2  0
 23 25  2  0
 24 25  1  0
 26 24  1  6
 26 27  1  0
 26 28  1  0
 27 29  1  1
 27 30  1  0
 28 31  1  0
 29 32  1  0
 29 33  2  0
 30 34  1  0
 31 34  1  0
M  END
