x0371_0_A_β-x0855_0_A_α
     RDKit          3D

 23 25  0  0  0  0  0  0  0  0999 V2000
   -8.3820   14.4980    1.5150 C   0  0  0  0  0  0  0  0  0  0  0  0
   -7.0970   14.6500    0.7990 C   0  0  0  0  0  0  0  0  0  0  0  0
   -5.8980   14.4670    1.4290 N   0  0  0  0  0  0  0  0  0  0  0  0
   -6.9110   14.9670   -0.4730 N   0  0  0  0  0  0  0  0  0  0  0  0
   -4.8990   14.6640    0.5310 C   0  0  0  0  0  0  0  0  0  0  0  0
   -5.5420   14.9780   -0.6520 C   0  0  0  0  0  0  0  0  0  0  0  0
   -3.5250   14.5810    0.6840 C   0  0  0  0  0  0  0  0  0  0  0  0
   -4.7600   15.2420   -1.7870 C   0  0  0  0  0  0  0  0  0  0  0  0
   -2.7340   14.8260   -0.4390 C   0  0  0  0  0  0  0  0  0  0  0  0
   -3.3550   15.1610   -1.6680 C   0  0  0  0  0  0  0  0  0  0  0  0
   -1.2220   14.7050   -0.2720 C   0  0  0  0  0  0  0  0  0  0  0  0
   -0.4080   14.5320   -1.5670 C   0  0  0  0  0  0  0  0  0  0  0  0
    0.8170   13.6340   -1.3720 C   0  0  0  0  0  0  0  0  0  0  0  0
    1.4300   13.2790   -2.6210 O   0  0  0  0  0  0  0  0  0  0  0  0
    0.9070   12.2030   -3.2710 C   0  0  0  0  0  0  0  0  0  0  0  0
    0.6890   11.1140   -2.7470 O   0  0  0  0  0  0  0  0  0  0  0  0
    0.6360   12.5470   -4.7100 C   0  0  0  0  0  0  0  0  0  0  0  0
   -0.4260   11.6930   -5.1890 N   0  0  0  0  0  0  0  0  0  0  0  0
   -0.3230   10.7280   -6.1520 C   0  0  0  0  0  0  0  0  0  0  0  0
   -1.6760   11.8020   -4.6690 N   0  0  0  0  0  0  0  0  0  0  0  0
   -1.5690   10.1810   -6.2490 C   0  0  0  0  0  0  0  0  0  0  0  0
   -2.3690   10.8650   -5.3290 C   0  0  0  0  0  0  0  0  0  0  0  0
   -2.1310    8.7980   -7.3660 Br  0  0  0  0  0  0  0  0  0  0  0  0
  1  2  1  0
  2  3  1  0
  2  4  2  0
  3  5  1  0
  4  6  1  0
  5  6  2  0
  5  7  1  0
  6  8  1  0
  7  9  2  0
  8 10  2  0
  9 10  1  0
  9 11  1  0
 11 12  1  0
 12 13  1  0
 13 14  1  0
 14 15  1  0
 15 16  2  0
 15 17  1  0
 17 18  1  0
 18 19  1  0
 18 20  1  0
 19 21  2  0
 20 22  2  0
 21 22  1  0
 21 23  1  0
M  END
