x0371_0_A_α-x0592_0_A_α
     RDKit          3D

 17 18  0  0  0  0  0  0  0  0999 V2000
   -8.0210   14.6220    2.6310 N   0  0  0  0  0  0  0  0  0  0  0  0
   -8.7710   15.5180    3.3720 C   0  0  0  0  0  0  0  0  0  0  0  0
   -9.5330   16.3090    2.8240 O   0  0  0  0  0  0  0  0  0  0  0  0
   -8.1570   14.5280    1.1800 C   0  0  0  0  0  0  0  0  0  0  0  0
   -8.6010   15.4710    4.8190 C   0  0  0  0  0  0  0  0  0  0  0  0
   -6.9140   14.7200    0.4120 N   0  0  0  0  0  0  0  0  0  0  0  0
   -8.0250   14.3810    5.4140 O   0  0  0  0  0  0  0  0  0  0  0  0
   -8.9410   16.3890    5.8000 C   0  0  0  0  0  0  0  0  0  0  0  0
   -6.9560   15.0340   -0.9060 N   0  0  0  0  0  0  0  0  0  0  0  0
   -5.6380   14.6190    0.8880 C   0  0  0  0  0  0  0  0  0  0  0  0
   -7.9960   14.6080    6.7520 C   0  0  0  0  0  0  0  0  0  0  0  0
   -8.5500   15.8280    7.0430 C   0  0  0  0  0  0  0  0  0  0  0  0
   -4.7870   14.8810   -0.1680 C   0  0  0  0  0  0  0  0  0  0  0  0
   -5.6630   15.1310   -1.2510 C   0  0  0  0  0  0  0  0  0  0  0  0
   -3.3360   14.9030   -0.1880 C   0  0  0  0  0  0  0  0  0  0  0  0
   -2.7210   14.9630    1.0260 N   0  0  0  0  0  0  0  0  0  0  0  0
   -2.6750   14.8660   -1.2170 O   0  0  0  0  0  0  0  0  0  0  0  0
  1  2  1  0
  2  3  2  0
  1  4  1  0
  2  5  1  0
  4  6  1  0
  5  7  1  0
  5  8  2  0
  6  9  1  0
  6 10  1  0
  7 11  1  0
  8 12  1  0
 11 12  2  0
 10 13  2  0
  9 14  2  0
 13 14  1  0
 13 15  1  0
 15 16  1  0
 15 17  2  0
M  END
