x0371_0_A-x0592_0_A
     RDKit          3D

 21 23  0  0  0  0  0  0  0  0999 V2000
   -7.4870   15.0370    2.9720 N   0  0  0  0  0  0  0  0  0  0  0  0
   -8.6040   15.5980    3.5470 C   0  0  0  0  0  0  0  0  0  0  0  0
   -9.5280   16.0850    2.9040 O   0  0  0  0  0  0  0  0  0  0  0  0
   -7.5010   14.0990    1.8900 C   0  0  0  0  0  0  0  0  0  0  0  0
   -6.5020   14.4260    0.7990 C   0  0  0  0  0  0  0  0  0  0  0  0
   -8.5660   15.5640    4.9900 C   0  0  0  0  0  0  0  0  0  0  0  0
   -5.0830   14.6100    0.8600 N   0  0  0  0  0  0  0  0  0  0  0  0
   -6.8800   14.5810   -0.4690 N   0  0  0  0  0  0  0  0  0  0  0  0
   -7.9500   14.5130    5.6210 O   0  0  0  0  0  0  0  0  0  0  0  0
   -9.0610   16.4410    5.9350 C   0  0  0  0  0  0  0  0  0  0  0  0
   -4.0380   14.6070    1.7630 C   0  0  0  0  0  0  0  0  0  0  0  0
   -5.7380   14.8340   -1.1770 C   0  0  0  0  0  0  0  0  0  0  0  0
   -4.6540   14.8490   -0.3630 C   0  0  0  0  0  0  0  0  0  0  0  0
   -8.7320   15.8970    7.2010 C   0  0  0  0  0  0  0  0  0  0  0  0
   -8.0580   14.7290    6.9550 C   0  0  0  0  0  0  0  0  0  0  0  0
   -4.2980   15.0120    3.0070 N   0  0  0  0  0  0  0  0  0  0  0  0
   -2.9210   14.2870    1.3500 O   0  0  0  0  0  0  0  0  0  0  0  0
   -3.3510   15.0720   -0.7720 C   0  0  0  0  0  0  0  0  0  0  0  0
   -5.5210   15.0610   -2.5320 C   0  0  0  0  0  0  0  0  0  0  0  0
   -3.1440   15.2830   -2.1050 C   0  0  0  0  0  0  0  0  0  0  0  0
   -4.2100   15.2810   -2.9790 C   0  0  0  0  0  0  0  0  0  0  0  0
  1  2  1  0
  2  3  2  0
  1  4  1  0
  4  5  1  0
  2  6  1  0
  5  7  1  0
  5  8  2  0
  6  9  1  0
  6 10  2  0
  7 11  1  0
  8 12  1  0
  7 13  1  0
 12 13  2  0
 10 14  1  0
  9 15  1  0
 14 15  2  0
 11 16  1  0
 11 17  2  0
 13 18  1  0
 12 19  1  0
 18 20  2  0
 19 21  2  0
 20 21  1  0
M  END
