x0371_0_A-x0724_0_A
     RDKit          3D

 19 21  0  0  0  0  0  0  0  0999 V2000
   -8.2710   14.4300    3.1480 N   0  0  0  0  0  0  0  0  0  0  0  0
   -8.8080   15.5810    3.7000 C   0  0  0  0  0  0  0  0  0  0  0  0
   -9.3320   16.4460    2.9920 O   0  0  0  0  0  0  0  0  0  0  0  0
   -8.4370   14.2210    1.7050 C   0  0  0  0  0  0  0  0  0  0  0  0
   -8.1600   13.2340    3.9860 C   0  0  0  0  0  0  0  0  0  0  0  0
   -7.1890   14.4960    0.9220 C   0  0  0  0  0  0  0  0  0  0  0  0
   -8.7270   15.6670    5.1410 C   0  0  0  0  0  0  0  0  0  0  0  0
   -5.9270   14.4640    1.4780 N   0  0  0  0  0  0  0  0  0  0  0  0
   -7.1170   14.7960   -0.3670 N   0  0  0  0  0  0  0  0  0  0  0  0
   -8.0790   14.6380    5.7700 O   0  0  0  0  0  0  0  0  0  0  0  0
   -9.1610   16.5670    6.0900 C   0  0  0  0  0  0  0  0  0  0  0  0
   -5.7770   14.9490   -0.6380 C   0  0  0  0  0  0  0  0  0  0  0  0
   -5.0170   14.7440    0.5040 C   0  0  0  0  0  0  0  0  0  0  0  0
   -8.7560   16.0520    7.3490 C   0  0  0  0  0  0  0  0  0  0  0  0
   -8.0980   14.8760    7.0960 C   0  0  0  0  0  0  0  0  0  0  0  0
   -3.6300   14.8270    0.5390 C   0  0  0  0  0  0  0  0  0  0  0  0
   -5.1290   15.2620   -1.8390 C   0  0  0  0  0  0  0  0  0  0  0  0
   -3.0040   15.1290   -0.6680 C   0  0  0  0  0  0  0  0  0  0  0  0
   -3.7350   15.3460   -1.8380 C   0  0  0  0  0  0  0  0  0  0  0  0
  1  2  1  0
  2  3  2  0
  1  4  1  0
  1  5  1  0
  4  6  1  0
  2  7  1  0
  6  8  1  0
  6  9  2  0
  7 10  1  0
  7 11  2  0
  9 12  1  0
  8 13  1  0
 12 13  2  0
 11 14  1  0
 10 15  1  0
 14 15  2  0
 13 16  1  0
 12 17  1  0
 16 18  2  0
 17 19  2  0
 18 19  1  0
M  END
