x0371_0_A_β-x0591_0_A_α
     RDKit          3D

 18 20  0  0  0  0  0  0  0  0999 V2000
   -9.3490   13.1130   -0.5190 C   0  0  0  0  0  0  0  0  0  0  0  0
   -8.4390   12.6590   -1.4800 N   0  0  0  0  0  0  0  0  0  0  0  0
   -6.8870   12.8590   -1.2490 C   0  0  0  0  0  0  0  0  0  0  0  0
   -8.2790   13.7360    0.1590 C   0  0  0  0  0  0  0  0  0  0  0  0
   -6.4170   13.7710   -0.5020 C   0  0  0  0  0  0  0  0  0  0  0  0
   -7.8330   13.7010    1.3740 C   0  0  0  0  0  0  0  0  0  0  0  0
   -6.8480   11.8350   -1.9410 O   0  0  0  0  0  0  0  0  0  0  0  0
   -7.4210   13.6660    2.5460 N   0  0  0  0  0  0  0  0  0  0  0  0
   -5.5260   14.2200    0.4600 C   0  0  0  0  0  0  0  0  0  0  0  0
   -5.8340   13.3220   -1.9200 C   0  0  0  0  0  0  0  0  0  0  0  0
   -4.0890   14.6670    0.6340 C   0  0  0  0  0  0  0  0  0  0  0  0
   -4.7370   13.8480   -1.3440 C   0  0  0  0  0  0  0  0  0  0  0  0
   -6.4830   13.9400    1.5140 C   0  0  0  0  0  0  0  0  0  0  0  0
   -3.9980   14.5180   -3.1800 S   0  0  0  0  0  0  0  0  0  0  0  0
   -3.7660   14.3120   -0.9270 C   0  0  0  0  0  0  0  0  0  0  0  0
   -2.8290   15.4100   -2.4160 N   0  0  0  0  0  0  0  0  0  0  0  0
   -3.4730   13.0370   -3.0870 O   0  0  0  0  0  0  0  0  0  0  0  0
   -5.1650   15.2660   -2.8850 O   0  0  0  0  0  0  0  0  0  0  0  0
  1  2  1  0
  2  3  1  0
  1  4  1  0
  4  5  2  0
  4  6  1  0
  3  7  2  0
  6  8  2  0
  5  9  1  0
  3 10  1  0
  5 10  1  0
  9 11  1  0
 10 12  2  0
  8 13  1  0
  9 13  2  0
 12 14  1  0
 11 15  2  0
 12 15  1  0
 14 16  1  0
 14 17  2  0
 14 18  2  0
M  END
