x0371_0_A-x0253_0_A
     RDKit          3D

 35 38  0  0  0  0  0  0  0  0999 V2000
   -7.8810   14.5400    2.9550 N   0  0  0  0  0  0  0  0  0  0  0  0
   -8.6610   15.4920    3.5910 C   0  0  0  0  0  0  0  0  0  0  0  0
   -9.3770   16.2550    2.9460 O   0  0  0  0  0  0  0  0  0  0  0  0
   -8.1490   14.1910    1.5800 C   0  0  0  0  0  0  0  0  0  0  0  0
   -6.9220   14.5260    0.8140 C   0  0  0  0  0  0  0  0  0  0  0  0
   -8.5770   15.5080    5.0330 C   0  0  0  0  0  0  0  0  0  0  0  0
   -5.6920   14.5550    1.4140 N   0  0  0  0  0  0  0  0  0  0  0  0
   -6.8250   14.8280   -0.4700 N   0  0  0  0  0  0  0  0  0  0  0  0
   -8.0020   14.4340    5.6510 O   0  0  0  0  0  0  0  0  0  0  0  0
   -8.9720   16.4210    5.9950 C   0  0  0  0  0  0  0  0  0  0  0  0
   -5.4850   15.0530   -0.6890 C   0  0  0  0  0  0  0  0  0  0  0  0
   -4.7570   14.8880    0.4790 C   0  0  0  0  0  0  0  0  0  0  0  0
   -8.6160   15.8690    7.2510 C   0  0  0  0  0  0  0  0  0  0  0  0
   -8.0270   14.6590    6.9840 C   0  0  0  0  0  0  0  0  0  0  0  0
   -3.3760   15.0460    0.5690 C   0  0  0  0  0  0  0  0  0  0  0  0
   -4.8020   15.4010   -1.8590 C   0  0  0  0  0  0  0  0  0  0  0  0
   -2.6850   15.3910   -0.6080 C   0  0  0  0  0  0  0  0  0  0  0  0
   -3.4060   15.5670   -1.8060 C   0  0  0  0  0  0  0  0  0  0  0  0
   -1.1700   15.5640   -0.5680 C   0  0  0  0  0  0  0  0  0  0  0  0
   -0.4560   15.2960   -1.9130 C   0  0  0  0  0  0  0  0  0  0  0  0
    0.8420   14.4630   -1.8340 C   0  0  0  0  0  0  0  0  0  0  0  0
    0.6020   13.0230   -1.8730 N   0  0  0  0  0  0  0  0  0  0  0  0
    0.6670   12.2610   -2.9110 C   0  0  0  0  0  0  0  0  0  0  0  0
    0.4220   10.9380   -2.8620 O   0  0  0  0  0  0  0  0  0  0  0  0
    1.0210   12.7760   -4.3040 C   0  0  0  0  0  0  0  0  0  0  0  0
    0.3640   12.0040   -5.3550 N   0  0  0  0  0  0  0  0  0  0  0  0
    1.0820   11.7020   -6.4940 C   0  0  0  0  0  0  0  0  0  0  0  0
    2.1940   12.1550   -6.6570 O   0  0  0  0  0  0  0  0  0  0  0  0
    0.4620   10.7690   -7.4920 C   0  0  0  0  0  0  0  0  0  0  0  0
   -0.5130    9.8500   -7.1040 C   0  0  0  0  0  0  0  0  0  0  0  0
    0.8540   10.7980   -8.8430 C   0  0  0  0  0  0  0  0  0  0  0  0
   -1.0950    8.9780   -8.0340 C   0  0  0  0  0  0  0  0  0  0  0  0
    0.2820    9.9330   -9.7720 C   0  0  0  0  0  0  0  0  0  0  0  0
   -2.1420    8.0060   -7.5820 C   0  0  0  0  0  0  0  0  0  0  0  0
   -0.6910    9.0250   -9.3710 C   0  0  0  0  0  0  0  0  0  0  0  0
  1  2  1  0
  2  3  2  0
  1  4  1  0
  4  5  1  0
  2  6  1  0
  5  7  1  0
  5  8  2  0
  6  9  1  0
  6 10  2  0
  8 11  1  0
  7 12  1  0
 11 12  2  0
 10 13  1  0
  9 14  1  0
 13 14  2  0
 12 15  1  0
 11 16  1  0
 15 17  2  0
 16 18  2  0
 17 18  1  0
 17 19  1  0
 19 20  1  0
 20 21  1  0
 21 22  1  0
 22 23  2  3
 23 24  1  0
 23 25  1  0
 25 26  1  0
 26 27  1  0
 27 28  2  0
 27 29  1  0
 29 30  2  0
 29 31  1  0
 30 32  1  0
 31 33  2  0
 32 34  1  0
 32 35  2  0
 33 35  1  0
M  END
