x0371_0_A-x0438_0_A
     RDKit          3D

 20 22  0  0  0  0  0  0  0  0999 V2000
   -8.3020   14.2050    3.0370 N   0  0  0  0  0  0  0  0  0  0  0  0
   -8.7220   15.5030    3.6050 C   0  0  1  0  0  0  0  0  0  0  0  0
  -10.0860   15.8700    3.1600 N   0  0  0  0  0  0  0  0  0  0  0  0
   -8.4600   14.2000    1.5730 C   0  0  0  0  0  0  0  0  0  0  0  0
   -7.1710   14.4720    0.8480 C   0  0  0  0  0  0  0  0  0  0  0  0
   -8.6280   15.4980    5.1010 C   0  0  0  0  0  0  0  0  0  0  0  0
  -10.8480   14.6520    2.9190 O   0  0  0  0  0  0  0  0  0  0  0  0
   -9.9520   16.5600    1.8890 O   0  0  0  0  0  0  0  0  0  0  0  0
   -5.9260   14.4310    1.4390 N   0  0  0  0  0  0  0  0  0  0  0  0
   -7.0610   14.7770   -0.4340 N   0  0  0  0  0  0  0  0  0  0  0  0
   -8.0470   14.3990    5.6620 O   0  0  0  0  0  0  0  0  0  0  0  0
   -9.0010   16.3830    6.0960 C   0  0  0  0  0  0  0  0  0  0  0  0
   -5.7200   14.9290   -0.6720 C   0  0  0  0  0  0  0  0  0  0  0  0
   -4.9890   14.7150    0.4870 C   0  0  0  0  0  0  0  0  0  0  0  0
   -8.6240   15.7880    7.3210 C   0  0  0  0  0  0  0  0  0  0  0  0
   -8.0470   14.5850    7.0060 C   0  0  0  0  0  0  0  0  0  0  0  0
   -3.6020   14.7940    0.5490 C   0  0  0  0  0  0  0  0  0  0  0  0
   -5.0500   15.2460   -1.8570 C   0  0  0  0  0  0  0  0  0  0  0  0
   -2.9510   15.1020   -0.6430 C   0  0  0  0  0  0  0  0  0  0  0  0
   -3.6540   15.3290   -1.8290 C   0  0  0  0  0  0  0  0  0  0  0  0
  2  1  1  1
  2  3  1  0
  1  4  1  0
  4  5  1  0
  2  6  1  0
  3  7  1  0
  3  8  1  0
  5  9  1  0
  5 10  2  0
  6 11  1  0
  6 12  2  0
 10 13  1  0
  9 14  1  0
 13 14  2  0
 12 15  1  0
 11 16  1  0
 15 16  2  0
 14 17  1  0
 13 18  1  0
 17 19  2  0
 18 20  2  0
 19 20  1  0
M  END
