x0371_0_A_α-x0685_0_A_α
     RDKit          3D

 17 18  0  0  0  0  0  0  0  0999 V2000
   -8.6250   13.7710    2.8220 N   0  0  0  0  0  0  0  0  0  0  0  0
   -7.9440   14.9680    3.2190 C   0  0  2  0  0  0  0  0  0  0  0  0
   -8.6700   16.0020    2.5760 O   0  0  0  0  0  0  0  0  0  0  0  0
   -6.5170   15.0850    2.8250 N   0  0  0  0  0  0  0  0  0  0  0  0
   -8.2110   15.2580    4.7100 C   0  0  0  0  0  0  0  0  0  0  0  0
   -7.8510   14.2800    5.6060 O   0  0  0  0  0  0  0  0  0  0  0  0
   -8.7560   16.3240    5.4220 C   0  0  0  0  0  0  0  0  0  0  0  0
   -5.8800   15.0350    1.5350 C   0  0  0  0  0  0  0  0  0  0  0  0
   -8.1520   14.7180    6.8500 C   0  0  0  0  0  0  0  0  0  0  0  0
   -8.7150   15.9690    6.7960 C   0  0  0  0  0  0  0  0  0  0  0  0
   -4.4860   15.2820    1.5310 C   0  0  0  0  0  0  0  0  0  0  0  0
   -6.5140   14.7920    0.3690 N   0  0  0  0  0  0  0  0  0  0  0  0
   -3.7530   15.2870    0.3380 C   0  0  0  0  0  0  0  0  0  0  0  0
   -5.7810   14.8080   -0.7890 C   0  0  0  0  0  0  0  0  0  0  0  0
   -4.4170   15.0490   -0.8560 C   0  0  0  0  0  0  0  0  0  0  0  0
   -3.7310   15.0540   -2.1160 C   0  0  0  0  0  0  0  0  0  0  0  0
   -3.1850   15.0740   -3.1400 N   0  0  0  0  0  0  0  0  0  0  0  0
  2  1  1  6
  2  3  1  0
  2  4  1  0
  2  5  1  0
  5  6  1  0
  5  7  2  0
  4  8  1  0
  6  9  1  0
  7 10  1  0
  9 10  2  0
  8 11  2  0
  8 12  1  0
 11 13  1  0
 12 14  2  0
 13 15  2  0
 14 15  1  0
 15 16  1  0
 16 17  3  0
M  END
