x0371_0_A-x0844_0_A
     RDKit          3D

 19 21  0  0  0  0  0  0  0  0999 V2000
   -8.1530   14.5990    2.9670 N   0  0  0  0  0  0  0  0  0  0  0  0
   -8.8400   15.5760    3.6410 C   0  0  0  0  0  0  0  0  0  0  0  0
   -9.5320   16.3880    3.0290 O   0  0  0  0  0  0  0  0  0  0  0  0
   -8.4250   14.3530    1.5830 C   0  0  0  0  0  0  0  0  0  0  0  0
   -7.1600   14.5440    0.8330 C   0  0  0  0  0  0  0  0  0  0  0  0
   -8.6870   15.5540    5.0770 C   0  0  0  0  0  0  0  0  0  0  0  0
   -5.9230   14.5760    1.4350 N   0  0  0  0  0  0  0  0  0  0  0  0
   -7.0550   14.6990   -0.4710 N   0  0  0  0  0  0  0  0  0  0  0  0
   -8.0850   14.4580    5.6330 O   0  0  0  0  0  0  0  0  0  0  0  0
   -9.0310   16.4370    6.0840 C   0  0  0  0  0  0  0  0  0  0  0  0
   -5.7160   14.8200   -0.7150 C   0  0  0  0  0  0  0  0  0  0  0  0
   -4.9820   14.7510    0.4620 C   0  0  0  0  0  0  0  0  0  0  0  0
   -8.6140   15.8450    7.3050 C   0  0  0  0  0  0  0  0  0  0  0  0
   -8.0440   14.6440    6.9730 C   0  0  0  0  0  0  0  0  0  0  0  0
   -3.5920   14.8440    0.5190 C   0  0  0  0  0  0  0  0  0  0  0  0
   -5.0550   14.9840   -1.9280 C   0  0  0  0  0  0  0  0  0  0  0  0
   -2.9430   14.9960   -0.7080 C   0  0  0  0  0  0  0  0  0  0  0  0
   -3.6680   15.0580   -1.9030 C   0  0  0  0  0  0  0  0  0  0  0  0
   -2.7670   15.2280   -3.5480 Br  0  0  0  0  0  0  0  0  0  0  0  0
  1  2  1  0
  2  3  2  0
  1  4  1  0
  4  5  1  0
  2  6  1  0
  5  7  1  0
  5  8  2  0
  6  9  1  0
  6 10  2  0
  8 11  1  0
  7 12  1  0
 11 12  2  0
 10 13  1  0
  9 14  1  0
 13 14  2  0
 12 15  1  0
 11 16  1  0
 15 17  2  0
 16 18  2  0
 17 18  1  0
 18 19  1  0
M  END
