x0371_0_A_β-x0290_0_A_α
     RDKit          3D

 22 24  0  0  0  0  0  0  0  0999 V2000
   -7.5730   14.4080    1.5000 C   0  0  1  0  0  0  0  0  0  0  0  0
   -8.7350   13.5740    0.9590 C   0  0  0  0  0  0  0  0  0  0  0  0
   -6.5340   13.6660    2.3540 C   0  0  0  0  0  0  0  0  0  0  0  0
   -6.6210   14.7400    0.4440 C   0  0  0  0  0  0  0  0  0  0  0  0
   -5.2710   13.3950    1.5100 C   0  0  0  0  0  0  0  0  0  0  0  0
   -5.4060   15.1870    0.8600 N   0  0  0  0  0  0  0  0  0  0  0  0
   -6.7160   14.6610   -0.8610 N   0  0  0  0  0  0  0  0  0  0  0  0
   -5.3540   12.7050    0.4840 O   0  0  0  0  0  0  0  0  0  0  0  0
   -4.0220   13.9070    1.7960 N   0  0  0  0  0  0  0  0  0  0  0  0
   -4.6440   15.4010   -0.2200 C   0  0  0  0  0  0  0  0  0  0  0  0
   -5.4710   15.0650   -1.2890 C   0  0  0  0  0  0  0  0  0  0  0  0
   -3.3330   15.8410   -0.3440 C   0  0  0  0  0  0  0  0  0  0  0  0
   -4.9560   15.1690   -2.5780 C   0  0  0  0  0  0  0  0  0  0  0  0
   -2.8040   14.0480    1.0940 C   0  0  0  0  0  0  0  0  0  0  0  0
   -2.8390   15.9340   -1.6410 C   0  0  0  0  0  0  0  0  0  0  0  0
   -3.6320   15.6050   -2.7400 C   0  0  0  0  0  0  0  0  0  0  0  0
   -1.7440   14.3090    1.8990 N   0  0  0  0  0  0  0  0  0  0  0  0
   -2.6310   13.9420   -0.2810 C   0  0  0  0  0  0  0  0  0  0  0  0
   -0.5200   14.4600    1.3420 C   0  0  0  0  0  0  0  0  0  0  0  0
   -1.3490   14.1110   -0.8420 C   0  0  0  0  0  0  0  0  0  0  0  0
   -1.1280   14.0120   -2.3240 C   0  0  0  0  0  0  0  0  0  0  0  0
   -0.2750   14.3730   -0.0060 C   0  0  0  0  0  0  0  0  0  0  0  0
  1  2  1  6
  1  3  1  0
  1  4  1  0
  3  5  1  0
  4  6  1  0
  4  7  2  0
  5  8  2  0
  5  9  1  0
  6 10  1  0
  7 11  1  0
 10 11  2  0
 10 12  1  0
 11 13  1  0
  9 14  1  0
 12 15  2  0
 13 16  2  0
 15 16  1  0
 14 17  2  0
 14 18  1  0
 17 19  1  0
 18 20  2  0
 20 21  1  0
 19 22  2  0
 20 22  1  0
M  END
