x0371_0_A_α-x0722_0_A_α
     RDKit          3D

 22 23  0  0  0  0  0  0  0  0999 V2000
   -9.2090   14.0970    3.0120 N   0  0  0  0  0  0  0  0  0  0  0  0
   -8.4420   15.2430    3.4430 C   0  0  2  0  0  0  0  0  0  0  0  0
   -8.9700   16.3630    2.7720 O   0  0  0  0  0  0  0  0  0  0  0  0
   -6.9420   14.9280    3.2930 C   0  0  0  0  0  0  0  0  0  0  0  0
   -8.5830   15.4730    4.9240 C   0  0  0  0  0  0  0  0  0  0  0  0
   -6.1560   14.8480    1.9390 C   0  0  0  0  0  0  0  0  0  0  0  0
   -8.0570   14.4810    5.7090 O   0  0  0  0  0  0  0  0  0  0  0  0
   -9.1120   16.4590    5.7330 C   0  0  0  0  0  0  0  0  0  0  0  0
   -4.7440   15.5340    2.0450 C   0  0  0  0  0  0  0  0  0  0  0  0
   -8.2440   14.8320    6.9980 C   0  0  0  0  0  0  0  0  0  0  0  0
   -8.8930   16.0430    7.0730 C   0  0  0  0  0  0  0  0  0  0  0  0
   -3.6010   15.0870    1.2340 C   0  0  0  0  0  0  0  0  0  0  0  0
   -2.4650   14.7340    1.8340 N   0  0  0  0  0  0  0  0  0  0  0  0
   -3.5250   15.0040   -0.1680 C   0  0  0  0  0  0  0  0  0  0  0  0
   -4.6080   15.3290   -1.1460 C   0  0  0  0  0  0  0  0  0  0  0  0
   -2.2280   14.5750   -0.4030 C   0  0  0  0  0  0  0  0  0  0  0  0
   -1.6410   14.4360    0.8300 N   0  0  0  0  0  0  0  0  0  0  0  0
   -0.2930   14.0310    1.1510 C   0  0  0  0  0  0  0  0  0  0  0  0
   -1.5090   14.3020   -1.6720 C   0  0  0  0  0  0  0  0  0  0  0  0
   -5.9150   14.6200   -0.8290 C   0  0  0  0  0  0  0  0  0  0  0  0
   -7.0250   15.1350   -0.9510 O   0  0  0  0  0  0  0  0  0  0  0  0
   -5.8070   13.3330   -0.3860 N   0  0  0  0  0  0  0  0  0  0  0  0
  2  1  1  6
  2  3  1  0
  2  4  1  0
  2  5  1  0
  4  6  1  0
  5  7  1  0
  5  8  2  0
  6  9  1  0
  7 10  1  0
  8 11  1  0
 10 11  2  0
  9 12  1  0
 12 13  2  0
 12 14  1  0
 14 15  1  0
 14 16  2  0
 13 17  1  0
 16 17  1  0
 17 18  1  0
 16 19  1  0
 15 20  1  0
 20 21  2  0
 20 22  1  0
M  END
