x0371_0_A-x1012_0_A
     RDKit          3D

 32 35  0  0  0  0  0  0  0  0999 V2000
   -8.0960   14.4310    3.0310 N   0  0  0  0  0  0  0  0  0  0  0  0
   -8.7500   15.4710    3.6500 C   0  0  0  0  0  0  0  0  0  0  0  0
   -9.4000   16.3040    3.0190 O   0  0  0  0  0  0  0  0  0  0  0  0
   -8.3850   14.1220    1.6580 C   0  0  0  0  0  0  0  0  0  0  0  0
   -7.1570   14.4660    0.9210 C   0  0  0  0  0  0  0  0  0  0  0  0
   -8.6180   15.4870    5.0840 C   0  0  0  0  0  0  0  0  0  0  0  0
   -5.9700   14.5540    1.5860 N   0  0  0  0  0  0  0  0  0  0  0  0
   -7.0140   14.7210   -0.3650 N   0  0  0  0  0  0  0  0  0  0  0  0
   -8.0390   14.4200    5.7130 O   0  0  0  0  0  0  0  0  0  0  0  0
   -8.9870   16.4300    6.0230 C   0  0  0  0  0  0  0  0  0  0  0  0
   -5.6720   14.9800   -0.5170 C   0  0  0  0  0  0  0  0  0  0  0  0
   -5.0070   14.8820    0.7000 C   0  0  0  0  0  0  0  0  0  0  0  0
   -8.6110   15.9080    7.2830 C   0  0  0  0  0  0  0  0  0  0  0  0
   -8.0370   14.6850    7.0410 C   0  0  0  0  0  0  0  0  0  0  0  0
   -3.6540   15.0880    0.8870 C   0  0  0  0  0  0  0  0  0  0  0  0
   -4.9330   15.3040   -1.6520 C   0  0  0  0  0  0  0  0  0  0  0  0
   -2.9380   15.4060   -0.2490 C   0  0  0  0  0  0  0  0  0  0  0  0
   -3.5550   15.5100   -1.4920 C   0  0  0  0  0  0  0  0  0  0  0  0
   -2.6720   15.8410   -2.6290 C   0  0  0  0  0  0  0  0  0  0  0  0
   -3.3010   15.9710   -4.0010 C   0  0  0  0  0  0  0  0  0  0  0  0
   -2.2840   15.3850   -4.6830 N   0  0  0  0  0  0  0  0  0  0  0  0
   -1.2070   16.0150   -4.7780 C   0  0  0  0  0  0  0  0  0  0  0  0
   -1.0930   17.3010   -4.3140 N   0  0  0  0  0  0  0  0  0  0  0  0
   -0.1320   15.4580   -5.2770 N   0  0  0  0  0  0  0  0  0  0  0  0
   -0.4210   14.0520   -5.5930 C   0  0  0  0  0  0  0  0  0  0  0  0
    1.0860   15.6250   -4.4780 C   0  0  0  0  0  0  0  0  0  0  0  0
   -0.6540   13.2990   -4.3060 C   0  0  0  0  0  0  0  0  0  0  0  0
    1.1730   14.6850   -3.2610 C   0  0  0  0  0  0  0  0  0  0  0  0
    0.6630   13.2640   -3.5600 C   0  0  0  0  0  0  0  0  0  0  0  0
    0.5260   12.4100   -2.3250 C   0  0  0  0  0  0  0  0  0  0  0  0
    0.2080   11.1320   -2.6050 O   0  0  0  0  0  0  0  0  0  0  0  0
    0.6560   12.7670   -1.1710 O   0  0  0  0  0  0  0  0  0  0  0  0
  1  2  1  0
  2  3  2  0
  1  4  1  0
  4  5  1  0
  2  6  1  0
  5  7  1  0
  5  8  2  0
  6  9  1  0
  6 10  2  0
  8 11  1  0
  7 12  1  0
 11 12  2  0
 10 13  1  0
  9 14  1  0
 13 14  2  0
 12 15  1  0
 11 16  1  0
 15 17  2  0
 16 18  2  0
 17 18  1  0
 18 19  1  0
 19 20  1  0
 20 21  1  0
 21 22  2  3
 22 23  1  0
 22 24  1  0
 24 25  1  0
 24 26  1  0
 25 27  1  0
 26 28  1  0
 27 29  1  0
 28 29  1  0
 29 30  1  0
 30 31  1  0
 30 32  2  0
M  END
