x0371_0_A_α-x0837_0_A_α
     RDKit          3D

 18 19  0  0  0  0  0  0  0  0999 V2000
   -9.8890   13.8850    3.4360 N   0  0  0  0  0  0  0  0  0  0  0  0
   -9.1070   15.0710    3.6120 C   0  0  2  0  0  0  0  0  0  0  0  0
   -9.9290   16.1490    3.1890 O   0  0  0  0  0  0  0  0  0  0  0  0
   -7.9030   15.0490    2.6900 C   0  0  0  0  0  0  0  0  0  0  0  0
   -8.8020   15.2950    5.0560 C   0  0  0  0  0  0  0  0  0  0  0  0
   -7.7070   13.7670    1.8950 C   0  0  0  0  0  0  0  0  0  0  0  0
   -8.1770   14.2650    5.7020 O   0  0  0  0  0  0  0  0  0  0  0  0
   -9.0130   16.3330    5.9420 C   0  0  0  0  0  0  0  0  0  0  0  0
   -7.3280   14.1190    0.5250 N   0  0  0  0  0  0  0  0  0  0  0  0
   -7.9950   14.6460    6.9870 C   0  0  0  0  0  0  0  0  0  0  0  0
   -8.4930   15.9060    7.1880 C   0  0  0  0  0  0  0  0  0  0  0  0
   -6.1770   14.6540    0.3140 C   0  0  0  0  0  0  0  0  0  0  0  0
   -5.3490   14.8950    1.3890 N   0  0  0  0  0  0  0  0  0  0  0  0
   -5.5850   15.0400   -1.0290 C   0  0  0  0  0  0  0  0  0  0  0  0
   -4.0270   15.1730    1.2700 C   0  0  0  0  0  0  0  0  0  0  0  0
   -4.1550   14.5010   -1.0500 C   0  0  1  0  0  0  0  0  0  0  0  0
   -3.0990   14.8730   -2.9140 I   0  0  0  0  0  0  0  0  0  0  0  0
   -3.3710   15.0090    0.1230 C   0  0  0  0  0  0  0  0  0  0  0  0
  2  1  1  1
  2  3  1  0
  2  4  1  0
  2  5  1  0
  4  6  1  0
  5  7  1  0
  5  8  2  0
  6  9  1  0
  7 10  1  0
  8 11  1  0
 10 11  2  0
  9 12  2  3
 12 13  1  0
 12 14  1  0
 13 15  1  0
 14 16  1  0
 16 17  1  6
 15 18  2  0
 16 18  1  0
M  END
