x0371_0_A_β-x0371_0_A_α
     RDKit          3D

 17 19  0  0  0  0  0  0  0  0999 V2000
   -8.2560   14.3500    2.2520 C   0  0  0  0  0  0  0  0  0  0  0  0
   -8.7780   15.4980    3.1550 C   0  0  0  0  0  0  0  0  0  0  0  0
   -9.3830   16.4530    2.6720 O   0  0  0  0  0  0  0  0  0  0  0  0
   -7.1230   14.6200    1.2750 C   0  0  0  0  0  0  0  0  0  0  0  0
   -5.8100   14.6140    1.6430 N   0  0  0  0  0  0  0  0  0  0  0  0
   -7.2060   14.8870   -0.0330 N   0  0  0  0  0  0  0  0  0  0  0  0
   -8.5790   15.4410    4.6160 C   0  0  0  0  0  0  0  0  0  0  0  0
   -5.0120   14.8740    0.5780 C   0  0  0  0  0  0  0  0  0  0  0  0
   -5.8970   15.0450   -0.4730 C   0  0  0  0  0  0  0  0  0  0  0  0
   -8.0310   14.3400    5.2180 O   0  0  0  0  0  0  0  0  0  0  0  0
   -8.8720   16.3800    5.6020 C   0  0  0  0  0  0  0  0  0  0  0  0
   -3.6300   14.9610    0.4650 C   0  0  0  0  0  0  0  0  0  0  0  0
   -5.3760   15.3330   -1.7450 C   0  0  0  0  0  0  0  0  0  0  0  0
   -7.9750   14.5780    6.5590 C   0  0  0  0  0  0  0  0  0  0  0  0
   -8.4820   15.8190    6.8460 C   0  0  0  0  0  0  0  0  0  0  0  0
   -3.1340   15.2380   -0.8050 C   0  0  0  0  0  0  0  0  0  0  0  0
   -3.9830   15.4260   -1.8970 C   0  0  0  0  0  0  0  0  0  0  0  0
  1  2  1  0
  2  3  2  0
  1  4  1  0
  4  5  1  0
  4  6  2  0
  2  7  1  0
  5  8  1  0
  6  9  1  0
  8  9  2  0
  7 10  1  0
  7 11  2  0
  8 12  1  0
  9 13  1  0
 10 14  1  0
 11 15  1  0
 14 15  2  0
 12 16  2  0
 13 17  2  0
 16 17  1  0
M  END
