x0371_0_A_α-x0574_0_A_α
     RDKit          3D

 19 21  0  0  0  0  0  0  0  0999 V2000
   -7.2170   14.6680    2.5120 N   0  0  0  0  0  0  0  0  0  0  0  0
   -8.2410   15.3500    3.2270 C   0  0  0  0  0  0  0  0  0  0  0  0
   -9.1110   15.9080    2.5420 O   0  0  0  0  0  0  0  0  0  0  0  0
   -6.8980   15.0170    1.1330 O   0  0  0  0  0  0  0  0  0  0  0  0
   -8.3050   15.4150    4.6980 C   0  0  0  0  0  0  0  0  0  0  0  0
   -5.5630   14.9450    0.6330 C   0  0  0  0  0  0  0  0  0  0  0  0
   -7.8550   14.3390    5.4230 O   0  0  0  0  0  0  0  0  0  0  0  0
   -8.7470   16.3770    5.6060 C   0  0  0  0  0  0  0  0  0  0  0  0
   -4.5510   14.7650    1.5580 C   0  0  0  0  0  0  0  0  0  0  0  0
   -5.1950   15.0420   -0.7210 C   0  0  0  0  0  0  0  0  0  0  0  0
   -8.0030   14.6110    6.7430 C   0  0  0  0  0  0  0  0  0  0  0  0
   -8.5520   15.8540    6.9130 C   0  0  0  0  0  0  0  0  0  0  0  0
   -3.2020   14.6490    1.1690 C   0  0  0  0  0  0  0  0  0  0  0  0
   -3.8470   14.9470   -1.1400 C   0  0  0  0  0  0  0  0  0  0  0  0
   -2.8580   14.7400   -0.1650 C   0  0  0  0  0  0  0  0  0  0  0  0
   -2.1510   14.4390    2.0210 N   0  0  0  0  0  0  0  0  0  0  0  0
   -1.0380   14.3530    1.3840 C   0  0  0  0  0  0  0  0  0  0  0  0
   -1.1380   14.5600   -0.3120 S   0  0  0  0  0  0  0  0  0  0  0  0
    0.0870   14.1110    2.0490 N   0  0  0  0  0  0  0  0  0  0  0  0
  1  2  1  0
  2  3  2  0
  1  4  1  0
  2  5  1  0
  4  6  1  0
  5  7  1  0
  5  8  2  0
  6  9  2  0
  6 10  1  0
  7 11  1  0
  8 12  1  0
 11 12  2  0
  9 13  1  0
 10 14  2  0
 13 15  2  0
 14 15  1  0
 13 16  1  0
 16 17  2  0
 15 18  1  0
 17 18  1  0
 17 19  1  0
M  END
