x0371_0_A_α-x0421_0_A_α
     RDKit          3D

 19 21  0  0  0  0  0  0  0  0999 V2000
   -9.6780   13.1340    3.1800 N   0  0  0  0  0  0  0  0  0  0  0  0
   -8.8160   14.2640    3.2670 C   0  0  1  0  0  0  0  0  0  0  0  0
   -9.4940   15.3170    2.5860 O   0  0  0  0  0  0  0  0  0  0  0  0
   -8.6790   14.8110    4.6940 C   0  0  0  0  0  0  0  0  0  0  0  0
   -7.5650   13.9430    2.4590 C   0  0  1  0  0  0  0  0  0  0  0  0
   -8.0600   13.9960    5.6050 O   0  0  0  0  0  0  0  0  0  0  0  0
   -9.0440   15.9920    5.3420 C   0  0  0  0  0  0  0  0  0  0  0  0
   -6.9180   14.6550    1.2420 C   0  0  1  0  0  0  0  0  0  0  0  0
   -6.8910   15.1860    2.6250 C   0  0  0  0  0  0  0  0  0  0  0  0
   -8.0300   14.6440    6.8000 C   0  0  0  0  0  0  0  0  0  0  0  0
   -8.6260   15.8740    6.6940 C   0  0  0  0  0  0  0  0  0  0  0  0
   -5.4530   14.6850    0.6630 C   0  0  0  0  0  0  0  0  0  0  0  0
   -4.3170   14.6100    1.4170 N   0  0  0  0  0  0  0  0  0  0  0  0
   -5.1430   14.8010   -0.6110 N   0  0  0  0  0  0  0  0  0  0  0  0
   -3.7480   14.7980   -0.6620 C   0  0  0  0  0  0  0  0  0  0  0  0
   -3.2280   14.6810    0.6050 C   0  0  0  0  0  0  0  0  0  0  0  0
   -2.9840   14.9040   -1.9030 C   0  0  0  0  0  0  0  0  0  0  0  0
   -3.7620   15.1420   -2.9960 N   0  0  0  0  0  0  0  0  0  0  0  0
   -1.7660   14.7910   -1.9810 O   0  0  0  0  0  0  0  0  0  0  0  0
  2  1  1  1
  2  3  1  0
  2  4  1  0
  2  5  1  0
  4  6  1  0
  4  7  2  0
  5  8  1  0
  5  9  1  1
  8  9  1  0
  6 10  1  0
  7 11  1  0
 10 11  2  0
  8 12  1  1
 12 13  1  0
 12 14  2  0
 14 15  1  0
 13 16  1  0
 15 16  2  0
 15 17  1  0
 17 18  1  0
 17 19  2  0
M  END
