x0371_0_A_β-5cb5_I_0_I_β
     RDKit          3D

 22 23  0  0  0  0  0  0  0  0999 V2000
   -8.4390   14.3710    1.3150 C   0  0  0  0  0  0  0  0  0  0  0  0
   -7.1040   14.6060    0.7190 C   0  0  0  0  0  0  0  0  0  0  0  0
   -5.9770   14.6710    1.4940 N   0  0  0  0  0  0  0  0  0  0  0  0
   -6.8050   14.7790   -0.5610 N   0  0  0  0  0  0  0  0  0  0  0  0
   -4.9120   14.8960    0.6830 C   0  0  0  0  0  0  0  0  0  0  0  0
   -5.4360   14.9560   -0.6020 C   0  0  0  0  0  0  0  0  0  0  0  0
   -3.5730   15.0400    0.9880 C   0  0  0  0  0  0  0  0  0  0  0  0
   -4.5470   15.1690   -1.6830 C   0  0  0  0  0  0  0  0  0  0  0  0
   -2.7170   15.2420   -0.0730 C   0  0  0  0  0  0  0  0  0  0  0  0
   -3.1620   15.3020   -1.3900 C   0  0  0  0  0  0  0  0  0  0  0  0
   -2.0530   15.4980   -2.3890 C   0  0  0  0  0  0  0  0  0  0  0  0
   -2.3680   16.0250   -3.7650 C   0  0  0  0  0  0  0  0  0  0  0  0
   -1.3060   17.0170   -4.1940 C   0  0  0  0  0  0  0  0  0  0  0  0
   -1.9060   18.1780   -4.7110 O   0  0  0  0  0  0  0  0  0  0  0  0
   -1.6370   18.2580   -6.2660 P   0  0  0  0  0  0  0  0  0  0  0  0
   -1.2760   19.7360   -6.6300 O   0  0  0  0  0  0  0  0  0  0  0  0
   -0.2050   17.5490   -6.3320 O   0  0  0  0  0  0  0  0  0  0  0  0
   -2.6460   17.5700   -7.0620 O   0  0  0  0  0  0  0  0  0  0  0  0
   -0.3300   20.0260   -7.8490 P   0  0  0  0  0  0  0  0  0  0  0  0
   -1.2950   20.8130   -8.8280 O   0  0  0  0  0  0  0  0  0  0  0  0
    0.9850   20.6530   -7.5940 O   0  0  0  0  0  0  0  0  0  0  0  0
   -0.2010   18.6450   -8.6650 O   0  0  0  0  0  0  0  0  0  0  0  0
  1  2  1  0
  2  3  1  0
  2  4  2  0
  3  5  1  0
  4  6  1  0
  5  6  2  0
  5  7  1  0
  6  8  1  0
  7  9  2  0
  8 10  2  0
  9 10  1  0
 10 11  1  0
 11 12  1  0
 12 13  1  0
 13 14  1  0
 14 15  1  0
 15 16  1  0
 15 17  1  0
 15 18  2  0
 16 19  1  0
 19 20  1  0
 19 21  2  0
 19 22  1  0
M  END
