x0371_0_A_β-x0895_1_A_α
     RDKit          3D

 12 13  0  0  0  0  0  0  0  0999 V2000
   -8.1780   14.1610    2.0960 C   0  0  0  0  0  0  0  0  0  0  0  0
   -6.9610   14.4310    1.3080 C   0  0  0  0  0  0  0  0  0  0  0  0
   -5.6890   14.3990    1.8470 N   0  0  0  0  0  0  0  0  0  0  0  0
   -6.9220   14.7240    0.0420 N   0  0  0  0  0  0  0  0  0  0  0  0
   -4.7960   14.6980    0.8480 C   0  0  0  0  0  0  0  0  0  0  0  0
   -5.6000   14.8890   -0.2440 C   0  0  0  0  0  0  0  0  0  0  0  0
   -3.3460   14.8150    0.8030 C   0  0  0  0  0  0  0  0  0  0  0  0
   -5.1080   15.2160   -1.5280 C   0  0  0  0  0  0  0  0  0  0  0  0
   -2.5240   14.7740    1.7430 O   0  0  0  0  0  0  0  0  0  0  0  0
   -5.8340   15.4690   -2.4290 O   0  0  0  0  0  0  0  0  0  0  0  0
   -2.8150   15.0040   -0.5810 C   0  0  0  0  0  0  0  0  0  0  0  0
   -3.6230   15.1920   -1.6350 C   0  0  0  0  0  0  0  0  0  0  0  0
  1  2  1  0
  2  3  1  0
  2  4  2  0
  3  5  1  0
  4  6  1  0
  5  6  2  0
  5  7  1  0
  6  8  1  0
  7  9  2  0
  8 10  2  0
  7 11  1  0
  8 12  1  0
 11 12  2  0
M  END
