x0371_0_A_β-x0849_0_A_α
     RDKit          3D

 15 17  0  0  0  0  0  0  0  0999 V2000
   -8.1500   14.0610    1.5610 C   0  0  0  0  0  0  0  0  0  0  0  0
   -6.9190   14.5030    0.8680 C   0  0  0  0  0  0  0  0  0  0  0  0
   -5.7880   14.8950    1.5630 N   0  0  0  0  0  0  0  0  0  0  0  0
   -6.7280   14.5830   -0.4420 N   0  0  0  0  0  0  0  0  0  0  0  0
   -4.8480   15.2540    0.6440 C   0  0  0  0  0  0  0  0  0  0  0  0
   -5.4510   15.0350   -0.5630 C   0  0  0  0  0  0  0  0  0  0  0  0
   -3.4600   15.7640    0.8450 C   0  0  0  0  0  0  0  0  0  0  0  0
   -4.7320   15.2700   -1.7520 C   0  0  0  0  0  0  0  0  0  0  0  0
   -2.5950   15.2010   -0.3420 C   0  0  1  0  0  0  0  0  0  0  0  0
   -3.3810   15.3410   -1.6860 C   0  0  0  0  0  0  0  0  0  0  0  0
   -1.1160   15.7460   -0.5450 C   0  0  0  0  0  0  0  0  0  0  0  0
   -2.4110   13.7950    0.2160 C   0  0  0  0  0  0  0  0  0  0  0  0
   -1.6480   13.9910    1.4480 N   0  0  0  0  0  0  0  0  0  0  0  0
   -0.0280   15.1310    0.3190 C   0  0  0  0  0  0  0  0  0  0  0  0
   -0.3510   14.2900    1.2830 C   0  0  0  0  0  0  0  0  0  0  0  0
  1  2  1  0
  2  3  1  0
  2  4  2  0
  3  5  1  0
  4  6  1  0
  5  6  2  0
  5  7  1  0
  6  8  1  0
  9  7  1  1
  8 10  2  0
  9 10  1  0
  9 11  1  0
  9 12  1  0
 12 13  1  0
 11 14  1  0
 13 15  1  0
 14 15  2  0
M  END
