x0371_0_A_β-3ew5_A_0_A_α
     RDKit          3D

 25 26  0  0  0  0  0  0  0  0999 V2000
   -8.2420   14.2800    1.5780 C   0  0  0  0  0  0  0  0  0  0  0  0
   -7.0090   14.5590    0.8060 C   0  0  0  0  0  0  0  0  0  0  0  0
   -5.7850   14.7030    1.4170 N   0  0  0  0  0  0  0  0  0  0  0  0
   -6.9060   14.7050   -0.4990 N   0  0  0  0  0  0  0  0  0  0  0  0
   -4.8500   14.9550    0.4470 C   0  0  0  0  0  0  0  0  0  0  0  0
   -5.5700   14.9490   -0.7370 C   0  0  0  0  0  0  0  0  0  0  0  0
   -3.4730   15.1790    0.5100 C   0  0  0  0  0  0  0  0  0  0  0  0
   -4.8990   15.1730   -1.9450 C   0  0  0  0  0  0  0  0  0  0  0  0
   -2.8160   15.4000   -0.7120 C   0  0  0  0  0  0  0  0  0  0  0  0
   -3.5090   15.3970   -1.9400 C   0  0  0  0  0  0  0  0  0  0  0  0
   -2.7880   15.6240   -3.2600 C   0  0  0  0  0  0  0  0  0  0  0  0
   -1.2690   15.8290   -3.1820 C   0  0  0  0  0  0  0  0  0  0  0  0
   -0.6590   16.2320   -4.5400 C   0  0  0  0  0  0  0  0  0  0  0  0
   -0.1430   17.6780   -4.6220 C   0  0  0  0  0  0  0  0  0  0  0  0
   -0.8060   18.5130   -5.7210 C   0  0  0  0  0  0  0  0  0  0  0  0
    0.2090   19.2070   -6.4350 O   0  0  0  0  0  0  0  0  0  0  0  0
   -0.1810   20.0530   -7.7410 P   0  0  1  0  0  0  0  0  0  0  0  0
   -1.7660   20.3290   -7.6190 O   0  0  0  0  0  0  0  0  0  0  0  0
    0.6680   21.2600   -7.9670 O   0  0  0  0  0  0  0  0  0  0  0  0
   -0.0400   18.8930   -8.8450 O   0  0  0  0  0  0  0  0  0  0  0  0
   -2.2480   21.5870   -8.1060 C   0  0  0  0  0  0  0  0  0  0  0  0
   -3.4120   22.1320   -7.2660 C   0  0  2  0  0  0  0  0  0  0  0  0
   -4.7510   22.1750   -8.0200 C   0  0  0  0  0  0  0  0  0  0  0  0
   -3.1370   23.4730   -6.8220 O   0  0  0  0  0  0  0  0  0  0  0  0
   -5.7950   21.9590   -7.0670 O   0  0  0  0  0  0  0  0  0  0  0  0
  1  2  1  0
  2  3  1  0
  2  4  2  0
  3  5  1  0
  4  6  1  0
  5  6  2  0
  5  7  1  0
  6  8  1  0
  7  9  2  0
  8 10  2  0
  9 10  1  0
 10 11  1  0
 11 12  1  0
 12 13  1  0
 13 14  1  0
 14 15  1  0
 15 16  1  0
 16 17  1  0
 17 18  1  0
 17 19  2  0
 17 20  1  6
 18 21  1  0
 21 22  1  0
 22 23  1  0
 22 24  1  6
 23 25  1  0
M  END
