x0371_0_A-x0685_0_A
     RDKit          3D

 21 24  0  0  0  0  0  0  0  0999 V2000
   -8.3740   13.7910    2.6340 N   0  0  0  0  0  0  0  0  0  0  0  0
   -7.6240   14.9240    3.0150 C   0  0  2  0  0  0  0  0  0  0  0  0
   -8.4270   15.9340    2.4500 O   0  0  0  0  0  0  0  0  0  0  0  0
   -9.0950   14.1990    1.4540 C   0  0  0  0  0  0  0  0  0  0  0  0
   -6.2180   15.0390    2.4490 N   0  0  0  0  0  0  0  0  0  0  0  0
   -8.2800   14.2700    0.1860 C   0  0  0  0  0  0  0  0  0  0  0  0
   -7.9040   15.1980    4.5280 C   0  0  0  0  0  0  0  0  0  0  0  0
   -6.8660   14.5910    0.0070 C   0  0  0  0  0  0  0  0  0  0  0  0
   -7.6030   14.2120    5.4390 O   0  0  0  0  0  0  0  0  0  0  0  0
   -8.4420   16.2780    5.2380 C   0  0  0  0  0  0  0  0  0  0  0  0
   -5.8710   14.9380    1.0070 C   0  0  0  0  0  0  0  0  0  0  0  0
   -9.0630   13.9700   -0.9370 C   0  0  0  0  0  0  0  0  0  0  0  0
   -8.6480   13.9400   -2.2020 N   0  0  0  0  0  0  0  0  0  0  0  0
   -6.4550   14.5420   -1.3650 C   0  0  0  0  0  0  0  0  0  0  0  0
   -8.4560   15.9190    6.6140 C   0  0  0  0  0  0  0  0  0  0  0  0
   -7.9310   14.6540    6.6790 C   0  0  0  0  0  0  0  0  0  0  0  0
   -4.5080   15.1890    0.5010 C   0  0  0  0  0  0  0  0  0  0  0  0
   -4.1820   15.1050   -0.8880 C   0  0  0  0  0  0  0  0  0  0  0  0
   -5.1630   14.7950   -1.7720 C   0  0  0  0  0  0  0  0  0  0  0  0
   -7.3600   14.2270   -2.3750 C   0  0  0  0  0  0  0  0  0  0  0  0
   -2.9240   15.3110   -1.4470 N   0  0  0  0  0  0  0  0  0  0  0  0
  1  2  1  0
  2  3  1  6
  1  4  1  0
  2  5  1  0
  4  6  1  0
  2  7  1  0
  6  8  1  0
  7  9  1  0
  7 10  2  0
  5 11  1  0
  8 11  2  0
  6 12  2  0
 12 13  1  0
  8 14  1  0
 10 15  1  0
  9 16  1  0
 15 16  2  0
 11 17  1  0
 17 18  2  0
 14 19  2  0
 18 19  1  0
 13 20  2  0
 14 20  1  0
 18 21  1  0
M  END
