x0371_0_A_α-x0926_0_A_α
     RDKit          3D

 18 19  0  0  0  0  0  0  0  0999 V2000
   -9.9140   14.2080    3.2800 N   0  0  0  0  0  0  0  0  0  0  0  0
   -8.8640   15.1480    3.5260 C   0  0  2  0  0  0  0  0  0  0  0  0
   -9.3600   16.3690    3.0000 O   0  0  0  0  0  0  0  0  0  0  0  0
   -7.6620   14.7020    2.6940 C   0  0  0  0  0  0  0  0  0  0  0  0
   -8.6600   15.3400    4.9950 C   0  0  0  0  0  0  0  0  0  0  0  0
   -7.9830   14.4510    1.2110 C   0  0  0  0  0  0  0  0  0  0  0  0
   -8.0730   14.2990    5.6510 O   0  0  0  0  0  0  0  0  0  0  0  0
   -8.9400   16.3550    5.8890 C   0  0  0  0  0  0  0  0  0  0  0  0
   -7.0790   13.4840    0.4690 C   0  0  0  0  0  0  0  0  0  0  0  0
   -7.9800   14.6460    6.9550 C   0  0  0  0  0  0  0  0  0  0  0  0
   -8.5000   15.8980    7.1570 C   0  0  0  0  0  0  0  0  0  0  0  0
   -6.4200   14.1780   -0.6320 N   0  0  0  0  0  0  0  0  0  0  0  0
   -5.3540   14.8630   -0.3770 C   0  0  0  0  0  0  0  0  0  0  0  0
   -4.7190   15.0370    1.0080 C   0  0  0  0  0  0  0  0  0  0  0  0
   -4.6770   15.4640   -1.4020 N   0  0  0  0  0  0  0  0  0  0  0  0
   -3.3250   15.2610   -1.4350 N   0  0  0  0  0  0  0  0  0  0  0  0
   -3.2410   14.8710    0.9230 C   0  0  0  0  0  0  0  0  0  0  0  0
   -2.6340   14.9820   -0.2650 C   0  0  0  0  0  0  0  0  0  0  0  0
  2  1  1  1
  2  3  1  0
  2  4  1  0
  2  5  1  0
  4  6  1  0
  5  7  1  0
  5  8  2  0
  6  9  1  0
  7 10  1  0
  8 11  1  0
 10 11  2  0
  9 12  1  0
 12 13  2  3
 13 14  1  0
 13 15  1  0
 15 16  1  0
 14 17  1  0
 16 18  1  0
 17 18  2  0
M  END
