x0371_0_A_β-x0805_0_A_α
     RDKit          3D

 17 19  0  0  0  0  0  0  0  0999 V2000
   -8.5270   14.7960    2.4760 C   0  0  0  0  0  0  0  0  0  0  0  0
   -7.5090   14.8370    1.4210 C   0  0  0  0  0  0  0  0  0  0  0  0
   -6.1830   14.6080    1.6710 N   0  0  0  0  0  0  0  0  0  0  0  0
   -7.7180   15.0900    0.1520 N   0  0  0  0  0  0  0  0  0  0  0  0
   -5.5090   14.6950    0.4960 C   0  0  0  0  0  0  0  0  0  0  0  0
   -6.4980   15.0060   -0.4330 C   0  0  0  0  0  0  0  0  0  0  0  0
   -4.1700   14.5180    0.1850 C   0  0  0  0  0  0  0  0  0  0  0  0
   -6.1910   15.1820   -1.7610 C   0  0  0  0  0  0  0  0  0  0  0  0
   -3.9320   14.6330   -1.1850 C   0  0  0  0  0  0  0  0  0  0  0  0
   -4.8980   14.9770   -2.1130 C   0  0  0  0  0  0  0  0  0  0  0  0
   -3.1350   14.1880    1.1960 C   0  0  0  0  0  0  0  0  0  0  0  0
   -2.7640   14.3730   -1.9010 C   0  0  0  0  0  0  0  0  0  0  0  0
   -3.1960   13.5440   -2.9250 C   0  0  0  0  0  0  0  0  0  0  0  0
   -1.4420   14.7320   -1.7860 C   0  0  0  0  0  0  0  0  0  0  0  0
   -0.5640   14.2310   -2.7480 C   0  0  0  0  0  0  0  0  0  0  0  0
   -2.3520   13.0490   -3.8590 C   0  0  0  0  0  0  0  0  0  0  0  0
   -1.0220   13.3950   -3.7770 C   0  0  0  0  0  0  0  0  0  0  0  0
  1  2  1  0
  2  3  1  0
  2  4  2  0
  3  5  1  0
  4  6  1  0
  5  6  2  0
  5  7  1  0
  6  8  1  0
  7  9  2  0
  8 10  2  0
  9 10  1  0
  7 11  1  0
  9 12  1  0
 12 13  2  0
 12 14  1  0
 14 15  2  0
 13 16  1  0
 15 17  1  0
 16 17  2  0
M  END
