x0371_0_A_α-x0711_0_A_α
     RDKit          3D

 24 25  0  0  0  0  0  0  0  0999 V2000
   -9.7690   13.9640    3.3990 N   0  0  0  0  0  0  0  0  0  0  0  0
   -8.9440   15.1160    3.6080 C   0  0  2  0  0  0  0  0  0  0  0  0
   -9.6440   16.2250    3.0870 O   0  0  0  0  0  0  0  0  0  0  0  0
   -7.6360   14.9640    2.8600 C   0  0  0  0  0  0  0  0  0  0  0  0
   -8.7400   15.3290    5.0780 C   0  0  0  0  0  0  0  0  0  0  0  0
   -7.3100   13.5610    2.3960 C   0  0  0  0  0  0  0  0  0  0  0  0
   -8.1290   14.3130    5.7530 O   0  0  0  0  0  0  0  0  0  0  0  0
   -9.0380   16.3550    5.9560 C   0  0  0  0  0  0  0  0  0  0  0  0
   -6.2440   13.6510    1.4270 N   0  0  0  0  0  0  0  0  0  0  0  0
   -8.0380   14.6840    7.0500 C   0  0  0  0  0  0  0  0  0  0  0  0
   -8.5820   15.9280    7.2290 C   0  0  0  0  0  0  0  0  0  0  0  0
   -6.3930   14.3720    0.2640 C   0  0  0  0  0  0  0  0  0  0  0  0
   -7.4630   14.8180   -0.1360 O   0  0  0  0  0  0  0  0  0  0  0  0
   -5.1460   14.5760   -0.5130 C   0  0  0  0  0  0  0  0  0  0  0  0
   -5.1690   14.9550   -1.8590 C   0  0  0  0  0  0  0  0  0  0  0  0
   -3.9200   14.3710    0.1390 C   0  0  0  0  0  0  0  0  0  0  0  0
   -3.9710   15.1260   -2.5500 C   0  0  0  0  0  0  0  0  0  0  0  0
   -2.7210   14.5430   -0.5570 C   0  0  0  0  0  0  0  0  0  0  0  0
   -2.7530   14.9200   -1.9030 C   0  0  0  0  0  0  0  0  0  0  0  0
   -1.5400   15.1160   -2.6340 N   0  0  0  0  0  0  0  0  0  0  0  0
   -0.5370   13.8540   -3.1380 S   0  0  0  0  0  0  0  0  0  0  0  0
   -1.6850   12.7950   -3.9830 C   0  0  0  0  0  0  0  0  0  0  0  0
    0.4100   14.3750   -4.0970 O   0  0  0  0  0  0  0  0  0  0  0  0
   -0.0970   13.1910   -1.9290 O   0  0  0  0  0  0  0  0  0  0  0  0
  2  1  1  1
  2  3  1  0
  2  4  1  0
  2  5  1  0
  4  6  1  0
  5  7  1  0
  5  8  2  0
  6  9  1  0
  7 10  1  0
  8 11  1  0
 10 11  2  0
  9 12  1  0
 12 13  2  0
 12 14  1  0
 14 15  2  0
 14 16  1  0
 15 17  1  0
 16 18  2  0
 17 19  2  0
 18 19  1  0
 19 20  1  0
 21 20  1  0
 21 22  1  0
 21 23  2  0
 21 24  2  0
M  END
