x0371_0_A-x0962_0_A
     RDKit          3D

 19 21  0  0  0  0  0  0  0  0999 V2000
   -8.1830   14.5710    2.9470 N   0  0  0  0  0  0  0  0  0  0  0  0
   -8.8480   15.5650    3.6180 C   0  0  0  0  0  0  0  0  0  0  0  0
   -9.5360   16.3970    3.0300 O   0  0  0  0  0  0  0  0  0  0  0  0
   -8.4030   14.3550    1.5430 C   0  0  0  0  0  0  0  0  0  0  0  0
   -7.1320   14.5540    0.8050 C   0  0  0  0  0  0  0  0  0  0  0  0
   -8.6710   15.5350    5.0490 C   0  0  0  0  0  0  0  0  0  0  0  0
   -5.9080   14.5470    1.4360 N   0  0  0  0  0  0  0  0  0  0  0  0
   -6.9910   14.7520   -0.4910 N   0  0  0  0  0  0  0  0  0  0  0  0
   -8.0660   14.4480    5.6190 O   0  0  0  0  0  0  0  0  0  0  0  0
   -9.0130   16.4380    6.0330 C   0  0  0  0  0  0  0  0  0  0  0  0
   -5.6370   14.8660   -0.6940 C   0  0  0  0  0  0  0  0  0  0  0  0
   -4.9440   14.7430    0.5010 C   0  0  0  0  0  0  0  0  0  0  0  0
   -8.5920   15.8740    7.2620 C   0  0  0  0  0  0  0  0  0  0  0  0
   -8.0210   14.6630    6.9540 C   0  0  0  0  0  0  0  0  0  0  0  0
   -3.5620   14.8130    0.6070 C   0  0  0  0  0  0  0  0  0  0  0  0
   -4.9190   15.0710   -1.8770 C   0  0  0  0  0  0  0  0  0  0  0  0
   -2.8710   15.0080   -0.5860 C   0  0  0  0  0  0  0  0  0  0  0  0
   -3.5240   15.1350   -1.8140 C   0  0  0  0  0  0  0  0  0  0  0  0
   -2.7740   15.3180   -2.9770 N   0  0  0  0  0  0  0  0  0  0  0  0
  1  2  1  0
  2  3  2  0
  1  4  1  0
  4  5  1  0
  2  6  1  0
  5  7  1  0
  5  8  2  0
  6  9  1  0
  6 10  2  0
  8 11  1  0
  7 12  1  0
 11 12  2  0
 10 13  1  0
  9 14  1  0
 13 14  2  0
 12 15  1  0
 11 16  1  0
 15 17  2  0
 16 18  2  0
 17 18  1  0
 18 19  1  0
M  END
