x0371_0_A-x0471_0_A
     RDKit          3D

 21 23  0  0  0  0  0  0  0  0999 V2000
   -7.8340   14.9980    3.1160 N   0  0  0  0  0  0  0  0  0  0  0  0
   -8.9210   15.0240    4.0610 C   0  0  1  0  0  0  0  0  0  0  0  0
   -9.9740   15.7860    3.4510 O   0  0  0  0  0  0  0  0  0  0  0  0
   -8.1130   14.3690    1.8260 C   0  0  0  0  0  0  0  0  0  0  0  0
   -9.4200   13.6030    4.4130 C   0  0  0  0  0  0  0  0  0  0  0  0
   -6.9560   14.5830    0.9330 C   0  0  0  0  0  0  0  0  0  0  0  0
   -8.7510   15.5560    5.4400 C   0  0  0  0  0  0  0  0  0  0  0  0
  -10.8560   13.5000    4.9320 C   0  0  0  0  0  0  0  0  0  0  0  0
   -8.5320   13.0610    5.5500 C   0  0  0  0  0  0  0  0  0  0  0  0
   -5.6990   14.5040    1.4460 N   0  0  0  0  0  0  0  0  0  0  0  0
   -6.9480   14.8610   -0.3570 N   0  0  0  0  0  0  0  0  0  0  0  0
   -7.8330   14.9200    6.2090 O   0  0  0  0  0  0  0  0  0  0  0  0
   -9.3480   16.5600    6.1610 C   0  0  0  0  0  0  0  0  0  0  0  0
   -5.6170   14.9670   -0.6730 C   0  0  0  0  0  0  0  0  0  0  0  0
   -4.8150   14.7440    0.4470 C   0  0  0  0  0  0  0  0  0  0  0  0
   -8.7690   16.5080    7.4480 C   0  0  0  0  0  0  0  0  0  0  0  0
   -7.8470   15.4890    7.4200 C   0  0  0  0  0  0  0  0  0  0  0  0
   -3.4290   14.7810    0.4310 C   0  0  0  0  0  0  0  0  0  0  0  0
   -5.0070   15.2490   -1.8970 C   0  0  0  0  0  0  0  0  0  0  0  0
   -2.8430   15.0590   -0.8030 C   0  0  0  0  0  0  0  0  0  0  0  0
   -3.6110   15.2920   -1.9490 C   0  0  0  0  0  0  0  0  0  0  0  0
  1  2  1  0
  2  3  1  6
  1  4  1  0
  2  5  1  0
  4  6  1  0
  2  7  1  0
  5  8  1  0
  5  9  1  0
  6 10  1  0
  6 11  2  0
  7 12  1  0
  7 13  2  0
 11 14  1  0
 10 15  1  0
 14 15  2  0
 13 16  1  0
 12 17  1  0
 16 17  2  0
 15 18  1  0
 14 19  1  0
 18 20  2  0
 19 21  2  0
 20 21  1  0
M  END
