x0371_0_A_β-x0766_0_A_α
     RDKit          3D

 21 24  0  0  0  0  0  0  0  0999 V2000
   -8.2730   14.6460    1.6410 C   0  0  0  0  0  0  0  0  0  0  0  0
   -6.9710   14.7320    0.9210 C   0  0  0  0  0  0  0  0  0  0  0  0
   -5.8130   14.7920    1.5160 N   0  0  0  0  0  0  0  0  0  0  0  0
   -6.9770   14.7780   -0.4640 N   0  0  0  0  0  0  0  0  0  0  0  0
   -4.9190   14.8160    0.4900 C   0  0  0  0  0  0  0  0  0  0  0  0
   -5.7150   14.8500   -0.7520 C   0  0  0  0  0  0  0  0  0  0  0  0
   -3.5750   14.7930    0.4800 C   0  0  0  0  0  0  0  0  0  0  0  0
   -5.0700   14.9180   -2.0600 C   0  0  0  0  0  0  0  0  0  0  0  0
   -2.9590   14.7640   -0.8230 C   0  0  0  0  0  0  0  0  0  0  0  0
   -3.7410   14.8550   -2.0490 C   0  0  0  0  0  0  0  0  0  0  0  0
   -2.8660   14.8210   -3.1720 C   0  0  0  0  0  0  0  0  0  0  0  0
   -1.6640   14.6310   -1.2240 C   0  0  0  0  0  0  0  0  0  0  0  0
   -1.6260   14.6450   -2.6970 C   0  0  0  0  0  0  0  0  0  0  0  0
   -0.4390   14.4880   -3.6020 C   0  0  2  0  0  0  0  0  0  0  0  0
    0.7750   13.7000   -3.1270 C   0  0  1  0  0  0  0  0  0  0  0  0
    0.2990   15.7420   -4.0330 C   0  0  0  0  0  0  0  0  0  0  0  0
    0.5470   12.3940   -2.4320 C   0  0  0  0  0  0  0  0  0  0  0  0
    1.5510   13.6580   -4.4230 C   0  0  0  0  0  0  0  0  0  0  0  0
    1.5030   15.1440   -4.7720 C   0  0  0  0  0  0  0  0  0  0  0  0
    0.6350   12.3190   -1.2330 O   0  0  0  0  0  0  0  0  0  0  0  0
    0.2460   11.3330   -3.2130 O   0  0  0  0  0  0  0  0  0  0  0  0
  1  2  1  0
  2  3  2  0
  2  4  1  0
  3  5  1  0
  4  6  2  0
  5  6  1  0
  5  7  2  0
  6  8  1  0
  7  9  1  0
  8 10  2  0
  9 10  1  0
 10 11  1  0
  9 12  2  0
 11 13  2  0
 12 13  1  0
 14 13  1  1
 14 15  1  0
 14 16  1  0
 15 17  1  6
 15 18  1  0
 16 19  1  0
 18 19  1  0
 17 20  2  0
 17 21  1  0
M  END
