x0371_0_A_β-x0852_0_B_α
     RDKit          3D

 22 24  0  0  0  0  0  0  0  0999 V2000
   -8.4970   13.7340    1.7830 C   0  0  0  0  0  0  0  0  0  0  0  0
   -7.2940   14.1740    1.0300 C   0  0  0  0  0  0  0  0  0  0  0  0
   -6.0550   13.9640    1.4020 N   0  0  0  0  0  0  0  0  0  0  0  0
   -7.3490   14.8500   -0.1560 N   0  0  0  0  0  0  0  0  0  0  0  0
   -8.6070   15.2520   -0.8090 C   0  0  0  0  0  0  0  0  0  0  0  0
   -5.2600   14.4880    0.4350 C   0  0  0  0  0  0  0  0  0  0  0  0
   -6.0290   15.0460   -0.5780 C   0  0  0  0  0  0  0  0  0  0  0  0
   -9.3270   16.5190   -0.2280 C   0  0  0  0  0  0  0  0  0  0  0  0
   -3.8580   14.5080    0.3730 C   0  0  0  0  0  0  0  0  0  0  0  0
   -5.4360   15.6280   -1.6930 C   0  0  0  0  0  0  0  0  0  0  0  0
  -10.0940   16.3630    1.0310 O   0  0  0  0  0  0  0  0  0  0  0  0
   -3.2530   15.0880   -0.7390 C   0  0  0  0  0  0  0  0  0  0  0  0
   -4.0310   15.6330   -1.7550 C   0  0  0  0  0  0  0  0  0  0  0  0
   -9.5400   16.2120    2.3180 C   0  0  0  0  0  0  0  0  0  0  0  0
   -8.5440   15.2510    2.3990 C   0  0  0  0  0  0  0  0  0  0  0  0
   -9.8730   16.8990    3.5150 C   0  0  0  0  0  0  0  0  0  0  0  0
   -7.8790   14.9470    3.5960 C   0  0  0  0  0  0  0  0  0  0  0  0
   -9.2020   16.5960    4.7370 C   0  0  0  0  0  0  0  0  0  0  0  0
   -9.5420   17.2900    5.9480 C   0  0  0  0  0  0  0  0  0  0  0  0
   -8.2070   15.6150    4.7580 C   0  0  0  0  0  0  0  0  0  0  0  0
   -9.7860   17.7860    6.9740 N   0  0  0  0  0  0  0  0  0  0  0  0
   -7.5560   15.3090    5.9270 O   0  0  0  0  0  0  0  0  0  0  0  0
  1  2  1  0
  2  3  2  0
  2  4  1  0
  4  5  1  0
  3  6  1  0
  4  7  1  0
  6  7  2  0
  5  8  1  0
  6  9  1  0
  7 10  1  0
  8 11  1  0
  9 12  2  0
 10 13  2  0
 12 13  1  0
 11 14  1  0
 14 15  2  0
 14 16  1  0
 15 17  1  0
 16 18  2  0
 18 19  1  0
 17 20  2  0
 18 20  1  0
 19 21  3  0
 20 22  1  0
M  END
