x0371_0_A-x0722_0_A
     RDKit          3D

 30 33  0  0  0  0  0  0  0  0999 V2000
   -8.9360   14.0970    3.1730 N   0  0  0  0  0  0  0  0  0  0  0  0
   -9.1540   15.3610    3.6760 C   0  0  0  0  0  0  0  0  0  0  0  0
   -9.5540   16.2830    2.9630 O   0  0  0  0  0  0  0  0  0  0  0  0
   -8.8990   13.8440    1.7570 C   0  0  0  0  0  0  0  0  0  0  0  0
   -7.5600   14.2910    1.3420 C   0  0  0  0  0  0  0  0  0  0  0  0
   -8.8800   15.4810    5.0940 C   0  0  0  0  0  0  0  0  0  0  0  0
   -6.7310   14.9300    2.2150 N   0  0  0  0  0  0  0  0  0  0  0  0
   -7.0030   14.1550    0.1610 N   0  0  0  0  0  0  0  0  0  0  0  0
   -8.3530   14.3850    5.7290 O   0  0  0  0  0  0  0  0  0  0  0  0
   -9.0350   16.4940    6.0180 C   0  0  0  0  0  0  0  0  0  0  0  0
   -5.7730   14.7440    0.3080 C   0  0  0  0  0  0  0  0  0  0  0  0
   -5.5770   15.2380    1.5670 C   0  0  0  0  0  0  0  0  0  0  0  0
   -8.5810   15.9870    7.2640 C   0  0  0  0  0  0  0  0  0  0  0  0
   -8.1740   14.6990    7.0290 C   0  0  0  0  0  0  0  0  0  0  0  0
   -4.4100   15.8940    1.9790 C   0  0  0  0  0  0  0  0  0  0  0  0
   -4.7350   14.8960   -0.5700 C   0  0  0  0  0  0  0  0  0  0  0  0
   -4.6440   14.3930   -1.8770 C   0  0  2  0  0  0  0  0  0  0  0  0
   -3.4150   16.0420    1.0360 C   0  0  0  0  0  0  0  0  0  0  0  0
   -3.5960   15.5430   -0.2000 C   0  0  0  0  0  0  0  0  0  0  0  0
   -5.7860   13.3980   -1.9940 C   0  0  0  0  0  0  0  0  0  0  0  0
   -3.3010   14.2020   -1.1470 C   0  0  0  0  0  0  0  0  0  0  0  0
   -6.8660   13.6190   -2.5330 O   0  0  0  0  0  0  0  0  0  0  0  0
   -5.5680   12.1800   -1.3980 N   0  0  0  0  0  0  0  0  0  0  0  0
   -3.2220   13.8230    0.2710 C   0  0  0  0  0  0  0  0  0  0  0  0
   -1.9520   14.3390   -1.4880 C   0  0  0  0  0  0  0  0  0  0  0  0
   -4.2830   13.5090    1.2790 C   0  0  0  0  0  0  0  0  0  0  0  0
   -1.2870   14.7050   -2.7550 C   0  0  0  0  0  0  0  0  0  0  0  0
   -1.9780   13.7660    0.7140 N   0  0  0  0  0  0  0  0  0  0  0  0
   -1.2380   14.0730   -0.3360 N   0  0  0  0  0  0  0  0  0  0  0  0
    0.1850   14.0900   -0.1250 C   0  0  0  0  0  0  0  0  0  0  0  0
  1  2  1  0
  2  3  2  0
  1  4  1  0
  4  5  1  0
  2  6  1  0
  5  7  1  0
  5  8  2  0
  6  9  1  0
  6 10  2  0
  8 11  1  0
  7 12  1  0
 11 12  2  0
 10 13  1  0
  9 14  1  0
 13 14  2  0
 12 15  1  0
 11 16  1  0
 16 17  1  0
 15 18  2  0
 16 19  2  0
 18 19  1  0
 17 20  1  1
 17 21  1  0
 20 22  2  0
 20 23  1  0
 21 24  1  0
 21 25  2  0
 24 26  1  0
 25 27  1  0
 24 28  2  0
 25 29  1  0
 28 29  1  0
 29 30  1  0
M  END
