x0371_0_A_β-x0969_0_A_α
     RDKit          3D

 11 12  0  0  0  0  0  0  0  0999 V2000
   -8.5960   14.1910    1.1150 C   0  0  0  0  0  0  0  0  0  0  0  0
   -7.2860   14.5210    0.5160 C   0  0  0  0  0  0  0  0  0  0  0  0
   -6.2270   14.8850    1.2860 N   0  0  0  0  0  0  0  0  0  0  0  0
   -6.9610   14.5200   -0.7580 N   0  0  0  0  0  0  0  0  0  0  0  0
   -6.2930   14.9970    2.6880 N   0  0  0  0  0  0  0  0  0  0  0  0
   -5.1410   15.1310    0.4800 C   0  0  0  0  0  0  0  0  0  0  0  0
   -5.6410   14.9000   -0.7990 C   0  0  0  0  0  0  0  0  0  0  0  0
   -3.8170   15.5220    0.7260 C   0  0  0  0  0  0  0  0  0  0  0  0
   -4.7940   15.0730   -1.9040 C   0  0  0  0  0  0  0  0  0  0  0  0
   -2.9910   15.6840   -0.3950 C   0  0  0  0  0  0  0  0  0  0  0  0
   -3.4680   15.4680   -1.6880 C   0  0  0  0  0  0  0  0  0  0  0  0
  1  2  1  0
  2  3  1  0
  2  4  2  0
  3  5  1  0
  3  6  1  0
  4  7  1  0
  6  7  2  0
  6  8  1  0
  7  9  1  0
  8 10  2  0
  9 11  2  0
 10 11  1  0
M  END
