x0371_0_A-x1015_0_A
     RDKit          3D

 35 39  0  0  0  0  0  0  0  0999 V2000
   -8.0410   14.4530    3.0090 N   0  0  0  0  0  0  0  0  0  0  0  0
   -8.7260   15.4730    3.6230 C   0  0  0  0  0  0  0  0  0  0  0  0
   -9.3820   16.2980    2.9880 O   0  0  0  0  0  0  0  0  0  0  0  0
   -8.2880   14.1170    1.6320 C   0  0  0  0  0  0  0  0  0  0  0  0
   -7.0510   14.4460    0.8900 C   0  0  0  0  0  0  0  0  0  0  0  0
   -8.6200   15.4830    5.0630 C   0  0  0  0  0  0  0  0  0  0  0  0
   -5.8400   14.5190    1.5250 N   0  0  0  0  0  0  0  0  0  0  0  0
   -6.9320   14.6960   -0.4020 N   0  0  0  0  0  0  0  0  0  0  0  0
   -8.0590   14.4120    5.7000 O   0  0  0  0  0  0  0  0  0  0  0  0
   -9.0020   16.4230    5.9970 C   0  0  0  0  0  0  0  0  0  0  0  0
   -5.5950   14.9370   -0.6010 C   0  0  0  0  0  0  0  0  0  0  0  0
   -4.8880   14.8390    0.5930 C   0  0  0  0  0  0  0  0  0  0  0  0
   -8.6520   15.8940    7.2650 C   0  0  0  0  0  0  0  0  0  0  0  0
   -8.0800   14.6680    7.0270 C   0  0  0  0  0  0  0  0  0  0  0  0
   -3.5140   15.0400    0.6930 C   0  0  0  0  0  0  0  0  0  0  0  0
   -4.9050   15.2420   -1.7820 C   0  0  0  0  0  0  0  0  0  0  0  0
   -2.8400   15.3430   -0.4960 C   0  0  0  0  0  0  0  0  0  0  0  0
   -3.5120   15.4390   -1.7250 C   0  0  0  0  0  0  0  0  0  0  0  0
   -2.7450   15.7400   -2.9880 C   0  0  0  0  0  0  0  0  0  0  0  0
   -2.2910   14.4180   -3.6260 C   0  0  0  0  0  0  0  0  0  0  0  0
   -1.0170   14.5710   -4.4500 C   0  0  0  0  0  0  0  0  0  0  0  0
    0.1630   13.6670   -4.0240 C   0  0  2  0  0  0  0  0  0  0  0  0
   -0.1480   12.2440   -3.9240 N   0  0  0  0  0  0  0  0  0  0  0  0
    0.4600   13.9480   -2.5530 C   0  0  0  0  0  0  0  0  0  0  0  0
    0.5010   15.0490   -2.0230 O   0  0  0  0  0  0  0  0  0  0  0  0
    0.2650   11.7280   -2.6800 C   0  0  0  0  0  0  0  0  0  0  0  0
    0.6820   12.7750   -1.9190 N   0  0  0  0  0  0  0  0  0  0  0  0
   -0.5240   11.4420   -5.0300 C   0  0  0  0  0  0  0  0  0  0  0  0
    0.2760   10.5580   -2.2860 O   0  0  0  0  0  0  0  0  0  0  0  0
    0.0490   11.6410   -6.2980 C   0  0  0  0  0  0  0  0  0  0  0  0
   -1.4810   10.4280   -4.8970 C   0  0  0  0  0  0  0  0  0  0  0  0
   -0.3230   10.8510   -7.3900 C   0  0  0  0  0  0  0  0  0  0  0  0
   -1.8580    9.6370   -5.9860 C   0  0  0  0  0  0  0  0  0  0  0  0
   -1.2770    9.8510   -7.2300 C   0  0  0  0  0  0  0  0  0  0  0  0
   -1.7390    8.8760   -8.5680 Cl  0  0  0  0  0  0  0  0  0  0  0  0
  1  2  1  0
  2  3  2  0
  1  4  1  0
  4  5  1  0
  2  6  1  0
  5  7  1  0
  5  8  2  0
  6  9  1  0
  6 10  2  0
  8 11  1  0
  7 12  1  0
 11 12  2  0
 10 13  1  0
  9 14  1  0
 13 14  2  0
 12 15  1  0
 11 16  1  0
 15 17  2  0
 16 18  2  0
 17 18  1  0
 18 19  1  0
 19 20  1  0
 20 21  1  0
 22 21  1  1
 22 23  1  0
 22 24  1  0
 24 25  2  0
 23 26  1  0
 24 27  1  0
 26 27  1  0
 23 28  1  0
 26 29  2  0
 28 30  2  0
 28 31  1  0
 30 32  1  0
 31 33  2  0
 32 34  2  0
 33 34  1  0
 34 35  1  0
M  END
