x0371_0_A-x0128_0_A
     RDKit          3D

 20 24  0  0  0  0  0  0  0  0999 V2000
   -8.0870   14.6300    3.0010 C   0  0  1  0  0  0  0  0  0  0  0  0
   -8.9070   15.7690    3.6290 C   0  0  0  0  0  0  0  0  0  0  0  0
   -9.1460   16.8360    3.1080 O   0  0  0  0  0  0  0  0  0  0  0  0
   -8.6840   14.3630    1.5690 C   0  0  0  0  0  0  0  0  0  0  0  0
   -6.6480   14.8940    2.8230 N   0  0  0  0  0  0  0  0  0  0  0  0
   -8.1110   13.5770    4.0320 N   0  0  0  0  0  0  0  0  0  0  0  0
   -6.4160   14.8080    1.4140 N   0  0  0  0  0  0  0  0  0  0  0  0
   -7.5080   14.5460    0.6830 C   0  0  0  0  0  0  0  0  0  0  0  0
   -8.7490   14.0800    5.2790 C   0  0  2  0  0  0  0  0  0  0  0  0
   -9.4540   15.3960    4.9770 C   0  0  1  0  0  0  0  0  0  0  0  0
   -7.2460   14.5170   -0.6020 N   0  0  0  0  0  0  0  0  0  0  0  0
   -5.3220   14.9350    0.6050 C   0  0  0  0  0  0  0  0  0  0  0  0
   -9.0830   16.2890    6.1120 C   0  0  0  0  0  0  0  0  0  0  0  0
   -7.8590   14.3190    6.5220 C   0  0  0  0  0  0  0  0  0  0  0  0
   -5.8780   14.7600   -0.6710 C   0  0  0  0  0  0  0  0  0  0  0  0
   -8.2350   15.6940    6.9570 C   0  0  0  0  0  0  0  0  0  0  0  0
   -3.9650   15.1720    0.8160 C   0  0  0  0  0  0  0  0  0  0  0  0
   -3.1600   15.2280   -0.3200 C   0  0  0  0  0  0  0  0  0  0  0  0
   -5.0450   14.8400   -1.7980 C   0  0  0  0  0  0  0  0  0  0  0  0
   -3.6800   15.0750   -1.6070 C   0  0  0  0  0  0  0  0  0  0  0  0
  1  2  1  0
  2  3  2  0
  1  4  1  6
  1  5  1  0
  1  6  1  0
  5  7  1  0
  4  8  1  0
  7  8  1  0
  6  9  1  0
  2 10  1  0
  9 10  1  0
  8 11  2  0
  7 12  1  0
 10 13  1  1
  9 14  1  1
 11 15  1  0
 12 15  2  0
 13 16  2  0
 14 16  1  0
 12 17  1  0
 17 18  2  0
 15 19  1  0
 18 20  1  0
 19 20  2  0
M  END
