x0371_0_A-x0950_1_A
     RDKit          3D

 27 29  0  0  0  0  0  0  0  0999 V2000
   -7.9210   14.5070    2.9720 N   0  0  0  0  0  0  0  0  0  0  0  0
   -8.6880   15.4730    3.5940 C   0  0  0  0  0  0  0  0  0  0  0  0
   -9.3940   16.2390    2.9380 O   0  0  0  0  0  0  0  0  0  0  0  0
   -8.1710   14.1760    1.5930 C   0  0  0  0  0  0  0  0  0  0  0  0
   -6.9400   14.5110    0.8310 C   0  0  0  0  0  0  0  0  0  0  0  0
   -8.5970   15.4980    5.0370 C   0  0  0  0  0  0  0  0  0  0  0  0
   -5.7080   14.5310    1.4310 N   0  0  0  0  0  0  0  0  0  0  0  0
   -6.8450   14.8170   -0.4550 N   0  0  0  0  0  0  0  0  0  0  0  0
   -8.0320   14.4210    5.6600 O   0  0  0  0  0  0  0  0  0  0  0  0
   -8.9780   16.4220    5.9970 C   0  0  0  0  0  0  0  0  0  0  0  0
   -5.5040   15.0370   -0.6730 C   0  0  0  0  0  0  0  0  0  0  0  0
   -4.7740   14.8650    0.4960 C   0  0  0  0  0  0  0  0  0  0  0  0
   -8.6230   15.8720    7.2540 C   0  0  0  0  0  0  0  0  0  0  0  0
   -8.0500   14.6540    6.9940 C   0  0  0  0  0  0  0  0  0  0  0  0
   -3.3910   15.0190    0.5820 C   0  0  0  0  0  0  0  0  0  0  0  0
   -4.8250   15.3880   -1.8430 C   0  0  0  0  0  0  0  0  0  0  0  0
   -2.7090   15.3670   -0.5940 C   0  0  0  0  0  0  0  0  0  0  0  0
   -3.4280   15.5490   -1.7930 C   0  0  0  0  0  0  0  0  0  0  0  0
   -1.1970   15.5350   -0.5500 C   0  0  0  0  0  0  0  0  0  0  0  0
   -0.4910   14.7590   -1.6650 C   0  0  0  0  0  0  0  0  0  0  0  0
    0.2300   13.5170   -1.1360 C   0  0  0  0  0  0  0  0  0  0  0  0
    1.2510   13.0850   -2.0610 O   0  0  0  0  0  0  0  0  0  0  0  0
    0.8900   12.1480   -2.9810 C   0  0  0  0  0  0  0  0  0  0  0  0
    1.3510   12.5300   -4.3960 C   0  0  2  0  0  0  0  0  0  0  0  0
    0.2760   11.1130   -2.7310 O   0  0  0  0  0  0  0  0  0  0  0  0
    1.1140   13.9980   -4.7120 C   0  0  0  0  0  0  0  0  0  0  0  0
    0.6690   11.7490   -5.3830 O   0  0  0  0  0  0  0  0  0  0  0  0
  1  2  1  0
  2  3  2  0
  1  4  1  0
  4  5  1  0
  2  6  1  0
  5  7  1  0
  5  8  2  0
  6  9  1  0
  6 10  2  0
  8 11  1  0
  7 12  1  0
 11 12  2  0
 10 13  1  0
  9 14  1  0
 13 14  2  0
 12 15  1  0
 11 16  1  0
 15 17  2  0
 16 18  2  0
 17 18  1  0
 17 19  1  0
 19 20  1  0
 20 21  1  0
 21 22  1  0
 22 23  1  0
 23 24  1  0
 23 25  2  0
 24 26  1  6
 24 27  1  0
M  END
