x0371_0_A-x0910_0_A
     RDKit          3D

 24 27  0  0  0  0  0  0  0  0999 V2000
   -8.7510   14.4530    2.7480 N   0  0  0  0  0  0  0  0  0  0  0  0
   -9.0220   15.5160    3.5710 C   0  0  0  0  0  0  0  0  0  0  0  0
   -9.5230   16.5090    3.0430 O   0  0  0  0  0  0  0  0  0  0  0  0
   -8.9130   14.3430    1.3090 C   0  0  0  0  0  0  0  0  0  0  0  0
   -7.5730   14.5080    0.7210 C   0  0  0  0  0  0  0  0  0  0  0  0
   -8.7440   15.4680    4.9940 C   0  0  0  0  0  0  0  0  0  0  0  0
   -6.5430   14.8030    1.5450 N   0  0  0  0  0  0  0  0  0  0  0  0
   -7.1840   14.4100   -0.5410 N   0  0  0  0  0  0  0  0  0  0  0  0
   -8.1220   14.3950    5.5710 O   0  0  0  0  0  0  0  0  0  0  0  0
   -9.0240   16.4010    5.9760 C   0  0  0  0  0  0  0  0  0  0  0  0
   -5.8310   14.6450   -0.5000 C   0  0  0  0  0  0  0  0  0  0  0  0
   -5.4270   14.9000    0.8070 C   0  0  0  0  0  0  0  0  0  0  0  0
   -8.5490   15.8640    7.2010 C   0  0  0  0  0  0  0  0  0  0  0  0
   -8.0070   14.6420    6.8990 C   0  0  0  0  0  0  0  0  0  0  0  0
   -4.1530   15.1790    1.1930 C   0  0  0  0  0  0  0  0  0  0  0  0
   -4.8680   14.6540   -1.5210 C   0  0  0  0  0  0  0  0  0  0  0  0
   -3.2380   15.1740    0.1910 C   0  0  0  0  0  0  0  0  0  0  0  0
   -3.5460   14.9110   -1.1350 C   0  0  0  0  0  0  0  0  0  0  0  0
   -2.4590   14.9080   -1.9700 N   0  0  0  0  0  0  0  0  0  0  0  0
   -1.3330   14.8420   -1.2390 C   0  0  0  0  0  0  0  0  0  0  0  0
   -1.4760   14.6310    0.1190 N   0  0  0  0  0  0  0  0  0  0  0  0
   -0.0720   14.9460   -1.4970 N   0  0  0  0  0  0  0  0  0  0  0  0
   -0.3060   14.6090    0.7580 N   0  0  0  0  0  0  0  0  0  0  0  0
    0.5110   14.8090   -0.2780 C   0  0  0  0  0  0  0  0  0  0  0  0
  1  2  1  0
  2  3  2  0
  1  4  1  0
  4  5  1  0
  2  6  1  0
  5  7  1  0
  5  8  2  0
  6  9  1  0
  6 10  2  0
  8 11  1  0
  7 12  1  0
 11 12  2  0
 10 13  1  0
  9 14  1  0
 13 14  2  0
 12 15  1  0
 11 16  1  0
 15 17  2  0
 16 18  2  0
 17 18  1  0
 18 19  1  0
 19 20  1  0
 20 21  1  0
 20 22  2  0
 21 23  1  0
 22 24  1  0
 23 24  2  0
M  END
