x0371_0_A_β-x0685_1_A_α
     RDKit          3D

 25 27  0  0  0  0  0  0  0  0999 V2000
   -8.2750   14.3360    1.5810 C   0  0  0  0  0  0  0  0  0  0  0  0
   -7.0270   14.5960    0.8340 C   0  0  0  0  0  0  0  0  0  0  0  0
   -5.7890   14.5400    1.4240 N   0  0  0  0  0  0  0  0  0  0  0  0
   -6.9140   14.9070   -0.4450 N   0  0  0  0  0  0  0  0  0  0  0  0
   -4.8400   14.8220    0.4860 C   0  0  0  0  0  0  0  0  0  0  0  0
   -5.5630   15.0490   -0.6730 C   0  0  0  0  0  0  0  0  0  0  0  0
   -3.4460   14.8880    0.5650 C   0  0  0  0  0  0  0  0  0  0  0  0
   -4.8730   15.3700   -1.8460 C   0  0  0  0  0  0  0  0  0  0  0  0
   -2.7510   15.2020   -0.6200 C   0  0  0  0  0  0  0  0  0  0  0  0
   -3.4690   15.4430   -1.8060 C   0  0  0  0  0  0  0  0  0  0  0  0
   -1.2340   15.2690   -0.6080 C   0  0  0  0  0  0  0  0  0  0  0  0
   -0.5820   13.8730   -0.7030 C   0  0  0  0  0  0  0  0  0  0  0  0
    0.2430   13.8120   -1.8790 O   0  0  0  0  0  0  0  0  0  0  0  0
    0.6630   12.4240   -2.6030 S   0  0  0  0  0  0  0  0  0  0  0  0
    0.0130   12.5010   -4.2740 C   0  0  0  0  0  0  0  0  0  0  0  0
    2.2480   12.3230   -2.7920 O   0  0  0  0  0  0  0  0  0  0  0  0
    0.0760   11.1270   -1.8390 O   0  0  0  0  0  0  0  0  0  0  0  0
   -1.4090   11.9790   -4.3870 C   0  0  0  0  0  0  0  0  0  0  0  0
   -1.4450   10.5860   -4.8660 N   0  0  0  0  0  0  0  0  0  0  0  0
   -0.7700   10.3440   -6.1550 C   0  0  0  0  0  0  0  0  0  0  0  0
   -0.5720    8.8450   -6.4350 C   0  0  0  0  0  0  0  0  0  0  0  0
   -1.6150   10.9770   -7.2790 C   0  0  0  0  0  0  0  0  0  0  0  0
    0.0820    8.6220   -7.7960 C   0  0  0  0  0  0  0  0  0  0  0  0
   -1.0170   10.7200   -8.6640 C   0  0  0  0  0  0  0  0  0  0  0  0
   -0.7580    9.2350   -8.9100 C   0  0  0  0  0  0  0  0  0  0  0  0
  1  2  1  0
  2  3  1  0
  2  4  2  0
  3  5  1  0
  4  6  1  0
  5  6  2  0
  5  7  1  0
  6  8  1  0
  7  9  2  0
  8 10  2  0
  9 10  1  0
  9 11  1  0
 11 12  1  0
 12 13  1  0
 14 13  1  0
 14 15  1  0
 14 16  1  0
 14 17  1  0
 15 18  1  0
 18 19  1  0
 19 20  1  0
 20 21  1  0
 20 22  1  0
 21 23  1  0
 22 24  1  0
 23 25  1  0
 24 25  1  0
M  END
