x0380_0_B_α-x0797_0_B_α
     RDKit          3D

 20 21  0  0  0  0  0  0  0  0999 V2000
   -4.6320   29.9760  -15.2260 N   0  0  0  0  0  0  0  0  0  0  0  0
   -3.7170   30.9810  -15.3910 C   0  0  0  0  0  0  0  0  0  0  0  0
   -3.8990   32.1160  -14.9790 O   0  0  0  0  0  0  0  0  0  0  0  0
   -5.6720   30.1720  -14.2580 C   0  0  2  0  0  0  0  0  0  0  0  0
   -2.4450   30.5890  -16.1380 C   0  0  0  0  0  0  0  0  0  0  0  0
   -5.3530   29.5250  -12.9010 C   0  0  2  0  0  0  0  0  0  0  0  0
   -7.0480   29.8500  -14.8280 C   0  0  0  0  0  0  0  0  0  0  0  0
   -4.3850   28.3510  -12.9700 C   0  0  0  0  0  0  0  0  0  0  0  0
   -2.2870   31.4330  -17.3450 N   0  0  0  0  0  0  0  0  0  0  0  0
   -6.6690   29.2950  -12.1790 C   0  0  2  0  0  0  0  0  0  0  0  0
   -8.0170   29.1230  -14.2080 C   0  0  0  0  0  0  0  0  0  0  0  0
   -6.3520   28.8370  -10.5580 Cl  0  0  0  0  0  0  0  0  0  0  0  0
   -7.8180   28.5000  -12.8320 C   0  0  1  0  0  0  0  0  0  0  0  0
   -7.9590   26.9600  -12.8900 C   0  0  1  0  0  0  0  0  0  0  0  0
   -8.9320   28.5800  -11.7520 C   0  0  0  0  0  0  0  0  0  0  0  0
   -7.1820   26.1260  -13.8460 C   0  0  0  0  0  0  0  0  0  0  0  0
   -8.6050   27.5640  -10.7630 O   0  0  0  0  0  0  0  0  0  0  0  0
   -7.8870   26.5250  -11.4420 C   0  0  0  0  0  0  0  0  0  0  0  0
   -7.7340   26.1650  -15.0760 O   0  0  0  0  0  0  0  0  0  0  0  0
   -6.1850   25.4640  -13.6390 O   0  0  0  0  0  0  0  0  0  0  0  0
  1  2  1  0
  2  3  2  0
  4  1  1  6
  2  5  1  0
  4  6  1  0
  4  7  1  0
  6  8  1  6
  5  9  1  0
  6 10  1  0
  7 11  2  0
 10 12  1  1
 10 13  1  0
 13 11  1  6
 13 14  1  0
 13 15  1  0
 14 16  1  6
 15 17  1  0
 14 18  1  0
 17 18  1  0
 16 19  1  0
 16 20  2  0
M  END
