x0380_0_B-x0797_0_B
     RDKit          3D

 20 21  0  0  0  0  0  0  0  0999 V2000
   -4.6310   29.9740  -15.2250 N   0  0  0  0  0  0  0  0  0  0  0  0
   -3.7130   30.9790  -15.3950 C   0  0  0  0  0  0  0  0  0  0  0  0
   -3.8940   32.1150  -14.9830 O   0  0  0  0  0  0  0  0  0  0  0  0
   -5.6690   30.1690  -14.2570 C   0  0  2  0  0  0  0  0  0  0  0  0
   -2.4450   30.5840  -16.1420 C   0  0  0  0  0  0  0  0  0  0  0  0
   -5.3530   29.5180  -12.9020 C   0  0  2  0  0  0  0  0  0  0  0  0
   -7.0470   29.8490  -14.8280 C   0  0  0  0  0  0  0  0  0  0  0  0
   -4.3870   28.3430  -12.9740 C   0  0  0  0  0  0  0  0  0  0  0  0
   -2.2820   31.4350  -17.3460 N   0  0  0  0  0  0  0  0  0  0  0  0
   -6.6680   29.2920  -12.1800 C   0  0  2  0  0  0  0  0  0  0  0  0
   -8.0180   29.1220  -14.2090 C   0  0  0  0  0  0  0  0  0  0  0  0
   -6.3510   28.8340  -10.5590 Cl  0  0  0  0  0  0  0  0  0  0  0  0
   -7.8210   28.4970  -12.8320 C   0  0  1  0  0  0  0  0  0  0  0  0
   -7.9630   26.9580  -12.8920 C   0  0  1  0  0  0  0  0  0  0  0  0
   -8.9330   28.5790  -11.7530 C   0  0  0  0  0  0  0  0  0  0  0  0
   -7.1830   26.1240  -13.8450 C   0  0  0  0  0  0  0  0  0  0  0  0
   -8.6030   27.5650  -10.7630 O   0  0  0  0  0  0  0  0  0  0  0  0
   -7.8880   26.5250  -11.4430 C   0  0  0  0  0  0  0  0  0  0  0  0
   -7.7240   26.1710  -15.0800 O   0  0  0  0  0  0  0  0  0  0  0  0
   -6.1920   25.4530  -13.6370 O   0  0  0  0  0  0  0  0  0  0  0  0
  1  2  1  0
  2  3  2  0
  4  1  1  6
  2  5  1  0
  4  6  1  0
  4  7  1  0
  6  8  1  6
  5  9  1  0
  6 10  1  0
  7 11  2  0
 10 12  1  1
 10 13  1  0
 13 11  1  6
 13 14  1  0
 13 15  1  0
 14 16  1  6
 15 17  1  0
 14 18  1  0
 17 18  1  0
 16 19  1  0
 16 20  2  0
M  END
