x0380_0_B_α-x0228_0_B_β
     RDKit          3D

 25 26  0  0  0  0  0  0  0  0999 V2000
   -4.3630   30.4130  -14.5770 N   0  0  0  0  0  0  0  0  0  0  0  0
   -3.9350   31.3570  -15.4670 C   0  0  0  0  0  0  0  0  0  0  0  0
   -4.5570   32.3140  -15.8850 O   0  0  0  0  0  0  0  0  0  0  0  0
   -5.6490   30.1020  -14.0890 C   0  0  0  0  0  0  0  0  0  0  0  0
   -2.4980   31.0790  -15.9390 C   0  0  0  0  0  0  0  0  0  0  0  0
   -5.7240   29.3170  -12.9260 C   0  0  0  0  0  0  0  0  0  0  0  0
   -6.8280   30.5290  -14.7020 C   0  0  0  0  0  0  0  0  0  0  0  0
   -4.4500   28.8500  -12.2910 C   0  0  0  0  0  0  0  0  0  0  0  0
   -2.3060   31.5560  -17.3280 N   0  0  0  0  0  0  0  0  0  0  0  0
   -6.9760   28.9870  -12.4020 C   0  0  0  0  0  0  0  0  0  0  0  0
   -8.0690   30.1900  -14.1680 C   0  0  0  0  0  0  0  0  0  0  0  0
   -7.1560   28.0300  -10.9900 Cl  0  0  0  0  0  0  0  0  0  0  0  0
   -3.4420   28.5690  -13.4200 C   0  0  0  0  0  0  0  0  0  0  0  0
   -8.1470   29.4210  -13.0160 C   0  0  0  0  0  0  0  0  0  0  0  0
   -4.1460   28.1630  -14.7360 C   0  0  0  0  0  0  0  0  0  0  0  0
   -3.8920   26.7650  -14.9970 N   0  0  0  0  0  0  0  0  0  0  0  0
   -2.4930   26.5480  -15.3640 C   0  0  0  0  0  0  0  0  0  0  0  0
   -4.2840   26.0520  -13.8680 C   0  0  0  0  0  0  0  0  0  0  0  0
   -5.5070   25.3840  -13.6130 C   0  0  0  0  0  0  0  0  0  0  0  0
   -3.3330   26.0340  -12.9100 C   0  0  0  0  0  0  0  0  0  0  0  0
   -6.5470   25.3620  -14.5490 N   0  0  0  0  0  0  0  0  0  0  0  0
   -5.7070   24.7150  -12.3860 C   0  0  0  0  0  0  0  0  0  0  0  0
   -3.5570   25.3950  -11.7590 C   0  0  0  0  0  0  0  0  0  0  0  0
   -4.7120   24.7120  -11.4310 C   0  0  0  0  0  0  0  0  0  0  0  0
   -4.8680   23.9970  -10.1110 C   0  0  0  0  0  0  0  0  0  0  0  0
  1  2  1  0
  2  3  2  0
  1  4  1  0
  2  5  1  0
  4  6  2  0
  4  7  1  0
  6  8  1  0
  5  9  1  0
  6 10  1  0
  7 11  2  0
 10 12  1  0
  8 13  1  0
 10 14  2  0
 11 14  1  0
 13 15  1  0
 15 16  1  0
 16 17  1  0
 16 18  1  0
 18 19  2  0
 18 20  1  0
 19 21  1  0
 19 22  1  0
 20 23  2  0
 22 24  2  0
 23 24  1  0
 24 25  1  0
M  END
