x0380_0_B-x0436_0_B
     RDKit          3D

 19 19  0  0  0  0  0  0  0  0999 V2000
   -4.0580   30.0740  -14.4990 N   0  0  0  0  0  0  0  0  0  0  0  0
   -3.5330   31.1770  -15.1270 C   0  0  0  0  0  0  0  0  0  0  0  0
   -3.9630   32.3180  -15.0760 O   0  0  0  0  0  0  0  0  0  0  0  0
   -5.3980   29.8730  -14.1500 C   0  0  0  0  0  0  0  0  0  0  0  0
   -2.2940   30.8350  -15.9590 C   0  0  0  0  0  0  0  0  0  0  0  0
   -5.7120   29.3210  -12.8970 C   0  0  0  0  0  0  0  0  0  0  0  0
   -6.4200   30.2150  -15.0270 C   0  0  0  0  0  0  0  0  0  0  0  0
   -4.6120   28.9570  -11.9480 C   0  0  0  0  0  0  0  0  0  0  0  0
   -2.3690   31.4850  -17.2880 N   0  0  0  0  0  0  0  0  0  0  0  0
   -7.0690   29.1190  -12.5660 C   0  0  0  0  0  0  0  0  0  0  0  0
   -7.7450   30.0210  -14.6910 C   0  0  0  0  0  0  0  0  0  0  0  0
   -7.4750   28.4250  -11.0520 Cl  0  0  0  0  0  0  0  0  0  0  0  0
   -8.0890   29.4760  -13.4700 C   0  0  0  0  0  0  0  0  0  0  0  0
   -9.4470   29.3460  -13.2890 O   0  0  0  0  0  0  0  0  0  0  0  0
  -10.1810   30.1570  -14.2360 C   0  0  2  0  0  0  0  0  0  0  0  0
  -11.6190   30.2730  -13.7520 C   0  0  0  0  0  0  0  0  0  0  0  0
  -10.1600   29.5480  -15.6580 C   0  0  0  0  0  0  0  0  0  0  0  0
  -10.4480   28.2120  -15.7410 N   0  0  0  0  0  0  0  0  0  0  0  0
   -9.9130   30.1770  -16.6850 O   0  0  0  0  0  0  0  0  0  0  0  0
  1  2  1  0
  2  3  2  0
  1  4  1  0
  2  5  1  0
  4  6  2  0
  4  7  1  0
  6  8  1  0
  5  9  1  0
  6 10  1  0
  7 11  2  0
 10 12  1  0
 10 13  2  0
 11 13  1  0
 13 14  1  0
 14 15  1  0
 15 16  1  1
 15 17  1  0
 17 18  1  0
 17 19  2  0
M  END
