x0380_0_B-x0228_0_B
     RDKit          3D

 33 35  0  0  0  0  0  0  0  0999 V2000
   -4.2640   30.2480  -14.6570 N   0  0  0  0  0  0  0  0  0  0  0  0
   -3.7430   31.3250  -15.3330 C   0  0  0  0  0  0  0  0  0  0  0  0
   -4.2250   32.4390  -15.4330 O   0  0  0  0  0  0  0  0  0  0  0  0
   -5.5770   30.0270  -14.1680 C   0  0  0  0  0  0  0  0  0  0  0  0
   -2.4090   30.9790  -16.0060 C   0  0  0  0  0  0  0  0  0  0  0  0
   -5.7160   29.3760  -12.9270 C   0  0  0  0  0  0  0  0  0  0  0  0
   -6.7310   30.4180  -14.8610 C   0  0  0  0  0  0  0  0  0  0  0  0
   -4.5020   28.9420  -12.1620 C   0  0  0  0  0  0  0  0  0  0  0  0
   -2.3560   31.5630  -17.3580 N   0  0  0  0  0  0  0  0  0  0  0  0
   -6.9970   29.1360  -12.4330 C   0  0  0  0  0  0  0  0  0  0  0  0
   -8.0050   30.1700  -14.3420 C   0  0  0  0  0  0  0  0  0  0  0  0
   -7.2400   28.3330  -10.9480 Cl  0  0  0  0  0  0  0  0  0  0  0  0
   -3.4390   28.4380  -13.1370 C   0  0  0  0  0  0  0  0  0  0  0  0
   -8.1360   29.5260  -13.1220 C   0  0  0  0  0  0  0  0  0  0  0  0
   -4.0770   27.7860  -14.3710 C   0  0  0  0  0  0  0  0  0  0  0  0
   -3.5570   26.4510  -14.5910 N   0  0  0  0  0  0  0  0  0  0  0  0
   -2.1900   26.4820  -15.1260 C   0  0  0  0  0  0  0  0  0  0  0  0
   -3.7450   25.6940  -13.4090 C   0  0  0  0  0  0  0  0  0  0  0  0
   -2.6830   25.4030  -12.5670 C   0  0  0  0  0  0  0  0  0  0  0  0
   -5.0420   25.2090  -13.0480 C   0  0  0  0  0  0  0  0  0  0  0  0
   -6.1010   25.5280  -13.9240 N   0  0  0  0  0  0  0  0  0  0  0  0
   -2.8740   24.6580  -11.4250 C   0  0  0  0  0  0  0  0  0  0  0  0
   -5.2140   24.4600  -11.8790 C   0  0  0  0  0  0  0  0  0  0  0  0
   -7.4210   25.1240  -13.8810 C   0  0  0  0  0  0  0  0  0  0  0  0
   -4.1270   24.1760  -11.0580 C   0  0  0  0  0  0  0  0  0  0  0  0
   -8.1210   25.6970  -14.9290 N   0  0  0  0  0  0  0  0  0  0  0  0
   -7.9340   24.3730  -13.0610 O   0  0  0  0  0  0  0  0  0  0  0  0
   -4.3050   23.3730   -9.8040 C   0  0  0  0  0  0  0  0  0  0  0  0
   -9.4390   25.4090  -15.0870 N   0  0  0  0  0  0  0  0  0  0  0  0
   -9.9400   24.3690  -15.7970 C   0  0  0  0  0  0  0  0  0  0  0  0
  -10.4860   26.0990  -14.5750 C   0  0  0  0  0  0  0  0  0  0  0  0
  -11.2560   24.4140  -15.7290 N   0  0  0  0  0  0  0  0  0  0  0  0
  -11.6030   25.5110  -14.9530 N   0  0  0  0  0  0  0  0  0  0  0  0
  1  2  1  0
  2  3  2  0
  1  4  1  0
  2  5  1  0
  4  6  2  0
  4  7  1  0
  6  8  1  0
  5  9  1  0
  6 10  1  0
  7 11  2  0
 10 12  1  0
  8 13  1  0
 10 14  2  0
 11 14  1  0
 13 15  1  0
 15 16  1  0
 16 17  1  0
 16 18  1  0
 18 19  2  0
 18 20  1  0
 20 21  1  0
 19 22  1  0
 20 23  2  0
 21 24  1  0
 22 25  2  0
 23 25  1  0
 24 26  1  0
 24 27  2  0
 25 28  1  0
 26 29  1  0
 29 30  1  0
 29 31  1  0
 30 32  2  0
 31 33  2  0
 32 33  1  0
M  END
