x0380_0_B-x0918_0_B
     RDKit          3D

 13 13  0  0  0  0  0  0  0  0999 V2000
   -4.1600   30.0540  -14.6410 N   0  0  0  0  0  0  0  0  0  0  0  0
   -3.6760   31.0950  -15.3940 C   0  0  0  0  0  0  0  0  0  0  0  0
   -4.2140   32.1660  -15.6090 O   0  0  0  0  0  0  0  0  0  0  0  0
   -5.4720   29.8320  -14.1900 C   0  0  0  0  0  0  0  0  0  0  0  0
   -2.3090   30.7860  -16.0050 C   0  0  0  0  0  0  0  0  0  0  0  0
   -5.6350   29.2390  -12.9310 C   0  0  0  0  0  0  0  0  0  0  0  0
   -6.6050   30.1740  -14.9390 C   0  0  0  0  0  0  0  0  0  0  0  0
   -4.4460   28.8670  -12.1070 C   0  0  0  0  0  0  0  0  0  0  0  0
   -2.1790   31.4610  -17.3180 N   0  0  0  0  0  0  0  0  0  0  0  0
   -6.9280   29.0000  -12.4690 C   0  0  0  0  0  0  0  0  0  0  0  0
   -7.8890   29.9310  -14.4530 C   0  0  0  0  0  0  0  0  0  0  0  0
   -7.2050   28.2610  -10.9610 Cl  0  0  0  0  0  0  0  0  0  0  0  0
   -8.0510   29.3400  -13.2120 C   0  0  0  0  0  0  0  0  0  0  0  0
  1  2  1  0
  2  3  2  0
  1  4  1  0
  2  5  1  0
  4  6  2  0
  4  7  1  0
  6  8  1  0
  5  9  1  0
  6 10  1  0
  7 11  2  0
 10 12  1  0
 10 13  2  0
 11 13  1  0
M  END
