x0380_0_B-x0918_0_B
     RDKit          3D

 13 13  0  0  0  0  0  0  0  0999 V2000
   -4.1590   30.0570  -14.6390 N   0  0  0  0  0  0  0  0  0  0  0  0
   -3.6690   31.0990  -15.3890 C   0  0  0  0  0  0  0  0  0  0  0  0
   -4.1980   32.1710  -15.6010 O   0  0  0  0  0  0  0  0  0  0  0  0
   -5.4720   29.8350  -14.1870 C   0  0  0  0  0  0  0  0  0  0  0  0
   -2.3050   30.7820  -16.0060 C   0  0  0  0  0  0  0  0  0  0  0  0
   -5.6350   29.2430  -12.9280 C   0  0  0  0  0  0  0  0  0  0  0  0
   -6.6090   30.1740  -14.9340 C   0  0  0  0  0  0  0  0  0  0  0  0
   -4.4420   28.8750  -12.1010 C   0  0  0  0  0  0  0  0  0  0  0  0
   -2.1750   31.4600  -17.3160 N   0  0  0  0  0  0  0  0  0  0  0  0
   -6.9230   29.0000  -12.4650 C   0  0  0  0  0  0  0  0  0  0  0  0
   -7.8940   29.9280  -14.4460 C   0  0  0  0  0  0  0  0  0  0  0  0
   -7.1950   28.2600  -10.9540 Cl  0  0  0  0  0  0  0  0  0  0  0  0
   -8.0490   29.3370  -13.2040 C   0  0  0  0  0  0  0  0  0  0  0  0
  1  2  1  0
  2  3  2  0
  1  4  1  0
  2  5  1  0
  4  6  2  0
  4  7  1  0
  6  8  1  0
  5  9  1  0
  6 10  1  0
  7 11  2  0
 10 12  1  0
 10 13  2  0
 11 13  1  0
M  END
