x0380_0_B-x0918_1_B
     RDKit          3D

 21 22  0  0  0  0  0  0  0  0999 V2000
   -4.3470   29.8180  -14.4260 N   0  0  0  0  0  0  0  0  0  0  0  0
   -3.7990   30.7960  -15.2160 C   0  0  0  0  0  0  0  0  0  0  0  0
   -4.4810   31.7900  -15.4780 O   0  0  0  0  0  0  0  0  0  0  0  0
   -5.6690   29.7620  -13.9360 C   0  0  0  0  0  0  0  0  0  0  0  0
   -2.3840   30.6730  -15.8010 C   0  0  0  0  0  0  0  0  0  0  0  0
   -6.1110   29.0050  -12.8240 C   0  0  0  0  0  0  0  0  0  0  0  0
   -6.6050   30.5330  -14.6390 C   0  0  0  0  0  0  0  0  0  0  0  0
   -5.2970   28.1030  -11.9630 C   0  0  0  0  0  0  0  0  0  0  0  0
   -2.3370   31.4170  -17.0740 N   0  0  0  0  0  0  0  0  0  0  0  0
   -7.4450   29.0630  -12.4630 C   0  0  0  0  0  0  0  0  0  0  0  0
   -7.9430   30.5630  -14.2470 C   0  0  0  0  0  0  0  0  0  0  0  0
   -8.0190   28.1580  -11.1160 Cl  0  0  0  0  0  0  0  0  0  0  0  0
   -5.5410   26.6230  -12.3970 C   0  0  0  0  0  0  0  0  0  0  0  0
   -8.3620   29.8270  -13.1530 C   0  0  0  0  0  0  0  0  0  0  0  0
   -4.4220   26.3820  -13.3230 C   0  0  0  0  0  0  0  0  0  0  0  0
   -3.2370   26.3090  -12.6950 C   0  0  0  0  0  0  0  0  0  0  0  0
   -4.5730   26.2990  -14.6550 N   0  0  0  0  0  0  0  0  0  0  0  0
   -2.0890   26.1900  -13.3870 C   0  0  0  0  0  0  0  0  0  0  0  0
   -3.4220   26.1650  -15.3400 C   0  0  0  0  0  0  0  0  0  0  0  0
   -0.8890   26.1700  -12.7090 N   0  0  0  0  0  0  0  0  0  0  0  0
   -2.1660   26.1130  -14.7550 C   0  0  0  0  0  0  0  0  0  0  0  0
  1  2  1  0
  2  3  2  0
  1  4  1  0
  2  5  1  0
  4  6  2  0
  4  7  1  0
  6  8  1  0
  5  9  1  0
  6 10  1  0
  7 11  2  0
 10 12  1  0
  8 13  1  0
 10 14  2  0
 11 14  1  0
 13 15  1  0
 15 16  2  0
 15 17  1  0
 16 18  1  0
 17 19  2  0
 18 20  1  0
 18 21  2  0
 19 21  1  0
M  END
