x0417_0_B-x0228_0_B
     RDKit          3D

 33 36  0  0  0  0  0  0  0  0999 V2000
   -2.6090   31.2740  -17.1030 N   0  0  0  0  0  0  0  0  0  0  0  0
   -1.3490   31.7970  -17.6100 C   0  0  0  0  0  0  0  0  0  0  0  0
   -2.5170   30.8600  -15.6880 C   0  0  2  0  0  0  0  0  0  0  0  0
   -1.9510   29.4600  -15.4730 C   0  0  0  0  0  0  0  0  0  0  0  0
   -3.9430   30.7380  -15.1580 C   0  0  0  0  0  0  0  0  0  0  0  0
   -4.8040   31.5760  -15.3610 O   0  0  0  0  0  0  0  0  0  0  0  0
   -2.9030   28.6890  -14.5430 C   0  0  1  0  0  0  0  0  0  0  0  0
   -4.1070   29.5530  -14.4360 N   0  0  0  0  0  0  0  0  0  0  0  0
   -3.0650   27.2890  -15.2160 C   0  0  0  0  0  0  0  0  0  0  0  0
   -5.2540   29.3850  -13.5750 C   0  0  0  0  0  0  0  0  0  0  0  0
   -4.3640   26.7470  -14.9920 O   0  0  0  0  0  0  0  0  0  0  0  0
   -6.5440   29.3650  -14.1180 C   0  0  0  0  0  0  0  0  0  0  0  0
   -5.1730   29.2460  -12.1740 C   0  0  0  0  0  0  0  0  0  0  0  0
   -4.0150   29.2570  -11.5560 F   0  0  0  0  0  0  0  0  0  0  0  0
   -7.6780   29.2160  -13.3030 C   0  0  0  0  0  0  0  0  0  0  0  0
   -6.2950   29.0990  -11.3600 C   0  0  0  0  0  0  0  0  0  0  0  0
   -4.4240   26.0720  -13.8120 C   0  0  0  0  0  0  0  0  0  0  0  0
   -7.5520   29.0830  -11.9230 C   0  0  0  0  0  0  0  0  0  0  0  0
   -3.3750   26.1790  -12.9770 C   0  0  0  0  0  0  0  0  0  0  0  0
   -5.5270   25.2940  -13.4630 C   0  0  0  0  0  0  0  0  0  0  0  0
   -6.5530   25.2330  -14.3690 N   0  0  0  0  0  0  0  0  0  0  0  0
   -3.4460   25.5090  -11.8090 C   0  0  0  0  0  0  0  0  0  0  0  0
   -5.5770   24.6160  -12.2590 C   0  0  0  0  0  0  0  0  0  0  0  0
   -7.8520   25.1030  -14.0330 C   0  0  0  0  0  0  0  0  0  0  0  0
   -4.5260   24.7070  -11.3930 C   0  0  0  0  0  0  0  0  0  0  0  0
   -8.5950   25.9200  -14.8290 N   0  0  0  0  0  0  0  0  0  0  0  0
   -8.3010   24.3750  -13.1550 O   0  0  0  0  0  0  0  0  0  0  0  0
   -4.5630   23.9540  -10.0760 C   0  0  0  0  0  0  0  0  0  0  0  0
   -9.8270   25.5020  -15.1020 N   0  0  0  0  0  0  0  0  0  0  0  0
  -10.1810   24.4380  -15.8510 C   0  0  0  0  0  0  0  0  0  0  0  0
  -10.9440   26.0970  -14.6550 C   0  0  0  0  0  0  0  0  0  0  0  0
  -11.4940   24.3780  -15.8680 N   0  0  0  0  0  0  0  0  0  0  0  0
  -11.9790   25.4300  -15.1100 N   0  0  0  0  0  0  0  0  0  0  0  0
  1  2  1  0
  3  1  1  6
  3  4  1  0
  3  5  1  0
  5  6  2  0
  4  7  1  0
  5  8  1  0
  7  8  1  0
  7  9  1  6
  8 10  1  0
  9 11  1  0
 10 12  2  0
 10 13  1  0
 13 14  1  0
 12 15  1  0
 13 16  2  0
 11 17  1  0
 15 18  2  0
 16 18  1  0
 17 19  2  0
 17 20  1  0
 20 21  1  0
 19 22  1  0
 20 23  2  0
 21 24  1  0
 22 25  2  0
 23 25  1  0
 24 26  1  0
 24 27  2  0
 25 28  1  0
 26 29  1  0
 29 30  1  0
 29 31  1  0
 30 32  2  0
 31 33  2  0
 32 33  1  0
M  END
