x0417_0_B_α-x0918_0_B_α
     RDKit          3D

 16 17  0  0  0  0  0  0  0  0999 V2000
   -2.0010   31.5560  -16.5840 N   0  0  0  0  0  0  0  0  0  0  0  0
   -1.6400   31.5690  -17.9940 C   0  0  0  0  0  0  0  0  0  0  0  0
   -2.7530   30.3810  -16.1100 C   0  0  1  0  0  0  0  0  0  0  0  0
   -1.9990   29.2250  -15.4860 C   0  0  0  0  0  0  0  0  0  0  0  0
   -3.7320   30.7840  -15.0250 C   0  0  0  0  0  0  0  0  0  0  0  0
   -4.3440   31.8280  -15.1020 O   0  0  0  0  0  0  0  0  0  0  0  0
   -2.9050   28.7190  -14.3760 C   0  0  0  0  0  0  0  0  0  0  0  0
   -3.7980   29.8070  -14.0270 N   0  0  0  0  0  0  0  0  0  0  0  0
   -5.0360   29.5440  -13.3510 C   0  0  0  0  0  0  0  0  0  0  0  0
   -6.1900   29.4130  -14.0970 C   0  0  0  0  0  0  0  0  0  0  0  0
   -5.1710   29.4130  -11.9620 C   0  0  0  0  0  0  0  0  0  0  0  0
   -4.1340   29.5230  -11.1620 F   0  0  0  0  0  0  0  0  0  0  0  0
   -6.1120   29.5330  -15.4970 N   0  0  0  0  0  0  0  0  0  0  0  0
   -7.4360   29.1610  -13.4680 C   0  0  0  0  0  0  0  0  0  0  0  0
   -6.3820   29.1660  -11.3260 C   0  0  0  0  0  0  0  0  0  0  0  0
   -7.5320   29.0370  -12.0800 C   0  0  0  0  0  0  0  0  0  0  0  0
  1  2  1  0
  3  1  1  1
  3  4  1  0
  3  5  1  0
  5  6  2  0
  4  7  1  0
  5  8  1  0
  7  8  1  0
  8  9  1  0
  9 10  2  0
  9 11  1  0
 11 12  1  0
 10 13  1  0
 10 14  1  0
 11 15  2  0
 14 16  2  0
 15 16  1  0
M  END
