x0417_0_B-x0436_0_B
     RDKit          3D

 21 22  0  0  0  0  0  0  0  0999 V2000
   -2.6470   31.2130  -17.1340 N   0  0  0  0  0  0  0  0  0  0  0  0
   -1.3570   31.7800  -17.4820 C   0  0  0  0  0  0  0  0  0  0  0  0
   -2.7660   30.6310  -15.7890 C   0  0  2  0  0  0  0  0  0  0  0  0
   -2.4960   29.1350  -15.6950 C   0  0  0  0  0  0  0  0  0  0  0  0
   -4.1600   30.7650  -15.1760 C   0  0  0  0  0  0  0  0  0  0  0  0
   -4.9130   31.6980  -15.3800 O   0  0  0  0  0  0  0  0  0  0  0  0
   -3.2760   28.7110  -14.4610 C   0  0  0  0  0  0  0  0  0  0  0  0
   -4.3930   29.6300  -14.3770 N   0  0  0  0  0  0  0  0  0  0  0  0
   -5.5020   29.4350  -13.4880 C   0  0  0  0  0  0  0  0  0  0  0  0
   -6.8490   29.3900  -13.9510 C   0  0  0  0  0  0  0  0  0  0  0  0
   -5.3230   29.2790  -12.1130 C   0  0  0  0  0  0  0  0  0  0  0  0
   -4.1200   29.3000  -11.5650 F   0  0  0  0  0  0  0  0  0  0  0  0
   -7.9410   29.1960  -13.0550 C   0  0  0  0  0  0  0  0  0  0  0  0
   -6.3780   29.0970  -11.2380 C   0  0  0  0  0  0  0  0  0  0  0  0
   -9.2220   29.1500  -13.5890 O   0  0  0  0  0  0  0  0  0  0  0  0
   -7.6810   29.0550  -11.7010 C   0  0  0  0  0  0  0  0  0  0  0  0
   -9.7450   30.1700  -14.4480 C   0  0  2  0  0  0  0  0  0  0  0  0
  -11.1040   30.5970  -13.8940 C   0  0  0  0  0  0  0  0  0  0  0  0
   -9.9650   29.6360  -15.8680 C   0  0  0  0  0  0  0  0  0  0  0  0
  -10.3490   28.3260  -15.9560 N   0  0  0  0  0  0  0  0  0  0  0  0
   -9.8160   30.3230  -16.8710 O   0  0  0  0  0  0  0  0  0  0  0  0
  1  2  1  0
  3  1  1  6
  3  4  1  0
  3  5  1  0
  5  6  2  0
  4  7  1  0
  5  8  1  0
  7  8  1  0
  8  9  1  0
  9 10  2  0
  9 11  1  0
 11 12  1  0
 10 13  1  0
 11 14  2  0
 13 15  1  0
 13 16  2  0
 14 16  1  0
 15 17  1  0
 17 18  1  1
 17 19  1  0
 19 20  1  0
 19 21  2  0
M  END
