x0417_0_B_α-x0228_0_B_α
     RDKit          3D

 25 27  0  0  0  0  0  0  0  0999 V2000
   -2.7740   31.3160  -17.0240 N   0  0  0  0  0  0  0  0  0  0  0  0
   -1.5000   31.7470  -17.5910 C   0  0  0  0  0  0  0  0  0  0  0  0
   -2.6230   30.6710  -15.6990 C   0  0  2  0  0  0  0  0  0  0  0  0
   -2.4100   29.1620  -15.7650 C   0  0  0  0  0  0  0  0  0  0  0  0
   -3.9800   30.7250  -14.9860 C   0  0  0  0  0  0  0  0  0  0  0  0
   -4.7950   31.6160  -15.1510 O   0  0  0  0  0  0  0  0  0  0  0  0
   -3.0560   28.6310  -14.4890 C   0  0  0  0  0  0  0  0  0  0  0  0
   -4.0920   29.5900  -14.1560 N   0  0  0  0  0  0  0  0  0  0  0  0
   -5.2070   29.2860  -13.3100 C   0  0  0  0  0  0  0  0  0  0  0  0
   -6.4270   28.8610  -13.8540 C   0  0  0  0  0  0  0  0  0  0  0  0
   -5.1710   29.3750  -11.9110 C   0  0  0  0  0  0  0  0  0  0  0  0
   -4.0910   29.7420  -11.2670 F   0  0  0  0  0  0  0  0  0  0  0  0
   -7.5240   28.5490  -13.0350 C   0  0  0  0  0  0  0  0  0  0  0  0
   -6.2450   29.0910  -11.1040 C   0  0  0  0  0  0  0  0  0  0  0  0
   -8.8350   28.0470  -13.5470 C   0  0  0  0  0  0  0  0  0  0  0  0
   -7.4250   28.6780  -11.6580 C   0  0  0  0  0  0  0  0  0  0  0  0
   -9.1150   26.6720  -12.9050 C   0  0  0  0  0  0  0  0  0  0  0  0
   -8.2450   25.5690  -13.5070 C   0  0  0  0  0  0  0  0  0  0  0  0
   -8.3720   25.4980  -14.8630 N   0  0  0  0  0  0  0  0  0  0  0  0
   -7.5420   24.8200  -12.8310 O   0  0  0  0  0  0  0  0  0  0  0  0
   -9.6390   25.2840  -15.2360 N   0  0  0  0  0  0  0  0  0  0  0  0
  -10.1050   24.2060  -15.9010 C   0  0  0  0  0  0  0  0  0  0  0  0
  -10.6880   26.1110  -15.0060 C   0  0  0  0  0  0  0  0  0  0  0  0
  -11.4000   24.3540  -16.0780 N   0  0  0  0  0  0  0  0  0  0  0  0
  -11.7690   25.5630  -15.5100 N   0  0  0  0  0  0  0  0  0  0  0  0
  1  2  1  0
  3  1  1  6
  3  4  1  0
  3  5  1  0
  5  6  2  0
  4  7  1  0
  5  8  1  0
  7  8  1  0
  8  9  1  0
  9 10  2  0
  9 11  1  0
 11 12  1  0
 10 13  1  0
 11 14  2  0
 13 15  1  0
 13 16  2  0
 14 16  1  0
 15 17  1  0
 17 18  1  0
 18 19  1  0
 18 20  2  0
 19 21  1  0
 21 22  1  0
 21 23  1  0
 22 24  2  0
 23 25  2  0
 24 25  1  0
M  END
