x0417_0_B_α-x0766_1_B_α
     RDKit          3D

 22 24  0  0  0  0  0  0  0  0999 V2000
   -2.6590   31.2030  -17.1350 N   0  0  0  0  0  0  0  0  0  0  0  0
   -1.4680   31.8230  -17.6860 C   0  0  0  0  0  0  0  0  0  0  0  0
   -2.4440   30.5770  -15.8260 C   0  0  2  0  0  0  0  0  0  0  0  0
   -2.5200   29.0410  -15.8130 C   0  0  0  0  0  0  0  0  0  0  0  0
   -3.5590   30.9770  -14.8500 C   0  0  0  0  0  0  0  0  0  0  0  0
   -3.9690   32.1030  -14.6240 O   0  0  0  0  0  0  0  0  0  0  0  0
   -3.1850   28.6930  -14.4880 C   0  0  0  0  0  0  0  0  0  0  0  0
   -4.0450   29.8230  -14.2500 N   0  0  0  0  0  0  0  0  0  0  0  0
   -5.1850   29.9320  -13.3450 C   0  0  1  0  0  0  0  0  0  0  0  0
   -6.4930   29.5920  -14.0090 C   0  0  0  0  0  0  0  0  0  0  0  0
   -5.0650   29.2870  -11.9460 C   0  0  1  0  0  0  0  0  0  0  0  0
   -4.1520   29.8780  -11.1800 F   0  0  0  0  0  0  0  0  0  0  0  0
   -7.4440   28.8800  -13.3810 C   0  0  0  0  0  0  0  0  0  0  0  0
   -6.4010   29.3630  -11.2200 C   0  0  0  0  0  0  0  0  0  0  0  0
   -7.2350   28.3710  -11.9690 C   0  0  1  0  0  0  0  0  0  0  0  0
   -8.5270   27.7980  -11.3300 C   0  0  0  0  0  0  0  0  0  0  0  0
   -6.3140   27.1560  -11.9800 C   0  0  0  0  0  0  0  0  0  0  0  0
   -7.2350   26.0940  -12.4760 C   0  0  1  0  0  0  0  0  0  0  0  0
   -8.4650   26.2870  -11.5920 C   0  0  0  0  0  0  0  0  0  0  0  0
   -7.5000   26.2830  -13.9380 C   0  0  0  0  0  0  0  0  0  0  0  0
   -8.5620   26.6340  -14.4220 O   0  0  0  0  0  0  0  0  0  0  0  0
   -6.4350   26.0480  -14.7280 O   0  0  0  0  0  0  0  0  0  0  0  0
  1  2  1  0
  3  1  1  6
  3  4  1  0
  3  5  1  0
  5  6  2  0
  4  7  1  0
  5  8  1  0
  7  8  1  0
  9  8  1  6
  9 10  1  0
  9 11  1  0
 11 12  1  1
 10 13  2  0
 11 14  1  0
 15 13  1  6
 14 15  1  0
 15 16  1  0
 15 17  1  0
 17 18  1  0
 16 19  1  0
 18 19  1  0
 18 20  1  6
 20 21  2  0
 20 22  1  0
M  END
