x0417_0_B-x0918_0_B
     RDKit          3D

 16 17  0  0  0  0  0  0  0  0999 V2000
   -2.6590   31.3390  -17.1620 N   0  0  0  0  0  0  0  0  0  0  0  0
   -1.2300   31.3760  -17.4250 C   0  0  0  0  0  0  0  0  0  0  0  0
   -3.1560   30.3010  -16.2280 C   0  0  1  0  0  0  0  0  0  0  0  0
   -2.2990   29.1110  -15.8490 C   0  0  0  0  0  0  0  0  0  0  0  0
   -3.4420   30.8570  -14.8580 C   0  0  0  0  0  0  0  0  0  0  0  0
   -3.4220   32.0430  -14.6350 O   0  0  0  0  0  0  0  0  0  0  0  0
   -2.8860   28.6670  -14.5060 C   0  0  0  0  0  0  0  0  0  0  0  0
   -3.6940   29.7740  -14.0110 N   0  0  0  0  0  0  0  0  0  0  0  0
   -4.9710   29.5320  -13.3820 C   0  0  0  0  0  0  0  0  0  0  0  0
   -6.1170   29.4220  -14.1480 C   0  0  0  0  0  0  0  0  0  0  0  0
   -5.1420   29.4000  -11.9910 C   0  0  0  0  0  0  0  0  0  0  0  0
   -4.1230   29.4940  -11.1700 F   0  0  0  0  0  0  0  0  0  0  0  0
   -6.0120   29.5430  -15.5450 N   0  0  0  0  0  0  0  0  0  0  0  0
   -7.3790   29.1920  -13.5430 C   0  0  0  0  0  0  0  0  0  0  0  0
   -6.3740   29.1720  -11.3800 C   0  0  0  0  0  0  0  0  0  0  0  0
   -7.5090   29.0660  -12.1580 C   0  0  0  0  0  0  0  0  0  0  0  0
  1  2  1  0
  3  1  1  6
  3  4  1  0
  3  5  1  0
  5  6  2  0
  4  7  1  0
  5  8  1  0
  7  8  1  0
  8  9  1  0
  9 10  2  0
  9 11  1  0
 11 12  1  0
 10 13  1  0
 10 14  1  0
 11 15  2  0
 14 16  2  0
 15 16  1  0
M  END
