x0417_0_B-x0918_1_B
     RDKit          3D

 23 25  0  0  0  0  0  0  0  0999 V2000
   -2.6850   31.2290  -17.0310 N   0  0  0  0  0  0  0  0  0  0  0  0
   -1.4590   31.7890  -17.5770 C   0  0  0  0  0  0  0  0  0  0  0  0
   -2.5790   30.6010  -15.6930 C   0  0  2  0  0  0  0  0  0  0  0  0
   -2.4740   29.0880  -15.6320 C   0  0  0  0  0  0  0  0  0  0  0  0
   -3.8230   30.8970  -14.8600 C   0  0  0  0  0  0  0  0  0  0  0  0
   -4.3940   31.9560  -14.9460 O   0  0  0  0  0  0  0  0  0  0  0  0
   -3.2740   28.6710  -14.4050 C   0  0  0  0  0  0  0  0  0  0  0  0
   -4.1330   29.7820  -14.0700 N   0  0  0  0  0  0  0  0  0  0  0  0
   -5.3480   29.6330  -13.2980 C   0  0  0  0  0  0  0  0  0  0  0  0
   -6.4590   30.3610  -13.7520 C   0  0  0  0  0  0  0  0  0  0  0  0
   -5.5520   28.8330  -12.1290 C   0  0  0  0  0  0  0  0  0  0  0  0
   -4.5700   28.0660  -11.6270 O   0  0  0  0  0  0  0  0  0  0  0  0
   -7.6890   30.3160  -13.0930 C   0  0  0  0  0  0  0  0  0  0  0  0
   -6.7830   28.8130  -11.4860 C   0  0  0  0  0  0  0  0  0  0  0  0
   -4.7150   26.6440  -11.8880 C   0  0  0  0  0  0  0  0  0  0  0  0
   -7.8490   29.5470  -11.9580 C   0  0  0  0  0  0  0  0  0  0  0  0
   -3.9570   26.3610  -13.1050 C   0  0  0  0  0  0  0  0  0  0  0  0
   -2.5560   26.3600  -13.1580 C   0  0  0  0  0  0  0  0  0  0  0  0
   -4.6620   26.1210  -14.2670 C   0  0  0  0  0  0  0  0  0  0  0  0
   -1.6910   26.5690  -12.1050 N   0  0  0  0  0  0  0  0  0  0  0  0
   -4.0700   25.9150  -15.4480 N   0  0  0  0  0  0  0  0  0  0  0  0
   -1.9480   26.1600  -14.3520 C   0  0  0  0  0  0  0  0  0  0  0  0
   -2.7220   25.9550  -15.4490 C   0  0  0  0  0  0  0  0  0  0  0  0
  1  2  1  0
  3  1  1  6
  3  4  1  0
  3  5  1  0
  5  6  2  0
  4  7  1  0
  5  8  1  0
  7  8  1  0
  8  9  1  0
  9 10  2  0
  9 11  1  0
 11 12  1  0
 10 13  1  0
 11 14  2  0
 12 15  1  0
 13 16  2  0
 14 16  1  0
 15 17  1  0
 17 18  2  0
 17 19  1  0
 18 20  1  0
 19 21  2  0
 18 22  1  0
 21 23  1  0
 22 23  2  0
M  END
