x0417_0_B-x0797_0_B
     RDKit          3D

 23 25  0  0  0  0  0  0  0  0999 V2000
   -2.5430   31.0810  -17.2020 N   0  0  0  0  0  0  0  0  0  0  0  0
   -1.3890   31.8710  -17.6030 C   0  0  0  0  0  0  0  0  0  0  0  0
   -2.3950   30.5410  -15.8350 C   0  0  2  0  0  0  0  0  0  0  0  0
   -2.4130   29.0130  -15.7750 C   0  0  0  0  0  0  0  0  0  0  0  0
   -3.6900   30.8610  -15.1100 C   0  0  0  0  0  0  0  0  0  0  0  0
   -4.3690   31.8410  -15.3190 O   0  0  0  0  0  0  0  0  0  0  0  0
   -3.1590   28.6800  -14.4850 C   0  0  0  0  0  0  0  0  0  0  0  0
   -3.9680   29.8510  -14.2040 N   0  0  0  0  0  0  0  0  0  0  0  0
   -5.2770   29.8550  -13.5520 C   0  0  1  0  0  0  0  0  0  0  0  0
   -6.3920   29.2220  -14.3630 C   0  0  0  0  0  0  0  0  0  0  0  0
   -5.3680   29.4150  -12.0810 C   0  0  2  0  0  0  0  0  0  0  0  0
   -4.1550   29.3490  -11.5040 F   0  0  0  0  0  0  0  0  0  0  0  0
   -7.6650   29.2910  -13.5170 C   0  0  1  0  0  0  0  0  0  0  0  0
   -6.0890   28.0980  -11.9190 C   0  0  0  0  0  0  0  0  0  0  0  0
   -8.8560   29.2950  -14.4780 C   0  0  0  0  0  0  0  0  0  0  0  0
   -7.5800   28.2050  -12.3840 C   0  0  2  0  0  0  0  0  0  0  0  0
   -8.1190   26.8020  -12.7240 C   0  0  1  0  0  0  0  0  0  0  0  0
   -8.3690   28.3930  -11.1160 C   0  0  0  0  0  0  0  0  0  0  0  0
   -7.4130   26.0700  -13.8400 C   0  0  0  0  0  0  0  0  0  0  0  0
   -8.2660   27.1220  -10.4210 O   0  0  0  0  0  0  0  0  0  0  0  0
   -7.9710   26.0930  -11.3840 C   0  0  0  0  0  0  0  0  0  0  0  0
   -7.9710   26.2010  -15.0640 O   0  0  0  0  0  0  0  0  0  0  0  0
   -6.4020   25.4040  -13.6580 O   0  0  0  0  0  0  0  0  0  0  0  0
  1  2  1  0
  3  1  1  6
  3  4  1  0
  3  5  1  0
  5  6  2  0
  4  7  1  0
  5  8  1  0
  7  8  1  0
  9  8  1  6
  9 10  1  0
  9 11  1  0
 11 12  1  6
 10 13  1  0
 11 14  1  0
 13 15  1  6
 13 16  1  0
 16 14  1  1
 16 17  1  0
 16 18  1  0
 17 19  1  6
 18 20  1  0
 17 21  1  0
 20 21  1  0
 19 22  1  0
 19 23  2  0
M  END
