x0417_0_B_α-x0436_0_B_α
     RDKit          3D

 21 22  0  0  0  0  0  0  0  0999 V2000
   -2.6430   31.2190  -17.1400 N   0  0  0  0  0  0  0  0  0  0  0  0
   -1.3530   31.7910  -17.4900 C   0  0  0  0  0  0  0  0  0  0  0  0
   -2.7660   30.6300  -15.7940 C   0  0  2  0  0  0  0  0  0  0  0  0
   -2.4920   29.1320  -15.6960 C   0  0  0  0  0  0  0  0  0  0  0  0
   -4.1600   30.7610  -15.1760 C   0  0  0  0  0  0  0  0  0  0  0  0
   -4.9150   31.6900  -15.3790 O   0  0  0  0  0  0  0  0  0  0  0  0
   -3.2740   28.7070  -14.4600 C   0  0  0  0  0  0  0  0  0  0  0  0
   -4.3880   29.6290  -14.3710 N   0  0  0  0  0  0  0  0  0  0  0  0
   -5.5000   29.4390  -13.4770 C   0  0  0  0  0  0  0  0  0  0  0  0
   -6.8440   29.3950  -13.9410 C   0  0  0  0  0  0  0  0  0  0  0  0
   -5.3200   29.2870  -12.1000 C   0  0  0  0  0  0  0  0  0  0  0  0
   -4.1170   29.3070  -11.5530 F   0  0  0  0  0  0  0  0  0  0  0  0
   -7.9400   29.2060  -13.0470 C   0  0  0  0  0  0  0  0  0  0  0  0
   -6.3820   29.1090  -11.2250 C   0  0  0  0  0  0  0  0  0  0  0  0
   -9.2180   29.1610  -13.5850 O   0  0  0  0  0  0  0  0  0  0  0  0
   -7.6810   29.0690  -11.6920 C   0  0  0  0  0  0  0  0  0  0  0  0
   -9.7450   30.1740  -14.4500 C   0  0  2  0  0  0  0  0  0  0  0  0
  -11.1060   30.5960  -13.8960 C   0  0  0  0  0  0  0  0  0  0  0  0
   -9.9570   29.6350  -15.8700 C   0  0  0  0  0  0  0  0  0  0  0  0
  -10.3490   28.3230  -15.9580 N   0  0  0  0  0  0  0  0  0  0  0  0
   -9.8030   30.3160  -16.8760 O   0  0  0  0  0  0  0  0  0  0  0  0
  1  2  1  0
  3  1  1  6
  3  4  1  0
  3  5  1  0
  5  6  2  0
  4  7  1  0
  5  8  1  0
  7  8  1  0
  8  9  1  0
  9 10  2  0
  9 11  1  0
 11 12  1  0
 10 13  1  0
 11 14  2  0
 13 15  1  0
 13 16  2  0
 14 16  1  0
 15 17  1  0
 17 18  1  1
 17 19  1  0
 19 20  1  0
 19 21  2  0
M  END
