x0421_0_A-x0290_0_A
     RDKit          3D

 22 25  0  0  0  0  0  0  0  0999 V2000
   -3.7630   15.0230   -3.4090 N   0  0  0  0  0  0  0  0  0  0  0  0
   -3.8680   14.6410   -2.0020 C   0  0  0  0  0  0  0  0  0  0  0  0
   -4.3520   15.8060   -1.1160 C   0  0  2  0  0  0  0  0  0  0  0  0
   -3.7230   15.9000    0.2430 C   0  0  0  0  0  0  0  0  0  0  0  0
   -5.7670   15.7420   -0.6640 N   0  0  0  0  0  0  0  0  0  0  0  0
   -4.2620   14.5860    0.5020 C   0  0  2  0  0  0  0  0  0  0  0  0
   -5.7390   14.6280    0.2780 C   0  0  1  0  0  0  0  0  0  0  0  0
   -6.4170   14.6490    1.6430 C   0  0  1  0  0  0  0  0  0  0  0  0
   -3.7810   13.9580    1.5800 N   0  0  0  0  0  0  0  0  0  0  0  0
   -7.9210   14.8260    1.6150 C   0  0  0  0  0  0  0  0  0  0  0  0
   -6.0430   13.2390    2.0610 C   0  0  0  0  0  0  0  0  0  0  0  0
   -4.7280   12.9840    1.3800 C   0  0  0  0  0  0  0  0  0  0  0  0
   -2.4520   14.0520    1.1140 C   0  0  0  0  0  0  0  0  0  0  0  0
   -8.6720   13.5220    1.9220 C   0  0  0  0  0  0  0  0  0  0  0  0
   -8.6280   14.7010    0.2540 C   0  0  0  0  0  0  0  0  0  0  0  0
   -4.6620   12.0770    0.5860 O   0  0  0  0  0  0  0  0  0  0  0  0
   -1.4490   14.3040    1.9410 N   0  0  0  0  0  0  0  0  0  0  0  0
   -2.2200   13.9120   -0.2540 C   0  0  0  0  0  0  0  0  0  0  0  0
   -8.5760   13.2440    0.4840 N   0  0  0  0  0  0  0  0  0  0  0  0
   -0.2180   14.4280    1.4250 C   0  0  0  0  0  0  0  0  0  0  0  0
   -0.9460   14.0440   -0.7750 C   0  0  0  0  0  0  0  0  0  0  0  0
    0.0830   14.3130    0.0850 C   0  0  0  0  0  0  0  0  0  0  0  0
  1  2  1  0
  3  2  1  1
  3  4  1  0
  3  5  1  0
  6  4  1  1
  7  5  1  6
  6  7  1  0
  7  8  1  0
  6  9  1  0
  8 10  1  6
  8 11  1  0
  9 12  1  0
 11 12  1  0
  9 13  1  0
 10 14  1  0
 10 15  1  0
 12 16  2  0
 13 17  2  0
 13 18  1  0
 14 19  1  0
 15 19  1  0
 17 20  1  0
 18 21  2  0
 20 22  2  0
 21 22  1  0
M  END
