x0421_0_A-x0628_0_A
     RDKit          3D

 25 27  0  0  0  0  0  0  0  0999 V2000
   -3.9230   15.3720   -2.7860 N   0  0  0  0  0  0  0  0  0  0  0  0
   -3.0190   14.9870   -1.8460 C   0  0  0  0  0  0  0  0  0  0  0  0
   -1.8020   14.7240   -2.1530 N   0  0  0  0  0  0  0  0  0  0  0  0
   -3.6050   14.9290   -0.5180 C   0  0  0  0  0  0  0  0  0  0  0  0
   -1.3350   14.8280   -3.5380 C   0  0  0  0  0  0  0  0  0  0  0  0
   -2.9240   15.0230    0.6800 C   0  0  0  0  0  0  0  0  0  0  0  0
   -4.9610   14.7710   -0.2970 N   0  0  0  0  0  0  0  0  0  0  0  0
   -2.2140   13.9290   -4.4090 C   0  0  0  0  0  0  0  0  0  0  0  0
   -3.8840   14.9160    1.6420 N   0  0  0  0  0  0  0  0  0  0  0  0
   -5.0830   14.7650    1.0130 C   0  0  0  0  0  0  0  0  0  0  0  0
   -2.1440   12.4460   -4.0620 C   0  0  0  0  0  0  0  0  0  0  0  0
   -6.4260   14.6050    1.7630 C   0  0  0  0  0  0  0  0  0  0  0  0
   -7.7140   14.6540    0.9840 C   0  0  0  0  0  0  0  0  0  0  0  0
   -7.2380   13.3550    1.5670 C   0  0  0  0  0  0  0  0  0  0  0  0
   -1.4310   11.6240   -5.0810 C   0  0  0  0  0  0  0  0  0  0  0  0
   -1.8520   10.4790   -5.5810 N   0  0  0  0  0  0  0  0  0  0  0  0
   -0.2250   11.9410   -5.6560 N   0  0  0  0  0  0  0  0  0  0  0  0
    0.6400   13.0820   -5.4510 C   0  0  0  0  0  0  0  0  0  0  0  0
   -0.8650   10.1330   -6.4630 C   0  0  0  0  0  0  0  0  0  0  0  0
    0.1440   10.9980   -6.5420 N   0  0  0  0  0  0  0  0  0  0  0  0
   -0.9090    8.8990   -7.2660 C   0  0  0  0  0  0  0  0  0  0  0  0
    1.6570   12.9580   -4.3170 C   0  0  0  0  0  0  0  0  0  0  0  0
    1.1630   12.2750   -3.0670 C   0  0  0  0  0  0  0  0  0  0  0  0
    0.4650   11.2730   -3.0180 O   0  0  0  0  0  0  0  0  0  0  0  0
    1.5740   12.9090   -1.9580 O   0  0  0  0  0  0  0  0  0  0  0  0
  1  2  1  0
  2  3  2  3
  2  4  1  0
  3  5  1  0
  4  6  2  0
  4  7  1  0
  5  8  1  0
  6  9  1  0
  7 10  2  0
  9 10  1  0
  8 11  1  0
 10 12  1  0
 12 13  1  0
 12 14  1  0
 13 14  1  0
 11 15  1  0
 15 16  2  0
 15 17  1  0
 17 18  1  0
 16 19  1  0
 17 20  1  0
 19 20  2  0
 19 21  1  0
 18 22  1  0
 22 23  1  0
 23 24  2  0
 23 25  1  0
M  END
