x0421_0_A-x0290_0_A
     RDKit          3D

 22 25  0  0  0  0  0  0  0  0999 V2000
   -3.7250   15.0340   -3.4060 N   0  0  0  0  0  0  0  0  0  0  0  0
   -3.8630   14.6440   -2.0050 C   0  0  0  0  0  0  0  0  0  0  0  0
   -4.3530   15.8060   -1.1200 C   0  0  2  0  0  0  0  0  0  0  0  0
   -3.7250   15.8990    0.2390 C   0  0  0  0  0  0  0  0  0  0  0  0
   -5.7680   15.7410   -0.6730 N   0  0  0  0  0  0  0  0  0  0  0  0
   -4.2650   14.5880    0.4980 C   0  0  2  0  0  0  0  0  0  0  0  0
   -5.7420   14.6280    0.2750 C   0  0  1  0  0  0  0  0  0  0  0  0
   -6.4180   14.6500    1.6380 C   0  0  1  0  0  0  0  0  0  0  0  0
   -3.7830   13.9580    1.5760 N   0  0  0  0  0  0  0  0  0  0  0  0
   -7.9270   14.8260    1.6160 C   0  0  0  0  0  0  0  0  0  0  0  0
   -6.0450   13.2400    2.0590 C   0  0  0  0  0  0  0  0  0  0  0  0
   -4.7270   12.9850    1.3790 C   0  0  0  0  0  0  0  0  0  0  0  0
   -2.4530   14.0530    1.1080 C   0  0  0  0  0  0  0  0  0  0  0  0
   -8.6800   13.5210    1.9220 C   0  0  0  0  0  0  0  0  0  0  0  0
   -8.6330   14.7010    0.2530 C   0  0  0  0  0  0  0  0  0  0  0  0
   -4.6560   12.0750    0.5890 O   0  0  0  0  0  0  0  0  0  0  0  0
   -1.4510   14.3110    1.9360 N   0  0  0  0  0  0  0  0  0  0  0  0
   -2.2180   13.9080   -0.2600 C   0  0  0  0  0  0  0  0  0  0  0  0
   -8.5820   13.2440    0.4850 N   0  0  0  0  0  0  0  0  0  0  0  0
   -0.2190   14.4350    1.4180 C   0  0  0  0  0  0  0  0  0  0  0  0
   -0.9420   14.0410   -0.7820 C   0  0  0  0  0  0  0  0  0  0  0  0
    0.0860   14.3140    0.0790 C   0  0  0  0  0  0  0  0  0  0  0  0
  1  2  1  0
  3  2  1  1
  3  4  1  0
  3  5  1  0
  6  4  1  1
  7  5  1  6
  6  7  1  0
  7  8  1  0
  6  9  1  0
  8 10  1  6
  8 11  1  0
  9 12  1  0
 11 12  1  0
  9 13  1  0
 10 14  1  0
 10 15  1  0
 12 16  2  0
 13 17  2  0
 13 18  1  0
 14 19  1  0
 15 19  1  0
 17 20  1  0
 18 21  2  0
 20 22  2  0
 21 22  1  0
M  END
