x0421_0_A_α-x0962_3_A_α
     RDKit          3D

 23 25  0  0  0  0  0  0  0  0999 V2000
   -3.7530   15.2380   -3.0220 N   0  0  0  0  0  0  0  0  0  0  0  0
   -2.8670   14.9950   -2.0100 C   0  0  0  0  0  0  0  0  0  0  0  0
   -1.5860   14.8840   -2.0810 N   0  0  0  0  0  0  0  0  0  0  0  0
   -3.5020   14.8680   -0.6950 C   0  0  0  0  0  0  0  0  0  0  0  0
   -0.9230   15.0530   -3.3740 C   0  0  0  0  0  0  0  0  0  0  0  0
   -2.8620   14.7390    0.5250 C   0  0  0  0  0  0  0  0  0  0  0  0
   -4.8810   14.8610   -0.4980 N   0  0  0  0  0  0  0  0  0  0  0  0
   -0.7360   13.7140   -4.0640 C   0  0  0  0  0  0  0  0  0  0  0  0
   -3.8570   14.6500    1.4370 N   0  0  0  0  0  0  0  0  0  0  0  0
   -5.0460   14.7270    0.7950 C   0  0  0  0  0  0  0  0  0  0  0  0
    0.1660   13.7550   -5.2930 C   0  0  0  0  0  0  0  0  0  0  0  0
   -6.4040   14.6530    1.5390 C   0  0  0  0  0  0  0  0  0  0  0  0
   -0.0160   12.5270   -6.1680 C   0  0  0  0  0  0  0  0  0  0  0  0
   -7.6930   14.6870    0.7620 C   0  0  0  0  0  0  0  0  0  0  0  0
   -7.2400   13.4120    1.4100 C   0  0  0  0  0  0  0  0  0  0  0  0
    1.3060   11.8890   -6.5670 C   0  0  0  0  0  0  0  0  0  0  0  0
    1.3360   10.7610   -7.6380 C   0  0  2  0  0  0  0  0  0  0  0  0
    1.4800   11.2040   -8.9970 N   0  0  0  0  0  0  0  0  0  0  0  0
    0.1940    9.8260   -7.5790 C   0  0  0  0  0  0  0  0  0  0  0  0
    0.2140    8.6090   -8.2080 N   0  0  0  0  0  0  0  0  0  0  0  0
   -1.0420    9.8820   -6.9740 C   0  0  0  0  0  0  0  0  0  0  0  0
   -0.9790    7.9940   -7.9620 C   0  0  0  0  0  0  0  0  0  0  0  0
   -1.7610    8.7410   -7.2170 N   0  0  0  0  0  0  0  0  0  0  0  0
  1  2  1  0
  2  3  2  3
  2  4  1  0
  3  5  1  0
  4  6  2  0
  4  7  1  0
  5  8  1  0
  6  9  1  0
  7 10  2  0
  9 10  1  0
  8 11  1  0
 10 12  1  0
 11 13  1  0
 12 14  1  0
 12 15  1  0
 14 15  1  0
 13 16  1  0
 16 17  1  0
 17 18  1  6
 17 19  1  0
 19 20  1  0
 19 21  2  0
 20 22  1  0
 21 23  1  0
 22 23  2  0
M  END
