x0423_0_B-x0905_0_B
     RDKit          3D

 14 15  0  0  0  0  0  0  0  0999 V2000
   14.1270   26.1220   15.4630 N   0  0  0  0  0  0  0  0  0  0  0  0
   12.8980   26.8900   15.4160 C   0  0  0  0  0  0  0  0  0  0  0  0
   14.3560   25.3370   14.2340 C   0  0  2  0  0  0  0  0  0  0  0  0
   13.4250   24.0890   14.1180 C   0  0  0  0  0  0  0  0  0  0  0  0
   15.8080   24.8670   14.1260 C   0  0  0  0  0  0  0  0  0  0  0  0
   14.1290   22.9820   13.4540 N   0  0  0  0  0  0  0  0  0  0  0  0
   16.0850   24.2460   12.7590 C   0  0  0  0  0  0  0  0  0  0  0  0
   14.9480   23.3300   12.2980 C   0  0  0  0  0  0  0  0  0  0  0  0
   13.4740   21.7490   13.3460 C   0  0  0  0  0  0  0  0  0  0  0  0
   12.4110   21.4320   14.1780 C   0  0  0  0  0  0  0  0  0  0  0  0
   13.8790   20.8450   12.4290 N   0  0  0  0  0  0  0  0  0  0  0  0
   13.2660   19.6250   12.3030 N   0  0  0  0  0  0  0  0  0  0  0  0
   11.7860   20.2030   14.0620 C   0  0  0  0  0  0  0  0  0  0  0  0
   12.2400   19.3260   13.1130 C   0  0  0  0  0  0  0  0  0  0  0  0
  1  2  1  0
  3  1  1  1
  3  4  1  0
  3  5  1  0
  4  6  1  0
  5  7  1  0
  6  8  1  0
  7  8  1  0
  6  9  1  0
  9 10  2  0
  9 11  1  0
 11 12  2  0
 10 13  1  0
 12 14  1  0
 13 14  2  0
M  END
