x0423_0_B_α-x0142_0_A_β
     RDKit          3D

 28 30  0  0  0  0  0  0  0  0999 V2000
   14.2180   26.2590   15.1220 N   0  0  0  0  0  0  0  0  0  0  0  0
   12.9580   26.5740   15.7820 C   0  0  0  0  0  0  0  0  0  0  0  0
   14.3700   24.8090   14.8520 C   0  0  1  0  0  0  0  0  0  0  0  0
   13.3690   24.3430   13.7500 C   0  0  0  0  0  0  0  0  0  0  0  0
   15.8150   24.4450   14.4490 C   0  0  0  0  0  0  0  0  0  0  0  0
   13.8860   23.1950   12.9720 N   0  0  0  0  0  0  0  0  0  0  0  0
   16.0040   24.4610   12.9340 C   0  0  0  0  0  0  0  0  0  0  0  0
   15.1400   23.3990   12.2500 C   0  0  0  0  0  0  0  0  0  0  0  0
   13.3750   21.9120   13.2040 C   0  0  0  0  0  0  0  0  0  0  0  0
   12.3550   21.7000   14.1180 C   0  0  0  0  0  0  0  0  0  0  0  0
   13.8660   20.8430   12.5350 N   0  0  0  0  0  0  0  0  0  0  0  0
   13.3860   19.5630   12.7430 N   0  0  0  0  0  0  0  0  0  0  0  0
   11.8690   20.4210   14.3360 C   0  0  0  0  0  0  0  0  0  0  0  0
   12.3990   19.3710   13.6430 C   0  0  0  0  0  0  0  0  0  0  0  0
   11.8690   17.9950   13.8950 C   0  0  0  0  0  0  0  0  0  0  0  0
   12.9290   16.9840   14.3510 C   0  0  0  0  0  0  0  0  0  0  0  0
   12.3850   15.5540   14.4300 C   0  0  0  0  0  0  0  0  0  0  0  0
   13.3000   14.6440   15.2610 C   0  0  0  0  0  0  0  0  0  0  0  0
   13.6220   13.2800   14.6260 C   0  0  0  0  0  0  0  0  0  0  0  0
   14.7350   12.4910   15.3380 C   0  0  0  0  0  0  0  0  0  0  0  0
   15.6900   11.9740   14.4180 O   0  0  0  0  0  0  0  0  0  0  0  0
   15.4430   10.8160   13.7350 C   0  0  0  0  0  0  0  0  0  0  0  0
   14.8590    9.7950   14.4900 C   0  0  0  0  0  0  0  0  0  0  0  0
   15.7210   10.5860   12.3900 C   0  0  0  0  0  0  0  0  0  0  0  0
   14.5590    8.5580   13.9080 C   0  0  0  0  0  0  0  0  0  0  0  0
   15.4210    9.3470   11.8110 C   0  0  0  0  0  0  0  0  0  0  0  0
   14.8390    8.3230   12.5620 C   0  0  0  0  0  0  0  0  0  0  0  0
   14.5450    7.0890   11.9720 N   0  0  0  0  0  0  0  0  0  0  0  0
  1  2  1  0
  3  1  1  6
  3  4  1  0
  3  5  1  0
  4  6  1  0
  5  7  1  0
  6  8  1  0
  7  8  1  0
  6  9  1  0
  9 10  2  0
  9 11  1  0
 11 12  2  0
 10 13  1  0
 12 14  1  0
 13 14  2  0
 14 15  1  0
 15 16  1  0
 16 17  1  0
 17 18  1  0
 18 19  1  0
 19 20  1  0
 20 21  1  0
 21 22  1  0
 22 23  2  0
 22 24  1  0
 23 25  1  0
 24 26  2  0
 25 27  2  0
 26 27  1  0
 27 28  1  0
M  END
