x0423_0_B_α-x0729_0_A_α
     RDKit          3D

 30 32  0  0  0  0  0  0  0  0999 V2000
   14.2230   26.3230   15.1690 N   0  0  0  0  0  0  0  0  0  0  0  0
   12.8040   26.5200   15.4100 C   0  0  0  0  0  0  0  0  0  0  0  0
   14.5760   24.9600   14.7030 C   0  0  1  0  0  0  0  0  0  0  0  0
   13.4370   24.1650   13.9780 C   0  0  0  0  0  0  0  0  0  0  0  0
   15.8020   25.1620   13.7790 C   0  0  0  0  0  0  0  0  0  0  0  0
   13.9740   23.0370   13.2090 N   0  0  0  0  0  0  0  0  0  0  0  0
   16.2020   23.9490   12.9170 C   0  0  2  0  0  0  0  0  0  0  0  0
   17.3770   24.2420   11.9470 C   0  0  0  0  0  0  0  0  0  0  0  0
   14.9950   23.3100   12.2270 C   0  0  0  0  0  0  0  0  0  0  0  0
   13.3690   21.8020   13.2520 C   0  0  0  0  0  0  0  0  0  0  0  0
   17.3980   25.6510   11.3460 C   0  0  0  0  0  0  0  0  0  0  0  0
   12.3310   21.4580   14.1070 C   0  0  0  0  0  0  0  0  0  0  0  0
   13.8260   20.8580   12.3940 N   0  0  0  0  0  0  0  0  0  0  0  0
   18.8220   26.2000   11.2140 C   0  0  0  0  0  0  0  0  0  0  0  0
   13.3040   19.5910   12.3450 N   0  0  0  0  0  0  0  0  0  0  0  0
   11.7950   20.1740   14.0680 C   0  0  0  0  0  0  0  0  0  0  0  0
   19.5020   25.8740    9.8860 C   0  0  0  0  0  0  0  0  0  0  0  0
   12.3050   19.2700   13.1730 C   0  0  0  0  0  0  0  0  0  0  0  0
   19.3200   27.1220    8.6070 S   0  0  0  0  0  0  0  0  0  0  0  0
   18.1220   26.7780    7.8790 O   0  0  0  0  0  0  0  0  0  0  0  0
   19.4400   28.4250    9.2300 O   0  0  0  0  0  0  0  0  0  0  0  0
   20.7310   26.8630    7.6160 N   0  0  0  0  0  0  0  0  0  0  0  0
   21.8540   27.8140    7.9140 C   0  0  0  0  0  0  0  0  0  0  0  0
   20.6890   26.5420    6.1170 C   0  0  1  0  0  0  0  0  0  0  0  0
   19.7650   25.3980    5.7180 C   0  0  0  0  0  0  0  0  0  0  0  0
   21.8210   29.0580    7.0250 C   0  0  0  0  0  0  0  0  0  0  0  0
   20.4260   27.8410    5.3260 C   0  0  2  0  0  0  0  0  0  0  0  0
   20.2470   27.5960    3.8750 C   0  0  0  0  0  0  0  0  0  0  0  0
   21.6350   28.7480    5.5400 C   0  0  0  0  0  0  0  0  0  0  0  0
   20.1130   27.4000    2.7390 N   0  0  0  0  0  0  0  0  0  0  0  0
  1  2  1  0
  3  1  1  6
  3  4  1  0
  3  5  1  0
  4  6  1  0
  5  7  1  0
  7  8  1  6
  6  9  1  0
  7  9  1  0
  6 10  1  0
  8 11  1  0
 10 12  2  0
 10 13  1  0
 11 14  1  0
 13 15  2  0
 12 16  1  0
 14 17  1  0
 15 18  1  0
 16 18  2  0
 19 17  1  0
 19 20  2  0
 19 21  2  0
 19 22  1  0
 22 23  1  0
 22 24  1  0
 24 25  1  1
 23 26  1  0
 24 27  1  0
 27 28  1  6
 26 29  1  0
 27 29  1  0
 28 30  3  0
M  END
