x0421_0_A-x0465_0_A
     RDKit          3D

 26 28  0  0  0  0  0  0  0  0999 V2000
   -3.6760   15.1500   -2.8350 N   0  0  0  0  0  0  0  0  0  0  0  0
   -2.8400   14.9020   -1.7780 C   0  0  0  0  0  0  0  0  0  0  0  0
   -1.5870   14.7130   -2.0110 N   0  0  0  0  0  0  0  0  0  0  0  0
   -3.5110   14.8890   -0.4770 C   0  0  0  0  0  0  0  0  0  0  0  0
   -0.6030   14.4450   -0.9490 C   0  0  0  0  0  0  0  0  0  0  0  0
   -2.8900   15.0390    0.7540 C   0  0  0  0  0  0  0  0  0  0  0  0
   -4.8700   14.7180   -0.2840 N   0  0  0  0  0  0  0  0  0  0  0  0
    0.6990   13.8560   -1.5030 C   0  0  0  0  0  0  0  0  0  0  0  0
   -3.8810   14.9540    1.6780 N   0  0  0  0  0  0  0  0  0  0  0  0
   -5.0520   14.7610    1.0160 C   0  0  0  0  0  0  0  0  0  0  0  0
    0.5760   12.4230   -1.7570 N   0  0  0  0  0  0  0  0  0  0  0  0
   -6.4360   14.6060    1.7010 C   0  0  0  0  0  0  0  0  0  0  0  0
    0.6000   11.9090   -2.9400 C   0  0  0  0  0  0  0  0  0  0  0  0
   -7.7000   14.6390    0.8890 C   0  0  0  0  0  0  0  0  0  0  0  0
   -7.2340   13.3460    1.4990 C   0  0  0  0  0  0  0  0  0  0  0  0
    0.7430   12.4690   -4.3780 C   0  0  1  0  0  0  0  0  0  0  0  0
    0.4640   10.5670   -2.9090 O   0  0  0  0  0  0  0  0  0  0  0  0
    2.1120   13.1510   -4.5150 C   0  0  0  0  0  0  0  0  0  0  0  0
    0.6350   11.5000   -5.4200 O   0  0  0  0  0  0  0  0  0  0  0  0
   -0.5020   10.7740   -5.6710 C   0  0  0  0  0  0  0  0  0  0  0  0
   -0.6460    9.7280   -6.5880 C   0  0  0  0  0  0  0  0  0  0  0  0
   -1.6170   11.1450   -4.9120 C   0  0  0  0  0  0  0  0  0  0  0  0
    0.3690    9.3120   -7.3560 F   0  0  0  0  0  0  0  0  0  0  0  0
   -1.8630    9.0670   -6.7440 C   0  0  0  0  0  0  0  0  0  0  0  0
   -2.8420   10.4850   -5.0670 C   0  0  0  0  0  0  0  0  0  0  0  0
   -2.9630    9.4450   -5.9830 C   0  0  0  0  0  0  0  0  0  0  0  0
  1  2  1  0
  2  3  2  3
  2  4  1  0
  3  5  1  0
  4  6  2  0
  4  7  1  0
  5  8  1  0
  6  9  1  0
  7 10  2  0
  9 10  1  0
  8 11  1  0
 10 12  1  0
 11 13  2  3
 12 14  1  0
 12 15  1  0
 14 15  1  0
 13 16  1  0
 13 17  1  0
 16 18  1  1
 16 19  1  0
 19 20  1  0
 20 21  2  0
 20 22  1  0
 21 23  1  0
 21 24  1  0
 22 25  2  0
 24 26  2  0
 25 26  1  0
M  END
