x0423_0_B-x0158_0_B
     RDKit          3D

 30 32  0  0  0  0  0  0  0  0999 V2000
   13.3210   25.1160   16.2710 N   0  0  0  0  0  0  0  0  0  0  0  0
   12.9240   26.4960   16.0130 C   0  0  0  0  0  0  0  0  0  0  0  0
   14.0950   24.5650   15.1690 C   0  0  2  0  0  0  0  0  0  0  0  0
   13.2460   23.9550   14.0110 C   0  0  0  0  0  0  0  0  0  0  0  0
   15.3500   23.7460   15.5080 C   0  0  0  0  0  0  0  0  0  0  0  0
   13.8610   22.8720   13.2010 N   0  0  0  0  0  0  0  0  0  0  0  0
   16.0980   23.1050   14.3140 C   0  0  0  0  0  0  0  0  0  0  0  0
   15.3060   22.7830   13.0460 C   0  0  0  0  0  0  0  0  0  0  0  0
   13.1930   21.5910   13.2150 C   0  0  2  0  0  0  0  0  0  0  0  0
   12.5870   21.1600   14.5490 C   0  0  0  0  0  0  0  0  0  0  0  0
   14.0530   20.5390   12.6050 N   0  0  0  0  0  0  0  0  0  0  0  0
   13.6080   19.1900   12.9300 N   0  0  0  0  0  0  0  0  0  0  0  0
   11.7710   19.9880   14.2120 C   0  0  0  0  0  0  0  0  0  0  0  0
   14.5270   18.2960   13.6840 C   0  0  0  0  0  0  0  0  0  0  0  0
   12.3130   19.0930   13.4190 C   0  0  0  0  0  0  0  0  0  0  0  0
   15.9520   18.1850   13.1700 C   0  0  0  0  0  0  0  0  0  0  0  0
   16.0800   17.4840   11.8120 C   0  0  1  0  0  0  0  0  0  0  0  0
   17.5120   17.6240   11.2940 C   0  0  0  0  0  0  0  0  0  0  0  0
   15.7550   16.0560   11.8570 O   0  0  0  0  0  0  0  0  0  0  0  0
   15.8480   15.3300   13.0240 C   0  0  0  0  0  0  0  0  0  0  0  0
   15.9510   15.8170   14.1400 O   0  0  0  0  0  0  0  0  0  0  0  0
   15.8110   13.8210   12.7120 C   0  0  0  0  0  0  0  0  0  0  0  0
   14.5430   13.1410   13.0980 N   0  0  0  0  0  0  0  0  0  0  0  0
   14.2360   11.9090   12.3480 C   0  0  0  0  0  0  0  0  0  0  0  0
   13.3790   13.9870   13.2990 C   0  0  0  0  0  0  0  0  0  0  0  0
   13.2380   10.9470   13.0020 C   0  0  0  0  0  0  0  0  0  0  0  0
   12.5300   13.2700   14.3230 C   0  0  0  0  0  0  0  0  0  0  0  0
   11.8120   11.7840   13.6420 S   0  0  0  0  0  0  0  0  0  0  0  0
   11.3010   10.9840   14.7490 O   0  0  0  0  0  0  0  0  0  0  0  0
   10.9530   12.0970   12.5130 O   0  0  0  0  0  0  0  0  0  0  0  0
  1  2  1  0
  3  1  1  1
  3  4  1  0
  3  5  1  0
  4  6  1  0
  5  7  1  0
  6  8  1  0
  7  8  1  0
  9  6  1  1
  9 10  1  0
  9 11  1  0
 11 12  1  0
 10 13  1  0
 12 14  1  0
 12 15  1  0
 13 15  2  0
 14 16  1  0
 16 17  1  0
 17 18  1  1
 17 19  1  0
 19 20  1  0
 20 21  2  0
 20 22  1  0
 22 23  1  0
 23 24  1  0
 23 25  1  0
 24 26  1  0
 25 27  1  0
 28 26  1  0
 27 28  1  0
 28 29  2  0
 28 30  2  0
M  END
