x0421_0_A-x0852_0_B
     RDKit          3D

 20 22  0  0  0  0  0  0  0  0999 V2000
   -4.2150   15.2150   -2.8770 N   0  0  0  0  0  0  0  0  0  0  0  0
   -3.3380   15.0700   -1.8500 C   0  0  0  0  0  0  0  0  0  0  0  0
   -2.1260   14.9600   -2.0460 O   0  0  0  0  0  0  0  0  0  0  0  0
   -3.9510   15.0390   -0.5210 C   0  0  0  0  0  0  0  0  0  0  0  0
   -3.2550   15.2150    0.6490 C   0  0  0  0  0  0  0  0  0  0  0  0
   -5.3240   14.8140   -0.2410 N   0  0  0  0  0  0  0  0  0  0  0  0
   -4.1710   15.0880    1.6320 N   0  0  0  0  0  0  0  0  0  0  0  0
   -5.4010   14.8450    1.0850 C   0  0  0  0  0  0  0  0  0  0  0  0
   -6.5960   14.6180    2.0970 C   0  0  1  0  0  0  0  0  0  0  0  0
   -8.1430   14.7170    2.3850 C   0  0  1  0  0  0  0  0  0  0  0  0
   -7.5820   13.6110    1.5300 C   0  0  0  0  0  0  0  0  0  0  0  0
   -8.3250   14.3440    3.8430 C   0  0  0  0  0  0  0  0  0  0  0  0
   -9.3890   15.6430    2.1210 C   0  0  2  0  0  0  0  0  0  0  0  0
   -9.7640   16.5820    0.4290 Br  0  0  0  0  0  0  0  0  0  0  0  0
   -7.8690   15.5110    4.7040 C   0  0  2  0  0  0  0  0  0  0  0  0
   -9.8070   16.5560    3.3370 C   0  0  0  0  0  0  0  0  0  0  0  0
   -7.7020   15.0140    6.0200 O   0  0  0  0  0  0  0  0  0  0  0  0
   -8.8310   16.6970    4.5390 C   0  0  1  0  0  0  0  0  0  0  0  0
   -9.4610   17.0670    5.8250 C   0  0  0  0  0  0  0  0  0  0  0  0
   -9.8990   17.3920    6.8540 N   0  0  0  0  0  0  0  0  0  0  0  0
  1  2  1  0
  2  3  2  0
  2  4  1  0
  4  5  2  0
  4  6  1  0
  5  7  1  0
  6  8  2  0
  7  8  1  0
  9  8  1  6
  9 10  1  0
  9 11  1  0
 10 11  1  6
 10 12  1  0
 10 13  1  0
 13 14  1  6
 12 15  1  0
 13 16  1  0
 15 17  1  1
 15 18  1  0
 16 18  1  0
 18 19  1  1
 19 20  3  0
M  END
