x0421_0_A-x0128_0_A
     RDKit          3D

 21 23  0  0  0  0  0  0  0  0999 V2000
   -3.6110   15.4420   -2.5370 N   0  0  0  0  0  0  0  0  0  0  0  0
   -3.0150   15.1780   -1.3340 C   0  0  0  0  0  0  0  0  0  0  0  0
   -1.7980   15.0790   -1.2300 O   0  0  0  0  0  0  0  0  0  0  0  0
   -3.9710   14.9920   -0.2480 C   0  0  0  0  0  0  0  0  0  0  0  0
   -3.9400   15.3530    1.1080 C   0  0  0  0  0  0  0  0  0  0  0  0
   -5.1390   14.3470   -0.5260 N   0  0  0  0  0  0  0  0  0  0  0  0
   -5.1470   14.8900    1.6210 N   0  0  0  0  0  0  0  0  0  0  0  0
   -5.8050   14.2970    0.5890 C   0  0  0  0  0  0  0  0  0  0  0  0
   -5.6320   14.9850    2.9350 N   0  0  0  0  0  0  0  0  0  0  0  0
   -7.1730   13.6090    0.6100 C   0  0  0  0  0  0  0  0  0  0  0  0
   -7.0190   15.1890    3.2380 C   0  0  0  0  0  0  0  0  0  0  0  0
   -8.3960   14.3690    1.0190 C   0  0  0  0  0  0  0  0  0  0  0  0
   -7.8460   13.2720    1.9000 C   0  0  0  0  0  0  0  0  0  0  0  0
   -7.9010   15.3640    2.4100 O   0  0  0  0  0  0  0  0  0  0  0  0
   -7.2850   15.1930    4.6020 N   0  0  0  0  0  0  0  0  0  0  0  0
   -8.2340   16.0080    5.2980 C   0  0  0  0  0  0  0  0  0  0  0  0
   -8.9440   17.1020    4.7930 C   0  0  0  0  0  0  0  0  0  0  0  0
   -8.4810   15.6820    6.6360 C   0  0  0  0  0  0  0  0  0  0  0  0
   -9.8310   17.8440    5.5120 N   0  0  0  0  0  0  0  0  0  0  0  0
   -9.3880   16.4300    7.3920 C   0  0  0  0  0  0  0  0  0  0  0  0
  -10.0300   17.4930    6.7920 C   0  0  0  0  0  0  0  0  0  0  0  0
  1  2  1  0
  2  3  2  0
  2  4  1  0
  4  5  2  0
  4  6  1  0
  5  7  1  0
  6  8  2  0
  7  8  1  0
  7  9  1  0
  8 10  1  0
  9 11  1  0
 10 12  1  0
 10 13  1  0
 12 13  1  0
 11 14  2  0
 11 15  1  0
 15 16  1  0
 16 17  2  0
 16 18  1  0
 17 19  1  0
 18 20  2  0
 19 21  2  0
 20 21  1  0
M  END
