x0423_0_B_α-x0158_0_B_α
     RDKit          3D

 30 32  0  0  0  0  0  0  0  0999 V2000
   13.3170   25.1120   16.2670 N   0  0  0  0  0  0  0  0  0  0  0  0
   12.9030   26.4860   16.0000 C   0  0  0  0  0  0  0  0  0  0  0  0
   14.0870   24.5620   15.1670 C   0  0  2  0  0  0  0  0  0  0  0  0
   13.2440   23.9500   14.0060 C   0  0  0  0  0  0  0  0  0  0  0  0
   15.3480   23.7420   15.5080 C   0  0  0  0  0  0  0  0  0  0  0  0
   13.8600   22.8700   13.2000 N   0  0  0  0  0  0  0  0  0  0  0  0
   16.0940   23.1010   14.3170 C   0  0  0  0  0  0  0  0  0  0  0  0
   15.3080   22.7790   13.0460 C   0  0  0  0  0  0  0  0  0  0  0  0
   13.1930   21.5910   13.2150 C   0  0  2  0  0  0  0  0  0  0  0  0
   12.5800   21.1600   14.5480 C   0  0  0  0  0  0  0  0  0  0  0  0
   14.0510   20.5400   12.6060 N   0  0  0  0  0  0  0  0  0  0  0  0
   13.6100   19.1920   12.9320 N   0  0  0  0  0  0  0  0  0  0  0  0
   11.7720   19.9880   14.2050 C   0  0  0  0  0  0  0  0  0  0  0  0
   14.5290   18.2990   13.6870 C   0  0  0  0  0  0  0  0  0  0  0  0
   12.3120   19.0920   13.4180 C   0  0  0  0  0  0  0  0  0  0  0  0
   15.9540   18.1840   13.1710 C   0  0  0  0  0  0  0  0  0  0  0  0
   16.0760   17.4850   11.8130 C   0  0  1  0  0  0  0  0  0  0  0  0
   17.5070   17.6270   11.2940 C   0  0  0  0  0  0  0  0  0  0  0  0
   15.7550   16.0540   11.8560 O   0  0  0  0  0  0  0  0  0  0  0  0
   15.8490   15.3290   13.0240 C   0  0  0  0  0  0  0  0  0  0  0  0
   15.9530   15.8160   14.1390 O   0  0  0  0  0  0  0  0  0  0  0  0
   15.8100   13.8190   12.7110 C   0  0  0  0  0  0  0  0  0  0  0  0
   14.5410   13.1410   13.0960 N   0  0  0  0  0  0  0  0  0  0  0  0
   14.2340   11.9100   12.3470 C   0  0  0  0  0  0  0  0  0  0  0  0
   13.3780   13.9860   13.2980 C   0  0  0  0  0  0  0  0  0  0  0  0
   13.2350   10.9470   13.0020 C   0  0  0  0  0  0  0  0  0  0  0  0
   12.5300   13.2700   14.3260 C   0  0  0  0  0  0  0  0  0  0  0  0
   11.8120   11.7830   13.6440 S   0  0  0  0  0  0  0  0  0  0  0  0
   11.3030   10.9820   14.7490 O   0  0  0  0  0  0  0  0  0  0  0  0
   10.9510   12.0980   12.5180 O   0  0  0  0  0  0  0  0  0  0  0  0
  1  2  1  0
  3  1  1  1
  3  4  1  0
  3  5  1  0
  4  6  1  0
  5  7  1  0
  6  8  1  0
  7  8  1  0
  9  6  1  1
  9 10  1  0
  9 11  1  0
 11 12  1  0
 10 13  1  0
 12 14  1  0
 12 15  1  0
 13 15  2  0
 14 16  1  0
 16 17  1  0
 17 18  1  1
 17 19  1  0
 19 20  1  0
 20 21  2  0
 20 22  1  0
 22 23  1  0
 23 24  1  0
 23 25  1  0
 24 26  1  0
 25 27  1  0
 28 26  1  0
 27 28  1  0
 28 29  2  0
 28 30  2  0
M  END
