x0423_0_B_α-x0905_1_B_α
     RDKit          3D

 14 15  0  0  0  0  0  0  0  0999 V2000
   14.1250   26.1160   15.4640 N   0  0  0  0  0  0  0  0  0  0  0  0
   12.8970   26.8910   15.4220 C   0  0  0  0  0  0  0  0  0  0  0  0
   14.3560   25.3380   14.2370 C   0  0  2  0  0  0  0  0  0  0  0  0
   13.4230   24.0900   14.1140 C   0  0  0  0  0  0  0  0  0  0  0  0
   15.8100   24.8630   14.1290 C   0  0  0  0  0  0  0  0  0  0  0  0
   14.1290   22.9820   13.4550 N   0  0  0  0  0  0  0  0  0  0  0  0
   16.0910   24.2340   12.7650 C   0  0  0  0  0  0  0  0  0  0  0  0
   14.9550   23.3220   12.3040 C   0  0  0  0  0  0  0  0  0  0  0  0
   13.4740   21.7460   13.3580 C   0  0  0  0  0  0  0  0  0  0  0  0
   12.4110   21.4320   14.1940 C   0  0  0  0  0  0  0  0  0  0  0  0
   13.8800   20.8390   12.4430 N   0  0  0  0  0  0  0  0  0  0  0  0
   13.2700   19.6160   12.3240 N   0  0  0  0  0  0  0  0  0  0  0  0
   11.7890   20.1980   14.0830 C   0  0  0  0  0  0  0  0  0  0  0  0
   12.2450   19.3180   13.1380 C   0  0  0  0  0  0  0  0  0  0  0  0
  1  2  1  0
  3  1  1  1
  3  4  1  0
  3  5  1  0
  4  6  1  0
  5  7  1  0
  6  8  1  0
  7  8  1  0
  6  9  1  0
  9 10  2  0
  9 11  1  0
 11 12  2  0
 10 13  1  0
 12 14  1  0
 13 14  2  0
M  END
