x0421_0_A-x0592_0_A
     RDKit          3D

 21 23  0  0  0  0  0  0  0  0999 V2000
   -2.3910   15.0100   -2.6800 N   0  0  0  0  0  0  0  0  0  0  0  0
   -2.3250   13.8440   -1.8140 C   0  0  2  0  0  0  0  0  0  0  0  0
   -1.0490   13.2460   -2.0410 O   0  0  0  0  0  0  0  0  0  0  0  0
   -3.5040   12.7870   -2.1010 C   0  0  2  0  0  0  0  0  0  0  0  0
   -2.4520   14.2960   -0.3820 C   0  0  0  0  0  0  0  0  0  0  0  0
   -3.6130   12.4370   -3.5300 N   0  0  0  0  0  0  0  0  0  0  0  0
   -1.5920   14.6780    0.6470 C   0  0  0  0  0  0  0  0  0  0  0  0
   -3.7350   14.3400    0.0360 N   0  0  0  0  0  0  0  0  0  0  0  0
   -4.9200   13.1970   -1.6790 C   0  0  0  0  0  0  0  0  0  0  0  0
   -2.4290   14.9470    1.7110 N   0  0  0  0  0  0  0  0  0  0  0  0
   -3.7110   14.7170    1.2580 C   0  0  0  0  0  0  0  0  0  0  0  0
   -5.7050   14.2960   -2.1300 C   0  0  0  0  0  0  0  0  0  0  0  0
   -5.7560   12.5720   -0.7510 C   0  0  0  0  0  0  0  0  0  0  0  0
   -5.0680   14.8150    1.9500 C   0  0  0  0  0  0  0  0  0  0  0  0
   -6.9100   14.3500   -1.5470 N   0  0  0  0  0  0  0  0  0  0  0  0
   -6.9230   13.2920   -0.7070 N   0  0  0  0  0  0  0  0  0  0  0  0
   -8.1230   13.0530    0.1110 C   0  0  0  0  0  0  0  0  0  0  0  0
   -6.3200   14.7730    1.1210 C   0  0  0  0  0  0  0  0  0  0  0  0
   -5.8190   13.5260    1.7610 C   0  0  0  0  0  0  0  0  0  0  0  0
   -7.8520   12.4610    1.5030 C   0  0  0  0  0  0  0  0  0  0  0  0
   -7.9800   13.4470    2.5520 O   0  0  0  0  0  0  0  0  0  0  0  0
  2  1  1  6
  2  3  1  0
  2  4  1  0
  2  5  1  0
  4  6  1  6
  5  7  2  0
  5  8  1  0
  4  9  1  0
  7 10  1  0
  8 11  2  0
 10 11  1  0
  9 12  1  0
  9 13  2  0
 11 14  1  0
 12 15  2  0
 13 16  1  0
 15 16  1  0
 16 17  1  0
 14 18  1  0
 14 19  1  0
 18 19  1  0
 17 20  1  0
 20 21  1  0
M  END
