x0421_0_A-x0895_1_A
     RDKit          3D

 13 14  0  0  0  0  0  0  0  0999 V2000
   -3.7650   15.1370   -2.6990 N   0  0  0  0  0  0  0  0  0  0  0  0
   -2.9270   14.9210   -1.6470 C   0  0  0  0  0  0  0  0  0  0  0  0
   -1.7240   14.7650   -1.7680 O   0  0  0  0  0  0  0  0  0  0  0  0
   -3.5260   14.8690   -0.3080 C   0  0  0  0  0  0  0  0  0  0  0  0
   -2.9630   14.8600    1.0870 C   0  0  0  0  0  0  0  0  0  0  0  0
   -4.8090   14.7970   -0.0930 N   0  0  0  0  0  0  0  0  0  0  0  0
   -1.7730   14.8900    1.3650 O   0  0  0  0  0  0  0  0  0  0  0  0
   -5.7760   14.7640   -0.8910 O   0  0  0  0  0  0  0  0  0  0  0  0
   -3.9590   14.8030    2.0210 N   0  0  0  0  0  0  0  0  0  0  0  0
   -5.0360   14.7480    1.3360 C   0  0  0  0  0  0  0  0  0  0  0  0
   -6.3700   14.6370    1.9380 C   0  0  0  0  0  0  0  0  0  0  0  0
   -7.6160   14.6690    1.0800 C   0  0  0  0  0  0  0  0  0  0  0  0
   -7.1950   13.3900    1.7370 C   0  0  0  0  0  0  0  0  0  0  0  0
  1  2  1  0
  2  3  2  0
  2  4  1  0
  4  5  1  0
  4  6  2  0
  5  7  2  0
  6  8  1  0
  5  9  1  0
  6 10  1  0
  9 10  2  0
 10 11  1  0
 11 12  1  0
 11 13  1  0
 12 13  1  0
M  CHG  2   6   1   8  -1
M  END
