x0421_0_A_α-x0926_0_A_α
     RDKit          3D

 12 13  0  0  0  0  0  0  0  0999 V2000
   -3.8520   15.1830   -3.0130 N   0  0  0  0  0  0  0  0  0  0  0  0
   -3.0070   14.9830   -1.9610 C   0  0  0  0  0  0  0  0  0  0  0  0
   -1.8020   14.8980   -2.1570 O   0  0  0  0  0  0  0  0  0  0  0  0
   -3.6270   14.8790   -0.6730 C   0  0  0  0  0  0  0  0  0  0  0  0
   -3.0250   14.7850    0.5960 C   0  0  0  0  0  0  0  0  0  0  0  0
   -4.9700   14.8440   -0.4480 N   0  0  0  0  0  0  0  0  0  0  0  0
   -5.9970   14.8890   -1.1650 O   0  0  0  0  0  0  0  0  0  0  0  0
   -3.9660   14.6830    1.6020 N   0  0  0  0  0  0  0  0  0  0  0  0
   -5.1630   14.7160    0.9870 C   0  0  0  0  0  0  0  0  0  0  0  0
   -6.5260   14.6230    1.7200 C   0  0  0  0  0  0  0  0  0  0  0  0
   -7.8150   14.6490    0.9420 C   0  0  0  0  0  0  0  0  0  0  0  0
   -7.3400   13.3670    1.5710 C   0  0  0  0  0  0  0  0  0  0  0  0
  1  2  1  0
  2  3  2  0
  2  4  1  0
  4  5  2  0
  4  6  1  0
  6  7  1  0
  5  8  1  0
  6  9  2  0
  8  9  1  0
  9 10  1  0
 10 11  1  0
 10 12  1  0
 11 12  1  0
M  CHG  2   6   1   7  -1
M  END
