x0421_0_A-x0438_0_A
     RDKit          3D

 16 17  0  0  0  0  0  0  0  0999 V2000
   -3.7570   15.1780   -2.8530 N   0  0  0  0  0  0  0  0  0  0  0  0
   -2.8780   14.9640   -1.8320 C   0  0  0  0  0  0  0  0  0  0  0  0
   -1.6790   14.8100   -2.0310 O   0  0  0  0  0  0  0  0  0  0  0  0
   -3.5030   14.9350   -0.5130 C   0  0  0  0  0  0  0  0  0  0  0  0
   -2.8810   15.1190    0.7110 C   0  0  0  0  0  0  0  0  0  0  0  0
   -4.8560   14.7010   -0.3280 N   0  0  0  0  0  0  0  0  0  0  0  0
   -3.8680   14.9880    1.6430 N   0  0  0  0  0  0  0  0  0  0  0  0
   -5.0270   14.7370    0.9770 C   0  0  0  0  0  0  0  0  0  0  0  0
   -6.3810   14.5040    1.6930 C   0  0  1  0  0  0  0  0  0  0  0  0
   -7.6870   14.1710    0.9840 C   0  0  1  0  0  0  0  0  0  0  0  0
   -6.8180   13.0810    1.5440 C   0  0  0  0  0  0  0  0  0  0  0  0
   -9.0720   14.0550    1.5440 C   0  0  0  0  0  0  0  0  0  0  0  0
   -9.5210   15.4290    2.6040 S   0  0  0  0  0  0  0  0  0  0  0  0
   -8.2590   15.5720    3.8580 C   0  0  0  0  0  0  0  0  0  0  0  0
  -10.7560   15.0710    3.2770 O   0  0  0  0  0  0  0  0  0  0  0  0
   -9.4910   16.6100    1.7720 O   0  0  0  0  0  0  0  0  0  0  0  0
  1  2  1  0
  2  3  2  0
  2  4  1  0
  4  5  2  0
  4  6  1  0
  5  7  1  0
  6  8  2  0
  7  8  1  0
  9  8  1  6
  9 10  1  0
  9 11  1  0
 10 11  1  0
 10 12  1  1
 13 12  1  0
 13 14  1  0
 13 15  2  0
 13 16  2  0
M  END
