x0421_0_A-x0371_0_A
     RDKit          3D

 20 22  0  0  0  0  0  0  0  0999 V2000
   -3.7480   15.1720   -2.9710 N   0  0  0  0  0  0  0  0  0  0  0  0
   -2.8490   14.9520   -1.9720 C   0  0  0  0  0  0  0  0  0  0  0  0
   -1.6510   14.8100   -2.1860 O   0  0  0  0  0  0  0  0  0  0  0  0
   -3.4520   14.9000   -0.6470 C   0  0  0  0  0  0  0  0  0  0  0  0
   -2.7900   14.9980    0.5600 C   0  0  0  0  0  0  0  0  0  0  0  0
   -4.8130   14.7320   -0.4400 N   0  0  0  0  0  0  0  0  0  0  0  0
   -3.7590   14.8820    1.5010 N   0  0  0  0  0  0  0  0  0  0  0  0
   -4.9470   14.7230    0.8610 C   0  0  0  0  0  0  0  0  0  0  0  0
   -6.2870   14.5390    1.6000 C   0  0  1  0  0  0  0  0  0  0  0  0
   -7.5650   14.2520    0.8610 C   0  0  1  0  0  0  0  0  0  0  0  0
   -6.8360   13.1390    1.5500 C   0  0  0  0  0  0  0  0  0  0  0  0
   -8.8590   14.6600    1.4390 C   0  0  0  0  0  0  0  0  0  0  0  0
   -8.7270   14.6000    2.8670 N   0  0  0  0  0  0  0  0  0  0  0  0
   -9.0610   15.6850    3.6290 C   0  0  0  0  0  0  0  0  0  0  0  0
   -9.5820   16.6750    3.1350 O   0  0  0  0  0  0  0  0  0  0  0  0
   -8.7590   15.5620    5.0370 C   0  0  0  0  0  0  0  0  0  0  0  0
   -8.1300   14.4410    5.5050 O   0  0  0  0  0  0  0  0  0  0  0  0
   -9.0040   16.4220    6.0850 C   0  0  0  0  0  0  0  0  0  0  0  0
   -8.4990   15.7960    7.2500 C   0  0  0  0  0  0  0  0  0  0  0  0
   -7.9760   14.5950    6.8440 C   0  0  0  0  0  0  0  0  0  0  0  0
  1  2  1  0
  2  3  2  0
  2  4  1  0
  4  5  2  0
  4  6  1  0
  5  7  1  0
  6  8  2  0
  7  8  1  0
  9  8  1  6
  9 10  1  0
  9 11  1  0
 10 11  1  0
 10 12  1  1
 12 13  1  0
 13 14  1  0
 14 15  2  0
 14 16  1  0
 16 17  1  0
 16 18  2  0
 18 19  1  0
 17 20  1  0
 19 20  2  0
M  END
