x0421_0_A-x0950_1_A
     RDKit          3D

 19 20  0  0  0  0  0  0  0  0999 V2000
   -3.5630   15.0970   -2.7590 N   0  0  0  0  0  0  0  0  0  0  0  0
   -2.7740   14.8180   -1.6740 C   0  0  0  0  0  0  0  0  0  0  0  0
   -1.5220   14.5540   -1.7610 N   0  0  0  0  0  0  0  0  0  0  0  0
   -3.4970   14.8500   -0.4140 C   0  0  0  0  0  0  0  0  0  0  0  0
   -0.6770   14.4800   -2.9340 C   0  0  0  0  0  0  0  0  0  0  0  0
   -2.9490   15.0320    0.8360 C   0  0  0  0  0  0  0  0  0  0  0  0
   -4.8770   14.6830   -0.3110 N   0  0  0  0  0  0  0  0  0  0  0  0
    0.7860   14.5000   -2.4660 C   0  0  0  0  0  0  0  0  0  0  0  0
   -3.9880   14.9740    1.7040 N   0  0  0  0  0  0  0  0  0  0  0  0
   -5.1180   14.7600    0.9840 C   0  0  0  0  0  0  0  0  0  0  0  0
    1.2760   13.1550   -2.2440 O   0  0  0  0  0  0  0  0  0  0  0  0
   -6.5100   14.6260    1.6510 C   0  0  0  0  0  0  0  0  0  0  0  0
    0.9110   12.1990   -3.1380 C   0  0  0  0  0  0  0  0  0  0  0  0
   -7.7520   14.6850    0.8050 C   0  0  0  0  0  0  0  0  0  0  0  0
   -7.3130   13.3800    1.4070 C   0  0  0  0  0  0  0  0  0  0  0  0
    1.3720   12.5180   -4.5670 C   0  0  2  0  0  0  0  0  0  0  0  0
    0.3040   11.1740   -2.8460 O   0  0  0  0  0  0  0  0  0  0  0  0
    1.0970   13.9500   -4.9920 C   0  0  0  0  0  0  0  0  0  0  0  0
    0.7010   11.6630   -5.4990 O   0  0  0  0  0  0  0  0  0  0  0  0
  1  2  1  0
  2  3  2  3
  2  4  1  0
  3  5  1  0
  4  6  2  0
  4  7  1  0
  5  8  1  0
  6  9  1  0
  7 10  2  0
  9 10  1  0
  8 11  1  0
 10 12  1  0
 11 13  1  0
 12 14  1  0
 12 15  1  0
 14 15  1  0
 13 16  1  0
 13 17  2  0
 16 18  1  6
 16 19  1  0
M  END
