x0421_0_A-x0626_0_A
     RDKit          3D

 17 18  0  0  0  0  0  0  0  0999 V2000
   -2.6610   14.9540   -3.2190 N   0  0  0  0  0  0  0  0  0  0  0  0
   -2.2380   14.5900   -1.9720 C   0  0  0  0  0  0  0  0  0  0  0  0
   -1.0520   14.5510   -1.6740 O   0  0  0  0  0  0  0  0  0  0  0  0
   -3.3490   14.2750   -1.0800 C   0  0  0  0  0  0  0  0  0  0  0  0
   -3.5610   14.7230    0.2160 C   0  0  0  0  0  0  0  0  0  0  0  0
   -4.3870   13.4290   -1.4750 N   0  0  0  0  0  0  0  0  0  0  0  0
   -2.7880   15.5940    1.1070 C   0  0  0  0  0  0  0  0  0  0  0  0
   -4.7400   14.1590    0.5510 N   0  0  0  0  0  0  0  0  0  0  0  0
   -5.2100   13.3800   -0.4510 C   0  0  0  0  0  0  0  0  0  0  0  0
   -5.3890   14.3290    1.6970 N   0  0  0  0  0  0  0  0  0  0  0  0
   -6.5240   12.5330   -0.4310 C   0  0  0  0  0  0  0  0  0  0  0  0
   -6.6820   14.7050    1.5120 C   0  0  0  0  0  0  0  0  0  0  0  0
   -7.8540   13.0440    0.0750 C   0  0  0  0  0  0  0  0  0  0  0  0
   -7.0470   12.1020    0.9190 C   0  0  0  0  0  0  0  0  0  0  0  0
   -7.1250   15.0360    0.4140 O   0  0  0  0  0  0  0  0  0  0  0  0
   -7.5120   14.6870    2.7730 C   0  0  0  0  0  0  0  0  0  0  0  0
   -8.9000   15.2570    2.5340 C   0  0  0  0  0  0  0  0  0  0  0  0
  1  2  1  0
  2  3  2  0
  2  4  1  0
  4  5  2  0
  4  6  1  0
  5  7  1  0
  5  8  1  0
  6  9  2  0
  8  9  1  0
  8 10  1  0
  9 11  1  0
 10 12  1  0
 11 13  1  0
 11 14  1  0
 13 14  1  0
 12 15  2  0
 12 16  1  0
 16 17  1  0
M  END
