x0423_0_B_α-x0216_0_A_α
     RDKit          3D

 34 36  0  0  0  0  0  0  0  0999 V2000
   14.1680   26.1200   15.3890 N   0  0  0  0  0  0  0  0  0  0  0  0
   12.9230   26.8760   15.3260 C   0  0  0  0  0  0  0  0  0  0  0  0
   14.4260   25.3420   14.1600 C   0  0  2  0  0  0  0  0  0  0  0  0
   13.4670   24.1190   14.0690 C   0  0  0  0  0  0  0  0  0  0  0  0
   15.8960   24.8760   14.0990 C   0  0  0  0  0  0  0  0  0  0  0  0
   14.0590   23.0230   13.2900 N   0  0  0  0  0  0  0  0  0  0  0  0
   16.2470   24.1140   12.8130 C   0  0  2  0  0  0  0  0  0  0  0  0
   17.1500   24.8750   11.7970 C   0  0  0  0  0  0  0  0  0  0  0  0
   15.0280   23.3610   12.2570 C   0  0  0  0  0  0  0  0  0  0  0  0
   13.4360   21.7830   13.2760 C   0  0  0  0  0  0  0  0  0  0  0  0
   17.4590   24.2020   10.4570 C   0  0  0  0  0  0  0  0  0  0  0  0
   12.3900   21.4640   14.1290 C   0  0  0  0  0  0  0  0  0  0  0  0
   13.8690   20.8490   12.3990 N   0  0  0  0  0  0  0  0  0  0  0  0
   18.3660   25.0570    9.5600 C   0  0  0  0  0  0  0  0  0  0  0  0
   13.3010   19.6010   12.3330 N   0  0  0  0  0  0  0  0  0  0  0  0
   11.8110   20.2000   14.0730 C   0  0  0  0  0  0  0  0  0  0  0  0
   17.6390   26.3010    9.0670 C   0  0  0  0  0  0  0  0  0  0  0  0
   12.2930   19.3000   13.1630 C   0  0  0  0  0  0  0  0  0  0  0  0
   18.5080   27.5380    8.8270 C   0  0  0  0  0  0  0  0  0  0  0  0
   19.1410   27.3320    7.5360 N   0  0  0  0  0  0  0  0  0  0  0  0
   18.9530   28.0610    6.4860 C   0  0  0  0  0  0  0  0  0  0  0  0
   18.1700   29.1850    6.2840 N   0  0  0  0  0  0  0  0  0  0  0  0
   19.5960   27.7060    5.3230 N   0  0  0  0  0  0  0  0  0  0  0  0
   17.2080   29.7170    7.2570 C   0  0  0  0  0  0  0  0  0  0  0  0
   18.9460   27.9250    4.0310 C   0  0  0  0  0  0  0  0  0  0  0  0
   20.9790   27.2300    5.2050 C   0  0  1  0  0  0  0  0  0  0  0  0
   15.8040   29.2710    6.8590 C   0  0  0  0  0  0  0  0  0  0  0  0
   17.2660   31.2420    7.2650 C   0  0  0  0  0  0  0  0  0  0  0  0
   22.0300   27.8690    6.0980 C   0  0  0  0  0  0  0  0  0  0  0  0
   21.2520   25.7460    5.3350 C   0  0  0  0  0  0  0  0  0  0  0  0
   23.3190   27.3920    5.4370 C   0  0  0  0  0  0  0  0  0  0  0  0
   22.8870   25.8410    4.6560 S   0  0  0  0  0  0  0  0  0  0  0  0
   22.7390   26.1260    3.2680 O   0  0  0  0  0  0  0  0  0  0  0  0
   23.7460   24.7920    5.1430 O   0  0  0  0  0  0  0  0  0  0  0  0
  1  2  1  0
  3  1  1  1
  3  4  1  0
  3  5  1  0
  4  6  1  0
  5  7  1  0
  7  8  1  6
  6  9  1  0
  7  9  1  0
  6 10  1  0
  8 11  1  0
 10 12  2  0
 10 13  1  0
 11 14  1  0
 13 15  2  0
 12 16  1  0
 14 17  1  0
 15 18  1  0
 16 18  2  0
 17 19  1  0
 19 20  1  0
 20 21  2  3
 21 22  1  0
 21 23  1  0
 22 24  1  0
 23 25  1  0
 26 23  1  1
 24 27  1  0
 24 28  1  0
 26 29  1  0
 26 30  1  0
 29 31  1  0
 32 30  1  0
 31 32  1  0
 32 33  2  0
 32 34  2  0
M  END
