x0421_0_A_α-x0837_0_A_α
     RDKit          3D

 12 13  0  0  0  0  0  0  0  0999 V2000
   -3.9480   15.1470   -2.8300 N   0  0  0  0  0  0  0  0  0  0  0  0
   -3.1020   14.9570   -1.7770 C   0  0  0  0  0  0  0  0  0  0  0  0
   -1.9010   14.8240   -1.9940 O   0  0  0  0  0  0  0  0  0  0  0  0
   -3.7020   14.9250   -0.4730 C   0  0  0  0  0  0  0  0  0  0  0  0
   -3.0900   15.0270    0.8000 C   0  0  0  0  0  0  0  0  0  0  0  0
   -5.0380   14.7770   -0.2050 N   0  0  0  0  0  0  0  0  0  0  0  0
   -6.0960   14.6380   -0.8710 O   0  0  0  0  0  0  0  0  0  0  0  0
   -4.0030   14.9440    1.8440 N   0  0  0  0  0  0  0  0  0  0  0  0
   -5.1990   14.7860    1.2370 C   0  0  0  0  0  0  0  0  0  0  0  0
   -6.5580   14.6340    1.9570 C   0  0  0  0  0  0  0  0  0  0  0  0
   -7.8410   14.7020    1.1720 C   0  0  0  0  0  0  0  0  0  0  0  0
   -7.3600   13.3890    1.7190 C   0  0  0  0  0  0  0  0  0  0  0  0
  1  2  1  0
  2  3  2  0
  2  4  1  0
  4  5  2  0
  4  6  1  0
  6  7  1  0
  5  8  1  0
  6  9  2  0
  8  9  1  0
  9 10  1  0
 10 11  1  0
 10 12  1  0
 11 12  1  0
M  CHG  2   6   1   7  -1
M  END
