x0421_0_A-x0933_0_A
     RDKit          3D

 12 13  0  0  0  0  0  0  0  0999 V2000
   -3.5870   14.9230   -3.0510 N   0  0  0  0  0  0  0  0  0  0  0  0
   -2.8840   14.8220   -1.8820 C   0  0  0  0  0  0  0  0  0  0  0  0
   -1.6670   14.6560   -1.9220 O   0  0  0  0  0  0  0  0  0  0  0  0
   -3.6620   14.9320   -0.6480 C   0  0  0  0  0  0  0  0  0  0  0  0
   -3.2540   15.4340    0.5780 C   0  0  0  0  0  0  0  0  0  0  0  0
   -4.9940   14.5190   -0.5530 N   0  0  0  0  0  0  0  0  0  0  0  0
   -4.3380   15.3290    1.3640 N   0  0  0  0  0  0  0  0  0  0  0  0
   -5.3370   14.7840    0.6860 C   0  0  0  0  0  0  0  0  0  0  0  0
   -4.4730   15.7100    2.6930 N   0  0  0  0  0  0  0  0  0  0  0  0
   -6.7080   14.5350    1.3670 C   0  0  0  0  0  0  0  0  0  0  0  0
   -7.9690   14.6070    0.5580 C   0  0  0  0  0  0  0  0  0  0  0  0
   -7.4650   13.2790    1.0580 C   0  0  0  0  0  0  0  0  0  0  0  0
  1  2  1  0
  2  3  2  0
  2  4  1  0
  4  5  2  0
  4  6  1  0
  5  7  1  0
  6  8  2  0
  7  8  1  0
  7  9  1  0
  8 10  1  0
 10 11  1  0
 10 12  1  0
 11 12  1  0
M  END
