x0421_0_A_α-x0662_0_A_β
     RDKit          3D

 24 26  0  0  0  0  0  0  0  0999 V2000
   -3.7120   15.2460   -2.8530 N   0  0  0  0  0  0  0  0  0  0  0  0
   -2.8610   14.9190   -1.8270 C   0  0  0  0  0  0  0  0  0  0  0  0
   -1.6060   14.6410   -1.8690 N   0  0  0  0  0  0  0  0  0  0  0  0
   -3.5090   14.8990   -0.5070 C   0  0  0  0  0  0  0  0  0  0  0  0
   -0.9360   14.6610   -3.1740 C   0  0  0  0  0  0  0  0  0  0  0  0
   -2.8790   15.0290    0.7220 C   0  0  0  0  0  0  0  0  0  0  0  0
   -4.8730   14.7420   -0.3020 N   0  0  0  0  0  0  0  0  0  0  0  0
   -1.4560   13.5120   -4.0250 C   0  0  0  0  0  0  0  0  0  0  0  0
   -3.8660   14.9460    1.6550 N   0  0  0  0  0  0  0  0  0  0  0  0
   -5.0430   14.7710    0.9990 C   0  0  0  0  0  0  0  0  0  0  0  0
   -0.7230   12.1950   -3.7670 C   0  0  0  0  0  0  0  0  0  0  0  0
   -6.4220   14.6220    1.6950 C   0  0  0  0  0  0  0  0  0  0  0  0
   -0.8160   11.3570   -4.9490 N   0  0  0  0  0  0  0  0  0  0  0  0
   -7.7040   14.6510    0.9060 C   0  0  0  0  0  0  0  0  0  0  0  0
   -7.2130   13.3590    1.5010 C   0  0  0  0  0  0  0  0  0  0  0  0
    0.0720   11.3840   -5.8710 C   0  0  0  0  0  0  0  0  0  0  0  0
    1.1130   12.0660   -5.9270 O   0  0  0  0  0  0  0  0  0  0  0  0
   -0.0040   10.5560   -7.1090 C   0  0  0  0  0  0  0  0  0  0  0  0
    0.8170   10.8570   -8.1870 C   0  0  0  0  0  0  0  0  0  0  0  0
   -0.8980    9.4880   -7.1880 C   0  0  0  0  0  0  0  0  0  0  0  0
    0.7630   10.1110   -9.3640 C   0  0  0  0  0  0  0  0  0  0  0  0
   -0.9620    8.7310   -8.3570 C   0  0  0  0  0  0  0  0  0  0  0  0
    1.5930   10.4330  -10.4540 N   0  0  0  0  0  0  0  0  0  0  0  0
   -0.1340    9.0440   -9.4420 C   0  0  0  0  0  0  0  0  0  0  0  0
  1  2  1  0
  2  3  2  3
  2  4  1  0
  3  5  1  0
  4  6  2  0
  4  7  1  0
  5  8  1  0
  6  9  1  0
  7 10  2  0
  9 10  1  0
  8 11  1  0
 10 12  1  0
 11 13  1  0
 12 14  1  0
 12 15  1  0
 14 15  1  0
 13 16  2  3
 16 17  1  0
 16 18  1  0
 18 19  2  0
 18 20  1  0
 19 21  1  0
 20 22  2  0
 21 23  1  0
 21 24  2  0
 22 24  1  0
M  CHG  1  17  -1
M  END
