x0421_0_A-x0282_0_A
     RDKit          3D

 18 20  0  0  0  0  0  0  0  0999 V2000
   -4.3830   15.2680   -2.7700 N   0  0  0  0  0  0  0  0  0  0  0  0
   -3.3690   15.2160   -1.8550 C   0  0  0  0  0  0  0  0  0  0  0  0
   -2.2330   15.0240   -2.2840 O   0  0  0  0  0  0  0  0  0  0  0  0
   -3.7540   15.4010   -0.3610 C   0  0  2  0  0  0  0  0  0  0  0  0
   -2.8340   14.4530    0.4880 C   0  0  1  0  0  0  0  0  0  0  0  0
   -5.1710   15.0560    0.0380 N   0  0  0  0  0  0  0  0  0  0  0  0
   -6.2700   15.0140   -0.9140 C   0  0  0  0  0  0  0  0  0  0  0  0
   -3.7580   13.8030    1.4230 N   0  0  0  0  0  0  0  0  0  0  0  0
   -5.1340   13.9670    0.9550 C   0  0  1  0  0  0  0  0  0  0  0  0
   -2.3250   13.4580   -0.4540 N   0  0  0  0  0  0  0  0  0  0  0  0
   -1.7330   15.1520    1.1670 N   0  0  0  0  0  0  0  0  0  0  0  0
   -7.4850   14.5530   -0.3270 O   0  0  0  0  0  0  0  0  0  0  0  0
   -6.1700   14.2340    2.0120 C   0  0  0  0  0  0  0  0  0  0  0  0
   -0.9760   13.7830   -0.9520 C   0  0  0  0  0  0  0  0  0  0  0  0
   -0.4540   14.6240    1.1950 C   0  0  0  0  0  0  0  0  0  0  0  0
   -7.6020   14.6660    1.7600 C   0  0  0  0  0  0  0  0  0  0  0  0
   -7.3120   13.2780    2.2590 C   0  0  0  0  0  0  0  0  0  0  0  0
   -0.0330   13.9490    0.1510 C   0  0  0  0  0  0  0  0  0  0  0  0
  1  2  1  0
  2  3  2  0
  4  2  1  6
  4  5  1  0
  4  6  1  0
  6  7  1  0
  5  8  1  1
  6  9  1  0
  8  9  1  0
  5 10  1  0
  5 11  1  0
  7 12  1  0
  9 13  1  1
 10 14  1  0
 11 15  1  0
 13 16  1  0
 13 17  1  0
 16 17  1  0
 14 18  1  0
 15 18  2  0
M  END
