x0423_0_B_α-x0516_0_A_α
     RDKit          3D

 33 36  0  0  0  0  0  0  0  0999 V2000
   13.9460   26.3480   14.8630 N   0  0  0  0  0  0  0  0  0  0  0  0
   12.9930   26.7620   15.9020 C   0  0  0  0  0  0  0  0  0  0  0  0
   11.6610   25.9790   15.8680 C   0  0  0  0  0  0  0  0  0  0  0  0
   14.2290   24.9040   14.9090 C   0  0  1  0  0  0  0  0  0  0  0  0
   13.2810   24.0460   14.0320 C   0  0  0  0  0  0  0  0  0  0  0  0
   15.7080   24.6420   14.5180 C   0  0  0  0  0  0  0  0  0  0  0  0
   11.3200   25.1550   17.1260 C   0  0  0  0  0  0  0  0  0  0  0  0
   14.0910   22.9680   13.4740 N   0  0  0  0  0  0  0  0  0  0  0  0
   15.9180   24.4720   13.0090 C   0  0  0  0  0  0  0  0  0  0  0  0
    9.9800   25.4590   17.8280 C   0  0  0  0  0  0  0  0  0  0  0  0
   14.9970   23.4010   12.4130 C   0  0  0  0  0  0  0  0  0  0  0  0
   13.4860   21.7110   13.3100 C   0  0  0  0  0  0  0  0  0  0  0  0
    8.7720   25.2890   16.9110 C   0  0  0  0  0  0  0  0  0  0  0  0
   12.4120   21.3400   14.1110 C   0  0  0  0  0  0  0  0  0  0  0  0
   13.9350   20.8380   12.3820 N   0  0  0  0  0  0  0  0  0  0  0  0
    7.4810   25.8940   17.4590 C   0  0  0  0  0  0  0  0  0  0  0  0
   13.3590   19.6030   12.2190 N   0  0  0  0  0  0  0  0  0  0  0  0
   11.8270   20.0960   13.9550 C   0  0  0  0  0  0  0  0  0  0  0  0
    6.1870   25.2290   16.9660 C   0  0  2  0  0  0  0  0  0  0  0  0
   12.3240   19.2550   13.0020 C   0  0  0  0  0  0  0  0  0  0  0  0
    6.4710   24.0630   16.2390 O   0  0  0  0  0  0  0  0  0  0  0  0
    5.2740   26.0170   16.0760 C   0  0  0  0  0  0  0  0  0  0  0  0
    3.8860   25.8030   16.4020 N   0  0  0  0  0  0  0  0  0  0  0  0
    3.1000   26.6240   15.5340 C   0  0  0  0  0  0  0  0  0  0  0  0
    1.6430   26.4040   15.7540 C   0  0  0  0  0  0  0  0  0  0  0  0
    0.9360   25.6930   14.7960 C   0  0  0  0  0  0  0  0  0  0  0  0
    0.9910   26.9070   16.8980 C   0  0  0  0  0  0  0  0  0  0  0  0
   -0.4020   25.5080   14.9900 C   0  0  0  0  0  0  0  0  0  0  0  0
   -0.3790   26.7010   17.0770 C   0  0  0  0  0  0  0  0  0  0  0  0
   -1.0450   26.0000   16.0990 C   0  0  0  0  0  0  0  0  0  0  0  0
   -1.2460   24.8530   14.1650 O   0  0  0  0  0  0  0  0  0  0  0  0
   -2.3700   25.7030   16.0810 O   0  0  0  0  0  0  0  0  0  0  0  0
   -2.4930   25.3400   14.6890 C   0  0  0  0  0  0  0  0  0  0  0  0
  1  2  1  0
  2  3  1  0
  4  1  1  6
  4  5  1  0
  4  6  1  0
  3  7  1  0
  5  8  1  0
  6  9  1  0
  7 10  1  0
  8 11  1  0
  9 11  1  0
  8 12  1  0
 10 13  1  0
 12 14  2  0
 12 15  1  0
 13 16  1  0
 15 17  2  0
 14 18  1  0
 16 19  1  0
 17 20  1  0
 18 20  2  0
 19 21  1  6
 19 22  1  0
 22 23  1  0
 23 24  1  0
 24 25  1  0
 25 26  2  0
 25 27  1  0
 26 28  1  0
 27 29  2  0
 28 30  2  0
 29 30  1  0
 28 31  1  0
 30 32  1  0
 31 33  1  0
 32 33  1  0
M  END
