x0421_0_A_α-x0910_1_A_α
     RDKit          3D

 12 13  0  0  0  0  0  0  0  0999 V2000
   -3.7410   15.0350   -3.0090 N   0  0  0  0  0  0  0  0  0  0  0  0
   -3.0050   14.8970   -1.8740 C   0  0  0  0  0  0  0  0  0  0  0  0
   -1.7840   14.7600   -1.9620 O   0  0  0  0  0  0  0  0  0  0  0  0
   -3.7180   14.9200   -0.6290 C   0  0  0  0  0  0  0  0  0  0  0  0
   -3.2800   15.1480    0.6690 C   0  0  0  0  0  0  0  0  0  0  0  0
   -5.0700   14.7080   -0.4560 N   0  0  0  0  0  0  0  0  0  0  0  0
   -6.1200   14.4210   -1.3680 N   0  0  0  0  0  0  0  0  0  0  0  0
   -4.3100   15.0800    1.5710 N   0  0  0  0  0  0  0  0  0  0  0  0
   -5.3650   14.8120    0.8360 C   0  0  0  0  0  0  0  0  0  0  0  0
   -6.8480   14.6130    1.2430 C   0  0  0  0  0  0  0  0  0  0  0  0
   -7.3270   14.7880    2.6390 C   0  0  0  0  0  0  0  0  0  0  0  0
   -7.2430   13.4120    2.0410 C   0  0  0  0  0  0  0  0  0  0  0  0
  1  2  1  0
  2  3  2  0
  2  4  1  0
  4  5  2  0
  4  6  1  0
  6  7  1  0
  5  8  1  0
  6  9  1  0
  8  9  2  0
  9 10  1  0
 10 11  1  0
 10 12  1  0
 11 12  1  0
M  END
