x0423_0_B-x0729_1_B
     RDKit          3D

 30 32  0  0  0  0  0  0  0  0999 V2000
   14.4950   25.8450   15.8000 N   0  0  0  0  0  0  0  0  0  0  0  0
   13.4050   26.8110   15.7380 C   0  0  0  0  0  0  0  0  0  0  0  0
   14.6060   25.1030   14.5460 C   0  0  2  0  0  0  0  0  0  0  0  0
   13.7450   23.8220   14.4550 C   0  0  0  0  0  0  0  0  0  0  0  0
   16.0590   24.7230   14.2260 C   0  0  0  0  0  0  0  0  0  0  0  0
   13.8890   23.1630   13.1320 N   0  0  0  0  0  0  0  0  0  0  0  0
   15.9690   24.5610   12.7280 C   0  0  1  0  0  0  0  0  0  0  0  0
   17.2180   24.8580   11.8300 C   0  0  0  0  0  0  0  0  0  0  0  0
   15.1750   23.2800   12.3740 C   0  0  0  0  0  0  0  0  0  0  0  0
   13.3910   21.8350   13.1320 C   0  0  0  0  0  0  0  0  0  0  0  0
   17.1960   24.2520   10.4000 C   0  0  0  0  0  0  0  0  0  0  0  0
   12.3410   21.4880   13.9860 C   0  0  0  0  0  0  0  0  0  0  0  0
   13.9090   20.8900   12.3210 N   0  0  0  0  0  0  0  0  0  0  0  0
   17.6630   25.1300    9.2080 C   0  0  0  0  0  0  0  0  0  0  0  0
   13.4310   19.6010   12.3160 N   0  0  0  0  0  0  0  0  0  0  0  0
   11.8510   20.1860   13.9860 C   0  0  0  0  0  0  0  0  0  0  0  0
   18.4680   26.2900    9.6290 N   0  0  0  0  0  0  0  0  0  0  0  0
   12.4200   19.2730   13.1390 C   0  0  0  0  0  0  0  0  0  0  0  0
   18.9790   27.3820    8.6550 S   0  0  2  0  0  0  0  0  0  0  0  0
   19.4960   28.6260    9.1830 O   0  0  0  0  0  0  0  0  0  0  0  0
   17.7190   27.9030    7.5220 C   0  0  0  0  0  0  0  0  0  0  0  0
   20.4100   26.7260    7.8370 N   0  0  0  0  0  0  0  0  0  0  0  0
   21.6600   27.4450    8.1540 C   0  0  0  0  0  0  0  0  0  0  0  0
   20.5790   26.0180    6.5150 C   0  0  1  0  0  0  0  0  0  0  0  0
   19.5860   24.9480    6.0860 C   0  0  0  0  0  0  0  0  0  0  0  0
   22.2950   28.2000    6.9870 C   0  0  0  0  0  0  0  0  0  0  0  0
   21.0020   26.9010    5.2960 C   0  0  1  0  0  0  0  0  0  0  0  0
   20.0930   26.9520    4.1290 C   0  0  0  0  0  0  0  0  0  0  0  0
   21.3820   28.2910    5.7730 C   0  0  0  0  0  0  0  0  0  0  0  0
   19.4590   27.0100    3.1580 N   0  0  0  0  0  0  0  0  0  0  0  0
  1  2  1  0
  3  1  1  1
  3  4  1  0
  3  5  1  0
  4  6  1  0
  5  7  1  0
  7  8  1  1
  6  9  1  0
  7  9  1  0
  6 10  1  0
  8 11  1  0
 10 12  2  0
 10 13  1  0
 11 14  1  0
 13 15  2  0
 12 16  1  0
 14 17  1  0
 15 18  1  0
 16 18  2  0
 17 19  2  0
 19 20  2  0
 19 21  1  6
 19 22  1  0
 22 23  1  0
 22 24  1  0
 24 25  1  6
 23 26  1  0
 24 27  1  0
 27 28  1  6
 26 29  1  0
 27 29  1  0
 28 30  3  0
M  END
