x0421_0_A-x0626_0_A
     RDKit          3D

 17 18  0  0  0  0  0  0  0  0999 V2000
   -2.7870   14.9860   -3.3390 N   0  0  0  0  0  0  0  0  0  0  0  0
   -2.2540   14.6550   -2.1230 C   0  0  0  0  0  0  0  0  0  0  0  0
   -1.0500   14.5760   -1.9360 O   0  0  0  0  0  0  0  0  0  0  0  0
   -3.2850   14.4260   -1.1270 C   0  0  0  0  0  0  0  0  0  0  0  0
   -3.2700   14.7200    0.2320 C   0  0  0  0  0  0  0  0  0  0  0  0
   -4.4840   13.8400   -1.4960 N   0  0  0  0  0  0  0  0  0  0  0  0
   -2.2300   15.3200    1.0830 C   0  0  0  0  0  0  0  0  0  0  0  0
   -4.5100   14.3170    0.6280 N   0  0  0  0  0  0  0  0  0  0  0  0
   -5.1970   13.7820   -0.4110 C   0  0  0  0  0  0  0  0  0  0  0  0
   -5.0730   14.3980    1.8210 N   0  0  0  0  0  0  0  0  0  0  0  0
   -6.6370   13.1620   -0.3990 C   0  0  0  0  0  0  0  0  0  0  0  0
   -6.3660   14.7620    1.6050 C   0  0  0  0  0  0  0  0  0  0  0  0
   -7.8310   13.8430    0.2240 C   0  0  0  0  0  0  0  0  0  0  0  0
   -7.1990   12.6560    0.9050 C   0  0  0  0  0  0  0  0  0  0  0  0
   -6.7410   15.1130    0.4880 O   0  0  0  0  0  0  0  0  0  0  0  0
   -7.3020   14.6940    2.7940 C   0  0  0  0  0  0  0  0  0  0  0  0
   -8.7260   15.0840    2.4240 C   0  0  0  0  0  0  0  0  0  0  0  0
  1  2  1  0
  2  3  2  0
  2  4  1  0
  4  5  2  0
  4  6  1  0
  5  7  1  0
  5  8  1  0
  6  9  2  0
  8  9  1  0
  8 10  1  0
  9 11  1  0
 10 12  1  0
 11 13  1  0
 11 14  1  0
 13 14  1  0
 12 15  2  0
 12 16  1  0
 16 17  1  0
M  END
