x0421_0_A-x0465_0_A
     RDKit          3D

 26 28  0  0  0  0  0  0  0  0999 V2000
   -3.6780   15.1500   -2.8300 N   0  0  0  0  0  0  0  0  0  0  0  0
   -2.8380   14.9030   -1.7770 C   0  0  0  0  0  0  0  0  0  0  0  0
   -1.5840   14.7150   -2.0120 N   0  0  0  0  0  0  0  0  0  0  0  0
   -3.5090   14.8900   -0.4760 C   0  0  0  0  0  0  0  0  0  0  0  0
   -0.6000   14.4470   -0.9550 C   0  0  0  0  0  0  0  0  0  0  0  0
   -2.8900   15.0380    0.7580 C   0  0  0  0  0  0  0  0  0  0  0  0
   -4.8700   14.7210   -0.2830 N   0  0  0  0  0  0  0  0  0  0  0  0
    0.7030   13.8540   -1.5060 C   0  0  0  0  0  0  0  0  0  0  0  0
   -3.8840   14.9530    1.6800 N   0  0  0  0  0  0  0  0  0  0  0  0
   -5.0530   14.7610    1.0180 C   0  0  0  0  0  0  0  0  0  0  0  0
    0.5810   12.4250   -1.7590 N   0  0  0  0  0  0  0  0  0  0  0  0
   -6.4360   14.6040    1.7010 C   0  0  0  0  0  0  0  0  0  0  0  0
    0.6010   11.9110   -2.9440 C   0  0  0  0  0  0  0  0  0  0  0  0
   -7.7010   14.6390    0.8880 C   0  0  0  0  0  0  0  0  0  0  0  0
   -7.2350   13.3490    1.5020 C   0  0  0  0  0  0  0  0  0  0  0  0
    0.7420   12.4740   -4.3800 C   0  0  1  0  0  0  0  0  0  0  0  0
    0.4610   10.5680   -2.9120 O   0  0  0  0  0  0  0  0  0  0  0  0
    2.1120   13.1540   -4.5190 C   0  0  0  0  0  0  0  0  0  0  0  0
    0.6340   11.5050   -5.4240 O   0  0  0  0  0  0  0  0  0  0  0  0
   -0.5040   10.7780   -5.6750 C   0  0  0  0  0  0  0  0  0  0  0  0
   -0.6460    9.7340   -6.5910 C   0  0  0  0  0  0  0  0  0  0  0  0
   -1.6210   11.1490   -4.9120 C   0  0  0  0  0  0  0  0  0  0  0  0
    0.3680    9.3180   -7.3620 F   0  0  0  0  0  0  0  0  0  0  0  0
   -1.8620    9.0710   -6.7470 C   0  0  0  0  0  0  0  0  0  0  0  0
   -2.8420   10.4850   -5.0680 C   0  0  0  0  0  0  0  0  0  0  0  0
   -2.9640    9.4440   -5.9850 C   0  0  0  0  0  0  0  0  0  0  0  0
  1  2  1  0
  2  3  2  3
  2  4  1  0
  3  5  1  0
  4  6  2  0
  4  7  1  0
  5  8  1  0
  6  9  1  0
  7 10  2  0
  9 10  1  0
  8 11  1  0
 10 12  1  0
 11 13  2  3
 12 14  1  0
 12 15  1  0
 14 15  1  0
 13 16  1  0
 13 17  1  0
 16 18  1  1
 16 19  1  0
 19 20  1  0
 20 21  2  0
 20 22  1  0
 21 23  1  0
 21 24  1  0
 22 25  2  0
 24 26  2  0
 25 26  1  0
M  END
