x0421_0_A_α-x0591_0_A_α
     RDKit          3D

 25 27  0  0  0  0  0  0  0  0999 V2000
   -3.8650   15.6670   -2.4150 N   0  0  0  0  0  0  0  0  0  0  0  0
   -3.0800   15.1090   -1.4620 C   0  0  0  0  0  0  0  0  0  0  0  0
   -1.9160   14.7660   -1.6730 O   0  0  0  0  0  0  0  0  0  0  0  0
   -3.7350   14.9650   -0.1760 C   0  0  0  0  0  0  0  0  0  0  0  0
   -3.3290   15.5640    0.9830 C   0  0  0  0  0  0  0  0  0  0  0  0
   -4.8680   14.1890    0.0480 N   0  0  0  0  0  0  0  0  0  0  0  0
   -4.2130   15.1460    1.9220 N   0  0  0  0  0  0  0  0  0  0  0  0
   -5.1210   14.3210    1.3280 C   0  0  0  0  0  0  0  0  0  0  0  0
   -6.2740   13.6480    2.1350 C   0  0  1  0  0  0  0  0  0  0  0  0
   -7.2740   14.3360    3.0120 C   0  0  0  0  0  0  0  0  0  0  0  0
   -7.7190   13.8310    1.6760 C   0  0  1  0  0  0  0  0  0  0  0  0
   -8.0320   14.6600    0.4840 C   0  0  0  0  0  0  0  0  0  0  0  0
   -6.8600   14.6740   -0.3570 N   0  0  0  0  0  0  0  0  0  0  0  0
   -6.8280   13.7370   -1.3610 C   0  0  0  0  0  0  0  0  0  0  0  0
   -7.6920   12.8750   -1.4830 O   0  0  0  0  0  0  0  0  0  0  0  0
   -5.7080   13.7920   -2.3450 C   0  0  0  0  0  0  0  0  0  0  0  0
   -4.4660   13.1480   -2.1410 C   0  0  0  0  0  0  0  0  0  0  0  0
   -5.9200   14.5150   -3.5150 C   0  0  0  0  0  0  0  0  0  0  0  0
   -3.4570   13.2420   -3.1150 C   0  0  0  0  0  0  0  0  0  0  0  0
   -4.9220   14.6080   -4.4840 C   0  0  0  0  0  0  0  0  0  0  0  0
   -3.6990   13.9740   -4.2790 C   0  0  0  0  0  0  0  0  0  0  0  0
   -2.4650   14.1170   -5.5390 S   0  0  0  0  0  0  0  0  0  0  0  0
   -1.2870   15.1200   -4.8890 N   0  0  0  0  0  0  0  0  0  0  0  0
   -1.8280   12.8310   -5.7090 O   0  0  0  0  0  0  0  0  0  0  0  0
   -3.1100   14.8120   -6.6270 O   0  0  0  0  0  0  0  0  0  0  0  0
  1  2  1  0
  2  3  2  0
  2  4  1  0
  4  5  2  0
  4  6  1  0
  5  7  1  0
  6  8  2  0
  7  8  1  0
  9  8  1  6
  9 10  1  0
  9 11  1  0
 10 11  1  0
 11 12  1  6
 12 13  1  0
 13 14  1  0
 14 15  2  0
 14 16  1  0
 16 17  2  0
 16 18  1  0
 17 19  1  0
 18 20  2  0
 19 21  2  0
 20 21  1  0
 21 22  1  0
 22 23  1  0
 22 24  2  0
 22 25  2  0
M  END
