x0421_0_A-x0711_0_A
     RDKit          3D

 18 19  0  0  0  0  0  0  0  0999 V2000
   -3.7100   15.1230   -3.0160 N   0  0  0  0  0  0  0  0  0  0  0  0
   -3.0390   14.7890   -1.8690 C   0  0  0  0  0  0  0  0  0  0  0  0
   -1.8090   14.3630   -1.7690 N   0  0  0  0  0  0  0  0  0  0  0  0
   -3.6790   14.8720   -0.5600 C   0  0  0  0  0  0  0  0  0  0  0  0
   -0.7270   14.0910   -2.9560 S   0  0  0  0  0  0  0  0  0  0  0  0
   -2.9880   15.1600    0.6020 C   0  0  0  0  0  0  0  0  0  0  0  0
   -5.0200   14.6980   -0.1120 N   0  0  0  0  0  0  0  0  0  0  0  0
   -6.2720   14.3930   -0.6470 C   0  0  0  0  0  0  0  0  0  0  0  0
   -1.6350   13.0490   -4.0680 C   0  0  0  0  0  0  0  0  0  0  0  0
   -0.3800   15.3070   -3.6630 O   0  0  0  0  0  0  0  0  0  0  0  0
    0.3290   13.2860   -2.3720 O   0  0  0  0  0  0  0  0  0  0  0  0
   -3.7920   15.1740    1.6850 N   0  0  0  0  0  0  0  0  0  0  0  0
   -4.9880   14.8920    1.2400 C   0  0  0  0  0  0  0  0  0  0  0  0
   -6.7880   13.2350   -0.1830 N   0  0  0  0  0  0  0  0  0  0  0  0
   -6.8800   15.1070   -1.4120 O   0  0  0  0  0  0  0  0  0  0  0  0
   -6.2480   14.7870    2.1770 C   0  0  0  0  0  0  0  0  0  0  0  0
   -7.6480   14.7840    1.5950 C   0  0  0  0  0  0  0  0  0  0  0  0
   -7.0760   13.5230    2.1590 C   0  0  0  0  0  0  0  0  0  0  0  0
  1  2  1  0
  2  3  2  3
  2  4  1  0
  5  3  1  0
  4  6  2  0
  4  7  1  0
  7  8  1  0
  5  9  1  0
  5 10  2  0
  5 11  2  0
  6 12  1  0
  7 13  1  0
 12 13  2  0
  8 14  1  0
  8 15  2  0
 13 16  1  0
 16 17  1  0
 16 18  1  0
 17 18  1  0
M  END
