x0421_0_A-x0864_0_A
     RDKit          3D

 25 27  0  0  0  0  0  0  0  0999 V2000
   -3.6650   15.1160   -2.9430 N   0  0  0  0  0  0  0  0  0  0  0  0
   -2.7050   14.9900   -1.9690 C   0  0  0  0  0  0  0  0  0  0  0  0
   -1.4120   14.9300   -2.1620 N   0  0  0  0  0  0  0  0  0  0  0  0
   -3.3110   14.9240   -0.6250 C   0  0  0  0  0  0  0  0  0  0  0  0
   -0.3310   14.8060   -1.1580 C   0  0  0  0  0  0  0  0  0  0  0  0
   -2.6910   14.9360    0.6130 C   0  0  0  0  0  0  0  0  0  0  0  0
   -4.6890   14.8310   -0.4440 N   0  0  0  0  0  0  0  0  0  0  0  0
    0.9350   14.2420   -1.8390 C   0  0  0  0  0  0  0  0  0  0  0  0
   -3.7050   14.8440    1.5180 N   0  0  0  0  0  0  0  0  0  0  0  0
   -4.8830   14.7810    0.8510 C   0  0  0  0  0  0  0  0  0  0  0  0
    0.8510   12.7860   -1.9870 N   0  0  0  0  0  0  0  0  0  0  0  0
   -6.2650   14.6630    1.5530 C   0  0  0  0  0  0  0  0  0  0  0  0
    0.6280   12.2430   -3.1320 C   0  0  0  0  0  0  0  0  0  0  0  0
   -7.5330   14.6650    0.7360 C   0  0  0  0  0  0  0  0  0  0  0  0
   -7.0630   13.3980    1.3890 C   0  0  0  0  0  0  0  0  0  0  0  0
    0.4150   12.8290   -4.5340 C   0  0  0  0  0  0  0  0  0  0  0  0
    0.5630   10.9000   -3.0640 O   0  0  0  0  0  0  0  0  0  0  0  0
   -0.2180   11.8830   -5.4770 N   0  0  0  0  0  0  0  0  0  0  0  0
   -1.5640   11.5930   -5.4100 C   0  0  0  0  0  0  0  0  0  0  0  0
    0.5580   11.3510   -6.4860 C   0  0  0  0  0  0  0  0  0  0  0  0
    1.6050   11.8280   -6.8880 O   0  0  0  0  0  0  0  0  0  0  0  0
   -2.0770   10.5390   -6.0530 C   0  0  0  0  0  0  0  0  0  0  0  0
    0.0470   10.0830   -7.0770 C   0  0  0  0  0  0  0  0  0  0  0  0
   -1.2170    9.7070   -6.8480 C   0  0  0  0  0  0  0  0  0  0  0  0
   -1.9240    8.1280   -7.5450 Br  0  0  0  0  0  0  0  0  0  0  0  0
  1  2  1  0
  2  3  2  3
  2  4  1  0
  3  5  1  0
  4  6  2  0
  4  7  1  0
  5  8  1  0
  6  9  1  0
  7 10  2  0
  9 10  1  0
  8 11  1  0
 10 12  1  0
 11 13  2  3
 12 14  1  0
 12 15  1  0
 14 15  1  0
 13 16  1  0
 13 17  1  0
 16 18  1  0
 18 19  1  0
 18 20  1  0
 20 21  2  0
 19 22  2  0
 20 23  1  0
 22 24  1  0
 23 24  2  0
 24 25  1  0
M  END
