x0421_0_A-x0574_0_A
     RDKit          3D

 17 19  0  0  0  0  0  0  0  0999 V2000
   -4.3080   15.0130   -3.2340 N   0  0  0  0  0  0  0  0  0  0  0  0
   -3.3080   14.8180   -2.3230 C   0  0  0  0  0  0  0  0  0  0  0  0
   -2.1410   14.9950   -2.6610 O   0  0  0  0  0  0  0  0  0  0  0  0
   -3.7580   14.3810   -0.9350 C   0  0  1  0  0  0  0  0  0  0  0  0
   -2.7380   14.6700    0.1690 C   0  0  1  0  0  0  0  0  0  0  0  0
   -4.9800   15.1280   -0.4710 N   0  0  0  0  0  0  0  0  0  0  0  0
   -6.1690   14.3150   -0.7040 O   0  0  0  0  0  0  0  0  0  0  0  0
   -3.3650   15.5600    1.1090 N   0  0  0  0  0  0  0  0  0  0  0  0
   -4.7570   15.1470    0.9710 C   0  0  2  0  0  0  0  0  0  0  0  0
   -2.2270   13.6870    1.0510 N   0  0  0  0  0  0  0  0  0  0  0  0
   -1.0170   14.8370   -0.3610 S   0  0  0  0  0  0  0  0  0  0  0  0
   -7.2740   14.8250    0.0510 C   0  0  0  0  0  0  0  0  0  0  0  0
   -5.0580   13.8410    1.6760 C   0  0  0  0  0  0  0  0  0  0  0  0
   -1.0060   14.3910    1.3430 C   0  0  2  0  0  0  0  0  0  0  0  0
    0.0360   13.4690    1.6330 N   0  0  0  0  0  0  0  0  0  0  0  0
   -5.9830   12.8120    1.0530 C   0  0  0  0  0  0  0  0  0  0  0  0
   -6.4460   13.5750    2.2490 C   0  0  0  0  0  0  0  0  0  0  0  0
  1  2  1  0
  2  3  2  0
  4  2  1  6
  4  5  1  0
  4  6  1  0
  6  7  1  0
  5  8  1  1
  6  9  1  0
  8  9  1  0
  5 10  1  0
  5 11  1  0
  7 12  1  0
  9 13  1  6
 10 14  1  0
 11 14  1  0
 14 15  1  6
 13 16  1  0
 13 17  1  0
 16 17  1  0
M  END
