x0421_0_A-x0837_0_A
     RDKit          3D

 12 13  0  0  0  0  0  0  0  0999 V2000
   -3.9520   15.1400   -2.8280 N   0  0  0  0  0  0  0  0  0  0  0  0
   -3.1060   14.9420   -1.7760 C   0  0  0  0  0  0  0  0  0  0  0  0
   -1.9040   14.8000   -1.9960 O   0  0  0  0  0  0  0  0  0  0  0  0
   -3.7080   14.9060   -0.4720 C   0  0  0  0  0  0  0  0  0  0  0  0
   -3.0950   15.0120    0.8000 C   0  0  0  0  0  0  0  0  0  0  0  0
   -5.0410   14.7560   -0.2030 N   0  0  0  0  0  0  0  0  0  0  0  0
   -6.1010   14.6130   -0.8670 O   0  0  0  0  0  0  0  0  0  0  0  0
   -4.0090   14.9280    1.8440 N   0  0  0  0  0  0  0  0  0  0  0  0
   -5.2040   14.7690    1.2370 C   0  0  0  0  0  0  0  0  0  0  0  0
   -6.5600   14.6180    1.9640 C   0  0  0  0  0  0  0  0  0  0  0  0
   -7.8460   14.6920    1.1830 C   0  0  0  0  0  0  0  0  0  0  0  0
   -7.3700   13.3760    1.7290 C   0  0  0  0  0  0  0  0  0  0  0  0
  1  2  1  0
  2  3  2  0
  2  4  1  0
  4  5  2  0
  4  6  1  0
  6  7  1  0
  5  8  1  0
  6  9  2  0
  8  9  1  0
  9 10  1  0
 10 11  1  0
 10 12  1  0
 11 12  1  0
M  CHG  2   6   1   7  -1
M  END
