x0421_0_A_α-x0969_0_A_α
     RDKit          3D

 12 13  0  0  0  0  0  0  0  0999 V2000
   -3.6420   15.1550   -3.0630 N   0  0  0  0  0  0  0  0  0  0  0  0
   -2.7960   14.9560   -2.0060 C   0  0  0  0  0  0  0  0  0  0  0  0
   -1.5900   14.8580   -2.2070 O   0  0  0  0  0  0  0  0  0  0  0  0
   -3.4170   14.8640   -0.6910 C   0  0  0  0  0  0  0  0  0  0  0  0
   -2.7810   14.6690    0.5260 C   0  0  0  0  0  0  0  0  0  0  0  0
   -4.7870   14.9700   -0.5000 N   0  0  0  0  0  0  0  0  0  0  0  0
   -3.7820   14.6440    1.4340 N   0  0  0  0  0  0  0  0  0  0  0  0
   -4.9500   14.8260    0.7850 C   0  0  0  0  0  0  0  0  0  0  0  0
   -6.2850   14.8520    1.5410 C   0  0  1  0  0  0  0  0  0  0  0  0
   -7.6180   14.7140    0.8480 C   0  0  0  0  0  0  0  0  0  0  0  0
   -7.1030   13.6330    1.7510 C   0  0  2  0  0  0  0  0  0  0  0  0
   -7.5460   13.4880    3.1270 N   0  0  0  0  0  0  0  0  0  0  0  0
  1  2  1  0
  2  3  2  0
  2  4  1  0
  4  5  2  0
  4  6  1  0
  5  7  1  0
  6  8  2  0
  7  8  1  0
  9  8  1  6
  9 10  1  0
  9 11  1  0
 10 11  1  0
 11 12  1  1
M  END
