x0423_0_B_α-x0792_0_A_α
     RDKit          3D

 25 27  0  0  0  0  0  0  0  0999 V2000
   14.2180   25.7960   15.6440 N   0  0  0  0  0  0  0  0  0  0  0  0
   13.1320   26.7660   15.6290 C   0  0  0  0  0  0  0  0  0  0  0  0
   14.4900   25.1880   14.3380 C   0  0  2  0  0  0  0  0  0  0  0  0
   13.3520   24.3710   13.6880 C   0  0  0  0  0  0  0  0  0  0  0  0
   15.8250   24.4520   14.2480 C   0  0  0  0  0  0  0  0  0  0  0  0
   13.8690   23.1610   13.0340 N   0  0  0  0  0  0  0  0  0  0  0  0
   16.1250   24.0960   12.7940 C   0  0  0  0  0  0  0  0  0  0  0  0
   15.0420   23.2150   12.1700 C   0  0  0  0  0  0  0  0  0  0  0  0
   13.3200   21.9220   13.3380 C   0  0  0  0  0  0  0  0  0  0  0  0
   12.6940   21.7590   14.5540 C   0  0  0  0  0  0  0  0  0  0  0  0
   13.3840   20.8780   12.4810 N   0  0  0  0  0  0  0  0  0  0  0  0
   12.8250   19.6630   12.8110 N   0  0  0  0  0  0  0  0  0  0  0  0
   12.1220   20.5620   14.9420 C   0  0  0  0  0  0  0  0  0  0  0  0
   11.4710   20.4920   16.3330 C   0  0  0  0  0  0  0  0  0  0  0  0
   12.2100   19.5160   14.0110 C   0  0  0  0  0  0  0  0  0  0  0  0
   11.1840   21.8640   17.0200 C   0  0  0  0  0  0  0  0  0  0  0  0
    9.8320   22.1180   17.4960 O   0  0  0  0  0  0  0  0  0  0  0  0
    9.5550   23.5500   17.5490 C   0  0  0  0  0  0  0  0  0  0  0  0
    8.0850   23.9580   17.8260 C   0  0  1  0  0  0  0  0  0  0  0  0
    7.9170   25.1270   18.7540 C   0  0  0  0  0  0  0  0  0  0  0  0
    7.1920   24.4250   16.6420 C   0  0  0  0  0  0  0  0  0  0  0  0
    5.7490   24.5790   16.8000 N   0  0  0  0  0  0  0  0  0  0  0  0
    6.9850   26.1900   18.0860 C   0  0  1  0  0  0  0  0  0  0  0  0
    7.7520   26.8070   16.9140 C   0  0  0  0  0  0  0  0  0  0  0  0
    5.5830   25.7460   17.5890 C   0  0  0  0  0  0  0  0  0  0  0  0
  1  2  1  0
  3  1  1  1
  3  4  1  0
  3  5  1  0
  4  6  1  0
  5  7  1  0
  6  8  1  0
  7  8  1  0
  6  9  1  0
  9 10  2  0
  9 11  1  0
 11 12  2  0
 10 13  1  0
 13 14  1  0
 12 15  1  0
 13 15  2  0
 14 16  1  0
 16 17  1  0
 17 18  1  0
 19 18  1  6
 19 20  1  0
 19 21  1  0
 21 22  1  0
 20 23  1  0
 23 24  1  6
 22 25  1  0
 23 25  1  0
M  END
