x0421_0_A-x0104_0_A
     RDKit          3D

 21 24  0  0  0  0  0  0  0  0999 V2000
   -3.7590   14.7130   -2.4720 N   0  0  0  0  0  0  0  0  0  0  0  0
   -2.9890   15.0200   -1.3540 C   0  0  0  0  0  0  0  0  0  0  0  0
   -1.7680   14.9910   -1.2770 O   0  0  0  0  0  0  0  0  0  0  0  0
   -4.9960   14.2320   -1.9290 O   0  0  0  0  0  0  0  0  0  0  0  0
   -4.0550   15.3480   -0.3450 C   0  0  1  0  0  0  0  0  0  0  0  0
   -4.6490   14.0610   -0.5300 N   0  0  0  0  0  0  0  0  0  0  0  0
   -4.0080   15.3930    1.1850 C   0  0  0  0  0  0  0  0  0  0  0  0
   -5.6650   13.9640    0.5180 C   0  0  1  0  0  0  0  0  0  0  0  0
   -5.4860   15.1160    1.4030 N   0  0  0  0  0  0  0  0  0  0  0  0
   -7.0630   13.7100    0.1240 C   0  0  0  0  0  0  0  0  0  0  0  0
   -6.1750   15.0310    2.7060 N   0  0  0  0  0  0  0  0  0  0  0  0
   -8.2450   14.5880    0.4340 C   0  0  0  0  0  0  0  0  0  0  0  0
   -8.0650   13.2830    1.1660 C   0  0  0  0  0  0  0  0  0  0  0  0
   -7.5700   15.1830    3.0850 C   0  0  0  0  0  0  0  0  0  0  0  0
   -7.6840   14.9310    4.4470 N   0  0  0  0  0  0  0  0  0  0  0  0
   -8.5290   15.4690    2.3700 O   0  0  0  0  0  0  0  0  0  0  0  0
   -8.8410   15.0230    5.2260 C   0  0  0  0  0  0  0  0  0  0  0  0
   -9.0380   15.1920    6.5820 C   0  0  0  0  0  0  0  0  0  0  0  0
  -10.3250   14.9040    4.3860 S   0  0  0  0  0  0  0  0  0  0  0  0
  -11.2420   15.0750    5.8320 C   0  0  0  0  0  0  0  0  0  0  0  0
  -10.4260   15.2230    6.9330 C   0  0  0  0  0  0  0  0  0  0  0  0
  1  2  1  0
  2  3  2  0
  1  4  1  0
  2  5  1  0
  4  6  1  0
  5  6  1  0
  5  7  1  1
  6  8  1  0
  7  9  1  0
  8  9  1  0
  8 10  1  6
  9 11  1  0
 10 12  1  0
 10 13  1  0
 12 13  1  0
 11 14  1  0
 14 15  1  0
 14 16  2  0
 15 17  1  0
 17 18  2  0
 17 19  1  0
 19 20  1  0
 18 21  1  0
 20 21  2  0
M  END
