x0423_0_B_α-x0796_0_B_α
     RDKit          3D

 33 37  0  0  0  0  0  0  0  0999 V2000
   14.2820   25.6730   15.5550 N   0  0  0  0  0  0  0  0  0  0  0  0
   13.0350   26.4350   15.4470 C   0  0  0  0  0  0  0  0  0  0  0  0
   14.1340   24.2410   15.2300 C   0  0  1  0  0  0  0  0  0  0  0  0
   13.3330   23.8970   13.9270 C   0  0  0  0  0  0  0  0  0  0  0  0
   15.5760   23.6460   15.2700 C   0  0  0  0  0  0  0  0  0  0  0  0
   13.8780   22.7930   13.1140 N   0  0  0  0  0  0  0  0  0  0  0  0
   16.2080   23.0220   14.0070 C   0  0  0  0  0  0  0  0  0  0  0  0
   15.3050   22.7790   12.8130 C   0  0  0  0  0  0  0  0  0  0  0  0
   13.3550   21.5640   13.3620 C   0  0  0  0  0  0  0  0  0  0  0  0
   12.2950   21.3140   14.2080 C   0  0  0  0  0  0  0  0  0  0  0  0
   13.9360   20.5340   12.7380 N   0  0  0  0  0  0  0  0  0  0  0  0
   13.5270   19.2460   12.9200 N   0  0  0  0  0  0  0  0  0  0  0  0
   11.8670   20.0100   14.4060 C   0  0  0  0  0  0  0  0  0  0  0  0
   12.5130   18.9910   13.7490 C   0  0  0  0  0  0  0  0  0  0  0  0
   12.1250   17.5640   13.9240 C   0  0  0  0  0  0  0  0  0  0  0  0
   11.5930   17.0700   15.2660 C   0  0  0  0  0  0  0  0  0  0  0  0
   11.9420   15.6020   15.5680 C   0  0  0  0  0  0  0  0  0  0  0  0
   12.3690   14.7450   14.3530 C   0  0  0  0  0  0  0  0  0  0  0  0
   11.9780   13.3240   14.3960 N   0  0  0  0  0  0  0  0  0  0  0  0
   12.7490   12.3150   13.5760 C   0  0  2  0  0  0  0  0  0  0  0  0
   11.8590   12.8430   15.7930 C   0  0  0  0  0  0  0  0  0  0  0  0
   14.0360   12.8450   12.9280 C   0  0  0  0  0  0  0  0  0  0  0  0
   11.9400   11.5050   12.5220 C   0  0  0  0  0  0  0  0  0  0  0  0
   13.1410   11.2700   14.6460 C   0  0  0  0  0  0  0  0  0  0  0  0
   12.0470   11.3540   15.6820 C   0  0  0  0  0  0  0  0  0  0  0  0
   10.7130   11.3340   12.5480 O   0  0  0  0  0  0  0  0  0  0  0  0
   12.6890   10.9420   11.5180 N   0  0  0  0  0  0  0  0  0  0  0  0
   14.7900   11.7110   12.3330 C   0  0  0  0  0  0  0  0  0  0  0  0
   14.0670   10.7640   11.6300 C   0  0  0  0  0  0  0  0  0  0  0  0
   16.1730   11.5790   12.4720 C   0  0  0  0  0  0  0  0  0  0  0  0
   16.8200   10.4840   11.9070 C   0  0  0  0  0  0  0  0  0  0  0  0
   14.7010    9.6690   11.0610 C   0  0  0  0  0  0  0  0  0  0  0  0
   16.0870    9.5280   11.2040 C   0  0  0  0  0  0  0  0  0  0  0  0
  1  2  1  0
  3  1  1  6
  3  4  1  0
  3  5  1  0
  4  6  1  0
  5  7  1  0
  6  8  1  0
  7  8  1  0
  6  9  1  0
  9 10  2  0
  9 11  1  0
 11 12  2  0
 10 13  1  0
 12 14  1  0
 13 14  2  0
 14 15  1  0
 15 16  1  0
 16 17  1  0
 17 18  1  0
 18 19  1  0
 19 20  1  0
 19 21  1  0
 20 22  1  6
 20 23  1  0
 20 24  1  0
 21 25  1  0
 24 25  1  0
 23 26  2  0
 23 27  1  0
 22 28  1  0
 27 29  1  0
 28 29  2  0
 28 30  1  0
 30 31  2  0
 29 32  1  0
 31 33  1  0
 32 33  2  0
M  END
