x0421_0_A-x0371_0_A
     RDKit          3D

 20 22  0  0  0  0  0  0  0  0999 V2000
   -3.7490   15.1560   -2.9790 N   0  0  0  0  0  0  0  0  0  0  0  0
   -2.8510   14.9470   -1.9760 C   0  0  0  0  0  0  0  0  0  0  0  0
   -1.6520   14.8130   -2.1880 O   0  0  0  0  0  0  0  0  0  0  0  0
   -3.4560   14.8940   -0.6540 C   0  0  0  0  0  0  0  0  0  0  0  0
   -2.7960   14.9910    0.5540 C   0  0  0  0  0  0  0  0  0  0  0  0
   -4.8170   14.7280   -0.4500 N   0  0  0  0  0  0  0  0  0  0  0  0
   -3.7650   14.8750    1.4930 N   0  0  0  0  0  0  0  0  0  0  0  0
   -4.9540   14.7170    0.8540 C   0  0  0  0  0  0  0  0  0  0  0  0
   -6.2940   14.5340    1.5900 C   0  0  1  0  0  0  0  0  0  0  0  0
   -7.5740   14.2420    0.8560 C   0  0  1  0  0  0  0  0  0  0  0  0
   -6.8380   13.1310    1.5460 C   0  0  0  0  0  0  0  0  0  0  0  0
   -8.8640   14.6590    1.4380 C   0  0  0  0  0  0  0  0  0  0  0  0
   -8.7270   14.5970    2.8660 N   0  0  0  0  0  0  0  0  0  0  0  0
   -9.0580   15.6840    3.6290 C   0  0  0  0  0  0  0  0  0  0  0  0
   -9.5750   16.6760    3.1330 O   0  0  0  0  0  0  0  0  0  0  0  0
   -8.7620   15.5570    5.0340 C   0  0  0  0  0  0  0  0  0  0  0  0
   -8.1320   14.4350    5.5010 O   0  0  0  0  0  0  0  0  0  0  0  0
   -9.0120   16.4140    6.0860 C   0  0  0  0  0  0  0  0  0  0  0  0
   -8.5100   15.7850    7.2510 C   0  0  0  0  0  0  0  0  0  0  0  0
   -7.9830   14.5850    6.8410 C   0  0  0  0  0  0  0  0  0  0  0  0
  1  2  1  0
  2  3  2  0
  2  4  1  0
  4  5  2  0
  4  6  1  0
  5  7  1  0
  6  8  2  0
  7  8  1  0
  9  8  1  6
  9 10  1  0
  9 11  1  0
 10 11  1  0
 10 12  1  1
 12 13  1  0
 13 14  1  0
 14 15  2  0
 14 16  1  0
 16 17  1  0
 16 18  2  0
 18 19  1  0
 17 20  1  0
 19 20  2  0
M  END
