x0423_0_B-x0905_1_B
     RDKit          3D

 14 15  0  0  0  0  0  0  0  0999 V2000
   14.1270   26.1100   15.4670 N   0  0  0  0  0  0  0  0  0  0  0  0
   12.8970   26.8880   15.4180 C   0  0  0  0  0  0  0  0  0  0  0  0
   14.3610   25.3410   14.2340 C   0  0  2  0  0  0  0  0  0  0  0  0
   13.4260   24.0960   14.1190 C   0  0  0  0  0  0  0  0  0  0  0  0
   15.8150   24.8660   14.1290 C   0  0  0  0  0  0  0  0  0  0  0  0
   14.1290   22.9850   13.4620 N   0  0  0  0  0  0  0  0  0  0  0  0
   16.0910   24.2330   12.7680 C   0  0  0  0  0  0  0  0  0  0  0  0
   14.9520   23.3250   12.3060 C   0  0  0  0  0  0  0  0  0  0  0  0
   13.4770   21.7450   13.3600 C   0  0  0  0  0  0  0  0  0  0  0  0
   12.4130   21.4320   14.1930 C   0  0  0  0  0  0  0  0  0  0  0  0
   13.8840   20.8380   12.4500 N   0  0  0  0  0  0  0  0  0  0  0  0
   13.2770   19.6110   12.3290 N   0  0  0  0  0  0  0  0  0  0  0  0
   11.7910   20.1960   14.0820 C   0  0  0  0  0  0  0  0  0  0  0  0
   12.2490   19.3160   13.1420 C   0  0  0  0  0  0  0  0  0  0  0  0
  1  2  1  0
  3  1  1  1
  3  4  1  0
  3  5  1  0
  4  6  1  0
  5  7  1  0
  6  8  1  0
  7  8  1  0
  6  9  1  0
  9 10  2  0
  9 11  1  0
 11 12  2  0
 10 13  1  0
 12 14  1  0
 13 14  2  0
M  END
