x0423_0_B-x0918_4_B
     RDKit          3D

 15 16  0  0  0  0  0  0  0  0999 V2000
   14.1870   26.1260   15.3750 N   0  0  0  0  0  0  0  0  0  0  0  0
   12.9000   26.8030   15.4010 C   0  0  0  0  0  0  0  0  0  0  0  0
   14.4030   25.3650   14.1410 C   0  0  2  0  0  0  0  0  0  0  0  0
   13.5090   24.1030   13.9550 C   0  0  0  0  0  0  0  0  0  0  0  0
   15.8810   24.9610   14.0680 C   0  0  0  0  0  0  0  0  0  0  0  0
   14.3320   22.9930   13.4280 N   0  0  0  0  0  0  0  0  0  0  0  0
   16.2030   24.3130   12.7190 C   0  0  0  0  0  0  0  0  0  0  0  0
   15.1170   23.3390   12.2590 C   0  0  0  0  0  0  0  0  0  0  0  0
   13.6310   21.7590   13.2730 C   0  0  0  0  0  0  0  0  0  0  0  0
   12.5430   21.5250   14.1050 C   0  0  0  0  0  0  0  0  0  0  0  0
   14.0130   20.8390   12.3590 N   0  0  0  0  0  0  0  0  0  0  0  0
   12.1810   22.5080   15.0350 N   0  0  0  0  0  0  0  0  0  0  0  0
   13.3340   19.6620   12.2440 N   0  0  0  0  0  0  0  0  0  0  0  0
   11.8530   20.3290   13.9970 C   0  0  0  0  0  0  0  0  0  0  0  0
   12.2810   19.4260   13.0530 C   0  0  0  0  0  0  0  0  0  0  0  0
  1  2  1  0
  3  1  1  1
  3  4  1  0
  3  5  1  0
  4  6  1  0
  5  7  1  0
  6  8  1  0
  7  8  1  0
  6  9  1  0
  9 10  2  0
  9 11  1  0
 10 12  1  0
 11 13  2  0
 10 14  1  0
 13 15  1  0
 14 15  2  0
M  END
