x0421_0_A-x0950_1_A
     RDKit          3D

 19 20  0  0  0  0  0  0  0  0999 V2000
   -3.5580   15.1000   -2.7560 N   0  0  0  0  0  0  0  0  0  0  0  0
   -2.7730   14.8200   -1.6700 C   0  0  0  0  0  0  0  0  0  0  0  0
   -1.5220   14.5530   -1.7570 N   0  0  0  0  0  0  0  0  0  0  0  0
   -3.4940   14.8530   -0.4140 C   0  0  0  0  0  0  0  0  0  0  0  0
   -0.6800   14.4800   -2.9300 C   0  0  0  0  0  0  0  0  0  0  0  0
   -2.9490   15.0410    0.8360 C   0  0  0  0  0  0  0  0  0  0  0  0
   -4.8750   14.6820   -0.3110 N   0  0  0  0  0  0  0  0  0  0  0  0
    0.7830   14.4960   -2.4660 C   0  0  0  0  0  0  0  0  0  0  0  0
   -3.9880   14.9820    1.7030 N   0  0  0  0  0  0  0  0  0  0  0  0
   -5.1190   14.7630    0.9810 C   0  0  0  0  0  0  0  0  0  0  0  0
    1.2760   13.1520   -2.2450 O   0  0  0  0  0  0  0  0  0  0  0  0
   -6.5050   14.6280    1.6500 C   0  0  0  0  0  0  0  0  0  0  0  0
    0.9180   12.1950   -3.1370 C   0  0  0  0  0  0  0  0  0  0  0  0
   -7.7500   14.6910    0.8080 C   0  0  0  0  0  0  0  0  0  0  0  0
   -7.3180   13.3860    1.4110 C   0  0  0  0  0  0  0  0  0  0  0  0
    1.3750   12.5120   -4.5690 C   0  0  2  0  0  0  0  0  0  0  0  0
    0.3120   11.1670   -2.8470 O   0  0  0  0  0  0  0  0  0  0  0  0
    1.1060   13.9400   -4.9970 C   0  0  0  0  0  0  0  0  0  0  0  0
    0.7100   11.6510   -5.4970 O   0  0  0  0  0  0  0  0  0  0  0  0
  1  2  1  0
  2  3  2  3
  2  4  1  0
  3  5  1  0
  4  6  2  0
  4  7  1  0
  5  8  1  0
  6  9  1  0
  7 10  2  0
  9 10  1  0
  8 11  1  0
 10 12  1  0
 11 13  1  0
 12 14  1  0
 12 15  1  0
 14 15  1  0
 13 16  1  0
 13 17  2  0
 16 18  1  6
 16 19  1  0
M  END
