x0421_0_A_α-x0711_0_A_α
     RDKit          3D

 18 19  0  0  0  0  0  0  0  0999 V2000
   -3.6990   15.1600   -3.0220 N   0  0  0  0  0  0  0  0  0  0  0  0
   -3.0310   14.8150   -1.8720 C   0  0  0  0  0  0  0  0  0  0  0  0
   -1.8030   14.3770   -1.7710 N   0  0  0  0  0  0  0  0  0  0  0  0
   -3.6680   14.9010   -0.5630 C   0  0  0  0  0  0  0  0  0  0  0  0
   -0.7250   14.0970   -2.9540 S   0  0  0  0  0  0  0  0  0  0  0  0
   -2.9660   15.1960    0.5920 C   0  0  0  0  0  0  0  0  0  0  0  0
   -5.0040   14.7320   -0.0980 N   0  0  0  0  0  0  0  0  0  0  0  0
   -6.2690   14.4190   -0.6130 C   0  0  0  0  0  0  0  0  0  0  0  0
   -1.6380   13.0480   -4.0570 C   0  0  0  0  0  0  0  0  0  0  0  0
   -0.3780   15.3060   -3.6710 O   0  0  0  0  0  0  0  0  0  0  0  0
    0.3340   13.2960   -2.3680 O   0  0  0  0  0  0  0  0  0  0  0  0
   -3.7580   15.2150    1.6820 N   0  0  0  0  0  0  0  0  0  0  0  0
   -4.9540   14.9330    1.2540 C   0  0  0  0  0  0  0  0  0  0  0  0
   -6.7790   13.2710   -0.1170 N   0  0  0  0  0  0  0  0  0  0  0  0
   -6.8840   15.1160   -1.3910 O   0  0  0  0  0  0  0  0  0  0  0  0
   -6.2010   14.8420    2.2080 C   0  0  0  0  0  0  0  0  0  0  0  0
   -7.6080   14.8500    1.6400 C   0  0  0  0  0  0  0  0  0  0  0  0
   -7.0470   13.5880    2.2060 C   0  0  0  0  0  0  0  0  0  0  0  0
  1  2  1  0
  2  3  2  3
  2  4  1  0
  5  3  1  0
  4  6  2  0
  4  7  1  0
  7  8  1  0
  5  9  1  0
  5 10  2  0
  5 11  2  0
  6 12  1  0
  7 13  1  0
 12 13  2  0
  8 14  1  0
  8 15  2  0
 13 16  1  0
 16 17  1  0
 16 18  1  0
 17 18  1  0
M  END
