x0421_0_A-x0592_0_A
     RDKit          3D

 21 23  0  0  0  0  0  0  0  0999 V2000
   -2.2140   14.9510   -2.6500 N   0  0  0  0  0  0  0  0  0  0  0  0
   -2.2330   13.7950   -1.7630 C   0  0  2  0  0  0  0  0  0  0  0  0
   -0.9700   13.1470   -1.9190 O   0  0  0  0  0  0  0  0  0  0  0  0
   -3.4320   12.7660   -2.0760 C   0  0  2  0  0  0  0  0  0  0  0  0
   -2.3910   14.2690   -0.3450 C   0  0  0  0  0  0  0  0  0  0  0  0
   -3.5200   12.4040   -3.5000 N   0  0  0  0  0  0  0  0  0  0  0  0
   -1.5470   14.6570    0.6910 C   0  0  0  0  0  0  0  0  0  0  0  0
   -3.6800   14.3300    0.0500 N   0  0  0  0  0  0  0  0  0  0  0  0
   -4.8470   13.1970   -1.6830 C   0  0  0  0  0  0  0  0  0  0  0  0
   -2.3990   14.9480    1.7340 N   0  0  0  0  0  0  0  0  0  0  0  0
   -3.6750   14.7230    1.2670 C   0  0  0  0  0  0  0  0  0  0  0  0
   -5.6130   14.2980   -2.1560 C   0  0  0  0  0  0  0  0  0  0  0  0
   -5.7080   12.5880   -0.7670 C   0  0  0  0  0  0  0  0  0  0  0  0
   -5.0400   14.8420    1.9390 C   0  0  0  0  0  0  0  0  0  0  0  0
   -6.8290   14.3710   -1.5980 N   0  0  0  0  0  0  0  0  0  0  0  0
   -6.8680   13.3200   -0.7490 N   0  0  0  0  0  0  0  0  0  0  0  0
   -8.0870   13.0990    0.0440 C   0  0  0  0  0  0  0  0  0  0  0  0
   -6.2840   14.7980    1.0950 C   0  0  0  0  0  0  0  0  0  0  0  0
   -5.7900   13.5540    1.7410 C   0  0  0  0  0  0  0  0  0  0  0  0
   -7.8540   12.4940    1.4380 C   0  0  0  0  0  0  0  0  0  0  0  0
   -7.9680   13.4750    2.4870 O   0  0  0  0  0  0  0  0  0  0  0  0
  2  1  1  6
  2  3  1  0
  2  4  1  0
  2  5  1  0
  4  6  1  6
  5  7  2  0
  5  8  1  0
  4  9  1  0
  7 10  1  0
  8 11  2  0
 10 11  1  0
  9 12  1  0
  9 13  2  0
 11 14  1  0
 12 15  2  0
 13 16  1  0
 15 16  1  0
 16 17  1  0
 14 18  1  0
 14 19  1  0
 18 19  1  0
 17 20  1  0
 20 21  1  0
M  END
