x0421_0_A_α-x0844_0_A_α
     RDKit          3D

 12 13  0  0  0  0  0  0  0  0999 V2000
   -3.9510   15.1530   -2.8470 N   0  0  0  0  0  0  0  0  0  0  0  0
   -3.1010   14.9640   -1.7950 C   0  0  0  0  0  0  0  0  0  0  0  0
   -1.9010   14.8360   -2.0120 O   0  0  0  0  0  0  0  0  0  0  0  0
   -3.7070   14.9230   -0.4900 C   0  0  0  0  0  0  0  0  0  0  0  0
   -3.0950   15.0100    0.7880 C   0  0  0  0  0  0  0  0  0  0  0  0
   -5.0430   14.7840   -0.2270 N   0  0  0  0  0  0  0  0  0  0  0  0
   -6.1000   14.6620   -0.9060 O   0  0  0  0  0  0  0  0  0  0  0  0
   -4.0150   14.9230    1.8270 N   0  0  0  0  0  0  0  0  0  0  0  0
   -5.2100   14.7810    1.2150 C   0  0  0  0  0  0  0  0  0  0  0  0
   -6.5710   14.6320    1.9400 C   0  0  0  0  0  0  0  0  0  0  0  0
   -7.8540   14.6910    1.1560 C   0  0  0  0  0  0  0  0  0  0  0  0
   -7.3690   13.3810    1.7080 C   0  0  0  0  0  0  0  0  0  0  0  0
  1  2  1  0
  2  3  2  0
  2  4  1  0
  4  5  2  0
  4  6  1  0
  6  7  1  0
  5  8  1  0
  6  9  2  0
  8  9  1  0
  9 10  1  0
 10 11  1  0
 10 12  1  0
 11 12  1  0
M  CHG  2   6   1   7  -1
M  END
