x0423_0_B_α-x0822_0_A_α
     RDKit          3D

 34 37  0  0  0  0  0  0  0  0999 V2000
   14.1140   26.1240   15.4170 N   0  0  0  0  0  0  0  0  0  0  0  0
   12.8560   26.8290   15.5520 C   0  0  0  0  0  0  0  0  0  0  0  0
   11.9380   26.8680   14.3160 C   0  0  0  0  0  0  0  0  0  0  0  0
   14.3680   25.2840   14.2540 C   0  0  2  0  0  0  0  0  0  0  0  0
   13.4190   24.0400   14.1890 C   0  0  0  0  0  0  0  0  0  0  0  0
   15.8150   24.7930   14.0820 C   0  0  0  0  0  0  0  0  0  0  0  0
   10.5410   26.2870   14.5560 C   0  0  0  0  0  0  0  0  0  0  0  0
   14.0700   22.9480   13.4330 N   0  0  0  0  0  0  0  0  0  0  0  0
   16.0460   24.1810   12.7040 C   0  0  0  0  0  0  0  0  0  0  0  0
    9.6670   27.1050   15.5230 C   0  0  0  0  0  0  0  0  0  0  0  0
   14.7980   23.4190   12.2640 C   0  0  0  0  0  0  0  0  0  0  0  0
   13.4520   21.7100   13.3430 C   0  0  0  0  0  0  0  0  0  0  0  0
    8.5610   26.3470   16.2850 C   0  0  0  0  0  0  0  0  0  0  0  0
   12.4040   21.3250   14.1640 C   0  0  0  0  0  0  0  0  0  0  0  0
   13.8890   20.8290   12.4170 N   0  0  0  0  0  0  0  0  0  0  0  0
    7.1320   26.9220   16.1870 C   0  0  0  0  0  0  0  0  0  0  0  0
   13.3360   19.5820   12.2650 N   0  0  0  0  0  0  0  0  0  0  0  0
   11.8360   20.0650   14.0250 C   0  0  0  0  0  0  0  0  0  0  0  0
   12.3260   19.2220   13.0650 C   0  0  0  0  0  0  0  0  0  0  0  0
    6.0510   25.8680   15.8780 C   0  0  2  0  0  0  0  0  0  0  0  0
    4.7330   26.4960   15.3830 C   0  0  0  0  0  0  0  0  0  0  0  0
    5.8690   25.1380   17.0720 O   0  0  0  0  0  0  0  0  0  0  0  0
    3.8050   27.0310   16.5020 C   0  0  2  0  0  0  0  0  0  0  0  0
    5.2120   25.8520   18.1020 C   0  0  0  0  0  0  0  0  0  0  0  0
    3.7670   26.1470   17.7690 C   0  0  2  0  0  0  0  0  0  0  0  0
    2.4020   27.3880   16.0610 C   0  0  0  0  0  0  0  0  0  0  0  0
    3.0040   24.8930   17.6530 N   0  0  0  0  0  0  0  0  0  0  0  0
    1.9100   28.6740   16.3160 C   0  0  0  0  0  0  0  0  0  0  0  0
    1.5800   26.4530   15.4070 C   0  0  0  0  0  0  0  0  0  0  0  0
    0.6220   29.0250   15.9290 C   0  0  0  0  0  0  0  0  0  0  0  0
    0.2900   26.7960   15.0220 C   0  0  0  0  0  0  0  0  0  0  0  0
   -0.5860   25.9550   14.3900 O   0  0  0  0  0  0  0  0  0  0  0  0
   -0.1870   28.0850   15.2830 C   0  0  0  0  0  0  0  0  0  0  0  0
   -1.9380   26.3890   14.2390 C   0  0  0  0  0  0  0  0  0  0  0  0
  1  2  1  0
  2  3  1  0
  4  1  1  1
  4  5  1  0
  4  6  1  0
  3  7  1  0
  5  8  1  0
  6  9  1  0
  7 10  1  0
  8 11  1  0
  9 11  1  0
  8 12  1  0
 10 13  1  0
 12 14  2  0
 12 15  1  0
 13 16  1  0
 15 17  2  0
 14 18  1  0
 17 19  1  0
 18 19  2  0
 20 16  1  1
 20 21  1  0
 20 22  1  0
 21 23  1  0
 22 24  1  0
 23 25  1  0
 24 25  1  0
 23 26  1  6
 25 27  1  6
 26 28  2  0
 26 29  1  0
 28 30  1  0
 29 31  2  0
 31 32  1  0
 30 33  2  0
 31 33  1  0
 32 34  1  0
M  END
