x0423_0_B-x0598_0_A
     RDKit          3D

 27 29  0  0  0  0  0  0  0  0999 V2000
   14.5820   26.4460   14.6990 N   0  0  0  0  0  0  0  0  0  0  0  0
   13.1740   26.6510   15.0150 C   0  0  0  0  0  0  0  0  0  0  0  0
   15.0860   25.0720   14.9150 C   0  0  1  0  0  0  0  0  0  0  0  0
   14.1140   23.9630   14.4630 C   0  0  0  0  0  0  0  0  0  0  0  0
   16.4740   24.8250   14.3000 C   0  0  0  0  0  0  0  0  0  0  0  0
   14.7730   22.9680   13.5910 N   0  0  0  0  0  0  0  0  0  0  0  0
   16.3760   24.6530   12.7840 C   0  0  0  0  0  0  0  0  0  0  0  0
   15.3830   23.5530   12.4020 C   0  0  0  0  0  0  0  0  0  0  0  0
   14.0900   21.7470   13.4430 C   0  0  0  0  0  0  0  0  0  0  0  0
   12.7260   21.6630   13.6630 C   0  0  0  0  0  0  0  0  0  0  0  0
   14.7710   20.6330   13.0790 N   0  0  0  0  0  0  0  0  0  0  0  0
   11.9040   22.8690   14.0410 C   0  0  0  0  0  0  0  0  0  0  0  0
   14.1590   19.4150   12.9210 N   0  0  0  0  0  0  0  0  0  0  0  0
   12.1030   20.4070   13.5060 C   0  0  0  0  0  0  0  0  0  0  0  0
   12.0500   23.4540   15.3840 N   0  0  0  0  0  0  0  0  0  0  0  0
   12.8460   19.3200   13.1370 C   0  0  0  0  0  0  0  0  0  0  0  0
   11.2140   23.0170   16.5830 S   0  0  1  0  0  0  0  0  0  0  0  0
    9.8670   24.0600   16.6340 N   0  0  0  0  0  0  0  0  0  0  0  0
   11.0110   21.2480   16.5050 C   0  0  0  0  0  0  0  0  0  0  0  0
   11.5780   23.2510   17.9190 O   0  0  0  0  0  0  0  0  0  0  0  0
    9.0710   24.3530   17.8120 C   0  0  0  0  0  0  0  0  0  0  0  0
    7.8890   25.3400   17.5820 C   0  0  0  0  0  0  0  0  0  0  0  0
    7.0760   25.0270   16.3230 C   0  0  0  0  0  0  0  0  0  0  0  0
    7.0320   25.6020   18.8200 C   0  0  0  0  0  0  0  0  0  0  0  0
    5.5490   25.0900   16.3210 C   0  0  0  0  0  0  0  0  0  0  0  0
    5.6890   26.2360   18.4600 C   0  0  0  0  0  0  0  0  0  0  0  0
    4.8710   25.4550   17.5550 N   0  0  0  0  0  0  0  0  0  0  0  0
  1  2  1  0
  3  1  1  6
  3  4  1  0
  3  5  1  0
  4  6  1  0
  5  7  1  0
  6  8  1  0
  7  8  1  0
  6  9  1  0
  9 10  1  0
  9 11  2  0
 10 12  1  0
 11 13  1  0
 10 14  2  0
 12 15  1  0
 13 16  2  0
 14 16  1  0
 15 17  2  0
 17 18  1  0
 17 19  1  1
 17 20  2  0
 18 21  1  0
 21 22  1  0
 22 23  1  0
 22 24  1  0
 23 25  1  0
 24 26  1  0
 25 27  1  0
 26 27  1  0
M  END
