x0421_0_A-x0969_0_A
     RDKit          3D

 12 13  0  0  0  0  0  0  0  0999 V2000
   -3.6520   15.1430   -3.0770 N   0  0  0  0  0  0  0  0  0  0  0  0
   -2.8020   14.9290   -2.0260 C   0  0  0  0  0  0  0  0  0  0  0  0
   -1.5970   14.8170   -2.2310 O   0  0  0  0  0  0  0  0  0  0  0  0
   -3.4180   14.8420   -0.7090 C   0  0  0  0  0  0  0  0  0  0  0  0
   -2.7810   14.6760    0.5090 C   0  0  0  0  0  0  0  0  0  0  0  0
   -4.7920   14.9140   -0.5190 N   0  0  0  0  0  0  0  0  0  0  0  0
   -3.7790   14.6410    1.4210 N   0  0  0  0  0  0  0  0  0  0  0  0
   -4.9550   14.7890    0.7680 C   0  0  0  0  0  0  0  0  0  0  0  0
   -6.2890   14.7950    1.5260 C   0  0  1  0  0  0  0  0  0  0  0  0
   -7.6200   14.6520    0.8370 C   0  0  0  0  0  0  0  0  0  0  0  0
   -7.0970   13.5660    1.7270 C   0  0  2  0  0  0  0  0  0  0  0  0
   -7.5400   13.4060    3.1040 N   0  0  0  0  0  0  0  0  0  0  0  0
  1  2  1  0
  2  3  2  0
  2  4  1  0
  4  5  2  0
  4  6  1  0
  5  7  1  0
  6  8  2  0
  7  8  1  0
  9  8  1  6
  9 10  1  0
  9 11  1  0
 10 11  1  0
 11 12  1  1
M  END
