x0421_0_A_α-x0864_0_A_α
     RDKit          3D

 25 27  0  0  0  0  0  0  0  0999 V2000
   -3.6600   15.1150   -2.9440 N   0  0  0  0  0  0  0  0  0  0  0  0
   -2.7040   14.9920   -1.9700 C   0  0  0  0  0  0  0  0  0  0  0  0
   -1.4110   14.9310   -2.1630 N   0  0  0  0  0  0  0  0  0  0  0  0
   -3.3090   14.9250   -0.6260 C   0  0  0  0  0  0  0  0  0  0  0  0
   -0.3300   14.8090   -1.1590 C   0  0  0  0  0  0  0  0  0  0  0  0
   -2.6920   14.9380    0.6130 C   0  0  0  0  0  0  0  0  0  0  0  0
   -4.6890   14.8300   -0.4440 N   0  0  0  0  0  0  0  0  0  0  0  0
    0.9350   14.2430   -1.8400 C   0  0  0  0  0  0  0  0  0  0  0  0
   -3.7030   14.8450    1.5190 N   0  0  0  0  0  0  0  0  0  0  0  0
   -4.8840   14.7810    0.8510 C   0  0  0  0  0  0  0  0  0  0  0  0
    0.8510   12.7880   -1.9900 N   0  0  0  0  0  0  0  0  0  0  0  0
   -6.2640   14.6610    1.5520 C   0  0  0  0  0  0  0  0  0  0  0  0
    0.6260   12.2440   -3.1340 C   0  0  0  0  0  0  0  0  0  0  0  0
   -7.5330   14.6630    0.7370 C   0  0  0  0  0  0  0  0  0  0  0  0
   -7.0620   13.3970    1.3870 C   0  0  0  0  0  0  0  0  0  0  0  0
    0.4140   12.8290   -4.5330 C   0  0  0  0  0  0  0  0  0  0  0  0
    0.5620   10.9000   -3.0670 O   0  0  0  0  0  0  0  0  0  0  0  0
   -0.2170   11.8810   -5.4760 N   0  0  0  0  0  0  0  0  0  0  0  0
   -1.5650   11.5910   -5.4100 C   0  0  0  0  0  0  0  0  0  0  0  0
    0.5560   11.3490   -6.4840 C   0  0  0  0  0  0  0  0  0  0  0  0
    1.6020   11.8310   -6.8890 O   0  0  0  0  0  0  0  0  0  0  0  0
   -2.0780   10.5400   -6.0560 C   0  0  0  0  0  0  0  0  0  0  0  0
    0.0470   10.0840   -7.0770 C   0  0  0  0  0  0  0  0  0  0  0  0
   -1.2190    9.7080   -6.8500 C   0  0  0  0  0  0  0  0  0  0  0  0
   -1.9260    8.1300   -7.5480 Br  0  0  0  0  0  0  0  0  0  0  0  0
  1  2  1  0
  2  3  2  3
  2  4  1  0
  3  5  1  0
  4  6  2  0
  4  7  1  0
  5  8  1  0
  6  9  1  0
  7 10  2  0
  9 10  1  0
  8 11  1  0
 10 12  1  0
 11 13  2  3
 12 14  1  0
 12 15  1  0
 14 15  1  0
 13 16  1  0
 13 17  1  0
 16 18  1  0
 18 19  1  0
 18 20  1  0
 20 21  2  0
 19 22  2  0
 20 23  1  0
 22 24  1  0
 23 24  2  0
 24 25  1  0
M  END
