x0421_0_A_α-x0950_1_A_α
     RDKit          3D

 19 20  0  0  0  0  0  0  0  0999 V2000
   -3.5580   15.0990   -2.7570 N   0  0  0  0  0  0  0  0  0  0  0  0
   -2.7720   14.8230   -1.6710 C   0  0  0  0  0  0  0  0  0  0  0  0
   -1.5210   14.5580   -1.7530 N   0  0  0  0  0  0  0  0  0  0  0  0
   -3.4970   14.8570   -0.4110 C   0  0  0  0  0  0  0  0  0  0  0  0
   -0.6770   14.4780   -2.9280 C   0  0  0  0  0  0  0  0  0  0  0  0
   -2.9520   15.0520    0.8380 C   0  0  0  0  0  0  0  0  0  0  0  0
   -4.8770   14.6830   -0.3080 N   0  0  0  0  0  0  0  0  0  0  0  0
    0.7890   14.4980   -2.4620 C   0  0  0  0  0  0  0  0  0  0  0  0
   -3.9920   14.9910    1.7040 N   0  0  0  0  0  0  0  0  0  0  0  0
   -5.1210   14.7670    0.9840 C   0  0  0  0  0  0  0  0  0  0  0  0
    1.2760   13.1540   -2.2440 O   0  0  0  0  0  0  0  0  0  0  0  0
   -6.5100   14.6290    1.6530 C   0  0  0  0  0  0  0  0  0  0  0  0
    0.9060   12.2010   -3.1370 C   0  0  0  0  0  0  0  0  0  0  0  0
   -7.7500   14.6890    0.8050 C   0  0  0  0  0  0  0  0  0  0  0  0
   -7.3180   13.3840    1.4100 C   0  0  0  0  0  0  0  0  0  0  0  0
    1.3740   12.5160   -4.5670 C   0  0  2  0  0  0  0  0  0  0  0  0
    0.2840   11.1840   -2.8510 O   0  0  0  0  0  0  0  0  0  0  0  0
    1.1000   13.9410   -5.0030 C   0  0  0  0  0  0  0  0  0  0  0  0
    0.7170   11.6530   -5.4980 O   0  0  0  0  0  0  0  0  0  0  0  0
  1  2  1  0
  2  3  2  3
  2  4  1  0
  3  5  1  0
  4  6  2  0
  4  7  1  0
  5  8  1  0
  6  9  1  0
  7 10  2  0
  9 10  1  0
  8 11  1  0
 10 12  1  0
 11 13  1  0
 12 14  1  0
 12 15  1  0
 14 15  1  0
 13 16  1  0
 13 17  2  0
 16 18  1  6
 16 19  1  0
M  END
