x0421_0_A-x0900_0_A
     RDKit          3D

 12 13  0  0  0  0  0  0  0  0999 V2000
   -3.8440   15.2000   -3.0300 N   0  0  0  0  0  0  0  0  0  0  0  0
   -3.0140   14.9800   -1.9750 C   0  0  0  0  0  0  0  0  0  0  0  0
   -1.8070   14.8740   -2.1660 O   0  0  0  0  0  0  0  0  0  0  0  0
   -3.6380   14.8770   -0.6900 C   0  0  0  0  0  0  0  0  0  0  0  0
   -3.0390   14.7740    0.5830 C   0  0  0  0  0  0  0  0  0  0  0  0
   -4.9870   14.8530   -0.4630 N   0  0  0  0  0  0  0  0  0  0  0  0
   -6.0180   14.9100   -1.1820 O   0  0  0  0  0  0  0  0  0  0  0  0
   -3.9820   14.6780    1.5890 N   0  0  0  0  0  0  0  0  0  0  0  0
   -5.1790   14.7230    0.9740 C   0  0  0  0  0  0  0  0  0  0  0  0
   -6.5380   14.6390    1.7120 C   0  0  0  0  0  0  0  0  0  0  0  0
   -7.8290   14.6850    0.9410 C   0  0  0  0  0  0  0  0  0  0  0  0
   -7.3750   13.3980    1.5700 C   0  0  0  0  0  0  0  0  0  0  0  0
  1  2  1  0
  2  3  2  0
  2  4  1  0
  4  5  2  0
  4  6  1  0
  6  7  1  0
  5  8  1  0
  6  9  2  0
  8  9  1  0
  9 10  1  0
 10 11  1  0
 10 12  1  0
 11 12  1  0
M  CHG  2   6   1   7  -1
M  END
