x0421_0_A-x0844_0_A
     RDKit          3D

 12 13  0  0  0  0  0  0  0  0999 V2000
   -3.9430   15.1580   -2.8390 N   0  0  0  0  0  0  0  0  0  0  0  0
   -3.0960   14.9610   -1.7860 C   0  0  0  0  0  0  0  0  0  0  0  0
   -1.8980   14.8230   -2.0000 O   0  0  0  0  0  0  0  0  0  0  0  0
   -3.7030   14.9250   -0.4830 C   0  0  0  0  0  0  0  0  0  0  0  0
   -3.0910   15.0150    0.7900 C   0  0  0  0  0  0  0  0  0  0  0  0
   -5.0380   14.7860   -0.2240 N   0  0  0  0  0  0  0  0  0  0  0  0
   -6.0980   14.6610   -0.9010 O   0  0  0  0  0  0  0  0  0  0  0  0
   -4.0080   14.9310    1.8310 N   0  0  0  0  0  0  0  0  0  0  0  0
   -5.2030   14.7870    1.2190 C   0  0  0  0  0  0  0  0  0  0  0  0
   -6.5650   14.6370    1.9450 C   0  0  0  0  0  0  0  0  0  0  0  0
   -7.8490   14.7050    1.1600 C   0  0  0  0  0  0  0  0  0  0  0  0
   -7.3720   13.3920    1.7120 C   0  0  0  0  0  0  0  0  0  0  0  0
  1  2  1  0
  2  3  2  0
  2  4  1  0
  4  5  2  0
  4  6  1  0
  6  7  1  0
  5  8  1  0
  6  9  2  0
  8  9  1  0
  9 10  1  0
 10 11  1  0
 10 12  1  0
 11 12  1  0
M  CHG  2   6   1   7  -1
M  END
