x0421_0_A-x0685_0_A
     RDKit          3D

 14 15  0  0  0  0  0  0  0  0999 V2000
   -3.3950   15.2070   -2.8340 N   0  0  0  0  0  0  0  0  0  0  0  0
   -2.7400   14.9600   -1.6600 C   0  0  0  0  0  0  0  0  0  0  0  0
   -1.5230   14.8280   -1.6150 O   0  0  0  0  0  0  0  0  0  0  0  0
   -3.6470   14.8590   -0.5210 C   0  0  0  0  0  0  0  0  0  0  0  0
   -3.3790   14.8350    0.8460 C   0  0  0  0  0  0  0  0  0  0  0  0
   -4.9940   14.7600   -0.7360 N   0  0  0  0  0  0  0  0  0  0  0  0
   -4.6160   14.7020    1.4510 N   0  0  0  0  0  0  0  0  0  0  0  0
   -5.5480   14.6610    0.4360 C   0  0  0  0  0  0  0  0  0  0  0  0
   -4.8630   14.6090    2.8700 N   0  0  0  0  0  0  0  0  0  0  0  0
   -7.0930   14.5090    0.5080 C   0  0  0  0  0  0  0  0  0  0  0  0
   -6.2500   14.8750    3.2980 C   0  0  0  0  0  0  0  0  0  0  0  0
   -7.9250   14.8120    1.7180 C   0  0  0  0  0  0  0  0  0  0  0  0
   -7.6470   13.3880    1.3360 C   0  0  0  0  0  0  0  0  0  0  0  0
   -7.0100   13.6520    3.8190 C   0  0  0  0  0  0  0  0  0  0  0  0
  1  2  1  0
  2  3  2  0
  2  4  1  0
  4  5  2  0
  4  6  1  0
  5  7  1  0
  6  8  2  0
  7  8  1  0
  7  9  1  0
  8 10  1  0
  9 11  1  0
 10 12  1  0
 10 13  1  0
 12 13  1  0
 11 14  1  0
M  END
