x0421_0_A_α-x0962_1_A_α
     RDKit          3D

 14 16  0  0  0  0  0  0  0  0999 V2000
   -3.6110   15.9110   -2.0210 N   0  0  0  0  0  0  0  0  0  0  0  0
   -3.5990   14.5240   -1.7570 C   0  0  2  0  0  0  0  0  0  0  0  0
   -2.4790   14.1030   -2.5130 O   0  0  0  0  0  0  0  0  0  0  0  0
   -4.9350   14.0570   -2.3050 C   0  0  0  0  0  0  0  0  0  0  0  0
   -3.5200   14.1230   -0.2650 C   0  0  1  0  0  0  0  0  0  0  0  0
   -2.2080   14.4680    0.3540 C   0  0  0  0  0  0  0  0  0  0  0  0
   -4.4980   14.8890    0.6300 C   0  0  1  0  0  0  0  0  0  0  0  0
   -5.9910   13.9900   -1.2000 C   0  0  1  0  0  0  0  0  0  0  0  0
   -3.6800   16.0770    0.8850 N   0  0  0  0  0  0  0  0  0  0  0  0
   -5.8460   15.0130   -0.0600 C   0  0  1  0  0  0  0  0  0  0  0  0
   -2.3740   15.6030    0.9750 C   0  0  0  0  0  0  0  0  0  0  0  0
   -7.4380   14.2290   -1.6240 C   0  0  0  0  0  0  0  0  0  0  0  0
   -8.1560   14.5670   -0.3030 C   0  0  0  0  0  0  0  0  0  0  0  0
   -7.0530   14.5590    0.7540 C   0  0  0  0  0  0  0  0  0  0  0  0
  2  1  1  1
  2  3  1  0
  2  4  1  0
  2  5  1  0
  5  6  1  1
  5  7  1  0
  8  4  1  6
  7  9  1  6
  7 10  1  0
  8 10  1  0
  6 11  2  0
  9 11  1  0
  8 12  1  0
 12 13  1  0
 10 14  1  1
 13 14  1  0
M  END
