x0421_0_A_α-x0905_0_A_α
     RDKit          3D

 12 13  0  0  0  0  0  0  0  0999 V2000
   -3.8440   15.1640   -3.0760 N   0  0  0  0  0  0  0  0  0  0  0  0
   -3.0310   14.9770   -2.0020 C   0  0  0  0  0  0  0  0  0  0  0  0
   -1.8180   14.8520   -2.1720 O   0  0  0  0  0  0  0  0  0  0  0  0
   -3.6560   14.9280   -0.7160 C   0  0  0  0  0  0  0  0  0  0  0  0
   -3.0110   14.9880    0.5030 C   0  0  0  0  0  0  0  0  0  0  0  0
   -4.9820   14.8110   -0.3730 N   0  0  0  0  0  0  0  0  0  0  0  0
   -6.0760   14.7170   -1.2430 O   0  0  0  0  0  0  0  0  0  0  0  0
   -3.8890   14.9060    1.5430 N   0  0  0  0  0  0  0  0  0  0  0  0
   -5.0760   14.7930    0.9870 C   0  0  0  0  0  0  0  0  0  0  0  0
   -6.3610   14.6560    1.8490 C   0  0  0  0  0  0  0  0  0  0  0  0
   -7.7200   14.7010    1.1930 C   0  0  0  0  0  0  0  0  0  0  0  0
   -7.2150   13.4240    1.8070 C   0  0  0  0  0  0  0  0  0  0  0  0
  1  2  1  0
  2  3  2  0
  2  4  1  0
  4  5  2  0
  4  6  1  0
  6  7  1  0
  5  8  1  0
  6  9  1  0
  8  9  2  0
  9 10  1  0
 10 11  1  0
 10 12  1  0
 11 12  1  0
M  END
