x0423_0_B_α-x0729_1_B_α
     RDKit          3D

 30 32  0  0  0  0  0  0  0  0999 V2000
   14.2070   25.8860   15.6390 N   0  0  0  0  0  0  0  0  0  0  0  0
   13.2030   26.9390   15.5800 C   0  0  0  0  0  0  0  0  0  0  0  0
   14.4230   25.2650   14.3280 C   0  0  2  0  0  0  0  0  0  0  0  0
   13.4570   24.0950   14.0160 C   0  0  0  0  0  0  0  0  0  0  0  0
   15.8800   24.7710   14.2060 C   0  0  0  0  0  0  0  0  0  0  0  0
   14.2560   22.9910   13.4570 N   0  0  0  0  0  0  0  0  0  0  0  0
   16.1310   24.4380   12.7310 C   0  0  1  0  0  0  0  0  0  0  0  0
   17.5920   24.1160   12.3260 C   0  0  0  0  0  0  0  0  0  0  0  0
   15.1140   23.3540   12.3060 C   0  0  0  0  0  0  0  0  0  0  0  0
   13.5730   21.7550   13.3040 C   0  0  0  0  0  0  0  0  0  0  0  0
   17.9430   24.2420   10.8150 C   0  0  0  0  0  0  0  0  0  0  0  0
   12.4800   21.4480   14.1090 C   0  0  0  0  0  0  0  0  0  0  0  0
   13.9770   20.8550   12.3820 N   0  0  0  0  0  0  0  0  0  0  0  0
   17.6090   25.5970   10.1670 C   0  0  0  0  0  0  0  0  0  0  0  0
   13.3390   19.6500   12.2220 N   0  0  0  0  0  0  0  0  0  0  0  0
   11.8260   20.2260   13.9570 C   0  0  0  0  0  0  0  0  0  0  0  0
   18.3620   25.8320    8.9090 N   0  0  0  0  0  0  0  0  0  0  0  0
   12.2900   19.3580   13.0020 C   0  0  0  0  0  0  0  0  0  0  0  0
   18.8100   27.2590    8.5450 S   0  0  2  0  0  0  0  0  0  0  0  0
   19.2670   28.2190    9.5310 O   0  0  0  0  0  0  0  0  0  0  0  0
   17.5470   28.1080    7.6250 C   0  0  0  0  0  0  0  0  0  0  0  0
   20.2250   27.0860    7.5150 N   0  0  0  0  0  0  0  0  0  0  0  0
   21.4610   27.7160    7.9910 C   0  0  0  0  0  0  0  0  0  0  0  0
   20.5620   26.0750    6.4670 C   0  0  1  0  0  0  0  0  0  0  0  0
   19.5910   24.9600    6.1070 C   0  0  0  0  0  0  0  0  0  0  0  0
   22.4440   28.0340    6.8700 C   0  0  0  0  0  0  0  0  0  0  0  0
   21.1190   26.7340    5.1680 C   0  0  1  0  0  0  0  0  0  0  0  0
   20.1730   26.8810    4.0370 C   0  0  0  0  0  0  0  0  0  0  0  0
   21.7670   28.0720    5.5020 C   0  0  0  0  0  0  0  0  0  0  0  0
   19.5060   27.0100    3.0960 N   0  0  0  0  0  0  0  0  0  0  0  0
  1  2  1  0
  3  1  1  1
  3  4  1  0
  3  5  1  0
  4  6  1  0
  5  7  1  0
  7  8  1  1
  6  9  1  0
  7  9  1  0
  6 10  1  0
  8 11  1  0
 10 12  2  0
 10 13  1  0
 11 14  1  0
 13 15  2  0
 12 16  1  0
 14 17  1  0
 15 18  1  0
 16 18  2  0
 17 19  2  0
 19 20  2  0
 19 21  1  6
 19 22  1  0
 22 23  1  0
 22 24  1  0
 24 25  1  6
 23 26  1  0
 24 27  1  0
 27 28  1  6
 26 29  1  0
 27 29  1  0
 28 30  3  0
M  END
