x0421_0_A_α-x0855_0_A_α
     RDKit          3D

 23 25  0  0  0  0  0  0  0  0999 V2000
   -3.6600   15.2230   -2.8120 N   0  0  0  0  0  0  0  0  0  0  0  0
   -2.8090   14.8750   -1.7980 C   0  0  0  0  0  0  0  0  0  0  0  0
   -1.5630   14.5510   -1.8220 N   0  0  0  0  0  0  0  0  0  0  0  0
   -3.4690   14.8800   -0.4920 C   0  0  0  0  0  0  0  0  0  0  0  0
   -0.8430   14.5140   -3.0950 C   0  0  0  0  0  0  0  0  0  0  0  0
   -2.8620   15.0300    0.7410 C   0  0  0  0  0  0  0  0  0  0  0  0
   -4.8430   14.7210   -0.3320 N   0  0  0  0  0  0  0  0  0  0  0  0
    0.6740   14.5970   -2.8300 C   0  0  0  0  0  0  0  0  0  0  0  0
   -3.8690   14.9580    1.6500 N   0  0  0  0  0  0  0  0  0  0  0  0
   -5.0330   14.7720    0.9710 C   0  0  0  0  0  0  0  0  0  0  0  0
    1.2290   13.2940   -2.5050 O   0  0  0  0  0  0  0  0  0  0  0  0
   -6.4030   14.6350    1.6810 C   0  0  0  0  0  0  0  0  0  0  0  0
    0.8340   12.2070   -3.2330 C   0  0  0  0  0  0  0  0  0  0  0  0
   -7.6760   14.6480    0.8760 C   0  0  0  0  0  0  0  0  0  0  0  0
   -7.1870   13.3670    1.4880 C   0  0  0  0  0  0  0  0  0  0  0  0
    0.6560   11.0860   -2.7700 O   0  0  0  0  0  0  0  0  0  0  0  0
    0.6330   12.5430   -4.6870 C   0  0  0  0  0  0  0  0  0  0  0  0
   -0.4130   11.6870   -5.1970 N   0  0  0  0  0  0  0  0  0  0  0  0
   -0.3020   10.7340   -6.1690 C   0  0  0  0  0  0  0  0  0  0  0  0
   -1.6650   11.7870   -4.6910 N   0  0  0  0  0  0  0  0  0  0  0  0
   -1.5470   10.1850   -6.2830 C   0  0  0  0  0  0  0  0  0  0  0  0
   -2.3530   10.8610   -5.3620 C   0  0  0  0  0  0  0  0  0  0  0  0
   -2.0980    8.8140   -7.4170 Br  0  0  0  0  0  0  0  0  0  0  0  0
  1  2  1  0
  2  3  2  3
  2  4  1  0
  3  5  1  0
  4  6  2  0
  4  7  1  0
  5  8  1  0
  6  9  1  0
  7 10  2  0
  9 10  1  0
  8 11  1  0
 10 12  1  0
 11 13  1  0
 12 14  1  0
 12 15  1  0
 14 15  1  0
 13 16  2  0
 13 17  1  0
 17 18  1  0
 18 19  1  0
 18 20  1  0
 19 21  2  0
 20 22  2  0
 21 22  1  0
 21 23  1  0
M  END
