x0421_0_A-x0591_0_A
     RDKit          3D

 25 27  0  0  0  0  0  0  0  0999 V2000
   -3.8600   15.6650   -2.4140 N   0  0  0  0  0  0  0  0  0  0  0  0
   -3.0780   15.1080   -1.4600 C   0  0  0  0  0  0  0  0  0  0  0  0
   -1.9130   14.7680   -1.6710 O   0  0  0  0  0  0  0  0  0  0  0  0
   -3.7300   14.9670   -0.1750 C   0  0  0  0  0  0  0  0  0  0  0  0
   -3.3280   15.5640    0.9830 C   0  0  0  0  0  0  0  0  0  0  0  0
   -4.8630   14.1880    0.0500 N   0  0  0  0  0  0  0  0  0  0  0  0
   -4.2090   15.1480    1.9230 N   0  0  0  0  0  0  0  0  0  0  0  0
   -5.1190   14.3200    1.3290 C   0  0  0  0  0  0  0  0  0  0  0  0
   -6.2740   13.6440    2.1350 C   0  0  1  0  0  0  0  0  0  0  0  0
   -7.2750   14.3350    3.0110 C   0  0  0  0  0  0  0  0  0  0  0  0
   -7.7200   13.8290    1.6770 C   0  0  1  0  0  0  0  0  0  0  0  0
   -8.0360   14.6590    0.4870 C   0  0  0  0  0  0  0  0  0  0  0  0
   -6.8650   14.6750   -0.3550 N   0  0  0  0  0  0  0  0  0  0  0  0
   -6.8310   13.7370   -1.3610 C   0  0  0  0  0  0  0  0  0  0  0  0
   -7.6910   12.8700   -1.4790 O   0  0  0  0  0  0  0  0  0  0  0  0
   -5.7100   13.7920   -2.3440 C   0  0  0  0  0  0  0  0  0  0  0  0
   -4.4690   13.1530   -2.1420 C   0  0  0  0  0  0  0  0  0  0  0  0
   -5.9240   14.5150   -3.5210 C   0  0  0  0  0  0  0  0  0  0  0  0
   -3.4590   13.2450   -3.1130 C   0  0  0  0  0  0  0  0  0  0  0  0
   -4.9220   14.6040   -4.4860 C   0  0  0  0  0  0  0  0  0  0  0  0
   -3.6990   13.9740   -4.2820 C   0  0  0  0  0  0  0  0  0  0  0  0
   -2.4610   14.1150   -5.5370 S   0  0  0  0  0  0  0  0  0  0  0  0
   -1.2820   15.1190   -4.8890 N   0  0  0  0  0  0  0  0  0  0  0  0
   -1.8270   12.8290   -5.7060 O   0  0  0  0  0  0  0  0  0  0  0  0
   -3.1060   14.8100   -6.6270 O   0  0  0  0  0  0  0  0  0  0  0  0
  1  2  1  0
  2  3  2  0
  2  4  1  0
  4  5  2  0
  4  6  1  0
  5  7  1  0
  6  8  2  0
  7  8  1  0
  9  8  1  6
  9 10  1  0
  9 11  1  0
 10 11  1  0
 11 12  1  6
 12 13  1  0
 13 14  1  0
 14 15  2  0
 14 16  1  0
 16 17  2  0
 16 18  1  0
 17 19  1  0
 18 20  2  0
 19 21  2  0
 20 21  1  0
 21 22  1  0
 22 23  1  0
 22 24  2  0
 22 25  2  0
M  END
