x0421_0_A-x0471_0_A
     RDKit          3D

 18 19  0  0  0  0  0  0  0  0999 V2000
   -3.7420   15.1550   -2.8600 N   0  0  0  0  0  0  0  0  0  0  0  0
   -2.8620   14.9410   -1.8400 C   0  0  0  0  0  0  0  0  0  0  0  0
   -1.6630   14.7840   -2.0370 O   0  0  0  0  0  0  0  0  0  0  0  0
   -3.4870   14.9150   -0.5210 C   0  0  0  0  0  0  0  0  0  0  0  0
   -2.8580   15.0650    0.7050 C   0  0  0  0  0  0  0  0  0  0  0  0
   -4.8470   14.7210   -0.3330 N   0  0  0  0  0  0  0  0  0  0  0  0
   -3.8510   14.9570    1.6330 N   0  0  0  0  0  0  0  0  0  0  0  0
   -5.0160   14.7500    0.9680 C   0  0  0  0  0  0  0  0  0  0  0  0
   -6.3830   14.5610    1.6650 C   0  0  1  0  0  0  0  0  0  0  0  0
   -7.6400   14.3290    0.8620 C   0  0  1  0  0  0  0  0  0  0  0  0
   -6.9700   13.1790    1.5590 C   0  0  0  0  0  0  0  0  0  0  0  0
   -8.9710   14.7630    1.3620 C   0  0  0  0  0  0  0  0  0  0  0  0
   -9.1380   14.2560    2.6990 N   0  0  0  0  0  0  0  0  0  0  0  0
   -9.0750   15.1100    3.7720 C   0  0  0  0  0  0  0  0  0  0  0  0
   -9.2880   16.3140    3.6600 O   0  0  0  0  0  0  0  0  0  0  0  0
   -8.7370   14.4660    5.1100 C   0  0  0  0  0  0  0  0  0  0  0  0
   -9.9140   13.6490    5.6390 C   0  0  0  0  0  0  0  0  0  0  0  0
   -8.2750   15.5140    6.1200 C   0  0  0  0  0  0  0  0  0  0  0  0
  1  2  1  0
  2  3  2  0
  2  4  1  0
  4  5  2  0
  4  6  1  0
  5  7  1  0
  6  8  2  0
  7  8  1  0
  9  8  1  6
  9 10  1  0
  9 11  1  0
 10 11  1  0
 10 12  1  1
 12 13  1  0
 13 14  1  0
 14 15  2  0
 14 16  1  0
 16 17  1  0
 16 18  1  0
M  END
