x0423_0_B_α-x0228_1_A_α
     RDKit          3D

 26 28  0  0  0  0  0  0  0  0999 V2000
   14.1380   25.9430   15.6610 N   0  0  0  0  0  0  0  0  0  0  0  0
   12.9690   26.8160   15.6530 C   0  0  0  0  0  0  0  0  0  0  0  0
   12.0790   26.5870   16.8850 C   0  0  0  0  0  0  0  0  0  0  0  0
   14.2870   25.1940   14.4100 C   0  0  2  0  0  0  0  0  0  0  0  0
   13.4060   23.9280   14.2730 C   0  0  0  0  0  0  0  0  0  0  0  0
   15.7720   24.8590   14.1960 C   0  0  0  0  0  0  0  0  0  0  0  0
   10.6710   26.0300   16.6010 C   0  0  0  0  0  0  0  0  0  0  0  0
   14.1160   22.8950   13.5110 N   0  0  0  0  0  0  0  0  0  0  0  0
   16.0060   24.2620   12.8050 C   0  0  0  0  0  0  0  0  0  0  0  0
    9.7480   27.0010   15.8560 C   0  0  0  0  0  0  0  0  0  0  0  0
   14.8250   23.4070   12.3430 C   0  0  0  0  0  0  0  0  0  0  0  0
   13.4840   21.6610   13.3470 C   0  0  0  0  0  0  0  0  0  0  0  0
    8.2940   27.0820   16.3790 C   0  0  0  0  0  0  0  0  0  0  0  0
   12.4020   21.3330   14.1490 C   0  0  0  0  0  0  0  0  0  0  0  0
   13.9160   20.7770   12.4250 N   0  0  0  0  0  0  0  0  0  0  0  0
   13.3070   19.5600   12.2660 N   0  0  0  0  0  0  0  0  0  0  0  0
   11.7830   20.1060   13.9970 C   0  0  0  0  0  0  0  0  0  0  0  0
    7.6840   25.8320   16.8810 N   0  0  0  0  0  0  0  0  0  0  0  0
   12.2610   19.2480   13.0470 C   0  0  0  0  0  0  0  0  0  0  0  0
    7.1460   26.2040   18.1980 N   0  0  0  0  0  0  0  0  0  0  0  0
    6.4960   25.3740   16.1060 C   0  0  0  0  0  0  0  0  0  0  0  0
    5.3770   25.3060   17.0360 N   0  0  0  0  0  0  0  0  0  0  0  0
    5.7190   26.3950   17.9340 C   0  0  0  0  0  0  0  0  0  0  0  0
    4.1410   25.4340   16.3590 N   0  0  0  0  0  0  0  0  0  0  0  0
    3.7820   26.6530   15.8470 C   0  0  0  0  0  0  0  0  0  0  0  0
    3.9530   27.7510   16.3600 O   0  0  0  0  0  0  0  0  0  0  0  0
  1  2  1  0
  2  3  1  0
  4  1  1  1
  4  5  1  0
  4  6  1  0
  3  7  1  0
  5  8  1  0
  6  9  1  0
  7 10  1  0
  8 11  1  0
  9 11  1  0
  8 12  1  0
 10 13  1  0
 12 14  2  0
 12 15  1  0
 15 16  2  0
 14 17  1  0
 13 18  1  0
 16 19  1  0
 17 19  2  0
 18 20  1  0
 18 21  1  0
 21 22  1  0
 20 23  1  0
 22 23  1  0
 22 24  1  0
 24 25  1  0
 25 26  2  0
M  END
