x0421_0_A-x0967_0_A
     RDKit          3D

 11 12  0  0  0  0  0  0  0  0999 V2000
   -3.7660   15.1280   -2.8540 N   0  0  0  0  0  0  0  0  0  0  0  0
   -2.8910   14.9120   -1.8320 C   0  0  0  0  0  0  0  0  0  0  0  0
   -1.6920   14.7500   -2.0270 O   0  0  0  0  0  0  0  0  0  0  0  0
   -3.5170   14.8930   -0.5120 C   0  0  0  0  0  0  0  0  0  0  0  0
   -2.8770   15.0160    0.7070 C   0  0  0  0  0  0  0  0  0  0  0  0
   -4.8850   14.7390   -0.3190 N   0  0  0  0  0  0  0  0  0  0  0  0
   -3.8660   14.9340    1.6410 N   0  0  0  0  0  0  0  0  0  0  0  0
   -5.0460   14.7670    0.9830 C   0  0  0  0  0  0  0  0  0  0  0  0
   -6.4060   14.6270    1.7130 C   0  0  0  0  0  0  0  0  0  0  0  0
   -7.6880   14.6510    0.9240 C   0  0  0  0  0  0  0  0  0  0  0  0
   -7.1970   13.3640    1.5210 C   0  0  0  0  0  0  0  0  0  0  0  0
  1  2  1  0
  2  3  2  0
  2  4  1  0
  4  5  2  0
  4  6  1  0
  5  7  1  0
  6  8  2  0
  7  8  1  0
  8  9  1  0
  9 10  1  0
  9 11  1  0
 10 11  1  0
M  END
