x0421_0_A-x1012_0_A
     RDKit          3D

 23 25  0  0  0  0  0  0  0  0999 V2000
   -3.7720   15.3720   -2.7710 N   0  0  0  0  0  0  0  0  0  0  0  0
   -2.9590   14.8750   -1.7840 C   0  0  0  0  0  0  0  0  0  0  0  0
   -1.7360   14.4890   -1.8310 N   0  0  0  0  0  0  0  0  0  0  0  0
   -3.5990   14.8330   -0.4750 C   0  0  0  0  0  0  0  0  0  0  0  0
   -2.9540   14.9340    0.7460 C   0  0  0  0  0  0  0  0  0  0  0  0
   -4.9570   14.6930   -0.2710 N   0  0  0  0  0  0  0  0  0  0  0  0
   -0.9520   14.6040   -3.0620 C   0  0  2  0  0  0  0  0  0  0  0  0
   -3.9310   14.8570    1.6840 N   0  0  0  0  0  0  0  0  0  0  0  0
   -5.1180   14.7110    1.0320 C   0  0  0  0  0  0  0  0  0  0  0  0
   -1.6900   15.0970   -4.2800 C   0  0  0  0  0  0  0  0  0  0  0  0
   -0.1100   13.4450   -3.5310 C   0  0  2  0  0  0  0  0  0  0  0  0
    0.3090   12.5330   -2.3940 C   0  0  0  0  0  0  0  0  0  0  0  0
   -6.4930   14.5810    1.7280 C   0  0  0  0  0  0  0  0  0  0  0  0
    1.0070   14.1150   -4.3570 C   0  0  0  0  0  0  0  0  0  0  0  0
   -0.7600   15.9660   -4.9660 N   0  0  0  0  0  0  0  0  0  0  0  0
   -1.1850   17.2730   -4.8780 C   0  0  0  0  0  0  0  0  0  0  0  0
    0.4140   11.2390   -2.7850 O   0  0  0  0  0  0  0  0  0  0  0  0
    0.5360   12.8160   -1.2320 O   0  0  0  0  0  0  0  0  0  0  0  0
   -7.7670   14.6520    0.9320 C   0  0  0  0  0  0  0  0  0  0  0  0
   -7.3190   13.3450    1.5200 C   0  0  0  0  0  0  0  0  0  0  0  0
    0.6810   15.5790   -4.8090 C   0  0  0  0  0  0  0  0  0  0  0  0
   -0.2500   18.2300   -4.7280 N   0  0  0  0  0  0  0  0  0  0  0  0
   -2.3600   17.6290   -4.9040 O   0  0  0  0  0  0  0  0  0  0  0  0
  1  2  1  0
  2  3  2  3
  2  4  1  0
  4  5  2  0
  4  6  1  0
  7  3  1  1
  5  8  1  0
  6  9  2  0
  8  9  1  0
  7 10  1  0
  7 11  1  0
 11 12  1  1
  9 13  1  0
 11 14  1  0
 10 15  1  0
 15 16  1  0
 12 17  1  0
 12 18  2  0
 13 19  1  0
 13 20  1  0
 19 20  1  0
 14 21  1  0
 15 21  1  0
 16 22  1  0
 16 23  2  0
M  END
