x0421_0_A_α-x0524_0_A_α
     RDKit          3D

 33 36  0  0  0  0  0  0  0  0999 V2000
   -3.7960   15.3190   -2.9490 N   0  0  0  0  0  0  0  0  0  0  0  0
   -2.8690   15.0180   -1.9920 C   0  0  0  0  0  0  0  0  0  0  0  0
   -1.5960   14.8660   -2.0940 N   0  0  0  0  0  0  0  0  0  0  0  0
   -3.4950   14.8750   -0.6790 C   0  0  0  0  0  0  0  0  0  0  0  0
   -0.9580   15.0440   -3.4030 C   0  0  0  0  0  0  0  0  0  0  0  0
   -2.8610   14.7300    0.5430 C   0  0  0  0  0  0  0  0  0  0  0  0
   -4.8800   14.8680   -0.5030 N   0  0  0  0  0  0  0  0  0  0  0  0
   -0.4710   13.7290   -3.9870 C   0  0  0  0  0  0  0  0  0  0  0  0
   -3.8690   14.6280    1.4480 N   0  0  0  0  0  0  0  0  0  0  0  0
   -5.0490   14.7160    0.7900 C   0  0  0  0  0  0  0  0  0  0  0  0
    0.6620   13.8130   -5.0100 C   0  0  0  0  0  0  0  0  0  0  0  0
   -6.4130   14.6330    1.5310 C   0  0  0  0  0  0  0  0  0  0  0  0
    0.8970   12.4980   -5.7510 C   0  0  0  0  0  0  0  0  0  0  0  0
   -7.7000   14.6760    0.7560 C   0  0  0  0  0  0  0  0  0  0  0  0
   -7.2430   13.3920    1.3820 C   0  0  0  0  0  0  0  0  0  0  0  0
   -0.3820   11.7540   -6.1420 C   0  0  0  0  0  0  0  0  0  0  0  0
   -0.0940   10.6840   -7.0770 N   0  0  0  0  0  0  0  0  0  0  0  0
   -0.7430    9.5760   -7.1670 C   0  0  0  0  0  0  0  0  0  0  0  0
   -0.4130    8.5910   -8.0770 N   0  0  0  0  0  0  0  0  0  0  0  0
   -1.9310    9.2420   -6.2720 C   0  0  0  0  0  0  0  0  0  0  0  0
    0.6190    8.5890   -9.0370 C   0  0  0  0  0  0  0  0  0  0  0  0
    1.7560    7.7900   -8.9490 C   0  0  0  0  0  0  0  0  0  0  0  0
    0.5120    9.4330  -10.1500 C   0  0  0  0  0  0  0  0  0  0  0  0
    2.7540    7.8230   -9.9320 C   0  0  0  0  0  0  0  0  0  0  0  0
    1.5070    9.4690  -11.1360 C   0  0  0  0  0  0  0  0  0  0  0  0
    2.6410    8.6660  -11.0420 C   0  0  0  0  0  0  0  0  0  0  0  0
    3.6570    8.6750  -12.0080 N   0  0  0  0  0  0  0  0  0  0  0  0
    3.9420    9.5560  -13.0630 C   0  0  0  0  0  0  0  0  0  0  0  0
    3.2140   10.7280  -13.3070 C   0  0  0  0  0  0  0  0  0  0  0  0
    5.0080    9.2530  -13.9180 C   0  0  0  0  0  0  0  0  0  0  0  0
    3.5420   11.5680  -14.3700 C   0  0  0  0  0  0  0  0  0  0  0  0
    5.3390   10.0930  -14.9830 C   0  0  0  0  0  0  0  0  0  0  0  0
    4.6020   11.2530  -15.2080 C   0  0  0  0  0  0  0  0  0  0  0  0
  1  2  1  0
  2  3  2  3
  2  4  1  0
  3  5  1  0
  4  6  2  0
  4  7  1  0
  5  8  1  0
  6  9  1  0
  7 10  2  0
  9 10  1  0
  8 11  1  0
 10 12  1  0
 11 13  1  0
 12 14  1  0
 12 15  1  0
 14 15  1  0
 13 16  1  0
 16 17  1  0
 17 18  2  3
 18 19  1  0
 18 20  1  0
 19 21  1  0
 21 22  2  0
 21 23  1  0
 22 24  1  0
 23 25  2  0
 24 26  2  0
 25 26  1  0
 26 27  1  0
 27 28  1  0
 28 29  2  0
 28 30  1  0
 29 31  1  0
 30 32  2  0
 31 33  2  0
 32 33  1  0
M  END
