x0421_0_A-x0722_0_A
     RDKit          3D

 16 17  0  0  0  0  0  0  0  0999 V2000
   -3.7210   15.2800   -2.8140 N   0  0  0  0  0  0  0  0  0  0  0  0
   -2.8540   14.8820   -1.8370 C   0  0  0  0  0  0  0  0  0  0  0  0
   -1.6420   14.9210   -2.0520 O   0  0  0  0  0  0  0  0  0  0  0  0
   -3.4500   14.3820   -0.5100 C   0  0  1  0  0  0  0  0  0  0  0  0
   -2.8120   14.9980    0.7520 C   0  0  2  0  0  0  0  0  0  0  0  0
   -4.8560   14.6360   -0.2190 N   0  0  0  0  0  0  0  0  0  0  0  0
   -1.3730   14.4620    1.0120 C   0  0  0  0  0  0  0  0  0  0  0  0
   -3.8430   14.6940    1.7680 N   0  0  0  0  0  0  0  0  0  0  0  0
   -4.9890   14.1020    1.0990 C   0  0  1  0  0  0  0  0  0  0  0  0
   -5.9540   14.4600   -0.9850 C   0  0  0  0  0  0  0  0  0  0  0  0
   -4.3440   15.8340    2.4800 C   0  0  0  0  0  0  0  0  0  0  0  0
   -6.3370   14.4520    1.7160 C   0  0  0  0  0  0  0  0  0  0  0  0
   -6.5870   15.3440   -1.5450 O   0  0  0  0  0  0  0  0  0  0  0  0
   -6.3670   13.1800   -1.0920 N   0  0  0  0  0  0  0  0  0  0  0  0
   -7.6500   14.6330    0.9720 C   0  0  0  0  0  0  0  0  0  0  0  0
   -7.4520   13.4430    1.8600 C   0  0  0  0  0  0  0  0  0  0  0  0
  1  2  1  0
  2  3  2  0
  4  2  1  6
  4  5  1  0
  4  6  1  0
  5  7  1  1
  5  8  1  0
  6  9  1  0
  8  9  1  0
  6 10  1  0
  8 11  1  0
  9 12  1  1
 10 13  2  0
 10 14  1  0
 12 15  1  0
 12 16  1  0
 15 16  1  0
M  END
