x0438_0_A-x0933_0_A
     RDKit          3D

 15 16  0  0  0  0  0  0  0  0999 V2000
   -8.1980   15.4650    3.7660 C   0  0  0  0  0  0  0  0  0  0  0  0
   -9.4650   15.3170    2.5160 S   0  0  0  0  0  0  0  0  0  0  0  0
  -10.6790   14.8360    3.1580 O   0  0  0  0  0  0  0  0  0  0  0  0
   -8.9180   14.0470    1.3870 C   0  0  0  0  0  0  0  0  0  0  0  0
   -9.5180   16.5530    1.7630 O   0  0  0  0  0  0  0  0  0  0  0  0
   -7.5860   14.3730    0.8270 C   0  0  0  0  0  0  0  0  0  0  0  0
   -7.3480   14.6660   -0.5020 N   0  0  0  0  0  0  0  0  0  0  0  0
   -6.4840   14.4180    1.5110 N   0  0  0  0  0  0  0  0  0  0  0  0
   -5.4940   14.7430    0.6250 C   0  0  0  0  0  0  0  0  0  0  0  0
   -6.0010   14.9040   -0.6490 C   0  0  0  0  0  0  0  0  0  0  0  0
   -5.2040   15.2360   -1.7480 C   0  0  0  0  0  0  0  0  0  0  0  0
   -4.1400   14.9100    0.8640 C   0  0  0  0  0  0  0  0  0  0  0  0
   -3.6320   14.7590    2.1500 N   0  0  0  0  0  0  0  0  0  0  0  0
   -3.8360   15.3940   -1.4990 C   0  0  0  0  0  0  0  0  0  0  0  0
   -3.3100   15.2320   -0.2130 C   0  0  0  0  0  0  0  0  0  0  0  0
  2  1  1  0
  2  3  2  0
  2  4  1  0
  2  5  2  0
  4  6  1  0
  6  7  1  0
  6  8  2  0
  8  9  1  0
  7 10  1  0
  9 10  2  0
 10 11  1  0
  9 12  1  0
 12 13  1  0
 11 14  2  0
 12 15  2  0
 14 15  1  0
M  END
