x0438_0_A_α-x0104_0_A_α
     RDKit          3D

 20 22  0  0  0  0  0  0  0  0999 V2000
   -8.1400   15.5500    3.6590 C   0  0  0  0  0  0  0  0  0  0  0  0
   -9.3790   15.3220    2.3320 S   0  0  0  0  0  0  0  0  0  0  0  0
  -10.6350   14.8530    2.8980 O   0  0  0  0  0  0  0  0  0  0  0  0
   -8.3210   14.7460    4.8550 N   0  0  0  0  0  0  0  0  0  0  0  0
   -8.7530   13.9920    1.3360 C   0  0  0  0  0  0  0  0  0  0  0  0
   -9.4160   16.5000    1.4960 O   0  0  0  0  0  0  0  0  0  0  0  0
   -9.4120   14.8820    5.6410 C   0  0  0  0  0  0  0  0  0  0  0  0
   -7.4100   14.3130    0.8200 C   0  0  0  0  0  0  0  0  0  0  0  0
   -9.3730   15.1340    6.9930 C   0  0  0  0  0  0  0  0  0  0  0  0
  -11.0340   14.7640    5.0930 S   0  0  0  0  0  0  0  0  0  0  0  0
   -7.1730   14.7060   -0.4720 N   0  0  0  0  0  0  0  0  0  0  0  0
   -6.2960   14.2580    1.5050 N   0  0  0  0  0  0  0  0  0  0  0  0
  -10.6720   15.2270    7.5740 C   0  0  0  0  0  0  0  0  0  0  0  0
  -11.6670   15.0430    6.6460 C   0  0  0  0  0  0  0  0  0  0  0  0
   -5.2990   14.6210    0.6380 C   0  0  0  0  0  0  0  0  0  0  0  0
   -5.8270   14.9070   -0.6130 C   0  0  0  0  0  0  0  0  0  0  0  0
   -5.0530   15.2990   -1.6960 C   0  0  0  0  0  0  0  0  0  0  0  0
   -3.9190   14.7250    0.8480 C   0  0  0  0  0  0  0  0  0  0  0  0
   -3.6790   15.3940   -1.4750 C   0  0  0  0  0  0  0  0  0  0  0  0
   -3.1180   15.1110   -0.2240 C   0  0  0  0  0  0  0  0  0  0  0  0
  2  1  1  0
  2  3  2  0
  1  4  1  0
  2  5  1  0
  2  6  2  0
  4  7  1  0
  5  8  1  0
  7  9  2  0
  7 10  1  0
  8 11  1  0
  8 12  2  0
  9 13  1  0
 10 14  1  0
 13 14  2  0
 12 15  1  0
 11 16  1  0
 15 16  2  0
 16 17  1  0
 15 18  1  0
 17 19  2  0
 18 20  2  0
 19 20  1  0
M  END
