x0438_0_A-x0805_0_A
     RDKit          3D

 30 33  0  0  0  0  0  0  0  0999 V2000
   -8.4210   15.5790    3.8900 C   0  0  0  0  0  0  0  0  0  0  0  0
   -9.7410   15.4050    2.7060 S   0  0  0  0  0  0  0  0  0  0  0  0
  -10.9390   15.0070    3.4160 O   0  0  0  0  0  0  0  0  0  0  0  0
   -9.2380   14.0210    1.7160 C   0  0  0  0  0  0  0  0  0  0  0  0
   -9.7490   16.5850    1.8700 O   0  0  0  0  0  0  0  0  0  0  0  0
   -7.9420   14.3570    1.1260 C   0  0  0  0  0  0  0  0  0  0  0  0
   -7.7600   14.8720   -0.1360 N   0  0  0  0  0  0  0  0  0  0  0  0
   -6.8170   14.2050    1.7590 N   0  0  0  0  0  0  0  0  0  0  0  0
   -5.8750   14.6350    0.8960 C   0  0  0  0  0  0  0  0  0  0  0  0
   -6.4300   15.0650   -0.3090 C   0  0  0  0  0  0  0  0  0  0  0  0
   -5.6960   15.5600   -1.3730 C   0  0  0  0  0  0  0  0  0  0  0  0
   -4.5350   14.6720    1.1000 C   0  0  0  0  0  0  0  0  0  0  0  0
   -4.3430   15.5920   -1.1600 C   0  0  0  0  0  0  0  0  0  0  0  0
   -3.8200   15.1460    0.0540 C   0  0  0  0  0  0  0  0  0  0  0  0
   -2.5390   15.1850    0.0970 O   0  0  0  0  0  0  0  0  0  0  0  0
   -2.4480   14.5390   -1.0740 C   0  0  0  0  0  0  0  0  0  0  0  0
   -3.5370   13.7570   -1.5100 C   0  0  0  0  0  0  0  0  0  0  0  0
   -1.3550   14.6490   -1.8030 C   0  0  0  0  0  0  0  0  0  0  0  0
   -3.4610   13.0950   -2.7360 C   0  0  0  0  0  0  0  0  0  0  0  0
   -1.2570   14.0190   -2.9830 C   0  0  0  0  0  0  0  0  0  0  0  0
   -2.2970   13.2270   -3.4940 C   0  0  0  0  0  0  0  0  0  0  0  0
    0.0450   14.2930   -3.5710 C   0  0  1  0  0  0  0  0  0  0  0  0
    1.0960   13.2670   -3.2410 C   0  0  1  0  0  0  0  0  0  0  0  0
    0.2000   14.9320   -4.8990 C   0  0  0  0  0  0  0  0  0  0  0  0
    0.6170   12.0510   -2.5070 C   0  0  0  0  0  0  0  0  0  0  0  0
    1.9540   13.0690   -4.4450 C   0  0  0  0  0  0  0  0  0  0  0  0
    1.6000   15.4500   -4.7780 C   0  0  0  0  0  0  0  0  0  0  0  0
    0.3280   10.9730   -3.2640 O   0  0  0  0  0  0  0  0  0  0  0  0
    0.4820   12.0510   -1.3040 O   0  0  0  0  0  0  0  0  0  0  0  0
    2.5320   14.3460   -4.6640 O   0  0  0  0  0  0  0  0  0  0  0  0
  2  1  1  0
  2  3  2  0
  2  4  1  0
  2  5  2  0
  4  6  1  0
  6  7  1  0
  6  8  2  0
  8  9  1  0
  7 10  1  0
  9 10  2  0
 10 11  1  0
  9 12  1  0
 11 13  2  0
 12 14  2  0
 13 14  1  0
 14 15  1  0
 15 16  1  0
 16 17  2  0
 16 18  1  0
 17 19  1  0
 18 20  2  0
 19 21  2  0
 20 21  1  0
 22 20  1  6
 22 23  1  0
 22 24  1  0
 23 25  1  6
 23 26  1  0
 24 27  1  0
 25 28  1  0
 25 29  2  0
 26 30  1  0
 27 30  1  0
M  END
