x0438_0_A-x0290_0_A
     RDKit          3D

 26 28  0  0  0  0  0  0  0  0999 V2000
   -8.0810   15.6730    4.0250 C   0  0  0  0  0  0  0  0  0  0  0  0
   -8.9910   15.2580    2.5480 S   0  0  0  0  0  0  0  0  0  0  0  0
  -10.1850   14.5510    3.0090 O   0  0  0  0  0  0  0  0  0  0  0  0
   -7.9740   14.0400    1.5930 C   0  0  2  0  0  0  0  0  0  0  0  0
   -9.2210   16.4650    1.7910 O   0  0  0  0  0  0  0  0  0  0  0  0
   -8.8640   13.1660    0.7180 C   0  0  0  0  0  0  0  0  0  0  0  0
   -6.7390   13.3790    2.3020 C   0  0  0  0  0  0  0  0  0  0  0  0
   -6.9190   14.5780    0.7300 C   0  0  0  0  0  0  0  0  0  0  0  0
   -5.4150   13.4010    1.4260 C   0  0  0  0  0  0  0  0  0  0  0  0
   -6.8860   14.6560   -0.6330 N   0  0  0  0  0  0  0  0  0  0  0  0
   -5.8190   14.9940    1.2820 N   0  0  0  0  0  0  0  0  0  0  0  0
   -5.4210   12.9600    0.2650 O   0  0  0  0  0  0  0  0  0  0  0  0
   -4.1710   13.9210    1.8320 N   0  0  0  0  0  0  0  0  0  0  0  0
   -5.0060   15.3170    0.2740 C   0  0  0  0  0  0  0  0  0  0  0  0
   -5.6300   15.1170   -0.9480 C   0  0  0  0  0  0  0  0  0  0  0  0
   -4.9950   15.3600   -2.1450 C   0  0  0  0  0  0  0  0  0  0  0  0
   -3.7010   15.7800    0.3520 C   0  0  0  0  0  0  0  0  0  0  0  0
   -2.9090   14.1200    1.1660 C   0  0  0  0  0  0  0  0  0  0  0  0
   -3.6720   15.8090   -2.0640 C   0  0  0  0  0  0  0  0  0  0  0  0
   -3.0360   16.0170   -0.8400 C   0  0  0  0  0  0  0  0  0  0  0  0
   -1.7900   14.3430    1.8940 N   0  0  0  0  0  0  0  0  0  0  0  0
   -2.8240   14.0870   -0.2360 C   0  0  0  0  0  0  0  0  0  0  0  0
   -0.6080   14.5300    1.2670 C   0  0  0  0  0  0  0  0  0  0  0  0
   -1.5780   14.2920   -0.8770 C   0  0  0  0  0  0  0  0  0  0  0  0
   -1.4530   14.2720   -2.3700 C   0  0  0  0  0  0  0  0  0  0  0  0
   -0.4490   14.5170   -0.0960 C   0  0  0  0  0  0  0  0  0  0  0  0
  2  1  1  0
  2  3  2  0
  2  4  1  0
  2  5  2  0
  4  6  1  6
  4  7  1  0
  4  8  1  0
  7  9  1  0
  8 10  1  0
  8 11  2  0
  9 12  2  0
  9 13  1  0
 11 14  1  0
 10 15  1  0
 14 15  2  0
 15 16  1  0
 14 17  1  0
 13 18  1  0
 16 19  2  0
 17 20  2  0
 19 20  1  0
 18 21  2  0
 18 22  1  0
 21 23  1  0
 22 24  2  0
 24 25  1  0
 23 26  2  0
 24 26  1  0
M  END
