x0438_0_A_α-x0592_0_A_α
     RDKit          3D

 18 19  0  0  0  0  0  0  0  0999 V2000
   -8.1720   15.7220    3.9200 C   0  0  0  0  0  0  0  0  0  0  0  0
   -9.0740   15.3100    2.4360 S   0  0  0  0  0  0  0  0  0  0  0  0
  -10.3030   14.6650    2.8860 O   0  0  0  0  0  0  0  0  0  0  0  0
   -8.0700   14.0650    1.6020 C   0  0  2  0  0  0  0  0  0  0  0  0
   -9.2190   16.4730    1.5930 O   0  0  0  0  0  0  0  0  0  0  0  0
   -7.7520   12.9220    2.4960 C   0  0  0  0  0  0  0  0  0  0  0  0
   -6.9130   14.4340    0.6760 C   0  0  0  0  0  0  0  0  0  0  0  0
   -7.1930   14.6600   -0.6090 N   0  0  0  0  0  0  0  0  0  0  0  0
   -5.4850   14.5850    0.8150 N   0  0  0  0  0  0  0  0  0  0  0  0
   -4.3490   14.5680    1.5950 C   0  0  0  0  0  0  0  0  0  0  0  0
   -4.9840   14.8590   -0.3420 C   0  0  0  0  0  0  0  0  0  0  0  0
   -5.9880   14.9100   -1.2270 C   0  0  0  0  0  0  0  0  0  0  0  0
   -4.1980   15.6300    2.3770 N   0  0  0  0  0  0  0  0  0  0  0  0
   -3.5090   13.6960    1.4170 O   0  0  0  0  0  0  0  0  0  0  0  0
   -5.6360   15.1850   -2.5390 C   0  0  0  0  0  0  0  0  0  0  0  0
   -3.6370   15.0510   -0.5930 C   0  0  0  0  0  0  0  0  0  0  0  0
   -4.2720   15.3790   -2.8480 C   0  0  0  0  0  0  0  0  0  0  0  0
   -3.2900   15.3100   -1.8790 C   0  0  0  0  0  0  0  0  0  0  0  0
  2  1  1  0
  2  3  2  0
  2  4  1  0
  2  5  2  0
  4  6  1  1
  4  7  1  0
  7  8  2  0
  7  9  1  0
  9 10  1  0
  9 11  1  0
  8 12  1  0
 11 12  2  0
 10 13  1  0
 10 14  2  0
 12 15  1  0
 11 16  1  0
 15 17  2  0
 16 18  2  0
 17 18  1  0
M  END
