x0438_0_A_α-x0900_0_A_α
     RDKit          3D

 15 16  0  0  0  0  0  0  0  0999 V2000
   -8.2690   15.6790    3.9800 C   0  0  0  0  0  0  0  0  0  0  0  0
   -9.3930   15.3370    2.6370 S   0  0  0  0  0  0  0  0  0  0  0  0
  -10.6150   14.8350    3.2430 O   0  0  0  0  0  0  0  0  0  0  0  0
   -8.6870   13.9790    1.7570 C   0  0  0  0  0  0  0  0  0  0  0  0
   -9.4600   16.4850    1.7600 O   0  0  0  0  0  0  0  0  0  0  0  0
   -7.3640   14.3180    1.1820 C   0  0  0  0  0  0  0  0  0  0  0  0
   -7.2730   14.6000   -0.1670 N   0  0  0  0  0  0  0  0  0  0  0  0
   -6.2550   14.3650    1.8700 N   0  0  0  0  0  0  0  0  0  0  0  0
   -5.3090   14.6760    0.9420 C   0  0  0  0  0  0  0  0  0  0  0  0
   -6.0050   14.8300   -0.3140 C   0  0  0  0  0  0  0  0  0  0  0  0
   -5.2730   15.1920   -1.5310 C   0  0  0  0  0  0  0  0  0  0  0  0
   -3.9890   14.8290    1.0120 C   0  0  0  0  0  0  0  0  0  0  0  0
   -5.8890   15.3400   -2.5520 O   0  0  0  0  0  0  0  0  0  0  0  0
   -3.8010   15.3300   -1.3870 C   0  0  0  0  0  0  0  0  0  0  0  0
   -3.2300   15.1500   -0.1800 C   0  0  0  0  0  0  0  0  0  0  0  0
  2  1  1  0
  2  3  2  0
  2  4  1  0
  2  5  2  0
  4  6  1  0
  6  7  1  0
  6  8  2  0
  8  9  1  0
  7 10  2  0
  9 10  1  0
 10 11  1  0
  9 12  2  0
 11 13  2  0
 11 14  1  0
 12 15  1  0
 14 15  2  0
M  END
