x0438_0_A-x0962_0_A
     RDKit          3D

 15 16  0  0  0  0  0  0  0  0999 V2000
   -8.1630   15.5250    3.8840 C   0  0  0  0  0  0  0  0  0  0  0  0
   -9.3780   15.3560    2.5870 S   0  0  0  0  0  0  0  0  0  0  0  0
  -10.5920   14.8520    3.2030 O   0  0  0  0  0  0  0  0  0  0  0  0
   -8.7800   14.0590    1.5190 C   0  0  0  0  0  0  0  0  0  0  0  0
   -9.4480   16.5700    1.8030 O   0  0  0  0  0  0  0  0  0  0  0  0
   -7.4210   14.3350    0.9760 C   0  0  0  0  0  0  0  0  0  0  0  0
   -7.1790   14.5360   -0.3630 N   0  0  0  0  0  0  0  0  0  0  0  0
   -6.3050   14.4150    1.6650 N   0  0  0  0  0  0  0  0  0  0  0  0
   -5.3090   14.6570    0.7520 C   0  0  0  0  0  0  0  0  0  0  0  0
   -5.8300   14.7380   -0.5290 C   0  0  0  0  0  0  0  0  0  0  0  0
   -5.0540   14.9710   -1.6620 C   0  0  0  0  0  0  0  0  0  0  0  0
   -3.9280   14.8160    0.9440 C   0  0  0  0  0  0  0  0  0  0  0  0
   -3.6730   15.1160   -1.4710 C   0  0  0  0  0  0  0  0  0  0  0  0
   -3.1260   15.0410   -0.1810 C   0  0  0  0  0  0  0  0  0  0  0  0
   -2.8430   15.3240   -2.5800 N   0  0  0  0  0  0  0  0  0  0  0  0
  2  1  1  0
  2  3  2  0
  2  4  1  0
  2  5  2  0
  4  6  1  0
  6  7  1  0
  6  8  2  0
  8  9  1  0
  7 10  1  0
  9 10  2  0
 10 11  1  0
  9 12  1  0
 11 13  2  0
 12 14  2  0
 13 14  1  0
 13 15  1  0
M  END
