x0438_0_A-x0962_2_B
     RDKit          3D

 20 22  0  0  0  0  0  0  0  0999 V2000
   -8.6450   13.6340    3.4130 C   0  0  0  0  0  0  0  0  0  0  0  0
   -9.4550   14.2450    2.1570 S   0  0  0  0  0  0  0  0  0  0  0  0
  -11.1930   14.6290    2.5550 O   0  0  0  0  0  0  0  0  0  0  0  0
   -9.1350   14.1830    0.5730 C   0  0  0  0  0  0  0  0  0  0  0  0
   -9.2940   15.6890    2.3380 N   0  0  0  0  0  0  0  0  0  0  0  0
  -10.1260   16.7340    1.8910 N   0  0  0  0  0  0  0  0  0  0  0  0
   -7.6590   14.4350    0.3050 C   0  0  0  0  0  0  0  0  0  0  0  0
   -8.8530   16.1330    3.6530 C   0  0  1  0  0  0  0  0  0  0  0  0
   -7.1440   14.7690   -0.8770 N   0  0  0  0  0  0  0  0  0  0  0  0
   -6.6050   14.3770    1.1540 N   0  0  0  0  0  0  0  0  0  0  0  0
   -9.7450   15.8400    4.7290 N   0  0  0  0  0  0  0  0  0  0  0  0
   -7.6100   15.3680    4.0960 C   0  0  0  0  0  0  0  0  0  0  0  0
   -5.4670   14.6700    0.4860 C   0  0  0  0  0  0  0  0  0  0  0  0
   -5.8160   14.9170   -0.8010 C   0  0  0  0  0  0  0  0  0  0  0  0
   -8.9530   15.6340    5.8930 C   0  0  0  0  0  0  0  0  0  0  0  0
   -7.8930   14.8290    5.4080 N   0  0  0  0  0  0  0  0  0  0  0  0
   -4.8390   15.2470   -1.7290 C   0  0  0  0  0  0  0  0  0  0  0  0
   -4.1390   14.7510    0.8520 C   0  0  0  0  0  0  0  0  0  0  0  0
   -3.5140   15.3250   -1.3740 C   0  0  0  0  0  0  0  0  0  0  0  0
   -3.1510   15.0730   -0.0510 C   0  0  0  0  0  0  0  0  0  0  0  0
  1  2  1  0
  2  3  2  0
  2  4  1  0
  2  5  1  0
  5  6  1  0
  4  7  1  0
  8  5  1  6
  7  9  1  0
  7 10  2  0
  8 11  1  0
  8 12  1  0
 10 13  1  0
  9 14  1  0
 13 14  2  0
 11 15  1  0
 12 16  1  0
 15 16  1  0
 14 17  1  0
 13 18  1  0
 17 19  2  0
 18 20  2  0
 19 20  1  0
M  END
