x0438_0_A-x0844_0_A
     RDKit          3D

 16 17  0  0  0  0  0  0  0  0999 V2000
   -8.3210   15.8060    4.0910 C   0  0  0  0  0  0  0  0  0  0  0  0
   -9.4020   15.3680    2.7440 S   0  0  0  0  0  0  0  0  0  0  0  0
  -10.6600   14.9210    3.3060 O   0  0  0  0  0  0  0  0  0  0  0  0
   -8.6330   13.9880    1.9630 C   0  0  0  0  0  0  0  0  0  0  0  0
   -9.3990   16.4550    1.7860 O   0  0  0  0  0  0  0  0  0  0  0  0
   -7.3410   14.3360    1.3330 C   0  0  0  0  0  0  0  0  0  0  0  0
   -7.2980   14.4330   -0.0400 N   0  0  0  0  0  0  0  0  0  0  0  0
   -6.2230   14.5650    1.9750 N   0  0  0  0  0  0  0  0  0  0  0  0
   -5.3140   14.7590    0.9810 C   0  0  0  0  0  0  0  0  0  0  0  0
   -6.0580   14.7140   -0.2500 C   0  0  0  0  0  0  0  0  0  0  0  0
   -5.4170   14.9710   -1.5250 C   0  0  0  0  0  0  0  0  0  0  0  0
   -3.9940   14.9410    0.9680 C   0  0  0  0  0  0  0  0  0  0  0  0
   -6.1600   15.0950   -2.4650 O   0  0  0  0  0  0  0  0  0  0  0  0
   -3.9260   15.0490   -1.4960 C   0  0  0  0  0  0  0  0  0  0  0  0
   -3.2920   15.0490   -0.3000 C   0  0  0  0  0  0  0  0  0  0  0  0
   -3.0290   15.1070   -3.1210 Br  0  0  0  0  0  0  0  0  0  0  0  0
  2  1  1  0
  2  3  2  0
  2  4  1  0
  2  5  2  0
  4  6  1  0
  6  7  1  0
  6  8  2  0
  8  9  1  0
  7 10  2  0
  9 10  1  0
 10 11  1  0
  9 12  2  0
 11 13  2  0
 11 14  1  0
 12 15  1  0
 14 15  2  0
 14 16  1  0
M  END
