x0438_0_A_α-x0574_0_A_α
     RDKit          3D

 20 22  0  0  0  0  0  0  0  0999 V2000
   -8.3320   15.9560    4.1950 C   0  0  0  0  0  0  0  0  0  0  0  0
   -9.1720   15.2580    2.7900 S   0  0  0  0  0  0  0  0  0  0  0  0
  -10.4740   14.7810    3.2360 O   0  0  0  0  0  0  0  0  0  0  0  0
   -8.1790   13.8240    2.3830 C   0  0  0  0  0  0  0  0  0  0  0  0
   -9.1380   16.2060    1.6920 O   0  0  0  0  0  0  0  0  0  0  0  0
   -6.9070   14.1330    1.6700 C   0  0  0  0  0  0  0  0  0  0  0  0
   -6.8910   14.6090    0.4060 N   0  0  0  0  0  0  0  0  0  0  0  0
   -5.6560   13.9910    2.1140 N   0  0  0  0  0  0  0  0  0  0  0  0
   -4.8300   14.3770    1.0830 C   0  0  0  0  0  0  0  0  0  0  0  0
   -5.5850   14.7640    0.0290 C   0  0  0  0  0  0  0  0  0  0  0  0
   -5.1340   15.2050   -1.1470 C   0  0  0  0  0  0  0  0  0  0  0  0
   -3.3620   14.4330    0.9250 C   0  0  0  0  0  0  0  0  0  0  0  0
   -6.1930   15.5000   -1.8860 O   0  0  0  0  0  0  0  0  0  0  0  0
   -3.7490   15.2660   -1.3680 C   0  0  0  0  0  0  0  0  0  0  0  0
   -2.8880   14.8630   -0.3150 C   0  0  0  0  0  0  0  0  0  0  0  0
   -2.3790   14.0990    1.8590 N   0  0  0  0  0  0  0  0  0  0  0  0
   -7.3780   15.7130   -1.1070 C   0  0  0  0  0  0  0  0  0  0  0  0
   -1.1810   14.2340    1.3500 C   0  0  0  0  0  0  0  0  0  0  0  0
   -1.1460   14.7880   -0.2640 S   0  0  0  0  0  0  0  0  0  0  0  0
   -0.0530   13.9570    2.0410 N   0  0  0  0  0  0  0  0  0  0  0  0
  2  1  1  0
  2  3  2  0
  2  4  1  0
  2  5  2  0
  4  6  1  0
  6  7  1  0
  6  8  2  0
  8  9  1  0
  7 10  1  0
  9 10  2  0
 10 11  1  0
  9 12  1  0
 11 13  1  0
 11 14  2  0
 12 15  2  0
 14 15  1  0
 12 16  1  0
 13 17  1  0
 16 18  2  0
 15 19  1  0
 18 19  1  0
 18 20  1  0
M  END
