x0438_0_A_α-x0626_0_A_α
     RDKit          3D

 20 22  0  0  0  0  0  0  0  0999 V2000
   -8.6100   15.8810    4.0050 C   0  0  0  0  0  0  0  0  0  0  0  0
   -9.1880   15.3000    2.4180 S   0  0  0  0  0  0  0  0  0  0  0  0
  -10.1530   14.2450    2.6570 O   0  0  0  0  0  0  0  0  0  0  0  0
   -7.6720   14.7020    1.6480 C   0  0  1  0  0  0  0  0  0  0  0  0
   -9.6070   16.4870    1.6940 O   0  0  0  0  0  0  0  0  0  0  0  0
   -7.2110   13.3930    2.1200 C   0  0  0  0  0  0  0  0  0  0  0  0
   -7.3350   14.9060    0.1390 C   0  0  0  0  0  0  0  0  0  0  0  0
   -5.9030   13.4660    1.4790 C   0  0  0  0  0  0  0  0  0  0  0  0
   -5.9260   14.9770   -0.3600 C   0  0  0  0  0  0  0  0  0  0  0  0
   -8.3390   15.0560   -0.8130 C   0  0  0  0  0  0  0  0  0  0  0  0
   -5.0260   14.4890    1.6290 N   0  0  0  0  0  0  0  0  0  0  0  0
   -5.6030   12.6480    0.6150 O   0  0  0  0  0  0  0  0  0  0  0  0
   -8.1350   15.2560   -2.1160 N   0  0  0  0  0  0  0  0  0  0  0  0
   -5.7390   15.2180   -1.7180 C   0  0  0  0  0  0  0  0  0  0  0  0
   -4.7210   14.8200    0.3830 C   0  0  0  0  0  0  0  0  0  0  0  0
   -4.4550   15.3310   -2.2600 C   0  0  0  0  0  0  0  0  0  0  0  0
   -3.3920   14.9310   -0.1160 C   0  0  0  0  0  0  0  0  0  0  0  0
   -6.8550   15.3370   -2.5270 C   0  0  0  0  0  0  0  0  0  0  0  0
   -2.0990   14.7600    0.7030 C   0  0  0  0  0  0  0  0  0  0  0  0
   -3.3010   15.2020   -1.4830 C   0  0  0  0  0  0  0  0  0  0  0  0
  2  1  1  0
  2  3  2  0
  4  2  1  6
  2  5  2  0
  4  6  1  0
  4  7  1  0
  6  8  1  0
  7  9  1  0
  7 10  2  0
  8 11  1  0
  8 12  2  0
 10 13  1  0
  9 14  1  0
  9 15  2  0
 11 15  1  0
 14 16  2  0
 15 17  1  0
 13 18  2  0
 14 18  1  0
 17 19  1  0
 16 20  1  0
 17 20  2  0
M  END
