x0438_0_A_α-x0631_0_A_β
     RDKit          3D

 28 30  0  0  0  0  0  0  0  0999 V2000
   -8.1910   15.6080    3.9170 C   0  0  0  0  0  0  0  0  0  0  0  0
   -9.3760   15.3660    2.6120 S   0  0  0  0  0  0  0  0  0  0  0  0
  -10.5950   14.8610    3.2210 O   0  0  0  0  0  0  0  0  0  0  0  0
   -8.6810   14.0300    1.6630 C   0  0  0  0  0  0  0  0  0  0  0  0
   -9.4350   16.5530    1.7930 O   0  0  0  0  0  0  0  0  0  0  0  0
   -7.3720   14.3330    1.0080 C   0  0  0  0  0  0  0  0  0  0  0  0
   -7.2290   14.5320   -0.3450 N   0  0  0  0  0  0  0  0  0  0  0  0
   -6.2050   14.4350    1.6130 N   0  0  0  0  0  0  0  0  0  0  0  0
   -5.2790   14.6840    0.6260 C   0  0  0  0  0  0  0  0  0  0  0  0
   -5.9040   14.7480   -0.6100 C   0  0  0  0  0  0  0  0  0  0  0  0
   -5.2340   14.9790   -1.8020 C   0  0  0  0  0  0  0  0  0  0  0  0
   -3.8910   14.8610    0.7020 C   0  0  0  0  0  0  0  0  0  0  0  0
   -3.8470   15.1390   -1.7390 C   0  0  0  0  0  0  0  0  0  0  0  0
   -3.1830   15.0830   -0.4930 C   0  0  0  0  0  0  0  0  0  0  0  0
   -3.1000   15.3570   -3.0390 C   0  0  0  0  0  0  0  0  0  0  0  0
   -3.6850   14.5200   -4.1840 C   0  0  0  0  0  0  0  0  0  0  0  0
   -2.7010   13.4490   -4.6600 C   0  0  0  0  0  0  0  0  0  0  0  0
   -3.3940   12.1650   -5.1400 C   0  0  0  0  0  0  0  0  0  0  0  0
   -2.4580   11.1800   -5.8480 C   0  0  0  0  0  0  0  0  0  0  0  0
   -3.0870    9.7800   -5.9170 C   0  0  0  0  0  0  0  0  0  0  0  0
   -2.6580    8.9650   -7.1450 C   0  0  0  0  0  0  0  0  0  0  0  0
   -1.5780    7.9280   -6.8170 C   0  0  0  0  0  0  0  0  0  0  0  0
   -0.1830    8.5520   -6.7540 C   0  0  0  0  0  0  0  0  0  0  0  0
    0.1080    9.5550   -7.7830 N   0  0  0  0  0  0  0  0  0  0  0  0
    0.9420    9.1650   -8.8640 N   0  0  0  0  0  0  0  0  0  0  0  0
    0.5920   10.7900   -7.3320 N   0  0  0  0  0  0  0  0  0  0  0  0
    1.0160   10.4380   -9.5770 C   0  0  0  0  0  0  0  0  0  0  0  0
    0.7850   11.4760   -8.5700 N   0  0  0  0  0  0  0  0  0  0  0  0
  2  1  1  0
  2  3  2  0
  2  4  1  0
  2  5  2  0
  4  6  1  0
  6  7  1  0
  6  8  2  0
  8  9  1  0
  7 10  1  0
  9 10  2  0
 10 11  1  0
  9 12  1  0
 11 13  2  0
 12 14  2  0
 13 14  1  0
 13 15  1  0
 15 16  1  0
 16 17  1  0
 17 18  1  0
 18 19  1  0
 19 20  1  0
 20 21  1  0
 21 22  1  0
 22 23  1  0
 23 24  1  0
 24 25  1  0
 24 26  1  0
 25 27  1  0
 26 28  1  0
 27 28  1  0
M  END
