x0436_0_B_α-5CMS_0_R_α
     RDKit          3D

 25 26  0  0  0  0  0  0  0  0999 V2000
  -10.3530   28.3180  -15.7510 N   0  0  0  0  0  0  0  0  0  0  0  0
  -10.0620   29.6590  -15.7530 C   0  0  0  0  0  0  0  0  0  0  0  0
  -10.2180   30.3840  -14.4020 C   0  0  1  0  0  0  0  0  0  0  0  0
   -9.7090   30.1970  -16.7980 O   0  0  0  0  0  0  0  0  0  0  0  0
  -11.6360   30.9130  -14.2610 C   0  0  0  0  0  0  0  0  0  0  0  0
  -10.0150   29.4770  -13.3230 O   0  0  0  0  0  0  0  0  0  0  0  0
   -8.7230   29.2210  -12.9820 C   0  0  0  0  0  0  0  0  0  0  0  0
   -8.3040   29.1660  -11.6600 C   0  0  0  0  0  0  0  0  0  0  0  0
   -7.8210   29.0050  -14.0160 C   0  0  0  0  0  0  0  0  0  0  0  0
   -6.9760   28.8820  -11.3660 C   0  0  0  0  0  0  0  0  0  0  0  0
   -6.4990   28.7200  -13.7230 C   0  0  0  0  0  0  0  0  0  0  0  0
   -6.0780   28.6510  -12.4040 C   0  0  0  0  0  0  0  0  0  0  0  0
   -4.6670   28.3040  -12.1280 C   0  0  0  0  0  0  0  0  0  0  0  0
   -4.6090   26.7370  -12.1290 C   0  0  0  0  0  0  0  0  0  0  0  0
   -5.7270   26.0290  -11.3040 C   0  0  0  0  0  0  0  0  0  0  0  0
   -5.4560   24.6040  -10.7290 C   0  0  0  0  0  0  0  0  0  0  0  0
   -4.9350   24.5090   -9.3650 O   0  0  0  0  0  0  0  0  0  0  0  0
   -3.7740   23.7050   -9.4060 C   0  0  2  0  0  0  0  0  0  0  0  0
   -4.1500   22.2820   -9.7490 C   0  0  2  0  0  0  0  0  0  0  0  0
   -2.8140   23.3940   -8.2460 C   0  0  2  0  0  0  0  0  0  0  0  0
   -1.7580   24.3210   -8.3310 O   0  0  0  0  0  0  0  0  0  0  0  0
   -4.9830   21.8300   -8.7050 O   0  0  0  0  0  0  0  0  0  0  0  0
   -2.1850   22.0250   -8.6050 C   0  0  2  0  0  0  0  0  0  0  0  0
   -2.9900   21.4680   -9.6540 O   0  0  0  0  0  0  0  0  0  0  0  0
   -2.0420   21.0080   -7.5080 C   0  0  0  0  0  0  0  0  0  0  0  0
  1  2  1  0
  2  3  1  0
  2  4  2  0
  3  5  1  1
  3  6  1  0
  6  7  1  0
  7  8  2  0
  7  9  1  0
  8 10  1  0
  9 11  2  0
 10 12  2  0
 11 12  1  0
 12 13  1  0
 13 14  1  0
 14 15  1  0
 15 16  1  0
 16 17  1  0
 18 17  1  1
 18 19  1  0
 18 20  1  0
 20 21  1  6
 19 22  1  1
 20 23  1  0
 19 24  1  0
 23 24  1  0
 23 25  1  1
M  END
