x0438_0_A_α-x0962_2_B_α
     RDKit          3D

 20 22  0  0  0  0  0  0  0  0999 V2000
   -8.7270   13.8390    3.5350 C   0  0  0  0  0  0  0  0  0  0  0  0
   -9.4900   14.2880    2.1910 S   0  0  0  0  0  0  0  0  0  0  0  0
  -11.2390   14.7000    2.4960 O   0  0  0  0  0  0  0  0  0  0  0  0
   -9.0880   14.0580    0.6480 C   0  0  0  0  0  0  0  0  0  0  0  0
   -9.3450   15.7310    2.2400 N   0  0  0  0  0  0  0  0  0  0  0  0
  -10.2210   16.7440    1.8050 N   0  0  0  0  0  0  0  0  0  0  0  0
   -7.6170   14.3520    0.3930 C   0  0  0  0  0  0  0  0  0  0  0  0
   -8.8270   16.1600    3.5190 C   0  0  1  0  0  0  0  0  0  0  0  0
   -7.1290   14.7180   -0.7860 N   0  0  0  0  0  0  0  0  0  0  0  0
   -6.5410   14.3100    1.2260 N   0  0  0  0  0  0  0  0  0  0  0  0
   -9.6460   15.9010    4.6510 N   0  0  0  0  0  0  0  0  0  0  0  0
   -7.6110   15.2910    3.8600 C   0  0  0  0  0  0  0  0  0  0  0  0
   -5.4210   14.6440    0.5400 C   0  0  0  0  0  0  0  0  0  0  0  0
   -5.8090   14.9010   -0.7340 C   0  0  0  0  0  0  0  0  0  0  0  0
   -8.7630   15.6810    5.7450 C   0  0  0  0  0  0  0  0  0  0  0  0
   -7.8060   14.7940    5.2020 N   0  0  0  0  0  0  0  0  0  0  0  0
   -4.8730   15.2710   -1.6840 C   0  0  0  0  0  0  0  0  0  0  0  0
   -4.0870   14.7580    0.8730 C   0  0  0  0  0  0  0  0  0  0  0  0
   -3.5450   15.3800   -1.3630 C   0  0  0  0  0  0  0  0  0  0  0  0
   -3.1350   15.1200   -0.0570 C   0  0  0  0  0  0  0  0  0  0  0  0
  1  2  1  0
  2  3  2  0
  2  4  1  0
  2  5  1  0
  5  6  1  0
  4  7  1  0
  8  5  1  6
  7  9  1  0
  7 10  2  0
  8 11  1  0
  8 12  1  0
 10 13  1  0
  9 14  1  0
 13 14  2  0
 11 15  1  0
 12 16  1  0
 15 16  1  0
 14 17  1  0
 13 18  1  0
 17 19  2  0
 18 20  2  0
 19 20  1  0
M  END
