x0438_0_A-x0574_0_A
     RDKit          3D

 20 22  0  0  0  0  0  0  0  0999 V2000
   -8.3300   15.9550    4.1940 C   0  0  0  0  0  0  0  0  0  0  0  0
   -9.1710   15.2590    2.7860 S   0  0  0  0  0  0  0  0  0  0  0  0
  -10.4720   14.7790    3.2340 O   0  0  0  0  0  0  0  0  0  0  0  0
   -8.1770   13.8260    2.3810 C   0  0  0  0  0  0  0  0  0  0  0  0
   -9.1370   16.2050    1.6910 O   0  0  0  0  0  0  0  0  0  0  0  0
   -6.9060   14.1360    1.6670 C   0  0  0  0  0  0  0  0  0  0  0  0
   -6.8900   14.6100    0.4060 N   0  0  0  0  0  0  0  0  0  0  0  0
   -5.6590   13.9940    2.1150 N   0  0  0  0  0  0  0  0  0  0  0  0
   -4.8290   14.3780    1.0840 C   0  0  0  0  0  0  0  0  0  0  0  0
   -5.5840   14.7650    0.0290 C   0  0  0  0  0  0  0  0  0  0  0  0
   -5.1320   15.2050   -1.1470 C   0  0  0  0  0  0  0  0  0  0  0  0
   -3.3620   14.4330    0.9290 C   0  0  0  0  0  0  0  0  0  0  0  0
   -6.1940   15.4990   -1.8850 O   0  0  0  0  0  0  0  0  0  0  0  0
   -3.7490   15.2650   -1.3660 C   0  0  0  0  0  0  0  0  0  0  0  0
   -2.8900   14.8630   -0.3110 C   0  0  0  0  0  0  0  0  0  0  0  0
   -2.3810   14.1010    1.8590 N   0  0  0  0  0  0  0  0  0  0  0  0
   -7.3790   15.7120   -1.1060 C   0  0  0  0  0  0  0  0  0  0  0  0
   -1.1830   14.2340    1.3510 C   0  0  0  0  0  0  0  0  0  0  0  0
   -1.1470   14.7870   -0.2650 S   0  0  0  0  0  0  0  0  0  0  0  0
   -0.0540   13.9600    2.0400 N   0  0  0  0  0  0  0  0  0  0  0  0
  2  1  1  0
  2  3  2  0
  2  4  1  0
  2  5  2  0
  4  6  1  0
  6  7  1  0
  6  8  2  0
  8  9  1  0
  7 10  1  0
  9 10  2  0
 10 11  1  0
  9 12  1  0
 11 13  1  0
 11 14  2  0
 12 15  2  0
 14 15  1  0
 12 16  1  0
 13 17  1  0
 16 18  2  0
 15 19  1  0
 18 19  1  0
 18 20  1  0
M  END
