x0438_0_A-x1015_0_A
     RDKit          3D

 31 34  0  0  0  0  0  0  0  0999 V2000
   -8.1790   15.5400    3.8710 C   0  0  0  0  0  0  0  0  0  0  0  0
   -9.3520   15.3150    2.5450 S   0  0  0  0  0  0  0  0  0  0  0  0
  -10.5710   14.7910    3.1370 O   0  0  0  0  0  0  0  0  0  0  0  0
   -8.6700   14.0170    1.5240 C   0  0  0  0  0  0  0  0  0  0  0  0
   -9.4340   16.5180    1.7410 O   0  0  0  0  0  0  0  0  0  0  0  0
   -7.3370   14.3750    0.9690 C   0  0  0  0  0  0  0  0  0  0  0  0
   -7.1020   14.5770   -0.3750 N   0  0  0  0  0  0  0  0  0  0  0  0
   -6.2290   14.5350    1.6580 N   0  0  0  0  0  0  0  0  0  0  0  0
   -5.2490   14.8400    0.7490 C   0  0  0  0  0  0  0  0  0  0  0  0
   -5.7690   14.8720   -0.5370 C   0  0  0  0  0  0  0  0  0  0  0  0
   -5.0020   15.1500   -1.6660 C   0  0  0  0  0  0  0  0  0  0  0  0
   -3.8860   15.1010    0.9500 C   0  0  0  0  0  0  0  0  0  0  0  0
   -3.6330   15.4010   -1.4630 C   0  0  0  0  0  0  0  0  0  0  0  0
   -3.0880   15.3800   -0.1680 C   0  0  0  0  0  0  0  0  0  0  0  0
   -2.7570   15.6820   -2.6580 C   0  0  0  0  0  0  0  0  0  0  0  0
   -2.3250   14.3550   -3.2920 C   0  0  0  0  0  0  0  0  0  0  0  0
   -1.1820   14.5290   -4.2910 C   0  0  0  0  0  0  0  0  0  0  0  0
    0.0770   13.6870   -3.9940 C   0  0  2  0  0  0  0  0  0  0  0  0
   -0.1490   12.2440   -3.9240 N   0  0  0  0  0  0  0  0  0  0  0  0
    0.4610   13.9420   -2.5380 C   0  0  0  0  0  0  0  0  0  0  0  0
    0.5270   15.0310   -1.9880 O   0  0  0  0  0  0  0  0  0  0  0  0
    0.2700   11.7230   -2.6870 C   0  0  0  0  0  0  0  0  0  0  0  0
    0.7320   12.7590   -1.9380 N   0  0  0  0  0  0  0  0  0  0  0  0
   -0.5200   11.4490   -5.0360 C   0  0  0  0  0  0  0  0  0  0  0  0
    0.2570   10.5560   -2.2860 O   0  0  0  0  0  0  0  0  0  0  0  0
    0.0520   11.6440   -6.3020 C   0  0  0  0  0  0  0  0  0  0  0  0
   -1.4770   10.4330   -4.8980 C   0  0  0  0  0  0  0  0  0  0  0  0
   -0.3210   10.8520   -7.3920 C   0  0  0  0  0  0  0  0  0  0  0  0
   -1.8540    9.6380   -5.9840 C   0  0  0  0  0  0  0  0  0  0  0  0
   -1.2740    9.8510   -7.2280 C   0  0  0  0  0  0  0  0  0  0  0  0
   -1.7410    8.8730   -8.5610 Cl  0  0  0  0  0  0  0  0  0  0  0  0
  2  1  1  0
  2  3  2  0
  2  4  1  0
  2  5  2  0
  4  6  1  0
  6  7  1  0
  6  8  2  0
  8  9  1  0
  7 10  1  0
  9 10  2  0
 10 11  1  0
  9 12  1  0
 11 13  2  0
 12 14  2  0
 13 14  1  0
 13 15  1  0
 15 16  1  0
 16 17  1  0
 18 17  1  1
 18 19  1  0
 18 20  1  0
 20 21  2  0
 19 22  1  0
 20 23  1  0
 22 23  1  0
 19 24  1  0
 22 25  2  0
 24 26  2  0
 24 27  1  0
 26 28  1  0
 27 29  2  0
 28 30  2  0
 29 30  1  0
 30 31  1  0
M  END
