x0438_0_A_α-x0969_0_A_α
     RDKit          3D

 15 16  0  0  0  0  0  0  0  0999 V2000
   -8.3890   15.5950    3.7830 C   0  0  0  0  0  0  0  0  0  0  0  0
   -9.5300   15.4230    2.4220 S   0  0  0  0  0  0  0  0  0  0  0  0
  -10.7600   14.8920    2.9810 O   0  0  0  0  0  0  0  0  0  0  0  0
   -8.9080   14.2070    1.2650 C   0  0  0  0  0  0  0  0  0  0  0  0
   -9.5900   16.6730    1.7070 O   0  0  0  0  0  0  0  0  0  0  0  0
   -7.5510   14.4700    0.7130 C   0  0  0  0  0  0  0  0  0  0  0  0
   -7.2140   14.4400   -0.5640 N   0  0  0  0  0  0  0  0  0  0  0  0
   -6.4620   14.7700    1.4710 N   0  0  0  0  0  0  0  0  0  0  0  0
   -6.4550   14.9220    2.8490 N   0  0  0  0  0  0  0  0  0  0  0  0
   -5.3650   14.9050    0.6750 C   0  0  0  0  0  0  0  0  0  0  0  0
   -5.8620   14.7100   -0.6010 C   0  0  0  0  0  0  0  0  0  0  0  0
   -4.9910   14.8010   -1.6970 C   0  0  0  0  0  0  0  0  0  0  0  0
   -4.0250   15.1730    0.9480 C   0  0  0  0  0  0  0  0  0  0  0  0
   -3.6390   15.0680   -1.4500 C   0  0  0  0  0  0  0  0  0  0  0  0
   -3.1730   15.2410   -0.1450 C   0  0  0  0  0  0  0  0  0  0  0  0
  2  1  1  0
  2  3  2  0
  2  4  1  0
  2  5  2  0
  4  6  1  0
  6  7  2  0
  6  8  1  0
  8  9  1  0
  8 10  1  0
  7 11  1  0
 10 11  2  0
 11 12  1  0
 10 13  1  0
 12 14  2  0
 13 15  2  0
 14 15  1  0
M  END
