x0438_0_A_α-x0282_0_A_α
     RDKit          3D

 20 22  0  0  0  0  0  0  0  0999 V2000
   -8.0470   15.3190    3.7750 C   0  0  0  0  0  0  0  0  0  0  0  0
   -9.3190   15.3200    2.5210 S   0  0  0  0  0  0  0  0  0  0  0  0
  -10.4300   14.5400    3.0500 O   0  0  0  0  0  0  0  0  0  0  0  0
   -8.7560   14.4490    1.0340 C   0  0  2  0  0  0  0  0  0  0  0  0
   -9.5900   16.6820    2.1220 O   0  0  0  0  0  0  0  0  0  0  0  0
   -9.0820   13.0740    0.9110 O   0  0  0  0  0  0  0  0  0  0  0  0
   -7.3060   14.6040    0.7490 C   0  0  0  0  0  0  0  0  0  0  0  0
   -6.8620   14.4200   -0.5380 N   0  0  0  0  0  0  0  0  0  0  0  0
   -6.3030   14.9130    1.5580 N   0  0  0  0  0  0  0  0  0  0  0  0
   -5.1880   14.9410    0.7580 C   0  0  0  0  0  0  0  0  0  0  0  0
   -5.5220   14.6300   -0.5280 C   0  0  0  0  0  0  0  0  0  0  0  0
   -4.6860   14.5310   -1.6320 C   0  0  0  0  0  0  0  0  0  0  0  0
   -3.7910   15.2620    1.1660 C   0  0  0  0  0  0  0  0  0  0  0  0
   -3.3730   14.6610   -1.3680 C   0  0  0  0  0  0  0  0  0  0  0  0
   -2.7400   14.9440    0.0070 C   0  0  1  0  0  0  0  0  0  0  0  0
   -1.9140   16.0740   -0.3830 N   0  0  0  0  0  0  0  0  0  0  0  0
   -1.9120   13.8130    0.4810 N   0  0  0  0  0  0  0  0  0  0  0  0
   -0.6260   15.6090   -0.8740 C   0  0  0  0  0  0  0  0  0  0  0  0
   -0.6100   14.0400    0.8980 C   0  0  0  0  0  0  0  0  0  0  0  0
    0.0850   14.9420    0.2300 C   0  0  0  0  0  0  0  0  0  0  0  0
  2  1  1  0
  2  3  2  0
  2  4  1  0
  2  5  2  0
  4  6  1  1
  4  7  1  0
  7  8  1  0
  7  9  2  0
  9 10  1  0
  8 11  1  0
 10 11  2  0
 11 12  1  0
 10 13  1  0
 12 14  2  0
 15 13  1  1
 15 14  1  0
 15 16  1  0
 15 17  1  0
 16 18  1  0
 17 19  1  0
 18 20  1  0
 19 20  2  0
M  END
