x0438_0_A-x0837_0_A
     RDKit          3D

 15 16  0  0  0  0  0  0  0  0999 V2000
   -8.1510   15.5830    3.9000 C   0  0  0  0  0  0  0  0  0  0  0  0
   -9.3810   15.3840    2.6210 S   0  0  0  0  0  0  0  0  0  0  0  0
  -10.5990   14.8890    3.2440 O   0  0  0  0  0  0  0  0  0  0  0  0
   -8.7790   14.0880    1.5570 C   0  0  0  0  0  0  0  0  0  0  0  0
   -9.4510   16.5890    1.8260 O   0  0  0  0  0  0  0  0  0  0  0  0
   -7.4290   14.3390    0.9840 C   0  0  0  0  0  0  0  0  0  0  0  0
   -7.2140   14.3910   -0.3680 N   0  0  0  0  0  0  0  0  0  0  0  0
   -6.3000   14.5220    1.6380 N   0  0  0  0  0  0  0  0  0  0  0  0
   -5.3210   14.6750    0.6800 C   0  0  0  0  0  0  0  0  0  0  0  0
   -5.8800   14.5940   -0.5830 C   0  0  0  0  0  0  0  0  0  0  0  0
   -5.1510   14.7000   -1.7520 C   0  0  0  0  0  0  0  0  0  0  0  0
   -3.9330   14.8810    0.8070 C   0  0  0  0  0  0  0  0  0  0  0  0
   -3.7820   14.8820   -1.6170 C   0  0  0  0  0  0  0  0  0  0  0  0
   -3.1650   14.9800   -0.3640 C   0  0  0  0  0  0  0  0  0  0  0  0
   -2.6890   14.9810   -3.3770 I   0  0  0  0  0  0  0  0  0  0  0  0
  2  1  1  0
  2  3  2  0
  2  4  1  0
  2  5  2  0
  4  6  1  0
  6  7  1  0
  6  8  2  0
  8  9  1  0
  7 10  1  0
  9 10  2  0
 10 11  1  0
  9 12  1  0
 11 13  2  0
 12 14  2  0
 13 14  1  0
 13 15  1  0
M  END
