x0438_0_A-x1018_0_A
     RDKit          3D

 14 15  0  0  0  0  0  0  0  0999 V2000
   -8.1620   15.5180    3.8530 C   0  0  0  0  0  0  0  0  0  0  0  0
   -9.3820   15.3040    2.5710 S   0  0  0  0  0  0  0  0  0  0  0  0
  -10.5960   14.7970    3.1870 O   0  0  0  0  0  0  0  0  0  0  0  0
   -8.7550   14.0150    1.5020 C   0  0  0  0  0  0  0  0  0  0  0  0
   -9.4550   16.5140    1.7800 O   0  0  0  0  0  0  0  0  0  0  0  0
   -7.4100   14.3410    0.9610 C   0  0  0  0  0  0  0  0  0  0  0  0
   -7.1890   14.7230   -0.3420 N   0  0  0  0  0  0  0  0  0  0  0  0
   -6.2840   14.3010    1.6310 N   0  0  0  0  0  0  0  0  0  0  0  0
   -5.2990   14.6550    0.7480 C   0  0  0  0  0  0  0  0  0  0  0  0
   -5.8450   14.9270   -0.5030 C   0  0  0  0  0  0  0  0  0  0  0  0
   -5.0830   15.3110   -1.6010 C   0  0  0  0  0  0  0  0  0  0  0  0
   -3.9200   14.7630    0.9390 C   0  0  0  0  0  0  0  0  0  0  0  0
   -3.7060   15.4070   -1.3940 C   0  0  0  0  0  0  0  0  0  0  0  0
   -3.1350   15.1380   -0.1500 C   0  0  0  0  0  0  0  0  0  0  0  0
  2  1  1  0
  2  3  2  0
  2  4  1  0
  2  5  2  0
  4  6  1  0
  6  7  1  0
  6  8  2  0
  8  9  1  0
  7 10  1  0
  9 10  2  0
 10 11  1  0
  9 12  1  0
 11 13  2  0
 12 14  2  0
 13 14  1  0
M  END
