x0438_0_A_α-x0933_0_A_α
     RDKit          3D

 15 16  0  0  0  0  0  0  0  0999 V2000
   -8.1970   15.4650    3.7660 C   0  0  0  0  0  0  0  0  0  0  0  0
   -9.4600   15.3210    2.5130 S   0  0  0  0  0  0  0  0  0  0  0  0
  -10.6750   14.8440    3.1560 O   0  0  0  0  0  0  0  0  0  0  0  0
   -8.9190   14.0480    1.3850 C   0  0  0  0  0  0  0  0  0  0  0  0
   -9.5120   16.5570    1.7620 O   0  0  0  0  0  0  0  0  0  0  0  0
   -7.5860   14.3740    0.8230 C   0  0  0  0  0  0  0  0  0  0  0  0
   -7.3460   14.6650   -0.5030 N   0  0  0  0  0  0  0  0  0  0  0  0
   -6.4830   14.4210    1.5120 N   0  0  0  0  0  0  0  0  0  0  0  0
   -5.4940   14.7440    0.6220 C   0  0  0  0  0  0  0  0  0  0  0  0
   -6.0000   14.9040   -0.6530 C   0  0  0  0  0  0  0  0  0  0  0  0
   -5.2030   15.2360   -1.7500 C   0  0  0  0  0  0  0  0  0  0  0  0
   -4.1390   14.9120    0.8640 C   0  0  0  0  0  0  0  0  0  0  0  0
   -3.6330   14.7610    2.1450 N   0  0  0  0  0  0  0  0  0  0  0  0
   -3.8360   15.3950   -1.5010 C   0  0  0  0  0  0  0  0  0  0  0  0
   -3.3130   15.2330   -0.2160 C   0  0  0  0  0  0  0  0  0  0  0  0
  2  1  1  0
  2  3  2  0
  2  4  1  0
  2  5  2  0
  4  6  1  0
  6  7  1  0
  6  8  2  0
  8  9  1  0
  7 10  1  0
  9 10  2  0
 10 11  1  0
  9 12  1  0
 12 13  1  0
 11 14  2  0
 12 15  2  0
 14 15  1  0
M  END
