x0438_0_A-x0852_0_B
     RDKit          3D

 22 24  0  0  0  0  0  0  0  0999 V2000
   -9.5670   16.3950    1.7070 C   0  0  0  0  0  0  0  0  0  0  0  0
   -9.7250   14.7920    1.7160 S   0  0  0  0  0  0  0  0  0  0  0  0
  -11.0610   14.2540    2.7620 O   0  0  0  0  0  0  0  0  0  0  0  0
   -8.8980   13.6260    0.9420 C   0  0  0  0  0  0  0  0  0  0  0  0
   -8.7830   14.6310    3.0480 C   0  0  0  0  0  0  0  0  0  0  0  0
   -7.5300   14.0850    0.5250 C   0  0  0  0  0  0  0  0  0  0  0  0
   -8.1480   14.7390    4.3160 C   0  0  0  0  0  0  0  0  0  0  0  0
   -9.6580   15.6950    3.3380 C   0  0  0  0  0  0  0  0  0  0  0  0
   -7.1620   14.5520   -0.6590 N   0  0  0  0  0  0  0  0  0  0  0  0
   -6.3960   14.0920    1.2740 N   0  0  0  0  0  0  0  0  0  0  0  0
   -8.2840   15.5030    5.3960 C   0  0  0  0  0  0  0  0  0  0  0  0
   -9.9250   16.5610    4.3550 C   0  0  0  0  0  0  0  0  0  0  0  0
   -5.3600   14.5350    0.5410 C   0  0  0  0  0  0  0  0  0  0  0  0
   -5.8550   14.8300   -0.6990 C   0  0  0  0  0  0  0  0  0  0  0  0
   -7.4490   15.2960    6.4940 O   0  0  0  0  0  0  0  0  0  0  0  0
   -9.2090   16.4480    5.4270 C   0  0  0  0  0  0  0  0  0  0  0  0
   -4.9930   15.3030   -1.6510 C   0  0  0  0  0  0  0  0  0  0  0  0
   -4.0280   14.7050    0.8350 C   0  0  0  0  0  0  0  0  0  0  0  0
   -9.4320   17.2970    6.5610 C   0  0  0  0  0  0  0  0  0  0  0  0
   -3.6510   15.4720   -1.3810 C   0  0  0  0  0  0  0  0  0  0  0  0
   -3.1400   15.1750   -0.1250 C   0  0  0  0  0  0  0  0  0  0  0  0
   -9.6580   17.9430    7.4710 N   0  0  0  0  0  0  0  0  0  0  0  0
  1  2  1  0
  2  3  2  0
  2  4  1  0
  2  5  1  0
  4  6  1  0
  5  7  2  0
  5  8  1  0
  6  9  1  0
  6 10  2  0
  7 11  1  0
  8 12  2  0
 10 13  1  0
  9 14  1  0
 13 14  2  0
 11 15  1  0
 11 16  2  0
 12 16  1  0
 14 17  1  0
 13 18  1  0
 16 19  1  0
 17 20  2  0
 18 21  2  0
 20 21  1  0
 19 22  3  0
M  END
