x0438_0_A_α-x0290_0_A_α
     RDKit          3D

 26 28  0  0  0  0  0  0  0  0999 V2000
   -8.0780   15.6790    4.0200 C   0  0  0  0  0  0  0  0  0  0  0  0
   -8.9910   15.2570    2.5470 S   0  0  0  0  0  0  0  0  0  0  0  0
  -10.1850   14.5550    3.0150 O   0  0  0  0  0  0  0  0  0  0  0  0
   -7.9750   14.0400    1.5920 C   0  0  2  0  0  0  0  0  0  0  0  0
   -9.2260   16.4590    1.7850 O   0  0  0  0  0  0  0  0  0  0  0  0
   -8.8660   13.1650    0.7150 C   0  0  0  0  0  0  0  0  0  0  0  0
   -6.7380   13.3820    2.3010 C   0  0  0  0  0  0  0  0  0  0  0  0
   -6.9200   14.5750    0.7300 C   0  0  0  0  0  0  0  0  0  0  0  0
   -5.4120   13.4030    1.4300 C   0  0  0  0  0  0  0  0  0  0  0  0
   -6.8840   14.6540   -0.6330 N   0  0  0  0  0  0  0  0  0  0  0  0
   -5.8210   14.9910    1.2810 N   0  0  0  0  0  0  0  0  0  0  0  0
   -5.4110   12.9650    0.2700 O   0  0  0  0  0  0  0  0  0  0  0  0
   -4.1690   13.9230    1.8400 N   0  0  0  0  0  0  0  0  0  0  0  0
   -5.0050   15.3160    0.2720 C   0  0  0  0  0  0  0  0  0  0  0  0
   -5.6300   15.1140   -0.9460 C   0  0  0  0  0  0  0  0  0  0  0  0
   -4.9950   15.3560   -2.1440 C   0  0  0  0  0  0  0  0  0  0  0  0
   -3.6970   15.7800    0.3500 C   0  0  0  0  0  0  0  0  0  0  0  0
   -2.9070   14.1210    1.1740 C   0  0  0  0  0  0  0  0  0  0  0  0
   -3.6720   15.8070   -2.0640 C   0  0  0  0  0  0  0  0  0  0  0  0
   -3.0320   16.0160   -0.8420 C   0  0  0  0  0  0  0  0  0  0  0  0
   -1.7890   14.3440    1.9000 N   0  0  0  0  0  0  0  0  0  0  0  0
   -2.8250   14.0860   -0.2300 C   0  0  0  0  0  0  0  0  0  0  0  0
   -0.6080   14.5310    1.2710 C   0  0  0  0  0  0  0  0  0  0  0  0
   -1.5800   14.2910   -0.8720 C   0  0  0  0  0  0  0  0  0  0  0  0
   -1.4600   14.2680   -2.3690 C   0  0  0  0  0  0  0  0  0  0  0  0
   -0.4520   14.5170   -0.0940 C   0  0  0  0  0  0  0  0  0  0  0  0
  2  1  1  0
  2  3  2  0
  2  4  1  0
  2  5  2  0
  4  6  1  6
  4  7  1  0
  4  8  1  0
  7  9  1  0
  8 10  1  0
  8 11  2  0
  9 12  2  0
  9 13  1  0
 11 14  1  0
 10 15  1  0
 14 15  2  0
 15 16  1  0
 14 17  1  0
 13 18  1  0
 16 19  2  0
 17 20  2  0
 19 20  1  0
 18 21  2  0
 18 22  1  0
 21 23  1  0
 22 24  2  0
 24 25  1  0
 23 26  2  0
 24 26  1  0
M  END
