x0438_0_A_α-x0950_0_A_α
     RDKit          3D

 23 24  0  0  0  0  0  0  0  0999 V2000
   -8.1100   15.4630    3.7940 C   0  0  0  0  0  0  0  0  0  0  0  0
   -9.3600   15.3140    2.5300 S   0  0  0  0  0  0  0  0  0  0  0  0
  -10.5570   14.7600    3.1450 O   0  0  0  0  0  0  0  0  0  0  0  0
   -8.7570   14.1080    1.3570 C   0  0  0  0  0  0  0  0  0  0  0  0
   -9.4670   16.5720    1.8270 O   0  0  0  0  0  0  0  0  0  0  0  0
   -7.3640   14.3720    0.9030 C   0  0  0  0  0  0  0  0  0  0  0  0
   -7.0380   14.8160   -0.3640 N   0  0  0  0  0  0  0  0  0  0  0  0
   -6.2800   14.2100    1.6220 N   0  0  0  0  0  0  0  0  0  0  0  0
   -5.2220   14.5380    0.8120 C   0  0  0  0  0  0  0  0  0  0  0  0
   -5.6670   14.9250   -0.4430 C   0  0  0  0  0  0  0  0  0  0  0  0
   -4.7990   15.3100   -1.4650 C   0  0  0  0  0  0  0  0  0  0  0  0
   -3.8510   14.5190    1.0950 C   0  0  0  0  0  0  0  0  0  0  0  0
   -3.4230   15.2760   -1.1680 C   0  0  0  0  0  0  0  0  0  0  0  0
   -2.9300   14.8830    0.1010 C   0  0  0  0  0  0  0  0  0  0  0  0
   -1.4440   14.8230    0.4550 C   0  0  0  0  0  0  0  0  0  0  0  0
   -0.8010   13.5490   -0.0450 C   0  0  0  0  0  0  0  0  0  0  0  0
    0.1060   13.7390   -1.2600 C   0  0  0  0  0  0  0  0  0  0  0  0
    0.7990   12.5090   -1.5170 O   0  0  0  0  0  0  0  0  0  0  0  0
    0.7360   11.9620   -2.7760 C   0  0  0  0  0  0  0  0  0  0  0  0
    1.3130   12.8600   -3.8880 C   0  0  1  0  0  0  0  0  0  0  0  0
    0.2710   10.8540   -3.0130 O   0  0  0  0  0  0  0  0  0  0  0  0
    2.8290   12.9490   -3.8430 C   0  0  0  0  0  0  0  0  0  0  0  0
    0.9430   12.3640   -5.1810 O   0  0  0  0  0  0  0  0  0  0  0  0
  2  1  1  0
  2  3  2  0
  2  4  1  0
  2  5  2  0
  4  6  1  0
  6  7  1  0
  6  8  2  0
  8  9  1  0
  7 10  1  0
  9 10  2  0
 10 11  1  0
  9 12  1  0
 11 13  2  0
 12 14  2  0
 13 14  1  0
 14 15  1  0
 15 16  1  0
 16 17  1  0
 17 18  1  0
 18 19  1  0
 19 20  1  0
 19 21  2  0
 20 22  1  6
 20 23  1  0
M  END
