x0436_0_B_α-5cms_J_9_J_α
     RDKit          3D

 25 26  0  0  0  0  0  0  0  0999 V2000
  -10.3610   28.2680  -15.8240 N   0  0  0  0  0  0  0  0  0  0  0  0
  -10.0880   29.6100  -15.7300 C   0  0  0  0  0  0  0  0  0  0  0  0
  -10.2300   30.2190  -14.3230 C   0  0  1  0  0  0  0  0  0  0  0  0
   -9.7580   30.2270  -16.7380 O   0  0  0  0  0  0  0  0  0  0  0  0
  -11.6630   30.6890  -14.1090 C   0  0  0  0  0  0  0  0  0  0  0  0
   -9.9510   29.2370  -13.3270 O   0  0  0  0  0  0  0  0  0  0  0  0
   -8.6380   29.1640  -12.9590 C   0  0  0  0  0  0  0  0  0  0  0  0
   -8.2130   29.1740  -11.6350 C   0  0  0  0  0  0  0  0  0  0  0  0
   -7.7230   29.0760  -13.9930 C   0  0  0  0  0  0  0  0  0  0  0  0
   -6.8480   29.0950  -11.3440 C   0  0  0  0  0  0  0  0  0  0  0  0
   -6.3720   28.9970  -13.7050 C   0  0  0  0  0  0  0  0  0  0  0  0
   -5.9260   29.0050  -12.3920 C   0  0  0  0  0  0  0  0  0  0  0  0
   -4.4620   28.9070  -12.1680 C   0  0  0  0  0  0  0  0  0  0  0  0
   -3.9780   27.5300  -12.6870 C   0  0  0  0  0  0  0  0  0  0  0  0
   -4.7680   26.3160  -12.1420 C   0  0  0  0  0  0  0  0  0  0  0  0
   -4.0440   24.9640  -12.2360 C   0  0  0  0  0  0  0  0  0  0  0  0
   -3.8030   24.3310  -10.9580 O   0  0  0  0  0  0  0  0  0  0  0  0
   -2.5650   23.5940  -11.0250 C   0  0  2  0  0  0  0  0  0  0  0  0
   -2.6530   22.1210  -10.6400 C   0  0  2  0  0  0  0  0  0  0  0  0
   -1.4390   24.0570  -10.1270 C   0  0  2  0  0  0  0  0  0  0  0  0
   -0.8000   25.1490  -10.8090 O   0  0  0  0  0  0  0  0  0  0  0  0
   -3.3810   21.8890   -9.4370 O   0  0  0  0  0  0  0  0  0  0  0  0
   -0.5050   22.8590  -10.1210 C   0  0  2  0  0  0  0  0  0  0  0  0
   -1.3170   21.6940  -10.3980 O   0  0  0  0  0  0  0  0  0  0  0  0
    0.2250   22.6080   -8.8100 C   0  0  0  0  0  0  0  0  0  0  0  0
  1  2  1  0
  2  3  1  0
  2  4  2  0
  3  5  1  1
  3  6  1  0
  6  7  1  0
  7  8  2  0
  7  9  1  0
  8 10  1  0
  9 11  2  0
 10 12  2  0
 11 12  1  0
 12 13  1  0
 13 14  1  0
 14 15  1  0
 15 16  1  0
 16 17  1  0
 18 17  1  1
 18 19  1  0
 18 20  1  0
 20 21  1  6
 19 22  1  1
 20 23  1  0
 19 24  1  0
 23 24  1  0
 23 25  1  1
M  END
