x0438_0_A-x0290_0_A
     RDKit          3D

 26 28  0  0  0  0  0  0  0  0999 V2000
   -8.0650   15.6990    4.0290 C   0  0  0  0  0  0  0  0  0  0  0  0
   -8.9860   15.2670    2.5630 S   0  0  0  0  0  0  0  0  0  0  0  0
  -10.1680   14.5550    3.0410 O   0  0  0  0  0  0  0  0  0  0  0  0
   -7.9720   14.0530    1.5970 C   0  0  2  0  0  0  0  0  0  0  0  0
   -9.2370   16.4680    1.8040 O   0  0  0  0  0  0  0  0  0  0  0  0
   -8.8620   13.1820    0.7160 C   0  0  0  0  0  0  0  0  0  0  0  0
   -6.7420   13.3920    2.3140 C   0  0  0  0  0  0  0  0  0  0  0  0
   -6.9160   14.5850    0.7320 C   0  0  0  0  0  0  0  0  0  0  0  0
   -5.4120   13.4000    1.4480 C   0  0  0  0  0  0  0  0  0  0  0  0
   -6.8830   14.6610   -0.6350 N   0  0  0  0  0  0  0  0  0  0  0  0
   -5.8150   14.9970    1.2790 N   0  0  0  0  0  0  0  0  0  0  0  0
   -5.4090   12.9430    0.2970 O   0  0  0  0  0  0  0  0  0  0  0  0
   -4.1670   13.9280    1.8500 N   0  0  0  0  0  0  0  0  0  0  0  0
   -5.0000   15.3170    0.2690 C   0  0  0  0  0  0  0  0  0  0  0  0
   -5.6270   15.1180   -0.9510 C   0  0  0  0  0  0  0  0  0  0  0  0
   -4.9860   15.3600   -2.1480 C   0  0  0  0  0  0  0  0  0  0  0  0
   -3.6940   15.7760    0.3480 C   0  0  0  0  0  0  0  0  0  0  0  0
   -2.9040   14.1230    1.1810 C   0  0  0  0  0  0  0  0  0  0  0  0
   -3.6620   15.8050   -2.0670 C   0  0  0  0  0  0  0  0  0  0  0  0
   -3.0240   16.0120   -0.8430 C   0  0  0  0  0  0  0  0  0  0  0  0
   -1.7810   14.3400    1.9030 N   0  0  0  0  0  0  0  0  0  0  0  0
   -2.8260   14.0910   -0.2220 C   0  0  0  0  0  0  0  0  0  0  0  0
   -0.6000   14.5220    1.2710 C   0  0  0  0  0  0  0  0  0  0  0  0
   -1.5830   14.2920   -0.8680 C   0  0  0  0  0  0  0  0  0  0  0  0
   -1.4620   14.2770   -2.3640 C   0  0  0  0  0  0  0  0  0  0  0  0
   -0.4490   14.5110   -0.0950 C   0  0  0  0  0  0  0  0  0  0  0  0
  2  1  1  0
  2  3  2  0
  2  4  1  0
  2  5  2  0
  4  6  1  6
  4  7  1  0
  4  8  1  0
  7  9  1  0
  8 10  1  0
  8 11  2  0
  9 12  2  0
  9 13  1  0
 11 14  1  0
 10 15  1  0
 14 15  2  0
 15 16  1  0
 14 17  1  0
 13 18  1  0
 16 19  2  0
 17 20  2  0
 19 20  1  0
 18 21  2  0
 18 22  1  0
 21 23  1  0
 22 24  2  0
 24 25  1  0
 23 26  2  0
 24 26  1  0
M  END
