x0438_0_A_α-x0685_0_A_α
     RDKit          3D

 18 20  0  0  0  0  0  0  0  0999 V2000
   -7.3960   15.0930    3.2180 C   0  0  0  0  0  0  0  0  0  0  0  0
   -9.0260   15.1970    2.4550 S   0  0  0  0  0  0  0  0  0  0  0  0
  -10.0720   15.1130    3.4670 O   0  0  0  0  0  0  0  0  0  0  0  0
   -6.0750   14.9440    2.4500 N   0  0  0  0  0  0  0  0  0  0  0  0
   -8.9260   13.6040    1.7530 C   0  0  0  0  0  0  0  0  0  0  0  0
   -9.1250   16.2130    1.4300 O   0  0  0  0  0  0  0  0  0  0  0  0
   -5.9200   14.7340    1.0030 C   0  0  0  0  0  0  0  0  0  0  0  0
   -8.2670   13.6520    0.4250 C   0  0  0  0  0  0  0  0  0  0  0  0
   -6.9380   14.1530    0.1260 C   0  0  0  0  0  0  0  0  0  0  0  0
   -4.6640   15.1350    0.4050 C   0  0  0  0  0  0  0  0  0  0  0  0
   -6.6190   14.0390   -1.2590 C   0  0  0  0  0  0  0  0  0  0  0  0
   -4.4380   14.9770   -0.9780 C   0  0  0  0  0  0  0  0  0  0  0  0
   -9.0770   13.1370   -0.5910 C   0  0  0  0  0  0  0  0  0  0  0  0
   -8.7440   13.0510   -1.8760 N   0  0  0  0  0  0  0  0  0  0  0  0
   -5.4090   14.4460   -1.7680 C   0  0  0  0  0  0  0  0  0  0  0  0
   -3.2060   15.3500   -1.6870 C   0  0  0  0  0  0  0  0  0  0  0  0
   -7.5270   13.5040   -2.1710 C   0  0  0  0  0  0  0  0  0  0  0  0
   -3.0410   14.6260   -2.9410 N   0  0  0  0  0  0  0  0  0  0  0  0
  2  1  1  0
  2  3  2  0
  1  4  1  0
  2  5  1  0
  2  6  2  0
  4  7  1  0
  5  8  1  0
  7  9  1  0
  8  9  2  0
  7 10  2  0
  9 11  1  0
 10 12  1  0
  8 13  1  0
 13 14  2  0
 11 15  1  0
 12 15  2  0
 12 16  1  0
 11 17  2  0
 14 17  1  0
 16 18  1  0
M  END
