x0436_0_B-x0228_0_B
     RDKit          3D

 33 35  0  0  0  0  0  0  0  0999 V2000
  -10.6770   28.7020  -16.2040 N   0  0  0  0  0  0  0  0  0  0  0  0
  -10.0920   29.8820  -15.8470 C   0  0  0  0  0  0  0  0  0  0  0  0
  -10.2780   30.2870  -14.3610 C   0  0  1  0  0  0  0  0  0  0  0  0
   -9.4860   30.5420  -16.6830 O   0  0  0  0  0  0  0  0  0  0  0  0
  -11.6970   30.7860  -14.1030 C   0  0  0  0  0  0  0  0  0  0  0  0
   -9.9100   29.1590  -13.4230 N   0  0  0  0  0  0  0  0  0  0  0  0
  -10.1370   27.8160  -13.9720 C   0  0  0  0  0  0  0  0  0  0  0  0
   -8.5890   29.2210  -13.0240 C   0  0  0  0  0  0  0  0  0  0  0  0
   -8.8360   27.3120  -14.6670 C   0  0  0  0  0  0  0  0  0  0  0  0
   -8.2660   29.1770  -11.6600 C   0  0  0  0  0  0  0  0  0  0  0  0
   -7.5540   29.3020  -13.9570 C   0  0  0  0  0  0  0  0  0  0  0  0
   -8.7260   25.8600  -14.7320 N   0  0  0  0  0  0  0  0  0  0  0  0
   -6.9430   29.2040  -11.2540 C   0  0  0  0  0  0  0  0  0  0  0  0
   -6.2410   29.3260  -13.5540 C   0  0  0  0  0  0  0  0  0  0  0  0
   -7.7780   25.0840  -14.0810 C   0  0  0  0  0  0  0  0  0  0  0  0
   -5.9580   29.2720  -12.2130 C   0  0  0  0  0  0  0  0  0  0  0  0
   -9.8820   25.2390  -15.0600 N   0  0  0  0  0  0  0  0  0  0  0  0
   -4.3530   29.2890  -11.7580 Cl  0  0  0  0  0  0  0  0  0  0  0  0
   -6.4820   25.3730  -14.4150 N   0  0  0  0  0  0  0  0  0  0  0  0
   -8.1040   24.2190  -13.2660 O   0  0  0  0  0  0  0  0  0  0  0  0
  -10.0440   24.2390  -15.9510 C   0  0  0  0  0  0  0  0  0  0  0  0
  -11.0930   25.5350  -14.5410 C   0  0  0  0  0  0  0  0  0  0  0  0
   -5.4300   25.3570  -13.5020 C   0  0  0  0  0  0  0  0  0  0  0  0
  -11.3220   23.9280  -15.9840 N   0  0  0  0  0  0  0  0  0  0  0  0
  -11.9840   24.7520  -15.0900 N   0  0  0  0  0  0  0  0  0  0  0  0
   -4.2190   25.9800  -13.8730 C   0  0  0  0  0  0  0  0  0  0  0  0
   -5.5730   24.7430  -12.2630 C   0  0  0  0  0  0  0  0  0  0  0  0
   -4.1250   26.5590  -15.1080 O   0  0  0  0  0  0  0  0  0  0  0  0
   -3.1800   25.9870  -12.9970 C   0  0  0  0  0  0  0  0  0  0  0  0
   -4.5310   24.7370  -11.3770 C   0  0  0  0  0  0  0  0  0  0  0  0
   -2.7920   26.8900  -15.5040 C   0  0  0  0  0  0  0  0  0  0  0  0
   -4.7220   24.0390  -10.0380 C   0  0  0  0  0  0  0  0  0  0  0  0
   -3.3440   25.3830  -11.7910 C   0  0  0  0  0  0  0  0  0  0  0  0
  1  2  1  0
  2  3  1  0
  2  4  2  0
  3  5  1  6
  3  6  1  0
  6  7  1  0
  6  8  1  0
  7  9  1  0
  8 10  2  0
  8 11  1  0
  9 12  1  0
 10 13  1  0
 11 14  2  0
 12 15  1  0
 13 16  2  0
 14 16  1  0
 12 17  1  0
 16 18  1  0
 15 19  1  0
 15 20  2  0
 17 21  1  0
 17 22  1  0
 19 23  1  0
 21 24  2  0
 22 25  2  0
 24 25  1  0
 23 26  2  0
 23 27  1  0
 26 28  1  0
 26 29  1  0
 27 30  2  0
 28 31  1  0
 30 32  1  0
 29 33  2  0
 30 33  1  0
M  END
