x0438_0_A-x0933_0_A
     RDKit          3D

 15 16  0  0  0  0  0  0  0  0999 V2000
   -8.1830   15.4930    3.7540 C   0  0  0  0  0  0  0  0  0  0  0  0
   -9.4510   15.3480    2.5070 S   0  0  0  0  0  0  0  0  0  0  0  0
  -10.6660   14.8710    3.1510 O   0  0  0  0  0  0  0  0  0  0  0  0
   -8.9100   14.0730    1.3780 C   0  0  0  0  0  0  0  0  0  0  0  0
   -9.4990   16.5830    1.7570 O   0  0  0  0  0  0  0  0  0  0  0  0
   -7.5770   14.4050    0.8260 C   0  0  0  0  0  0  0  0  0  0  0  0
   -7.3220   14.6860   -0.5030 N   0  0  0  0  0  0  0  0  0  0  0  0
   -6.4840   14.4650    1.5240 N   0  0  0  0  0  0  0  0  0  0  0  0
   -5.4850   14.7880    0.6450 C   0  0  0  0  0  0  0  0  0  0  0  0
   -5.9760   14.9370   -0.6350 C   0  0  0  0  0  0  0  0  0  0  0  0
   -5.1630   15.2640   -1.7250 C   0  0  0  0  0  0  0  0  0  0  0  0
   -4.1370   14.9670    0.9100 C   0  0  0  0  0  0  0  0  0  0  0  0
   -3.6600   14.8290    2.2030 N   0  0  0  0  0  0  0  0  0  0  0  0
   -3.7990   15.4360   -1.4550 C   0  0  0  0  0  0  0  0  0  0  0  0
   -3.2960   15.2860   -0.1590 C   0  0  0  0  0  0  0  0  0  0  0  0
  2  1  1  0
  2  3  2  0
  2  4  1  0
  2  5  2  0
  4  6  1  0
  6  7  1  0
  6  8  2  0
  8  9  1  0
  7 10  1  0
  9 10  2  0
 10 11  1  0
  9 12  1  0
 12 13  1  0
 11 14  2  0
 12 15  2  0
 14 15  1  0
M  END
