x0438_0_A-x0950_1_A
     RDKit          3D

 23 24  0  0  0  0  0  0  0  0999 V2000
   -8.1300   15.4740    3.7860 C   0  0  0  0  0  0  0  0  0  0  0  0
   -9.3780   15.3360    2.5150 S   0  0  0  0  0  0  0  0  0  0  0  0
  -10.5680   14.7900    3.1440 O   0  0  0  0  0  0  0  0  0  0  0  0
   -8.7890   14.1030    1.3650 C   0  0  0  0  0  0  0  0  0  0  0  0
   -9.4860   16.5850    1.7910 O   0  0  0  0  0  0  0  0  0  0  0  0
   -7.4130   14.3690    0.8590 C   0  0  0  0  0  0  0  0  0  0  0  0
   -7.1320   14.8460   -0.4050 N   0  0  0  0  0  0  0  0  0  0  0  0
   -6.3050   14.1780    1.5290 N   0  0  0  0  0  0  0  0  0  0  0  0
   -5.2740   14.5210    0.6920 C   0  0  0  0  0  0  0  0  0  0  0  0
   -5.7620   14.9480   -0.5310 C   0  0  0  0  0  0  0  0  0  0  0  0
   -4.9320   15.3560   -1.5720 C   0  0  0  0  0  0  0  0  0  0  0  0
   -3.8920   14.4860    0.9160 C   0  0  0  0  0  0  0  0  0  0  0  0
   -3.5470   15.3080   -1.3320 C   0  0  0  0  0  0  0  0  0  0  0  0
   -3.0130   14.8740   -0.0990 C   0  0  0  0  0  0  0  0  0  0  0  0
   -1.5200   14.7970    0.1780 C   0  0  0  0  0  0  0  0  0  0  0  0
   -0.5910   14.6440   -1.0420 C   0  0  0  0  0  0  0  0  0  0  0  0
    0.1640   13.3200   -1.0110 C   0  0  0  0  0  0  0  0  0  0  0  0
    1.0670   13.2260   -2.1210 O   0  0  0  0  0  0  0  0  0  0  0  0
    0.8590   12.2000   -2.9840 C   0  0  0  0  0  0  0  0  0  0  0  0
    1.3400   12.5530   -4.4000 C   0  0  2  0  0  0  0  0  0  0  0  0
    0.3500   11.1180   -2.6920 O   0  0  0  0  0  0  0  0  0  0  0  0
    1.1070   14.0080   -4.7650 C   0  0  0  0  0  0  0  0  0  0  0  0
    0.6800   11.7430   -5.3790 O   0  0  0  0  0  0  0  0  0  0  0  0
  2  1  1  0
  2  3  2  0
  2  4  1  0
  2  5  2  0
  4  6  1  0
  6  7  1  0
  6  8  2  0
  8  9  1  0
  7 10  1  0
  9 10  2  0
 10 11  1  0
  9 12  1  0
 11 13  2  0
 12 14  2  0
 13 14  1  0
 14 15  1  0
 15 16  1  0
 16 17  1  0
 17 18  1  0
 18 19  1  0
 19 20  1  0
 19 21  2  0
 20 22  1  6
 20 23  1  0
M  END
