x0438_0_A-x0465_0_A
     RDKit          3D

 30 32  0  0  0  0  0  0  0  0999 V2000
   -8.1060   15.5190    3.8300 C   0  0  0  0  0  0  0  0  0  0  0  0
   -9.3450   15.3440    2.5550 S   0  0  0  0  0  0  0  0  0  0  0  0
  -10.5590   14.8380    3.1770 O   0  0  0  0  0  0  0  0  0  0  0  0
   -8.7500   14.0780    1.4460 C   0  0  0  0  0  0  0  0  0  0  0  0
   -9.4280   16.5700    1.7940 O   0  0  0  0  0  0  0  0  0  0  0  0
   -7.3880   14.3350    0.9020 C   0  0  0  0  0  0  0  0  0  0  0  0
   -7.1540   14.8820   -0.3390 N   0  0  0  0  0  0  0  0  0  0  0  0
   -6.2540   14.0670    1.5040 N   0  0  0  0  0  0  0  0  0  0  0  0
   -5.2520   14.4280    0.6360 C   0  0  0  0  0  0  0  0  0  0  0  0
   -5.7930   14.9470   -0.5310 C   0  0  0  0  0  0  0  0  0  0  0  0
   -5.0180   15.3950   -1.5900 C   0  0  0  0  0  0  0  0  0  0  0  0
   -3.8520   14.3360    0.7710 C   0  0  0  0  0  0  0  0  0  0  0  0
   -3.6260   15.2890   -1.4470 C   0  0  0  0  0  0  0  0  0  0  0  0
   -3.0270   14.7610   -0.2860 C   0  0  0  0  0  0  0  0  0  0  0  0
   -1.5150   14.6340   -0.1760 C   0  0  0  0  0  0  0  0  0  0  0  0
   -0.8140   14.4540   -1.5440 C   0  0  0  0  0  0  0  0  0  0  0  0
    0.5920   13.8510   -1.5150 C   0  0  0  0  0  0  0  0  0  0  0  0
    0.5240   12.3980   -1.6010 N   0  0  0  0  0  0  0  0  0  0  0  0
    0.5570   11.7650   -2.7330 C   0  0  0  0  0  0  0  0  0  0  0  0
    0.6780   12.4340   -4.1470 C   0  0  1  0  0  0  0  0  0  0  0  0
    0.4700   10.4030   -2.7080 O   0  0  0  0  0  0  0  0  0  0  0  0
    2.0350   13.1390   -4.2660 C   0  0  0  0  0  0  0  0  0  0  0  0
    0.6020   11.4870   -5.2210 O   0  0  0  0  0  0  0  0  0  0  0  0
   -0.5280   10.7850   -5.5510 C   0  0  0  0  0  0  0  0  0  0  0  0
   -0.6530    9.7920   -6.5360 C   0  0  0  0  0  0  0  0  0  0  0  0
   -1.6620   11.1190   -4.8060 C   0  0  0  0  0  0  0  0  0  0  0  0
    0.3800    9.4090   -7.3040 F   0  0  0  0  0  0  0  0  0  0  0  0
   -1.8670    9.1520   -6.7610 C   0  0  0  0  0  0  0  0  0  0  0  0
   -2.8840   10.4790   -5.0330 C   0  0  0  0  0  0  0  0  0  0  0  0
   -2.9870    9.4920   -6.0100 C   0  0  0  0  0  0  0  0  0  0  0  0
  2  1  1  0
  2  3  2  0
  2  4  1  0
  2  5  2  0
  4  6  1  0
  6  7  1  0
  6  8  2  0
  8  9  1  0
  7 10  1  0
  9 10  2  0
 10 11  1  0
  9 12  1  0
 11 13  2  0
 12 14  2  0
 13 14  1  0
 14 15  1  0
 15 16  1  0
 16 17  1  0
 17 18  1  0
 18 19  2  3
 19 20  1  0
 19 21  1  0
 20 22  1  1
 20 23  1  0
 23 24  1  0
 24 25  2  0
 24 26  1  0
 25 27  1  0
 25 28  1  0
 26 29  2  0
 28 30  2  0
 29 30  1  0
M  END
