x0438_0_A-x0852_0_B
     RDKit          3D

 22 24  0  0  0  0  0  0  0  0999 V2000
   -9.5670   16.3920    1.7080 C   0  0  0  0  0  0  0  0  0  0  0  0
   -9.7220   14.7880    1.7170 S   0  0  0  0  0  0  0  0  0  0  0  0
  -11.0590   14.2530    2.7650 O   0  0  0  0  0  0  0  0  0  0  0  0
   -8.8960   13.6210    0.9440 C   0  0  0  0  0  0  0  0  0  0  0  0
   -8.7740   14.6320    3.0440 C   0  0  0  0  0  0  0  0  0  0  0  0
   -7.5310   14.0790    0.5250 C   0  0  0  0  0  0  0  0  0  0  0  0
   -8.1340   14.7430    4.3110 C   0  0  0  0  0  0  0  0  0  0  0  0
   -9.6540   15.6910    3.3370 C   0  0  0  0  0  0  0  0  0  0  0  0
   -7.1640   14.5440   -0.6570 N   0  0  0  0  0  0  0  0  0  0  0  0
   -6.3940   14.0840    1.2730 N   0  0  0  0  0  0  0  0  0  0  0  0
   -8.2720   15.5050    5.3910 C   0  0  0  0  0  0  0  0  0  0  0  0
   -9.9230   16.5550    4.3540 C   0  0  0  0  0  0  0  0  0  0  0  0
   -5.3610   14.5290    0.5430 C   0  0  0  0  0  0  0  0  0  0  0  0
   -5.8580   14.8260   -0.7020 C   0  0  0  0  0  0  0  0  0  0  0  0
   -7.4300   15.3000    6.4860 O   0  0  0  0  0  0  0  0  0  0  0  0
   -9.2020   16.4450    5.4240 C   0  0  0  0  0  0  0  0  0  0  0  0
   -4.9970   15.2990   -1.6510 C   0  0  0  0  0  0  0  0  0  0  0  0
   -4.0260   14.7060    0.8320 C   0  0  0  0  0  0  0  0  0  0  0  0
   -9.4300   17.2960    6.5530 C   0  0  0  0  0  0  0  0  0  0  0  0
   -3.6550   15.4740   -1.3850 C   0  0  0  0  0  0  0  0  0  0  0  0
   -3.1430   15.1770   -0.1270 C   0  0  0  0  0  0  0  0  0  0  0  0
   -9.6640   17.9390    7.4630 N   0  0  0  0  0  0  0  0  0  0  0  0
  1  2  1  0
  2  3  2  0
  2  4  1  0
  2  5  1  0
  4  6  1  0
  5  7  2  0
  5  8  1  0
  6  9  1  0
  6 10  2  0
  7 11  1  0
  8 12  2  0
 10 13  1  0
  9 14  1  0
 13 14  2  0
 11 15  1  0
 11 16  2  0
 12 16  1  0
 14 17  1  0
 13 18  1  0
 16 19  1  0
 17 20  2  0
 18 21  2  0
 20 21  1  0
 19 22  3  0
M  END
