x0436_0_B_α-x0380_0_B_α
     RDKit          3D

 18 18  0  0  0  0  0  0  0  0999 V2000
  -10.4400   28.2820  -15.9000 N   0  0  0  0  0  0  0  0  0  0  0  0
  -10.1650   29.6240  -15.8470 C   0  0  0  0  0  0  0  0  0  0  0  0
  -10.2920   30.2720  -14.4620 C   0  0  1  0  0  0  0  0  0  0  0  0
   -9.8400   30.2370  -16.8580 O   0  0  0  0  0  0  0  0  0  0  0  0
  -11.7580   30.5670  -14.1790 C   0  0  0  0  0  0  0  0  0  0  0  0
   -9.8470   29.3910  -13.4350 O   0  0  0  0  0  0  0  0  0  0  0  0
   -8.5130   29.3500  -13.1830 C   0  0  0  0  0  0  0  0  0  0  0  0
   -8.2220   29.1790  -11.8300 C   0  0  0  0  0  0  0  0  0  0  0  0
   -7.4760   29.4650  -14.1350 C   0  0  0  0  0  0  0  0  0  0  0  0
   -6.9050   29.1160  -11.4210 C   0  0  0  0  0  0  0  0  0  0  0  0
   -6.1360   29.4070  -13.7360 C   0  0  0  0  0  0  0  0  0  0  0  0
   -4.9740   29.5170  -14.6040 N   0  0  0  0  0  0  0  0  0  0  0  0
   -5.9070   29.2270  -12.3770 C   0  0  0  0  0  0  0  0  0  0  0  0
   -4.3160   29.1320  -11.8520 Cl  0  0  0  0  0  0  0  0  0  0  0  0
   -4.3910   30.6510  -15.1930 C   0  0  0  0  0  0  0  0  0  0  0  0
   -4.9290   31.7380  -15.3510 O   0  0  0  0  0  0  0  0  0  0  0  0
   -2.9410   30.4350  -15.6780 C   0  0  0  0  0  0  0  0  0  0  0  0
   -2.6470   31.3020  -16.8400 N   0  0  0  0  0  0  0  0  0  0  0  0
  1  2  1  0
  2  3  1  0
  2  4  2  0
  3  5  1  1
  3  6  1  0
  6  7  1  0
  7  8  2  0
  7  9  1  0
  8 10  1  0
  9 11  2  0
 11 12  1  0
 10 13  2  0
 11 13  1  0
 13 14  1  0
 12 15  1  0
 15 16  2  0
 15 17  1  0
 17 18  1  0
M  END
