x0438_0_A_α-x0465_0_A_α
     RDKit          3D

 30 32  0  0  0  0  0  0  0  0999 V2000
   -8.0990   15.4970    3.8040 C   0  0  0  0  0  0  0  0  0  0  0  0
   -9.3310   15.3100    2.5260 S   0  0  0  0  0  0  0  0  0  0  0  0
  -10.5380   14.7850    3.1450 O   0  0  0  0  0  0  0  0  0  0  0  0
   -8.7190   14.0600    1.4040 C   0  0  0  0  0  0  0  0  0  0  0  0
   -9.4260   16.5420    1.7750 O   0  0  0  0  0  0  0  0  0  0  0  0
   -7.3520   14.3410    0.8780 C   0  0  0  0  0  0  0  0  0  0  0  0
   -7.1050   14.7970   -0.3980 N   0  0  0  0  0  0  0  0  0  0  0  0
   -6.2240   14.1840    1.5320 N   0  0  0  0  0  0  0  0  0  0  0  0
   -5.2110   14.5280    0.6660 C   0  0  0  0  0  0  0  0  0  0  0  0
   -5.7420   14.9200   -0.5540 C   0  0  0  0  0  0  0  0  0  0  0  0
   -4.9550   15.3220   -1.6240 C   0  0  0  0  0  0  0  0  0  0  0  0
   -3.8090   14.5280    0.8510 C   0  0  0  0  0  0  0  0  0  0  0  0
   -3.5640   15.3110   -1.4300 C   0  0  0  0  0  0  0  0  0  0  0  0
   -2.9710   14.9180   -0.2100 C   0  0  0  0  0  0  0  0  0  0  0  0
   -1.4470   14.9180   -0.0490 C   0  0  0  0  0  0  0  0  0  0  0  0
   -0.7260   13.5990   -0.0810 C   0  0  0  0  0  0  0  0  0  0  0  0
    0.3000   13.5110   -1.2180 C   0  0  0  0  0  0  0  0  0  0  0  0
    0.3540   12.1210   -1.5880 N   0  0  0  0  0  0  0  0  0  0  0  0
    0.5020   11.6290   -2.7710 C   0  0  0  0  0  0  0  0  0  0  0  0
    0.6660   12.4000   -4.1240 C   0  0  1  0  0  0  0  0  0  0  0  0
    0.4910   10.2780   -2.8270 O   0  0  0  0  0  0  0  0  0  0  0  0
    2.0370   13.0860   -4.1630 C   0  0  0  0  0  0  0  0  0  0  0  0
    0.5870   11.5190   -5.2550 O   0  0  0  0  0  0  0  0  0  0  0  0
   -0.5320   10.7940   -5.5750 C   0  0  0  0  0  0  0  0  0  0  0  0
   -0.6480    9.7870   -6.5430 C   0  0  0  0  0  0  0  0  0  0  0  0
   -1.6700   11.1230   -4.8280 C   0  0  0  0  0  0  0  0  0  0  0  0
    0.3860    9.4080   -7.3090 F   0  0  0  0  0  0  0  0  0  0  0  0
   -1.8550    9.1260   -6.7570 C   0  0  0  0  0  0  0  0  0  0  0  0
   -2.8840   10.4630   -5.0420 C   0  0  0  0  0  0  0  0  0  0  0  0
   -2.9780    9.4630   -6.0050 C   0  0  0  0  0  0  0  0  0  0  0  0
  2  1  1  0
  2  3  2  0
  2  4  1  0
  2  5  2  0
  4  6  1  0
  6  7  1  0
  6  8  2  0
  8  9  1  0
  7 10  1  0
  9 10  2  0
 10 11  1  0
  9 12  1  0
 11 13  2  0
 12 14  2  0
 13 14  1  0
 14 15  1  0
 15 16  1  0
 16 17  1  0
 17 18  1  0
 18 19  2  3
 19 20  1  0
 19 21  1  0
 20 22  1  1
 20 23  1  0
 23 24  1  0
 24 25  2  0
 24 26  1  0
 25 27  1  0
 25 28  1  0
 26 29  2  0
 28 30  2  0
 29 30  1  0
M  END
