x0438_0_A-x1018_0_A
     RDKit          3D

 14 15  0  0  0  0  0  0  0  0999 V2000
   -8.1560   15.5230    3.8560 C   0  0  0  0  0  0  0  0  0  0  0  0
   -9.3800   15.3130    2.5700 S   0  0  0  0  0  0  0  0  0  0  0  0
  -10.6000   14.8190    3.1870 O   0  0  0  0  0  0  0  0  0  0  0  0
   -8.7610   14.0230    1.5060 C   0  0  0  0  0  0  0  0  0  0  0  0
   -9.4450   16.5240    1.7840 O   0  0  0  0  0  0  0  0  0  0  0  0
   -7.4130   14.3400    0.9680 C   0  0  0  0  0  0  0  0  0  0  0  0
   -7.1910   14.7190   -0.3370 N   0  0  0  0  0  0  0  0  0  0  0  0
   -6.2860   14.2970    1.6360 N   0  0  0  0  0  0  0  0  0  0  0  0
   -5.3010   14.6460    0.7480 C   0  0  0  0  0  0  0  0  0  0  0  0
   -5.8430   14.9190   -0.5020 C   0  0  0  0  0  0  0  0  0  0  0  0
   -5.0820   15.2980   -1.5980 C   0  0  0  0  0  0  0  0  0  0  0  0
   -3.9180   14.7500    0.9410 C   0  0  0  0  0  0  0  0  0  0  0  0
   -3.7040   15.3940   -1.3970 C   0  0  0  0  0  0  0  0  0  0  0  0
   -3.1280   15.1240   -0.1470 C   0  0  0  0  0  0  0  0  0  0  0  0
  2  1  1  0
  2  3  2  0
  2  4  1  0
  2  5  2  0
  4  6  1  0
  6  7  1  0
  6  8  2  0
  8  9  1  0
  7 10  1  0
  9 10  2  0
 10 11  1  0
  9 12  1  0
 11 13  2  0
 12 14  2  0
 13 14  1  0
M  END
