x0436_0_B-x0918_1_B
     RDKit          3D

 22 23  0  0  0  0  0  0  0  0999 V2000
  -10.3690   28.3540  -15.7220 N   0  0  0  0  0  0  0  0  0  0  0  0
  -10.0820   29.6850  -15.8660 C   0  0  0  0  0  0  0  0  0  0  0  0
  -10.2950   30.5650  -14.6240 C   0  0  1  0  0  0  0  0  0  0  0  0
   -9.6810   30.1330  -16.9340 O   0  0  0  0  0  0  0  0  0  0  0  0
  -11.7490   31.0150  -14.5920 C   0  0  0  0  0  0  0  0  0  0  0  0
  -10.1060   29.8810  -13.4010 O   0  0  0  0  0  0  0  0  0  0  0  0
   -8.8750   29.4810  -12.9990 C   0  0  0  0  0  0  0  0  0  0  0  0
   -8.5560   29.2300  -11.6830 C   0  0  0  0  0  0  0  0  0  0  0  0
   -7.9120   29.3180  -14.0040 C   0  0  0  0  0  0  0  0  0  0  0  0
   -7.2910   28.8020  -11.3680 C   0  0  0  0  0  0  0  0  0  0  0  0
   -6.6370   28.8840  -13.6760 C   0  0  0  0  0  0  0  0  0  0  0  0
   -6.3510   28.6200  -12.3490 C   0  0  0  0  0  0  0  0  0  0  0  0
   -5.0730   28.1010  -11.9080 C   0  0  0  0  0  0  0  0  0  0  0  0
   -5.4930   26.6460  -11.5020 C   0  0  0  0  0  0  0  0  0  0  0  0
   -5.7120   25.7150  -12.7010 C   0  0  0  0  0  0  0  0  0  0  0  0
   -4.4680   25.9110  -13.4510 C   0  0  0  0  0  0  0  0  0  0  0  0
   -3.3780   26.0510  -12.6380 C   0  0  0  0  0  0  0  0  0  0  0  0
   -4.4200   25.9760  -14.7920 N   0  0  0  0  0  0  0  0  0  0  0  0
   -2.1520   26.2890  -13.1800 C   0  0  0  0  0  0  0  0  0  0  0  0
   -3.1950   26.2060  -15.3050 C   0  0  0  0  0  0  0  0  0  0  0  0
   -1.0360   26.4620  -12.3840 N   0  0  0  0  0  0  0  0  0  0  0  0
   -2.0480   26.3680  -14.5460 C   0  0  0  0  0  0  0  0  0  0  0  0
  1  2  1  0
  2  3  1  0
  2  4  2  0
  3  5  1  1
  3  6  1  0
  6  7  1  0
  7  8  2  0
  7  9  1  0
  8 10  1  0
  9 11  2  0
 10 12  2  0
 11 12  1  0
 12 13  1  0
 13 14  1  0
 14 15  1  0
 15 16  1  0
 16 17  2  0
 16 18  1  0
 17 19  1  0
 18 20  2  0
 19 21  1  0
 19 22  2  0
 20 22  1  0
M  END
