x0438_0_A-x0104_0_A
     RDKit          3D

 23 26  0  0  0  0  0  0  0  0999 V2000
   -7.7790   14.7600    3.3280 C   0  0  1  0  0  0  0  0  0  0  0  0
   -9.1870   15.0600    2.1060 S   0  0  0  0  0  0  0  0  0  0  0  0
  -10.3970   14.3800    2.5410 O   0  0  0  0  0  0  0  0  0  0  0  0
   -6.4660   15.1070    2.7350 N   0  0  0  0  0  0  0  0  0  0  0  0
   -8.0070   15.2100    4.7240 N   0  0  0  0  0  0  0  0  0  0  0  0
   -8.6000   14.1940    0.6680 C   0  0  0  0  0  0  0  0  0  0  0  0
   -9.3110   16.4640    1.7680 O   0  0  0  0  0  0  0  0  0  0  0  0
   -6.0660   14.4200    1.5040 N   0  0  0  0  0  0  0  0  0  0  0  0
   -9.1930   15.1300    5.4020 C   0  0  0  0  0  0  0  0  0  0  0  0
   -7.0650   14.1110    0.4400 C   0  0  2  0  0  0  0  0  0  0  0  0
   -4.9950   15.2300    0.8650 C   0  0  2  0  0  0  0  0  0  0  0  0
   -9.2830   15.1750    6.7840 C   0  0  0  0  0  0  0  0  0  0  0  0
  -10.7680   14.9710    4.7280 S   0  0  0  0  0  0  0  0  0  0  0  0
   -6.5950   14.6900   -0.8750 N   0  0  0  0  0  0  0  0  0  0  0  0
   -5.4920   15.6070   -0.5540 C   0  0  2  0  0  0  0  0  0  0  0  0
   -3.6600   14.5450    0.9230 C   0  0  0  0  0  0  0  0  0  0  0  0
  -11.5290   14.9620    6.2520 C   0  0  0  0  0  0  0  0  0  0  0  0
  -10.6190   15.0790    7.2740 C   0  0  0  0  0  0  0  0  0  0  0  0
   -5.8400   13.6810   -1.6510 O   0  0  0  0  0  0  0  0  0  0  0  0
   -4.4250   15.5950   -1.6020 C   0  0  0  0  0  0  0  0  0  0  0  0
   -2.8460   14.4970   -0.1310 C   0  0  0  0  0  0  0  0  0  0  0  0
   -5.1000   14.3060   -2.7150 C   0  0  0  0  0  0  0  0  0  0  0  0
   -3.2080   15.0850   -1.3920 C   0  0  0  0  0  0  0  0  0  0  0  0
  1  2  1  0
  2  3  2  0
  1  4  1  0
  1  5  1  1
  2  6  1  0
  2  7  2  0
  4  8  1  0
  5  9  1  0
 10  6  1  1
  8 10  1  0
  8 11  1  0
  9 12  2  0
  9 13  1  0
 10 14  1  0
 11 15  1  0
 14 15  1  0
 11 16  1  6
 13 17  1  0
 12 18  1  0
 17 18  2  0
 14 19  1  0
 15 20  1  6
 16 21  2  0
 19 22  1  0
 20 23  2  0
 21 23  1  0
M  END
