x0438_0_A-x0844_0_A
     RDKit          3D

 16 17  0  0  0  0  0  0  0  0999 V2000
   -8.3280   15.7930    4.0880 C   0  0  0  0  0  0  0  0  0  0  0  0
   -9.4120   15.3680    2.7410 S   0  0  0  0  0  0  0  0  0  0  0  0
  -10.6740   14.9280    3.3000 O   0  0  0  0  0  0  0  0  0  0  0  0
   -8.6390   13.9820    1.9710 C   0  0  0  0  0  0  0  0  0  0  0  0
   -9.3990   16.4560    1.7860 O   0  0  0  0  0  0  0  0  0  0  0  0
   -7.3470   14.3290    1.3340 C   0  0  0  0  0  0  0  0  0  0  0  0
   -7.3030   14.4250   -0.0380 N   0  0  0  0  0  0  0  0  0  0  0  0
   -6.2250   14.5610    1.9740 N   0  0  0  0  0  0  0  0  0  0  0  0
   -5.3180   14.7550    0.9800 C   0  0  0  0  0  0  0  0  0  0  0  0
   -6.0620   14.7110   -0.2510 C   0  0  0  0  0  0  0  0  0  0  0  0
   -5.4220   14.9760   -1.5250 C   0  0  0  0  0  0  0  0  0  0  0  0
   -3.9950   14.9370    0.9690 C   0  0  0  0  0  0  0  0  0  0  0  0
   -6.1630   15.1110   -2.4640 O   0  0  0  0  0  0  0  0  0  0  0  0
   -3.9270   15.0480   -1.4970 C   0  0  0  0  0  0  0  0  0  0  0  0
   -3.2950   15.0440   -0.3020 C   0  0  0  0  0  0  0  0  0  0  0  0
   -3.0260   15.1110   -3.1210 Br  0  0  0  0  0  0  0  0  0  0  0  0
  2  1  1  0
  2  3  2  0
  2  4  1  0
  2  5  2  0
  4  6  1  0
  6  7  1  0
  6  8  2  0
  8  9  1  0
  7 10  2  0
  9 10  1  0
 10 11  1  0
  9 12  2  0
 11 13  2  0
 11 14  1  0
 12 15  1  0
 14 15  2  0
 14 16  1  0
M  END
