x0438_0_A-x0253_0_A
     RDKit          3D

 31 33  0  0  0  0  0  0  0  0999 V2000
   -8.1450   15.4740    3.7910 C   0  0  0  0  0  0  0  0  0  0  0  0
   -9.3920   15.3360    2.5210 S   0  0  0  0  0  0  0  0  0  0  0  0
  -10.5880   14.8050    3.1510 O   0  0  0  0  0  0  0  0  0  0  0  0
   -8.8160   14.0950    1.3710 C   0  0  0  0  0  0  0  0  0  0  0  0
   -9.4920   16.5800    1.7860 O   0  0  0  0  0  0  0  0  0  0  0  0
   -7.4310   14.3650    0.9050 C   0  0  0  0  0  0  0  0  0  0  0  0
   -7.1160   14.8060   -0.3620 N   0  0  0  0  0  0  0  0  0  0  0  0
   -6.3510   14.2120    1.6250 N   0  0  0  0  0  0  0  0  0  0  0  0
   -5.3000   14.5460    0.8140 C   0  0  0  0  0  0  0  0  0  0  0  0
   -5.7460   14.9260   -0.4400 C   0  0  0  0  0  0  0  0  0  0  0  0
   -4.8780   15.3150   -1.4600 C   0  0  0  0  0  0  0  0  0  0  0  0
   -3.9360   14.5380    1.1030 C   0  0  0  0  0  0  0  0  0  0  0  0
   -3.5050   15.2960   -1.1580 C   0  0  0  0  0  0  0  0  0  0  0  0
   -3.0200   14.9090    0.1160 C   0  0  0  0  0  0  0  0  0  0  0  0
   -1.5430   14.8650    0.4800 C   0  0  0  0  0  0  0  0  0  0  0  0
   -0.6240   14.7660   -0.7410 C   0  0  0  0  0  0  0  0  0  0  0  0
    0.0180   13.3970   -0.8940 C   0  0  0  0  0  0  0  0  0  0  0  0
    0.7240   13.3350   -2.1680 N   0  0  0  0  0  0  0  0  0  0  0  0
    0.6910   12.3170   -2.9470 C   0  0  0  0  0  0  0  0  0  0  0  0
   -0.0110   11.2240   -2.5690 O   0  0  0  0  0  0  0  0  0  0  0  0
    1.3720   12.2070   -4.3000 C   0  0  0  0  0  0  0  0  0  0  0  0
    0.4380   11.9350   -5.3930 N   0  0  0  0  0  0  0  0  0  0  0  0
    1.0110   11.7290   -6.6190 C   0  0  0  0  0  0  0  0  0  0  0  0
    2.1170   12.1760   -6.7890 O   0  0  0  0  0  0  0  0  0  0  0  0
    0.3110   10.9010   -7.6550 C   0  0  0  0  0  0  0  0  0  0  0  0
   -0.8580   10.1960   -7.3510 C   0  0  0  0  0  0  0  0  0  0  0  0
    0.8340   10.8070   -8.9490 C   0  0  0  0  0  0  0  0  0  0  0  0
   -1.4740    9.3930   -8.3120 C   0  0  0  0  0  0  0  0  0  0  0  0
    0.2180   10.0160   -9.9110 C   0  0  0  0  0  0  0  0  0  0  0  0
   -2.7120    8.6260   -7.9500 C   0  0  0  0  0  0  0  0  0  0  0  0
   -0.9320    9.3050   -9.5920 C   0  0  0  0  0  0  0  0  0  0  0  0
  2  1  1  0
  2  3  2  0
  2  4  1  0
  2  5  2  0
  4  6  1  0
  6  7  1  0
  6  8  2  0
  8  9  1  0
  7 10  1  0
  9 10  2  0
 10 11  1  0
  9 12  1  0
 11 13  2  0
 12 14  2  0
 13 14  1  0
 14 15  1  0
 15 16  1  0
 16 17  1  0
 17 18  1  0
 18 19  2  3
 19 20  1  0
 19 21  1  0
 21 22  1  0
 22 23  1  0
 23 24  2  0
 23 25  1  0
 25 26  2  0
 25 27  1  0
 26 28  1  0
 27 29  2  0
 28 30  1  0
 28 31  2  0
 29 31  1  0
M  END
