x0438_0_A_α-x0727_0_A_α
     RDKit          3D

 30 32  0  0  0  0  0  0  0  0999 V2000
   -8.1750   15.5810    3.9200 C   0  0  0  0  0  0  0  0  0  0  0  0
   -9.3120   15.2880    2.5570 S   0  0  0  0  0  0  0  0  0  0  0  0
  -10.5240   14.7410    3.1430 O   0  0  0  0  0  0  0  0  0  0  0  0
   -8.6210   14.0180    1.4740 C   0  0  0  0  0  0  0  0  0  0  0  0
   -9.4250   16.5090    1.7690 O   0  0  0  0  0  0  0  0  0  0  0  0
   -7.2850   14.3580    0.9170 C   0  0  0  0  0  0  0  0  0  0  0  0
   -7.0630   14.8270   -0.3570 N   0  0  0  0  0  0  0  0  0  0  0  0
   -6.1430   14.2440    1.5690 N   0  0  0  0  0  0  0  0  0  0  0  0
   -5.1520   14.6370    0.7030 C   0  0  0  0  0  0  0  0  0  0  0  0
   -5.6990   15.0110   -0.5180 C   0  0  0  0  0  0  0  0  0  0  0  0
   -4.9190   15.4550   -1.5870 C   0  0  0  0  0  0  0  0  0  0  0  0
   -3.7550   14.6960    0.8940 C   0  0  0  0  0  0  0  0  0  0  0  0
   -3.5280   15.5080   -1.3900 C   0  0  0  0  0  0  0  0  0  0  0  0
   -2.9310   15.1320   -0.1720 C   0  0  0  0  0  0  0  0  0  0  0  0
   -1.4180   15.1800    0.0090 C   0  0  0  0  0  0  0  0  0  0  0  0
   -0.6120   14.7800   -1.2520 C   0  0  0  0  0  0  0  0  0  0  0  0
   -0.0130   13.3610   -1.2220 C   0  0  0  0  0  0  0  0  0  0  0  0
    0.8840   13.0810   -2.3280 O   0  0  0  0  0  0  0  0  0  0  0  0
    0.6060   12.0130   -3.1370 C   0  0  0  0  0  0  0  0  0  0  0  0
    0.8810   12.3560   -4.6180 C   0  0  1  0  0  0  0  0  0  0  0  0
    0.2000   10.9170   -2.7440 O   0  0  0  0  0  0  0  0  0  0  0  0
    0.1370   11.4470   -5.4910 N   0  0  0  0  0  0  0  0  0  0  0  0
    0.5020   13.8040   -4.9110 C   0  0  0  0  0  0  0  0  0  0  0  0
    0.7060   11.1260   -6.7050 C   0  0  0  0  0  0  0  0  0  0  0  0
    1.6550   11.7440   -7.1310 O   0  0  0  0  0  0  0  0  0  0  0  0
    0.1260    9.9520   -7.4830 C   0  0  0  0  0  0  0  0  0  0  0  0
   -1.1620   10.3170   -8.2350 C   0  0  0  0  0  0  0  0  0  0  0  0
   -0.2070    8.7260   -6.6050 C   0  0  0  0  0  0  0  0  0  0  0  0
   -2.1090    9.1290   -8.0260 C   0  0  0  0  0  0  0  0  0  0  0  0
   -1.7170    8.5890   -6.6510 C   0  0  0  0  0  0  0  0  0  0  0  0
  2  1  1  0
  2  3  2  0
  2  4  1  0
  2  5  2  0
  4  6  1  0
  6  7  1  0
  6  8  2  0
  8  9  1  0
  7 10  1  0
  9 10  2  0
 10 11  1  0
  9 12  1  0
 11 13  2  0
 12 14  2  0
 13 14  1  0
 14 15  1  0
 15 16  1  0
 16 17  1  0
 17 18  1  0
 18 19  1  0
 19 20  1  0
 19 21  2  0
 20 22  1  0
 20 23  1  1
 22 24  1  0
 24 25  2  0
 24 26  1  0
 26 27  1  0
 26 28  1  0
 27 29  1  0
 28 30  1  0
 29 30  1  0
M  END
