x0438_0_A-x0421_0_A
     RDKit          3D

 17 18  0  0  0  0  0  0  0  0999 V2000
   -8.1960   15.5510    3.8700 C   0  0  0  0  0  0  0  0  0  0  0  0
   -9.4300   15.3910    2.5910 S   0  0  0  0  0  0  0  0  0  0  0  0
  -10.6360   14.8870    3.2210 O   0  0  0  0  0  0  0  0  0  0  0  0
   -8.8480   14.1030    1.5110 C   0  0  0  0  0  0  0  0  0  0  0  0
   -9.5070   16.6070    1.8080 O   0  0  0  0  0  0  0  0  0  0  0  0
   -7.4680   14.3430    1.0110 C   0  0  0  0  0  0  0  0  0  0  0  0
   -7.1690   14.4300   -0.3250 N   0  0  0  0  0  0  0  0  0  0  0  0
   -6.3870   14.4850    1.7410 N   0  0  0  0  0  0  0  0  0  0  0  0
   -5.3490   14.6520    0.8610 C   0  0  0  0  0  0  0  0  0  0  0  0
   -5.8180   14.6190   -0.4460 C   0  0  0  0  0  0  0  0  0  0  0  0
   -4.9940   14.7520   -1.5530 C   0  0  0  0  0  0  0  0  0  0  0  0
   -3.9830   14.8330    1.1100 C   0  0  0  0  0  0  0  0  0  0  0  0
   -3.6310   14.9110   -1.2860 C   0  0  0  0  0  0  0  0  0  0  0  0
   -3.1280   14.9590    0.0160 C   0  0  0  0  0  0  0  0  0  0  0  0
   -2.6770   15.0200   -2.3890 C   0  0  0  0  0  0  0  0  0  0  0  0
   -3.1930   15.2750   -3.6190 N   0  0  0  0  0  0  0  0  0  0  0  0
   -1.4740   14.8680   -2.2150 O   0  0  0  0  0  0  0  0  0  0  0  0
  2  1  1  0
  2  3  2  0
  2  4  1  0
  2  5  2  0
  4  6  1  0
  6  7  1  0
  6  8  2  0
  8  9  1  0
  7 10  1  0
  9 10  2  0
 10 11  1  0
  9 12  1  0
 11 13  2  0
 12 14  2  0
 13 14  1  0
 13 15  1  0
 15 16  1  0
 15 17  2  0
M  END
