x0438_0_A_α-5CB5_0_B_β
     RDKit          3D

 26 27  0  0  0  0  0  0  0  0999 V2000
   -8.1820   15.6150    3.9200 C   0  0  0  0  0  0  0  0  0  0  0  0
   -9.2800   15.2930    2.5680 S   0  0  0  0  0  0  0  0  0  0  0  0
  -10.5610   14.7520    3.1430 O   0  0  0  0  0  0  0  0  0  0  0  0
   -8.6510   14.0590    1.4610 C   0  0  0  0  0  0  0  0  0  0  0  0
   -9.6140   16.5520    1.8560 O   0  0  0  0  0  0  0  0  0  0  0  0
   -7.3290   14.3960    0.8830 C   0  0  0  0  0  0  0  0  0  0  0  0
   -7.0180   14.6250   -0.4040 N   0  0  0  0  0  0  0  0  0  0  0  0
   -6.1860   14.5280    1.5700 N   0  0  0  0  0  0  0  0  0  0  0  0
   -5.1610   14.8280    0.7510 C   0  0  0  0  0  0  0  0  0  0  0  0
   -5.7020   14.8870   -0.5150 C   0  0  0  0  0  0  0  0  0  0  0  0
   -4.8510   15.1790   -1.5770 C   0  0  0  0  0  0  0  0  0  0  0  0
   -3.8140   15.0570    0.9520 C   0  0  0  0  0  0  0  0  0  0  0  0
   -3.4970   15.4050   -1.4190 C   0  0  0  0  0  0  0  0  0  0  0  0
   -2.9940   15.3430   -0.1330 C   0  0  0  0  0  0  0  0  0  0  0  0
   -2.6130   15.6950   -2.5780 C   0  0  0  0  0  0  0  0  0  0  0  0
   -3.2850   15.3920   -3.8940 C   0  0  0  0  0  0  0  0  0  0  0  0
   -2.7450   16.2940   -4.9660 C   0  0  0  0  0  0  0  0  0  0  0  0
   -2.3830   17.5700   -4.5900 O   0  0  0  0  0  0  0  0  0  0  0  0
   -1.5000   18.2020   -5.7650 P   0  0  0  0  0  0  0  0  0  0  0  0
   -1.5370   19.7100   -6.2790 O   0  0  0  0  0  0  0  0  0  0  0  0
   -0.2610   17.2220   -6.3320 O   0  0  0  0  0  0  0  0  0  0  0  0
   -2.4620   17.6720   -6.8240 O   0  0  0  0  0  0  0  0  0  0  0  0
   -0.4580   19.8840   -7.5120 P   0  0  0  0  0  0  0  0  0  0  0  0
   -0.7650   21.1290   -8.5240 O   0  0  0  0  0  0  0  0  0  0  0  0
   -1.2270   19.0350   -8.4300 O   0  0  0  0  0  0  0  0  0  0  0  0
    0.8120   18.8980   -7.6940 O   0  0  0  0  0  0  0  0  0  0  0  0
  2  1  1  0
  2  3  2  0
  2  4  1  0
  2  5  2  0
  4  6  1  0
  6  7  1  0
  6  8  2  0
  8  9  1  0
  7 10  1  0
  9 10  2  0
 10 11  1  0
  9 12  1  0
 11 13  2  0
 12 14  2  0
 13 14  1  0
 13 15  1  0
 15 16  1  0
 16 17  1  0
 17 18  1  0
 18 19  1  0
 19 20  1  0
 19 21  1  0
 19 22  1  0
 20 23  1  0
 23 24  1  0
 23 25  1  0
 23 26  1  0
M  CHG  2  22  -1  25  -1
M  END
