x0438_0_A_α-x0711_0_A_α
     RDKit          3D

 22 23  0  0  0  0  0  0  0  0999 V2000
   -8.3260   15.9670    4.2020 C   0  0  0  0  0  0  0  0  0  0  0  0
   -9.2670   15.3550    2.8180 S   0  0  0  0  0  0  0  0  0  0  0  0
  -10.5580   14.8980    3.3100 O   0  0  0  0  0  0  0  0  0  0  0  0
   -8.3670   13.9010    2.3150 C   0  0  0  0  0  0  0  0  0  0  0  0
   -9.2430   16.3290    1.7480 O   0  0  0  0  0  0  0  0  0  0  0  0
   -7.0450   14.1710    1.6800 C   0  0  0  0  0  0  0  0  0  0  0  0
   -6.9260   14.4410    0.3710 N   0  0  0  0  0  0  0  0  0  0  0  0
   -5.8420   14.1740    2.2430 N   0  0  0  0  0  0  0  0  0  0  0  0
   -4.9270   14.4360    1.2440 C   0  0  0  0  0  0  0  0  0  0  0  0
   -5.5980   14.6010    0.0940 C   0  0  0  0  0  0  0  0  0  0  0  0
   -5.0410   14.8620   -1.0900 C   0  0  0  0  0  0  0  0  0  0  0  0
   -3.5220   14.5490    1.2040 C   0  0  0  0  0  0  0  0  0  0  0  0
   -6.1880   14.9590   -1.9340 C   0  0  0  0  0  0  0  0  0  0  0  0
   -3.6110   14.9650   -1.2340 C   0  0  0  0  0  0  0  0  0  0  0  0
   -2.8760   14.8080   -0.0400 C   0  0  0  0  0  0  0  0  0  0  0  0
   -2.8650   15.2070   -2.4850 N   0  0  0  0  0  0  0  0  0  0  0  0
   -7.2800   15.4140   -1.2360 N   0  0  0  0  0  0  0  0  0  0  0  0
   -6.2290   14.6460   -3.0820 O   0  0  0  0  0  0  0  0  0  0  0  0
   -1.3510   14.3960   -2.8100 S   0  0  0  0  0  0  0  0  0  0  0  0
   -1.8680   13.0940   -3.9070 C   0  0  0  0  0  0  0  0  0  0  0  0
   -0.5290   15.2730   -3.6240 O   0  0  0  0  0  0  0  0  0  0  0  0
   -0.7840   13.7780   -1.6280 O   0  0  0  0  0  0  0  0  0  0  0  0
  2  1  1  0
  2  3  2  0
  2  4  1  0
  2  5  2  0
  4  6  1  0
  6  7  1  0
  6  8  2  0
  8  9  1  0
  7 10  1  0
  9 10  2  0
 10 11  1  0
  9 12  1  0
 11 13  1  0
 11 14  2  0
 12 15  2  0
 14 15  1  0
 14 16  1  0
 13 17  1  0
 13 18  2  0
 19 16  1  0
 19 20  1  0
 19 21  2  0
 19 22  2  0
M  END
