x0438_0_A_α-1hjz_B_0_B_α
     RDKit          3D

 31 33  0  0  0  0  0  0  0  0999 V2000
   -8.1230   15.5500    3.8530 C   0  0  0  0  0  0  0  0  0  0  0  0
   -9.2880   15.3390    2.5140 S   0  0  0  0  0  0  0  0  0  0  0  0
  -10.4610   14.7030    3.1020 O   0  0  0  0  0  0  0  0  0  0  0  0
   -8.6260   14.1640    1.3320 C   0  0  0  0  0  0  0  0  0  0  0  0
   -9.4830   16.6010    1.8410 O   0  0  0  0  0  0  0  0  0  0  0  0
   -7.2540   14.4360    0.8130 C   0  0  0  0  0  0  0  0  0  0  0  0
   -6.9630   14.3840   -0.5340 N   0  0  0  0  0  0  0  0  0  0  0  0
   -6.1600   14.7370    1.4890 N   0  0  0  0  0  0  0  0  0  0  0  0
   -5.1430   14.8640    0.5630 C   0  0  0  0  0  0  0  0  0  0  0  0
   -5.6250   14.6420   -0.7140 C   0  0  0  0  0  0  0  0  0  0  0  0
   -4.8170   14.6890   -1.8650 C   0  0  0  0  0  0  0  0  0  0  0  0
   -3.7780   15.1630    0.7340 C   0  0  0  0  0  0  0  0  0  0  0  0
   -3.4360   14.9630   -1.7050 C   0  0  0  0  0  0  0  0  0  0  0  0
   -2.9410   15.2060   -0.4040 C   0  0  0  0  0  0  0  0  0  0  0  0
   -2.5030   14.9630   -2.9380 C   0  0  0  0  0  0  0  0  0  0  0  0
   -2.0880   16.2970   -3.5620 C   0  0  0  0  0  0  0  0  0  0  0  0
   -0.6100   16.5850   -3.9540 C   0  0  0  0  0  0  0  0  0  0  0  0
   -0.3450   16.9790   -5.4220 C   0  0  0  0  0  0  0  0  0  0  0  0
    0.5160   18.2250   -5.6820 C   0  0  0  0  0  0  0  0  0  0  0  0
   -0.3010   19.2790   -6.2190 O   0  0  0  0  0  0  0  0  0  0  0  0
   -0.0250   19.8970   -7.7150 S   0  0  0  0  0  0  0  0  0  0  0  0
    0.9290   20.9890   -7.6290 O   0  0  0  0  0  0  0  0  0  0  0  0
    0.1990   18.7890   -8.6360 O   0  0  0  0  0  0  0  0  0  0  0  0
   -1.6560   20.5260   -8.0210 C   0  0  0  0  0  0  0  0  0  0  0  0
   -2.0290   21.7980   -7.3050 C   0  0  0  0  0  0  0  0  0  0  0  0
   -3.4140   22.2630   -7.5030 N   0  0  0  0  0  0  0  0  0  0  0  0
   -3.6270   22.6760   -8.8940 C   0  0  0  0  0  0  0  0  0  0  0  0
   -3.7980   23.3870   -6.6390 C   0  0  0  0  0  0  0  0  0  0  0  0
   -5.0670   23.1060   -9.1700 C   0  0  0  0  0  0  0  0  0  0  0  0
   -5.2140   23.8720   -6.9350 C   0  0  0  0  0  0  0  0  0  0  0  0
   -5.4390   24.1820   -8.3120 O   0  0  0  0  0  0  0  0  0  0  0  0
  2  1  1  0
  2  3  2  0
  2  4  1  0
  2  5  2  0
  4  6  1  0
  6  7  1  0
  6  8  2  0
  8  9  1  0
  7 10  1  0
  9 10  2  0
 10 11  1  0
  9 12  1  0
 11 13  2  0
 12 14  2  0
 13 14  1  0
 13 15  1  0
 15 16  1  0
 16 17  1  0
 17 18  1  0
 18 19  1  0
 19 20  1  0
 21 20  1  0
 21 22  2  0
 21 23  2  0
 21 24  1  0
 24 25  1  0
 25 26  1  0
 26 27  1  0
 26 28  1  0
 27 29  1  0
 28 30  1  0
 29 31  1  0
 30 31  1  0
M  END
