x0438_0_A-x0864_0_A
     RDKit          3D

 29 31  0  0  0  0  0  0  0  0999 V2000
   -8.1230   15.5080    3.8320 C   0  0  0  0  0  0  0  0  0  0  0  0
   -9.3340   15.3240    2.5340 S   0  0  0  0  0  0  0  0  0  0  0  0
  -10.5400   14.7920    3.1480 O   0  0  0  0  0  0  0  0  0  0  0  0
   -8.7040   14.0580    1.4400 C   0  0  0  0  0  0  0  0  0  0  0  0
   -9.4330   16.5530    1.7720 O   0  0  0  0  0  0  0  0  0  0  0  0
   -7.3300   14.3370    0.9330 C   0  0  0  0  0  0  0  0  0  0  0  0
   -7.0630   14.7730   -0.3470 N   0  0  0  0  0  0  0  0  0  0  0  0
   -6.2160   14.1970    1.6120 N   0  0  0  0  0  0  0  0  0  0  0  0
   -5.1920   14.5350    0.7600 C   0  0  0  0  0  0  0  0  0  0  0  0
   -5.6980   14.9030   -0.4760 C   0  0  0  0  0  0  0  0  0  0  0  0
   -4.8880   15.2950   -1.5400 C   0  0  0  0  0  0  0  0  0  0  0  0
   -3.8020   14.5450    0.9820 C   0  0  0  0  0  0  0  0  0  0  0  0
   -3.5050   15.2940   -1.3090 C   0  0  0  0  0  0  0  0  0  0  0  0
   -2.9420   14.9250   -0.0670 C   0  0  0  0  0  0  0  0  0  0  0  0
   -1.4280   14.9310    0.1510 C   0  0  0  0  0  0  0  0  0  0  0  0
   -0.7350   13.6010    0.0580 C   0  0  0  0  0  0  0  0  0  0  0  0
    0.2490   13.5640   -1.1160 C   0  0  0  0  0  0  0  0  0  0  0  0
    0.3250   12.1670   -1.4770 N   0  0  0  0  0  0  0  0  0  0  0  0
    0.4560   11.7120   -2.6720 C   0  0  0  0  0  0  0  0  0  0  0  0
    0.5710   12.4220   -4.0350 C   0  0  0  0  0  0  0  0  0  0  0  0
    0.4860   10.3550   -2.7030 O   0  0  0  0  0  0  0  0  0  0  0  0
   -0.1880   11.7420   -5.0990 N   0  0  0  0  0  0  0  0  0  0  0  0
   -1.4070   11.1610   -4.7900 C   0  0  0  0  0  0  0  0  0  0  0  0
    0.4690   11.4520   -6.2960 C   0  0  0  0  0  0  0  0  0  0  0  0
    1.4590   12.0410   -6.7090 O   0  0  0  0  0  0  0  0  0  0  0  0
   -1.9260   10.1910   -5.5550 C   0  0  0  0  0  0  0  0  0  0  0  0
   -0.0770   10.3250   -7.0990 C   0  0  0  0  0  0  0  0  0  0  0  0
   -1.2190    9.7350   -6.7240 C   0  0  0  0  0  0  0  0  0  0  0  0
   -1.9510    8.3070   -7.6790 Br  0  0  0  0  0  0  0  0  0  0  0  0
  2  1  1  0
  2  3  2  0
  2  4  1  0
  2  5  2  0
  4  6  1  0
  6  7  1  0
  6  8  2  0
  8  9  1  0
  7 10  1  0
  9 10  2  0
 10 11  1  0
  9 12  1  0
 11 13  2  0
 12 14  2  0
 13 14  1  0
 14 15  1  0
 15 16  1  0
 16 17  1  0
 17 18  1  0
 18 19  2  3
 19 20  1  0
 19 21  1  0
 20 22  1  0
 22 23  1  0
 22 24  1  0
 24 25  2  0
 23 26  2  0
 24 27  1  0
 26 28  1  0
 27 28  2  0
 28 29  1  0
M  END
