x0436_0_B_α-x0228_0_B_α
     RDKit          3D

 23 24  0  0  0  0  0  0  0  0999 V2000
  -10.7440   28.7710  -16.3500 N   0  0  0  0  0  0  0  0  0  0  0  0
  -10.1580   29.9020  -15.8630 C   0  0  0  0  0  0  0  0  0  0  0  0
  -10.3990   30.2750  -14.3820 C   0  0  1  0  0  0  0  0  0  0  0  0
   -9.4680   30.5920  -16.6150 O   0  0  0  0  0  0  0  0  0  0  0  0
  -11.8190   30.7620  -14.1070 C   0  0  0  0  0  0  0  0  0  0  0  0
   -9.9670   29.2270  -13.3910 N   0  0  0  0  0  0  0  0  0  0  0  0
  -10.2270   27.8250  -13.7970 C   0  0  0  0  0  0  0  0  0  0  0  0
   -8.6300   29.2550  -13.0410 C   0  0  0  0  0  0  0  0  0  0  0  0
   -8.8590   27.1740  -14.1520 C   0  0  0  0  0  0  0  0  0  0  0  0
   -8.2820   29.1220  -11.6940 C   0  0  0  0  0  0  0  0  0  0  0  0
   -7.6250   29.3900  -14.0020 C   0  0  0  0  0  0  0  0  0  0  0  0
   -8.8830   25.7290  -14.3420 N   0  0  0  0  0  0  0  0  0  0  0  0
   -6.9460   29.1130  -11.3200 C   0  0  0  0  0  0  0  0  0  0  0  0
   -6.2980   29.3790  -13.6310 C   0  0  0  0  0  0  0  0  0  0  0  0
   -7.8350   24.9230  -13.9460 C   0  0  0  0  0  0  0  0  0  0  0  0
   -5.9830   29.2350  -12.3000 C   0  0  0  0  0  0  0  0  0  0  0  0
   -9.9670   25.1430  -14.8990 N   0  0  0  0  0  0  0  0  0  0  0  0
   -4.3580   29.2020  -11.8790 Cl  0  0  0  0  0  0  0  0  0  0  0  0
   -7.8330   24.1340  -13.0090 O   0  0  0  0  0  0  0  0  0  0  0  0
   -9.9930   24.2130  -15.8810 C   0  0  0  0  0  0  0  0  0  0  0  0
  -11.2450   25.4090  -14.5500 C   0  0  0  0  0  0  0  0  0  0  0  0
  -11.2520   23.9140  -16.1290 N   0  0  0  0  0  0  0  0  0  0  0  0
  -12.0440   24.6750  -15.2840 N   0  0  0  0  0  0  0  0  0  0  0  0
  1  2  1  0
  2  3  1  0
  2  4  2  0
  3  5  1  6
  3  6  1  0
  6  7  1  0
  6  8  1  0
  7  9  1  0
  8 10  2  0
  8 11  1  0
  9 12  1  0
 10 13  1  0
 11 14  2  0
 12 15  1  0
 13 16  2  0
 14 16  1  0
 12 17  1  0
 16 18  1  0
 15 19  2  0
 17 20  1  0
 17 21  1  0
 20 22  2  0
 21 23  2  0
 22 23  1  0
M  END
