x0438_0_A-x0587_0_A
     RDKit          3D

 18 19  0  0  0  0  0  0  0  0999 V2000
   -8.0500   15.2590    3.5360 C   0  0  0  0  0  0  0  0  0  0  0  0
   -9.1700   15.1050    2.1490 S   0  0  0  0  0  0  0  0  0  0  0  0
  -10.3410   14.4000    2.6460 O   0  0  0  0  0  0  0  0  0  0  0  0
   -8.3820   14.0900    0.8600 C   0  0  0  0  0  0  0  0  0  0  0  0
   -9.3680   16.4310    1.6000 O   0  0  0  0  0  0  0  0  0  0  0  0
   -6.9410   14.4620    0.6250 C   0  0  0  0  0  0  0  0  0  0  0  0
   -6.1480   14.5500   -0.5450 N   0  0  0  0  0  0  0  0  0  0  0  0
   -6.1530   14.7860    1.6350 N   0  0  0  0  0  0  0  0  0  0  0  0
   -6.1410   14.3750   -1.9630 C   0  0  0  0  0  0  0  0  0  0  0  0
   -4.9160   15.0660    1.0940 C   0  0  0  0  0  0  0  0  0  0  0  0
   -4.9370   14.9310   -0.2450 C   0  0  0  0  0  0  0  0  0  0  0  0
   -4.8660   14.7210   -2.3340 F   0  0  0  0  0  0  0  0  0  0  0  0
   -6.2330   13.0840   -2.3410 F   0  0  0  0  0  0  0  0  0  0  0  0
   -6.9220   15.1840   -2.6810 F   0  0  0  0  0  0  0  0  0  0  0  0
   -3.8800   15.1480   -1.1200 C   0  0  0  0  0  0  0  0  0  0  0  0
   -3.7080   15.4470    1.6570 C   0  0  0  0  0  0  0  0  0  0  0  0
   -2.6920   15.5310   -0.5600 C   0  0  0  0  0  0  0  0  0  0  0  0
   -2.6010   15.6750    0.8120 C   0  0  0  0  0  0  0  0  0  0  0  0
  2  1  1  0
  2  3  2  0
  2  4  1  0
  2  5  2  0
  4  6  1  0
  6  7  1  0
  6  8  2  0
  7  9  1  0
  8 10  1  0
  7 11  1  0
 10 11  2  0
  9 12  1  0
  9 13  1  0
  9 14  1  0
 11 15  1  0
 10 16  1  0
 15 17  2  0
 16 18  2  0
 17 18  1  0
M  END
