x0438_0_A_α-x0371_0_A_β
     RDKit          3D

 14 15  0  0  0  0  0  0  0  0999 V2000
   -8.1650   15.4990    3.8500 C   0  0  0  0  0  0  0  0  0  0  0  0
   -9.3850   15.3010    2.5640 S   0  0  0  0  0  0  0  0  0  0  0  0
  -10.6090   14.8050    3.1730 O   0  0  0  0  0  0  0  0  0  0  0  0
   -8.7540   14.0120    1.5030 C   0  0  0  0  0  0  0  0  0  0  0  0
   -9.4450   16.5150    1.7780 O   0  0  0  0  0  0  0  0  0  0  0  0
   -7.4120   14.3380    0.9620 C   0  0  0  0  0  0  0  0  0  0  0  0
   -7.1910   14.7230   -0.3430 N   0  0  0  0  0  0  0  0  0  0  0  0
   -6.2850   14.3000    1.6310 N   0  0  0  0  0  0  0  0  0  0  0  0
   -5.3000   14.6550    0.7460 C   0  0  0  0  0  0  0  0  0  0  0  0
   -5.8450   14.9290   -0.5030 C   0  0  0  0  0  0  0  0  0  0  0  0
   -5.0820   15.3160   -1.6010 C   0  0  0  0  0  0  0  0  0  0  0  0
   -3.9190   14.7660    0.9390 C   0  0  0  0  0  0  0  0  0  0  0  0
   -3.7070   15.4150   -1.3940 C   0  0  0  0  0  0  0  0  0  0  0  0
   -3.1320   15.1450   -0.1460 C   0  0  0  0  0  0  0  0  0  0  0  0
  2  1  1  0
  2  3  2  0
  2  4  1  0
  2  5  2  0
  4  6  1  0
  6  7  1  0
  6  8  2  0
  8  9  1  0
  7 10  1  0
  9 10  2  0
 10 11  1  0
  9 12  1  0
 11 13  2  0
 12 14  2  0
 13 14  1  0
M  END
