x0436_0_B-x0380_0_B
     RDKit          3D

 18 18  0  0  0  0  0  0  0  0999 V2000
  -10.4410   28.2820  -15.9020 N   0  0  0  0  0  0  0  0  0  0  0  0
  -10.1690   29.6210  -15.8490 C   0  0  0  0  0  0  0  0  0  0  0  0
  -10.2940   30.2710  -14.4650 C   0  0  1  0  0  0  0  0  0  0  0  0
   -9.8480   30.2390  -16.8600 O   0  0  0  0  0  0  0  0  0  0  0  0
  -11.7610   30.5690  -14.1780 C   0  0  0  0  0  0  0  0  0  0  0  0
   -9.8470   29.3930  -13.4370 O   0  0  0  0  0  0  0  0  0  0  0  0
   -8.5140   29.3510  -13.1800 C   0  0  0  0  0  0  0  0  0  0  0  0
   -8.2220   29.1750  -11.8290 C   0  0  0  0  0  0  0  0  0  0  0  0
   -7.4760   29.4710  -14.1300 C   0  0  0  0  0  0  0  0  0  0  0  0
   -6.9070   29.1110  -11.4160 C   0  0  0  0  0  0  0  0  0  0  0  0
   -6.1320   29.4120  -13.7280 C   0  0  0  0  0  0  0  0  0  0  0  0
   -4.9730   29.5240  -14.5960 N   0  0  0  0  0  0  0  0  0  0  0  0
   -5.9050   29.2260  -12.3700 C   0  0  0  0  0  0  0  0  0  0  0  0
   -4.3150   29.1300  -11.8470 Cl  0  0  0  0  0  0  0  0  0  0  0  0
   -4.3900   30.6570  -15.1920 C   0  0  0  0  0  0  0  0  0  0  0  0
   -4.9270   31.7410  -15.3490 O   0  0  0  0  0  0  0  0  0  0  0  0
   -2.9440   30.4370  -15.6810 C   0  0  0  0  0  0  0  0  0  0  0  0
   -2.6480   31.2930  -16.8510 N   0  0  0  0  0  0  0  0  0  0  0  0
  1  2  1  0
  2  3  1  0
  2  4  2  0
  3  5  1  1
  3  6  1  0
  6  7  1  0
  7  8  2  0
  7  9  1  0
  8 10  1  0
  9 11  2  0
 11 12  1  0
 10 13  2  0
 11 13  1  0
 13 14  1  0
 12 15  1  0
 15 16  2  0
 15 17  1  0
 17 18  1  0
M  END
