x0436_0_B-x0380_0_B
     RDKit          3D

 18 18  0  0  0  0  0  0  0  0999 V2000
  -10.4420   28.2810  -15.9070 N   0  0  0  0  0  0  0  0  0  0  0  0
  -10.1690   29.6220  -15.8500 C   0  0  0  0  0  0  0  0  0  0  0  0
  -10.2970   30.2720  -14.4660 C   0  0  1  0  0  0  0  0  0  0  0  0
   -9.8440   30.2370  -16.8600 O   0  0  0  0  0  0  0  0  0  0  0  0
  -11.7620   30.5690  -14.1790 C   0  0  0  0  0  0  0  0  0  0  0  0
   -9.8500   29.3960  -13.4370 O   0  0  0  0  0  0  0  0  0  0  0  0
   -8.5140   29.3530  -13.1820 C   0  0  0  0  0  0  0  0  0  0  0  0
   -8.2230   29.1750  -11.8270 C   0  0  0  0  0  0  0  0  0  0  0  0
   -7.4770   29.4720  -14.1300 C   0  0  0  0  0  0  0  0  0  0  0  0
   -6.9110   29.1080  -11.4180 C   0  0  0  0  0  0  0  0  0  0  0  0
   -6.1350   29.4110  -13.7320 C   0  0  0  0  0  0  0  0  0  0  0  0
   -4.9740   29.5220  -14.5960 N   0  0  0  0  0  0  0  0  0  0  0  0
   -5.9090   29.2230  -12.3700 C   0  0  0  0  0  0  0  0  0  0  0  0
   -4.3180   29.1270  -11.8460 Cl  0  0  0  0  0  0  0  0  0  0  0  0
   -4.3920   30.6550  -15.1920 C   0  0  0  0  0  0  0  0  0  0  0  0
   -4.9290   31.7420  -15.3470 O   0  0  0  0  0  0  0  0  0  0  0  0
   -2.9440   30.4370  -15.6840 C   0  0  0  0  0  0  0  0  0  0  0  0
   -2.6460   31.2910  -16.8520 N   0  0  0  0  0  0  0  0  0  0  0  0
  1  2  1  0
  2  3  1  0
  2  4  2  0
  3  5  1  1
  3  6  1  0
  6  7  1  0
  7  8  2  0
  7  9  1  0
  8 10  1  0
  9 11  2  0
 11 12  1  0
 10 13  2  0
 11 13  1  0
 13 14  1  0
 12 15  1  0
 15 16  2  0
 15 17  1  0
 17 18  1  0
M  END
