x0438_0_A-x0722_0_A
     RDKit          3D

 25 27  0  0  0  0  0  0  0  0999 V2000
   -8.1710   15.4740    3.6690 C   0  0  0  0  0  0  0  0  0  0  0  0
   -9.3830   15.3450    2.3630 S   0  0  0  0  0  0  0  0  0  0  0  0
  -10.5870   14.8400    3.0050 O   0  0  0  0  0  0  0  0  0  0  0  0
   -8.8230   14.0380    1.2720 C   0  0  0  0  0  0  0  0  0  0  0  0
   -9.4590   16.5930    1.6440 O   0  0  0  0  0  0  0  0  0  0  0  0
   -7.7580   14.4180    0.2910 C   0  0  0  0  0  0  0  0  0  0  0  0
   -6.4560   14.4560    0.5940 N   0  0  0  0  0  0  0  0  0  0  0  0
   -7.8700   14.7270   -0.9590 N   0  0  0  0  0  0  0  0  0  0  0  0
   -6.5770   14.9320   -1.4020 C   0  0  0  0  0  0  0  0  0  0  0  0
   -5.6790   14.7870   -0.4550 C   0  0  0  0  0  0  0  0  0  0  0  0
   -6.0440   14.1670    1.7410 N   0  0  0  0  0  0  0  0  0  0  0  0
   -4.3210   14.9680   -0.7210 C   0  0  0  0  0  0  0  0  0  0  0  0
   -6.0910   15.2410   -2.6490 C   0  0  0  0  0  0  0  0  0  0  0  0
   -5.3600   13.1200    1.4620 C   0  0  0  0  0  0  0  0  0  0  0  0
   -3.8530   15.2750   -1.9430 C   0  0  0  0  0  0  0  0  0  0  0  0
   -4.7280   15.4010   -2.9070 C   0  0  0  0  0  0  0  0  0  0  0  0
   -3.3240   14.8520    0.1880 C   0  0  0  0  0  0  0  0  0  0  0  0
   -5.2770   12.6440    0.1970 N   0  0  0  0  0  0  0  0  0  0  0  0
   -3.3030   15.1820    1.5140 C   0  0  0  0  0  0  0  0  0  0  0  0
   -2.0890   14.3590   -0.1380 C   0  0  0  0  0  0  0  0  0  0  0  0
   -4.3460   15.7760    2.3460 C   0  0  0  0  0  0  0  0  0  0  0  0
   -1.5100   13.8590   -1.4120 C   0  0  0  0  0  0  0  0  0  0  0  0
   -2.1390   14.9020    2.0020 N   0  0  0  0  0  0  0  0  0  0  0  0
   -1.4210   14.4210    1.0180 N   0  0  0  0  0  0  0  0  0  0  0  0
   -0.0820   14.0490    1.2930 C   0  0  0  0  0  0  0  0  0  0  0  0
  2  1  1  0
  2  3  2  0
  2  4  1  0
  2  5  2  0
  4  6  1  0
  6  7  1  0
  6  8  2  0
  8  9  1  0
  7 10  1  0
  9 10  2  0
  7 11  1  0
 10 12  1  0
  9 13  1  0
 11 14  2  3
 12 15  2  0
 13 16  2  0
 15 16  1  0
 12 17  1  0
 14 18  1  0
 17 19  1  0
 17 20  2  0
 19 21  1  0
 20 22  1  0
 19 23  2  0
 20 24  1  0
 23 24  1  0
 24 25  1  0
M  END
