x0438_0_A-x0962_1_A
     RDKit          3D

 16 17  0  0  0  0  0  0  0  0999 V2000
   -8.0190   15.3350    3.6640 C   0  0  0  0  0  0  0  0  0  0  0  0
   -9.2280   15.2390    2.3550 S   0  0  0  0  0  0  0  0  0  0  0  0
  -10.3830   14.5320    2.8870 O   0  0  0  0  0  0  0  0  0  0  0  0
   -8.5360   14.2540    1.0110 C   0  0  0  0  0  0  0  0  0  0  0  0
   -9.4380   16.5690    1.8240 O   0  0  0  0  0  0  0  0  0  0  0  0
   -7.0610   14.4610    0.7850 C   0  0  0  0  0  0  0  0  0  0  0  0
   -6.4220   14.7030   -0.4330 N   0  0  0  0  0  0  0  0  0  0  0  0
   -6.1150   14.4330    1.7170 N   0  0  0  0  0  0  0  0  0  0  0  0
   -6.7140   14.8610   -1.8210 C   0  0  0  0  0  0  0  0  0  0  0  0
   -4.9100   14.6500    1.0520 C   0  0  0  0  0  0  0  0  0  0  0  0
   -5.1370   14.8150   -0.2720 C   0  0  0  0  0  0  0  0  0  0  0  0
   -6.6880   14.9870   -2.9560 N   0  0  0  0  0  0  0  0  0  0  0  0
   -4.1900   15.0490   -1.2560 C   0  0  0  0  0  0  0  0  0  0  0  0
   -3.5800   14.7230    1.4720 C   0  0  0  0  0  0  0  0  0  0  0  0
   -2.8940   15.1090   -0.8330 C   0  0  0  0  0  0  0  0  0  0  0  0
   -2.5810   14.9510    0.5150 C   0  0  0  0  0  0  0  0  0  0  0  0
  2  1  1  0
  2  3  2  0
  2  4  1  0
  2  5  2  0
  4  6  1  0
  6  7  1  0
  6  8  2  0
  7  9  1  0
  8 10  1  0
  7 11  1  0
 10 11  2  0
  9 12  3  0
 11 13  1  0
 10 14  1  0
 13 15  2  0
 14 16  2  0
 15 16  1  0
M  END
