x0438_0_A_α-x0662_0_A_β
     RDKit          3D

 28 30  0  0  0  0  0  0  0  0999 V2000
   -8.1550   15.5980    3.9190 C   0  0  0  0  0  0  0  0  0  0  0  0
   -9.3560   15.3550    2.6200 S   0  0  0  0  0  0  0  0  0  0  0  0
  -10.5780   14.8500    3.2230 O   0  0  0  0  0  0  0  0  0  0  0  0
   -8.7190   14.0550    1.5810 C   0  0  0  0  0  0  0  0  0  0  0  0
   -9.4350   16.5510    1.8110 O   0  0  0  0  0  0  0  0  0  0  0  0
   -7.3880   14.3440    0.9960 C   0  0  0  0  0  0  0  0  0  0  0  0
   -7.2020   14.4930   -0.3550 N   0  0  0  0  0  0  0  0  0  0  0  0
   -6.2440   14.4760    1.6430 N   0  0  0  0  0  0  0  0  0  0  0  0
   -5.2850   14.6950    0.6780 C   0  0  0  0  0  0  0  0  0  0  0  0
   -5.8730   14.7070   -0.5740 C   0  0  0  0  0  0  0  0  0  0  0  0
   -5.1700   14.8960   -1.7550 C   0  0  0  0  0  0  0  0  0  0  0  0
   -3.8980   14.8860    0.7860 C   0  0  0  0  0  0  0  0  0  0  0  0
   -3.7870   15.0680   -1.6630 C   0  0  0  0  0  0  0  0  0  0  0  0
   -3.1580   15.0670   -0.3990 C   0  0  0  0  0  0  0  0  0  0  0  0
   -3.0270   15.2340   -2.9650 C   0  0  0  0  0  0  0  0  0  0  0  0
   -1.5970   14.6700   -2.9710 C   0  0  0  0  0  0  0  0  0  0  0  0
   -1.2320   13.7510   -4.1500 C   0  0  0  0  0  0  0  0  0  0  0  0
   -0.7350   12.3470   -3.7880 C   0  0  0  0  0  0  0  0  0  0  0  0
   -0.8700   11.4870   -4.9510 N   0  0  0  0  0  0  0  0  0  0  0  0
    0.0630   11.4360   -5.8360 C   0  0  0  0  0  0  0  0  0  0  0  0
    1.1500   12.0420   -5.8550 O   0  0  0  0  0  0  0  0  0  0  0  0
   -0.0160   10.5930   -7.0730 C   0  0  0  0  0  0  0  0  0  0  0  0
    0.8110   10.8730   -8.1560 C   0  0  0  0  0  0  0  0  0  0  0  0
   -0.9170    9.5320   -7.1500 C   0  0  0  0  0  0  0  0  0  0  0  0
    0.7560   10.1220   -9.3250 C   0  0  0  0  0  0  0  0  0  0  0  0
   -0.9810    8.7660   -8.3130 C   0  0  0  0  0  0  0  0  0  0  0  0
    1.5900   10.4270  -10.4160 N   0  0  0  0  0  0  0  0  0  0  0  0
   -0.1480    9.0620   -9.3970 C   0  0  0  0  0  0  0  0  0  0  0  0
  2  1  1  0
  2  3  2  0
  2  4  1  0
  2  5  2  0
  4  6  1  0
  6  7  1  0
  6  8  2  0
  8  9  1  0
  7 10  1  0
  9 10  2  0
 10 11  1  0
  9 12  1  0
 11 13  2  0
 12 14  2  0
 13 14  1  0
 13 15  1  0
 15 16  1  0
 16 17  1  0
 17 18  1  0
 18 19  1  0
 19 20  2  3
 20 21  1  0
 20 22  1  0
 22 23  2  0
 22 24  1  0
 23 25  1  0
 24 26  2  0
 25 27  1  0
 25 28  2  0
 26 28  1  0
M  CHG  1  21  -1
M  END
