x0438_0_A-x0724_0_A
     RDKit          3D

 16 17  0  0  0  0  0  0  0  0999 V2000
   -8.2730   15.3030    3.8680 C   0  0  0  0  0  0  0  0  0  0  0  0
   -9.4510   15.2880    2.4730 S   0  0  0  0  0  0  0  0  0  0  0  0
  -10.7350   14.8060    2.9550 O   0  0  0  0  0  0  0  0  0  0  0  0
   -8.1650   14.0560    4.6610 N   0  0  0  0  0  0  0  0  0  0  0  0
   -8.8100   14.0380    1.3750 C   0  0  0  0  0  0  0  0  0  0  0  0
   -9.4050   16.5410    1.7520 O   0  0  0  0  0  0  0  0  0  0  0  0
   -8.5920   14.2210    6.0390 C   0  0  0  0  0  0  0  0  0  0  0  0
   -7.4430   14.3530    0.8850 C   0  0  0  0  0  0  0  0  0  0  0  0
   -7.1860   14.7320   -0.4100 N   0  0  0  0  0  0  0  0  0  0  0  0
   -6.3310   14.3100    1.5860 N   0  0  0  0  0  0  0  0  0  0  0  0
   -5.3240   14.6620    0.7240 C   0  0  0  0  0  0  0  0  0  0  0  0
   -5.8390   14.9330   -0.5390 C   0  0  0  0  0  0  0  0  0  0  0  0
   -5.0560   15.3130   -1.6210 C   0  0  0  0  0  0  0  0  0  0  0  0
   -3.9470   14.7700    0.9470 C   0  0  0  0  0  0  0  0  0  0  0  0
   -3.6860   15.4090   -1.3860 C   0  0  0  0  0  0  0  0  0  0  0  0
   -3.1350   15.1410   -0.1270 C   0  0  0  0  0  0  0  0  0  0  0  0
  2  1  1  0
  2  3  2  0
  1  4  1  0
  2  5  1  0
  2  6  2  0
  4  7  1  0
  5  8  1  0
  8  9  1  0
  8 10  2  0
 10 11  1  0
  9 12  1  0
 11 12  2  0
 12 13  1  0
 11 14  1  0
 13 15  2  0
 14 16  2  0
 15 16  1  0
M  END
