x0438_0_A_α-x0910_0_A_α
     RDKit          3D

 20 22  0  0  0  0  0  0  0  0999 V2000
   -8.2440   15.4400    3.7570 C   0  0  0  0  0  0  0  0  0  0  0  0
   -9.5480   15.3400    2.5370 S   0  0  0  0  0  0  0  0  0  0  0  0
  -10.7470   14.8520    3.1960 O   0  0  0  0  0  0  0  0  0  0  0  0
   -9.0540   14.1110    1.3440 C   0  0  0  0  0  0  0  0  0  0  0  0
   -9.5960   16.5990    1.8270 O   0  0  0  0  0  0  0  0  0  0  0  0
   -7.6720   14.3740    0.9040 C   0  0  0  0  0  0  0  0  0  0  0  0
   -7.3230   14.7640   -0.3750 N   0  0  0  0  0  0  0  0  0  0  0  0
   -6.6260   14.2660    1.6670 N   0  0  0  0  0  0  0  0  0  0  0  0
   -5.5680   14.5890    0.8880 C   0  0  0  0  0  0  0  0  0  0  0  0
   -5.9590   14.9110   -0.4070 C   0  0  0  0  0  0  0  0  0  0  0  0
   -5.0510   15.2810   -1.4130 C   0  0  0  0  0  0  0  0  0  0  0  0
   -4.2420   14.6220    1.2460 C   0  0  0  0  0  0  0  0  0  0  0  0
   -3.7050   15.3010   -1.0250 C   0  0  0  0  0  0  0  0  0  0  0  0
   -3.3430   14.9750    0.2810 C   0  0  0  0  0  0  0  0  0  0  0  0
   -2.5720   15.6020   -1.7540 N   0  0  0  0  0  0  0  0  0  0  0  0
   -1.4360   15.3690   -1.0840 C   0  0  0  0  0  0  0  0  0  0  0  0
   -1.4450   15.5680    0.2800 N   0  0  0  0  0  0  0  0  0  0  0  0
   -0.2510   14.9640   -1.4240 N   0  0  0  0  0  0  0  0  0  0  0  0
   -0.2700   15.2900    0.8390 N   0  0  0  0  0  0  0  0  0  0  0  0
    0.4190   14.9300   -0.2410 C   0  0  0  0  0  0  0  0  0  0  0  0
  2  1  1  0
  2  3  2  0
  2  4  1  0
  2  5  2  0
  4  6  1  0
  6  7  1  0
  6  8  2  0
  8  9  1  0
  7 10  1  0
  9 10  2  0
 10 11  1  0
  9 12  1  0
 11 13  2  0
 12 14  2  0
 13 14  1  0
 13 15  1  0
 15 16  1  0
 16 17  1  0
 16 18  2  0
 17 19  1  0
 18 20  1  0
 19 20  2  0
M  END
