x0438_0_A-x0950_0_A
     RDKit          3D

 23 24  0  0  0  0  0  0  0  0999 V2000
   -8.1110   15.4480    3.8160 C   0  0  0  0  0  0  0  0  0  0  0  0
   -9.3430   15.3070    2.5320 S   0  0  0  0  0  0  0  0  0  0  0  0
  -10.5580   14.7790    3.1300 O   0  0  0  0  0  0  0  0  0  0  0  0
   -8.7520   14.0850    1.3700 C   0  0  0  0  0  0  0  0  0  0  0  0
   -9.4210   16.5580    1.8100 O   0  0  0  0  0  0  0  0  0  0  0  0
   -7.3640   14.3490    0.9080 C   0  0  0  0  0  0  0  0  0  0  0  0
   -7.0460   14.7790   -0.3670 N   0  0  0  0  0  0  0  0  0  0  0  0
   -6.2770   14.2000    1.6220 N   0  0  0  0  0  0  0  0  0  0  0  0
   -5.2240   14.5250    0.8050 C   0  0  0  0  0  0  0  0  0  0  0  0
   -5.6780   14.8960   -0.4480 C   0  0  0  0  0  0  0  0  0  0  0  0
   -4.8140   15.2770   -1.4790 C   0  0  0  0  0  0  0  0  0  0  0  0
   -3.8510   14.5150    1.0850 C   0  0  0  0  0  0  0  0  0  0  0  0
   -3.4360   15.2540   -1.1880 C   0  0  0  0  0  0  0  0  0  0  0  0
   -2.9360   14.8760    0.0830 C   0  0  0  0  0  0  0  0  0  0  0  0
   -1.4470   14.8260    0.4330 C   0  0  0  0  0  0  0  0  0  0  0  0
   -0.8120   13.5400   -0.0630 C   0  0  0  0  0  0  0  0  0  0  0  0
    0.1070   13.7180   -1.2710 C   0  0  0  0  0  0  0  0  0  0  0  0
    0.7670   12.4670   -1.5360 O   0  0  0  0  0  0  0  0  0  0  0  0
    0.7220   11.9450   -2.8080 C   0  0  0  0  0  0  0  0  0  0  0  0
    1.3120   12.8610   -3.8990 C   0  0  1  0  0  0  0  0  0  0  0  0
    0.2670   10.8380   -3.0700 O   0  0  0  0  0  0  0  0  0  0  0  0
    2.8270   12.9670   -3.8230 C   0  0  0  0  0  0  0  0  0  0  0  0
    0.9750   12.3780   -5.2070 O   0  0  0  0  0  0  0  0  0  0  0  0
  2  1  1  0
  2  3  2  0
  2  4  1  0
  2  5  2  0
  4  6  1  0
  6  7  1  0
  6  8  2  0
  8  9  1  0
  7 10  1  0
  9 10  2  0
 10 11  1  0
  9 12  1  0
 11 13  2  0
 12 14  2  0
 13 14  1  0
 14 15  1  0
 15 16  1  0
 16 17  1  0
 17 18  1  0
 18 19  1  0
 19 20  1  0
 19 21  2  0
 20 22  1  6
 20 23  1  0
M  END
