x0436_0_B-x0918_0_B
     RDKit          3D

 14 14  0  0  0  0  0  0  0  0999 V2000
  -10.4190   28.2550  -15.9970 N   0  0  0  0  0  0  0  0  0  0  0  0
  -10.1640   29.5930  -15.8550 C   0  0  0  0  0  0  0  0  0  0  0  0
  -10.3770   30.1260  -14.4300 C   0  0  1  0  0  0  0  0  0  0  0  0
   -9.8010   30.2730  -16.8060 O   0  0  0  0  0  0  0  0  0  0  0  0
  -11.7890   30.6300  -14.1550 C   0  0  0  0  0  0  0  0  0  0  0  0
   -9.8910   29.2910  -13.3880 O   0  0  0  0  0  0  0  0  0  0  0  0
   -8.5620   29.2620  -13.1200 C   0  0  0  0  0  0  0  0  0  0  0  0
   -8.2710   29.1810  -11.7560 C   0  0  0  0  0  0  0  0  0  0  0  0
   -7.5250   29.3090  -14.0620 C   0  0  0  0  0  0  0  0  0  0  0  0
   -6.9510   29.1480  -11.3380 C   0  0  0  0  0  0  0  0  0  0  0  0
   -6.1900   29.2810  -13.6510 C   0  0  0  0  0  0  0  0  0  0  0  0
   -5.1040   29.3380  -14.5760 N   0  0  0  0  0  0  0  0  0  0  0  0
   -5.9510   29.1980  -12.2940 C   0  0  0  0  0  0  0  0  0  0  0  0
   -4.3450   29.1560  -11.8070 Cl  0  0  0  0  0  0  0  0  0  0  0  0
  1  2  1  0
  2  3  1  0
  2  4  2  0
  3  5  1  1
  3  6  1  0
  6  7  1  0
  7  8  2  0
  7  9  1  0
  8 10  1  0
  9 11  2  0
 11 12  1  0
 10 13  2  0
 11 13  1  0
 13 14  1  0
M  END
