x0438_0_A_α-x0895_0_A_α
     RDKit          3D

 15 16  0  0  0  0  0  0  0  0999 V2000
   -8.2100   15.6760    3.9810 C   0  0  0  0  0  0  0  0  0  0  0  0
   -9.2580   15.2720    2.5980 S   0  0  0  0  0  0  0  0  0  0  0  0
  -10.5100   14.7720    3.1320 O   0  0  0  0  0  0  0  0  0  0  0  0
   -8.4370   13.9480    1.7490 C   0  0  0  0  0  0  0  0  0  0  0  0
   -9.2940   16.4130    1.7060 O   0  0  0  0  0  0  0  0  0  0  0  0
   -7.2030   14.3440    1.0070 C   0  0  0  0  0  0  0  0  0  0  0  0
   -7.1960   14.8060   -0.2180 N   0  0  0  0  0  0  0  0  0  0  0  0
   -5.9530   14.2040    1.6180 N   0  0  0  0  0  0  0  0  0  0  0  0
   -5.1090   14.5840    0.7010 C   0  0  0  0  0  0  0  0  0  0  0  0
   -5.8640   14.9650   -0.4890 C   0  0  0  0  0  0  0  0  0  0  0  0
   -5.2390   15.3680   -1.5900 C   0  0  0  0  0  0  0  0  0  0  0  0
   -3.6020   14.6720    0.6920 C   0  0  0  0  0  0  0  0  0  0  0  0
   -2.8730   14.4160    1.6480 O   0  0  0  0  0  0  0  0  0  0  0  0
   -3.7970   15.4220   -1.6370 C   0  0  0  0  0  0  0  0  0  0  0  0
   -3.0150   15.0970   -0.5950 C   0  0  0  0  0  0  0  0  0  0  0  0
  2  1  1  0
  2  3  2  0
  2  4  1  0
  2  5  2  0
  4  6  1  0
  6  7  2  0
  6  8  1  0
  8  9  2  0
  7 10  1  0
  9 10  1  0
 10 11  2  0
  9 12  1  0
 12 13  2  0
 11 14  1  0
 12 15  1  0
 14 15  2  0
M  END
