x0438_0_A-x0962_2_B
     RDKit          3D

 20 22  0  0  0  0  0  0  0  0999 V2000
   -8.6440   13.6320    3.4110 C   0  0  0  0  0  0  0  0  0  0  0  0
   -9.4540   14.2450    2.1550 S   0  0  0  0  0  0  0  0  0  0  0  0
  -11.1910   14.6280    2.5550 O   0  0  0  0  0  0  0  0  0  0  0  0
   -9.1350   14.1840    0.5720 C   0  0  0  0  0  0  0  0  0  0  0  0
   -9.2920   15.6890    2.3380 N   0  0  0  0  0  0  0  0  0  0  0  0
  -10.1270   16.7310    1.8920 N   0  0  0  0  0  0  0  0  0  0  0  0
   -7.6600   14.4350    0.3020 C   0  0  0  0  0  0  0  0  0  0  0  0
   -8.8540   16.1320    3.6530 C   0  0  1  0  0  0  0  0  0  0  0  0
   -7.1440   14.7690   -0.8790 N   0  0  0  0  0  0  0  0  0  0  0  0
   -6.6050   14.3760    1.1510 N   0  0  0  0  0  0  0  0  0  0  0  0
   -9.7460   15.8390    4.7290 N   0  0  0  0  0  0  0  0  0  0  0  0
   -7.6090   15.3670    4.0970 C   0  0  0  0  0  0  0  0  0  0  0  0
   -5.4660   14.6680    0.4860 C   0  0  0  0  0  0  0  0  0  0  0  0
   -5.8170   14.9180   -0.8040 C   0  0  0  0  0  0  0  0  0  0  0  0
   -8.9540   15.6320    5.8930 C   0  0  0  0  0  0  0  0  0  0  0  0
   -7.8930   14.8290    5.4090 N   0  0  0  0  0  0  0  0  0  0  0  0
   -4.8390   15.2470   -1.7300 C   0  0  0  0  0  0  0  0  0  0  0  0
   -4.1390   14.7490    0.8510 C   0  0  0  0  0  0  0  0  0  0  0  0
   -3.5160   15.3230   -1.3750 C   0  0  0  0  0  0  0  0  0  0  0  0
   -3.1500   15.0710   -0.0520 C   0  0  0  0  0  0  0  0  0  0  0  0
  1  2  1  0
  2  3  2  0
  2  4  1  0
  2  5  1  0
  5  6  1  0
  4  7  1  0
  8  5  1  6
  7  9  1  0
  7 10  2  0
  8 11  1  0
  8 12  1  0
 10 13  1  0
  9 14  1  0
 13 14  2  0
 11 15  1  0
 12 16  1  0
 15 16  1  0
 14 17  1  0
 13 18  1  0
 17 19  2  0
 18 20  2  0
 19 20  1  0
M  END
