x0438_0_A-x0900_0_A
     RDKit          3D

 15 16  0  0  0  0  0  0  0  0999 V2000
   -8.2680   15.6800    3.9870 C   0  0  0  0  0  0  0  0  0  0  0  0
   -9.3870   15.3390    2.6400 S   0  0  0  0  0  0  0  0  0  0  0  0
  -10.6160   14.8460    3.2400 O   0  0  0  0  0  0  0  0  0  0  0  0
   -8.6900   13.9740    1.7580 C   0  0  0  0  0  0  0  0  0  0  0  0
   -9.4420   16.4860    1.7650 O   0  0  0  0  0  0  0  0  0  0  0  0
   -7.3680   14.3100    1.1790 C   0  0  0  0  0  0  0  0  0  0  0  0
   -7.2770   14.5910   -0.1700 N   0  0  0  0  0  0  0  0  0  0  0  0
   -6.2610   14.3570    1.8680 N   0  0  0  0  0  0  0  0  0  0  0  0
   -5.3120   14.6660    0.9420 C   0  0  0  0  0  0  0  0  0  0  0  0
   -6.0080   14.8200   -0.3150 C   0  0  0  0  0  0  0  0  0  0  0  0
   -5.2730   15.1830   -1.5300 C   0  0  0  0  0  0  0  0  0  0  0  0
   -3.9900   14.8230    1.0150 C   0  0  0  0  0  0  0  0  0  0  0  0
   -5.8880   15.3320   -2.5520 O   0  0  0  0  0  0  0  0  0  0  0  0
   -3.7990   15.3230   -1.3880 C   0  0  0  0  0  0  0  0  0  0  0  0
   -3.2280   15.1440   -0.1790 C   0  0  0  0  0  0  0  0  0  0  0  0
  2  1  1  0
  2  3  2  0
  2  4  1  0
  2  5  2  0
  4  6  1  0
  6  7  1  0
  6  8  2  0
  8  9  1  0
  7 10  2  0
  9 10  1  0
 10 11  1  0
  9 12  2  0
 11 13  2  0
 11 14  1  0
 12 15  1  0
 14 15  2  0
M  END
