x0438_0_A-x0465_0_A
     RDKit          3D

 30 32  0  0  0  0  0  0  0  0999 V2000
   -8.0970   15.5000    3.8040 C   0  0  0  0  0  0  0  0  0  0  0  0
   -9.3310   15.3110    2.5250 S   0  0  0  0  0  0  0  0  0  0  0  0
  -10.5370   14.7860    3.1470 O   0  0  0  0  0  0  0  0  0  0  0  0
   -8.7200   14.0610    1.4030 C   0  0  0  0  0  0  0  0  0  0  0  0
   -9.4250   16.5430    1.7740 O   0  0  0  0  0  0  0  0  0  0  0  0
   -7.3540   14.3420    0.8760 C   0  0  0  0  0  0  0  0  0  0  0  0
   -7.1060   14.7990   -0.4010 N   0  0  0  0  0  0  0  0  0  0  0  0
   -6.2270   14.1840    1.5300 N   0  0  0  0  0  0  0  0  0  0  0  0
   -5.2130   14.5300    0.6640 C   0  0  0  0  0  0  0  0  0  0  0  0
   -5.7410   14.9210   -0.5530 C   0  0  0  0  0  0  0  0  0  0  0  0
   -4.9520   15.3250   -1.6250 C   0  0  0  0  0  0  0  0  0  0  0  0
   -3.8090   14.5290    0.8530 C   0  0  0  0  0  0  0  0  0  0  0  0
   -3.5630   15.3120   -1.4260 C   0  0  0  0  0  0  0  0  0  0  0  0
   -2.9720   14.9190   -0.2100 C   0  0  0  0  0  0  0  0  0  0  0  0
   -1.4470   14.9190   -0.0480 C   0  0  0  0  0  0  0  0  0  0  0  0
   -0.7240   13.6000   -0.0810 C   0  0  0  0  0  0  0  0  0  0  0  0
    0.3000   13.5110   -1.2180 C   0  0  0  0  0  0  0  0  0  0  0  0
    0.3540   12.1230   -1.5880 N   0  0  0  0  0  0  0  0  0  0  0  0
    0.5020   11.6310   -2.7710 C   0  0  0  0  0  0  0  0  0  0  0  0
    0.6660   12.3990   -4.1230 C   0  0  1  0  0  0  0  0  0  0  0  0
    0.4920   10.2790   -2.8280 O   0  0  0  0  0  0  0  0  0  0  0  0
    2.0380   13.0870   -4.1630 C   0  0  0  0  0  0  0  0  0  0  0  0
    0.5900   11.5170   -5.2540 O   0  0  0  0  0  0  0  0  0  0  0  0
   -0.5310   10.7940   -5.5730 C   0  0  0  0  0  0  0  0  0  0  0  0
   -0.6470    9.7860   -6.5420 C   0  0  0  0  0  0  0  0  0  0  0  0
   -1.6690   11.1230   -4.8280 C   0  0  0  0  0  0  0  0  0  0  0  0
    0.3860    9.4050   -7.3080 F   0  0  0  0  0  0  0  0  0  0  0  0
   -1.8560    9.1270   -6.7560 C   0  0  0  0  0  0  0  0  0  0  0  0
   -2.8840   10.4640   -5.0410 C   0  0  0  0  0  0  0  0  0  0  0  0
   -2.9760    9.4630   -6.0060 C   0  0  0  0  0  0  0  0  0  0  0  0
  2  1  1  0
  2  3  2  0
  2  4  1  0
  2  5  2  0
  4  6  1  0
  6  7  1  0
  6  8  2  0
  8  9  1  0
  7 10  1  0
  9 10  2  0
 10 11  1  0
  9 12  1  0
 11 13  2  0
 12 14  2  0
 13 14  1  0
 14 15  1  0
 15 16  1  0
 16 17  1  0
 17 18  1  0
 18 19  2  3
 19 20  1  0
 19 21  1  0
 20 22  1  1
 20 23  1  0
 23 24  1  0
 24 25  2  0
 24 26  1  0
 25 27  1  0
 25 28  1  0
 26 29  2  0
 28 30  2  0
 29 30  1  0
M  END
