x0438_0_A-x0722_0_A
     RDKit          3D

 25 27  0  0  0  0  0  0  0  0999 V2000
   -8.1700   15.4820    3.6660 C   0  0  0  0  0  0  0  0  0  0  0  0
   -9.3840   15.3470    2.3630 S   0  0  0  0  0  0  0  0  0  0  0  0
  -10.5870   14.8420    3.0080 O   0  0  0  0  0  0  0  0  0  0  0  0
   -8.8250   14.0380    1.2740 C   0  0  0  0  0  0  0  0  0  0  0  0
   -9.4620   16.5950    1.6390 O   0  0  0  0  0  0  0  0  0  0  0  0
   -7.7580   14.4180    0.2920 C   0  0  0  0  0  0  0  0  0  0  0  0
   -6.4560   14.4550    0.5940 N   0  0  0  0  0  0  0  0  0  0  0  0
   -7.8720   14.7280   -0.9580 N   0  0  0  0  0  0  0  0  0  0  0  0
   -6.5770   14.9310   -1.4010 C   0  0  0  0  0  0  0  0  0  0  0  0
   -5.6800   14.7870   -0.4550 C   0  0  0  0  0  0  0  0  0  0  0  0
   -6.0420   14.1670    1.7410 N   0  0  0  0  0  0  0  0  0  0  0  0
   -4.3220   14.9680   -0.7200 C   0  0  0  0  0  0  0  0  0  0  0  0
   -6.0910   15.2410   -2.6500 C   0  0  0  0  0  0  0  0  0  0  0  0
   -5.3580   13.1200    1.4610 C   0  0  0  0  0  0  0  0  0  0  0  0
   -3.8540   15.2730   -1.9410 C   0  0  0  0  0  0  0  0  0  0  0  0
   -4.7270   15.4000   -2.9060 C   0  0  0  0  0  0  0  0  0  0  0  0
   -3.3230   14.8510    0.1890 C   0  0  0  0  0  0  0  0  0  0  0  0
   -5.2770   12.6430    0.1970 N   0  0  0  0  0  0  0  0  0  0  0  0
   -3.3030   15.1820    1.5140 C   0  0  0  0  0  0  0  0  0  0  0  0
   -2.0900   14.3590   -0.1390 C   0  0  0  0  0  0  0  0  0  0  0  0
   -4.3460   15.7760    2.3460 C   0  0  0  0  0  0  0  0  0  0  0  0
   -1.5110   13.8580   -1.4100 C   0  0  0  0  0  0  0  0  0  0  0  0
   -2.1380   14.9010    2.0020 N   0  0  0  0  0  0  0  0  0  0  0  0
   -1.4190   14.4200    1.0190 N   0  0  0  0  0  0  0  0  0  0  0  0
   -0.0830   14.0480    1.2920 C   0  0  0  0  0  0  0  0  0  0  0  0
  2  1  1  0
  2  3  2  0
  2  4  1  0
  2  5  2  0
  4  6  1  0
  6  7  1  0
  6  8  2  0
  8  9  1  0
  7 10  1  0
  9 10  2  0
  7 11  1  0
 10 12  1  0
  9 13  1  0
 11 14  2  3
 12 15  2  0
 13 16  2  0
 15 16  1  0
 12 17  1  0
 14 18  1  0
 17 19  1  0
 17 20  2  0
 19 21  1  0
 20 22  1  0
 19 23  2  0
 20 24  1  0
 23 24  1  0
 24 25  1  0
M  END
