x0438_0_A-x0591_0_A
     RDKit          3D

 27 29  0  0  0  0  0  0  0  0999 V2000
   -7.9280   15.1630    3.8710 C   0  0  0  0  0  0  0  0  0  0  0  0
   -9.0140   14.9440    2.4730 S   0  0  0  0  0  0  0  0  0  0  0  0
   -9.9520   13.8730    2.7510 O   0  0  0  0  0  0  0  0  0  0  0  0
   -8.0510   14.6670    0.9370 C   0  0  2  0  0  0  0  0  0  0  0  0
   -9.5780   16.2730    2.2460 O   0  0  0  0  0  0  0  0  0  0  0  0
   -7.8080   13.4980    0.0990 N   0  0  0  0  0  0  0  0  0  0  0  0
   -6.6490   14.8630    0.9000 C   0  0  0  0  0  0  0  0  0  0  0  0
   -7.4180   13.9670   -1.1770 C   0  0  0  0  0  0  0  0  0  0  0  0
   -6.2680   15.2740   -0.3250 N   0  0  0  0  0  0  0  0  0  0  0  0
   -5.6580   14.7260    1.7220 N   0  0  0  0  0  0  0  0  0  0  0  0
   -8.3010   14.5040   -1.8200 O   0  0  0  0  0  0  0  0  0  0  0  0
   -4.5740   15.0580    0.9470 C   0  0  0  0  0  0  0  0  0  0  0  0
   -4.9570   15.4030   -0.3360 C   0  0  0  0  0  0  0  0  0  0  0  0
   -6.0370   13.9610   -1.8680 C   0  0  0  0  0  0  0  0  0  0  0  0
   -4.1120   15.7800   -1.3480 C   0  0  0  0  0  0  0  0  0  0  0  0
   -3.2220   15.0900    1.2560 C   0  0  0  0  0  0  0  0  0  0  0  0
   -4.7690   13.4510   -1.4510 C   0  0  0  0  0  0  0  0  0  0  0  0
   -6.0940   14.5760   -3.1290 C   0  0  0  0  0  0  0  0  0  0  0  0
   -2.7670   15.8040   -1.0280 C   0  0  0  0  0  0  0  0  0  0  0  0
   -2.3240   15.4650    0.2500 C   0  0  0  0  0  0  0  0  0  0  0  0
   -3.6260   13.5740   -2.3160 C   0  0  0  0  0  0  0  0  0  0  0  0
   -4.9840   14.6880   -3.9640 C   0  0  0  0  0  0  0  0  0  0  0  0
   -3.7540   14.1970   -3.5800 C   0  0  0  0  0  0  0  0  0  0  0  0
   -2.4300   14.3980   -4.7660 S   0  0  0  0  0  0  0  0  0  0  0  0
   -1.3960   15.5400   -4.1000 N   0  0  0  0  0  0  0  0  0  0  0  0
   -1.6790   13.1700   -4.8460 O   0  0  0  0  0  0  0  0  0  0  0  0
   -2.9780   15.0280   -5.9500 O   0  0  0  0  0  0  0  0  0  0  0  0
  2  1  1  0
  2  3  2  0
  2  4  1  0
  2  5  2  0
  4  6  1  1
  4  7  1  0
  6  8  1  0
  7  9  1  0
  7 10  2  0
  8 11  2  0
 10 12  1  0
  9 13  1  0
 12 13  2  0
  8 14  1  0
 13 15  1  0
 12 16  1  0
 14 17  2  0
 14 18  1  0
 15 19  2  0
 16 20  2  0
 19 20  1  0
 17 21  1  0
 18 22  2  0
 21 23  2  0
 22 23  1  0
 23 24  1  0
 24 25  1  0
 24 26  2  0
 24 27  2  0
M  END
