x0436_0_B-x0797_0_B
     RDKit          3D

 21 22  0  0  0  0  0  0  0  0999 V2000
  -11.0790   28.4710  -16.3750 N   0  0  0  0  0  0  0  0  0  0  0  0
  -10.5550   29.6900  -16.0350 C   0  0  0  0  0  0  0  0  0  0  0  0
  -10.4710   29.9600  -14.5300 C   0  0  1  0  0  0  0  0  0  0  0  0
  -10.1850   30.4820  -16.8940 O   0  0  0  0  0  0  0  0  0  0  0  0
  -11.8720   30.0450  -13.9430 C   0  0  0  0  0  0  0  0  0  0  0  0
   -9.7320   28.8800  -13.9260 O   0  0  0  0  0  0  0  0  0  0  0  0
   -8.7490   29.3080  -12.9730 C   0  0  1  0  0  0  0  0  0  0  0  0
   -8.2970   28.1150  -12.0430 C   0  0  2  0  0  0  0  0  0  0  0  0
   -7.5160   29.8720  -13.7330 C   0  0  2  0  0  0  0  0  0  0  0  0
   -7.8360   30.5250  -15.0740 C   0  0  0  0  0  0  0  0  0  0  0  0
   -6.8710   28.3700  -11.5040 C   0  0  0  0  0  0  0  0  0  0  0  0
   -6.3930   28.8320  -13.9390 C   0  0  0  0  0  0  0  0  0  0  0  0
   -8.4530   26.6740  -12.6100 C   0  0  1  0  0  0  0  0  0  0  0  0
   -9.3030   27.8810  -10.9150 C   0  0  0  0  0  0  0  0  0  0  0  0
   -7.5050   26.1490  -13.6650 C   0  0  0  0  0  0  0  0  0  0  0  0
   -5.8720   28.2030  -12.6430 C   0  0  1  0  0  0  0  0  0  0  0  0
   -8.8740   26.6730  -10.2850 O   0  0  0  0  0  0  0  0  0  0  0  0
   -8.3250   25.8520  -11.3250 C   0  0  0  0  0  0  0  0  0  0  0  0
   -4.2930   28.9050  -12.2580 Cl  0  0  0  0  0  0  0  0  0  0  0  0
   -7.9320   26.3430  -14.9330 O   0  0  0  0  0  0  0  0  0  0  0  0
   -6.4480   25.5810  -13.4340 O   0  0  0  0  0  0  0  0  0  0  0  0
  1  2  1  0
  2  3  1  0
  2  4  2  0
  3  5  1  1
  3  6  1  0
  7  6  1  6
  7  8  1  0
  7  9  1  0
  9 10  1  6
  8 11  1  1
  9 12  1  0
  8 13  1  0
  8 14  1  0
 13 15  1  6
 11 16  1  0
 12 16  1  0
 14 17  1  0
 13 18  1  0
 17 18  1  0
 16 19  1  1
 15 20  1  0
 15 21  2  0
M  END
