x0436_0_B_α-x0228_0_B_β
     RDKit          3D

 24 25  0  0  0  0  0  0  0  0999 V2000
  -10.4210   28.2530  -16.0910 N   0  0  0  0  0  0  0  0  0  0  0  0
  -10.2070   29.5910  -15.8890 C   0  0  0  0  0  0  0  0  0  0  0  0
  -10.4290   30.0870  -14.4490 C   0  0  1  0  0  0  0  0  0  0  0  0
   -9.8610   30.2960  -16.8310 O   0  0  0  0  0  0  0  0  0  0  0  0
  -11.8820   30.5140  -14.2640 C   0  0  0  0  0  0  0  0  0  0  0  0
  -10.1720   29.0970  -13.4690 O   0  0  0  0  0  0  0  0  0  0  0  0
   -8.9100   29.0910  -12.9970 C   0  0  0  0  0  0  0  0  0  0  0  0
   -8.4820   29.7150  -11.8540 C   0  0  0  0  0  0  0  0  0  0  0  0
   -8.0050   28.3860  -13.7760 C   0  0  0  0  0  0  0  0  0  0  0  0
   -7.1500   29.6510  -11.4970 C   0  0  0  0  0  0  0  0  0  0  0  0
   -6.6560   28.3080  -13.4280 C   0  0  0  0  0  0  0  0  0  0  0  0
   -5.7510   27.5060  -14.3150 C   0  0  0  0  0  0  0  0  0  0  0  0
   -6.2340   28.9660  -12.2830 C   0  0  0  0  0  0  0  0  0  0  0  0
   -4.6020   28.9690  -11.7940 Cl  0  0  0  0  0  0  0  0  0  0  0  0
   -5.9060   26.0910  -13.9240 N   0  0  0  0  0  0  0  0  0  0  0  0
   -4.8970   25.5730  -13.0710 C   0  0  0  0  0  0  0  0  0  0  0  0
   -5.1630   24.7460  -11.9620 C   0  0  0  0  0  0  0  0  0  0  0  0
   -3.5650   25.9160  -13.3660 C   0  0  0  0  0  0  0  0  0  0  0  0
   -3.4110   26.7190  -14.4730 O   0  0  0  0  0  0  0  0  0  0  0  0
   -4.1130   24.2670  -11.1610 C   0  0  0  0  0  0  0  0  0  0  0  0
   -2.5300   25.4490  -12.5680 C   0  0  0  0  0  0  0  0  0  0  0  0
   -2.1200   26.7970  -15.0650 C   0  0  0  0  0  0  0  0  0  0  0  0
   -4.3720   23.3820   -9.9720 C   0  0  0  0  0  0  0  0  0  0  0  0
   -2.8110   24.6310  -11.4850 C   0  0  0  0  0  0  0  0  0  0  0  0
  1  2  1  0
  2  3  1  0
  2  4  2  0
  3  5  1  6
  3  6  1  0
  6  7  1  0
  7  8  2  0
  7  9  1  0
  8 10  1  0
  9 11  2  0
 11 12  1  0
 10 13  2  0
 11 13  1  0
 13 14  1  0
 12 15  1  0
 15 16  1  0
 16 17  2  0
 16 18  1  0
 18 19  1  0
 17 20  1  0
 18 21  2  0
 19 22  1  0
 20 23  1  0
 20 24  2  0
 21 24  1  0
M  END
