x0438_0_A_α-x0766_0_A_α
     RDKit          3D

 25 28  0  0  0  0  0  0  0  0999 V2000
   -8.1570   15.6190    3.9090 C   0  0  0  0  0  0  0  0  0  0  0  0
   -9.2730   15.3780    2.5380 S   0  0  0  0  0  0  0  0  0  0  0  0
  -10.4850   14.8020    3.1000 O   0  0  0  0  0  0  0  0  0  0  0  0
   -8.5570   14.1150    1.5260 C   0  0  0  0  0  0  0  0  0  0  0  0
   -9.3940   16.5890    1.7650 O   0  0  0  0  0  0  0  0  0  0  0  0
   -7.2710   14.4360    0.8250 C   0  0  0  0  0  0  0  0  0  0  0  0
   -7.1990   14.7790   -0.4400 N   0  0  0  0  0  0  0  0  0  0  0  0
   -6.0590   14.3400    1.5040 N   0  0  0  0  0  0  0  0  0  0  0  0
   -5.1560   14.5760    0.5940 C   0  0  0  0  0  0  0  0  0  0  0  0
   -5.8470   14.8140   -0.6840 C   0  0  0  0  0  0  0  0  0  0  0  0
   -5.1710   14.9790   -1.8270 C   0  0  0  0  0  0  0  0  0  0  0  0
   -3.6750   14.5920    0.6840 C   0  0  0  0  0  0  0  0  0  0  0  0
   -3.7370   14.8630   -1.7480 C   0  0  0  0  0  0  0  0  0  0  0  0
   -3.0220   14.7150   -0.4890 C   0  0  0  0  0  0  0  0  0  0  0  0
   -2.8050   14.8270   -2.7240 C   0  0  0  0  0  0  0  0  0  0  0  0
   -1.6010   14.6820   -0.7770 C   0  0  0  0  0  0  0  0  0  0  0  0
   -1.4630   14.6970   -2.1270 C   0  0  0  0  0  0  0  0  0  0  0  0
   -0.1800   14.6060   -2.9270 C   0  0  1  0  0  0  0  0  0  0  0  0
    0.1030   13.3310   -3.7500 C   0  0  2  0  0  0  0  0  0  0  0  0
    0.1940   15.7450   -3.8740 C   0  0  0  0  0  0  0  0  0  0  0  0
    0.5850   12.2130   -2.8570 C   0  0  0  0  0  0  0  0  0  0  0  0
    1.2370   13.7110   -4.7270 C   0  0  0  0  0  0  0  0  0  0  0  0
    1.4380   15.2220   -4.5740 C   0  0  0  0  0  0  0  0  0  0  0  0
    1.3130   12.3390   -1.9000 O   0  0  0  0  0  0  0  0  0  0  0  0
    0.1170   10.9990   -3.2040 O   0  0  0  0  0  0  0  0  0  0  0  0
  2  1  1  0
  2  3  2  0
  2  4  1  0
  2  5  2  0
  4  6  1  0
  6  7  2  0
  6  8  1  0
  8  9  2  0
  7 10  1  0
  9 10  1  0
 10 11  2  0
  9 12  1  0
 11 13  1  0
 12 14  2  0
 13 14  1  0
 13 15  2  0
 14 16  1  0
 15 17  1  0
 16 17  2  0
 18 17  1  6
 18 19  1  0
 18 20  1  0
 19 21  1  1
 19 22  1  0
 20 23  1  0
 22 23  1  0
 21 24  2  0
 21 25  1  0
M  END
