x0438_0_A-x0253_0_A
     RDKit          3D

 31 33  0  0  0  0  0  0  0  0999 V2000
   -8.1460   15.4800    3.7960 C   0  0  0  0  0  0  0  0  0  0  0  0
   -9.3930   15.3330    2.5270 S   0  0  0  0  0  0  0  0  0  0  0  0
  -10.5830   14.7930    3.1590 O   0  0  0  0  0  0  0  0  0  0  0  0
   -8.8170   14.0960    1.3710 C   0  0  0  0  0  0  0  0  0  0  0  0
   -9.5030   16.5780    1.7970 O   0  0  0  0  0  0  0  0  0  0  0  0
   -7.4270   14.3600    0.9120 C   0  0  0  0  0  0  0  0  0  0  0  0
   -7.1100   14.7980   -0.3560 N   0  0  0  0  0  0  0  0  0  0  0  0
   -6.3450   14.2040    1.6290 N   0  0  0  0  0  0  0  0  0  0  0  0
   -5.2940   14.5350    0.8200 C   0  0  0  0  0  0  0  0  0  0  0  0
   -5.7380   14.9160   -0.4370 C   0  0  0  0  0  0  0  0  0  0  0  0
   -4.8740   15.3040   -1.4580 C   0  0  0  0  0  0  0  0  0  0  0  0
   -3.9260   14.5280    1.1020 C   0  0  0  0  0  0  0  0  0  0  0  0
   -3.4970   15.2850   -1.1590 C   0  0  0  0  0  0  0  0  0  0  0  0
   -3.0140   14.8980    0.1160 C   0  0  0  0  0  0  0  0  0  0  0  0
   -1.5350   14.8550    0.4780 C   0  0  0  0  0  0  0  0  0  0  0  0
   -0.6190   14.7650   -0.7430 C   0  0  0  0  0  0  0  0  0  0  0  0
    0.0240   13.3990   -0.8960 C   0  0  0  0  0  0  0  0  0  0  0  0
    0.7240   13.3360   -2.1690 N   0  0  0  0  0  0  0  0  0  0  0  0
    0.6900   12.3160   -2.9440 C   0  0  0  0  0  0  0  0  0  0  0  0
   -0.0120   11.2250   -2.5600 O   0  0  0  0  0  0  0  0  0  0  0  0
    1.3650   12.2030   -4.2950 C   0  0  0  0  0  0  0  0  0  0  0  0
    0.4330   11.9350   -5.3930 N   0  0  0  0  0  0  0  0  0  0  0  0
    1.0130   11.7280   -6.6140 C   0  0  0  0  0  0  0  0  0  0  0  0
    2.1240   12.1730   -6.7740 O   0  0  0  0  0  0  0  0  0  0  0  0
    0.3160   10.9020   -7.6540 C   0  0  0  0  0  0  0  0  0  0  0  0
   -0.8500   10.1920   -7.3530 C   0  0  0  0  0  0  0  0  0  0  0  0
    0.8380   10.8120   -8.9510 C   0  0  0  0  0  0  0  0  0  0  0  0
   -1.4700    9.3840   -8.3090 C   0  0  0  0  0  0  0  0  0  0  0  0
    0.2210   10.0200   -9.9110 C   0  0  0  0  0  0  0  0  0  0  0  0
   -2.7010    8.6130   -7.9420 C   0  0  0  0  0  0  0  0  0  0  0  0
   -0.9260    9.3040   -9.5920 C   0  0  0  0  0  0  0  0  0  0  0  0
  2  1  1  0
  2  3  2  0
  2  4  1  0
  2  5  2  0
  4  6  1  0
  6  7  1  0
  6  8  2  0
  8  9  1  0
  7 10  1  0
  9 10  2  0
 10 11  1  0
  9 12  1  0
 11 13  2  0
 12 14  2  0
 13 14  1  0
 14 15  1  0
 15 16  1  0
 16 17  1  0
 17 18  1  0
 18 19  2  3
 19 20  1  0
 19 21  1  0
 21 22  1  0
 22 23  1  0
 23 24  2  0
 23 25  1  0
 25 26  2  0
 25 27  1  0
 26 28  1  0
 27 29  2  0
 28 30  1  0
 28 31  2  0
 29 31  1  0
M  END
