x0438_0_A-x0421_0_A
     RDKit          3D

 17 18  0  0  0  0  0  0  0  0999 V2000
   -8.1940   15.5610    3.8800 C   0  0  0  0  0  0  0  0  0  0  0  0
   -9.4280   15.3950    2.5970 S   0  0  0  0  0  0  0  0  0  0  0  0
  -10.6420   14.8950    3.2200 O   0  0  0  0  0  0  0  0  0  0  0  0
   -8.8480   14.1060    1.5110 C   0  0  0  0  0  0  0  0  0  0  0  0
   -9.5020   16.6120    1.8230 O   0  0  0  0  0  0  0  0  0  0  0  0
   -7.4680   14.3410    1.0100 C   0  0  0  0  0  0  0  0  0  0  0  0
   -7.1670   14.4240   -0.3280 N   0  0  0  0  0  0  0  0  0  0  0  0
   -6.3840   14.4840    1.7380 N   0  0  0  0  0  0  0  0  0  0  0  0
   -5.3480   14.6470    0.8590 C   0  0  0  0  0  0  0  0  0  0  0  0
   -5.8170   14.6110   -0.4470 C   0  0  0  0  0  0  0  0  0  0  0  0
   -4.9900   14.7410   -1.5550 C   0  0  0  0  0  0  0  0  0  0  0  0
   -3.9800   14.8270    1.1080 C   0  0  0  0  0  0  0  0  0  0  0  0
   -3.6300   14.9020   -1.2900 C   0  0  0  0  0  0  0  0  0  0  0  0
   -3.1270   14.9500    0.0150 C   0  0  0  0  0  0  0  0  0  0  0  0
   -2.6740   15.0100   -2.3900 C   0  0  0  0  0  0  0  0  0  0  0  0
   -3.1970   15.2570   -3.6200 N   0  0  0  0  0  0  0  0  0  0  0  0
   -1.4730   14.8660   -2.2180 O   0  0  0  0  0  0  0  0  0  0  0  0
  2  1  1  0
  2  3  2  0
  2  4  1  0
  2  5  2  0
  4  6  1  0
  6  7  1  0
  6  8  2  0
  8  9  1  0
  7 10  1  0
  9 10  2  0
 10 11  1  0
  9 12  1  0
 11 13  2  0
 12 14  2  0
 13 14  1  0
 13 15  1  0
 15 16  1  0
 15 17  2  0
M  END
