x0438_0_A-x0711_0_A
     RDKit          3D

 22 23  0  0  0  0  0  0  0  0999 V2000
   -8.3140   15.9380    4.1910 C   0  0  0  0  0  0  0  0  0  0  0  0
   -9.2660   15.3420    2.8090 S   0  0  0  0  0  0  0  0  0  0  0  0
  -10.5580   14.8920    3.3060 O   0  0  0  0  0  0  0  0  0  0  0  0
   -8.3740   13.8850    2.2980 C   0  0  0  0  0  0  0  0  0  0  0  0
   -9.2380   16.3210    1.7420 O   0  0  0  0  0  0  0  0  0  0  0  0
   -7.0490   14.1580    1.6680 C   0  0  0  0  0  0  0  0  0  0  0  0
   -6.9250   14.4520    0.3620 N   0  0  0  0  0  0  0  0  0  0  0  0
   -5.8470   14.1430    2.2310 N   0  0  0  0  0  0  0  0  0  0  0  0
   -4.9250   14.4180    1.2380 C   0  0  0  0  0  0  0  0  0  0  0  0
   -5.5920   14.6090    0.0910 C   0  0  0  0  0  0  0  0  0  0  0  0
   -5.0320   14.8910   -1.0860 C   0  0  0  0  0  0  0  0  0  0  0  0
   -3.5200   14.5240    1.2030 C   0  0  0  0  0  0  0  0  0  0  0  0
   -6.1790   15.0110   -1.9300 C   0  0  0  0  0  0  0  0  0  0  0  0
   -3.5990   14.9900   -1.2250 C   0  0  0  0  0  0  0  0  0  0  0  0
   -2.8680   14.8050   -0.0350 C   0  0  0  0  0  0  0  0  0  0  0  0
   -2.8390   15.2560   -2.4670 N   0  0  0  0  0  0  0  0  0  0  0  0
   -7.2710   15.4540   -1.2250 N   0  0  0  0  0  0  0  0  0  0  0  0
   -6.2170   14.7220   -3.0840 O   0  0  0  0  0  0  0  0  0  0  0  0
   -1.3510   14.4040   -2.8040 S   0  0  0  0  0  0  0  0  0  0  0  0
   -1.9020   13.1110   -3.8970 C   0  0  0  0  0  0  0  0  0  0  0  0
   -0.5140   15.2630   -3.6240 O   0  0  0  0  0  0  0  0  0  0  0  0
   -0.7860   13.7760   -1.6260 O   0  0  0  0  0  0  0  0  0  0  0  0
  2  1  1  0
  2  3  2  0
  2  4  1  0
  2  5  2  0
  4  6  1  0
  6  7  1  0
  6  8  2  0
  8  9  1  0
  7 10  1  0
  9 10  2  0
 10 11  1  0
  9 12  1  0
 11 13  1  0
 11 14  2  0
 12 15  2  0
 14 15  1  0
 14 16  1  0
 13 17  1  0
 13 18  2  0
 19 16  1  0
 19 20  1  0
 19 21  2  0
 19 22  2  0
M  END
