x0438_0_A-x0950_0_A
     RDKit          3D

 23 24  0  0  0  0  0  0  0  0999 V2000
   -8.1100   15.4630    3.7960 C   0  0  0  0  0  0  0  0  0  0  0  0
   -9.3590   15.3160    2.5280 S   0  0  0  0  0  0  0  0  0  0  0  0
  -10.5560   14.7610    3.1430 O   0  0  0  0  0  0  0  0  0  0  0  0
   -8.7570   14.1090    1.3560 C   0  0  0  0  0  0  0  0  0  0  0  0
   -9.4670   16.5730    1.8250 O   0  0  0  0  0  0  0  0  0  0  0  0
   -7.3630   14.3730    0.9010 C   0  0  0  0  0  0  0  0  0  0  0  0
   -7.0410   14.8150   -0.3640 N   0  0  0  0  0  0  0  0  0  0  0  0
   -6.2810   14.2100    1.6220 N   0  0  0  0  0  0  0  0  0  0  0  0
   -5.2240   14.5380    0.8110 C   0  0  0  0  0  0  0  0  0  0  0  0
   -5.6670   14.9240   -0.4430 C   0  0  0  0  0  0  0  0  0  0  0  0
   -4.8000   15.3090   -1.4650 C   0  0  0  0  0  0  0  0  0  0  0  0
   -3.8520   14.5180    1.0940 C   0  0  0  0  0  0  0  0  0  0  0  0
   -3.4230   15.2760   -1.1700 C   0  0  0  0  0  0  0  0  0  0  0  0
   -2.9310   14.8830    0.1010 C   0  0  0  0  0  0  0  0  0  0  0  0
   -1.4440   14.8220    0.4540 C   0  0  0  0  0  0  0  0  0  0  0  0
   -0.8000   13.5480   -0.0430 C   0  0  0  0  0  0  0  0  0  0  0  0
    0.1070   13.7410   -1.2590 C   0  0  0  0  0  0  0  0  0  0  0  0
    0.8030   12.5110   -1.5170 O   0  0  0  0  0  0  0  0  0  0  0  0
    0.7360   11.9660   -2.7760 C   0  0  0  0  0  0  0  0  0  0  0  0
    1.3120   12.8630   -3.8890 C   0  0  1  0  0  0  0  0  0  0  0  0
    0.2710   10.8580   -3.0120 O   0  0  0  0  0  0  0  0  0  0  0  0
    2.8290   12.9520   -3.8430 C   0  0  0  0  0  0  0  0  0  0  0  0
    0.9410   12.3650   -5.1790 O   0  0  0  0  0  0  0  0  0  0  0  0
  2  1  1  0
  2  3  2  0
  2  4  1  0
  2  5  2  0
  4  6  1  0
  6  7  1  0
  6  8  2  0
  8  9  1  0
  7 10  1  0
  9 10  2  0
 10 11  1  0
  9 12  1  0
 11 13  2  0
 12 14  2  0
 13 14  1  0
 14 15  1  0
 15 16  1  0
 16 17  1  0
 17 18  1  0
 18 19  1  0
 19 20  1  0
 19 21  2  0
 20 22  1  6
 20 23  1  0
M  END
