x0438_0_A-x0727_0_A
     RDKit          3D

 30 32  0  0  0  0  0  0  0  0999 V2000
   -8.1820   15.5600    3.9270 C   0  0  0  0  0  0  0  0  0  0  0  0
   -9.3060   15.2770    2.5520 S   0  0  0  0  0  0  0  0  0  0  0  0
  -10.5310   14.7450    3.1240 O   0  0  0  0  0  0  0  0  0  0  0  0
   -8.6160   14.0020    1.4770 C   0  0  0  0  0  0  0  0  0  0  0  0
   -9.4000   16.4980    1.7630 O   0  0  0  0  0  0  0  0  0  0  0  0
   -7.2810   14.3420    0.9220 C   0  0  0  0  0  0  0  0  0  0  0  0
   -7.0620   14.8060   -0.3570 N   0  0  0  0  0  0  0  0  0  0  0  0
   -6.1420   14.2370    1.5730 N   0  0  0  0  0  0  0  0  0  0  0  0
   -5.1510   14.6270    0.7080 C   0  0  0  0  0  0  0  0  0  0  0  0
   -5.6990   14.9940   -0.5160 C   0  0  0  0  0  0  0  0  0  0  0  0
   -4.9220   15.4330   -1.5880 C   0  0  0  0  0  0  0  0  0  0  0  0
   -3.7560   14.6900    0.8970 C   0  0  0  0  0  0  0  0  0  0  0  0
   -3.5290   15.4910   -1.3930 C   0  0  0  0  0  0  0  0  0  0  0  0
   -2.9330   15.1220   -0.1680 C   0  0  0  0  0  0  0  0  0  0  0  0
   -1.4200   15.1770    0.0140 C   0  0  0  0  0  0  0  0  0  0  0  0
   -0.6110   14.7840   -1.2420 C   0  0  0  0  0  0  0  0  0  0  0  0
   -0.0090   13.3650   -1.2180 C   0  0  0  0  0  0  0  0  0  0  0  0
    0.8780   13.0820   -2.3320 O   0  0  0  0  0  0  0  0  0  0  0  0
    0.5910   12.0160   -3.1410 C   0  0  0  0  0  0  0  0  0  0  0  0
    0.8730   12.3620   -4.6220 C   0  0  1  0  0  0  0  0  0  0  0  0
    0.1740   10.9250   -2.7520 O   0  0  0  0  0  0  0  0  0  0  0  0
    0.1290   11.4580   -5.5030 N   0  0  0  0  0  0  0  0  0  0  0  0
    0.5020   13.8100   -4.9110 C   0  0  0  0  0  0  0  0  0  0  0  0
    0.6960   11.1240   -6.7180 C   0  0  0  0  0  0  0  0  0  0  0  0
    1.6460   11.7350   -7.1500 O   0  0  0  0  0  0  0  0  0  0  0  0
    0.1100    9.9450   -7.4910 C   0  0  0  0  0  0  0  0  0  0  0  0
   -1.1760   10.3060   -8.2510 C   0  0  0  0  0  0  0  0  0  0  0  0
   -0.2280    8.7270   -6.6040 C   0  0  0  0  0  0  0  0  0  0  0  0
   -2.1240    9.1210   -8.0430 C   0  0  0  0  0  0  0  0  0  0  0  0
   -1.7410    8.5850   -6.6670 C   0  0  0  0  0  0  0  0  0  0  0  0
  2  1  1  0
  2  3  2  0
  2  4  1  0
  2  5  2  0
  4  6  1  0
  6  7  1  0
  6  8  2  0
  8  9  1  0
  7 10  1  0
  9 10  2  0
 10 11  1  0
  9 12  1  0
 11 13  2  0
 12 14  2  0
 13 14  1  0
 14 15  1  0
 15 16  1  0
 16 17  1  0
 17 18  1  0
 18 19  1  0
 19 20  1  0
 19 21  2  0
 20 22  1  0
 20 23  1  1
 22 24  1  0
 24 25  2  0
 24 26  1  0
 26 27  1  0
 26 28  1  0
 27 29  1  0
 28 30  1  0
 29 30  1  0
M  END
