x0438_0_A-x0282_0_A
     RDKit          3D

 20 22  0  0  0  0  0  0  0  0999 V2000
   -8.0460   15.3260    3.7700 C   0  0  0  0  0  0  0  0  0  0  0  0
   -9.3270   15.3170    2.5270 S   0  0  0  0  0  0  0  0  0  0  0  0
  -10.4230   14.5180    3.0610 O   0  0  0  0  0  0  0  0  0  0  0  0
   -8.7580   14.4550    1.0350 C   0  0  2  0  0  0  0  0  0  0  0  0
   -9.6180   16.6780    2.1340 O   0  0  0  0  0  0  0  0  0  0  0  0
   -9.0800   13.0800    0.9090 O   0  0  0  0  0  0  0  0  0  0  0  0
   -7.3060   14.6120    0.7510 C   0  0  0  0  0  0  0  0  0  0  0  0
   -6.8560   14.4330   -0.5370 N   0  0  0  0  0  0  0  0  0  0  0  0
   -6.2990   14.9190    1.5610 N   0  0  0  0  0  0  0  0  0  0  0  0
   -5.1840   14.9500    0.7630 C   0  0  0  0  0  0  0  0  0  0  0  0
   -5.5200   14.6430   -0.5250 C   0  0  0  0  0  0  0  0  0  0  0  0
   -4.6800   14.5490   -1.6310 C   0  0  0  0  0  0  0  0  0  0  0  0
   -3.7860   15.2720    1.1690 C   0  0  0  0  0  0  0  0  0  0  0  0
   -3.3660   14.6770   -1.3660 C   0  0  0  0  0  0  0  0  0  0  0  0
   -2.7330   14.9550    0.0120 C   0  0  1  0  0  0  0  0  0  0  0  0
   -1.9020   16.0820   -0.3740 N   0  0  0  0  0  0  0  0  0  0  0  0
   -1.9060   13.8230    0.4880 N   0  0  0  0  0  0  0  0  0  0  0  0
   -0.6210   15.6060   -0.8730 C   0  0  0  0  0  0  0  0  0  0  0  0
   -0.6000   14.0500    0.9050 C   0  0  0  0  0  0  0  0  0  0  0  0
    0.0940   14.9490    0.2320 C   0  0  0  0  0  0  0  0  0  0  0  0
  2  1  1  0
  2  3  2  0
  2  4  1  0
  2  5  2  0
  4  6  1  1
  4  7  1  0
  7  8  1  0
  7  9  2  0
  9 10  1  0
  8 11  1  0
 10 11  2  0
 11 12  1  0
 10 13  1  0
 12 14  2  0
 15 13  1  1
 15 14  1  0
 15 16  1  0
 15 17  1  0
 16 18  1  0
 17 19  1  0
 18 20  1  0
 19 20  2  0
M  END
