x0469_0_B-x0933_3_B
     RDKit          3D

 24 25  0  0  0  0  0  0  0  0999 V2000
   -5.4570   40.3840    6.0430 N   0  0  0  0  0  0  0  0  0  0  0  0
   -5.3590   39.0790    5.4020 C   0  0  0  0  0  0  0  0  0  0  0  0
   -6.4620   38.1620    5.8620 C   0  0  0  0  0  0  0  0  0  0  0  0
   -6.2260   37.2530    6.8940 C   0  0  0  0  0  0  0  0  0  0  0  0
   -7.7230   38.2180    5.2580 C   0  0  0  0  0  0  0  0  0  0  0  0
   -8.7550   37.3750    5.6730 C   0  0  0  0  0  0  0  0  0  0  0  0
   -7.2250   36.3950    7.3360 C   0  0  0  0  0  0  0  0  0  0  0  0
  -10.0080   37.3910    5.1210 O   0  0  0  0  0  0  0  0  0  0  0  0
   -7.0010   35.5030    8.3550 O   0  0  0  0  0  0  0  0  0  0  0  0
   -8.5060   36.4520    6.7220 C   0  0  0  0  0  0  0  0  0  0  0  0
  -10.3410   38.5190    4.3160 C   0  0  0  0  0  0  0  0  0  0  0  0
   -9.5170   35.6080    7.1510 O   0  0  0  0  0  0  0  0  0  0  0  0
   -5.6180   35.1500    8.5810 C   0  0  0  0  0  0  0  0  0  0  0  0
   -9.8430   34.6470    6.1430 C   0  0  0  0  0  0  0  0  0  0  0  0
   -4.9220   36.0760    9.6190 C   0  0  0  0  0  0  0  0  0  0  0  0
   -3.4750   36.5540    9.2600 C   0  0  0  0  0  0  0  0  0  0  0  0
   -2.3520   36.0680   10.2490 C   0  0  0  0  0  0  0  0  0  0  0  0
   -0.9160   36.1640    9.8250 N   0  0  0  0  0  0  0  0  0  0  0  0
   -0.1530   34.9320    9.8940 C   0  0  2  0  0  0  0  0  0  0  0  0
   -0.6780   37.0170    8.6470 C   0  0  0  0  0  0  0  0  0  0  0  0
    0.3550   34.6300   11.1930 N   0  0  0  0  0  0  0  0  0  0  0  0
    1.0100   34.8400    9.0180 N   0  0  0  0  0  0  0  0  0  0  0  0
   -0.2460   36.2540    7.3970 C   0  0  0  0  0  0  0  0  0  0  0  0
    1.0120   35.4790    7.6990 C   0  0  0  0  0  0  0  0  0  0  0  0
  1  2  1  0
  2  3  1  0
  3  4  2  0
  3  5  1  0
  5  6  2  0
  4  7  1  0
  6  8  1  0
  7  9  1  0
  6 10  1  0
  7 10  2  0
  8 11  1  0
 10 12  1  0
  9 13  1  0
 12 14  1  0
 13 15  1  0
 15 16  1  0
 16 17  1  0
 17 18  1  0
 18 19  1  0
 18 20  1  0
 19 21  1  1
 19 22  1  0
 20 23  1  0
 22 24  1  0
 23 24  1  0
M  END
