x0465_0_A-x0864_0_A
     RDKit          3D

 14 14  0  0  0  0  0  0  0  0999 V2000
    2.1030   13.1730   -4.9630 C   0  0  0  0  0  0  0  0  0  0  0  0
    0.7690   12.5110   -4.6660 C   0  0  1  0  0  0  0  0  0  0  0  0
    0.6560   11.3930   -5.5560 O   0  0  0  0  0  0  0  0  0  0  0  0
    0.7900   12.1050   -3.1880 C   0  0  0  0  0  0  0  0  0  0  0  0
    1.0710   12.8700   -2.2810 O   0  0  0  0  0  0  0  0  0  0  0  0
    0.4700   10.8090   -2.9590 O   0  0  0  0  0  0  0  0  0  0  0  0
   -0.5910   10.9170   -5.8680 C   0  0  0  0  0  0  0  0  0  0  0  0
   -0.6600    9.7260   -6.6100 C   0  0  0  0  0  0  0  0  0  0  0  0
   -1.7800   11.5400   -5.5010 C   0  0  0  0  0  0  0  0  0  0  0  0
    0.4540    9.0950   -7.0040 F   0  0  0  0  0  0  0  0  0  0  0  0
   -1.8830    9.1770   -6.9540 C   0  0  0  0  0  0  0  0  0  0  0  0
   -3.0040   10.9790   -5.8620 C   0  0  0  0  0  0  0  0  0  0  0  0
   -1.9680    7.5780   -7.9400 Br  0  0  0  0  0  0  0  0  0  0  0  0
   -3.0620    9.7960   -6.5810 C   0  0  0  0  0  0  0  0  0  0  0  0
  2  1  1  6
  2  3  1  0
  2  4  1  0
  4  5  2  0
  4  6  1  0
  3  7  1  0
  7  8  2  0
  7  9  1  0
  8 10  1  0
  8 11  1  0
  9 12  2  0
 11 13  1  0
 11 14  2  0
 12 14  1  0
M  END
