x0465_0_A-x0159_0_B
     RDKit          3D

 32 35  0  0  0  0  0  0  0  0999 V2000
    2.0680   13.1560   -4.9700 C   0  0  0  0  0  0  0  0  0  0  0  0
    0.7270   12.4990   -4.6920 C   0  0  1  0  0  0  0  0  0  0  0  0
    0.6120   11.3430   -5.5360 O   0  0  0  0  0  0  0  0  0  0  0  0
    0.7230   12.1000   -3.2140 C   0  0  0  0  0  0  0  0  0  0  0  0
    1.0740   12.7780   -2.2630 O   0  0  0  0  0  0  0  0  0  0  0  0
    0.2690   10.8440   -3.0080 O   0  0  0  0  0  0  0  0  0  0  0  0
   -0.6150   10.7430   -5.6740 C   0  0  0  0  0  0  0  0  0  0  0  0
   -0.7140    9.5010   -6.3430 C   0  0  0  0  0  0  0  0  0  0  0  0
   -1.7870   11.3250   -5.1710 C   0  0  0  0  0  0  0  0  0  0  0  0
    0.2770    8.7460   -6.9060 O   0  0  0  0  0  0  0  0  0  0  0  0
   -1.9560    8.8860   -6.4900 C   0  0  0  0  0  0  0  0  0  0  0  0
   -3.0240   10.6940   -5.3260 C   0  0  0  0  0  0  0  0  0  0  0  0
    1.0500    9.2750   -7.9670 C   0  0  0  0  0  0  0  0  0  0  0  0
   -3.1090    9.4740   -5.9860 C   0  0  0  0  0  0  0  0  0  0  0  0
    1.0160    8.3380   -9.1890 C   0  0  1  0  0  0  0  0  0  0  0  0
    0.9890    9.2100  -10.3740 N   0  0  0  0  0  0  0  0  0  0  0  0
    2.0640    7.2120   -9.2860 C   0  0  0  0  0  0  0  0  0  0  0  0
    1.9550    9.3590  -11.3070 C   0  0  0  0  0  0  0  0  0  0  0  0
    1.8620    5.9140   -8.5190 C   0  0  0  0  0  0  0  0  0  0  0  0
    1.8740   10.5030  -12.0470 N   0  0  0  0  0  0  0  0  0  0  0  0
    2.9820    8.6230  -11.6850 N   0  0  0  0  0  0  0  0  0  0  0  0
    2.5500    4.7830   -8.9610 C   0  0  0  0  0  0  0  0  0  0  0  0
    1.0230    5.8050   -7.3950 C   0  0  0  0  0  0  0  0  0  0  0  0
    3.5690    9.3360  -12.7180 C   0  0  0  0  0  0  0  0  0  0  0  0
    2.8820   10.5220  -12.9550 C   0  0  0  0  0  0  0  0  0  0  0  0
    2.4130    3.5680   -8.3140 C   0  0  0  0  0  0  0  0  0  0  0  0
    0.8880    4.5790   -6.7440 C   0  0  0  0  0  0  0  0  0  0  0  0
    1.5870    3.4660   -7.2160 C   0  0  0  0  0  0  0  0  0  0  0  0
    3.2300   11.4510  -13.9310 C   0  0  0  0  0  0  0  0  0  0  0  0
    4.6910    9.0460  -13.5110 C   0  0  0  0  0  0  0  0  0  0  0  0
    4.3450   11.1430  -14.7100 C   0  0  0  0  0  0  0  0  0  0  0  0
    5.0650    9.9620  -14.5060 C   0  0  0  0  0  0  0  0  0  0  0  0
  2  1  1  6
  2  3  1  0
  2  4  1  0
  4  5  2  0
  4  6  1  0
  3  7  1  0
  7  8  2  0
  7  9  1  0
  8 10  1  0
  8 11  1  0
  9 12  2  0
 10 13  1  0
 11 14  2  0
 12 14  1  0
 15 13  1  1
 15 16  1  0
 15 17  1  0
 16 18  1  0
 17 19  1  0
 18 20  1  0
 18 21  2  0
 19 22  2  0
 19 23  1  0
 21 24  1  0
 20 25  1  0
 24 25  2  0
 22 26  1  0
 23 27  2  0
 26 28  2  0
 27 28  1  0
 25 29  1  0
 24 30  1  0
 29 31  2  0
 30 32  2  0
 31 32  1  0
M  END
