x0465_0_A_α-x0910_0_A_α
     RDKit          3D

 21 22  0  0  0  0  0  0  0  0999 V2000
    2.4440   12.9430   -4.6960 C   0  0  0  0  0  0  0  0  0  0  0  0
    0.9740   12.5810   -4.8790 C   0  0  1  0  0  0  0  0  0  0  0  0
    0.8370   11.5300   -5.8460 O   0  0  0  0  0  0  0  0  0  0  0  0
    0.3470   12.2110   -3.5460 C   0  0  0  0  0  0  0  0  0  0  0  0
   -0.2330   12.9890   -2.7380 N   0  0  0  0  0  0  0  0  0  0  0  0
    0.3750   10.9050   -3.1970 O   0  0  0  0  0  0  0  0  0  0  0  0
   -0.3710   10.8490   -5.8860 C   0  0  0  0  0  0  0  0  0  0  0  0
   -0.8850   12.4070   -1.5810 C   0  0  0  0  0  0  0  0  0  0  0  0
   -0.5530    9.7040   -6.6680 C   0  0  0  0  0  0  0  0  0  0  0  0
   -1.4480   11.3170   -5.1200 C   0  0  0  0  0  0  0  0  0  0  0  0
    0.4450    9.2240   -7.4190 F   0  0  0  0  0  0  0  0  0  0  0  0
   -2.3780   12.7660   -1.7870 C   0  0  0  0  0  0  0  0  0  0  0  0
   -1.7700    9.0310   -6.6920 C   0  0  0  0  0  0  0  0  0  0  0  0
   -2.6780   10.6400   -5.1440 C   0  0  0  0  0  0  0  0  0  0  0  0
   -2.5420   14.1840   -1.4860 N   0  0  0  0  0  0  0  0  0  0  0  0
   -2.8350    9.4990   -5.9280 C   0  0  0  0  0  0  0  0  0  0  0  0
   -1.6950   14.5570   -0.5280 C   0  0  0  0  0  0  0  0  0  0  0  0
   -2.0940   14.6410    0.7710 N   0  0  0  0  0  0  0  0  0  0  0  0
   -0.4270   14.8720   -0.6200 N   0  0  0  0  0  0  0  0  0  0  0  0
   -1.0780   15.0080    1.5510 N   0  0  0  0  0  0  0  0  0  0  0  0
   -0.0900   15.1400    0.6690 C   0  0  0  0  0  0  0  0  0  0  0  0
  2  1  1  1
  2  3  1  0
  2  4  1  0
  4  5  2  3
  4  6  1  0
  3  7  1  0
  5  8  1  0
  7  9  2  0
  7 10  1  0
  9 11  1  0
  8 12  1  0
  9 13  1  0
 10 14  2  0
 12 15  1  0
 13 16  2  0
 14 16  1  0
 15 17  1  0
 17 18  1  0
 17 19  2  0
 18 20  1  0
 19 21  1  0
 20 21  2  0
M  END
