x0469_0_B_α-x0496_0_A_α
     RDKit          3D

 33 34  0  0  0  0  0  0  0  0999 V2000
   -5.3210   40.3330    5.7660 N   0  0  0  0  0  0  0  0  0  0  0  0
   -5.1130   38.9000    5.5370 C   0  0  2  0  0  0  0  0  0  0  0  0
   -4.4040   38.6410    4.1580 C   0  0  0  0  0  0  0  0  0  0  0  0
   -6.3760   38.0700    5.8510 C   0  0  0  0  0  0  0  0  0  0  0  0
   -3.0190   37.9240    4.2120 C   0  0  0  0  0  0  0  0  0  0  0  0
   -6.2850   37.1010    6.8770 C   0  0  0  0  0  0  0  0  0  0  0  0
   -7.6180   38.2140    5.1940 C   0  0  0  0  0  0  0  0  0  0  0  0
   -1.8570   38.5370    3.3640 C   0  0  0  0  0  0  0  0  0  0  0  0
   -8.7300   37.4220    5.5550 C   0  0  0  0  0  0  0  0  0  0  0  0
   -7.3820   36.3070    7.2450 C   0  0  0  0  0  0  0  0  0  0  0  0
   -9.9620   37.5240    4.9560 O   0  0  0  0  0  0  0  0  0  0  0  0
   -7.3490   35.3580    8.2290 O   0  0  0  0  0  0  0  0  0  0  0  0
   -0.4400   38.2240    3.9300 C   0  0  0  0  0  0  0  0  0  0  0  0
   -8.6020   36.4750    6.5820 C   0  0  0  0  0  0  0  0  0  0  0  0
  -10.2210   38.7390    4.2600 C   0  0  0  0  0  0  0  0  0  0  0  0
   -9.6730   35.6870    6.9740 O   0  0  0  0  0  0  0  0  0  0  0  0
   -6.0560   34.8830    8.5780 C   0  0  0  0  0  0  0  0  0  0  0  0
    0.7780   38.8660    3.2020 C   0  0  0  0  0  0  0  0  0  0  0  0
   -9.9040   34.6170    6.0620 C   0  0  0  0  0  0  0  0  0  0  0  0
    1.3430   38.1770    1.9420 C   0  0  0  0  0  0  0  0  0  0  0  0
    2.5960   37.4330    2.1690 N   0  0  0  0  0  0  0  0  0  0  0  0
    3.7530   37.4140    1.3840 C   0  0  0  0  0  0  0  0  0  0  0  0
    4.4770   36.4280    1.3290 O   0  0  0  0  0  0  0  0  0  0  0  0
    4.1340   38.6020    0.5770 C   0  0  0  0  0  0  0  0  0  0  0  0
    4.9030   38.5030   -0.5750 C   0  0  0  0  0  0  0  0  0  0  0  0
    3.6630   39.7620    1.0810 N   0  0  0  0  0  0  0  0  0  0  0  0
    5.5390   37.0770   -1.2680 Cl  0  0  0  0  0  0  0  0  0  0  0  0
    5.1530   39.7050   -1.1850 C   0  0  0  0  0  0  0  0  0  0  0  0
    3.9720   40.8680    0.4040 C   0  0  0  0  0  0  0  0  0  0  0  0
    3.4610   42.1770    0.9470 C   0  0  0  0  0  0  0  0  0  0  0  0
    4.7070   40.8920   -0.7260 N   0  0  0  0  0  0  0  0  0  0  0  0
    2.0100   42.3770    0.5290 C   0  0  0  0  0  0  0  0  0  0  0  0
    4.3560   43.3260    0.4840 C   0  0  0  0  0  0  0  0  0  0  0  0
  2  1  1  6
  2  3  1  0
  2  4  1  0
  3  5  1  0
  4  6  2  0
  4  7  1  0
  5  8  1  0
  7  9  2  0
  6 10  1  0
  9 11  1  0
 10 12  1  0
  8 13  1  0
  9 14  1  0
 10 14  2  0
 11 15  1  0
 14 16  1  0
 12 17  1  0
 13 18  1  0
 16 19  1  0
 18 20  1  0
 20 21  1  0
 21 22  1  0
 22 23  2  0
 22 24  1  0
 24 25  2  0
 24 26  1  0
 25 27  1  0
 25 28  1  0
 26 29  2  0
 29 30  1  0
 28 31  2  0
 29 31  1  0
 30 32  1  0
 30 33  1  0
M  END
