x0465_0_A-x0290_0_A
     RDKit          3D

 27 28  0  0  0  0  0  0  0  0999 V2000
    2.0730   13.1070   -4.8660 C   0  0  0  0  0  0  0  0  0  0  0  0
    0.7200   12.4520   -4.6280 C   0  0  1  0  0  0  0  0  0  0  0  0
    0.5590   11.3730   -5.5380 O   0  0  0  0  0  0  0  0  0  0  0  0
    0.6760   11.9520   -3.1750 C   0  0  0  0  0  0  0  0  0  0  0  0
    0.7170   12.7810   -2.2160 N   0  0  0  0  0  0  0  0  0  0  0  0
    0.5890   10.6250   -2.9840 O   0  0  0  0  0  0  0  0  0  0  0  0
   -0.6490   10.7630   -5.6480 C   0  0  0  0  0  0  0  0  0  0  0  0
    0.7350   14.2060   -2.4680 C   0  0  0  0  0  0  0  0  0  0  0  0
   -0.7200    9.7230   -6.5820 C   0  0  0  0  0  0  0  0  0  0  0  0
   -1.7900   11.0890   -4.9180 C   0  0  0  0  0  0  0  0  0  0  0  0
    0.3530    9.3800   -7.3100 F   0  0  0  0  0  0  0  0  0  0  0  0
   -0.7350   14.6230   -2.3590 C   0  0  0  0  0  0  0  0  0  0  0  0
   -1.9000    9.0160   -6.7850 C   0  0  0  0  0  0  0  0  0  0  0  0
   -2.9790   10.3820   -5.1190 C   0  0  0  0  0  0  0  0  0  0  0  0
   -3.0340    9.3470   -6.0510 C   0  0  0  0  0  0  0  0  0  0  0  0
   -1.1670   14.6070   -0.9100 C   0  0  0  0  0  0  0  0  0  0  0  0
   -0.1880   14.5230    0.0700 C   0  0  0  0  0  0  0  0  0  0  0  0
   -2.5140   14.6710   -0.5160 C   0  0  0  0  0  0  0  0  0  0  0  0
   -0.5790   14.5050    1.3860 C   0  0  0  0  0  0  0  0  0  0  0  0
   -2.8300   14.6490    0.8380 C   0  0  0  0  0  0  0  0  0  0  0  0
   -4.1220   14.7010    1.3550 N   0  0  0  0  0  0  0  0  0  0  0  0
   -1.8630   14.5670    1.7880 N   0  0  0  0  0  0  0  0  0  0  0  0
   -5.3400   14.4520    0.8090 C   0  0  0  0  0  0  0  0  0  0  0  0
   -5.4560   14.5050   -0.4210 O   0  0  0  0  0  0  0  0  0  0  0  0
   -6.5630   14.0940    1.6560 C   0  0  0  0  0  0  0  0  0  0  0  0
   -7.7180   13.8240    0.7820 N   0  0  0  0  0  0  0  0  0  0  0  0
   -8.6260   14.9610    0.7480 C   0  0  0  0  0  0  0  0  0  0  0  0
  2  1  1  6
  2  3  1  0
  2  4  1  0
  4  5  2  3
  4  6  1  0
  3  7  1  0
  5  8  1  0
  7  9  2  0
  7 10  1  0
  9 11  1  0
  8 12  1  0
  9 13  1  0
 10 14  2  0
 13 15  2  0
 14 15  1  0
 12 16  1  0
 16 17  2  0
 16 18  1  0
 17 19  1  0
 18 20  2  0
 20 21  1  0
 19 22  2  0
 20 22  1  0
 21 23  1  0
 23 24  2  0
 23 25  1  0
 25 26  1  0
 26 27  1  0
M  END
