x0465_0_A-x0681_0_A
     RDKit          3D

 27 29  0  0  0  0  0  0  0  0999 V2000
    1.9050   13.2640   -4.7960 C   0  0  0  0  0  0  0  0  0  0  0  0
    0.5980   12.4970   -4.5910 C   0  0  1  0  0  0  0  0  0  0  0  0
    0.6220   11.4580   -5.5950 O   0  0  0  0  0  0  0  0  0  0  0  0
    0.5870   11.9610   -3.1460 C   0  0  0  0  0  0  0  0  0  0  0  0
    0.5360   12.7140   -2.1060 N   0  0  0  0  0  0  0  0  0  0  0  0
    0.6240   10.6230   -3.0020 O   0  0  0  0  0  0  0  0  0  0  0  0
   -0.5350   10.7770   -5.8850 C   0  0  0  0  0  0  0  0  0  0  0  0
    0.4050   14.1660   -2.2270 C   0  0  0  0  0  0  0  0  0  0  0  0
   -0.6310    9.6080   -6.6500 C   0  0  0  0  0  0  0  0  0  0  0  0
   -1.7000   11.3160   -5.3640 C   0  0  0  0  0  0  0  0  0  0  0  0
    0.4440    9.0380   -7.2000 F   0  0  0  0  0  0  0  0  0  0  0  0
   -0.8220   14.6320   -1.4060 C   0  0  0  0  0  0  0  0  0  0  0  0
   -1.8540    8.9900   -6.8710 C   0  0  0  0  0  0  0  0  0  0  0  0
   -2.9370   10.7010   -5.5880 C   0  0  0  0  0  0  0  0  0  0  0  0
   -1.9780   14.9130   -2.2910 N   0  0  0  0  0  0  0  0  0  0  0  0
   -3.0130    9.5350   -6.3370 C   0  0  0  0  0  0  0  0  0  0  0  0
   -3.2390   14.9120   -1.9490 C   0  0  0  0  0  0  0  0  0  0  0  0
   -4.3040   15.2080   -2.7670 N   0  0  0  0  0  0  0  0  0  0  0  0
   -3.6620   14.5660   -0.5100 C   0  0  2  0  0  0  0  0  0  0  0  0
   -4.8830   13.6790   -0.5940 C   0  0  0  0  0  0  0  0  0  0  0  0
   -3.9820   15.7510    0.3900 C   0  0  0  0  0  0  0  0  0  0  0  0
   -5.8660   13.6770    0.3670 N   0  0  0  0  0  0  0  0  0  0  0  0
   -4.5470   15.2740    1.6970 C   0  0  0  0  0  0  0  0  0  0  0  0
   -5.2030   12.8200   -1.5280 N   0  0  0  0  0  0  0  0  0  0  0  0
   -5.8680   14.5120    1.5180 C   0  0  0  0  0  0  0  0  0  0  0  0
   -6.8130   12.7680    0.0350 C   0  0  0  0  0  0  0  0  0  0  0  0
   -6.3850   12.2430   -1.1480 C   0  0  0  0  0  0  0  0  0  0  0  0
  2  1  1  1
  2  3  1  0
  2  4  1  0
  4  5  2  3
  4  6  1  0
  3  7  1  0
  5  8  1  0
  7  9  2  0
  7 10  1  0
  9 11  1  0
  8 12  1  0
  9 13  1  0
 10 14  2  0
 12 15  1  0
 13 16  2  0
 14 16  1  0
 15 17  2  3
 17 18  1  0
 19 17  1  6
 19 20  1  0
 19 21  1  0
 20 22  1  0
 21 23  1  0
 20 24  2  0
 22 25  1  0
 23 25  1  0
 22 26  1  0
 24 27  1  0
 26 27  2  0
M  END
