x0465_0_A-x0685_1_A
     RDKit          3D

 15 15  0  0  0  0  0  0  0  0999 V2000
    1.6180   13.5800   -5.1370 C   0  0  0  0  0  0  0  0  0  0  0  0
    0.5910   12.5520   -4.6360 C   0  0  0  0  0  0  0  0  0  0  0  0
    0.5430   11.3210   -5.4130 O   0  0  0  0  0  0  0  0  0  0  0  0
    0.9780   12.1690   -3.1650 C   0  0  0  0  0  0  0  0  0  0  0  0
   -0.8280   13.1610   -4.7260 C   0  0  0  0  0  0  0  0  0  0  0  0
    0.4580   13.0540   -2.2050 O   0  0  0  0  0  0  0  0  0  0  0  0
    0.5500   10.8820   -2.8070 O   0  0  0  0  0  0  0  0  0  0  0  0
    2.3690   12.2370   -3.0210 O   0  0  0  0  0  0  0  0  0  0  0  0
   -0.6250   10.6540   -5.6080 C   0  0  0  0  0  0  0  0  0  0  0  0
   -0.7030    9.7070   -6.6270 C   0  0  0  0  0  0  0  0  0  0  0  0
   -1.7400   10.9010   -4.8060 C   0  0  0  0  0  0  0  0  0  0  0  0
    0.3590    9.4550   -7.4040 F   0  0  0  0  0  0  0  0  0  0  0  0
   -1.8770    9.0080   -6.8550 C   0  0  0  0  0  0  0  0  0  0  0  0
   -2.9210   10.2000   -5.0360 C   0  0  0  0  0  0  0  0  0  0  0  0
   -2.9900    9.2570   -6.0560 C   0  0  0  0  0  0  0  0  0  0  0  0
  1  2  1  0
  2  3  1  0
  2  4  1  0
  2  5  1  0
  4  6  1  0
  4  7  1  0
  4  8  1  0
  3  9  1  0
  9 10  2  0
  9 11  1  0
 10 12  1  0
 10 13  1  0
 11 14  2  0
 13 15  2  0
 14 15  1  0
M  END
