x0465_0_A-x0910_0_A
     RDKit          3D

 21 22  0  0  0  0  0  0  0  0999 V2000
    2.4430   12.9520   -4.6940 C   0  0  0  0  0  0  0  0  0  0  0  0
    0.9700   12.5840   -4.8760 C   0  0  1  0  0  0  0  0  0  0  0  0
    0.8330   11.5330   -5.8420 O   0  0  0  0  0  0  0  0  0  0  0  0
    0.3420   12.2120   -3.5470 C   0  0  0  0  0  0  0  0  0  0  0  0
   -0.2260   12.9880   -2.7290 N   0  0  0  0  0  0  0  0  0  0  0  0
    0.3570   10.9010   -3.2190 O   0  0  0  0  0  0  0  0  0  0  0  0
   -0.3770   10.8500   -5.8830 C   0  0  0  0  0  0  0  0  0  0  0  0
   -0.8880   12.4030   -1.5750 C   0  0  0  0  0  0  0  0  0  0  0  0
   -0.5580    9.7090   -6.6660 C   0  0  0  0  0  0  0  0  0  0  0  0
   -1.4550   11.3170   -5.1150 C   0  0  0  0  0  0  0  0  0  0  0  0
    0.4400    9.2300   -7.4190 F   0  0  0  0  0  0  0  0  0  0  0  0
   -2.3770   12.7730   -1.7930 C   0  0  0  0  0  0  0  0  0  0  0  0
   -1.7750    9.0350   -6.6910 C   0  0  0  0  0  0  0  0  0  0  0  0
   -2.6830   10.6400   -5.1390 C   0  0  0  0  0  0  0  0  0  0  0  0
   -2.5330   14.1930   -1.4900 N   0  0  0  0  0  0  0  0  0  0  0  0
   -2.8430    9.4970   -5.9270 C   0  0  0  0  0  0  0  0  0  0  0  0
   -1.6860   14.5610   -0.5310 C   0  0  0  0  0  0  0  0  0  0  0  0
   -2.0880   14.6330    0.7680 N   0  0  0  0  0  0  0  0  0  0  0  0
   -0.4190   14.8820   -0.6210 N   0  0  0  0  0  0  0  0  0  0  0  0
   -1.0730   14.9990    1.5510 N   0  0  0  0  0  0  0  0  0  0  0  0
   -0.0850   15.1410    0.6700 C   0  0  0  0  0  0  0  0  0  0  0  0
  2  1  1  1
  2  3  1  0
  2  4  1  0
  4  5  2  3
  4  6  1  0
  3  7  1  0
  5  8  1  0
  7  9  2  0
  7 10  1  0
  9 11  1  0
  8 12  1  0
  9 13  1  0
 10 14  2  0
 12 15  1  0
 13 16  2  0
 14 16  1  0
 15 17  1  0
 17 18  1  0
 17 19  2  0
 18 20  1  0
 19 21  1  0
 20 21  2  0
M  END
