x0465_0_A_α-x0950_1_A_α
     RDKit          3D

 13 13  0  0  0  0  0  0  0  0999 V2000
    1.9450   13.2950   -5.0250 C   0  0  0  0  0  0  0  0  0  0  0  0
    0.6740   12.5230   -4.7140 C   0  0  1  0  0  0  0  0  0  0  0  0
    0.6900   11.4110   -5.6240 O   0  0  0  0  0  0  0  0  0  0  0  0
    0.7360   12.1260   -3.2330 C   0  0  0  0  0  0  0  0  0  0  0  0
    0.9470   12.8920   -2.3020 O   0  0  0  0  0  0  0  0  0  0  0  0
    0.5420   10.8030   -3.0260 O   0  0  0  0  0  0  0  0  0  0  0  0
   -0.5150   10.8300   -5.9260 C   0  0  0  0  0  0  0  0  0  0  0  0
   -0.6150    9.6280   -6.6380 C   0  0  0  0  0  0  0  0  0  0  0  0
   -1.6770   11.4640   -5.5100 C   0  0  0  0  0  0  0  0  0  0  0  0
    0.4760    8.9860   -7.0750 F   0  0  0  0  0  0  0  0  0  0  0  0
   -1.8490    9.0580   -6.9200 C   0  0  0  0  0  0  0  0  0  0  0  0
   -2.9170   10.8950   -5.8000 C   0  0  0  0  0  0  0  0  0  0  0  0
   -3.0060    9.6950   -6.4970 C   0  0  0  0  0  0  0  0  0  0  0  0
  2  1  1  6
  2  3  1  0
  2  4  1  0
  4  5  2  0
  4  6  1  0
  3  7  1  0
  7  8  2  0
  7  9  1  0
  8 10  1  0
  8 11  1  0
  9 12  2  0
 11 13  2  0
 12 13  1  0
M  END
