x0465_0_A-x0727_0_A
     RDKit          3D

 14 14  0  0  0  0  0  0  0  0999 V2000
    2.1470   13.2790   -4.7810 C   0  0  0  0  0  0  0  0  0  0  0  0
    0.7860   12.6400   -4.5610 C   0  0  1  0  0  0  0  0  0  0  0  0
    0.6630   11.5600   -5.4930 O   0  0  0  0  0  0  0  0  0  0  0  0
    0.7360   12.1170   -3.1210 C   0  0  0  0  0  0  0  0  0  0  0  0
    1.0800   12.7810   -2.1510 O   0  0  0  0  0  0  0  0  0  0  0  0
    0.2800   10.8490   -2.9910 O   0  0  0  0  0  0  0  0  0  0  0  0
   -0.5250   10.8860   -5.6380 C   0  0  0  0  0  0  0  0  0  0  0  0
   -0.5730    9.9620   -6.7030 C   0  0  0  0  0  0  0  0  0  0  0  0
   -1.6420   11.0570   -4.8170 C   0  0  0  0  0  0  0  0  0  0  0  0
    0.5150    9.7790   -7.5370 N   0  0  0  0  0  0  0  0  0  0  0  0
   -1.7420    9.2210   -6.9250 C   0  0  0  0  0  0  0  0  0  0  0  0
   -2.8050   10.3100   -5.0500 C   0  0  0  0  0  0  0  0  0  0  0  0
    1.1820   10.8300   -7.6500 O   0  0  0  0  0  0  0  0  0  0  0  0
   -2.8560    9.3940   -6.0990 C   0  0  0  0  0  0  0  0  0  0  0  0
  2  1  1  6
  2  3  1  0
  2  4  1  0
  4  5  2  0
  4  6  1  0
  3  7  1  0
  7  8  2  0
  7  9  1  0
  8 10  1  0
  8 11  1  0
  9 12  2  0
 10 13  2  0
 11 14  2  0
 12 14  1  0
M  END
