x0465_0_A-x0926_0_A
     RDKit          3D

 23 24  0  0  0  0  0  0  0  0999 V2000
    2.0760   13.0800   -4.3140 C   0  0  0  0  0  0  0  0  0  0  0  0
    0.6940   12.4350   -4.1620 C   0  0  1  0  0  0  0  0  0  0  0  0
    0.5600   11.4360   -5.2000 O   0  0  0  0  0  0  0  0  0  0  0  0
    0.5530   11.7740   -2.7560 C   0  0  0  0  0  0  0  0  0  0  0  0
    0.4980   12.4390   -1.6370 N   0  0  0  0  0  0  0  0  0  0  0  0
    0.4730   10.4160   -2.7090 O   0  0  0  0  0  0  0  0  0  0  0  0
   -0.6420   10.8230   -5.4410 C   0  0  0  0  0  0  0  0  0  0  0  0
    0.5630   13.9030   -1.6010 C   0  0  0  0  0  0  0  0  0  0  0  0
   -0.6790    9.8850   -6.4960 C   0  0  0  0  0  0  0  0  0  0  0  0
   -1.8170   11.0540   -4.7270 C   0  0  0  0  0  0  0  0  0  0  0  0
    0.4120    9.6190   -7.2280 F   0  0  0  0  0  0  0  0  0  0  0  0
   -0.1410   14.3930   -0.3230 C   0  0  0  0  0  0  0  0  0  0  0  0
   -1.8450    9.2000   -6.8180 C   0  0  0  0  0  0  0  0  0  0  0  0
   -2.9910   10.3650   -5.0550 C   0  0  0  0  0  0  0  0  0  0  0  0
   -1.6510   14.1030   -0.3360 C   0  0  0  0  0  0  0  0  0  0  0  0
   -3.0030    9.4410   -6.0950 C   0  0  0  0  0  0  0  0  0  0  0  0
   -2.5320   15.3690   -0.2290 C   0  0  1  0  0  0  0  0  0  0  0  0
   -3.2700   15.5840   -1.4900 N   0  0  0  0  0  0  0  0  0  0  0  0
   -3.4310   15.3060    0.9830 C   0  0  0  0  0  0  0  0  0  0  0  0
   -4.7640   15.2080    0.9120 C   0  0  0  0  0  0  0  0  0  0  0  0
   -4.6240   15.1600   -1.5090 N   0  0  0  0  0  0  0  0  0  0  0  0
   -5.4400   15.1490   -0.3970 C   0  0  0  0  0  0  0  0  0  0  0  0
   -6.6620   15.0780   -0.4810 O   0  0  0  0  0  0  0  0  0  0  0  0
  2  1  1  1
  2  3  1  0
  2  4  1  0
  4  5  2  3
  4  6  1  0
  3  7  1  0
  5  8  1  0
  7  9  2  0
  7 10  1  0
  9 11  1  0
  8 12  1  0
  9 13  1  0
 10 14  2  0
 12 15  1  0
 13 16  2  0
 14 16  1  0
 17 15  1  6
 17 18  1  0
 17 19  1  0
 19 20  2  0
 18 21  1  0
 20 22  1  0
 21 22  1  0
 22 23  2  0
M  END
