x0465_0_A_α-x0676_0_B_α
     RDKit          3D

 28 30  0  0  0  0  0  0  0  0999 V2000
    2.0430   13.2330   -4.9140 C   0  0  0  0  0  0  0  0  0  0  0  0
    0.7130   12.5440   -4.6670 C   0  0  1  0  0  0  0  0  0  0  0  0
    0.6580   11.4260   -5.5730 O   0  0  0  0  0  0  0  0  0  0  0  0
    0.6860   12.0790   -3.2070 C   0  0  0  0  0  0  0  0  0  0  0  0
    1.0510   12.7700   -2.2650 O   0  0  0  0  0  0  0  0  0  0  0  0
    0.2220   10.8220   -3.0390 O   0  0  0  0  0  0  0  0  0  0  0  0
   -0.5590   10.7880   -5.6940 C   0  0  0  0  0  0  0  0  0  0  0  0
   -0.6410    9.6950   -6.5800 C   0  0  0  0  0  0  0  0  0  0  0  0
   -1.6790   11.2050   -4.9660 C   0  0  0  0  0  0  0  0  0  0  0  0
    0.5160    9.3800   -7.2400 O   0  0  0  0  0  0  0  0  0  0  0  0
   -1.8560    9.0280   -6.7220 C   0  0  0  0  0  0  0  0  0  0  0  0
   -2.8890   10.5260   -5.1220 C   0  0  0  0  0  0  0  0  0  0  0  0
    0.6170    9.6790   -8.6370 C   0  0  0  0  0  0  0  0  0  0  0  0
   -2.9750    9.4430   -5.9950 C   0  0  0  0  0  0  0  0  0  0  0  0
    0.7690    8.3950   -9.4640 C   0  0  0  0  0  0  0  0  0  0  0  0
    1.6030    8.6670  -10.6330 N   0  0  0  0  0  0  0  0  0  0  0  0
    2.7390    8.0760  -10.7310 C   0  0  0  0  0  0  0  0  0  0  0  0
    3.2770    7.0990   -9.7120 C   0  0  0  0  0  0  0  0  0  0  0  0
    3.7290    8.1530  -11.7120 N   0  0  0  0  0  0  0  0  0  0  0  0
    4.9650    7.7150  -11.2170 N   0  0  0  0  0  0  0  0  0  0  0  0
    4.7290    7.1440  -10.0760 C   0  0  0  0  0  0  0  0  0  0  0  0
    3.8240    9.1780  -12.7080 C   0  0  0  0  0  0  0  0  0  0  0  0
    5.7830    6.5810   -9.1890 C   0  0  0  0  0  0  0  0  0  0  0  0
    2.9010   10.2530  -12.7590 C   0  0  0  0  0  0  0  0  0  0  0  0
    4.8310    9.1820  -13.6790 C   0  0  0  0  0  0  0  0  0  0  0  0
    2.9880   11.2680  -13.7230 C   0  0  0  0  0  0  0  0  0  0  0  0
    4.9220   10.1910  -14.6480 C   0  0  0  0  0  0  0  0  0  0  0  0
    4.0020   11.2350  -14.6680 C   0  0  0  0  0  0  0  0  0  0  0  0
  2  1  1  1
  2  3  1  0
  2  4  1  0
  4  5  2  0
  4  6  1  0
  3  7  1  0
  7  8  2  0
  7  9  1  0
  8 10  1  0
  8 11  1  0
  9 12  2  0
 10 13  1  0
 11 14  2  0
 12 14  1  0
 13 15  1  0
 15 16  1  0
 16 17  2  3
 17 18  1  0
 17 19  1  0
 19 20  1  0
 18 21  1  0
 20 21  2  0
 19 22  1  0
 21 23  1  0
 22 24  2  0
 22 25  1  0
 24 26  1  0
 25 27  2  0
 26 28  2  0
 27 28  1  0
M  END
