x0465_0_A_α-x0933_0_A_α
     RDKit          3D

 23 24  0  0  0  0  0  0  0  0999 V2000
    2.0550   13.1390   -4.3430 C   0  0  0  0  0  0  0  0  0  0  0  0
    0.7000   12.4320   -4.2080 C   0  0  1  0  0  0  0  0  0  0  0  0
    0.6140   11.4610   -5.2570 O   0  0  0  0  0  0  0  0  0  0  0  0
    0.6030   11.7650   -2.7960 C   0  0  0  0  0  0  0  0  0  0  0  0
    0.6650   12.4170   -1.6790 N   0  0  0  0  0  0  0  0  0  0  0  0
    0.4330   10.4150   -2.7460 O   0  0  0  0  0  0  0  0  0  0  0  0
   -0.5240   10.7700   -5.5730 C   0  0  0  0  0  0  0  0  0  0  0  0
    0.8370   13.8610   -1.6340 C   0  0  0  0  0  0  0  0  0  0  0  0
   -0.6620    9.7730   -6.5490 C   0  0  0  0  0  0  0  0  0  0  0  0
   -1.6490   11.1180   -4.8190 C   0  0  0  0  0  0  0  0  0  0  0  0
    0.3650    9.3810   -7.3190 F   0  0  0  0  0  0  0  0  0  0  0  0
   -0.3130   14.4810   -0.8470 C   0  0  0  0  0  0  0  0  0  0  0  0
   -1.8840    9.1390   -6.7620 C   0  0  0  0  0  0  0  0  0  0  0  0
   -2.8780   10.4830   -5.0320 C   0  0  0  0  0  0  0  0  0  0  0  0
   -1.6970   14.4250   -1.5210 C   0  0  0  0  0  0  0  0  0  0  0  0
   -2.9940    9.4920   -6.0040 C   0  0  0  0  0  0  0  0  0  0  0  0
   -2.9670   14.8470   -0.7570 C   0  0  1  0  0  0  0  0  0  0  0  0
   -4.2440   14.1490   -1.2130 C   0  0  0  0  0  0  0  0  0  0  0  0
   -2.8390   14.8000    0.7800 C   0  0  0  0  0  0  0  0  0  0  0  0
   -5.1630   13.9560   -0.0990 N   0  0  0  0  0  0  0  0  0  0  0  0
   -4.0330   15.2570    1.4950 N   0  0  0  0  0  0  0  0  0  0  0  0
   -5.2220   15.0820    0.7450 C   0  0  2  0  0  0  0  0  0  0  0  0
   -6.1890   14.7040    1.7200 N   0  0  0  0  0  0  0  0  0  0  0  0
  2  1  1  1
  2  3  1  0
  2  4  1  0
  4  5  2  3
  4  6  1  0
  3  7  1  0
  5  8  1  0
  7  9  2  0
  7 10  1  0
  9 11  1  0
  8 12  1  0
  9 13  1  0
 10 14  2  0
 12 15  1  0
 13 16  2  0
 14 16  1  0
 17 15  1  6
 17 18  1  0
 17 19  1  0
 18 20  1  0
 19 21  1  0
 20 22  1  0
 21 22  1  0
 22 23  1  1
M  END
