x0465_0_A-x0685_0_A
     RDKit          3D

 27 28  0  0  0  0  0  0  0  0999 V2000
    1.7770   13.5970   -4.7610 C   0  0  0  0  0  0  0  0  0  0  0  0
    0.6130   12.6610   -4.3810 C   0  0  1  0  0  0  0  0  0  0  0  0
    0.3580   11.8170   -5.5240 O   0  0  0  0  0  0  0  0  0  0  0  0
    0.8510   11.9940   -3.0180 C   0  0  0  0  0  0  0  0  0  0  0  0
   -0.6460   13.5640   -4.0810 C   0  0  0  0  0  0  0  0  0  0  0  0
    1.3940   12.5140   -2.0600 O   0  0  0  0  0  0  0  0  0  0  0  0
    0.3890   10.7310   -2.9210 O   0  0  0  0  0  0  0  0  0  0  0  0
   -1.1570   14.4230   -5.2380 C   0  0  0  0  0  0  0  0  0  0  0  0
   -0.6560   10.9260   -5.7290 C   0  0  0  0  0  0  0  0  0  0  0  0
   -2.3670   15.3150   -4.8760 C   0  0  0  0  0  0  0  0  0  0  0  0
   -0.6800    9.8180   -6.5870 C   0  0  0  0  0  0  0  0  0  0  0  0
   -1.8090   11.1830   -4.9720 C   0  0  0  0  0  0  0  0  0  0  0  0
    0.3650    9.4830   -7.3570 F   0  0  0  0  0  0  0  0  0  0  0  0
   -2.9190   15.1440   -3.5100 C   0  0  0  0  0  0  0  0  0  0  0  0
   -1.8040    9.0010   -6.6840 C   0  0  0  0  0  0  0  0  0  0  0  0
   -2.9370   10.3700   -5.0670 C   0  0  0  0  0  0  0  0  0  0  0  0
   -3.4220   15.0710   -2.4110 C   0  0  0  0  0  0  0  0  0  0  0  0
   -2.9380    9.2750   -5.9240 C   0  0  0  0  0  0  0  0  0  0  0  0
   -4.0760   15.0560   -1.1340 C   0  0  0  0  0  0  0  0  0  0  0  0
   -3.3700   15.1200    0.0650 C   0  0  0  0  0  0  0  0  0  0  0  0
   -5.4570   14.9800   -1.0600 C   0  0  0  0  0  0  0  0  0  0  0  0
   -4.0780   15.1160    1.2670 C   0  0  0  0  0  0  0  0  0  0  0  0
   -6.1620   14.9700    0.0930 N   0  0  0  0  0  0  0  0  0  0  0  0
   -5.4700   15.0440    1.2400 C   0  0  0  0  0  0  0  0  0  0  0  0
   -6.2440   15.0570    2.3950 N   0  0  0  0  0  0  0  0  0  0  0  0
   -7.6350   14.6390    2.3640 C   0  0  0  0  0  0  0  0  0  0  0  0
   -7.8270   13.3100    3.0740 C   0  0  0  0  0  0  0  0  0  0  0  0
  2  1  1  6
  2  3  1  0
  2  4  1  0
  2  5  1  0
  4  6  2  0
  4  7  1  0
  5  8  1  0
  3  9  1  0
  8 10  1  0
  9 11  2  0
  9 12  1  0
 11 13  1  0
 10 14  1  0
 11 15  1  0
 12 16  2  0
 14 17  3  0
 15 18  2  0
 16 18  1  0
 17 19  1  0
 19 20  2  0
 19 21  1  0
 20 22  1  0
 21 23  2  0
 22 24  2  0
 23 24  1  0
 24 25  1  0
 25 26  1  0
 26 27  1  0
M  END
