x0469_0_B-x0548_0_B
     RDKit          3D

 19 20  0  0  0  0  0  0  0  0999 V2000
   -4.7620   40.1350    6.6650 N   0  0  0  0  0  0  0  0  0  0  0  0
   -6.1950   39.9070    6.8640 C   0  0  2  0  0  0  0  0  0  0  0  0
   -6.5540   40.3580    8.2750 C   0  0  0  0  0  0  0  0  0  0  0  0
   -6.5980   38.4700    6.4950 C   0  0  1  0  0  0  0  0  0  0  0  0
   -6.4500   37.3180    7.5410 C   0  0  0  0  0  0  0  0  0  0  0  0
   -7.8490   38.4240    5.5900 C   0  0  1  0  0  0  0  0  0  0  0  0
   -7.2980   38.2540    4.2380 C   0  0  0  0  0  0  0  0  0  0  0  0
   -9.0440   37.5400    6.0090 C   0  0  2  0  0  0  0  0  0  0  0  0
   -7.7350   36.5570    7.9230 C   0  0  2  0  0  0  0  0  0  0  0  0
   -8.7140   39.6420    5.2880 C   0  0  0  0  0  0  0  0  0  0  0  0
   -9.8990   38.3100    6.8770 O   0  0  0  0  0  0  0  0  0  0  0  0
   -7.3660   35.3260    8.5880 O   0  0  0  0  0  0  0  0  0  0  0  0
   -8.6570   36.2440    6.7190 C   0  0  1  0  0  0  0  0  0  0  0  0
   -9.7430   39.0400    4.3830 N   0  0  0  0  0  0  0  0  0  0  0  0
   -9.8000   37.5910    4.7200 C   0  0  0  0  0  0  0  0  0  0  0  0
  -11.0740   38.8550    6.2730 C   0  0  0  0  0  0  0  0  0  0  0  0
   -9.7950   35.4860    7.1600 O   0  0  0  0  0  0  0  0  0  0  0  0
   -5.9970   34.9660    8.4740 C   0  0  0  0  0  0  0  0  0  0  0  0
  -10.0950   34.4290    6.2570 C   0  0  0  0  0  0  0  0  0  0  0  0
  1  2  1  0
  2  3  1  1
  2  4  1  0
  4  5  1  1
  4  6  1  0
  6  7  1  6
  6  8  1  0
  5  9  1  0
  6 10  1  0
  8 11  1  1
  9 12  1  6
  8 13  1  0
  9 13  1  0
 10 14  1  0
  8 15  1  0
 14 15  1  0
 11 16  1  0
 13 17  1  1
 12 18  1  0
 17 19  1  0
M  END
