x0465_0_A-x0766_0_A
     RDKit          3D

 23 25  0  0  0  0  0  0  0  0999 V2000
    2.7970   12.8140   -4.8060 C   0  0  0  0  0  0  0  0  0  0  0  0
    1.3210   12.5410   -4.9930 C   0  0  1  0  0  0  0  0  0  0  0  0
    1.0110   11.3670   -5.7890 O   0  0  0  0  0  0  0  0  0  0  0  0
    0.5530   12.4730   -3.6580 C   0  0  0  0  0  0  0  0  0  0  0  0
    1.3350   12.8450   -2.5320 O   0  0  0  0  0  0  0  0  0  0  0  0
    0.0640   11.1580   -3.4360 O   0  0  0  0  0  0  0  0  0  0  0  0
   -0.2460   10.8100   -5.9840 C   0  0  0  0  0  0  0  0  0  0  0  0
   -0.4380   13.5540   -4.1070 C   0  0  2  0  0  0  0  0  0  0  0  0
   -0.5160    9.6280   -6.6830 C   0  0  0  0  0  0  0  0  0  0  0  0
   -1.3380   11.4900   -5.4360 C   0  0  0  0  0  0  0  0  0  0  0  0
    0.3200   14.3040   -5.2260 C   0  0  0  0  0  0  0  0  0  0  0  0
   -0.7340   14.8370   -3.3450 C   0  0  2  0  0  0  0  0  0  0  0  0
    0.4590    8.9110   -7.2550 F   0  0  0  0  0  0  0  0  0  0  0  0
   -1.8070    9.1320   -6.8250 C   0  0  0  0  0  0  0  0  0  0  0  0
   -2.6380   10.9970   -5.5850 C   0  0  0  0  0  0  0  0  0  0  0  0
    1.3190   15.2010   -4.4780 C   0  0  0  0  0  0  0  0  0  0  0  0
    0.6320   15.4740   -3.1460 C   0  0  0  0  0  0  0  0  0  0  0  0
   -1.7350   14.8300   -2.2500 C   0  0  0  0  0  0  0  0  0  0  0  0
   -2.8790    9.8160   -6.2730 C   0  0  0  0  0  0  0  0  0  0  0  0
   -3.1040   14.8700   -2.4260 C   0  0  0  0  0  0  0  0  0  0  0  0
   -1.3980   14.7910   -0.8570 C   0  0  0  0  0  0  0  0  0  0  0  0
   -2.5120   14.8030   -0.0470 C   0  0  0  0  0  0  0  0  0  0  0  0
   -3.9590   14.8630   -0.9540 S   0  0  0  0  0  0  0  0  0  0  0  0
  2  1  1  1
  2  3  1  0
  2  4  1  0
  4  5  1  0
  4  6  1  0
  3  7  1  0
  8  4  1  1
  7  9  2  0
  7 10  1  0
  8 11  1  0
  8 12  1  0
  9 13  1  0
  9 14  1  0
 10 15  2  0
 11 16  1  0
 12 17  1  0
 16 17  1  0
 12 18  1  1
 14 19  2  0
 15 19  1  0
 18 20  2  0
 18 21  1  0
 21 22  2  0
 20 23  1  0
 22 23  1  0
M  END
