x0465_0_A-x0895_0_A
     RDKit          3D

 23 24  0  0  0  0  0  0  0  0999 V2000
    1.9820   13.2040   -5.1790 C   0  0  0  0  0  0  0  0  0  0  0  0
    0.6560   12.5800   -4.8260 C   0  0  1  0  0  0  0  0  0  0  0  0
    0.5720   11.3080   -5.4510 O   0  0  0  0  0  0  0  0  0  0  0  0
    0.6550   12.4490   -3.3130 C   0  0  0  0  0  0  0  0  0  0  0  0
    0.7040   13.4960   -2.5760 N   0  0  0  0  0  0  0  0  0  0  0  0
    0.6180   11.1730   -2.8610 O   0  0  0  0  0  0  0  0  0  0  0  0
   -0.6420   10.7240   -5.6060 C   0  0  0  0  0  0  0  0  0  0  0  0
    0.7340   13.4290   -1.1400 C   0  0  0  0  0  0  0  0  0  0  0  0
   -0.7230    9.7080   -6.5690 C   0  0  0  0  0  0  0  0  0  0  0  0
   -1.7850   11.0610   -4.8810 C   0  0  0  0  0  0  0  0  0  0  0  0
    0.3540    9.3550   -7.2900 F   0  0  0  0  0  0  0  0  0  0  0  0
   -0.4710   14.0920   -0.4810 C   0  0  0  0  0  0  0  0  0  0  0  0
   -1.9130    9.0400   -6.8070 C   0  0  0  0  0  0  0  0  0  0  0  0
   -2.9880   10.3890   -5.1200 C   0  0  0  0  0  0  0  0  0  0  0  0
   -0.2440   14.3290    1.0240 C   0  0  0  0  0  0  0  0  0  0  0  0
   -3.0530    9.3790   -6.0800 C   0  0  0  0  0  0  0  0  0  0  0  0
   -1.5100   14.4820    1.7430 N   0  0  0  0  0  0  0  0  0  0  0  0
   -2.5790   14.7080    1.0800 C   0  0  0  0  0  0  0  0  0  0  0  0
   -3.9350   14.8680    1.7230 C   0  0  0  0  0  0  0  0  0  0  0  0
   -2.7230   14.8390   -0.2610 N   0  0  0  0  0  0  0  0  0  0  0  0
   -4.6440   15.4430    0.6180 N   0  0  0  0  0  0  0  0  0  0  0  0
   -3.9810   15.2270   -0.5570 C   0  0  0  0  0  0  0  0  0  0  0  0
   -4.4530   15.3570   -1.6690 O   0  0  0  0  0  0  0  0  0  0  0  0
  2  1  1  6
  2  3  1  0
  2  4  1  0
  4  5  2  3
  4  6  1  0
  3  7  1  0
  5  8  1  0
  7  9  2  0
  7 10  1  0
  9 11  1  0
  8 12  1  0
  9 13  1  0
 10 14  2  0
 12 15  1  0
 13 16  2  0
 14 16  1  0
 15 17  1  0
 17 18  2  3
 18 19  1  0
 18 20  1  0
 19 21  1  0
 20 22  1  0
 21 22  1  0
 22 23  2  0
M  END
