x0465_0_A-x0524_0_A
     RDKit          3D

 29 31  0  0  0  0  0  0  0  0999 V2000
    2.0220   13.1190   -5.0030 C   0  0  0  0  0  0  0  0  0  0  0  0
    0.6620   12.5370   -4.6370 C   0  0  1  0  0  0  0  0  0  0  0  0
    0.3870   11.4200   -5.5050 O   0  0  0  0  0  0  0  0  0  0  0  0
    0.7480   12.1270   -3.1610 C   0  0  0  0  0  0  0  0  0  0  0  0
    1.0570   12.8670   -2.2390 O   0  0  0  0  0  0  0  0  0  0  0  0
    0.4540   10.8350   -2.9000 O   0  0  0  0  0  0  0  0  0  0  0  0
   -0.8130   10.7560   -5.3330 C   0  0  0  0  0  0  0  0  0  0  0  0
   -1.2950    9.9290   -6.3660 C   0  0  0  0  0  0  0  0  0  0  0  0
   -1.5760   10.8760   -4.1710 C   0  0  0  0  0  0  0  0  0  0  0  0
   -0.6230    9.7350   -7.6720 C   0  0  1  0  0  0  0  0  0  0  0  0
   -2.4940    9.2430   -6.2080 C   0  0  0  0  0  0  0  0  0  0  0  0
   -2.7800   10.1810   -4.0410 C   0  0  0  0  0  0  0  0  0  0  0  0
    0.1400    8.5510   -7.8830 N   0  0  0  0  0  0  0  0  0  0  0  0
   -1.6750    9.8090   -8.7720 C   0  0  0  0  0  0  0  0  0  0  0  0
    0.2520   10.8290   -7.8960 O   0  0  0  0  0  0  0  0  0  0  0  0
   -3.2370    9.3630   -5.0590 C   0  0  0  0  0  0  0  0  0  0  0  0
    1.0540    8.4740   -8.8880 C   0  0  0  0  0  0  0  0  0  0  0  0
    2.1270    7.6100   -8.9370 C   0  0  0  0  0  0  0  0  0  0  0  0
    0.8920    9.3600   -9.9660 C   0  0  0  0  0  0  0  0  0  0  0  0
    3.0170    7.6270  -10.0110 C   0  0  0  0  0  0  0  0  0  0  0  0
    1.7740    9.3820  -11.0430 C   0  0  0  0  0  0  0  0  0  0  0  0
    2.8590    8.5110  -11.0760 C   0  0  0  0  0  0  0  0  0  0  0  0
    3.7460    8.5410  -12.1550 N   0  0  0  0  0  0  0  0  0  0  0  0
    4.0090    9.4790  -13.1610 C   0  0  0  0  0  0  0  0  0  0  0  0
    3.2190   10.6310  -13.2930 C   0  0  0  0  0  0  0  0  0  0  0  0
    5.0610    9.2920  -14.0580 C   0  0  0  0  0  0  0  0  0  0  0  0
    3.4770   11.5660  -14.2960 C   0  0  0  0  0  0  0  0  0  0  0  0
    5.3210   10.2230  -15.0630 C   0  0  0  0  0  0  0  0  0  0  0  0
    4.5300   11.3610  -15.1820 C   0  0  0  0  0  0  0  0  0  0  0  0
  2  1  1  6
  2  3  1  0
  2  4  1  0
  4  5  2  0
  4  6  1  0
  3  7  1  0
  7  8  2  0
  7  9  1  0
  8 10  1  0
  8 11  1  0
  9 12  2  0
 10 13  1  0
 10 14  1  6
 10 15  1  0
 11 16  2  0
 12 16  1  0
 13 17  1  0
 17 18  2  0
 17 19  1  0
 18 20  1  0
 19 21  2  0
 20 22  2  0
 21 22  1  0
 22 23  1  0
 23 24  1  0
 24 25  2  0
 24 26  1  0
 25 27  1  0
 26 28  2  0
 27 29  2  0
 28 29  1  0
M  END
