x0465_0_A-x0950_0_A
     RDKit          3D

 13 13  0  0  0  0  0  0  0  0999 V2000
    1.9390   13.2970   -5.0250 C   0  0  0  0  0  0  0  0  0  0  0  0
    0.6700   12.5240   -4.7140 C   0  0  1  0  0  0  0  0  0  0  0  0
    0.6850   11.4160   -5.6260 O   0  0  0  0  0  0  0  0  0  0  0  0
    0.7340   12.1240   -3.2310 C   0  0  0  0  0  0  0  0  0  0  0  0
    0.9360   12.8890   -2.3010 O   0  0  0  0  0  0  0  0  0  0  0  0
    0.5580   10.8020   -3.0270 O   0  0  0  0  0  0  0  0  0  0  0  0
   -0.5230   10.8360   -5.9240 C   0  0  0  0  0  0  0  0  0  0  0  0
   -0.6190    9.6320   -6.6390 C   0  0  0  0  0  0  0  0  0  0  0  0
   -1.6870   11.4650   -5.5080 C   0  0  0  0  0  0  0  0  0  0  0  0
    0.4730    8.9950   -7.0750 F   0  0  0  0  0  0  0  0  0  0  0  0
   -1.8500    9.0610   -6.9200 C   0  0  0  0  0  0  0  0  0  0  0  0
   -2.9250   10.8950   -5.7990 C   0  0  0  0  0  0  0  0  0  0  0  0
   -3.0120    9.6940   -6.4980 C   0  0  0  0  0  0  0  0  0  0  0  0
  2  1  1  6
  2  3  1  0
  2  4  1  0
  4  5  2  0
  4  6  1  0
  3  7  1  0
  7  8  2  0
  7  9  1  0
  8 10  1  0
  8 11  1  0
  9 12  2  0
 11 13  2  0
 12 13  1  0
M  END
