x0465_0_A-x0662_0_A
     RDKit          3D

 29 31  0  0  0  0  0  0  0  0999 V2000
    2.2740   12.7780   -5.2340 C   0  0  0  0  0  0  0  0  0  0  0  0
    0.8620   12.3330   -4.8530 C   0  0  1  0  0  0  0  0  0  0  0  0
   -0.0640   11.6120   -5.9310 C   0  0  2  0  0  0  0  0  0  0  0  0
    0.8110   11.9070   -3.3850 C   0  0  0  0  0  0  0  0  0  0  0  0
    1.0870   12.6770   -2.4680 O   0  0  0  0  0  0  0  0  0  0  0  0
    0.4460   10.6390   -3.1190 O   0  0  0  0  0  0  0  0  0  0  0  0
   -0.8440   12.7600   -6.3020 O   0  0  0  0  0  0  0  0  0  0  0  0
   -1.1380   10.6740   -5.4980 C   0  0  0  0  0  0  0  0  0  0  0  0
    0.0990   10.9160   -7.3130 C   0  0  0  0  0  0  0  0  0  0  0  0
   -1.0680    9.3630   -6.0020 C   0  0  0  0  0  0  0  0  0  0  0  0
   -2.2030   11.0280   -4.6780 C   0  0  0  0  0  0  0  0  0  0  0  0
   -0.9840   10.0690   -7.6380 C   0  0  0  0  0  0  0  0  0  0  0  0
    1.1260   11.0030   -8.2810 C   0  0  0  0  0  0  0  0  0  0  0  0
   -0.0580    8.9740   -6.8010 F   0  0  0  0  0  0  0  0  0  0  0  0
   -2.0310    8.4270   -5.7110 C   0  0  0  0  0  0  0  0  0  0  0  0
   -3.1800   10.0840   -4.3830 C   0  0  0  0  0  0  0  0  0  0  0  0
   -1.0760    9.3500   -8.8160 C   0  0  0  0  0  0  0  0  0  0  0  0
    1.0180   10.2780   -9.4970 C   0  0  0  0  0  0  0  0  0  0  0  0
    1.9400   10.3140  -10.5320 N   0  0  0  0  0  0  0  0  0  0  0  0
   -3.0950    8.7930   -4.8990 C   0  0  0  0  0  0  0  0  0  0  0  0
   -0.0740    9.4600   -9.7440 C   0  0  0  0  0  0  0  0  0  0  0  0
    2.3670    9.3090  -11.3630 C   0  0  0  0  0  0  0  0  0  0  0  0
    2.2550    8.1050  -11.1850 O   0  0  0  0  0  0  0  0  0  0  0  0
    3.0340    9.8670  -12.5560 C   0  0  0  0  0  0  0  0  0  0  0  0
    2.8230   11.1360  -13.1610 C   0  0  0  0  0  0  0  0  0  0  0  0
    3.9800    9.1650  -13.2120 N   0  0  0  0  0  0  0  0  0  0  0  0
    4.3550    9.9850  -14.2080 N   0  0  0  0  0  0  0  0  0  0  0  0
    3.6920   11.1780  -14.2250 C   0  0  0  0  0  0  0  0  0  0  0  0
    5.3820    9.5480  -15.1230 C   0  0  0  0  0  0  0  0  0  0  0  0
  2  1  1  6
  2  3  1  0
  2  4  1  0
  4  5  2  0
  4  6  1  0
  3  7  1  6
  3  8  1  0
  3  9  1  0
  8 10  2  0
  8 11  1  0
  9 12  2  0
  9 13  1  0
 10 14  1  0
 10 15  1  0
 11 16  2  0
 12 17  1  0
 13 18  2  0
 18 19  1  0
 15 20  2  0
 16 20  1  0
 17 21  2  0
 18 21  1  0
 19 22  1  0
 22 23  2  0
 22 24  1  0
 24 25  1  0
 24 26  2  0
 26 27  1  0
 25 28  2  0
 27 28  1  0
 27 29  1  0
M  END
