x0465_0_A-x1012_0_A
     RDKit          3D

 22 23  0  0  0  0  0  0  0  0999 V2000
    2.3150   12.9770   -5.0450 C   0  0  0  0  0  0  0  0  0  0  0  0
    0.8610   12.5690   -4.8600 C   0  0  1  0  0  0  0  0  0  0  0  0
    0.6830   11.3090   -5.5240 O   0  0  0  0  0  0  0  0  0  0  0  0
    0.5830   12.4900   -3.3310 C   0  0  0  0  0  0  0  0  0  0  0  0
    1.8040   12.4660   -2.6080 O   0  0  0  0  0  0  0  0  0  0  0  0
   -0.0720   11.2860   -2.9590 O   0  0  0  0  0  0  0  0  0  0  0  0
   -0.5660   10.7620   -5.6550 C   0  0  0  0  0  0  0  0  0  0  0  0
   -0.1370   13.7840   -2.8870 C   0  0  0  0  0  0  0  0  0  0  0  0
   -0.6920    9.7280   -6.5880 C   0  0  0  0  0  0  0  0  0  0  0  0
   -1.6880   11.1600   -4.9300 C   0  0  0  0  0  0  0  0  0  0  0  0
   -1.5820   13.9690   -3.4180 C   0  0  0  0  0  0  0  0  0  0  0  0
    0.7600   15.0240   -3.1910 C   0  0  0  0  0  0  0  0  0  0  0  0
    0.3670    9.3230   -7.3070 F   0  0  0  0  0  0  0  0  0  0  0  0
   -1.9090    9.0910   -6.7990 C   0  0  0  0  0  0  0  0  0  0  0  0
   -2.9160   10.5220   -5.1400 C   0  0  0  0  0  0  0  0  0  0  0  0
   -1.6940   14.6690   -4.7760 C   0  0  0  0  0  0  0  0  0  0  0  0
    0.5790   15.6070   -4.5930 C   0  0  0  0  0  0  0  0  0  0  0  0
   -3.0250    9.4910   -6.0710 C   0  0  0  0  0  0  0  0  0  0  0  0
   -0.8300   15.8450   -4.8800 N   0  0  0  0  0  0  0  0  0  0  0  0
   -1.2930   17.1390   -4.7820 C   0  0  0  0  0  0  0  0  0  0  0  0
   -0.3690   18.1180   -4.6610 N   0  0  0  0  0  0  0  0  0  0  0  0
   -2.4700   17.4570   -4.7830 O   0  0  0  0  0  0  0  0  0  0  0  0
  2  1  1  1
  2  3  1  0
  2  4  1  0
  4  5  1  0
  4  6  1  0
  3  7  1  0
  4  8  1  0
  7  9  2  0
  7 10  1  0
  8 11  1  0
  8 12  1  0
  9 13  1  0
  9 14  1  0
 10 15  2  0
 11 16  1  0
 12 17  1  0
 14 18  2  0
 15 18  1  0
 16 19  1  0
 17 19  1  0
 19 20  1  0
 20 21  1  0
 20 22  2  0
M  END
