x0469_0_B_α-x0933_3_B_α
     RDKit          3D

 24 25  0  0  0  0  0  0  0  0999 V2000
   -5.4580   40.3930    6.0420 N   0  0  0  0  0  0  0  0  0  0  0  0
   -5.3580   39.0840    5.4080 C   0  0  0  0  0  0  0  0  0  0  0  0
   -6.4600   38.1680    5.8660 C   0  0  0  0  0  0  0  0  0  0  0  0
   -6.2290   37.2580    6.9000 C   0  0  0  0  0  0  0  0  0  0  0  0
   -7.7200   38.2210    5.2590 C   0  0  0  0  0  0  0  0  0  0  0  0
   -8.7530   37.3790    5.6760 C   0  0  0  0  0  0  0  0  0  0  0  0
   -7.2300   36.4020    7.3430 C   0  0  0  0  0  0  0  0  0  0  0  0
  -10.0080   37.3930    5.1240 O   0  0  0  0  0  0  0  0  0  0  0  0
   -7.0130   35.5100    8.3590 O   0  0  0  0  0  0  0  0  0  0  0  0
   -8.5070   36.4590    6.7270 C   0  0  0  0  0  0  0  0  0  0  0  0
  -10.3370   38.5170    4.3130 C   0  0  0  0  0  0  0  0  0  0  0  0
   -9.5180   35.6160    7.1600 O   0  0  0  0  0  0  0  0  0  0  0  0
   -5.6330   35.1480    8.5820 C   0  0  0  0  0  0  0  0  0  0  0  0
   -9.8480   34.6500    6.1590 C   0  0  0  0  0  0  0  0  0  0  0  0
   -4.9420   36.0730    9.6210 C   0  0  0  0  0  0  0  0  0  0  0  0
   -3.4940   36.5470    9.2610 C   0  0  0  0  0  0  0  0  0  0  0  0
   -2.3680   36.0650   10.2440 C   0  0  0  0  0  0  0  0  0  0  0  0
   -0.9370   36.1280    9.7930 N   0  0  0  0  0  0  0  0  0  0  0  0
   -0.1740   34.8900    9.8790 C   0  0  2  0  0  0  0  0  0  0  0  0
   -0.6820   37.0100    8.6450 C   0  0  0  0  0  0  0  0  0  0  0  0
    0.4480   34.6890   11.1460 N   0  0  0  0  0  0  0  0  0  0  0  0
    0.9110   34.7070    8.9180 N   0  0  0  0  0  0  0  0  0  0  0  0
   -0.2490   36.2800    7.3800 C   0  0  0  0  0  0  0  0  0  0  0  0
    0.9990   35.4950    7.6850 C   0  0  0  0  0  0  0  0  0  0  0  0
  1  2  1  0
  2  3  1  0
  3  4  2  0
  3  5  1  0
  5  6  2  0
  4  7  1  0
  6  8  1  0
  7  9  1  0
  6 10  1  0
  7 10  2  0
  8 11  1  0
 10 12  1  0
  9 13  1  0
 12 14  1  0
 13 15  1  0
 15 16  1  0
 16 17  1  0
 17 18  1  0
 18 19  1  0
 18 20  1  0
 19 21  1  1
 19 22  1  0
 20 23  1  0
 22 24  1  0
 23 24  1  0
M  END
