x0465_0_A_α-x0574_0_A_α
     RDKit          3D

 27 29  0  0  0  0  0  0  0  0999 V2000
    1.6750   13.3410   -5.4480 C   0  0  0  0  0  0  0  0  0  0  0  0
    0.5090   12.5730   -4.8490 C   0  0  1  0  0  0  0  0  0  0  0  0
    0.5590   11.3110   -5.4650 O   0  0  0  0  0  0  0  0  0  0  0  0
    0.7560   12.6390   -3.3630 C   0  0  0  0  0  0  0  0  0  0  0  0
    0.9170   13.6800   -2.6440 N   0  0  0  0  0  0  0  0  0  0  0  0
    0.8240   11.4290   -2.7560 O   0  0  0  0  0  0  0  0  0  0  0  0
   -0.5800   10.6240   -5.7250 C   0  0  0  0  0  0  0  0  0  0  0  0
    1.2080   13.5720   -1.2490 C   0  0  0  0  0  0  0  0  0  0  0  0
   -0.7280    9.5860   -6.6330 C   0  0  0  0  0  0  0  0  0  0  0  0
   -1.6910   11.0350   -4.9770 C   0  0  0  0  0  0  0  0  0  0  0  0
    0.2980    9.1530   -7.3770 F   0  0  0  0  0  0  0  0  0  0  0  0
    0.8830   14.8030   -0.4000 C   0  0  0  0  0  0  0  0  0  0  0  0
   -1.9540    8.9550   -6.8070 C   0  0  0  0  0  0  0  0  0  0  0  0
   -2.9270   10.4070   -5.1460 C   0  0  0  0  0  0  0  0  0  0  0  0
    0.2140   14.4550    0.8720 N   0  0  0  0  0  0  0  0  0  0  0  0
   -3.0580    9.3670   -6.0590 C   0  0  0  0  0  0  0  0  0  0  0  0
   -1.0750   14.5210    0.7510 C   0  0  0  0  0  0  0  0  0  0  0  0
   -2.0120   14.5300    1.6580 N   0  0  0  0  0  0  0  0  0  0  0  0
   -1.5270   14.6230   -0.8820 S   0  0  0  0  0  0  0  0  0  0  0  0
   -3.2220   14.6480    0.9860 C   0  0  0  0  0  0  0  0  0  0  0  0
   -3.1360   14.7230   -0.4050 C   0  0  0  0  0  0  0  0  0  0  0  0
   -4.5060   14.7020    1.5450 C   0  0  0  0  0  0  0  0  0  0  0  0
   -4.2330   14.8570   -1.2410 C   0  0  0  0  0  0  0  0  0  0  0  0
   -5.6290   14.8290    0.7160 C   0  0  0  0  0  0  0  0  0  0  0  0
   -5.4850   14.9110   -0.6580 C   0  0  0  0  0  0  0  0  0  0  0  0
   -6.8280   14.8650    1.3630 O   0  0  0  0  0  0  0  0  0  0  0  0
   -6.8250   14.5910    2.7560 C   0  0  0  0  0  0  0  0  0  0  0  0
  2  1  1  6
  2  3  1  0
  2  4  1  0
  4  5  2  3
  4  6  1  0
  3  7  1  0
  5  8  1  0
  7  9  2  0
  7 10  1  0
  9 11  1  0
  8 12  1  0
  9 13  1  0
 10 14  2  0
 12 15  1  0
 13 16  2  0
 14 16  1  0
 15 17  1  0
 17 18  2  0
 17 19  1  0
 18 20  1  0
 19 21  1  0
 20 21  2  0
 20 22  1  0
 21 23  1  0
 22 24  2  0
 23 25  2  0
 24 25  1  0
 24 26  1  0
 26 27  1  0
M  END
