x0465_0_A_α-x0724_0_A_α
     RDKit          3D

 30 32  0  0  0  0  0  0  0  0999 V2000
    2.1160   13.1500   -4.7240 C   0  0  0  0  0  0  0  0  0  0  0  0
    0.7520   12.4930   -4.5130 C   0  0  1  0  0  0  0  0  0  0  0  0
    0.6500   11.4850   -5.5370 O   0  0  0  0  0  0  0  0  0  0  0  0
    0.6900   11.8930   -3.0950 C   0  0  0  0  0  0  0  0  0  0  0  0
    0.8970   12.5780   -2.0260 N   0  0  0  0  0  0  0  0  0  0  0  0
    0.3900   10.5800   -3.0190 O   0  0  0  0  0  0  0  0  0  0  0  0
   -0.5620   10.8460   -5.6460 C   0  0  0  0  0  0  0  0  0  0  0  0
    1.2140   14.0010   -2.0690 C   0  0  0  0  0  0  0  0  0  0  0  0
   -0.6730    9.8050   -6.5750 C   0  0  0  0  0  0  0  0  0  0  0  0
   -1.6660   11.1990   -4.8690 C   0  0  0  0  0  0  0  0  0  0  0  0
    0.3760    9.4540   -7.3330 F   0  0  0  0  0  0  0  0  0  0  0  0
    0.0270   14.7280   -1.4350 C   0  0  0  0  0  0  0  0  0  0  0  0
   -1.8660    9.1120   -6.7330 C   0  0  0  0  0  0  0  0  0  0  0  0
   -2.8690   10.5030   -5.0280 C   0  0  0  0  0  0  0  0  0  0  0  0
   -1.2720   14.5960   -2.2500 C   0  0  0  0  0  0  0  0  0  0  0  0
   -2.9690    9.4620   -5.9560 C   0  0  0  0  0  0  0  0  0  0  0  0
   -2.5650   14.6290   -1.4550 C   0  0  0  0  0  0  0  0  0  0  0  0
   -2.5680   14.7270   -0.0530 C   0  0  0  0  0  0  0  0  0  0  0  0
   -3.7950   14.5570   -2.1250 C   0  0  0  0  0  0  0  0  0  0  0  0
   -3.7710   14.7440    0.6620 C   0  0  0  0  0  0  0  0  0  0  0  0
   -4.9980   14.5730   -1.4160 C   0  0  0  0  0  0  0  0  0  0  0  0
   -4.9970   14.6620   -0.0190 C   0  0  0  0  0  0  0  0  0  0  0  0
   -6.2300   14.6680    0.6960 N   0  0  0  0  0  0  0  0  0  0  0  0
   -7.4270   14.3890    0.1080 N   0  0  0  0  0  0  0  0  0  0  0  0
   -6.4000   14.9430    2.0240 C   0  0  0  0  0  0  0  0  0  0  0  0
   -7.7370   14.8500    2.3320 C   0  0  0  0  0  0  0  0  0  0  0  0
   -8.3210   14.5010    1.0960 C   0  0  0  0  0  0  0  0  0  0  0  0
   -8.3820   15.0780    3.6520 C   0  0  0  0  0  0  0  0  0  0  0  0
   -8.6310   13.7920    4.3020 N   0  0  0  0  0  0  0  0  0  0  0  0
   -8.4710   13.9120    5.7440 C   0  0  0  0  0  0  0  0  0  0  0  0
  2  1  1  1
  2  3  1  0
  2  4  1  0
  4  5  2  3
  4  6  1  0
  3  7  1  0
  5  8  1  0
  7  9  2  0
  7 10  1  0
  9 11  1  0
  8 12  1  0
  9 13  1  0
 10 14  2  0
 12 15  1  0
 13 16  2  0
 14 16  1  0
 15 17  1  0
 17 18  2  0
 17 19  1  0
 18 20  1  0
 19 21  2  0
 20 22  2  0
 21 22  1  0
 22 23  1  0
 23 24  1  0
 23 25  1  0
 25 26  2  0
 24 27  2  0
 26 27  1  0
 26 28  1  0
 28 29  1  0
 29 30  1  0
M  END
