x0465_0_A_α-x1012_0_A_α
     RDKit          3D

 22 23  0  0  0  0  0  0  0  0999 V2000
    2.3150   12.9750   -5.0460 C   0  0  0  0  0  0  0  0  0  0  0  0
    0.8630   12.5640   -4.8570 C   0  0  1  0  0  0  0  0  0  0  0  0
    0.6870   11.3020   -5.5150 O   0  0  0  0  0  0  0  0  0  0  0  0
    0.5820   12.4850   -3.3240 C   0  0  0  0  0  0  0  0  0  0  0  0
    1.8010   12.4640   -2.6010 O   0  0  0  0  0  0  0  0  0  0  0  0
   -0.0710   11.2800   -2.9490 O   0  0  0  0  0  0  0  0  0  0  0  0
   -0.5590   10.7560   -5.6440 C   0  0  0  0  0  0  0  0  0  0  0  0
   -0.1380   13.7780   -2.8800 C   0  0  0  0  0  0  0  0  0  0  0  0
   -0.6920    9.7330   -6.5900 C   0  0  0  0  0  0  0  0  0  0  0  0
   -1.6780   11.1430   -4.9080 C   0  0  0  0  0  0  0  0  0  0  0  0
   -1.5870   13.9620   -3.4060 C   0  0  0  0  0  0  0  0  0  0  0  0
    0.7580   15.0160   -3.1870 C   0  0  0  0  0  0  0  0  0  0  0  0
    0.3640    9.3390   -7.3190 F   0  0  0  0  0  0  0  0  0  0  0  0
   -1.9070    9.1010   -6.8000 C   0  0  0  0  0  0  0  0  0  0  0  0
   -2.9050   10.5100   -5.1170 C   0  0  0  0  0  0  0  0  0  0  0  0
   -1.7030   14.6610   -4.7630 C   0  0  0  0  0  0  0  0  0  0  0  0
    0.5800   15.5850   -4.5930 C   0  0  0  0  0  0  0  0  0  0  0  0
   -3.0220    9.4870   -6.0610 C   0  0  0  0  0  0  0  0  0  0  0  0
   -0.8290   15.8300   -4.8790 N   0  0  0  0  0  0  0  0  0  0  0  0
   -1.2750   17.1270   -4.7940 C   0  0  0  0  0  0  0  0  0  0  0  0
   -0.3310   18.0910   -4.7490 N   0  0  0  0  0  0  0  0  0  0  0  0
   -2.4480   17.4560   -4.7480 O   0  0  0  0  0  0  0  0  0  0  0  0
  2  1  1  1
  2  3  1  0
  2  4  1  0
  4  5  1  0
  4  6  1  0
  3  7  1  0
  4  8  1  0
  7  9  2  0
  7 10  1  0
  8 11  1  0
  8 12  1  0
  9 13  1  0
  9 14  1  0
 10 15  2  0
 11 16  1  0
 12 17  1  0
 14 18  2  0
 15 18  1  0
 16 19  1  0
 17 19  1  0
 19 20  1  0
 20 21  1  0
 20 22  2  0
M  END
