x0465_0_A_α-x0662_0_A_β
     RDKit          3D

 21 22  0  0  0  0  0  0  0  0999 V2000
    2.1380   12.7660   -5.3280 C   0  0  0  0  0  0  0  0  0  0  0  0
    0.7410   12.3510   -4.8700 C   0  0  1  0  0  0  0  0  0  0  0  0
   -0.2110   11.6060   -5.9030 C   0  0  2  0  0  0  0  0  0  0  0  0
    0.7470   11.9590   -3.3970 C   0  0  0  0  0  0  0  0  0  0  0  0
    1.0450   12.7150   -2.4790 O   0  0  0  0  0  0  0  0  0  0  0  0
    0.4050   10.6980   -3.1000 O   0  0  0  0  0  0  0  0  0  0  0  0
   -1.0100   12.7340   -6.2980 O   0  0  0  0  0  0  0  0  0  0  0  0
   -1.2450   10.6470   -5.4640 C   0  0  0  0  0  0  0  0  0  0  0  0
   -0.0360   10.9010   -7.2760 C   0  0  0  0  0  0  0  0  0  0  0  0
   -1.0960    9.3350   -5.9350 C   0  0  0  0  0  0  0  0  0  0  0  0
   -2.3390   10.9760   -4.6750 C   0  0  0  0  0  0  0  0  0  0  0  0
    0.9120   11.0240   -8.2560 C   0  0  0  0  0  0  0  0  0  0  0  0
   -1.0700    9.9630   -7.5510 C   0  0  0  0  0  0  0  0  0  0  0  0
   -0.0410    8.9860   -6.7050 F   0  0  0  0  0  0  0  0  0  0  0  0
   -2.0200    8.3660   -5.6440 C   0  0  0  0  0  0  0  0  0  0  0  0
   -3.2760   10.0000   -4.3760 C   0  0  0  0  0  0  0  0  0  0  0  0
    0.8600   10.2790   -9.4590 C   0  0  0  0  0  0  0  0  0  0  0  0
   -1.1380    9.2110   -8.7150 C   0  0  0  0  0  0  0  0  0  0  0  0
    1.8190   10.4360  -10.4550 N   0  0  0  0  0  0  0  0  0  0  0  0
   -3.1200    8.7010   -4.8630 C   0  0  0  0  0  0  0  0  0  0  0  0
   -0.1640    9.3740   -9.6750 C   0  0  0  0  0  0  0  0  0  0  0  0
  2  1  1  6
  2  3  1  0
  2  4  1  0
  4  5  2  0
  4  6  1  0
  3  7  1  6
  3  8  1  0
  3  9  1  0
  8 10  2  0
  8 11  1  0
  9 12  2  0
  9 13  1  0
 10 14  1  0
 10 15  1  0
 11 16  2  0
 12 17  1  0
 13 18  2  0
 17 19  1  0
 15 20  2  0
 16 20  1  0
 17 21  2  0
 18 21  1  0
M  END
