x0465_0_A-x0962_3_A
     RDKit          3D

 19 20  0  0  0  0  0  0  0  0999 V2000
    2.3330   13.1260   -4.7930 C   0  0  0  0  0  0  0  0  0  0  0  0
    0.9320   12.5710   -4.5630 C   0  0  1  0  0  0  0  0  0  0  0  0
    0.4760   11.5590   -5.5670 N   0  0  0  0  0  0  0  0  0  0  0  0
    0.8160   12.1400   -3.0890 C   0  0  0  0  0  0  0  0  0  0  0  0
    1.0730   12.8230   -2.1110 O   0  0  0  0  0  0  0  0  0  0  0  0
    0.3900   10.8720   -2.9100 O   0  0  0  0  0  0  0  0  0  0  0  0
   -0.7660   10.9230   -5.4560 C   0  0  0  0  0  0  0  0  0  0  0  0
    1.2240   11.4260   -6.8180 C   0  0  0  0  0  0  0  0  0  0  0  0
   -1.2690    9.9200   -6.3160 C   0  0  0  0  0  0  0  0  0  0  0  0
   -1.6270   11.2940   -4.4020 C   0  0  0  0  0  0  0  0  0  0  0  0
    0.5660   11.5160   -8.1010 N   0  0  0  0  0  0  0  0  0  0  0  0
   -2.5400    9.3590   -6.0900 C   0  0  0  0  0  0  0  0  0  0  0  0
   -2.8870   10.7200   -4.2010 C   0  0  0  0  0  0  0  0  0  0  0  0
   -0.7560    9.2470   -7.5210 C   0  0  2  0  0  0  0  0  0  0  0  0
   -3.3440    9.7440   -5.0540 C   0  0  0  0  0  0  0  0  0  0  0  0
    0.6100    8.8950   -7.7650 N   0  0  0  0  0  0  0  0  0  0  0  0
   -1.1710    9.6610   -8.8750 C   0  0  0  0  0  0  0  0  0  0  0  0
    0.3110    7.8840   -8.7680 C   0  0  0  0  0  0  0  0  0  0  0  0
   -0.8890    8.3590   -9.4820 N   0  0  0  0  0  0  0  0  0  0  0  0
  2  1  1  6
  2  3  1  0
  2  4  1  0
  4  5  2  0
  4  6  1  0
  3  7  1  0
  3  8  1  0
  7  9  2  0
  7 10  1  0
  8 11  1  0
  9 12  1  0
 10 13  2  0
 14  9  1  1
 12 15  2  0
 13 15  1  0
 14 16  1  0
 14 17  1  0
 16 18  1  0
 17 19  1  0
 18 19  1  0
M  END
