x0465_0_A_α-x0159_0_B_β
     RDKit          3D

 24 26  0  0  0  0  0  0  0  0999 V2000
    1.8600   13.5270   -4.9490 C   0  0  0  0  0  0  0  0  0  0  0  0
    0.7740   12.4920   -4.6910 C   0  0  1  0  0  0  0  0  0  0  0  0
    0.7410   11.4770   -5.7020 O   0  0  0  0  0  0  0  0  0  0  0  0
    0.7380   12.0460   -3.2230 C   0  0  0  0  0  0  0  0  0  0  0  0
    0.9460   12.7490   -2.2450 O   0  0  0  0  0  0  0  0  0  0  0  0
    0.4560   10.7400   -3.0370 O   0  0  0  0  0  0  0  0  0  0  0  0
   -0.3450   10.7110   -6.0310 C   0  0  0  0  0  0  0  0  0  0  0  0
   -0.3530    9.5970   -6.9070 C   0  0  0  0  0  0  0  0  0  0  0  0
   -1.5340   11.1130   -5.4130 C   0  0  0  0  0  0  0  0  0  0  0  0
    0.8470    9.2180   -7.5160 O   0  0  0  0  0  0  0  0  0  0  0  0
   -1.5640    8.9220   -7.1190 C   0  0  0  0  0  0  0  0  0  0  0  0
   -2.7280   10.4330   -5.6370 C   0  0  0  0  0  0  0  0  0  0  0  0
    0.9050    8.5860   -8.8330 C   0  0  0  0  0  0  0  0  0  0  0  0
   -2.7440    9.3360   -6.4870 C   0  0  0  0  0  0  0  0  0  0  0  0
    1.0610    9.6170   -9.8600 N   0  0  0  0  0  0  0  0  0  0  0  0
    1.9330    9.6020  -10.9210 C   0  0  0  0  0  0  0  0  0  0  0  0
    1.8720   10.6900  -11.7540 N   0  0  0  0  0  0  0  0  0  0  0  0
    2.8650    8.7550  -11.3480 N   0  0  0  0  0  0  0  0  0  0  0  0
    2.7980   10.5660  -12.7530 C   0  0  0  0  0  0  0  0  0  0  0  0
    3.4180    9.3460  -12.4870 C   0  0  0  0  0  0  0  0  0  0  0  0
    3.1290   11.4010  -13.8230 C   0  0  0  0  0  0  0  0  0  0  0  0
    4.4480    8.9240  -13.3520 C   0  0  0  0  0  0  0  0  0  0  0  0
    4.1530   10.9630  -14.6660 C   0  0  0  0  0  0  0  0  0  0  0  0
    4.8050    9.7470  -14.4380 C   0  0  0  0  0  0  0  0  0  0  0  0
  2  1  1  1
  2  3  1  0
  2  4  1  0
  4  5  2  0
  4  6  1  0
  3  7  1  0
  7  8  2  0
  7  9  1  0
  8 10  1  0
  8 11  1  0
  9 12  2  0
 10 13  1  0
 11 14  2  0
 12 14  1  0
 13 15  1  0
 15 16  1  0
 16 17  1  0
 16 18  2  0
 17 19  1  0
 18 20  1  0
 19 20  2  0
 19 21  1  0
 20 22  1  0
 21 23  2  0
 22 24  2  0
 23 24  1  0
M  END
