x0465_0_A-x0711_0_A
     RDKit          3D

 26 27  0  0  0  0  0  0  0  0999 V2000
    2.3680   12.9390   -4.8820 C   0  0  0  0  0  0  0  0  0  0  0  0
    0.9280   12.5040   -4.8300 C   0  0  1  0  0  0  0  0  0  0  0  0
    0.6700   11.3730   -5.5680 O   0  0  0  0  0  0  0  0  0  0  0  0
    0.4890   12.3350   -3.4150 C   0  0  0  0  0  0  0  0  0  0  0  0
   -0.2210   13.2220   -3.0160 N   0  0  0  0  0  0  0  0  0  0  0  0
    0.8740   11.2420   -2.6940 O   0  0  0  0  0  0  0  0  0  0  0  0
   -0.5430   10.7170   -5.6880 C   0  0  0  0  0  0  0  0  0  0  0  0
   -0.8270   14.4250   -3.4820 S   0  0  0  0  0  0  0  0  0  0  0  0
   -0.6850    9.7100   -6.6390 C   0  0  0  0  0  0  0  0  0  0  0  0
   -1.6450   10.9920   -4.9170 C   0  0  0  0  0  0  0  0  0  0  0  0
    0.4120    9.4290   -7.4110 F   0  0  0  0  0  0  0  0  0  0  0  0
   -1.2270   14.7930   -1.7370 N   0  0  0  0  0  0  0  0  0  0  0  0
   -2.1170   13.7670   -4.2790 C   0  0  0  0  0  0  0  0  0  0  0  0
    0.4450   15.0760   -4.0300 O   0  0  0  0  0  0  0  0  0  0  0  0
   -1.8370    8.9990   -6.8370 C   0  0  0  0  0  0  0  0  0  0  0  0
   -2.8450   10.2910   -5.0870 C   0  0  0  0  0  0  0  0  0  0  0  0
   -2.9350    9.2990   -6.0450 C   0  0  0  0  0  0  0  0  0  0  0  0
   -2.5740   14.7910   -1.3530 C   0  0  0  0  0  0  0  0  0  0  0  0
   -3.6800   15.1020   -2.1350 C   0  0  0  0  0  0  0  0  0  0  0  0
   -2.8400   14.4480   -0.0500 C   0  0  0  0  0  0  0  0  0  0  0  0
   -4.9830   15.0690   -1.6230 C   0  0  0  0  0  0  0  0  0  0  0  0
   -4.1060   14.4150    0.4490 C   0  0  0  0  0  0  0  0  0  0  0  0
   -5.2120   14.7190   -0.3010 C   0  0  0  0  0  0  0  0  0  0  0  0
   -6.5380   14.6540    0.3370 C   0  0  0  0  0  0  0  0  0  0  0  0
   -6.6790   14.6000    1.7510 N   0  0  0  0  0  0  0  0  0  0  0  0
   -7.5560   14.6440   -0.3740 O   0  0  0  0  0  0  0  0  0  0  0  0
  2  1  1  1
  2  3  1  0
  2  4  1  0
  4  5  2  3
  4  6  1  0
  3  7  1  0
  5  8  1  0
  7  9  2  0
  7 10  1  0
  9 11  1  0
  8 12  1  0
  8 13  1  0
  8 14  2  0
  9 15  1  0
 10 16  2  0
 15 17  2  0
 16 17  1  0
 12 18  1  0
 18 19  2  0
 18 20  1  0
 19 21  1  0
 20 22  2  0
 21 23  2  0
 22 23  1  0
 23 24  1  0
 24 25  1  0
 24 26  2  0
M  END
