x0465_0_A-x0905_0_A
     RDKit          3D

 23 24  0  0  0  0  0  0  0  0999 V2000
    2.0140   13.0750   -4.2290 C   0  0  0  0  0  0  0  0  0  0  0  0
    0.6310   12.4000   -4.1250 C   0  0  1  0  0  0  0  0  0  0  0  0
    0.5590   11.5230   -5.2800 O   0  0  0  0  0  0  0  0  0  0  0  0
    0.4840   11.6630   -2.7580 C   0  0  0  0  0  0  0  0  0  0  0  0
    0.3090   12.1870   -1.5840 N   0  0  0  0  0  0  0  0  0  0  0  0
    0.5190   10.3120   -2.7910 O   0  0  0  0  0  0  0  0  0  0  0  0
   -0.6240   10.8580   -5.5020 C   0  0  0  0  0  0  0  0  0  0  0  0
    0.1850   13.5880   -1.2280 C   0  0  0  0  0  0  0  0  0  0  0  0
   -0.6620    9.8840   -6.5170 C   0  0  0  0  0  0  0  0  0  0  0  0
   -1.7770   11.1070   -4.7680 C   0  0  0  0  0  0  0  0  0  0  0  0
    0.4240    9.6140   -7.2530 F   0  0  0  0  0  0  0  0  0  0  0  0
   -0.6390   13.6130    0.0710 C   0  0  0  0  0  0  0  0  0  0  0  0
   -1.8260    9.1740   -6.7860 C   0  0  0  0  0  0  0  0  0  0  0  0
   -2.9450   10.3940   -5.0400 C   0  0  0  0  0  0  0  0  0  0  0  0
   -1.3450   14.9070    0.4010 C   0  0  0  0  0  0  0  0  0  0  0  0
   -2.9730    9.4290   -6.0440 C   0  0  0  0  0  0  0  0  0  0  0  0
   -2.8280   14.9900    0.0240 C   0  0  0  0  0  0  0  0  0  0  0  0
   -3.8170   14.9180    1.0030 C   0  0  0  0  0  0  0  0  0  0  0  0
   -3.2750   15.1380   -1.3030 C   0  0  0  0  0  0  0  0  0  0  0  0
   -5.1520   14.9740    0.7650 N   0  0  0  0  0  0  0  0  0  0  0  0
   -4.6420   15.2030   -1.5830 C   0  0  0  0  0  0  0  0  0  0  0  0
   -5.5100   15.1140   -0.5200 C   0  0  0  0  0  0  0  0  0  0  0  0
   -6.8500   15.1600   -0.7170 O   0  0  0  0  0  0  0  0  0  0  0  0
  2  1  1  1
  2  3  1  0
  2  4  1  0
  4  5  2  3
  4  6  1  0
  3  7  1  0
  5  8  1  0
  7  9  2  0
  7 10  1  0
  9 11  1  0
  8 12  1  0
  9 13  1  0
 10 14  2  0
 12 15  1  0
 13 16  2  0
 14 16  1  0
 15 17  1  0
 17 18  2  0
 17 19  1  0
 18 20  1  0
 19 21  2  0
 20 22  2  0
 21 22  1  0
 22 23  1  0
M  END
