x0465_0_A-x0685_1_A
     RDKit          3D

 15 15  0  0  0  0  0  0  0  0999 V2000
    1.5890   13.6150   -5.1120 C   0  0  0  0  0  0  0  0  0  0  0  0
    0.5820   12.5540   -4.6290 C   0  0  0  0  0  0  0  0  0  0  0  0
    0.5520   11.3310   -5.4200 O   0  0  0  0  0  0  0  0  0  0  0  0
    0.9740   12.1650   -3.1620 C   0  0  0  0  0  0  0  0  0  0  0  0
   -0.8460   13.1410   -4.6980 C   0  0  0  0  0  0  0  0  0  0  0  0
    0.4430   13.0340   -2.1950 O   0  0  0  0  0  0  0  0  0  0  0  0
    0.5500   10.8720   -2.8080 O   0  0  0  0  0  0  0  0  0  0  0  0
    2.3600   12.2470   -3.0140 O   0  0  0  0  0  0  0  0  0  0  0  0
   -0.6170   10.6590   -5.6180 C   0  0  0  0  0  0  0  0  0  0  0  0
   -0.7010    9.7110   -6.6360 C   0  0  0  0  0  0  0  0  0  0  0  0
   -1.7260   10.9070   -4.8130 C   0  0  0  0  0  0  0  0  0  0  0  0
    0.3570    9.4600   -7.4210 F   0  0  0  0  0  0  0  0  0  0  0  0
   -1.8780    9.0120   -6.8580 C   0  0  0  0  0  0  0  0  0  0  0  0
   -2.9140   10.2090   -5.0330 C   0  0  0  0  0  0  0  0  0  0  0  0
   -2.9890    9.2630   -6.0540 C   0  0  0  0  0  0  0  0  0  0  0  0
  1  2  1  0
  2  3  1  0
  2  4  1  0
  2  5  1  0
  4  6  1  0
  4  7  1  0
  4  8  1  0
  3  9  1  0
  9 10  2  0
  9 11  1  0
 10 12  1  0
 10 13  1  0
 11 14  2  0
 13 15  2  0
 14 15  1  0
M  END
