x0465_0_A_α-x0662_0_A_α
     RDKit          3D

 24 25  0  0  0  0  0  0  0  0999 V2000
    2.0130   13.2420   -4.9440 C   0  0  0  0  0  0  0  0  0  0  0  0
    0.6980   12.5420   -4.6340 C   0  0  1  0  0  0  0  0  0  0  0  0
    0.6210   11.4140   -5.5230 O   0  0  0  0  0  0  0  0  0  0  0  0
    0.7340   12.0980   -3.1620 C   0  0  0  0  0  0  0  0  0  0  0  0
    1.0170   12.8410   -2.2330 O   0  0  0  0  0  0  0  0  0  0  0  0
    0.4290   10.7970   -2.9500 O   0  0  0  0  0  0  0  0  0  0  0  0
   -0.6020   10.8010   -5.6270 C   0  0  0  0  0  0  0  0  0  0  0  0
   -0.7020    9.6840   -6.4660 C   0  0  0  0  0  0  0  0  0  0  0  0
   -1.7260   11.2460   -4.9350 C   0  0  0  0  0  0  0  0  0  0  0  0
    0.4080    9.2540   -7.1430 O   0  0  0  0  0  0  0  0  0  0  0  0
   -1.9090    9.0100   -6.6160 C   0  0  0  0  0  0  0  0  0  0  0  0
   -2.9410   10.5700   -5.0860 C   0  0  0  0  0  0  0  0  0  0  0  0
    0.0440    8.4200   -8.2510 C   0  0  0  0  0  0  0  0  0  0  0  0
   -3.0330    9.4550   -5.9240 C   0  0  0  0  0  0  0  0  0  0  0  0
    0.8670    8.8610   -9.4520 C   0  0  0  0  0  0  0  0  0  0  0  0
    1.8580    7.7890   -9.8920 C   0  0  0  0  0  0  0  0  0  0  0  0
    2.6140    8.2810  -11.0470 N   0  0  0  0  0  0  0  0  0  0  0  0
    2.2490    9.4250  -11.5220 C   0  0  0  0  0  0  0  0  0  0  0  0
    2.9670    9.9630  -12.6580 C   0  0  0  0  0  0  0  0  0  0  0  0
    3.9150    9.2260  -13.2530 N   0  0  0  0  0  0  0  0  0  0  0  0
    2.8230   11.2300  -13.2820 C   0  0  0  0  0  0  0  0  0  0  0  0
    4.3670   10.0170  -14.2400 N   0  0  0  0  0  0  0  0  0  0  0  0
    3.7460   11.2310  -14.3020 C   0  0  0  0  0  0  0  0  0  0  0  0
    5.4210    9.5300  -15.0970 C   0  0  0  0  0  0  0  0  0  0  0  0
  2  1  1  6
  2  3  1  0
  2  4  1  0
  4  5  2  0
  4  6  1  0
  3  7  1  0
  7  8  2  0
  7  9  1  0
  8 10  1  0
  8 11  1  0
  9 12  2  0
 10 13  1  0
 11 14  2  0
 12 14  1  0
 13 15  1  0
 15 16  1  0
 16 17  1  0
 17 18  2  3
 18 19  1  0
 19 20  2  0
 19 21  1  0
 20 22  1  0
 21 23  2  0
 22 23  1  0
 22 24  1  0
M  END
