x0465_0_A-x0471_0_A
     RDKit          3D

 32 34  0  0  0  0  0  0  0  0999 V2000
    2.0220   13.3620   -4.4260 C   0  0  0  0  0  0  0  0  0  0  0  0
    0.6340   12.7480   -4.2240 C   0  0  1  0  0  0  0  0  0  0  0  0
    0.4020   11.8490   -5.3360 O   0  0  0  0  0  0  0  0  0  0  0  0
    0.6190   11.9440   -2.8990 C   0  0  0  0  0  0  0  0  0  0  0  0
    0.3680   12.3830   -1.6920 N   0  0  0  0  0  0  0  0  0  0  0  0
    0.8930   10.6450   -3.0430 O   0  0  0  0  0  0  0  0  0  0  0  0
   -0.7870   11.1780   -5.5050 C   0  0  0  0  0  0  0  0  0  0  0  0
    0.0370   13.7680   -1.3430 C   0  0  0  0  0  0  0  0  0  0  0  0
   -0.9460   10.5070   -6.7340 C   0  0  0  0  0  0  0  0  0  0  0  0
   -1.8250   11.0970   -4.5820 C   0  0  0  0  0  0  0  0  0  0  0  0
    0.0280   10.5530   -7.6590 F   0  0  0  0  0  0  0  0  0  0  0  0
   -0.6970   13.6330    0.0020 C   0  0  0  0  0  0  0  0  0  0  0  0
   -2.0890    9.7730   -7.0310 C   0  0  0  0  0  0  0  0  0  0  0  0
   -2.9800   10.3620   -4.8790 C   0  0  0  0  0  0  0  0  0  0  0  0
   -1.4330   14.8480    0.5550 C   0  0  0  0  0  0  0  0  0  0  0  0
   -3.1120    9.6980   -6.0990 C   0  0  0  0  0  0  0  0  0  0  0  0
   -2.9180   14.9210    0.1610 C   0  0  0  0  0  0  0  0  0  0  0  0
   -3.3740   15.2350   -1.1470 C   0  0  0  0  0  0  0  0  0  0  0  0
   -3.8700   14.6530    1.1530 C   0  0  0  0  0  0  0  0  0  0  0  0
   -5.2370   14.6870    0.8390 C   0  0  0  0  0  0  0  0  0  0  0  0
   -4.7460   15.2790   -1.4760 C   0  0  0  0  0  0  0  0  0  0  0  0
   -6.3140   14.4470    1.6500 N   0  0  0  0  0  0  0  0  0  0  0  0
   -5.6470   14.9920   -0.4510 C   0  0  0  0  0  0  0  0  0  0  0  0
   -7.0270   14.9240   -0.3860 N   0  0  0  0  0  0  0  0  0  0  0  0
   -7.3810   14.5880    0.9070 C   0  0  0  0  0  0  0  0  0  0  0  0
   -8.7930   14.4200    1.3590 C   0  0  0  0  0  0  0  0  0  0  0  0
   -8.7910   14.1880    2.7980 N   0  0  0  0  0  0  0  0  0  0  0  0
   -9.1870   15.1990    3.6530 C   0  0  0  0  0  0  0  0  0  0  0  0
   -9.4980   16.3050    3.2280 O   0  0  0  0  0  0  0  0  0  0  0  0
   -9.2450   14.8430    5.1420 C   0  0  0  0  0  0  0  0  0  0  0  0
   -9.5930   13.3740    5.3690 C   0  0  0  0  0  0  0  0  0  0  0  0
   -7.9470   15.2290    5.8450 C   0  0  0  0  0  0  0  0  0  0  0  0
  2  1  1  6
  2  3  1  0
  2  4  1  0
  4  5  2  3
  4  6  1  0
  3  7  1  0
  5  8  1  0
  7  9  2  0
  7 10  1  0
  9 11  1  0
  8 12  1  0
  9 13  1  0
 10 14  2  0
 12 15  1  0
 13 16  2  0
 14 16  1  0
 15 17  1  0
 17 18  2  0
 17 19  1  0
 19 20  2  0
 18 21  1  0
 20 22  1  0
 20 23  1  0
 21 23  2  0
 23 24  1  0
 22 25  2  0
 24 25  1  0
 25 26  1  0
 26 27  1  0
 27 28  1  0
 28 29  2  0
 28 30  1  0
 30 31  1  0
 30 32  1  0
M  END
