x0465_0_A-x0371_0_A
     RDKit          3D

 34 37  0  0  0  0  0  0  0  0999 V2000
    2.0310   13.0490   -4.3420 C   0  0  0  0  0  0  0  0  0  0  0  0
    0.6680   12.3470   -4.2380 C   0  0  1  0  0  0  0  0  0  0  0  0
    0.6220   11.4770   -5.3830 O   0  0  0  0  0  0  0  0  0  0  0  0
    0.5360   11.6490   -2.8510 C   0  0  0  0  0  0  0  0  0  0  0  0
    0.4710   12.0930   -1.6510 N   0  0  0  0  0  0  0  0  0  0  0  0
    0.4530   10.3030   -2.8440 O   0  0  0  0  0  0  0  0  0  0  0  0
   -0.5420   10.7880   -5.6180 C   0  0  0  0  0  0  0  0  0  0  0  0
    0.5040   13.4670   -1.2520 C   0  0  0  0  0  0  0  0  0  0  0  0
   -0.6610    9.7650   -6.5670 C   0  0  0  0  0  0  0  0  0  0  0  0
   -1.6580   11.1400   -4.8570 C   0  0  0  0  0  0  0  0  0  0  0  0
    0.3800    9.3920   -7.3270 F   0  0  0  0  0  0  0  0  0  0  0  0
   -0.5170   13.6470   -0.1380 C   0  0  0  0  0  0  0  0  0  0  0  0
   -1.8680    9.1020   -6.7530 C   0  0  0  0  0  0  0  0  0  0  0  0
   -2.8740   10.4760   -5.0440 C   0  0  0  0  0  0  0  0  0  0  0  0
   -1.2080   14.9710   -0.2400 C   0  0  0  0  0  0  0  0  0  0  0  0
   -2.9780    9.4570   -5.9900 C   0  0  0  0  0  0  0  0  0  0  0  0
   -2.7280   14.9570   -0.3960 C   0  0  0  0  0  0  0  0  0  0  0  0
   -3.5120   14.7090    0.7290 C   0  0  0  0  0  0  0  0  0  0  0  0
   -3.3490   15.1910   -1.6480 C   0  0  0  0  0  0  0  0  0  0  0  0
   -4.8880   14.6950    0.5530 C   0  0  0  0  0  0  0  0  0  0  0  0
   -4.7500   15.1770   -1.7880 C   0  0  0  0  0  0  0  0  0  0  0  0
   -5.8850   14.4770    1.4410 N   0  0  0  0  0  0  0  0  0  0  0  0
   -5.5280   14.9170   -0.6540 C   0  0  0  0  0  0  0  0  0  0  0  0
   -7.0840   14.5590    0.7780 C   0  0  0  0  0  0  0  0  0  0  0  0
   -6.8960   14.8330   -0.5010 N   0  0  0  0  0  0  0  0  0  0  0  0
   -8.3780   14.3530    1.4830 C   0  0  0  0  0  0  0  0  0  0  0  0
   -8.1690   14.5360    2.9020 N   0  0  0  0  0  0  0  0  0  0  0  0
   -8.8370   15.5390    3.5760 C   0  0  0  0  0  0  0  0  0  0  0  0
   -9.5160   16.3630    2.9660 O   0  0  0  0  0  0  0  0  0  0  0  0
   -8.6810   15.5320    5.0120 C   0  0  0  0  0  0  0  0  0  0  0  0
   -8.0650   14.4520    5.5810 O   0  0  0  0  0  0  0  0  0  0  0  0
   -9.0340   16.4230    6.0060 C   0  0  0  0  0  0  0  0  0  0  0  0
   -8.6110   15.8540    7.2340 C   0  0  0  0  0  0  0  0  0  0  0  0
   -8.0250   14.6550    6.9190 C   0  0  0  0  0  0  0  0  0  0  0  0
  2  1  1  1
  2  3  1  0
  2  4  1  0
  4  5  2  3
  4  6  1  0
  3  7  1  0
  5  8  1  0
  7  9  2  0
  7 10  1  0
  9 11  1  0
  8 12  1  0
  9 13  1  0
 10 14  2  0
 12 15  1  0
 13 16  2  0
 14 16  1  0
 15 17  1  0
 17 18  2  0
 17 19  1  0
 18 20  1  0
 19 21  2  0
 20 22  1  0
 20 23  2  0
 21 23  1  0
 22 24  1  0
 23 25  1  0
 24 25  2  0
 24 26  1  0
 26 27  1  0
 27 28  1  0
 28 29  2  0
 28 30  1  0
 30 31  1  0
 30 32  2  0
 32 33  1  0
 31 34  1  0
 33 34  2  0
M  END
