x0465_0_A-x0933_0_A
     RDKit          3D

 23 24  0  0  0  0  0  0  0  0999 V2000
    2.0420   13.1300   -4.3180 C   0  0  0  0  0  0  0  0  0  0  0  0
    0.6880   12.4180   -4.1980 C   0  0  1  0  0  0  0  0  0  0  0  0
    0.6120   11.4540   -5.2530 O   0  0  0  0  0  0  0  0  0  0  0  0
    0.5870   11.7390   -2.7940 C   0  0  0  0  0  0  0  0  0  0  0  0
    0.6160   12.3680   -1.6680 N   0  0  0  0  0  0  0  0  0  0  0  0
    0.4500   10.3860   -2.7620 O   0  0  0  0  0  0  0  0  0  0  0  0
   -0.5250   10.7600   -5.5710 C   0  0  0  0  0  0  0  0  0  0  0  0
    0.7450   13.8110   -1.5750 C   0  0  0  0  0  0  0  0  0  0  0  0
   -0.6580    9.7610   -6.5460 C   0  0  0  0  0  0  0  0  0  0  0  0
   -1.6520   11.1090   -4.8220 C   0  0  0  0  0  0  0  0  0  0  0  0
    0.3700    9.3680   -7.3100 F   0  0  0  0  0  0  0  0  0  0  0  0
   -0.2970   14.3180   -0.5880 C   0  0  0  0  0  0  0  0  0  0  0  0
   -1.8780    9.1270   -6.7640 C   0  0  0  0  0  0  0  0  0  0  0  0
   -2.8810   10.4750   -5.0400 C   0  0  0  0  0  0  0  0  0  0  0  0
   -1.7420   13.8280   -0.8090 C   0  0  0  0  0  0  0  0  0  0  0  0
   -2.9930    9.4830   -6.0110 C   0  0  0  0  0  0  0  0  0  0  0  0
   -2.9090   14.8200   -0.6830 C   0  0  1  0  0  0  0  0  0  0  0  0
   -4.2680   14.3840   -1.2650 C   0  0  0  0  0  0  0  0  0  0  0  0
   -3.0310   15.4220    0.7320 C   0  0  0  0  0  0  0  0  0  0  0  0
   -5.2610   14.0260   -0.2490 N   0  0  0  0  0  0  0  0  0  0  0  0
   -4.0770   14.8440    1.5320 N   0  0  0  0  0  0  0  0  0  0  0  0
   -5.2740   14.9450    0.8120 C   0  0  2  0  0  0  0  0  0  0  0  0
   -6.2760   14.4950    1.7110 N   0  0  0  0  0  0  0  0  0  0  0  0
  2  1  1  1
  2  3  1  0
  2  4  1  0
  4  5  2  3
  4  6  1  0
  3  7  1  0
  5  8  1  0
  7  9  2  0
  7 10  1  0
  9 11  1  0
  8 12  1  0
  9 13  1  0
 10 14  2  0
 12 15  1  0
 13 16  2  0
 14 16  1  0
 17 15  1  1
 17 18  1  0
 17 19  1  0
 18 20  1  0
 19 21  1  0
 20 22  1  0
 21 22  1  0
 22 23  1  1
M  END
