x0469_0_B_α-x0548_0_B_α
     RDKit          3D

 19 20  0  0  0  0  0  0  0  0999 V2000
   -4.7660   40.1360    6.6600 N   0  0  0  0  0  0  0  0  0  0  0  0
   -6.1960   39.9050    6.8620 C   0  0  2  0  0  0  0  0  0  0  0  0
   -6.5570   40.3520    8.2710 C   0  0  0  0  0  0  0  0  0  0  0  0
   -6.5970   38.4680    6.4890 C   0  0  1  0  0  0  0  0  0  0  0  0
   -6.4500   37.3150    7.5370 C   0  0  0  0  0  0  0  0  0  0  0  0
   -7.8490   38.4220    5.5870 C   0  0  1  0  0  0  0  0  0  0  0  0
   -7.3020   38.2520    4.2340 C   0  0  0  0  0  0  0  0  0  0  0  0
   -9.0440   37.5380    6.0100 C   0  0  2  0  0  0  0  0  0  0  0  0
   -7.7320   36.5580    7.9220 C   0  0  2  0  0  0  0  0  0  0  0  0
   -8.7120   39.6430    5.2810 C   0  0  0  0  0  0  0  0  0  0  0  0
   -9.9000   38.3090    6.8740 O   0  0  0  0  0  0  0  0  0  0  0  0
   -7.3670   35.3240    8.5830 O   0  0  0  0  0  0  0  0  0  0  0  0
   -8.6590   36.2430    6.7170 C   0  0  1  0  0  0  0  0  0  0  0  0
   -9.7400   39.0390    4.3810 N   0  0  0  0  0  0  0  0  0  0  0  0
   -9.8020   37.5900    4.7160 C   0  0  0  0  0  0  0  0  0  0  0  0
  -11.0750   38.8550    6.2700 C   0  0  0  0  0  0  0  0  0  0  0  0
   -9.7930   35.4870    7.1580 O   0  0  0  0  0  0  0  0  0  0  0  0
   -5.9970   34.9600    8.4750 C   0  0  0  0  0  0  0  0  0  0  0  0
  -10.0890   34.4260    6.2540 C   0  0  0  0  0  0  0  0  0  0  0  0
  1  2  1  0
  2  3  1  1
  2  4  1  0
  4  5  1  1
  4  6  1  0
  6  7  1  6
  6  8  1  0
  5  9  1  0
  6 10  1  0
  8 11  1  1
  9 12  1  6
  8 13  1  0
  9 13  1  0
 10 14  1  0
  8 15  1  0
 14 15  1  0
 11 16  1  0
 13 17  1  1
 12 18  1  0
 17 19  1  0
M  END
