x0465_0_A-x0742_0_A
     RDKit          3D

 30 33  0  0  0  0  0  0  0  0999 V2000
    1.8170   13.3380   -5.2680 C   0  0  0  0  0  0  0  0  0  0  0  0
    0.5700   12.5890   -4.8470 C   0  0  1  0  0  0  0  0  0  0  0  0
    0.6170   11.3660   -5.5630 O   0  0  0  0  0  0  0  0  0  0  0  0
    0.6650   12.4930   -3.3350 C   0  0  0  0  0  0  0  0  0  0  0  0
    0.7590   13.5530   -2.6220 N   0  0  0  0  0  0  0  0  0  0  0  0
    0.6480   11.2200   -2.8660 O   0  0  0  0  0  0  0  0  0  0  0  0
   -0.5620   10.7030   -5.7390 C   0  0  0  0  0  0  0  0  0  0  0  0
    0.8700   13.4500   -1.2030 C   0  0  0  0  0  0  0  0  0  0  0  0
   -0.7050    9.6460   -6.6360 C   0  0  0  0  0  0  0  0  0  0  0  0
   -1.6570   11.1120   -4.9800 C   0  0  0  0  0  0  0  0  0  0  0  0
    0.3290    9.2300   -7.3820 F   0  0  0  0  0  0  0  0  0  0  0  0
   -1.9240    8.9960   -6.7780 C   0  0  0  0  0  0  0  0  0  0  0  0
   -2.8860   10.4640   -5.1190 C   0  0  0  0  0  0  0  0  0  0  0  0
   -0.3510   13.8290   -0.4450 C   0  0  0  0  0  0  0  0  0  0  0  0
   -3.0190    9.4030   -6.0200 C   0  0  0  0  0  0  0  0  0  0  0  0
   -0.3500   14.1340    0.9260 C   0  0  0  0  0  0  0  0  0  0  0  0
   -1.5600   13.8720   -1.1000 C   0  0  0  0  0  0  0  0  0  0  0  0
   -1.4350   14.4580    1.6420 N   0  0  0  0  0  0  0  0  0  0  0  0
   -2.6980   14.1990   -0.3990 C   0  0  0  0  0  0  0  0  0  0  0  0
   -4.0400   14.2490   -1.0640 C   0  0  1  0  0  0  0  0  0  0  0  0
   -2.5840   14.4810    0.9560 C   0  0  0  0  0  0  0  0  0  0  0  0
   -5.1870   13.7000   -0.1800 C   0  0  1  0  0  0  0  0  0  0  0  0
   -4.4450   15.6820   -1.3510 C   0  0  0  0  0  0  0  0  0  0  0  0
   -3.8260   14.8270    1.6830 C   0  0  0  0  0  0  0  0  0  0  0  0
   -5.5280   12.2510   -0.5210 C   0  0  0  0  0  0  0  0  0  0  0  0
   -4.8960   13.7960    1.3380 C   0  0  0  0  0  0  0  0  0  0  0  0
   -6.4190   14.5690   -0.5490 C   0  0  0  0  0  0  0  0  0  0  0  0
   -5.9520   15.6520   -1.4990 C   0  0  0  0  0  0  0  0  0  0  0  0
   -4.9860   11.6460   -1.4510 O   0  0  0  0  0  0  0  0  0  0  0  0
   -6.5790   11.5830    0.3240 C   0  0  0  0  0  0  0  0  0  0  0  0
  2  1  1  6
  2  3  1  0
  2  4  1  0
  4  5  2  3
  4  6  1  0
  3  7  1  0
  5  8  1  0
  7  9  2  0
  7 10  1  0
  9 11  1  0
  9 12  1  0
 10 13  2  0
  8 14  1  0
 12 15  2  0
 13 15  1  0
 14 16  2  0
 14 17  1  0
 16 18  1  0
 17 19  2  0
 19 20  1  0
 18 21  2  0
 19 21  1  0
 20 22  1  0
 20 23  1  1
 21 24  1  0
 22 25  1  6
 22 26  1  0
 24 26  1  0
 22 27  1  0
 23 28  1  0
 27 28  1  0
 25 29  2  0
 25 30  1  0
M  END
