x0465_0_A-x0592_0_A
     RDKit          3D

 27 28  0  0  0  0  0  0  0  0999 V2000
    2.1070   13.2240   -4.7020 C   0  0  0  0  0  0  0  0  0  0  0  0
    0.7620   12.5430   -4.4950 C   0  0  1  0  0  0  0  0  0  0  0  0
    0.6620   11.4770   -5.4490 O   0  0  0  0  0  0  0  0  0  0  0  0
    0.6910   11.9390   -3.0800 C   0  0  0  0  0  0  0  0  0  0  0  0
    0.9110   12.6010   -1.9910 N   0  0  0  0  0  0  0  0  0  0  0  0
    0.3640   10.6240   -3.0730 O   0  0  0  0  0  0  0  0  0  0  0  0
   -0.5010   10.7830   -5.6740 C   0  0  0  0  0  0  0  0  0  0  0  0
    1.2680   14.0070   -1.9550 C   0  0  0  0  0  0  0  0  0  0  0  0
   -0.6590    9.7340   -6.5880 C   0  0  0  0  0  0  0  0  0  0  0  0
   -1.6100   11.1740   -4.9140 C   0  0  0  0  0  0  0  0  0  0  0  0
    0.3570    9.3080   -7.3540 F   0  0  0  0  0  0  0  0  0  0  0  0
   -0.0100   14.8430   -1.8380 C   0  0  0  0  0  0  0  0  0  0  0  0
   -1.8840    9.0840   -6.7430 C   0  0  0  0  0  0  0  0  0  0  0  0
   -2.8440   10.5240   -5.0670 C   0  0  0  0  0  0  0  0  0  0  0  0
   -0.8270   14.5580   -0.5700 C   0  0  0  0  0  0  0  0  0  0  0  0
   -2.9810    9.4790   -5.9800 C   0  0  0  0  0  0  0  0  0  0  0  0
   -2.2710   14.6530   -0.8430 N   0  0  0  0  0  0  0  0  0  0  0  0
   -3.1790   14.7120    0.0770 C   0  0  0  0  0  0  0  0  0  0  0  0
   -2.8160   14.6890    1.3940 N   0  0  0  0  0  0  0  0  0  0  0  0
   -4.6160   14.7950   -0.1030 C   0  0  0  0  0  0  0  0  0  0  0  0
   -5.3530   15.1890   -1.2560 C   0  0  0  0  0  0  0  0  0  0  0  0
   -5.5930   14.5040    0.8150 C   0  0  0  0  0  0  0  0  0  0  0  0
   -6.6800   15.1420   -1.0640 N   0  0  0  0  0  0  0  0  0  0  0  0
   -6.7950   14.7220    0.2110 N   0  0  0  0  0  0  0  0  0  0  0  0
   -8.0930   14.5360    0.8370 C   0  0  0  0  0  0  0  0  0  0  0  0
   -7.9500   14.0970    2.2940 C   0  0  0  0  0  0  0  0  0  0  0  0
   -7.1860   15.0430    3.0400 O   0  0  0  0  0  0  0  0  0  0  0  0
  2  1  1  1
  2  3  1  0
  2  4  1  0
  4  5  2  3
  4  6  1  0
  3  7  1  0
  5  8  1  0
  7  9  2  0
  7 10  1  0
  9 11  1  0
  8 12  1  0
  9 13  1  0
 10 14  2  0
 12 15  1  0
 13 16  2  0
 14 16  1  0
 15 17  1  0
 17 18  2  3
 18 19  1  0
 18 20  1  0
 20 21  1  0
 20 22  2  0
 21 23  2  0
 22 24  1  0
 23 24  1  0
 24 25  1  0
 25 26  1  0
 26 27  1  0
M  END
