x0465_0_A-x0967_0_A
     RDKit          3D

 26 28  0  0  0  0  0  0  0  0999 V2000
    2.1460   13.1730   -4.7220 C   0  0  0  0  0  0  0  0  0  0  0  0
    0.7370   12.6250   -4.5030 C   0  0  1  0  0  0  0  0  0  0  0  0
    0.5990   11.5260   -5.4260 O   0  0  0  0  0  0  0  0  0  0  0  0
    0.6180   12.1620   -3.0390 C   0  0  0  0  0  0  0  0  0  0  0  0
    0.5840   12.8470   -1.9370 N   0  0  0  0  0  0  0  0  0  0  0  0
    0.5330   10.8190   -2.8990 O   0  0  0  0  0  0  0  0  0  0  0  0
   -0.6060   10.8830   -5.5690 C   0  0  0  0  0  0  0  0  0  0  0  0
    0.6530   14.3150   -1.8950 C   0  0  0  0  0  0  0  0  0  0  0  0
   -0.6650    9.8700   -6.5490 C   0  0  0  0  0  0  0  0  0  0  0  0
   -1.7590   11.1450   -4.8300 C   0  0  0  0  0  0  0  0  0  0  0  0
    0.4110    9.5740   -7.2910 F   0  0  0  0  0  0  0  0  0  0  0  0
   -0.7660   14.9270   -1.9200 C   0  0  0  0  0  0  0  0  0  0  0  0
   -1.8300    9.1460   -6.7770 C   0  0  0  0  0  0  0  0  0  0  0  0
   -2.9320   10.4170   -5.0590 C   0  0  0  0  0  0  0  0  0  0  0  0
   -1.3850   15.3310   -0.5580 C   0  0  0  0  0  0  0  0  0  0  0  0
   -2.9700    9.4180   -6.0310 C   0  0  0  0  0  0  0  0  0  0  0  0
   -2.8930   15.1630   -0.5160 C   0  0  0  0  0  0  0  0  0  0  0  0
   -3.6200   15.1170   -1.6970 C   0  0  0  0  0  0  0  0  0  0  0  0
   -3.6270   15.0450    0.6690 C   0  0  0  0  0  0  0  0  0  0  0  0
   -5.0260   14.8790    0.6030 C   0  0  0  0  0  0  0  0  0  0  0  0
   -4.9600   14.9620   -1.7750 N   0  0  0  0  0  0  0  0  0  0  0  0
   -5.6630   14.8400   -0.6520 C   0  0  0  0  0  0  0  0  0  0  0  0
   -5.8120   14.7480    1.7510 C   0  0  0  0  0  0  0  0  0  0  0  0
   -6.9880   14.6780   -0.7520 N   0  0  0  0  0  0  0  0  0  0  0  0
   -7.1840   14.5790    1.6430 C   0  0  0  0  0  0  0  0  0  0  0  0
   -7.7220   14.5510    0.3740 C   0  0  0  0  0  0  0  0  0  0  0  0
  2  1  1  1
  2  3  1  0
  2  4  1  0
  4  5  2  3
  4  6  1  0
  3  7  1  0
  5  8  1  0
  7  9  2  0
  7 10  1  0
  9 11  1  0
  8 12  1  0
  9 13  1  0
 10 14  2  0
 12 15  1  0
 13 16  2  0
 14 16  1  0
 15 17  1  0
 17 18  2  0
 17 19  1  0
 19 20  2  0
 18 21  1  0
 20 22  1  0
 21 22  2  0
 20 23  1  0
 22 24  1  0
 23 25  2  0
 24 26  2  0
 25 26  1  0
M  END
