x0465_0_A-x0371_0_A
     RDKit          3D

 34 37  0  0  0  0  0  0  0  0999 V2000
    2.0380   13.0490   -4.3450 C   0  0  0  0  0  0  0  0  0  0  0  0
    0.6780   12.3410   -4.2400 C   0  0  1  0  0  0  0  0  0  0  0  0
    0.6230   11.4740   -5.3860 O   0  0  0  0  0  0  0  0  0  0  0  0
    0.5470   11.6370   -2.8590 C   0  0  0  0  0  0  0  0  0  0  0  0
    0.4970   12.0760   -1.6600 N   0  0  0  0  0  0  0  0  0  0  0  0
    0.4500   10.2910   -2.8580 O   0  0  0  0  0  0  0  0  0  0  0  0
   -0.5410   10.7850   -5.6200 C   0  0  0  0  0  0  0  0  0  0  0  0
    0.5570   13.4480   -1.2670 C   0  0  0  0  0  0  0  0  0  0  0  0
   -0.6560    9.7580   -6.5650 C   0  0  0  0  0  0  0  0  0  0  0  0
   -1.6570   11.1410   -4.8640 C   0  0  0  0  0  0  0  0  0  0  0  0
    0.3860    9.3830   -7.3190 F   0  0  0  0  0  0  0  0  0  0  0  0
   -0.4600   13.6530   -0.1560 C   0  0  0  0  0  0  0  0  0  0  0  0
   -1.8640    9.0930   -6.7510 C   0  0  0  0  0  0  0  0  0  0  0  0
   -2.8740   10.4740   -5.0510 C   0  0  0  0  0  0  0  0  0  0  0  0
   -1.1660   14.9690   -0.3010 C   0  0  0  0  0  0  0  0  0  0  0  0
   -2.9750    9.4510   -5.9940 C   0  0  0  0  0  0  0  0  0  0  0  0
   -2.6880   14.9510   -0.4360 C   0  0  0  0  0  0  0  0  0  0  0  0
   -3.4510   14.6870    0.6950 C   0  0  0  0  0  0  0  0  0  0  0  0
   -3.3330   15.2010   -1.6740 C   0  0  0  0  0  0  0  0  0  0  0  0
   -4.8290   14.6740    0.5400 C   0  0  0  0  0  0  0  0  0  0  0  0
   -4.7370   15.1860   -1.7940 C   0  0  0  0  0  0  0  0  0  0  0  0
   -5.8060   14.4420    1.4410 N   0  0  0  0  0  0  0  0  0  0  0  0
   -5.4950   14.9100   -0.6510 C   0  0  0  0  0  0  0  0  0  0  0  0
   -7.0150   14.5300    0.8090 C   0  0  0  0  0  0  0  0  0  0  0  0
   -6.8620   14.8190   -0.4730 N   0  0  0  0  0  0  0  0  0  0  0  0
   -8.2650   14.3090    1.5710 C   0  0  0  0  0  0  0  0  0  0  0  0
   -7.9710   14.5670    2.9640 N   0  0  0  0  0  0  0  0  0  0  0  0
   -8.7080   15.5310    3.6270 C   0  0  0  0  0  0  0  0  0  0  0  0
   -9.4120   16.3230    2.9990 O   0  0  0  0  0  0  0  0  0  0  0  0
   -8.6030   15.5310    5.0630 C   0  0  0  0  0  0  0  0  0  0  0  0
   -8.0160   14.4470    5.6550 O   0  0  0  0  0  0  0  0  0  0  0  0
   -8.9850   16.4270    6.0430 C   0  0  0  0  0  0  0  0  0  0  0  0
   -8.6090   15.8590    7.2840 C   0  0  0  0  0  0  0  0  0  0  0  0
   -8.0210   14.6550    6.9930 C   0  0  0  0  0  0  0  0  0  0  0  0
  2  1  1  1
  2  3  1  0
  2  4  1  0
  4  5  2  3
  4  6  1  0
  3  7  1  0
  5  8  1  0
  7  9  2  0
  7 10  1  0
  9 11  1  0
  8 12  1  0
  9 13  1  0
 10 14  2  0
 12 15  1  0
 13 16  2  0
 14 16  1  0
 15 17  1  0
 17 18  2  0
 17 19  1  0
 18 20  1  0
 19 21  2  0
 20 22  1  0
 20 23  2  0
 21 23  1  0
 22 24  1  0
 23 25  1  0
 24 25  2  0
 24 26  1  0
 26 27  1  0
 27 28  1  0
 28 29  2  0
 28 30  1  0
 30 31  1  0
 30 32  2  0
 32 33  1  0
 31 34  1  0
 33 34  2  0
M  END
