x0465_0_A-x0722_0_A
     RDKit          3D

 27 28  0  0  0  0  0  0  0  0999 V2000
    2.1150   13.0800   -5.3210 C   0  0  0  0  0  0  0  0  0  0  0  0
    0.7520   12.5170   -5.0720 C   0  0  1  0  0  0  0  0  0  0  0  0
    0.6590   11.2560   -5.7020 O   0  0  0  0  0  0  0  0  0  0  0  0
    0.6170   12.3660   -3.5900 C   0  0  0  0  0  0  0  0  0  0  0  0
    0.7770   13.2900   -2.7530 N   0  0  0  0  0  0  0  0  0  0  0  0
    0.3040   11.1510   -3.0940 O   0  0  0  0  0  0  0  0  0  0  0  0
   -0.5480   10.6420   -5.8130 C   0  0  0  0  0  0  0  0  0  0  0  0
    0.5550   12.9210   -1.4160 C   0  0  0  0  0  0  0  0  0  0  0  0
   -0.7470    9.5570   -6.6530 C   0  0  0  0  0  0  0  0  0  0  0  0
   -1.6120   11.1310   -5.0490 C   0  0  0  0  0  0  0  0  0  0  0  0
    0.2590    9.0760   -7.3940 F   0  0  0  0  0  0  0  0  0  0  0  0
   -0.9490   12.8990   -1.2710 C   0  0  0  0  0  0  0  0  0  0  0  0
   -1.9870    8.9440   -6.7460 C   0  0  0  0  0  0  0  0  0  0  0  0
   -2.8660   10.5200   -5.1370 C   0  0  0  0  0  0  0  0  0  0  0  0
   -1.6210   14.2270   -1.5580 C   0  0  0  0  0  0  0  0  0  0  0  0
   -3.0530    9.4260   -5.9850 C   0  0  0  0  0  0  0  0  0  0  0  0
   -2.2790   14.6400   -0.3030 C   0  0  0  0  0  0  0  0  0  0  0  0
   -3.5510   15.1320   -0.0280 C   0  0  0  0  0  0  0  0  0  0  0  0
   -1.6190   14.5740    0.9000 N   0  0  0  0  0  0  0  0  0  0  0  0
   -0.2770   14.1530    1.2200 C   0  0  0  0  0  0  0  0  0  0  0  0
   -4.6970   15.4190   -0.9500 C   0  0  0  0  0  0  0  0  0  0  0  0
   -2.3600   14.9660    1.9010 N   0  0  0  0  0  0  0  0  0  0  0  0
   -3.5060   15.3100    1.3720 C   0  0  0  0  0  0  0  0  0  0  0  0
   -4.5080   15.8130    2.2830 C   0  0  0  0  0  0  0  0  0  0  0  0
   -5.9680   14.6830   -0.5740 C   0  0  0  0  0  0  0  0  0  0  0  0
   -7.0960   15.1380   -0.7450 O   0  0  0  0  0  0  0  0  0  0  0  0
   -5.8030   13.4490   -0.0100 N   0  0  0  0  0  0  0  0  0  0  0  0
  2  1  1  1
  2  3  1  0
  2  4  1  0
  4  5  2  3
  4  6  1  0
  3  7  1  0
  5  8  1  0
  7  9  2  0
  7 10  1  0
  9 11  1  0
  8 12  1  0
  9 13  1  0
 10 14  2  0
 12 15  1  0
 13 16  2  0
 14 16  1  0
 15 17  1  0
 17 18  2  0
 17 19  1  0
 19 20  1  0
 18 21  1  0
 19 22  1  0
 18 23  1  0
 22 23  2  0
 23 24  1  0
 21 25  1  0
 25 26  2  0
 25 27  1  0
M  END
