x0465_0_A-x0724_0_A
     RDKit          3D

 30 32  0  0  0  0  0  0  0  0999 V2000
    2.1190   13.1540   -4.7230 C   0  0  0  0  0  0  0  0  0  0  0  0
    0.7550   12.4970   -4.5160 C   0  0  1  0  0  0  0  0  0  0  0  0
    0.6520   11.4830   -5.5350 O   0  0  0  0  0  0  0  0  0  0  0  0
    0.6900   11.8970   -3.1000 C   0  0  0  0  0  0  0  0  0  0  0  0
    0.9000   12.5810   -2.0290 N   0  0  0  0  0  0  0  0  0  0  0  0
    0.3880   10.5840   -3.0230 O   0  0  0  0  0  0  0  0  0  0  0  0
   -0.5620   10.8450   -5.6430 C   0  0  0  0  0  0  0  0  0  0  0  0
    1.2180   14.0020   -2.0730 C   0  0  0  0  0  0  0  0  0  0  0  0
   -0.6760    9.8020   -6.5730 C   0  0  0  0  0  0  0  0  0  0  0  0
   -1.6700   11.1960   -4.8670 C   0  0  0  0  0  0  0  0  0  0  0  0
    0.3730    9.4510   -7.3330 F   0  0  0  0  0  0  0  0  0  0  0  0
    0.0310   14.7270   -1.4350 C   0  0  0  0  0  0  0  0  0  0  0  0
   -1.8680    9.1120   -6.7330 C   0  0  0  0  0  0  0  0  0  0  0  0
   -2.8720   10.5010   -5.0280 C   0  0  0  0  0  0  0  0  0  0  0  0
   -1.2710   14.5940   -2.2480 C   0  0  0  0  0  0  0  0  0  0  0  0
   -2.9720    9.4610   -5.9560 C   0  0  0  0  0  0  0  0  0  0  0  0
   -2.5650   14.6290   -1.4540 C   0  0  0  0  0  0  0  0  0  0  0  0
   -2.5690   14.7270   -0.0530 C   0  0  0  0  0  0  0  0  0  0  0  0
   -3.7930   14.5570   -2.1260 C   0  0  0  0  0  0  0  0  0  0  0  0
   -3.7730   14.7450    0.6620 C   0  0  0  0  0  0  0  0  0  0  0  0
   -4.9980   14.5730   -1.4180 C   0  0  0  0  0  0  0  0  0  0  0  0
   -4.9980   14.6630   -0.0210 C   0  0  0  0  0  0  0  0  0  0  0  0
   -6.2310   14.6690    0.6940 N   0  0  0  0  0  0  0  0  0  0  0  0
   -7.4290   14.3880    0.1050 N   0  0  0  0  0  0  0  0  0  0  0  0
   -6.4020   14.9450    2.0250 C   0  0  0  0  0  0  0  0  0  0  0  0
   -7.7400   14.8500    2.3280 C   0  0  0  0  0  0  0  0  0  0  0  0
   -8.3260   14.5010    1.0940 C   0  0  0  0  0  0  0  0  0  0  0  0
   -8.3810   15.0800    3.6520 C   0  0  0  0  0  0  0  0  0  0  0  0
   -8.6250   13.7950    4.3040 N   0  0  0  0  0  0  0  0  0  0  0  0
   -8.4740   13.9170    5.7490 C   0  0  0  0  0  0  0  0  0  0  0  0
  2  1  1  1
  2  3  1  0
  2  4  1  0
  4  5  2  3
  4  6  1  0
  3  7  1  0
  5  8  1  0
  7  9  2  0
  7 10  1  0
  9 11  1  0
  8 12  1  0
  9 13  1  0
 10 14  2  0
 12 15  1  0
 13 16  2  0
 14 16  1  0
 15 17  1  0
 17 18  2  0
 17 19  1  0
 18 20  1  0
 19 21  2  0
 20 22  2  0
 21 22  1  0
 22 23  1  0
 23 24  1  0
 23 25  1  0
 25 26  2  0
 24 27  2  0
 26 27  1  0
 26 28  1  0
 28 29  1  0
 29 30  1  0
M  END
