x0465_0_A_α-x0910_1_A_α
     RDKit          3D

 23 24  0  0  0  0  0  0  0  0999 V2000
    2.0290   13.2030   -4.5570 C   0  0  0  0  0  0  0  0  0  0  0  0
    0.6140   12.6260   -4.4740 C   0  0  1  0  0  0  0  0  0  0  0  0
    0.6220   11.4910   -5.3630 O   0  0  0  0  0  0  0  0  0  0  0  0
    0.3040   12.2370   -3.0120 C   0  0  0  0  0  0  0  0  0  0  0  0
    0.8210   12.9940   -2.0990 N   0  0  0  0  0  0  0  0  0  0  0  0
    0.5790   10.9180   -2.9150 O   0  0  0  0  0  0  0  0  0  0  0  0
   -0.5350   10.7940   -5.6250 C   0  0  0  0  0  0  0  0  0  0  0  0
   -0.0440   13.7530   -1.1660 C   0  0  0  0  0  0  0  0  0  0  0  0
   -0.6610    9.7690   -6.5720 C   0  0  0  0  0  0  0  0  0  0  0  0
   -1.6580   11.1540   -4.8730 C   0  0  0  0  0  0  0  0  0  0  0  0
    0.3750    9.3800   -7.3270 F   0  0  0  0  0  0  0  0  0  0  0  0
   -1.5510   13.4920   -1.3760 C   0  0  0  0  0  0  0  0  0  0  0  0
   -1.8740    9.1120   -6.7630 C   0  0  0  0  0  0  0  0  0  0  0  0
   -2.8750   10.4960   -5.0660 C   0  0  0  0  0  0  0  0  0  0  0  0
   -2.4860   13.8000   -0.1770 C   0  0  0  0  0  0  0  0  0  0  0  0
   -2.9830    9.4750   -6.0090 C   0  0  0  0  0  0  0  0  0  0  0  0
   -3.2280   15.1470   -0.2440 C   0  0  0  0  0  0  0  0  0  0  0  0
   -4.7120   15.0470   -0.1640 C   0  0  0  0  0  0  0  0  0  0  0  0
   -5.5180   15.4510   -1.1540 N   0  0  0  0  0  0  0  0  0  0  0  0
   -5.3630   14.5320    0.9250 N   0  0  0  0  0  0  0  0  0  0  0  0
   -6.6240   14.6080    0.6010 C   0  0  0  0  0  0  0  0  0  0  0  0
   -6.7290   15.1600   -0.6480 N   0  0  0  0  0  0  0  0  0  0  0  0
   -7.6780   14.2240    1.3350 N   0  0  0  0  0  0  0  0  0  0  0  0
  2  1  1  1
  2  3  1  0
  2  4  1  0
  4  5  2  3
  4  6  1  0
  3  7  1  0
  5  8  1  0
  7  9  2  0
  7 10  1  0
  9 11  1  0
  8 12  1  0
  9 13  1  0
 10 14  2  0
 12 15  1  0
 13 16  2  0
 14 16  1  0
 15 17  1  0
 17 18  1  0
 18 19  2  0
 18 20  1  0
 20 21  2  0
 19 22  1  0
 21 22  1  0
 21 23  1  0
M  END
