x0465_0_A-x0662_0_A
     RDKit          3D

 29 31  0  0  0  0  0  0  0  0999 V2000
    2.2760   12.7730   -5.2280 C   0  0  0  0  0  0  0  0  0  0  0  0
    0.8630   12.3300   -4.8490 C   0  0  1  0  0  0  0  0  0  0  0  0
   -0.0650   11.6090   -5.9240 C   0  0  2  0  0  0  0  0  0  0  0  0
    0.8140   11.9130   -3.3760 C   0  0  0  0  0  0  0  0  0  0  0  0
    1.1080   12.6840   -2.4690 O   0  0  0  0  0  0  0  0  0  0  0  0
    0.4290   10.6520   -3.0970 O   0  0  0  0  0  0  0  0  0  0  0  0
   -0.8450   12.7570   -6.2960 O   0  0  0  0  0  0  0  0  0  0  0  0
   -1.1410   10.6740   -5.4940 C   0  0  0  0  0  0  0  0  0  0  0  0
    0.0990   10.9160   -7.3090 C   0  0  0  0  0  0  0  0  0  0  0  0
   -1.0710    9.3610   -5.9990 C   0  0  0  0  0  0  0  0  0  0  0  0
   -2.2080   11.0260   -4.6770 C   0  0  0  0  0  0  0  0  0  0  0  0
   -0.9840   10.0700   -7.6350 C   0  0  0  0  0  0  0  0  0  0  0  0
    1.1270   11.0030   -8.2740 C   0  0  0  0  0  0  0  0  0  0  0  0
   -0.0600    8.9720   -6.7970 F   0  0  0  0  0  0  0  0  0  0  0  0
   -2.0340    8.4280   -5.7110 C   0  0  0  0  0  0  0  0  0  0  0  0
   -3.1850   10.0850   -4.3830 C   0  0  0  0  0  0  0  0  0  0  0  0
   -1.0750    9.3540   -8.8150 C   0  0  0  0  0  0  0  0  0  0  0  0
    1.0200   10.2820   -9.4900 C   0  0  0  0  0  0  0  0  0  0  0  0
    1.9400   10.3160  -10.5260 N   0  0  0  0  0  0  0  0  0  0  0  0
   -3.1010    8.7900   -4.9020 C   0  0  0  0  0  0  0  0  0  0  0  0
   -0.0730    9.4640   -9.7420 C   0  0  0  0  0  0  0  0  0  0  0  0
    2.3690    9.3120  -11.3570 C   0  0  0  0  0  0  0  0  0  0  0  0
    2.2590    8.1070  -11.1770 O   0  0  0  0  0  0  0  0  0  0  0  0
    3.0320    9.8680  -12.5520 C   0  0  0  0  0  0  0  0  0  0  0  0
    2.8240   11.1360  -13.1580 C   0  0  0  0  0  0  0  0  0  0  0  0
    3.9730    9.1640  -13.2140 N   0  0  0  0  0  0  0  0  0  0  0  0
    4.3500    9.9820  -14.2100 N   0  0  0  0  0  0  0  0  0  0  0  0
    3.6880   11.1780  -14.2250 C   0  0  0  0  0  0  0  0  0  0  0  0
    5.3700    9.5460  -15.1290 C   0  0  0  0  0  0  0  0  0  0  0  0
  2  1  1  6
  2  3  1  0
  2  4  1  0
  4  5  2  0
  4  6  1  0
  3  7  1  6
  3  8  1  0
  3  9  1  0
  8 10  2  0
  8 11  1  0
  9 12  2  0
  9 13  1  0
 10 14  1  0
 10 15  1  0
 11 16  2  0
 12 17  1  0
 13 18  2  0
 18 19  1  0
 15 20  2  0
 16 20  1  0
 17 21  2  0
 18 21  1  0
 19 22  1  0
 22 23  2  0
 22 24  1  0
 24 25  1  0
 24 26  2  0
 26 27  1  0
 25 28  2  0
 27 28  1  0
 27 29  1  0
M  END
