x0465_0_A-x0722_0_A
     RDKit          3D

 27 28  0  0  0  0  0  0  0  0999 V2000
    1.8710   13.1070   -5.5400 C   0  0  0  0  0  0  0  0  0  0  0  0
    0.6370   12.4390   -4.9890 C   0  0  1  0  0  0  0  0  0  0  0  0
    0.5890   11.1220   -5.4590 O   0  0  0  0  0  0  0  0  0  0  0  0
    0.7060   12.4520   -3.4850 C   0  0  0  0  0  0  0  0  0  0  0  0
    1.0200   13.4930   -2.8450 N   0  0  0  0  0  0  0  0  0  0  0  0
    0.4070   11.3230   -2.8010 O   0  0  0  0  0  0  0  0  0  0  0  0
   -0.6150   10.5520   -5.6970 C   0  0  0  0  0  0  0  0  0  0  0  0
    1.0510   13.6270   -1.4280 C   0  0  0  0  0  0  0  0  0  0  0  0
   -0.7860    9.5480   -6.6360 C   0  0  0  0  0  0  0  0  0  0  0  0
   -1.7010   11.0080   -4.9550 C   0  0  0  0  0  0  0  0  0  0  0  0
    0.2480    9.1000   -7.3610 F   0  0  0  0  0  0  0  0  0  0  0  0
    0.0630   14.7530   -1.2130 C   0  0  0  0  0  0  0  0  0  0  0  0
   -2.0360    8.9830   -6.8450 C   0  0  0  0  0  0  0  0  0  0  0  0
   -2.9630   10.4460   -5.1580 C   0  0  0  0  0  0  0  0  0  0  0  0
   -1.3870   14.3100   -1.4450 C   0  0  0  0  0  0  0  0  0  0  0  0
   -3.1260    9.4320   -6.1040 C   0  0  0  0  0  0  0  0  0  0  0  0
   -2.1690   14.6380   -0.2390 C   0  0  0  0  0  0  0  0  0  0  0  0
   -3.4690   15.0990   -0.0280 C   0  0  0  0  0  0  0  0  0  0  0  0
   -1.5980   14.5120    0.9950 N   0  0  0  0  0  0  0  0  0  0  0  0
   -0.2730   14.0740    1.3520 C   0  0  0  0  0  0  0  0  0  0  0  0
   -4.5730   15.4200   -0.9910 C   0  0  0  0  0  0  0  0  0  0  0  0
   -2.4020   14.8560    1.9650 N   0  0  0  0  0  0  0  0  0  0  0  0
   -3.5120   15.2220    1.3750 C   0  0  0  0  0  0  0  0  0  0  0  0
   -4.5710   15.6990    2.2290 C   0  0  0  0  0  0  0  0  0  0  0  0
   -5.8800   14.7240   -0.6380 C   0  0  0  0  0  0  0  0  0  0  0  0
   -6.9900   15.2190   -0.8150 O   0  0  0  0  0  0  0  0  0  0  0  0
   -5.7660   13.4780   -0.0900 N   0  0  0  0  0  0  0  0  0  0  0  0
  2  1  1  6
  2  3  1  0
  2  4  1  0
  4  5  2  3
  4  6  1  0
  3  7  1  0
  5  8  1  0
  7  9  2  0
  7 10  1  0
  9 11  1  0
  8 12  1  0
  9 13  1  0
 10 14  2  0
 12 15  1  0
 13 16  2  0
 14 16  1  0
 15 17  1  0
 17 18  2  0
 17 19  1  0
 19 20  1  0
 18 21  1  0
 19 22  1  0
 18 23  1  0
 22 23  2  0
 23 24  1  0
 21 25  1  0
 25 26  2  0
 25 27  1  0
M  END
