x0465_0_A_α-x0253_0_A_α
     RDKit          3D

 22 23  0  0  0  0  0  0  0  0999 V2000
    1.7540   13.4170   -4.9510 C   0  0  0  0  0  0  0  0  0  0  0  0
    0.5560   12.5480   -4.5730 C   0  0  1  0  0  0  0  0  0  0  0  0
    0.2670   11.4230   -5.5090 N   0  0  0  0  0  0  0  0  0  0  0  0
    0.6500   12.2270   -3.0680 C   0  0  0  0  0  0  0  0  0  0  0  0
    0.9470   13.0360   -2.2020 O   0  0  0  0  0  0  0  0  0  0  0  0
    0.3900   10.9640   -2.6920 O   0  0  0  0  0  0  0  0  0  0  0  0
    0.9740   11.4500   -6.7200 C   0  0  0  0  0  0  0  0  0  0  0  0
   -0.9470   10.6620   -5.4300 C   0  0  0  0  0  0  0  0  0  0  0  0
    2.0310   12.0450   -6.8220 O   0  0  0  0  0  0  0  0  0  0  0  0
   -1.0330    9.3190   -5.8730 C   0  0  0  0  0  0  0  0  0  0  0  0
   -2.1040   11.2440   -4.9070 C   0  0  0  0  0  0  0  0  0  0  0  0
    0.4100   10.6810   -7.8810 C   0  0  0  0  0  0  0  0  0  0  0  0
    0.0180    8.6670   -6.3980 F   0  0  0  0  0  0  0  0  0  0  0  0
   -2.2160    8.6000   -5.7900 C   0  0  0  0  0  0  0  0  0  0  0  0
   -3.2950   10.5190   -4.8280 C   0  0  0  0  0  0  0  0  0  0  0  0
   -0.6580    9.8070   -7.6630 C   0  0  0  0  0  0  0  0  0  0  0  0
    0.9130   10.8020   -9.1820 C   0  0  0  0  0  0  0  0  0  0  0  0
   -3.3530    9.1980   -5.2680 C   0  0  0  0  0  0  0  0  0  0  0  0
   -1.2190    9.0610   -8.6960 C   0  0  0  0  0  0  0  0  0  0  0  0
    0.3610   10.0640  -10.2250 C   0  0  0  0  0  0  0  0  0  0  0  0
   -2.3660    8.1300   -8.4210 C   0  0  0  0  0  0  0  0  0  0  0  0
   -0.7010    9.1940   -9.9860 C   0  0  0  0  0  0  0  0  0  0  0  0
  2  1  1  6
  2  3  1  0
  2  4  1  0
  4  5  2  0
  4  6  1  0
  3  7  1  0
  3  8  1  0
  7  9  2  0
  8 10  2  0
  8 11  1  0
  7 12  1  0
 10 13  1  0
 10 14  1  0
 11 15  2  0
 12 16  2  0
 12 17  1  0
 14 18  2  0
 15 18  1  0
 16 19  1  0
 17 20  2  0
 19 21  1  0
 19 22  2  0
 20 22  1  0
M  END
