x0465_0_A_α-x0290_0_A_α
     RDKit          3D

 27 28  0  0  0  0  0  0  0  0999 V2000
    2.0810   13.1210   -4.8650 C   0  0  0  0  0  0  0  0  0  0  0  0
    0.7250   12.4610   -4.6280 C   0  0  1  0  0  0  0  0  0  0  0  0
    0.5640   11.3810   -5.5390 O   0  0  0  0  0  0  0  0  0  0  0  0
    0.6840   11.9660   -3.1760 C   0  0  0  0  0  0  0  0  0  0  0  0
    0.7250   12.7940   -2.2170 N   0  0  0  0  0  0  0  0  0  0  0  0
    0.5990   10.6370   -2.9840 O   0  0  0  0  0  0  0  0  0  0  0  0
   -0.6450   10.7670   -5.6500 C   0  0  0  0  0  0  0  0  0  0  0  0
    0.7470   14.2160   -2.4820 C   0  0  0  0  0  0  0  0  0  0  0  0
   -0.7140    9.7210   -6.5830 C   0  0  0  0  0  0  0  0  0  0  0  0
   -1.7870   11.0900   -4.9240 C   0  0  0  0  0  0  0  0  0  0  0  0
    0.3590    9.3730   -7.3100 F   0  0  0  0  0  0  0  0  0  0  0  0
   -0.7270   14.6290   -2.3720 C   0  0  0  0  0  0  0  0  0  0  0  0
   -1.8940    9.0130   -6.7830 C   0  0  0  0  0  0  0  0  0  0  0  0
   -2.9760   10.3810   -5.1240 C   0  0  0  0  0  0  0  0  0  0  0  0
   -3.0270    9.3430   -6.0530 C   0  0  0  0  0  0  0  0  0  0  0  0
   -1.1590   14.6070   -0.9220 C   0  0  0  0  0  0  0  0  0  0  0  0
   -0.1780   14.5140    0.0590 C   0  0  0  0  0  0  0  0  0  0  0  0
   -2.5070   14.6700   -0.5220 C   0  0  0  0  0  0  0  0  0  0  0  0
   -0.5660   14.4880    1.3740 C   0  0  0  0  0  0  0  0  0  0  0  0
   -2.8160   14.6400    0.8320 C   0  0  0  0  0  0  0  0  0  0  0  0
   -4.1080   14.6930    1.3550 N   0  0  0  0  0  0  0  0  0  0  0  0
   -1.8480   14.5500    1.7790 N   0  0  0  0  0  0  0  0  0  0  0  0
   -5.3280   14.4540    0.8170 C   0  0  0  0  0  0  0  0  0  0  0  0
   -5.4540   14.5110   -0.4150 O   0  0  0  0  0  0  0  0  0  0  0  0
   -6.5510   14.1060    1.6720 C   0  0  0  0  0  0  0  0  0  0  0  0
   -7.7100   13.8350    0.8080 N   0  0  0  0  0  0  0  0  0  0  0  0
   -8.6200   14.9700    0.7620 C   0  0  0  0  0  0  0  0  0  0  0  0
  2  1  1  6
  2  3  1  0
  2  4  1  0
  4  5  2  3
  4  6  1  0
  3  7  1  0
  5  8  1  0
  7  9  2  0
  7 10  1  0
  9 11  1  0
  8 12  1  0
  9 13  1  0
 10 14  2  0
 13 15  2  0
 14 15  1  0
 12 16  1  0
 16 17  2  0
 16 18  1  0
 17 19  1  0
 18 20  2  0
 20 21  1  0
 19 22  2  0
 20 22  1  0
 21 23  1  0
 23 24  2  0
 23 25  1  0
 25 26  1  0
 26 27  1  0
M  END
