x0465_0_A-x0837_0_A
     RDKit          3D

 24 25  0  0  0  0  0  0  0  0999 V2000
    2.2090   13.0540   -4.8530 C   0  0  0  0  0  0  0  0  0  0  0  0
    0.8320   12.4650   -4.5400 C   0  0  1  0  0  0  0  0  0  0  0  0
    0.6000   11.4960   -5.5000 O   0  0  0  0  0  0  0  0  0  0  0  0
    0.7960   11.9580   -3.1270 C   0  0  0  0  0  0  0  0  0  0  0  0
    0.9900   12.6910   -2.1180 N   0  0  0  0  0  0  0  0  0  0  0  0
    0.5200   10.6120   -2.9070 O   0  0  0  0  0  0  0  0  0  0  0  0
   -0.5870   10.8260   -5.6480 C   0  0  0  0  0  0  0  0  0  0  0  0
    1.2610   14.0770   -2.0360 C   0  0  0  0  0  0  0  0  0  0  0  0
   -0.7000    9.7690   -6.5850 C   0  0  0  0  0  0  0  0  0  0  0  0
   -1.7320   11.0920   -4.9390 C   0  0  0  0  0  0  0  0  0  0  0  0
    0.3930    9.4580   -7.3230 F   0  0  0  0  0  0  0  0  0  0  0  0
    0.0050   14.8650   -2.0530 C   0  0  0  0  0  0  0  0  0  0  0  0
   -1.8380    9.0620   -6.7810 C   0  0  0  0  0  0  0  0  0  0  0  0
   -2.9270   10.3840   -5.1130 C   0  0  0  0  0  0  0  0  0  0  0  0
   -1.1370   13.8950   -2.2600 C   0  0  0  0  0  0  0  0  0  0  0  0
   -2.9500    9.3760   -6.0390 C   0  0  0  0  0  0  0  0  0  0  0  0
   -3.0110   14.8060   -2.6070 I   0  0  0  0  0  0  0  0  0  0  0  0
   -4.2530   14.5240   -0.9160 C   0  0  1  0  0  0  0  0  0  0  0  0
   -3.6280   15.0710    0.2890 C   0  0  0  0  0  0  0  0  0  0  0  0
   -5.6290   15.1060   -1.0900 C   0  0  0  0  0  0  0  0  0  0  0  0
   -4.3210   15.2320    1.3750 C   0  0  0  0  0  0  0  0  0  0  0  0
   -6.4080   14.8610    0.1560 C   0  0  0  0  0  0  0  0  0  0  0  0
   -7.6600   14.6640    0.1190 O   0  0  0  0  0  0  0  0  0  0  0  0
   -5.6890   14.8670    1.3850 N   0  0  0  0  0  0  0  0  0  0  0  0
  2  1  1  6
  2  3  1  0
  2  4  1  0
  4  5  2  3
  4  6  1  0
  3  7  1  0
  5  8  1  0
  7  9  2  0
  7 10  1  0
  9 11  1  0
  8 12  1  0
  9 13  1  0
 10 14  2  0
 12 15  1  0
 13 16  2  0
 14 16  1  0
 15 17  1  0
 18 17  1  6
 18 19  1  0
 18 20  1  0
 19 21  2  0
 20 22  1  0
 22 23  2  0
 21 24  1  0
 22 24  1  0
M  END
