x0469_0_B-x0548_1_B
     RDKit          3D

 19 20  0  0  0  0  0  0  0  0999 V2000
   -4.3850   39.5020    6.2890 N   0  0  0  0  0  0  0  0  0  0  0  0
   -5.8380   39.5800    6.2090 C   0  0  2  0  0  0  0  0  0  0  0  0
   -6.2710   40.4300    7.4180 C   0  0  0  0  0  0  0  0  0  0  0  0
   -6.5380   38.1960    6.0710 C   0  0  1  0  0  0  0  0  0  0  0  0
   -6.2320   37.1640    7.2110 C   0  0  0  0  0  0  0  0  0  0  0  0
   -8.0490   38.4660    5.7640 C   0  0  2  0  0  0  0  0  0  0  0  0
   -8.3730   39.8960    6.2290 C   0  0  0  0  0  0  0  0  0  0  0  0
   -9.0830   37.3810    6.2120 C   0  0  2  0  0  0  0  0  0  0  0  0
   -7.4610   36.6540    7.9860 C   0  0  2  0  0  0  0  0  0  0  0  0
   -8.3740   38.5990    4.3010 C   0  0  0  0  0  0  0  0  0  0  0  0
  -10.1400   38.1000    6.8700 O   0  0  0  0  0  0  0  0  0  0  0  0
   -7.0890   35.5440    8.8230 O   0  0  0  0  0  0  0  0  0  0  0  0
   -8.5390   36.2040    7.0000 C   0  0  1  0  0  0  0  0  0  0  0  0
   -9.6640   37.9630    4.0190 N   0  0  0  0  0  0  0  0  0  0  0  0
   -9.7650   36.9030    5.0060 C   0  0  0  0  0  0  0  0  0  0  0  0
  -10.9720   38.8530    5.9790 C   0  0  0  0  0  0  0  0  0  0  0  0
   -9.5830   35.4190    7.5940 O   0  0  0  0  0  0  0  0  0  0  0  0
   -5.8920   34.9020    8.4310 C   0  0  0  0  0  0  0  0  0  0  0  0
  -10.0650   34.4450    6.6580 C   0  0  0  0  0  0  0  0  0  0  0  0
  1  2  1  0
  2  3  1  1
  2  4  1  0
  4  5  1  1
  4  6  1  0
  6  7  1  1
  6  8  1  0
  5  9  1  0
  6 10  1  0
  8 11  1  1
  9 12  1  1
  8 13  1  0
  9 13  1  0
 10 14  1  0
  8 15  1  0
 14 15  1  0
 11 16  1  0
 13 17  1  1
 12 18  1  0
 17 19  1  0
M  END
