x0465_0_A_α-x0962_1_A_α
     RDKit          3D

 23 24  0  0  0  0  0  0  0  0999 V2000
    1.9790   13.2770   -4.7230 C   0  0  0  0  0  0  0  0  0  0  0  0
    0.6690   12.5200   -4.5060 C   0  0  1  0  0  0  0  0  0  0  0  0
    0.6470   11.4480   -5.4700 O   0  0  0  0  0  0  0  0  0  0  0  0
    0.5990   11.9350   -3.0810 C   0  0  0  0  0  0  0  0  0  0  0  0
    0.6300   12.6280   -2.0020 N   0  0  0  0  0  0  0  0  0  0  0  0
    0.4940   10.5910   -3.0410 O   0  0  0  0  0  0  0  0  0  0  0  0
   -0.5570   10.8090   -5.6290 C   0  0  0  0  0  0  0  0  0  0  0  0
    0.7020   14.0740   -1.9480 C   0  0  0  0  0  0  0  0  0  0  0  0
   -0.6690    9.7740   -6.5650 C   0  0  0  0  0  0  0  0  0  0  0  0
   -1.6650   11.1790   -4.8680 C   0  0  0  0  0  0  0  0  0  0  0  0
    0.3800    9.4040   -7.3120 F   0  0  0  0  0  0  0  0  0  0  0  0
   -0.5710   14.5390   -1.2340 C   0  0  0  0  0  0  0  0  0  0  0  0
   -1.8730    9.1050   -6.7420 C   0  0  0  0  0  0  0  0  0  0  0  0
   -2.8780   10.5070   -5.0480 C   0  0  0  0  0  0  0  0  0  0  0  0
   -1.8100   14.6220   -2.1500 C   0  0  0  0  0  0  0  0  0  0  0  0
   -2.9810    9.4720   -5.9810 C   0  0  0  0  0  0  0  0  0  0  0  0
   -3.0810   14.8120   -1.4150 C   0  0  0  0  0  0  0  0  0  0  0  0
   -4.1170   14.8670   -0.7970 C   0  0  0  0  0  0  0  0  0  0  0  0
   -5.3180   14.7770   -0.0470 C   0  0  0  0  0  0  0  0  0  0  0  0
   -5.3850   14.7060    1.3150 N   0  0  0  0  0  0  0  0  0  0  0  0
   -6.6320   14.7290   -0.4610 C   0  0  0  0  0  0  0  0  0  0  0  0
   -6.6990   14.6140    1.6730 C   0  0  0  0  0  0  0  0  0  0  0  0
   -7.4860   14.6270    0.6170 N   0  0  0  0  0  0  0  0  0  0  0  0
  2  1  1  1
  2  3  1  0
  2  4  1  0
  4  5  2  3
  4  6  1  0
  3  7  1  0
  5  8  1  0
  7  9  2  0
  7 10  1  0
  9 11  1  0
  8 12  1  0
  9 13  1  0
 10 14  2  0
 12 15  1  0
 13 16  2  0
 14 16  1  0
 15 17  1  0
 17 18  3  0
 18 19  1  0
 19 20  1  0
 19 21  2  0
 20 22  1  0
 21 23  1  0
 22 23  2  0
M  END
