x0465_0_A-x0950_1_A
     RDKit          3D

 13 13  0  0  0  0  0  0  0  0999 V2000
    1.9410   13.3020   -5.0240 C   0  0  0  0  0  0  0  0  0  0  0  0
    0.6690   12.5270   -4.7150 C   0  0  1  0  0  0  0  0  0  0  0  0
    0.6860   11.4170   -5.6260 O   0  0  0  0  0  0  0  0  0  0  0  0
    0.7340   12.1300   -3.2300 C   0  0  0  0  0  0  0  0  0  0  0  0
    0.9340   12.8970   -2.3020 O   0  0  0  0  0  0  0  0  0  0  0  0
    0.5540   10.8060   -3.0250 O   0  0  0  0  0  0  0  0  0  0  0  0
   -0.5200   10.8330   -5.9240 C   0  0  0  0  0  0  0  0  0  0  0  0
   -0.6180    9.6300   -6.6360 C   0  0  0  0  0  0  0  0  0  0  0  0
   -1.6820   11.4620   -5.5080 C   0  0  0  0  0  0  0  0  0  0  0  0
    0.4760    8.9930   -7.0730 F   0  0  0  0  0  0  0  0  0  0  0  0
   -1.8480    9.0560   -6.9180 C   0  0  0  0  0  0  0  0  0  0  0  0
   -2.9230   10.8920   -5.7980 C   0  0  0  0  0  0  0  0  0  0  0  0
   -3.0090    9.6910   -6.4950 C   0  0  0  0  0  0  0  0  0  0  0  0
  2  1  1  6
  2  3  1  0
  2  4  1  0
  4  5  2  0
  4  6  1  0
  3  7  1  0
  7  8  2  0
  7  9  1  0
  8 10  1  0
  8 11  1  0
  9 12  2  0
 11 13  2  0
 12 13  1  0
M  END
