x0465_0_A-x0591_0_A
     RDKit          3D

 28 29  0  0  0  0  0  0  0  0999 V2000
    2.3180   12.9930   -4.8630 C   0  0  0  0  0  0  0  0  0  0  0  0
    0.8650   12.5450   -4.6210 C   0  0  1  0  0  0  0  0  0  0  0  0
    0.6810   11.4970   -5.6180 O   0  0  0  0  0  0  0  0  0  0  0  0
    0.7740   12.1680   -3.1250 C   0  0  0  0  0  0  0  0  0  0  0  0
   -0.0220   13.7740   -4.9380 C   0  0  0  0  0  0  0  0  0  0  0  0
    0.9830   12.9030   -2.1730 O   0  0  0  0  0  0  0  0  0  0  0  0
    0.4420   10.8820   -2.8730 O   0  0  0  0  0  0  0  0  0  0  0  0
   -1.4850   13.5170   -4.9730 N   0  0  0  0  0  0  0  0  0  0  0  0
   -0.5000   10.7950   -5.7020 C   0  0  0  0  0  0  0  0  0  0  0  0
   -2.3910   14.7370   -5.0170 S   0  0  1  0  0  0  0  0  0  0  0  0
   -0.6420    9.7670   -6.6410 C   0  0  0  0  0  0  0  0  0  0  0  0
   -1.5660   11.0970   -4.8550 C   0  0  0  0  0  0  0  0  0  0  0  0
    0.3650    9.4520   -7.4630 F   0  0  0  0  0  0  0  0  0  0  0  0
   -1.2380   15.9330   -4.8040 N   0  0  0  0  0  0  0  0  0  0  0  0
   -3.1250   15.2280   -6.1590 O   0  0  0  0  0  0  0  0  0  0  0  0
   -1.8300    9.0490   -6.7400 C   0  0  0  0  0  0  0  0  0  0  0  0
   -2.7640   10.3780   -4.9540 C   0  0  0  0  0  0  0  0  0  0  0  0
   -3.4720   14.7190   -3.6250 C   0  0  0  0  0  0  0  0  0  0  0  0
   -2.8930    9.3550   -5.8960 C   0  0  0  0  0  0  0  0  0  0  0  0
   -3.0100   14.5820   -2.3120 C   0  0  0  0  0  0  0  0  0  0  0  0
   -4.8280   14.8530   -3.8810 C   0  0  0  0  0  0  0  0  0  0  0  0
   -3.9300   14.5890   -1.2530 C   0  0  0  0  0  0  0  0  0  0  0  0
   -5.7410   14.8640   -2.8310 C   0  0  0  0  0  0  0  0  0  0  0  0
   -5.3040   14.7340   -1.5170 C   0  0  0  0  0  0  0  0  0  0  0  0
   -6.2860   14.7480   -0.4000 C   0  0  0  0  0  0  0  0  0  0  0  0
   -5.7980   14.5750    0.8720 N   0  0  0  0  0  0  0  0  0  0  0  0
   -7.4800   14.9060   -0.6400 O   0  0  0  0  0  0  0  0  0  0  0  0
   -6.7320   14.5100    1.9700 C   0  0  0  0  0  0  0  0  0  0  0  0
  2  1  1  1
  2  3  1  0
  2  4  1  0
  2  5  1  0
  4  6  2  0
  4  7  1  0
  5  8  1  0
  3  9  1  0
  8 10  2  0
  9 11  2  0
  9 12  1  0
 11 13  1  0
 10 14  1  1
 10 15  2  0
 11 16  1  0
 12 17  2  0
 10 18  1  0
 16 19  2  0
 17 19  1  0
 18 20  2  0
 18 21  1  0
 20 22  1  0
 21 23  2  0
 22 24  2  0
 23 24  1  0
 24 25  1  0
 25 26  1  0
 25 27  2  0
 26 28  1  0
M  END
