x0465_0_A-x0159_0_B
     RDKit          3D

 32 35  0  0  0  0  0  0  0  0999 V2000
    2.0730   13.1640   -4.9690 C   0  0  0  0  0  0  0  0  0  0  0  0
    0.7280   12.5130   -4.6870 C   0  0  1  0  0  0  0  0  0  0  0  0
    0.6150   11.3520   -5.5300 O   0  0  0  0  0  0  0  0  0  0  0  0
    0.7220   12.1220   -3.2080 C   0  0  0  0  0  0  0  0  0  0  0  0
    1.0680   12.8060   -2.2570 O   0  0  0  0  0  0  0  0  0  0  0  0
    0.2700   10.8670   -2.9960 O   0  0  0  0  0  0  0  0  0  0  0  0
   -0.6090   10.7460   -5.6740 C   0  0  0  0  0  0  0  0  0  0  0  0
   -0.7080    9.4980   -6.3400 C   0  0  0  0  0  0  0  0  0  0  0  0
   -1.7840   11.3260   -5.1730 C   0  0  0  0  0  0  0  0  0  0  0  0
    0.2830    8.7390   -6.9010 O   0  0  0  0  0  0  0  0  0  0  0  0
   -1.9470    8.8820   -6.4840 C   0  0  0  0  0  0  0  0  0  0  0  0
   -3.0180   10.6930   -5.3270 C   0  0  0  0  0  0  0  0  0  0  0  0
    1.0550    9.2640   -7.9660 C   0  0  0  0  0  0  0  0  0  0  0  0
   -3.1020    9.4710   -5.9830 C   0  0  0  0  0  0  0  0  0  0  0  0
    1.0250    8.3290   -9.1930 C   0  0  1  0  0  0  0  0  0  0  0  0
    0.9860    9.2050  -10.3740 N   0  0  0  0  0  0  0  0  0  0  0  0
    2.0790    7.2050   -9.3010 C   0  0  0  0  0  0  0  0  0  0  0  0
    1.9500    9.3540  -11.3100 C   0  0  0  0  0  0  0  0  0  0  0  0
    1.8810    5.9060   -8.5360 C   0  0  0  0  0  0  0  0  0  0  0  0
    1.8680   10.4990  -12.0460 N   0  0  0  0  0  0  0  0  0  0  0  0
    2.9760    8.6170  -11.6880 N   0  0  0  0  0  0  0  0  0  0  0  0
    2.5670    4.7660   -8.9690 C   0  0  0  0  0  0  0  0  0  0  0  0
    1.0400    5.8090   -7.4150 C   0  0  0  0  0  0  0  0  0  0  0  0
    3.5630    9.3300  -12.7200 C   0  0  0  0  0  0  0  0  0  0  0  0
    2.8770   10.5170  -12.9570 C   0  0  0  0  0  0  0  0  0  0  0  0
    2.4200    3.5540   -8.3120 C   0  0  0  0  0  0  0  0  0  0  0  0
    0.8950    4.5880   -6.7550 C   0  0  0  0  0  0  0  0  0  0  0  0
    1.5860    3.4700   -7.2160 C   0  0  0  0  0  0  0  0  0  0  0  0
    3.2250   11.4480  -13.9300 C   0  0  0  0  0  0  0  0  0  0  0  0
    4.6850    9.0410  -13.5140 C   0  0  0  0  0  0  0  0  0  0  0  0
    4.3420   11.1410  -14.7100 C   0  0  0  0  0  0  0  0  0  0  0  0
    5.0590    9.9600  -14.5060 C   0  0  0  0  0  0  0  0  0  0  0  0
  2  1  1  6
  2  3  1  0
  2  4  1  0
  4  5  2  0
  4  6  1  0
  3  7  1  0
  7  8  2  0
  7  9  1  0
  8 10  1  0
  8 11  1  0
  9 12  2  0
 10 13  1  0
 11 14  2  0
 12 14  1  0
 15 13  1  1
 15 16  1  0
 15 17  1  0
 16 18  1  0
 17 19  1  0
 18 20  1  0
 18 21  2  0
 19 22  2  0
 19 23  1  0
 21 24  1  0
 20 25  1  0
 24 25  2  0
 22 26  1  0
 23 27  2  0
 26 28  2  0
 27 28  1  0
 25 29  1  0
 24 30  1  0
 29 31  2  0
 30 32  2  0
 31 32  1  0
M  END
