x0465_0_A-x0849_0_A
     RDKit          3D

 25 27  0  0  0  0  0  0  0  0999 V2000
    1.8710   13.3060   -5.2300 C   0  0  0  0  0  0  0  0  0  0  0  0
    0.6060   12.6020   -4.7800 C   0  0  1  0  0  0  0  0  0  0  0  0
    0.6120   11.3600   -5.4530 O   0  0  0  0  0  0  0  0  0  0  0  0
    0.7060   12.5330   -3.2700 C   0  0  0  0  0  0  0  0  0  0  0  0
    0.8490   13.6080   -2.5810 N   0  0  0  0  0  0  0  0  0  0  0  0
    0.6360   11.2660   -2.7880 O   0  0  0  0  0  0  0  0  0  0  0  0
   -0.5410   10.6830   -5.7100 C   0  0  0  0  0  0  0  0  0  0  0  0
    0.9610   13.5760   -1.1550 C   0  0  0  0  0  0  0  0  0  0  0  0
   -0.6970    9.6380   -6.6160 C   0  0  0  0  0  0  0  0  0  0  0  0
   -1.6510   11.1070   -4.9730 C   0  0  0  0  0  0  0  0  0  0  0  0
    0.3220    9.1850   -7.3560 F   0  0  0  0  0  0  0  0  0  0  0  0
   -1.9320    9.0190   -6.7880 C   0  0  0  0  0  0  0  0  0  0  0  0
   -2.8950   10.4890   -5.1420 C   0  0  0  0  0  0  0  0  0  0  0  0
   -0.2160   14.0360   -0.3680 C   0  0  0  0  0  0  0  0  0  0  0  0
   -3.0320    9.4440   -6.0510 C   0  0  0  0  0  0  0  0  0  0  0  0
   -0.2530   14.0950    1.0210 C   0  0  0  0  0  0  0  0  0  0  0  0
   -1.3510   14.4140   -1.0230 C   0  0  0  0  0  0  0  0  0  0  0  0
   -2.4680   14.8150   -0.2990 C   0  0  0  0  0  0  0  0  0  0  0  0
   -1.3040   14.4860    1.7420 N   0  0  0  0  0  0  0  0  0  0  0  0
   -2.3940   14.8310    1.0950 C   0  0  0  0  0  0  0  0  0  0  0  0
   -3.6640   15.1990   -0.8940 C   0  0  0  0  0  0  0  0  0  0  0  0
   -3.8480   15.2010   -2.7830 Br  0  0  0  0  0  0  0  0  0  0  0  0
   -3.4110   15.1850    1.8280 N   0  0  0  0  0  0  0  0  0  0  0  0
   -4.7370   15.5760   -0.1230 C   0  0  0  0  0  0  0  0  0  0  0  0
   -4.5500   15.5450    1.2400 C   0  0  0  0  0  0  0  0  0  0  0  0
  2  1  1  6
  2  3  1  0
  2  4  1  0
  4  5  2  3
  4  6  1  0
  3  7  1  0
  5  8  1  0
  7  9  2  0
  7 10  1  0
  9 11  1  0
  9 12  1  0
 10 13  2  0
  8 14  1  0
 12 15  2  0
 13 15  1  0
 14 16  2  0
 14 17  1  0
 17 18  2  0
 16 19  1  0
 18 20  1  0
 19 20  2  0
 18 21  1  0
 21 22  1  0
 20 23  1  0
 21 24  2  0
 23 25  2  0
 24 25  1  0
M  END
