x0465_0_A-x1015_0_A
     RDKit          3D

 20 22  0  0  0  0  0  0  0  0999 V2000
    2.8080   13.0530   -4.7610 C   0  0  0  0  0  0  0  0  0  0  0  0
    1.3970   12.6200   -4.5320 C   0  0  1  0  0  0  0  0  0  0  0  0
    1.0580   11.6100   -5.4620 O   0  0  0  0  0  0  0  0  0  0  0  0
    1.3190   12.2080   -3.0800 C   0  0  0  0  0  0  0  0  0  0  0  0
    1.8370   12.8090   -2.1500 O   0  0  0  0  0  0  0  0  0  0  0  0
    0.5950   11.1240   -2.8700 N   0  0  0  0  0  0  0  0  0  0  0  0
   -0.3230   11.5300   -5.8120 C   0  0  1  0  0  0  0  0  0  0  0  0
   -0.5900   10.2980   -6.7160 C   0  0  1  0  0  0  0  0  0  0  0  0
   -1.2420   11.7690   -4.5530 C   0  0  2  0  0  0  0  0  0  0  0  0
   -0.7660   11.2520   -3.1080 C   0  0  2  0  0  0  0  0  0  0  0  0
   -0.1060    9.1330   -6.2360 F   0  0  0  0  0  0  0  0  0  0  0  0
   -2.0440   10.1280   -7.1030 C   0  0  1  0  0  0  0  0  0  0  0  0
   -2.6260   11.0950   -4.8270 C   0  0  0  0  0  0  0  0  0  0  0  0
   -1.2310   13.3510   -4.2930 C   0  0  1  0  0  0  0  0  0  0  0  0
   -1.0020   12.3670   -2.2390 N   0  0  0  0  0  0  0  0  0  0  0  0
   -2.3840    8.5610   -7.8960 Cl  0  0  0  0  0  0  0  0  0  0  0  0
   -2.4930   14.1730   -4.4230 C   0  0  0  0  0  0  0  0  0  0  0  0
   -2.9630   10.3740   -5.9350 C   0  0  0  0  0  0  0  0  0  0  0  0
   -0.6500   13.5200   -2.8910 C   0  0  0  0  0  0  0  0  0  0  0  0
   -0.0110   14.4620   -2.4260 O   0  0  0  0  0  0  0  0  0  0  0  0
  2  1  1  6
  2  3  1  0
  2  4  1  0
  4  5  2  0
  4  6  1  0
  7  3  1  1
  7  8  1  0
  7  9  1  0
 10  6  1  6
  9 10  1  0
  8 11  1  1
  8 12  1  0
  9 13  1  6
  9 14  1  0
 10 15  1  0
 12 16  1  1
 14 17  1  1
 12 18  1  0
 13 18  2  0
 14 19  1  0
 15 19  1  0
 19 20  2  0
M  END
