x0465_0_A_α-x0962_2_B_α
     RDKit          3D

 27 28  0  0  0  0  0  0  0  0999 V2000
    2.2590   13.0790   -4.7930 C   0  0  0  0  0  0  0  0  0  0  0  0
    0.8140   12.6120   -4.6840 C   0  0  1  0  0  0  0  0  0  0  0  0
    0.7190   11.4280   -5.4680 O   0  0  0  0  0  0  0  0  0  0  0  0
    0.5010   12.4900   -3.1850 C   0  0  0  0  0  0  0  0  0  0  0  0
    0.3110   13.5580   -2.4920 N   0  0  0  0  0  0  0  0  0  0  0  0
    0.4440   11.2140   -2.7340 O   0  0  0  0  0  0  0  0  0  0  0  0
   -0.4550   10.7560   -5.6940 C   0  0  0  0  0  0  0  0  0  0  0  0
   -0.0390   13.6340   -1.0820 C   0  0  0  0  0  0  0  0  0  0  0  0
   -0.6500    9.7160   -6.6070 C   0  0  0  0  0  0  0  0  0  0  0  0
   -1.5500   11.1670   -4.9220 C   0  0  0  0  0  0  0  0  0  0  0  0
    0.3440    9.2660   -7.3850 F   0  0  0  0  0  0  0  0  0  0  0  0
   -1.5750   13.5360   -0.9990 C   0  0  0  0  0  0  0  0  0  0  0  0
   -1.8880    9.0980   -6.7510 C   0  0  0  0  0  0  0  0  0  0  0  0
   -2.7990   10.5490   -5.0620 C   0  0  0  0  0  0  0  0  0  0  0  0
   -2.2770   14.0700    0.2680 C   0  0  0  0  0  0  0  0  0  0  0  0
   -2.9670    9.5120   -5.9770 C   0  0  0  0  0  0  0  0  0  0  0  0
   -3.7820   13.7270    0.3190 C   0  0  0  0  0  0  0  0  0  0  0  0
   -4.3650   13.7020    1.7390 C   0  0  0  0  0  0  0  0  0  0  0  0
   -5.5620   12.7610    2.0180 C   0  0  0  0  0  0  0  0  0  0  0  0
   -6.9780   13.3790    2.0730 C   0  0  0  0  0  0  0  0  0  0  0  0
   -7.3250   14.2480    3.2080 N   0  0  0  0  0  0  0  0  0  0  0  0
   -7.8230   15.1760    4.1770 C   0  0  0  0  0  0  0  0  0  0  0  0
   -8.2750   14.6630    2.2710 C   0  0  0  0  0  0  0  0  0  0  0  0
   -9.1080   15.6350    2.6760 C   0  0  0  0  0  0  0  0  0  0  0  0
   -8.8250   15.9750    3.9100 N   0  0  0  0  0  0  0  0  0  0  0  0
  -10.1430   16.2160    1.8890 C   0  0  0  0  0  0  0  0  0  0  0  0
  -10.9520   16.6650    1.1900 N   0  0  0  0  0  0  0  0  0  0  0  0
  2  1  1  1
  2  3  1  0
  2  4  1  0
  4  5  2  3
  4  6  1  0
  3  7  1  0
  5  8  1  0
  7  9  2  0
  7 10  1  0
  9 11  1  0
  8 12  1  0
  9 13  1  0
 10 14  2  0
 12 15  1  0
 13 16  2  0
 14 16  1  0
 15 17  1  0
 17 18  1  0
 18 19  1  0
 19 20  1  0
 20 21  1  0
 21 22  1  0
 21 23  1  0
 23 24  2  0
 22 25  2  0
 24 25  1  0
 24 26  1  0
 26 27  3  0
M  END
