x0465_0_A-x0574_0_A
     RDKit          3D

 27 29  0  0  0  0  0  0  0  0999 V2000
    1.6800   13.3440   -5.4510 C   0  0  0  0  0  0  0  0  0  0  0  0
    0.5150   12.5710   -4.8580 C   0  0  1  0  0  0  0  0  0  0  0  0
    0.5580   11.3120   -5.4810 O   0  0  0  0  0  0  0  0  0  0  0  0
    0.7580   12.6330   -3.3720 C   0  0  0  0  0  0  0  0  0  0  0  0
    0.9160   13.6710   -2.6470 N   0  0  0  0  0  0  0  0  0  0  0  0
    0.8260   11.4230   -2.7690 O   0  0  0  0  0  0  0  0  0  0  0  0
   -0.5830   10.6270   -5.7340 C   0  0  0  0  0  0  0  0  0  0  0  0
    1.2030   13.5640   -1.2500 C   0  0  0  0  0  0  0  0  0  0  0  0
   -0.7370    9.5870   -6.6440 C   0  0  0  0  0  0  0  0  0  0  0  0
   -1.6940   11.0330   -4.9840 C   0  0  0  0  0  0  0  0  0  0  0  0
    0.2880    9.1560   -7.3930 F   0  0  0  0  0  0  0  0  0  0  0  0
    0.8730   14.7950   -0.4010 C   0  0  0  0  0  0  0  0  0  0  0  0
   -1.9630    8.9570   -6.8110 C   0  0  0  0  0  0  0  0  0  0  0  0
   -2.9280   10.4060   -5.1460 C   0  0  0  0  0  0  0  0  0  0  0  0
    0.2110   14.4490    0.8770 N   0  0  0  0  0  0  0  0  0  0  0  0
   -3.0650    9.3650   -6.0610 C   0  0  0  0  0  0  0  0  0  0  0  0
   -1.0770   14.5170    0.7570 C   0  0  0  0  0  0  0  0  0  0  0  0
   -2.0150   14.5280    1.6640 N   0  0  0  0  0  0  0  0  0  0  0  0
   -1.5260   14.6180   -0.8770 S   0  0  0  0  0  0  0  0  0  0  0  0
   -3.2250   14.6440    0.9900 C   0  0  0  0  0  0  0  0  0  0  0  0
   -3.1330   14.7160   -0.4030 C   0  0  0  0  0  0  0  0  0  0  0  0
   -4.5100   14.6980    1.5450 C   0  0  0  0  0  0  0  0  0  0  0  0
   -4.2290   14.8490   -1.2420 C   0  0  0  0  0  0  0  0  0  0  0  0
   -5.6290   14.8230    0.7100 C   0  0  0  0  0  0  0  0  0  0  0  0
   -5.4820   14.9020   -0.6640 C   0  0  0  0  0  0  0  0  0  0  0  0
   -6.8300   14.8570    1.3560 O   0  0  0  0  0  0  0  0  0  0  0  0
   -6.8240   14.5890    2.7480 C   0  0  0  0  0  0  0  0  0  0  0  0
  2  1  1  6
  2  3  1  0
  2  4  1  0
  4  5  2  3
  4  6  1  0
  3  7  1  0
  5  8  1  0
  7  9  2  0
  7 10  1  0
  9 11  1  0
  8 12  1  0
  9 13  1  0
 10 14  2  0
 12 15  1  0
 13 16  2  0
 14 16  1  0
 15 17  1  0
 17 18  2  0
 17 19  1  0
 18 20  1  0
 19 21  1  0
 20 21  2  0
 20 22  1  0
 21 23  1  0
 22 24  2  0
 23 25  2  0
 24 25  1  0
 24 26  1  0
 26 27  1  0
M  END
