x0465_0_A_α-x0849_0_A_α
     RDKit          3D

 25 27  0  0  0  0  0  0  0  0999 V2000
    1.8720   13.3130   -5.2290 C   0  0  0  0  0  0  0  0  0  0  0  0
    0.6040   12.6090   -4.7860 C   0  0  1  0  0  0  0  0  0  0  0  0
    0.6090   11.3680   -5.4610 O   0  0  0  0  0  0  0  0  0  0  0  0
    0.7030   12.5340   -3.2730 C   0  0  0  0  0  0  0  0  0  0  0  0
    0.8470   13.6070   -2.5830 N   0  0  0  0  0  0  0  0  0  0  0  0
    0.6280   11.2660   -2.7910 O   0  0  0  0  0  0  0  0  0  0  0  0
   -0.5440   10.6880   -5.7160 C   0  0  0  0  0  0  0  0  0  0  0  0
    0.9570   13.5720   -1.1550 C   0  0  0  0  0  0  0  0  0  0  0  0
   -0.7010    9.6410   -6.6220 C   0  0  0  0  0  0  0  0  0  0  0  0
   -1.6540   11.1070   -4.9760 C   0  0  0  0  0  0  0  0  0  0  0  0
    0.3190    9.1900   -7.3640 F   0  0  0  0  0  0  0  0  0  0  0  0
   -1.9350    9.0190   -6.7920 C   0  0  0  0  0  0  0  0  0  0  0  0
   -2.8970   10.4870   -5.1430 C   0  0  0  0  0  0  0  0  0  0  0  0
   -0.2180   14.0350   -0.3690 C   0  0  0  0  0  0  0  0  0  0  0  0
   -3.0340    9.4410   -6.0540 C   0  0  0  0  0  0  0  0  0  0  0  0
   -0.2580   14.0970    1.0210 C   0  0  0  0  0  0  0  0  0  0  0  0
   -1.3540   14.4120   -1.0250 C   0  0  0  0  0  0  0  0  0  0  0  0
   -2.4720   14.8130   -0.3020 C   0  0  0  0  0  0  0  0  0  0  0  0
   -1.3090   14.4890    1.7400 N   0  0  0  0  0  0  0  0  0  0  0  0
   -2.3960   14.8310    1.0900 C   0  0  0  0  0  0  0  0  0  0  0  0
   -3.6700   15.1950   -0.8980 C   0  0  0  0  0  0  0  0  0  0  0  0
   -3.8540   15.1910   -2.7840 Br  0  0  0  0  0  0  0  0  0  0  0  0
   -3.4150   15.1880    1.8250 N   0  0  0  0  0  0  0  0  0  0  0  0
   -4.7450   15.5740   -0.1220 C   0  0  0  0  0  0  0  0  0  0  0  0
   -4.5520   15.5440    1.2390 C   0  0  0  0  0  0  0  0  0  0  0  0
  2  1  1  6
  2  3  1  0
  2  4  1  0
  4  5  2  3
  4  6  1  0
  3  7  1  0
  5  8  1  0
  7  9  2  0
  7 10  1  0
  9 11  1  0
  9 12  1  0
 10 13  2  0
  8 14  1  0
 12 15  2  0
 13 15  1  0
 14 16  2  0
 14 17  1  0
 17 18  2  0
 16 19  1  0
 18 20  1  0
 19 20  2  0
 18 21  1  0
 21 22  1  0
 20 23  1  0
 21 24  2  0
 23 25  2  0
 24 25  1  0
M  END
