x0465_0_A-x0855_0_A
     RDKit          3D

 13 13  0  0  0  0  0  0  0  0999 V2000
    1.9460   13.2990   -5.0250 C   0  0  0  0  0  0  0  0  0  0  0  0
    0.6720   12.5240   -4.7180 C   0  0  1  0  0  0  0  0  0  0  0  0
    0.6900   11.4130   -5.6280 O   0  0  0  0  0  0  0  0  0  0  0  0
    0.7350   12.1260   -3.2330 C   0  0  0  0  0  0  0  0  0  0  0  0
    0.9360   12.8930   -2.3020 O   0  0  0  0  0  0  0  0  0  0  0  0
    0.5520   10.8010   -3.0290 O   0  0  0  0  0  0  0  0  0  0  0  0
   -0.5160   10.8320   -5.9270 C   0  0  0  0  0  0  0  0  0  0  0  0
   -0.6160    9.6280   -6.6390 C   0  0  0  0  0  0  0  0  0  0  0  0
   -1.6800   11.4620   -5.5110 C   0  0  0  0  0  0  0  0  0  0  0  0
    0.4760    8.9890   -7.0730 F   0  0  0  0  0  0  0  0  0  0  0  0
   -1.8490    9.0580   -6.9200 C   0  0  0  0  0  0  0  0  0  0  0  0
   -2.9210   10.8940   -5.8000 C   0  0  0  0  0  0  0  0  0  0  0  0
   -3.0070    9.6930   -6.4980 C   0  0  0  0  0  0  0  0  0  0  0  0
  2  1  1  6
  2  3  1  0
  2  4  1  0
  4  5  2  0
  4  6  1  0
  3  7  1  0
  7  8  2  0
  7  9  1  0
  8 10  1  0
  8 11  1  0
  9 12  2  0
 11 13  2  0
 12 13  1  0
M  END
