x0465_0_A-x0962_3_A
     RDKit          3D

 19 20  0  0  0  0  0  0  0  0999 V2000
    2.3420   13.1320   -4.7870 C   0  0  0  0  0  0  0  0  0  0  0  0
    0.9430   12.5650   -4.5540 C   0  0  1  0  0  0  0  0  0  0  0  0
    0.4950   11.5440   -5.5510 N   0  0  0  0  0  0  0  0  0  0  0  0
    0.8390   12.1400   -3.0780 C   0  0  0  0  0  0  0  0  0  0  0  0
    1.0980   12.8290   -2.1050 O   0  0  0  0  0  0  0  0  0  0  0  0
    0.4100   10.8710   -2.8920 O   0  0  0  0  0  0  0  0  0  0  0  0
   -0.7550   10.9170   -5.4480 C   0  0  0  0  0  0  0  0  0  0  0  0
    1.2310   11.4230   -6.8080 C   0  0  0  0  0  0  0  0  0  0  0  0
   -1.2590    9.9180   -6.3120 C   0  0  0  0  0  0  0  0  0  0  0  0
   -1.6140   11.2970   -4.4000 C   0  0  0  0  0  0  0  0  0  0  0  0
    0.5550   11.5220   -8.0810 N   0  0  0  0  0  0  0  0  0  0  0  0
   -2.5340    9.3700   -6.0910 C   0  0  0  0  0  0  0  0  0  0  0  0
   -2.8800   10.7350   -4.2080 C   0  0  0  0  0  0  0  0  0  0  0  0
   -0.7490    9.2370   -7.5120 C   0  0  2  0  0  0  0  0  0  0  0  0
   -3.3410    9.7620   -5.0620 C   0  0  0  0  0  0  0  0  0  0  0  0
    0.6180    8.9170   -7.7760 N   0  0  0  0  0  0  0  0  0  0  0  0
   -1.1930    9.6380   -8.8620 C   0  0  0  0  0  0  0  0  0  0  0  0
    0.3320    7.8930   -8.7670 C   0  0  0  0  0  0  0  0  0  0  0  0
   -0.8790    8.3440   -9.4730 N   0  0  0  0  0  0  0  0  0  0  0  0
  2  1  1  6
  2  3  1  0
  2  4  1  0
  4  5  2  0
  4  6  1  0
  3  7  1  0
  3  8  1  0
  7  9  2  0
  7 10  1  0
  8 11  1  0
  9 12  1  0
 10 13  2  0
 14  9  1  1
 12 15  2  0
 13 15  1  0
 14 16  1  0
 14 17  1  0
 16 18  1  0
 17 19  1  0
 18 19  1  0
M  END
