x0465_0_A-x0290_0_A
     RDKit          3D

 27 28  0  0  0  0  0  0  0  0999 V2000
    2.0850   13.1230   -4.8670 C   0  0  0  0  0  0  0  0  0  0  0  0
    0.7290   12.4620   -4.6310 C   0  0  1  0  0  0  0  0  0  0  0  0
    0.5680   11.3770   -5.5380 O   0  0  0  0  0  0  0  0  0  0  0  0
    0.6860   11.9660   -3.1790 C   0  0  0  0  0  0  0  0  0  0  0  0
    0.7250   12.7950   -2.2210 N   0  0  0  0  0  0  0  0  0  0  0  0
    0.5990   10.6400   -2.9850 O   0  0  0  0  0  0  0  0  0  0  0  0
   -0.6440   10.7650   -5.6480 C   0  0  0  0  0  0  0  0  0  0  0  0
    0.7480   14.2160   -2.4810 C   0  0  0  0  0  0  0  0  0  0  0  0
   -0.7140    9.7190   -6.5820 C   0  0  0  0  0  0  0  0  0  0  0  0
   -1.7880   11.0900   -4.9230 C   0  0  0  0  0  0  0  0  0  0  0  0
    0.3580    9.3720   -7.3080 F   0  0  0  0  0  0  0  0  0  0  0  0
   -0.7260   14.6310   -2.3720 C   0  0  0  0  0  0  0  0  0  0  0  0
   -1.8950    9.0130   -6.7830 C   0  0  0  0  0  0  0  0  0  0  0  0
   -2.9780   10.3810   -5.1240 C   0  0  0  0  0  0  0  0  0  0  0  0
   -3.0290    9.3420   -6.0530 C   0  0  0  0  0  0  0  0  0  0  0  0
   -1.1550   14.6080   -0.9220 C   0  0  0  0  0  0  0  0  0  0  0  0
   -0.1740   14.5160    0.0600 C   0  0  0  0  0  0  0  0  0  0  0  0
   -2.5030   14.6730   -0.5210 C   0  0  0  0  0  0  0  0  0  0  0  0
   -0.5650   14.4910    1.3760 C   0  0  0  0  0  0  0  0  0  0  0  0
   -2.8150   14.6420    0.8340 C   0  0  0  0  0  0  0  0  0  0  0  0
   -4.1080   14.6940    1.3550 N   0  0  0  0  0  0  0  0  0  0  0  0
   -1.8460   14.5530    1.7820 N   0  0  0  0  0  0  0  0  0  0  0  0
   -5.3300   14.4540    0.8160 C   0  0  0  0  0  0  0  0  0  0  0  0
   -5.4510   14.5090   -0.4150 O   0  0  0  0  0  0  0  0  0  0  0  0
   -6.5540   14.1030    1.6700 C   0  0  0  0  0  0  0  0  0  0  0  0
   -7.7150   13.8370    0.8040 N   0  0  0  0  0  0  0  0  0  0  0  0
   -8.6260   14.9730    0.7640 C   0  0  0  0  0  0  0  0  0  0  0  0
  2  1  1  6
  2  3  1  0
  2  4  1  0
  4  5  2  3
  4  6  1  0
  3  7  1  0
  5  8  1  0
  7  9  2  0
  7 10  1  0
  9 11  1  0
  8 12  1  0
  9 13  1  0
 10 14  2  0
 13 15  2  0
 14 15  1  0
 12 16  1  0
 16 17  2  0
 16 18  1  0
 17 19  1  0
 18 20  2  0
 20 21  1  0
 19 22  2  0
 20 22  1  0
 21 23  1  0
 23 24  2  0
 23 25  1  0
 25 26  1  0
 26 27  1  0
M  END
