x0465_0_A-x0905_0_A
     RDKit          3D

 23 24  0  0  0  0  0  0  0  0999 V2000
    2.0150   13.0730   -4.2290 C   0  0  0  0  0  0  0  0  0  0  0  0
    0.6330   12.3980   -4.1250 C   0  0  1  0  0  0  0  0  0  0  0  0
    0.5590   11.5220   -5.2820 O   0  0  0  0  0  0  0  0  0  0  0  0
    0.4840   11.6600   -2.7590 C   0  0  0  0  0  0  0  0  0  0  0  0
    0.3100   12.1820   -1.5840 N   0  0  0  0  0  0  0  0  0  0  0  0
    0.5210   10.3110   -2.7920 O   0  0  0  0  0  0  0  0  0  0  0  0
   -0.6240   10.8590   -5.5030 C   0  0  0  0  0  0  0  0  0  0  0  0
    0.1880   13.5810   -1.2270 C   0  0  0  0  0  0  0  0  0  0  0  0
   -0.6630    9.8840   -6.5160 C   0  0  0  0  0  0  0  0  0  0  0  0
   -1.7780   11.1080   -4.7680 C   0  0  0  0  0  0  0  0  0  0  0  0
    0.4240    9.6160   -7.2510 F   0  0  0  0  0  0  0  0  0  0  0  0
   -0.6420   13.6090    0.0690 C   0  0  0  0  0  0  0  0  0  0  0  0
   -1.8250    9.1740   -6.7860 C   0  0  0  0  0  0  0  0  0  0  0  0
   -2.9460   10.3940   -5.0400 C   0  0  0  0  0  0  0  0  0  0  0  0
   -1.3440   14.9110    0.3900 C   0  0  0  0  0  0  0  0  0  0  0  0
   -2.9720    9.4290   -6.0440 C   0  0  0  0  0  0  0  0  0  0  0  0
   -2.8300   14.9870    0.0180 C   0  0  0  0  0  0  0  0  0  0  0  0
   -3.8160   14.9130    1.0020 C   0  0  0  0  0  0  0  0  0  0  0  0
   -3.2800   15.1370   -1.3050 C   0  0  0  0  0  0  0  0  0  0  0  0
   -5.1510   14.9720    0.7650 N   0  0  0  0  0  0  0  0  0  0  0  0
   -4.6480   15.2020   -1.5830 C   0  0  0  0  0  0  0  0  0  0  0  0
   -5.5140   15.1110   -0.5190 C   0  0  0  0  0  0  0  0  0  0  0  0
   -6.8560   15.1570   -0.7160 O   0  0  0  0  0  0  0  0  0  0  0  0
  2  1  1  1
  2  3  1  0
  2  4  1  0
  4  5  2  3
  4  6  1  0
  3  7  1  0
  5  8  1  0
  7  9  2  0
  7 10  1  0
  9 11  1  0
  8 12  1  0
  9 13  1  0
 10 14  2  0
 12 15  1  0
 13 16  2  0
 14 16  1  0
 15 17  1  0
 17 18  2  0
 17 19  1  0
 18 20  1  0
 19 21  2  0
 20 22  2  0
 21 22  1  0
 22 23  1  0
M  END
