x0465_0_A-x0631_0_A
     RDKit          3D

 27 29  0  0  0  0  0  0  0  0999 V2000
    2.0250   13.4600   -4.8270 C   0  0  0  0  0  0  0  0  0  0  0  0
    0.8290   12.5750   -4.5430 C   0  0  1  0  0  0  0  0  0  0  0  0
    0.5590   11.7150   -5.6410 O   0  0  0  0  0  0  0  0  0  0  0  0
    0.7640   12.0910   -3.0780 C   0  0  0  0  0  0  0  0  0  0  0  0
    0.9750   12.8010   -2.1070 O   0  0  0  0  0  0  0  0  0  0  0  0
    0.4580   10.7770   -2.9320 O   0  0  0  0  0  0  0  0  0  0  0  0
   -0.5510   10.9930   -5.9910 C   0  0  0  0  0  0  0  0  0  0  0  0
   -0.6480    9.9330   -6.9050 C   0  0  0  0  0  0  0  0  0  0  0  0
   -1.6860   11.4250   -5.3180 C   0  0  0  0  0  0  0  0  0  0  0  0
   -1.9120    9.3200   -7.0900 C   0  0  0  0  0  0  0  0  0  0  0  0
   -2.9270   10.8260   -5.5130 C   0  0  0  0  0  0  0  0  0  0  0  0
    0.5530    9.5840   -7.5700 N   0  0  0  0  0  0  0  0  0  0  0  0
   -3.0370    9.7740   -6.3890 C   0  0  0  0  0  0  0  0  0  0  0  0
    1.3460   10.6950   -7.5620 N   0  0  0  0  0  0  0  0  0  0  0  0
    0.5370    9.1840   -8.9280 N   0  0  0  0  0  0  0  0  0  0  0  0
   -2.1560    8.1780   -8.0130 C   0  0  0  0  0  0  0  0  0  0  0  0
    0.8020   11.4490   -8.6480 N   0  0  0  0  0  0  0  0  0  0  0  0
    0.6310   10.4470   -9.6780 C   0  0  1  0  0  0  0  0  0  0  0  0
   -1.2630    7.0260   -7.5950 C   0  0  0  0  0  0  0  0  0  0  0  0
    1.7920   10.5390  -10.5360 N   0  0  0  0  0  0  0  0  0  0  0  0
    1.9860    9.5060  -11.5220 C   0  0  2  0  0  0  0  0  0  0  0  0
    2.9520    8.5800  -11.0380 O   0  0  0  0  0  0  0  0  0  0  0  0
    2.4950   10.0070  -12.9170 C   0  0  2  0  0  0  0  0  0  0  0  0
    3.8470    9.5690  -13.1540 O   0  0  0  0  0  0  0  0  0  0  0  0
    2.5120   11.4930  -13.2050 C   0  0  0  0  0  0  0  0  0  0  0  0
    3.4890   11.5970  -14.3610 C   0  0  0  0  0  0  0  0  0  0  0  0
    4.2950   10.3100  -14.2980 C   0  0  0  0  0  0  0  0  0  0  0  0
  2  1  1  6
  2  3  1  0
  2  4  1  0
  4  5  2  0
  4  6  1  0
  3  7  1  0
  7  8  2  0
  7  9  1  0
  8 10  1  0
  9 11  2  0
  8 12  1  0
 10 13  2  0
 11 13  1  0
 12 14  1  0
 12 15  1  0
 10 16  1  0
 14 17  1  0
 15 18  1  0
 17 18  1  0
 16 19  1  0
 18 20  1  6
 20 21  1  0
 21 22  1  1
 21 23  1  0
 23 24  1  0
 23 25  1  1
 25 26  1  0
 24 27  1  0
 26 27  1  0
M  END
