x0465_0_A-x0926_0_A
     RDKit          3D

 23 24  0  0  0  0  0  0  0  0999 V2000
    2.0750   13.0780   -4.3180 C   0  0  0  0  0  0  0  0  0  0  0  0
    0.6930   12.4370   -4.1610 C   0  0  1  0  0  0  0  0  0  0  0  0
    0.5580   11.4380   -5.1970 O   0  0  0  0  0  0  0  0  0  0  0  0
    0.5520   11.7750   -2.7520 C   0  0  0  0  0  0  0  0  0  0  0  0
    0.4980   12.4390   -1.6360 N   0  0  0  0  0  0  0  0  0  0  0  0
    0.4740   10.4180   -2.7110 O   0  0  0  0  0  0  0  0  0  0  0  0
   -0.6430   10.8250   -5.4400 C   0  0  0  0  0  0  0  0  0  0  0  0
    0.5590   13.9010   -1.6020 C   0  0  0  0  0  0  0  0  0  0  0  0
   -0.6780    9.8870   -6.4950 C   0  0  0  0  0  0  0  0  0  0  0  0
   -1.8150   11.0560   -4.7280 C   0  0  0  0  0  0  0  0  0  0  0  0
    0.4160    9.6230   -7.2270 F   0  0  0  0  0  0  0  0  0  0  0  0
   -0.1380   14.3960   -0.3270 C   0  0  0  0  0  0  0  0  0  0  0  0
   -1.8430    9.2020   -6.8200 C   0  0  0  0  0  0  0  0  0  0  0  0
   -2.9890   10.3690   -5.0540 C   0  0  0  0  0  0  0  0  0  0  0  0
   -1.6530   14.1040   -0.3350 C   0  0  0  0  0  0  0  0  0  0  0  0
   -3.0040    9.4430   -6.0950 C   0  0  0  0  0  0  0  0  0  0  0  0
   -2.5290   15.3710   -0.2260 C   0  0  1  0  0  0  0  0  0  0  0  0
   -3.2700   15.5850   -1.4880 N   0  0  0  0  0  0  0  0  0  0  0  0
   -3.4320   15.3030    0.9830 C   0  0  0  0  0  0  0  0  0  0  0  0
   -4.7650   15.2030    0.9140 C   0  0  0  0  0  0  0  0  0  0  0  0
   -4.6220   15.1550   -1.5070 N   0  0  0  0  0  0  0  0  0  0  0  0
   -5.4390   15.1460   -0.4000 C   0  0  0  0  0  0  0  0  0  0  0  0
   -6.6630   15.0770   -0.4840 O   0  0  0  0  0  0  0  0  0  0  0  0
  2  1  1  1
  2  3  1  0
  2  4  1  0
  4  5  2  3
  4  6  1  0
  3  7  1  0
  5  8  1  0
  7  9  2  0
  7 10  1  0
  9 11  1  0
  8 12  1  0
  9 13  1  0
 10 14  2  0
 12 15  1  0
 13 16  2  0
 14 16  1  0
 17 15  1  6
 17 18  1  0
 17 19  1  0
 19 20  2  0
 18 21  1  0
 20 22  1  0
 21 22  1  0
 22 23  2  0
M  END
