x0465_0_A_α-x0900_1_A_α
     RDKit          3D

 19 20  0  0  0  0  0  0  0  0999 V2000
    2.1460   13.4160   -4.6820 C   0  0  0  0  0  0  0  0  0  0  0  0
    0.8080   12.7410   -4.4420 C   0  0  1  0  0  0  0  0  0  0  0  0
    0.7360   11.6440   -5.3570 O   0  0  0  0  0  0  0  0  0  0  0  0
    0.7830   12.1890   -3.0150 C   0  0  0  0  0  0  0  0  0  0  0  0
    1.0300   12.8480   -2.0210 O   0  0  0  0  0  0  0  0  0  0  0  0
    0.4640   10.8720   -2.9430 O   0  0  0  0  0  0  0  0  0  0  0  0
   -0.4720   11.0290   -5.5040 C   0  0  0  0  0  0  0  0  0  0  0  0
   -0.6280   10.0560   -6.4630 C   0  0  0  0  0  0  0  0  0  0  0  0
   -1.5420   11.3840   -4.6810 C   0  0  0  0  0  0  0  0  0  0  0  0
    0.4630    9.7560   -7.2440 O   0  0  0  0  0  0  0  0  0  0  0  0
   -1.8620    9.4190   -6.6090 C   0  0  0  0  0  0  0  0  0  0  0  0
   -2.7800   10.7490   -4.8280 C   0  0  0  0  0  0  0  0  0  0  0  0
   -2.9370    9.7640   -5.7920 C   0  0  0  0  0  0  0  0  0  0  0  0
    0.1290    8.7130   -8.1040 N   0  0  0  0  0  0  0  0  0  0  0  0
   -0.9480    9.0870   -8.9060 C   0  0  0  0  0  0  0  0  0  0  0  0
   -0.1990    7.5410   -7.3460 C   0  0  0  0  0  0  0  0  0  0  0  0
   -0.9280    9.7170   -9.9540 O   0  0  0  0  0  0  0  0  0  0  0  0
   -2.1970    8.5680   -8.2340 C   0  0  0  0  0  0  0  0  0  0  0  0
   -1.6780    7.7060   -7.0690 C   0  0  0  0  0  0  0  0  0  0  0  0
  2  1  1  6
  2  3  1  0
  2  4  1  0
  4  5  2  0
  4  6  1  0
  3  7  1  0
  7  8  2  0
  7  9  1  0
  8 10  1  0
  8 11  1  0
  9 12  2  0
 11 13  2  0
 12 13  1  0
 10 14  1  0
 14 15  1  0
 14 16  1  0
 15 17  2  0
 15 18  1  0
 16 19  1  0
 18 19  1  0
M  END
