x0465_0_A_α-x0727_0_A_α
     RDKit          3D

 14 14  0  0  0  0  0  0  0  0999 V2000
    2.1320   13.2810   -4.7970 C   0  0  0  0  0  0  0  0  0  0  0  0
    0.7810   12.6360   -4.5540 C   0  0  1  0  0  0  0  0  0  0  0  0
    0.6580   11.5490   -5.4750 O   0  0  0  0  0  0  0  0  0  0  0  0
    0.7540   12.1190   -3.1110 C   0  0  0  0  0  0  0  0  0  0  0  0
    1.0210   12.8220   -2.1440 O   0  0  0  0  0  0  0  0  0  0  0  0
    0.4180   10.8170   -2.9760 O   0  0  0  0  0  0  0  0  0  0  0  0
   -0.5320   10.8800   -5.6300 C   0  0  0  0  0  0  0  0  0  0  0  0
   -0.5790    9.9680   -6.7000 C   0  0  0  0  0  0  0  0  0  0  0  0
   -1.6540   11.0500   -4.8100 C   0  0  0  0  0  0  0  0  0  0  0  0
    0.5090    9.7820   -7.5340 N   0  0  0  0  0  0  0  0  0  0  0  0
   -1.7520    9.2330   -6.9290 C   0  0  0  0  0  0  0  0  0  0  0  0
   -2.8170   10.3110   -5.0530 C   0  0  0  0  0  0  0  0  0  0  0  0
    1.1800   10.8300   -7.6550 O   0  0  0  0  0  0  0  0  0  0  0  0
   -2.8670    9.4030   -6.1080 C   0  0  0  0  0  0  0  0  0  0  0  0
  2  1  1  6
  2  3  1  0
  2  4  1  0
  4  5  2  0
  4  6  1  0
  3  7  1  0
  7  8  2  0
  7  9  1  0
  8 10  1  0
  8 11  1  0
  9 12  2  0
 10 13  2  0
 11 14  2  0
 12 14  1  0
M  END
