x0465_0_A-x0282_0_A
     RDKit          3D

 28 30  0  0  0  0  0  0  0  0999 V2000
    2.4670   12.8920   -5.0290 C   0  0  0  0  0  0  0  0  0  0  0  0
    0.9890   12.5910   -5.1840 C   0  0  1  0  0  0  0  0  0  0  0  0
    0.7900   11.4710   -6.0450 O   0  0  0  0  0  0  0  0  0  0  0  0
    0.5050   12.3470   -3.7920 C   0  0  0  0  0  0  0  0  0  0  0  0
    0.0960   13.1760   -2.9610 N   0  0  0  0  0  0  0  0  0  0  0  0
    0.5000   11.0610   -3.3770 O   0  0  0  0  0  0  0  0  0  0  0  0
   -0.4370   10.8450   -5.9590 C   0  0  0  0  0  0  0  0  0  0  0  0
   -0.3230   12.5400   -1.7720 C   0  0  0  0  0  0  0  0  0  0  0  0
   -0.6070    9.6910   -6.7240 C   0  0  0  0  0  0  0  0  0  0  0  0
   -1.5030   11.2890   -5.1660 C   0  0  0  0  0  0  0  0  0  0  0  0
    0.3900    9.2390   -7.4970 F   0  0  0  0  0  0  0  0  0  0  0  0
   -1.8020    8.9810   -6.7110 C   0  0  0  0  0  0  0  0  0  0  0  0
   -2.7100   10.5750   -5.1500 C   0  0  0  0  0  0  0  0  0  0  0  0
   -0.7100   13.4570   -0.6830 C   0  0  0  0  0  0  0  0  0  0  0  0
   -2.8600    9.4230   -5.9210 C   0  0  0  0  0  0  0  0  0  0  0  0
   -1.9790   13.7850   -0.5660 N   0  0  0  0  0  0  0  0  0  0  0  0
    0.2400   13.8880    0.1360 C   0  0  0  0  0  0  0  0  0  0  0  0
   -0.1570   14.6740    1.1570 C   0  0  0  0  0  0  0  0  0  0  0  0
   -2.3150   14.5670    0.4460 C   0  0  0  0  0  0  0  0  0  0  0  0
   -3.6470   14.8810    0.5250 N   0  0  0  0  0  0  0  0  0  0  0  0
   -1.4300   15.0270    1.3520 N   0  0  0  0  0  0  0  0  0  0  0  0
   -4.2550   14.0620    1.5330 C   0  0  0  0  0  0  0  0  0  0  0  0
   -4.3030   14.8100   -0.7710 C   0  0  0  0  0  0  0  0  0  0  0  0
   -5.6430   14.6040    1.8150 C   0  0  0  0  0  0  0  0  0  0  0  0
   -5.7580   15.2600   -0.6560 C   0  0  0  0  0  0  0  0  0  0  0  0
   -6.5210   14.6900    0.5630 C   0  0  0  0  0  0  0  0  0  0  0  0
   -7.2550   13.3970    0.2700 C   0  0  0  0  0  0  0  0  0  0  0  0
   -8.6260   13.7130    0.0530 O   0  0  0  0  0  0  0  0  0  0  0  0
  2  1  1  1
  2  3  1  0
  2  4  1  0
  4  5  2  3
  4  6  1  0
  3  7  1  0
  5  8  1  0
  7  9  2  0
  7 10  1  0
  9 11  1  0
  9 12  1  0
 10 13  2  0
  8 14  1  0
 12 15  2  0
 13 15  1  0
 14 16  2  0
 14 17  1  0
 17 18  2  0
 16 19  1  0
 19 20  1  0
 18 21  1  0
 19 21  2  0
 20 22  1  0
 20 23  1  0
 22 24  1  0
 23 25  1  0
 24 26  1  0
 25 26  1  0
 26 27  1  0
 27 28  1  0
M  END
