x0471_0_A-x1015_0_A
     RDKit          3D

 33 36  0  0  0  0  0  0  0  0999 V2000
   -8.7550   14.1130    2.8600 N   0  0  0  0  0  0  0  0  0  0  0  0
   -9.1580   15.1530    3.6650 C   0  0  0  0  0  0  0  0  0  0  0  0
   -9.4350   16.2490    3.2000 O   0  0  0  0  0  0  0  0  0  0  0  0
   -8.8200   14.2600    1.4180 C   0  0  0  0  0  0  0  0  0  0  0  0
   -9.2600   14.8410    5.1640 C   0  0  0  0  0  0  0  0  0  0  0  0
   -7.4500   14.5490    0.9030 C   0  0  0  0  0  0  0  0  0  0  0  0
   -9.6030   13.3760    5.4190 C   0  0  0  0  0  0  0  0  0  0  0  0
   -8.0050   15.2670    5.9110 C   0  0  0  0  0  0  0  0  0  0  0  0
   -7.1710   14.7140   -0.4340 N   0  0  0  0  0  0  0  0  0  0  0  0
   -6.3580   14.6870    1.6240 N   0  0  0  0  0  0  0  0  0  0  0  0
   -5.3410   14.9470    0.7390 C   0  0  0  0  0  0  0  0  0  0  0  0
   -5.8230   14.9680   -0.5600 C   0  0  0  0  0  0  0  0  0  0  0  0
   -5.0090   15.2070   -1.6680 C   0  0  0  0  0  0  0  0  0  0  0  0
   -3.9790   15.1770    0.9810 C   0  0  0  0  0  0  0  0  0  0  0  0
   -3.6420   15.4280   -1.4240 C   0  0  0  0  0  0  0  0  0  0  0  0
   -3.1360   15.4170   -0.1130 C   0  0  0  0  0  0  0  0  0  0  0  0
   -2.7200   15.6710   -2.5970 C   0  0  0  0  0  0  0  0  0  0  0  0
   -2.3760   14.3400   -3.2730 C   0  0  0  0  0  0  0  0  0  0  0  0
   -1.2400   14.4880   -4.2950 C   0  0  0  0  0  0  0  0  0  0  0  0
    0.0290   13.6790   -3.9630 C   0  0  2  0  0  0  0  0  0  0  0  0
   -0.1320   12.2290   -3.9160 N   0  0  0  0  0  0  0  0  0  0  0  0
    0.4700   13.9490   -2.5300 C   0  0  0  0  0  0  0  0  0  0  0  0
    0.5720   15.0430   -1.9950 O   0  0  0  0  0  0  0  0  0  0  0  0
    0.2890   11.7220   -2.6740 C   0  0  0  0  0  0  0  0  0  0  0  0
    0.7420   12.7670   -1.9300 N   0  0  0  0  0  0  0  0  0  0  0  0
   -0.5160   11.4400   -5.0290 C   0  0  0  0  0  0  0  0  0  0  0  0
    0.2810   10.5570   -2.2690 O   0  0  0  0  0  0  0  0  0  0  0  0
    0.0540   11.6450   -6.2940 C   0  0  0  0  0  0  0  0  0  0  0  0
   -1.4770   10.4270   -4.9000 C   0  0  0  0  0  0  0  0  0  0  0  0
   -0.3230   10.8640   -7.3920 C   0  0  0  0  0  0  0  0  0  0  0  0
   -1.8570    9.6430   -5.9940 C   0  0  0  0  0  0  0  0  0  0  0  0
   -1.2790    9.8640   -7.2350 C   0  0  0  0  0  0  0  0  0  0  0  0
   -1.7480    8.9010   -8.5800 Cl  0  0  0  0  0  0  0  0  0  0  0  0
  1  2  1  0
  2  3  2  0
  1  4  1  0
  2  5  1  0
  4  6  1  0
  5  7  1  0
  5  8  1  0
  6  9  1  0
  6 10  2  0
 10 11  1  0
  9 12  1  0
 11 12  2  0
 12 13  1  0
 11 14  1  0
 13 15  2  0
 14 16  2  0
 15 16  1  0
 15 17  1  0
 17 18  1  0
 18 19  1  0
 20 19  1  1
 20 21  1  0
 20 22  1  0
 22 23  2  0
 21 24  1  0
 22 25  1  0
 24 25  1  0
 21 26  1  0
 24 27  2  0
 26 28  2  0
 26 29  1  0
 28 30  1  0
 29 31  2  0
 30 32  2  0
 31 32  1  0
 32 33  1  0
M  END
