x0471_0_A_α-x0574_0_A_α
     RDKit          3D

 23 25  0  0  0  0  0  0  0  0999 V2000
   -8.8130   14.0220    2.7980 N   0  0  0  0  0  0  0  0  0  0  0  0
   -9.1550   15.1000    3.5970 C   0  0  0  0  0  0  0  0  0  0  0  0
   -9.3790   16.2060    3.1160 O   0  0  0  0  0  0  0  0  0  0  0  0
   -8.8670   14.1060    1.3410 C   0  0  0  0  0  0  0  0  0  0  0  0
   -9.2730   14.8200    5.0980 C   0  0  0  0  0  0  0  0  0  0  0  0
   -7.5300   14.4930    0.8090 C   0  0  0  0  0  0  0  0  0  0  0  0
   -9.6080   13.3590    5.3850 C   0  0  0  0  0  0  0  0  0  0  0  0
   -8.0250   15.2680    5.8570 C   0  0  0  0  0  0  0  0  0  0  0  0
   -7.2150   14.4870   -0.5460 N   0  0  0  0  0  0  0  0  0  0  0  0
   -6.4990   14.8810    1.5210 N   0  0  0  0  0  0  0  0  0  0  0  0
   -5.5000   15.1470    0.6190 C   0  0  0  0  0  0  0  0  0  0  0  0
   -5.9150   14.9000   -0.6520 C   0  0  0  0  0  0  0  0  0  0  0  0
   -5.1540   15.0370   -1.8170 C   0  0  0  0  0  0  0  0  0  0  0  0
   -4.1200   15.6360    0.9330 C   0  0  1  0  0  0  0  0  0  0  0  0
   -3.9190   15.1950    2.2880 O   0  0  0  0  0  0  0  0  0  0  0  0
   -3.8240   15.0150   -1.5830 C   0  0  0  0  0  0  0  0  0  0  0  0
   -3.2390   14.8850   -0.1600 C   0  0  1  0  0  0  0  0  0  0  0  0
   -5.1240   14.8610    2.9960 C   0  0  0  0  0  0  0  0  0  0  0  0
   -1.3690   14.8850   -0.3380 S   0  0  0  0  0  0  0  0  0  0  0  0
   -3.1270   13.5550    0.4960 C   0  0  0  0  0  0  0  0  0  0  0  0
   -2.3780   13.8770    1.7420 N   0  0  0  0  0  0  0  0  0  0  0  0
   -1.1350   14.4540    1.3460 C   0  0  1  0  0  0  0  0  0  0  0  0
   -0.1040   13.4800    1.5040 N   0  0  0  0  0  0  0  0  0  0  0  0
  1  2  1  0
  2  3  2  0
  1  4  1  0
  2  5  1  0
  4  6  1  0
  5  7  1  0
  5  8  1  0
  6  9  1  0
  6 10  2  0
 10 11  1  0
  9 12  1  0
 11 12  2  0
 12 13  1  0
 11 14  1  0
 14 15  1  1
 13 16  2  0
 14 17  1  0
 17 16  1  6
 15 18  1  0
 17 19  1  0
 17 20  1  0
 20 21  1  0
 19 22  1  0
 21 22  1  0
 22 23  1  6
M  END
