x0471_0_A-x0465_0_A
     RDKit          3D

 32 34  0  0  0  0  0  0  0  0999 V2000
   -8.7130   14.1990    2.8160 N   0  0  0  0  0  0  0  0  0  0  0  0
   -9.1460   15.1970    3.6620 C   0  0  0  0  0  0  0  0  0  0  0  0
   -9.4800   16.2900    3.2320 O   0  0  0  0  0  0  0  0  0  0  0  0
   -8.7710   14.4020    1.3810 C   0  0  0  0  0  0  0  0  0  0  0  0
   -9.2140   14.8400    5.1530 C   0  0  0  0  0  0  0  0  0  0  0  0
   -7.3750   14.5690    0.8830 C   0  0  0  0  0  0  0  0  0  0  0  0
   -9.6180   13.3820    5.3720 C   0  0  0  0  0  0  0  0  0  0  0  0
   -7.9190   15.1760    5.8870 C   0  0  0  0  0  0  0  0  0  0  0  0
   -7.0820   14.8980   -0.4220 N   0  0  0  0  0  0  0  0  0  0  0  0
   -6.2730   14.4390    1.5820 N   0  0  0  0  0  0  0  0  0  0  0  0
   -5.2270   14.6810    0.7190 C   0  0  0  0  0  0  0  0  0  0  0  0
   -5.7100   14.9730   -0.5450 C   0  0  0  0  0  0  0  0  0  0  0  0
   -4.8770   15.2610   -1.6250 C   0  0  0  0  0  0  0  0  0  0  0  0
   -3.8340   14.6630    0.9520 C   0  0  0  0  0  0  0  0  0  0  0  0
   -3.4950   15.2350   -1.3800 C   0  0  0  0  0  0  0  0  0  0  0  0
   -2.9510   14.9400   -0.1150 C   0  0  0  0  0  0  0  0  0  0  0  0
   -1.4320   14.9190    0.0900 C   0  0  0  0  0  0  0  0  0  0  0  0
   -0.7020   13.5980   -0.0360 C   0  0  0  0  0  0  0  0  0  0  0  0
    0.2620   13.5490   -1.2370 C   0  0  0  0  0  0  0  0  0  0  0  0
    0.3250   12.1530   -1.5870 N   0  0  0  0  0  0  0  0  0  0  0  0
    0.4920   11.6520   -2.7660 C   0  0  0  0  0  0  0  0  0  0  0  0
    0.6790   12.4170   -4.1150 C   0  0  1  0  0  0  0  0  0  0  0  0
    0.4790   10.3020   -2.8170 O   0  0  0  0  0  0  0  0  0  0  0  0
    2.0650   13.0560   -4.2140 C   0  0  0  0  0  0  0  0  0  0  0  0
    0.5450   11.4740   -5.2070 O   0  0  0  0  0  0  0  0  0  0  0  0
   -0.6520   10.8400   -5.4440 C   0  0  0  0  0  0  0  0  0  0  0  0
   -0.6800    9.9000   -6.5010 C   0  0  0  0  0  0  0  0  0  0  0  0
   -1.8250   11.0540   -4.7260 C   0  0  0  0  0  0  0  0  0  0  0  0
    0.4080    9.6480   -7.2390 F   0  0  0  0  0  0  0  0  0  0  0  0
   -1.8400    9.2000   -6.8170 C   0  0  0  0  0  0  0  0  0  0  0  0
   -2.9940   10.3490   -5.0480 C   0  0  0  0  0  0  0  0  0  0  0  0
   -3.0010    9.4230   -6.0890 C   0  0  0  0  0  0  0  0  0  0  0  0
  1  2  1  0
  2  3  2  0
  1  4  1  0
  2  5  1  0
  4  6  1  0
  5  7  1  0
  5  8  1  0
  6  9  1  0
  6 10  2  0
 10 11  1  0
  9 12  1  0
 11 12  2  0
 12 13  1  0
 11 14  1  0
 13 15  2  0
 14 16  2  0
 15 16  1  0
 16 17  1  0
 17 18  1  0
 18 19  1  0
 19 20  1  0
 20 21  2  3
 21 22  1  0
 21 23  1  0
 22 24  1  1
 22 25  1  0
 25 26  1  0
 26 27  2  0
 26 28  1  0
 27 29  1  0
 27 30  1  0
 28 31  2  0
 30 32  2  0
 31 32  1  0
M  END
