x0471_0_A-x0805_0_A
     RDKit          3D

 32 35  0  0  0  0  0  0  0  0999 V2000
   -9.2870   14.0170    2.9940 N   0  0  0  0  0  0  0  0  0  0  0  0
   -9.2910   15.1280    3.8120 C   0  0  0  0  0  0  0  0  0  0  0  0
   -9.3240   16.2640    3.3490 O   0  0  0  0  0  0  0  0  0  0  0  0
   -9.4130   14.1680    1.5600 C   0  0  0  0  0  0  0  0  0  0  0  0
   -9.2890   14.8280    5.3110 C   0  0  0  0  0  0  0  0  0  0  0  0
   -8.0750   14.4800    1.0340 C   0  0  0  0  0  0  0  0  0  0  0  0
   -9.6670   13.3760    5.5930 C   0  0  0  0  0  0  0  0  0  0  0  0
   -7.9520   15.1940    5.9500 C   0  0  0  0  0  0  0  0  0  0  0  0
   -7.8770   14.9430   -0.2410 N   0  0  0  0  0  0  0  0  0  0  0  0
   -6.9560   14.3620    1.6910 N   0  0  0  0  0  0  0  0  0  0  0  0
   -5.9980   14.7550    0.8230 C   0  0  0  0  0  0  0  0  0  0  0  0
   -6.5410   15.1310   -0.4060 C   0  0  0  0  0  0  0  0  0  0  0  0
   -5.8020   15.5810   -1.4830 C   0  0  0  0  0  0  0  0  0  0  0  0
   -4.6440   14.8140    1.0170 C   0  0  0  0  0  0  0  0  0  0  0  0
   -4.4490   15.6280   -1.2690 C   0  0  0  0  0  0  0  0  0  0  0  0
   -3.9330   15.2390   -0.0420 C   0  0  0  0  0  0  0  0  0  0  0  0
   -2.6570   15.2540    0.0720 O   0  0  0  0  0  0  0  0  0  0  0  0
   -2.4610   14.5750   -1.0610 C   0  0  0  0  0  0  0  0  0  0  0  0
   -3.5300   13.7460   -1.4780 C   0  0  0  0  0  0  0  0  0  0  0  0
   -1.3590   14.6550   -1.7890 C   0  0  0  0  0  0  0  0  0  0  0  0
   -3.4370   13.0150   -2.6590 C   0  0  0  0  0  0  0  0  0  0  0  0
   -1.2430   13.9510   -2.9430 C   0  0  0  0  0  0  0  0  0  0  0  0
   -2.2710   13.1180   -3.4100 C   0  0  0  0  0  0  0  0  0  0  0  0
    0.0750   14.2410   -3.5080 C   0  0  1  0  0  0  0  0  0  0  0  0
    1.1280   13.1860   -3.2550 C   0  0  1  0  0  0  0  0  0  0  0  0
    0.2380   14.9260   -4.8240 C   0  0  0  0  0  0  0  0  0  0  0  0
    0.5690   11.9010   -2.7220 C   0  0  0  0  0  0  0  0  0  0  0  0
    2.0030   13.1350   -4.4860 C   0  0  0  0  0  0  0  0  0  0  0  0
    1.6210   15.5050   -4.7400 C   0  0  0  0  0  0  0  0  0  0  0  0
    0.3420   10.9310   -3.6310 O   0  0  0  0  0  0  0  0  0  0  0  0
    0.3360   11.7620   -1.5370 O   0  0  0  0  0  0  0  0  0  0  0  0
    2.5800   14.4380   -4.5680 O   0  0  0  0  0  0  0  0  0  0  0  0
  1  2  1  0
  2  3  2  0
  1  4  1  0
  2  5  1  0
  4  6  1  0
  5  7  1  0
  5  8  1  0
  6  9  1  0
  6 10  2  0
 10 11  1  0
  9 12  1  0
 11 12  2  0
 12 13  1  0
 11 14  1  0
 13 15  2  0
 14 16  2  0
 15 16  1  0
 16 17  1  0
 17 18  1  0
 18 19  2  0
 18 20  1  0
 19 21  1  0
 20 22  2  0
 21 23  2  0
 22 23  1  0
 24 22  1  6
 24 25  1  0
 24 26  1  0
 25 27  1  6
 25 28  1  0
 26 29  1  0
 27 30  1  0
 27 31  2  0
 28 32  1  0
 29 32  1  0
M  END
