x0471_0_A-x0685_0_A
     RDKit          3D

 20 22  0  0  0  0  0  0  0  0999 V2000
   -8.7260   13.7560    2.3600 N   0  0  0  0  0  0  0  0  0  0  0  0
   -8.0000   14.7610    3.0450 C   0  0  1  0  0  0  0  0  0  0  0  0
   -8.6470   15.9450    2.6420 O   0  0  0  0  0  0  0  0  0  0  0  0
   -9.2600   14.3170    1.1620 C   0  0  0  0  0  0  0  0  0  0  0  0
   -8.5160   14.7130    4.5720 C   0  0  0  0  0  0  0  0  0  0  0  0
   -6.5410   14.9520    2.6980 N   0  0  0  0  0  0  0  0  0  0  0  0
   -8.2650   14.4370    0.0430 C   0  0  0  0  0  0  0  0  0  0  0  0
   -9.0230   13.3520    5.0810 C   0  0  0  0  0  0  0  0  0  0  0  0
   -7.6960   15.3930    5.6630 C   0  0  0  0  0  0  0  0  0  0  0  0
   -6.8380   14.7150    0.1230 C   0  0  0  0  0  0  0  0  0  0  0  0
   -6.0060   14.9470    1.3030 C   0  0  0  0  0  0  0  0  0  0  0  0
   -8.8670   14.2470   -1.2020 C   0  0  0  0  0  0  0  0  0  0  0  0
   -8.2570   14.2960   -2.3860 N   0  0  0  0  0  0  0  0  0  0  0  0
   -6.2130   14.7620   -1.1650 C   0  0  0  0  0  0  0  0  0  0  0  0
   -4.5850   15.2030    1.0420 C   0  0  0  0  0  0  0  0  0  0  0  0
   -4.8680   15.0140   -1.3410 C   0  0  0  0  0  0  0  0  0  0  0  0
   -4.0380   15.2320   -0.2740 C   0  0  0  0  0  0  0  0  0  0  0  0
   -6.9530   14.5530   -2.3300 C   0  0  0  0  0  0  0  0  0  0  0  0
   -2.5910   15.4870   -0.5970 C   0  0  0  0  0  0  0  0  0  0  0  0
   -2.3880   15.3720   -2.0530 N   0  0  0  0  0  0  0  0  0  0  0  0
  1  2  1  0
  2  3  1  6
  1  4  1  0
  2  5  1  0
  2  6  1  0
  4  7  1  0
  5  8  1  0
  5  9  1  0
  7 10  1  0
  6 11  1  0
 10 11  2  0
  7 12  2  0
 12 13  1  0
 10 14  1  0
 11 15  1  0
 14 16  2  0
 15 17  2  0
 16 17  1  0
 13 18  2  0
 14 18  1  0
 17 19  1  0
 19 20  1  0
M  END
