x0471_0_A-x0587_0_A
     RDKit          3D

 20 21  0  0  0  0  0  0  0  0999 V2000
   -8.5860   13.9090    2.3190 N   0  0  0  0  0  0  0  0  0  0  0  0
   -8.8490   14.8610    3.3090 C   0  0  0  0  0  0  0  0  0  0  0  0
   -9.2220   16.0090    3.0610 O   0  0  0  0  0  0  0  0  0  0  0  0
   -8.4120   14.2050    0.8840 C   0  0  0  0  0  0  0  0  0  0  0  0
   -8.6550   14.3940    4.7620 C   0  0  0  0  0  0  0  0  0  0  0  0
   -6.9590   14.5410    0.6540 C   0  0  0  0  0  0  0  0  0  0  0  0
   -9.8960   13.6730    5.2970 C   0  0  0  0  0  0  0  0  0  0  0  0
   -8.2530   15.5420    5.6890 C   0  0  0  0  0  0  0  0  0  0  0  0
   -6.1580   14.6000   -0.5210 N   0  0  0  0  0  0  0  0  0  0  0  0
   -6.1770   14.8590    1.6660 N   0  0  0  0  0  0  0  0  0  0  0  0
   -6.2110   14.3950   -1.9290 C   0  0  0  0  0  0  0  0  0  0  0  0
   -4.9370   15.1130    1.1270 C   0  0  0  0  0  0  0  0  0  0  0  0
   -4.9460   14.9620   -0.2150 C   0  0  0  0  0  0  0  0  0  0  0  0
   -4.9660   14.7500   -2.3710 F   0  0  0  0  0  0  0  0  0  0  0  0
   -6.3170   13.0920   -2.2730 F   0  0  0  0  0  0  0  0  0  0  0  0
   -7.0470   15.1680   -2.6270 F   0  0  0  0  0  0  0  0  0  0  0  0
   -3.8690   15.1550   -1.0700 C   0  0  0  0  0  0  0  0  0  0  0  0
   -3.7340   15.4820    1.7010 C   0  0  0  0  0  0  0  0  0  0  0  0
   -2.6840   15.5270   -0.4980 C   0  0  0  0  0  0  0  0  0  0  0  0
   -2.6110   15.6850    0.8730 C   0  0  0  0  0  0  0  0  0  0  0  0
  1  2  1  0
  2  3  2  0
  1  4  1  0
  2  5  1  0
  4  6  1  0
  5  7  1  0
  5  8  1  0
  6  9  1  0
  6 10  2  0
  9 11  1  0
 10 12  1  0
  9 13  1  0
 12 13  2  0
 11 14  1  0
 11 15  1  0
 11 16  1  0
 13 17  1  0
 12 18  1  0
 17 19  2  0
 18 20  2  0
 19 20  1  0
M  END
