x0471_0_A_α-x0895_0_A_α
     RDKit          3D

 17 18  0  0  0  0  0  0  0  0999 V2000
   -8.8560   14.0390    2.6680 N   0  0  0  0  0  0  0  0  0  0  0  0
   -8.9730   14.9700    3.6810 C   0  0  0  0  0  0  0  0  0  0  0  0
   -9.2840   16.1410    3.4790 O   0  0  0  0  0  0  0  0  0  0  0  0
   -8.8390   14.4580    1.2730 C   0  0  0  0  0  0  0  0  0  0  0  0
   -8.7000   14.4400    5.0870 C   0  0  0  0  0  0  0  0  0  0  0  0
   -7.4020   14.6450    0.8260 C   0  0  0  0  0  0  0  0  0  0  0  0
   -9.9000   13.6660    5.6310 C   0  0  0  0  0  0  0  0  0  0  0  0
   -8.2930   15.5680    6.0350 C   0  0  0  0  0  0  0  0  0  0  0  0
   -7.0900   14.8140   -0.5320 N   0  0  0  0  0  0  0  0  0  0  0  0
   -6.4060   14.6760    1.6590 N   0  0  0  0  0  0  0  0  0  0  0  0
   -5.3150   14.8400    0.8660 C   0  0  0  0  0  0  0  0  0  0  0  0
   -5.7970   14.9650   -0.5050 C   0  0  0  0  0  0  0  0  0  0  0  0
   -4.8340   15.2240   -1.5750 C   0  0  0  0  0  0  0  0  0  0  0  0
   -4.0270   14.8790    1.1880 C   0  0  0  0  0  0  0  0  0  0  0  0
   -3.5260   15.2470   -1.2600 C   0  0  0  0  0  0  0  0  0  0  0  0
   -3.0310   15.0120    0.1320 C   0  0  0  0  0  0  0  0  0  0  0  0
   -1.8350   14.8820    0.4140 O   0  0  0  0  0  0  0  0  0  0  0  0
  1  2  1  0
  2  3  2  0
  1  4  1  0
  2  5  1  0
  4  6  1  0
  5  7  1  0
  5  8  1  0
  6  9  1  0
  6 10  2  0
 10 11  1  0
  9 12  2  0
 11 12  1  0
 12 13  1  0
 11 14  2  0
 13 15  2  0
 14 16  1  0
 15 16  1  0
 16 17  2  0
M  END
