x0471_0_A_α-x0104_0_A_β
     RDKit          3D

 19 20  0  0  0  0  0  0  0  0999 V2000
   -8.6210   13.7070    2.6650 N   0  0  0  0  0  0  0  0  0  0  0  0
   -9.0350   14.8800    3.3220 C   0  0  0  0  0  0  0  0  0  0  0  0
   -9.2220   15.9500    2.7450 O   0  0  0  0  0  0  0  0  0  0  0  0
   -8.3670   13.6170    1.1980 C   0  0  0  0  0  0  0  0  0  0  0  0
   -9.2750   14.7510    4.8390 C   0  0  0  0  0  0  0  0  0  0  0  0
   -7.1720   14.5000    0.7070 C   0  0  2  0  0  0  0  0  0  0  0  0
   -9.5820   13.3180    5.2740 C   0  0  0  0  0  0  0  0  0  0  0  0
   -8.1230   15.3480    5.6540 C   0  0  0  0  0  0  0  0  0  0  0  0
   -6.6840   14.5770   -0.7470 N   0  0  0  0  0  0  0  0  0  0  0  0
   -5.9600   14.4110    1.5440 N   0  0  0  0  0  0  0  0  0  0  0  0
   -6.2340   14.9260    2.8850 N   0  0  0  0  0  0  0  0  0  0  0  0
   -5.9290   13.3980   -1.2050 O   0  0  0  0  0  0  0  0  0  0  0  0
   -4.9800   15.2800    0.8680 C   0  0  2  0  0  0  0  0  0  0  0  0
   -5.5590   15.5340   -0.5670 C   0  0  1  0  0  0  0  0  0  0  0  0
   -5.0630   13.7610   -2.3060 C   0  0  0  0  0  0  0  0  0  0  0  0
   -4.5250   15.5490   -1.6470 C   0  0  0  0  0  0  0  0  0  0  0  0
   -3.5850   14.7510    0.9330 C   0  0  0  0  0  0  0  0  0  0  0  0
   -3.2570   15.1750   -1.4320 C   0  0  0  0  0  0  0  0  0  0  0  0
   -2.8000   14.7190   -0.1430 C   0  0  0  0  0  0  0  0  0  0  0  0
  1  2  1  0
  2  3  2  0
  1  4  1  0
  2  5  1  0
  6  4  1  6
  5  7  1  0
  5  8  1  0
  6  9  1  0
  6 10  1  0
 10 11  1  0
  9 12  1  0
 10 13  1  0
  9 14  1  0
 13 14  1  0
 12 15  1  0
 14 16  1  6
 13 17  1  6
 16 18  2  0
 17 19  2  0
 18 19  1  0
M  END
