x0471_0_A-x0685_0_A
     RDKit          3D

 20 22  0  0  0  0  0  0  0  0999 V2000
   -8.7290   13.7310    2.3600 N   0  0  0  0  0  0  0  0  0  0  0  0
   -8.0160   14.7610    3.0190 C   0  0  1  0  0  0  0  0  0  0  0  0
   -8.6590   15.9300    2.5630 O   0  0  0  0  0  0  0  0  0  0  0  0
   -9.2750   14.2670    1.1530 C   0  0  0  0  0  0  0  0  0  0  0  0
   -8.5230   14.7760    4.5490 C   0  0  0  0  0  0  0  0  0  0  0  0
   -6.5540   14.9460    2.6830 N   0  0  0  0  0  0  0  0  0  0  0  0
   -8.2790   14.3960    0.0350 C   0  0  0  0  0  0  0  0  0  0  0  0
   -9.3250   13.5440    5.0140 C   0  0  0  0  0  0  0  0  0  0  0  0
   -7.5120   15.1340    5.6160 C   0  0  0  0  0  0  0  0  0  0  0  0
   -6.8530   14.6890    0.1140 C   0  0  0  0  0  0  0  0  0  0  0  0
   -6.0200   14.9360    1.2890 C   0  0  0  0  0  0  0  0  0  0  0  0
   -8.8790   14.1950   -1.2120 C   0  0  0  0  0  0  0  0  0  0  0  0
   -8.2680   14.2450   -2.3930 N   0  0  0  0  0  0  0  0  0  0  0  0
   -6.2270   14.7360   -1.1750 C   0  0  0  0  0  0  0  0  0  0  0  0
   -4.6040   15.2020    1.0310 C   0  0  0  0  0  0  0  0  0  0  0  0
   -4.8840   14.9980   -1.3480 C   0  0  0  0  0  0  0  0  0  0  0  0
   -4.0520   15.2280   -0.2850 C   0  0  0  0  0  0  0  0  0  0  0  0
   -6.9660   14.5150   -2.3360 C   0  0  0  0  0  0  0  0  0  0  0  0
   -2.6070   15.4910   -0.6050 C   0  0  0  0  0  0  0  0  0  0  0  0
   -2.4130   15.3850   -2.0620 N   0  0  0  0  0  0  0  0  0  0  0  0
  1  2  1  0
  2  3  1  6
  1  4  1  0
  2  5  1  0
  2  6  1  0
  4  7  1  0
  5  8  1  0
  5  9  1  0
  7 10  1  0
  6 11  1  0
 10 11  2  0
  7 12  2  0
 12 13  1  0
 10 14  1  0
 11 15  1  0
 14 16  2  0
 15 17  2  0
 16 17  1  0
 13 18  2  0
 14 18  1  0
 17 19  1  0
 19 20  1  0
M  END
