x0471_0_A-x0950_0_A
     RDKit          3D

 25 26  0  0  0  0  0  0  0  0999 V2000
   -8.7970   14.2320    2.7730 N   0  0  0  0  0  0  0  0  0  0  0  0
   -9.1860   15.1760    3.6890 C   0  0  0  0  0  0  0  0  0  0  0  0
   -9.5000   16.2840    3.2650 O   0  0  0  0  0  0  0  0  0  0  0  0
   -8.8250   14.4000    1.3280 C   0  0  0  0  0  0  0  0  0  0  0  0
   -9.2510   14.8380    5.1800 C   0  0  0  0  0  0  0  0  0  0  0  0
   -7.4170   14.5740    0.8720 C   0  0  0  0  0  0  0  0  0  0  0  0
   -9.5890   13.3670    5.4220 C   0  0  0  0  0  0  0  0  0  0  0  0
   -7.9500   15.2330    5.8750 C   0  0  0  0  0  0  0  0  0  0  0  0
   -7.0560   14.9090   -0.4140 N   0  0  0  0  0  0  0  0  0  0  0  0
   -6.3560   14.4300    1.6240 N   0  0  0  0  0  0  0  0  0  0  0  0
   -5.2750   14.6710    0.8250 C   0  0  0  0  0  0  0  0  0  0  0  0
   -5.6740   14.9790   -0.4670 C   0  0  0  0  0  0  0  0  0  0  0  0
   -4.7640   15.2660   -1.4860 C   0  0  0  0  0  0  0  0  0  0  0  0
   -3.9120   14.6360    1.1480 C   0  0  0  0  0  0  0  0  0  0  0  0
   -3.3970   15.2200   -1.1460 C   0  0  0  0  0  0  0  0  0  0  0  0
   -2.9540   14.9040    0.1600 C   0  0  0  0  0  0  0  0  0  0  0  0
   -1.4790   14.8290    0.5550 C   0  0  0  0  0  0  0  0  0  0  0  0
   -0.8160   13.5800   -0.0260 C   0  0  0  0  0  0  0  0  0  0  0  0
    0.0120   13.8070   -1.2920 C   0  0  0  0  0  0  0  0  0  0  0  0
    0.7890   12.6100   -1.5080 O   0  0  0  0  0  0  0  0  0  0  0  0
    0.7220   12.0070   -2.7540 C   0  0  0  0  0  0  0  0  0  0  0  0
    1.3180   12.8850   -3.8760 C   0  0  1  0  0  0  0  0  0  0  0  0
    0.2490   10.8930   -2.9290 O   0  0  0  0  0  0  0  0  0  0  0  0
    2.8380   12.9440   -3.8030 C   0  0  0  0  0  0  0  0  0  0  0  0
    0.9770   12.4050   -5.1770 O   0  0  0  0  0  0  0  0  0  0  0  0
  1  2  1  0
  2  3  2  0
  1  4  1  0
  2  5  1  0
  4  6  1  0
  5  7  1  0
  5  8  1  0
  6  9  1  0
  6 10  2  0
 10 11  1  0
  9 12  1  0
 11 12  2  0
 12 13  1  0
 11 14  1  0
 13 15  2  0
 14 16  2  0
 15 16  1  0
 16 17  1  0
 17 18  1  0
 18 19  1  0
 19 20  1  0
 20 21  1  0
 21 22  1  0
 21 23  2  0
 22 24  1  6
 22 25  1  0
M  END
