x0471_0_A_α-x0685_0_A_α
     RDKit          3D

 20 22  0  0  0  0  0  0  0  0999 V2000
   -8.7530   13.7430    2.3220 N   0  0  0  0  0  0  0  0  0  0  0  0
   -7.9980   14.7350    2.9910 C   0  0  1  0  0  0  0  0  0  0  0  0
   -8.6110   15.9280    2.5680 O   0  0  0  0  0  0  0  0  0  0  0  0
   -9.2900   14.3190    1.1280 C   0  0  0  0  0  0  0  0  0  0  0  0
   -8.4980   14.7370    4.5190 C   0  0  0  0  0  0  0  0  0  0  0  0
   -6.5310   14.8510    2.6330 N   0  0  0  0  0  0  0  0  0  0  0  0
   -8.3020   14.4870    0.0040 C   0  0  0  0  0  0  0  0  0  0  0  0
   -9.2450   13.4750    4.9990 C   0  0  0  0  0  0  0  0  0  0  0  0
   -7.5010   15.1580    5.5780 C   0  0  0  0  0  0  0  0  0  0  0  0
   -6.8670   14.7500    0.0700 C   0  0  0  0  0  0  0  0  0  0  0  0
   -6.0140   14.9180    1.2420 C   0  0  0  0  0  0  0  0  0  0  0  0
   -8.9190   14.3630   -1.2460 C   0  0  0  0  0  0  0  0  0  0  0  0
   -8.3270   14.4620   -2.4300 N   0  0  0  0  0  0  0  0  0  0  0  0
   -6.2630   14.8530   -1.2230 C   0  0  0  0  0  0  0  0  0  0  0  0
   -4.5980   15.1720    0.9830 C   0  0  0  0  0  0  0  0  0  0  0  0
   -4.9160   15.1000   -1.4000 C   0  0  0  0  0  0  0  0  0  0  0  0
   -4.0640   15.2580   -0.3370 C   0  0  0  0  0  0  0  0  0  0  0  0
   -7.0170   14.7060   -2.3830 C   0  0  0  0  0  0  0  0  0  0  0  0
   -2.6210   15.5090   -0.6550 C   0  0  0  0  0  0  0  0  0  0  0  0
   -2.4180   15.3720   -2.1060 N   0  0  0  0  0  0  0  0  0  0  0  0
  1  2  1  0
  2  3  1  6
  1  4  1  0
  2  5  1  0
  2  6  1  0
  4  7  1  0
  5  8  1  0
  5  9  1  0
  7 10  1  0
  6 11  1  0
 10 11  2  0
  7 12  2  0
 12 13  1  0
 10 14  1  0
 11 15  1  0
 14 16  2  0
 15 17  2  0
 16 17  1  0
 13 18  2  0
 14 18  1  0
 17 19  1  0
 19 20  1  0
M  END
