x0471_0_A-x1012_0_A
     RDKit          3D

 30 32  0  0  0  0  0  0  0  0999 V2000
   -8.8310   14.0070    2.8710 N   0  0  0  0  0  0  0  0  0  0  0  0
   -8.9510   14.9740    3.8410 C   0  0  0  0  0  0  0  0  0  0  0  0
   -9.2650   16.1330    3.5830 O   0  0  0  0  0  0  0  0  0  0  0  0
   -8.9590   14.3630    1.4820 C   0  0  0  0  0  0  0  0  0  0  0  0
   -8.6710   14.4570    5.2470 C   0  0  0  0  0  0  0  0  0  0  0  0
   -7.5990   14.6060    0.9470 C   0  0  0  0  0  0  0  0  0  0  0  0
   -9.8960   13.6950    5.7650 C   0  0  0  0  0  0  0  0  0  0  0  0
   -8.2950   15.6010    6.1860 C   0  0  0  0  0  0  0  0  0  0  0  0
   -7.3900   14.7100   -0.3970 N   0  0  0  0  0  0  0  0  0  0  0  0
   -6.4690   14.7410    1.6180 N   0  0  0  0  0  0  0  0  0  0  0  0
   -5.4960   14.9540    0.6670 C   0  0  0  0  0  0  0  0  0  0  0  0
   -6.0640   14.9290   -0.5960 C   0  0  0  0  0  0  0  0  0  0  0  0
   -5.3540   15.1020   -1.7540 C   0  0  0  0  0  0  0  0  0  0  0  0
   -4.1100   15.1660    0.7960 C   0  0  0  0  0  0  0  0  0  0  0  0
   -3.9890   15.3010   -1.6430 C   0  0  0  0  0  0  0  0  0  0  0  0
   -3.3580   15.3440   -0.3790 C   0  0  0  0  0  0  0  0  0  0  0  0
   -3.2620   15.4600   -2.9420 C   0  0  0  0  0  0  0  0  0  0  0  0
   -1.9540   16.1740   -2.8360 C   0  0  0  0  0  0  0  0  0  0  0  0
   -1.8780   17.2420   -3.8270 N   0  0  0  0  0  0  0  0  0  0  0  0
   -1.1860   17.0420   -4.8400 C   0  0  0  0  0  0  0  0  0  0  0  0
   -0.9530   17.9240   -5.8380 N   0  0  0  0  0  0  0  0  0  0  0  0
   -0.5750   15.8110   -4.9910 N   0  0  0  0  0  0  0  0  0  0  0  0
   -1.4410   14.6080   -5.0440 C   0  0  0  0  0  0  0  0  0  0  0  0
    0.8570   15.6000   -4.7160 C   0  0  0  0  0  0  0  0  0  0  0  0
   -1.2050   13.6370   -3.8880 C   0  0  0  0  0  0  0  0  0  0  0  0
    1.0950   14.6620   -3.5270 C   0  0  0  0  0  0  0  0  0  0  0  0
    0.2800   13.3620   -3.6480 C   0  0  0  0  0  0  0  0  0  0  0  0
    0.3710   12.4340   -2.4470 C   0  0  0  0  0  0  0  0  0  0  0  0
    0.1170   11.1500   -2.7340 O   0  0  0  0  0  0  0  0  0  0  0  0
    0.6310   12.7520   -1.2960 O   0  0  0  0  0  0  0  0  0  0  0  0
  1  2  1  0
  2  3  2  0
  1  4  1  0
  2  5  1  0
  4  6  1  0
  5  7  1  0
  5  8  1  0
  6  9  1  0
  6 10  2  0
 10 11  1  0
  9 12  1  0
 11 12  2  0
 12 13  1  0
 11 14  1  0
 13 15  2  0
 14 16  2  0
 15 16  1  0
 15 17  1  0
 17 18  1  0
 18 19  1  0
 19 20  2  3
 20 21  1  0
 20 22  1  0
 22 23  1  0
 22 24  1  0
 23 25  1  0
 24 26  1  0
 25 27  1  0
 26 27  1  0
 27 28  1  0
 28 29  1  0
 28 30  2  0
M  END
