x0471_0_A_α-x0962_1_A_α
     RDKit          3D

 18 19  0  0  0  0  0  0  0  0999 V2000
   -8.6960   14.1710    2.5650 N   0  0  0  0  0  0  0  0  0  0  0  0
   -9.1140   15.1510    3.4480 C   0  0  0  0  0  0  0  0  0  0  0  0
   -9.4410   16.2620    3.0460 O   0  0  0  0  0  0  0  0  0  0  0  0
   -8.5570   14.4520    1.1320 C   0  0  0  0  0  0  0  0  0  0  0  0
   -9.1990   14.8150    4.9430 C   0  0  0  0  0  0  0  0  0  0  0  0
   -7.0940   14.6280    0.8290 C   0  0  0  0  0  0  0  0  0  0  0  0
   -9.5840   13.3640    5.2090 C   0  0  0  0  0  0  0  0  0  0  0  0
   -7.9450   15.2350    5.7040 C   0  0  0  0  0  0  0  0  0  0  0  0
   -6.4630   14.7490   -0.4110 N   0  0  0  0  0  0  0  0  0  0  0  0
   -6.1460   14.6990    1.7540 N   0  0  0  0  0  0  0  0  0  0  0  0
   -6.7580   14.7710   -1.8050 C   0  0  0  0  0  0  0  0  0  0  0  0
   -4.9500   14.8530    1.0730 C   0  0  0  0  0  0  0  0  0  0  0  0
   -5.1730   14.8800   -0.2590 C   0  0  0  0  0  0  0  0  0  0  0  0
   -6.7650   14.8040   -2.9470 N   0  0  0  0  0  0  0  0  0  0  0  0
   -4.2210   15.0170   -1.2560 C   0  0  0  0  0  0  0  0  0  0  0  0
   -3.6220   14.9770    1.4950 C   0  0  0  0  0  0  0  0  0  0  0  0
   -2.9240   15.1280   -0.8320 C   0  0  0  0  0  0  0  0  0  0  0  0
   -2.6210   15.1090    0.5260 C   0  0  0  0  0  0  0  0  0  0  0  0
  1  2  1  0
  2  3  2  0
  1  4  1  0
  2  5  1  0
  4  6  1  0
  5  7  1  0
  5  8  1  0
  6  9  1  0
  6 10  2  0
  9 11  1  0
 10 12  1  0
  9 13  1  0
 12 13  2  0
 11 14  3  0
 13 15  1  0
 12 16  1  0
 15 17  2  0
 16 18  2  0
 17 18  1  0
M  END
