x0471_0_A-x0685_1_A
     RDKit          3D

 31 33  0  0  0  0  0  0  0  0999 V2000
   -8.7210   14.0790    2.7110 N   0  0  0  0  0  0  0  0  0  0  0  0
   -8.9380   14.9760    3.7350 C   0  0  0  0  0  0  0  0  0  0  0  0
   -9.3180   16.1310    3.5340 O   0  0  0  0  0  0  0  0  0  0  0  0
   -8.8020   14.5150    1.3340 C   0  0  0  0  0  0  0  0  0  0  0  0
   -8.6940   14.4330    5.1370 C   0  0  0  0  0  0  0  0  0  0  0  0
   -7.4130   14.6250    0.8060 C   0  0  0  0  0  0  0  0  0  0  0  0
   -9.9090   13.6610    5.6570 C   0  0  0  0  0  0  0  0  0  0  0  0
   -8.2960   15.5650    6.0810 C   0  0  0  0  0  0  0  0  0  0  0  0
   -7.1580   14.9960   -0.4920 N   0  0  0  0  0  0  0  0  0  0  0  0
   -6.2870   14.4030    1.4570 N   0  0  0  0  0  0  0  0  0  0  0  0
   -5.2710   14.6280    0.5520 C   0  0  0  0  0  0  0  0  0  0  0  0
   -5.7990   15.0040   -0.6750 C   0  0  0  0  0  0  0  0  0  0  0  0
   -5.0100   15.2970   -1.7800 C   0  0  0  0  0  0  0  0  0  0  0  0
   -3.8680   14.5250    0.7020 C   0  0  0  0  0  0  0  0  0  0  0  0
   -3.6240   15.1870   -1.6160 C   0  0  0  0  0  0  0  0  0  0  0  0
   -3.0270   14.8000   -0.4010 C   0  0  0  0  0  0  0  0  0  0  0  0
   -1.4980   14.6970   -0.3750 C   0  0  0  0  0  0  0  0  0  0  0  0
   -0.8530   13.3300   -0.6430 C   0  0  0  0  0  0  0  0  0  0  0  0
    0.2280   13.4440   -1.5800 O   0  0  0  0  0  0  0  0  0  0  0  0
    0.6170   12.2810   -2.6400 S   0  0  0  0  0  0  0  0  0  0  0  0
   -0.1100   12.7350   -4.2180 C   0  0  0  0  0  0  0  0  0  0  0  0
    2.1910   12.2960   -2.9350 O   0  0  0  0  0  0  0  0  0  0  0  0
    0.1210   10.7850   -2.2690 O   0  0  0  0  0  0  0  0  0  0  0  0
   -1.3980   11.9720   -4.5000 C   0  0  0  0  0  0  0  0  0  0  0  0
   -1.0980   10.5670   -4.8070 N   0  0  0  0  0  0  0  0  0  0  0  0
   -1.3220   10.1310   -6.1940 C   0  0  0  0  0  0  0  0  0  0  0  0
   -0.6600    8.7620   -6.4640 C   0  0  0  0  0  0  0  0  0  0  0  0
   -1.0010   11.1610   -7.2900 C   0  0  0  0  0  0  0  0  0  0  0  0
    0.1400    8.7180   -7.7700 C   0  0  0  0  0  0  0  0  0  0  0  0
   -1.2550   10.6220   -8.7020 C   0  0  0  0  0  0  0  0  0  0  0  0
   -0.6810    9.2240   -8.9470 C   0  0  0  0  0  0  0  0  0  0  0  0
  1  2  1  0
  2  3  2  0
  1  4  1  0
  2  5  1  0
  4  6  1  0
  5  7  1  0
  5  8  1  0
  6  9  1  0
  6 10  2  0
 10 11  1  0
  9 12  1  0
 11 12  2  0
 12 13  1  0
 11 14  1  0
 13 15  2  0
 14 16  2  0
 15 16  1  0
 16 17  1  0
 17 18  1  0
 18 19  1  0
 20 19  1  0
 20 21  1  0
 20 22  1  0
 20 23  1  0
 21 24  1  0
 24 25  1  0
 25 26  1  0
 26 27  1  0
 26 28  1  0
 27 29  1  0
 28 30  1  0
 29 31  1  0
 30 31  1  0
M  END
