x0471_0_A_α-x0905_0_A_α
     RDKit          3D

 17 18  0  0  0  0  0  0  0  0999 V2000
   -9.0050   14.5780    2.7830 N   0  0  0  0  0  0  0  0  0  0  0  0
   -9.0950   15.1920    3.9750 C   0  0  0  0  0  0  0  0  0  0  0  0
   -9.4220   16.3860    4.1650 O   0  0  0  0  0  0  0  0  0  0  0  0
   -8.8580   14.0370    1.5570 C   0  0  0  0  0  0  0  0  0  0  0  0
   -8.7780   14.4400    5.2700 C   0  0  0  0  0  0  0  0  0  0  0  0
   -7.5730   14.3650    0.9120 C   0  0  0  0  0  0  0  0  0  0  0  0
   -9.9760   13.6560    5.7340 C   0  0  0  0  0  0  0  0  0  0  0  0
   -8.2770   15.4430    6.2940 C   0  0  0  0  0  0  0  0  0  0  0  0
   -7.2830   14.6770   -0.3370 N   0  0  0  0  0  0  0  0  0  0  0  0
   -6.3840   14.3970    1.5790 N   0  0  0  0  0  0  0  0  0  0  0  0
   -5.3940   14.7180    0.7490 C   0  0  0  0  0  0  0  0  0  0  0  0
   -5.9720   14.8970   -0.4700 C   0  0  0  0  0  0  0  0  0  0  0  0
   -5.1970   15.2310   -1.5020 C   0  0  0  0  0  0  0  0  0  0  0  0
   -4.0240   14.8750    0.9270 C   0  0  0  0  0  0  0  0  0  0  0  0
   -5.8400   15.3980   -2.7010 O   0  0  0  0  0  0  0  0  0  0  0  0
   -3.8150   15.4010   -1.3880 C   0  0  0  0  0  0  0  0  0  0  0  0
   -3.2250   15.2120   -0.1350 C   0  0  0  0  0  0  0  0  0  0  0  0
  1  2  1  0
  2  3  2  0
  1  4  1  0
  2  5  1  0
  4  6  1  0
  5  7  1  0
  5  8  1  0
  6  9  1  0
  6 10  2  0
 10 11  1  0
  9 12  1  0
 11 12  2  0
 12 13  1  0
 11 14  1  0
 13 15  1  0
 13 16  2  0
 14 17  2  0
 16 17  1  0
M  END
