x0471_0_A-x0962_1_A
     RDKit          3D

 18 19  0  0  0  0  0  0  0  0999 V2000
   -8.7010   14.1710    2.5610 N   0  0  0  0  0  0  0  0  0  0  0  0
   -9.1190   15.1490    3.4460 C   0  0  0  0  0  0  0  0  0  0  0  0
   -9.4510   16.2600    3.0480 O   0  0  0  0  0  0  0  0  0  0  0  0
   -8.5570   14.4590    1.1310 C   0  0  0  0  0  0  0  0  0  0  0  0
   -9.2010   14.8160    4.9430 C   0  0  0  0  0  0  0  0  0  0  0  0
   -7.0940   14.6280    0.8220 C   0  0  0  0  0  0  0  0  0  0  0  0
   -9.5800   13.3620    5.2140 C   0  0  0  0  0  0  0  0  0  0  0  0
   -7.9480   15.2430    5.6990 C   0  0  0  0  0  0  0  0  0  0  0  0
   -6.4640   14.7270   -0.4210 N   0  0  0  0  0  0  0  0  0  0  0  0
   -6.1460   14.7160    1.7450 N   0  0  0  0  0  0  0  0  0  0  0  0
   -6.7760   14.7240   -1.8120 C   0  0  0  0  0  0  0  0  0  0  0  0
   -4.9480   14.8630    1.0620 C   0  0  0  0  0  0  0  0  0  0  0  0
   -5.1700   14.8660   -0.2760 C   0  0  0  0  0  0  0  0  0  0  0  0
   -6.8070   14.7330   -2.9540 N   0  0  0  0  0  0  0  0  0  0  0  0
   -4.2120   14.9900   -1.2700 C   0  0  0  0  0  0  0  0  0  0  0  0
   -3.6270   14.9980    1.4890 C   0  0  0  0  0  0  0  0  0  0  0  0
   -2.9170   15.1120   -0.8370 C   0  0  0  0  0  0  0  0  0  0  0  0
   -2.6200   15.1180    0.5250 C   0  0  0  0  0  0  0  0  0  0  0  0
  1  2  1  0
  2  3  2  0
  1  4  1  0
  2  5  1  0
  4  6  1  0
  5  7  1  0
  5  8  1  0
  6  9  1  0
  6 10  2  0
  9 11  1  0
 10 12  1  0
  9 13  1  0
 12 13  2  0
 11 14  3  0
 13 15  1  0
 12 16  1  0
 15 17  2  0
 16 18  2  0
 17 18  1  0
M  END
