x0471_0_A-x0722_0_A
     RDKit          3D

 27 29  0  0  0  0  0  0  0  0999 V2000
   -8.5170   14.2880    2.5770 N   0  0  0  0  0  0  0  0  0  0  0  0
   -8.9050   15.0270    3.6660 C   0  0  0  0  0  0  0  0  0  0  0  0
   -9.4220   16.1310    3.4790 O   0  0  0  0  0  0  0  0  0  0  0  0
   -8.9840   14.4520    1.2090 C   0  0  0  0  0  0  0  0  0  0  0  0
   -8.6950   14.4440    5.0660 C   0  0  0  0  0  0  0  0  0  0  0  0
   -7.8370   14.6810    0.2740 C   0  0  0  0  0  0  0  0  0  0  0  0
   -9.9660   13.7370    5.5410 C   0  0  0  0  0  0  0  0  0  0  0  0
   -8.2970   15.5400    6.0570 C   0  0  0  0  0  0  0  0  0  0  0  0
   -6.5450   14.6040    0.6270 N   0  0  0  0  0  0  0  0  0  0  0  0
   -7.8870   14.9680   -0.9770 N   0  0  0  0  0  0  0  0  0  0  0  0
   -6.5780   15.0640   -1.3830 C   0  0  0  0  0  0  0  0  0  0  0  0
   -5.7080   14.8670   -0.4200 C   0  0  0  0  0  0  0  0  0  0  0  0
   -6.1670   14.2950    1.7910 N   0  0  0  0  0  0  0  0  0  0  0  0
   -4.3280   14.9580   -0.6940 C   0  0  0  0  0  0  0  0  0  0  0  0
   -6.0640   15.3220   -2.6240 C   0  0  0  0  0  0  0  0  0  0  0  0
   -5.4890   13.2420    1.5600 C   0  0  0  0  0  0  0  0  0  0  0  0
   -3.8380   15.2190   -1.9160 C   0  0  0  0  0  0  0  0  0  0  0  0
   -4.6960   15.3920   -2.8810 C   0  0  0  0  0  0  0  0  0  0  0  0
   -3.3310   14.8020    0.2070 C   0  0  0  0  0  0  0  0  0  0  0  0
   -5.2370   12.6040    0.3820 N   0  0  0  0  0  0  0  0  0  0  0  0
   -3.3790   15.0300    1.5370 C   0  0  0  0  0  0  0  0  0  0  0  0
   -2.0670   14.3910   -0.1180 C   0  0  0  0  0  0  0  0  0  0  0  0
   -4.5280   15.4990    2.2920 C   0  0  0  0  0  0  0  0  0  0  0  0
   -1.4220   14.0120   -1.3990 C   0  0  0  0  0  0  0  0  0  0  0  0
   -2.2300   14.7780    2.0630 N   0  0  0  0  0  0  0  0  0  0  0  0
   -1.4430   14.4020    1.0690 N   0  0  0  0  0  0  0  0  0  0  0  0
   -0.0910   14.0730    1.3490 C   0  0  0  0  0  0  0  0  0  0  0  0
  1  2  1  0
  2  3  2  0
  1  4  1  0
  2  5  1  0
  4  6  1  0
  5  7  1  0
  5  8  1  0
  6  9  1  0
  6 10  2  0
 10 11  1  0
  9 12  1  0
 11 12  2  0
  9 13  1  0
 12 14  1  0
 11 15  1  0
 13 16  2  3
 14 17  2  0
 15 18  2  0
 17 18  1  0
 14 19  1  0
 16 20  1  0
 19 21  1  0
 19 22  2  0
 21 23  1  0
 22 24  1  0
 21 25  2  0
 22 26  1  0
 25 26  1  0
 26 27  1  0
M  END
