x0471_0_A-x0689_0_A
     RDKit          3D

 23 25  0  0  0  0  0  0  0  0999 V2000
   -8.7840   13.9520    2.8890 N   0  0  0  0  0  0  0  0  0  0  0  0
   -8.9340   14.9320    3.8360 C   0  0  0  0  0  0  0  0  0  0  0  0
   -9.2480   16.0860    3.5490 O   0  0  0  0  0  0  0  0  0  0  0  0
   -9.0710   14.2300    1.5070 C   0  0  0  0  0  0  0  0  0  0  0  0
   -8.6880   14.4480    5.2640 C   0  0  0  0  0  0  0  0  0  0  0  0
   -7.7820   14.5320    0.8520 C   0  0  0  0  0  0  0  0  0  0  0  0
   -9.9070   13.6900    5.7950 C   0  0  0  0  0  0  0  0  0  0  0  0
   -8.3470   15.6150    6.1920 C   0  0  0  0  0  0  0  0  0  0  0  0
   -7.7080   14.8190   -0.4840 N   0  0  0  0  0  0  0  0  0  0  0  0
   -6.5930   14.5680    1.4120 N   0  0  0  0  0  0  0  0  0  0  0  0
   -5.7260   14.8930    0.3950 C   0  0  0  0  0  0  0  0  0  0  0  0
   -6.4080   15.0520   -0.7980 C   0  0  0  0  0  0  0  0  0  0  0  0
   -5.8090   15.3790   -2.0100 C   0  0  0  0  0  0  0  0  0  0  0  0
   -4.3400   15.0720    0.3950 C   0  0  0  0  0  0  0  0  0  0  0  0
   -4.4390   15.5480   -1.9910 C   0  0  0  0  0  0  0  0  0  0  0  0
   -3.7460   15.3970   -0.8210 C   0  0  0  0  0  0  0  0  0  0  0  0
   -3.5130   14.9470    1.4480 N   0  0  0  0  0  0  0  0  0  0  0  0
   -2.2480   14.6680    1.0690 C   0  0  0  0  0  0  0  0  0  0  0  0
   -2.0270   14.6890   -0.2540 N   0  0  0  0  0  0  0  0  0  0  0  0
   -1.3440   14.4040    1.9690 N   0  0  0  0  0  0  0  0  0  0  0  0
   -0.8140   14.4330   -0.7000 C   0  0  0  0  0  0  0  0  0  0  0  0
   -0.1360   14.1470    1.4890 C   0  0  0  0  0  0  0  0  0  0  0  0
    0.1940   14.1500    0.1440 C   0  0  0  0  0  0  0  0  0  0  0  0
  1  2  1  0
  2  3  2  0
  1  4  1  0
  2  5  1  0
  4  6  1  0
  5  7  1  0
  5  8  1  0
  6  9  1  0
  6 10  2  0
 10 11  1  0
  9 12  1  0
 11 12  2  0
 12 13  1  0
 11 14  1  0
 13 15  2  0
 14 16  2  0
 15 16  1  0
 14 17  1  0
 17 18  1  0
 18 19  2  0
 18 20  1  0
 19 21  1  0
 20 22  2  0
 21 23  2  0
 22 23  1  0
M  END
