x0471_0_A-x0592_0_A
     RDKit          3D

 19 20  0  0  0  0  0  0  0  0999 V2000
   -7.6920   14.6810    3.1220 N   0  0  0  0  0  0  0  0  0  0  0  0
   -8.7410   15.3160    3.7700 C   0  0  0  0  0  0  0  0  0  0  0  0
   -9.3780   16.2180    3.2410 O   0  0  0  0  0  0  0  0  0  0  0  0
   -7.8430   14.0800    1.8190 C   0  0  0  0  0  0  0  0  0  0  0  0
   -9.0730   14.8350    5.1900 C   0  0  0  0  0  0  0  0  0  0  0  0
   -6.7750   14.4300    0.7950 C   0  0  0  0  0  0  0  0  0  0  0  0
   -9.5670   13.3910    5.2240 C   0  0  0  0  0  0  0  0  0  0  0  0
   -7.9000   15.0410    6.1400 C   0  0  0  0  0  0  0  0  0  0  0  0
   -7.1170   14.6850   -0.4750 N   0  0  0  0  0  0  0  0  0  0  0  0
   -5.3420   14.5530    0.8590 N   0  0  0  0  0  0  0  0  0  0  0  0
   -4.2050   14.4780    1.6420 C   0  0  0  0  0  0  0  0  0  0  0  0
   -4.8950   14.8470   -0.3050 C   0  0  0  0  0  0  0  0  0  0  0  0
   -5.9420   14.9300   -1.1400 C   0  0  0  0  0  0  0  0  0  0  0  0
   -4.0610   15.4000    2.5860 N   0  0  0  0  0  0  0  0  0  0  0  0
   -3.3410   13.6630    1.3310 O   0  0  0  0  0  0  0  0  0  0  0  0
   -5.6460   15.2290   -2.4590 C   0  0  0  0  0  0  0  0  0  0  0  0
   -3.5630   15.0300   -0.6160 C   0  0  0  0  0  0  0  0  0  0  0  0
   -4.2960   15.4130   -2.8220 C   0  0  0  0  0  0  0  0  0  0  0  0
   -3.2760   15.3120   -1.9060 C   0  0  0  0  0  0  0  0  0  0  0  0
  1  2  1  0
  2  3  2  0
  1  4  1  0
  2  5  1  0
  4  6  1  0
  5  7  1  0
  5  8  1  0
  6  9  2  0
  6 10  1  0
 10 11  1  0
 10 12  1  0
  9 13  1  0
 12 13  2  0
 11 14  1  0
 11 15  2  0
 13 16  1  0
 12 17  1  0
 16 18  2  0
 17 19  2  0
 18 19  1  0
M  END
