x0471_0_A_α-x0628_0_A_α
     RDKit          3D

 30 32  0  0  0  0  0  0  0  0999 V2000
   -8.8450   14.1160    2.6650 N   0  0  0  0  0  0  0  0  0  0  0  0
   -8.9730   15.0190    3.7040 C   0  0  0  0  0  0  0  0  0  0  0  0
   -9.3060   16.1900    3.5160 O   0  0  0  0  0  0  0  0  0  0  0  0
   -8.8440   14.5730    1.2840 C   0  0  0  0  0  0  0  0  0  0  0  0
   -8.6800   14.4330    5.0880 C   0  0  0  0  0  0  0  0  0  0  0  0
   -7.4370   14.6590    0.8010 C   0  0  0  0  0  0  0  0  0  0  0  0
   -9.9020   13.6710    5.6040 C   0  0  0  0  0  0  0  0  0  0  0  0
   -8.2780   15.5310    6.0720 C   0  0  0  0  0  0  0  0  0  0  0  0
   -7.1130   14.6210   -0.5380 N   0  0  0  0  0  0  0  0  0  0  0  0
   -6.3530   14.7810    1.5360 N   0  0  0  0  0  0  0  0  0  0  0  0
   -5.2990   14.8170    0.6590 C   0  0  0  0  0  0  0  0  0  0  0  0
   -5.7460   14.7150   -0.6500 C   0  0  0  0  0  0  0  0  0  0  0  0
   -4.8870   14.7140   -1.7520 C   0  0  0  0  0  0  0  0  0  0  0  0
   -3.9250   14.9340    0.9120 C   0  0  0  0  0  0  0  0  0  0  0  0
   -3.5030   14.8110   -1.4960 C   0  0  0  0  0  0  0  0  0  0  0  0
   -3.0380   14.9270   -0.1720 C   0  0  0  0  0  0  0  0  0  0  0  0
   -2.5210   14.7750   -2.6620 C   0  0  0  0  0  0  0  0  0  0  0  0
   -1.9780   13.3630   -3.0140 C   0  0  0  0  0  0  0  0  0  0  0  0
   -2.6080   12.6680   -4.2380 C   0  0  0  0  0  0  0  0  0  0  0  0
   -1.7010   11.8240   -5.1010 C   0  0  0  0  0  0  0  0  0  0  0  0
   -2.0120   10.6500   -5.6210 N   0  0  0  0  0  0  0  0  0  0  0  0
   -0.4120   12.1350   -5.4950 N   0  0  0  0  0  0  0  0  0  0  0  0
    0.4100   13.2920   -5.2100 C   0  0  0  0  0  0  0  0  0  0  0  0
   -0.8960   10.2820   -6.3230 C   0  0  0  0  0  0  0  0  0  0  0  0
    0.1030   11.1630   -6.2730 N   0  0  0  0  0  0  0  0  0  0  0  0
   -0.7990    9.0170   -7.0760 C   0  0  0  0  0  0  0  0  0  0  0  0
    1.5670   12.9380   -4.2870 C   0  0  0  0  0  0  0  0  0  0  0  0
    1.0980   12.2840   -3.0180 C   0  0  0  0  0  0  0  0  0  0  0  0
    0.6680   11.1490   -2.8910 O   0  0  0  0  0  0  0  0  0  0  0  0
    1.1930   13.0920   -1.9410 O   0  0  0  0  0  0  0  0  0  0  0  0
  1  2  1  0
  2  3  2  0
  1  4  1  0
  2  5  1  0
  4  6  1  0
  5  7  1  0
  5  8  1  0
  6  9  1  0
  6 10  2  0
 10 11  1  0
  9 12  1  0
 11 12  2  0
 12 13  1  0
 11 14  1  0
 13 15  2  0
 14 16  2  0
 15 16  1  0
 15 17  1  0
 17 18  1  0
 18 19  1  0
 19 20  1  0
 20 21  2  0
 20 22  1  0
 22 23  1  0
 21 24  1  0
 22 25  1  0
 24 25  2  0
 24 26  1  0
 23 27  1  0
 27 28  1  0
 28 29  2  0
 28 30  1  0
M  END
