x0471_0_A-x0628_0_A
     RDKit          3D

 30 32  0  0  0  0  0  0  0  0999 V2000
   -8.8420   14.1010    2.6640 N   0  0  0  0  0  0  0  0  0  0  0  0
   -8.9690   15.0070    3.7020 C   0  0  0  0  0  0  0  0  0  0  0  0
   -9.2980   16.1780    3.5100 O   0  0  0  0  0  0  0  0  0  0  0  0
   -8.8460   14.5520    1.2840 C   0  0  0  0  0  0  0  0  0  0  0  0
   -8.6800   14.4250    5.0880 C   0  0  0  0  0  0  0  0  0  0  0  0
   -7.4370   14.6440    0.8030 C   0  0  0  0  0  0  0  0  0  0  0  0
   -9.9020   13.6670    5.6080 C   0  0  0  0  0  0  0  0  0  0  0  0
   -8.2780   15.5250    6.0670 C   0  0  0  0  0  0  0  0  0  0  0  0
   -7.1120   14.6230   -0.5380 N   0  0  0  0  0  0  0  0  0  0  0  0
   -6.3550   14.7550    1.5390 N   0  0  0  0  0  0  0  0  0  0  0  0
   -5.2990   14.7970    0.6640 C   0  0  0  0  0  0  0  0  0  0  0  0
   -5.7470   14.7110   -0.6460 C   0  0  0  0  0  0  0  0  0  0  0  0
   -4.8860   14.7190   -1.7490 C   0  0  0  0  0  0  0  0  0  0  0  0
   -3.9260   14.9050    0.9190 C   0  0  0  0  0  0  0  0  0  0  0  0
   -3.5030   14.8060   -1.4920 C   0  0  0  0  0  0  0  0  0  0  0  0
   -3.0380   14.9050   -0.1670 C   0  0  0  0  0  0  0  0  0  0  0  0
   -2.5190   14.7720   -2.6580 C   0  0  0  0  0  0  0  0  0  0  0  0
   -1.9820   13.3570   -3.0140 C   0  0  0  0  0  0  0  0  0  0  0  0
   -2.6110   12.6590   -4.2430 C   0  0  0  0  0  0  0  0  0  0  0  0
   -1.7060   11.8120   -5.1060 C   0  0  0  0  0  0  0  0  0  0  0  0
   -2.0160   10.6330   -5.6290 N   0  0  0  0  0  0  0  0  0  0  0  0
   -0.4200   12.1210   -5.5040 N   0  0  0  0  0  0  0  0  0  0  0  0
    0.3980   13.2840   -5.2170 C   0  0  0  0  0  0  0  0  0  0  0  0
   -0.9000   10.2700   -6.3320 C   0  0  0  0  0  0  0  0  0  0  0  0
    0.0970   11.1510   -6.2820 N   0  0  0  0  0  0  0  0  0  0  0  0
   -0.7950    9.0040   -7.0910 C   0  0  0  0  0  0  0  0  0  0  0  0
    1.5560   12.9530   -4.2860 C   0  0  0  0  0  0  0  0  0  0  0  0
    1.0940   12.2890   -3.0190 C   0  0  0  0  0  0  0  0  0  0  0  0
    0.6610   11.1550   -2.8980 O   0  0  0  0  0  0  0  0  0  0  0  0
    1.1930   13.0920   -1.9380 O   0  0  0  0  0  0  0  0  0  0  0  0
  1  2  1  0
  2  3  2  0
  1  4  1  0
  2  5  1  0
  4  6  1  0
  5  7  1  0
  5  8  1  0
  6  9  1  0
  6 10  2  0
 10 11  1  0
  9 12  1  0
 11 12  2  0
 12 13  1  0
 11 14  1  0
 13 15  2  0
 14 16  2  0
 15 16  1  0
 15 17  1  0
 17 18  1  0
 18 19  1  0
 19 20  1  0
 20 21  2  0
 20 22  1  0
 22 23  1  0
 21 24  1  0
 22 25  1  0
 24 25  2  0
 24 26  1  0
 23 27  1  0
 27 28  1  0
 28 29  2  0
 28 30  1  0
M  END
