x0471_0_A-x0967_0_A
     RDKit          3D

 16 17  0  0  0  0  0  0  0  0999 V2000
   -8.8000   14.1170    2.8450 N   0  0  0  0  0  0  0  0  0  0  0  0
   -9.1650   15.1440    3.6800 C   0  0  0  0  0  0  0  0  0  0  0  0
   -9.4390   16.2570    3.2450 O   0  0  0  0  0  0  0  0  0  0  0  0
   -8.8940   14.2870    1.4140 C   0  0  0  0  0  0  0  0  0  0  0  0
   -9.2560   14.8390    5.1740 C   0  0  0  0  0  0  0  0  0  0  0  0
   -7.5230   14.5360    0.8870 C   0  0  0  0  0  0  0  0  0  0  0  0
   -9.6240   13.3860    5.4440 C   0  0  0  0  0  0  0  0  0  0  0  0
   -8.0030   15.2800    5.9180 C   0  0  0  0  0  0  0  0  0  0  0  0
   -7.2480   14.8300   -0.4280 N   0  0  0  0  0  0  0  0  0  0  0  0
   -6.4140   14.5120    1.5980 N   0  0  0  0  0  0  0  0  0  0  0  0
   -5.3970   14.7920    0.7300 C   0  0  0  0  0  0  0  0  0  0  0  0
   -5.8890   14.9970   -0.5520 C   0  0  0  0  0  0  0  0  0  0  0  0
   -5.0750   15.3000   -1.6400 C   0  0  0  0  0  0  0  0  0  0  0  0
   -4.0190   14.8860    0.9680 C   0  0  0  0  0  0  0  0  0  0  0  0
   -3.7050   15.3860   -1.3830 C   0  0  0  0  0  0  0  0  0  0  0  0
   -3.1850   15.1820   -0.1060 C   0  0  0  0  0  0  0  0  0  0  0  0
  1  2  1  0
  2  3  2  0
  1  4  1  0
  2  5  1  0
  4  6  1  0
  5  7  1  0
  5  8  1  0
  6  9  1  0
  6 10  2  0
 10 11  1  0
  9 12  1  0
 11 12  2  0
 12 13  1  0
 11 14  1  0
 13 15  2  0
 14 16  2  0
 15 16  1  0
M  END
