x0471_0_A-x0805_0_A
     RDKit          3D

 32 35  0  0  0  0  0  0  0  0999 V2000
   -9.2920   14.0140    2.9920 N   0  0  0  0  0  0  0  0  0  0  0  0
   -9.3040   15.1250    3.8070 C   0  0  0  0  0  0  0  0  0  0  0  0
   -9.3310   16.2610    3.3450 O   0  0  0  0  0  0  0  0  0  0  0  0
   -9.4160   14.1640    1.5580 C   0  0  0  0  0  0  0  0  0  0  0  0
   -9.3180   14.8300    5.3070 C   0  0  0  0  0  0  0  0  0  0  0  0
   -8.0800   14.4790    1.0320 C   0  0  0  0  0  0  0  0  0  0  0  0
   -9.6370   13.3630    5.5910 C   0  0  0  0  0  0  0  0  0  0  0  0
   -8.0140   15.2630    5.9710 C   0  0  0  0  0  0  0  0  0  0  0  0
   -7.8820   14.9460   -0.2400 N   0  0  0  0  0  0  0  0  0  0  0  0
   -6.9590   14.3600    1.6870 N   0  0  0  0  0  0  0  0  0  0  0  0
   -6.0030   14.7570    0.8210 C   0  0  0  0  0  0  0  0  0  0  0  0
   -6.5470   15.1380   -0.4090 C   0  0  0  0  0  0  0  0  0  0  0  0
   -5.8100   15.5910   -1.4830 C   0  0  0  0  0  0  0  0  0  0  0  0
   -4.6500   14.8150    1.0150 C   0  0  0  0  0  0  0  0  0  0  0  0
   -4.4560   15.6370   -1.2700 C   0  0  0  0  0  0  0  0  0  0  0  0
   -3.9410   15.2430   -0.0420 C   0  0  0  0  0  0  0  0  0  0  0  0
   -2.6640   15.2580    0.0640 O   0  0  0  0  0  0  0  0  0  0  0  0
   -2.4770   14.5790   -1.0740 C   0  0  0  0  0  0  0  0  0  0  0  0
   -3.5430   13.7450   -1.4870 C   0  0  0  0  0  0  0  0  0  0  0  0
   -1.3820   14.6640   -1.8100 C   0  0  0  0  0  0  0  0  0  0  0  0
   -3.4520   13.0160   -2.6690 C   0  0  0  0  0  0  0  0  0  0  0  0
   -1.2700   13.9620   -2.9630 C   0  0  0  0  0  0  0  0  0  0  0  0
   -2.2900   13.1250   -3.4300 C   0  0  0  0  0  0  0  0  0  0  0  0
    0.0440   14.2630   -3.5320 C   0  0  1  0  0  0  0  0  0  0  0  0
    1.1110   13.2420   -3.2320 C   0  0  1  0  0  0  0  0  0  0  0  0
    0.2260   14.9160   -4.8580 C   0  0  0  0  0  0  0  0  0  0  0  0
    0.5990   12.0180   -2.5340 C   0  0  0  0  0  0  0  0  0  0  0  0
    1.9590   13.0880   -4.4690 C   0  0  0  0  0  0  0  0  0  0  0  0
    1.6230   15.4610   -4.7600 C   0  0  0  0  0  0  0  0  0  0  0  0
    0.2700   10.9560   -3.2930 O   0  0  0  0  0  0  0  0  0  0  0  0
    0.4800   12.0260   -1.3250 O   0  0  0  0  0  0  0  0  0  0  0  0
    2.5640   14.3690   -4.6240 O   0  0  0  0  0  0  0  0  0  0  0  0
  1  2  1  0
  2  3  2  0
  1  4  1  0
  2  5  1  0
  4  6  1  0
  5  7  1  0
  5  8  1  0
  6  9  1  0
  6 10  2  0
 10 11  1  0
  9 12  1  0
 11 12  2  0
 12 13  1  0
 11 14  1  0
 13 15  2  0
 14 16  2  0
 15 16  1  0
 16 17  1  0
 17 18  1  0
 18 19  2  0
 18 20  1  0
 19 21  1  0
 20 22  2  0
 21 23  2  0
 22 23  1  0
 24 22  1  6
 24 25  1  0
 24 26  1  0
 25 27  1  6
 25 28  1  0
 26 29  1  0
 27 30  1  0
 27 31  2  0
 28 32  1  0
 29 32  1  0
M  END
