x0471_0_A-x0128_0_A
     RDKit          3D

 23 26  0  0  0  0  0  0  0  0999 V2000
   -9.1720   13.9130    2.4790 N   0  0  0  0  0  0  0  0  0  0  0  0
   -8.4210   14.8400    3.2920 C   0  0  1  0  0  0  0  0  0  0  0  0
   -8.8720   16.1230    2.9350 O   0  0  0  0  0  0  0  0  0  0  0  0
   -9.1330   14.3020    1.0600 C   0  0  0  0  0  0  0  0  0  0  0  0
   -8.7530   14.6630    4.8770 C   0  0  0  0  0  0  0  0  0  0  0  0
   -7.0170   14.6190    2.9200 N   0  0  0  0  0  0  0  0  0  0  0  0
   -7.7570   14.5620    0.5870 C   0  0  0  0  0  0  0  0  0  0  0  0
   -9.8890   13.6190    5.1040 C   0  0  0  0  0  0  0  0  0  0  0  0
   -7.5340   14.2130    5.6970 C   0  0  0  0  0  0  0  0  0  0  0  0
   -7.3000   14.6870   -0.6420 N   0  0  0  0  0  0  0  0  0  0  0  0
   -6.7680   14.7030    1.5090 N   0  0  0  0  0  0  0  0  0  0  0  0
   -9.2140   15.9250    5.6190 C   0  0  0  0  0  0  0  0  0  0  0  0
   -5.5730   14.9290    0.8420 C   0  0  0  0  0  0  0  0  0  0  0  0
   -5.9520   14.9140   -0.5020 C   0  0  0  0  0  0  0  0  0  0  0  0
   -9.5640   17.1510    5.0560 C   0  0  0  0  0  0  0  0  0  0  0  0
   -9.2970   15.8420    7.0080 C   0  0  0  0  0  0  0  0  0  0  0  0
   -4.9860   15.1180   -1.5010 C   0  0  0  0  0  0  0  0  0  0  0  0
   -4.2420   15.1410    1.2430 C   0  0  0  0  0  0  0  0  0  0  0  0
   -9.9780   18.2200    5.7680 N   0  0  0  0  0  0  0  0  0  0  0  0
   -9.7130   16.9170    7.7630 C   0  0  0  0  0  0  0  0  0  0  0  0
   -3.6610   15.3250   -1.1170 C   0  0  0  0  0  0  0  0  0  0  0  0
   -3.3000   15.3340    0.2320 C   0  0  0  0  0  0  0  0  0  0  0  0
  -10.0430   18.0750    7.1020 C   0  0  0  0  0  0  0  0  0  0  0  0
  1  2  1  0
  2  3  1  6
  1  4  1  0
  2  5  1  0
  2  6  1  0
  4  7  1  0
  5  8  1  0
  5  9  1  0
  7 10  2  0
  6 11  1  0
  7 11  1  0
  5 12  1  0
 11 13  1  0
 10 14  1  0
 13 14  2  0
 12 15  2  0
 12 16  1  0
 14 17  1  0
 13 18  1  0
 15 19  1  0
 16 20  2  0
 17 21  2  0
 18 22  2  0
 21 22  1  0
 19 23  2  0
 20 23  1  0
M  END
