x0471_0_A_α-x0662_0_A_β
     RDKit          3D

 30 32  0  0  0  0  0  0  0  0999 V2000
   -8.7670   14.0940    2.7570 N   0  0  0  0  0  0  0  0  0  0  0  0
   -8.9540   15.0060    3.7610 C   0  0  0  0  0  0  0  0  0  0  0  0
   -9.3160   16.1610    3.5550 O   0  0  0  0  0  0  0  0  0  0  0  0
   -8.8800   14.4900    1.3760 C   0  0  0  0  0  0  0  0  0  0  0  0
   -8.6820   14.4390    5.1500 C   0  0  0  0  0  0  0  0  0  0  0  0
   -7.5020   14.6360    0.8420 C   0  0  0  0  0  0  0  0  0  0  0  0
   -9.8950   13.6700    5.6730 C   0  0  0  0  0  0  0  0  0  0  0  0
   -8.2980   15.5560    6.1180 C   0  0  0  0  0  0  0  0  0  0  0  0
   -7.2430   14.7150   -0.5020 N   0  0  0  0  0  0  0  0  0  0  0  0
   -6.3830   14.7080    1.5450 N   0  0  0  0  0  0  0  0  0  0  0  0
   -5.3670   14.8360    0.6230 C   0  0  0  0  0  0  0  0  0  0  0  0
   -5.8930   14.8390   -0.6550 C   0  0  0  0  0  0  0  0  0  0  0  0
   -5.1260   14.9470   -1.7990 C   0  0  0  0  0  0  0  0  0  0  0  0
   -3.9770   14.9530    0.7910 C   0  0  0  0  0  0  0  0  0  0  0  0
   -3.7450   15.0490   -1.6450 C   0  0  0  0  0  0  0  0  0  0  0  0
   -3.1700   15.0570   -0.3590 C   0  0  0  0  0  0  0  0  0  0  0  0
   -2.9550   15.1350   -2.9330 C   0  0  0  0  0  0  0  0  0  0  0  0
   -1.5510   14.5210   -2.8060 C   0  0  0  0  0  0  0  0  0  0  0  0
   -1.1370   13.6950   -4.0390 C   0  0  0  0  0  0  0  0  0  0  0  0
   -0.8060   12.2220   -3.7220 C   0  0  0  0  0  0  0  0  0  0  0  0
   -0.8780   11.4210   -4.9450 N   0  0  0  0  0  0  0  0  0  0  0  0
    0.1080   11.4840   -5.7790 C   0  0  0  0  0  0  0  0  0  0  0  0
    1.1750   12.1290   -5.7510 O   0  0  0  0  0  0  0  0  0  0  0  0
    0.0180   10.6450   -7.0580 C   0  0  0  0  0  0  0  0  0  0  0  0
    0.8170   10.8670   -8.1820 C   0  0  0  0  0  0  0  0  0  0  0  0
   -0.9080    9.5960   -7.1280 C   0  0  0  0  0  0  0  0  0  0  0  0
    0.7210   10.1030   -9.3470 C   0  0  0  0  0  0  0  0  0  0  0  0
   -1.0210    8.8110   -8.2830 C   0  0  0  0  0  0  0  0  0  0  0  0
    1.5460   10.3800  -10.4520 N   0  0  0  0  0  0  0  0  0  0  0  0
   -0.2070    9.0670   -9.3910 C   0  0  0  0  0  0  0  0  0  0  0  0
  1  2  1  0
  2  3  2  0
  1  4  1  0
  2  5  1  0
  4  6  1  0
  5  7  1  0
  5  8  1  0
  6  9  1  0
  6 10  2  0
 10 11  1  0
  9 12  1  0
 11 12  2  0
 12 13  1  0
 11 14  1  0
 13 15  2  0
 14 16  2  0
 15 16  1  0
 15 17  1  0
 17 18  1  0
 18 19  1  0
 19 20  1  0
 20 21  1  0
 21 22  2  3
 22 23  1  0
 22 24  1  0
 24 25  2  0
 24 26  1  0
 25 27  1  0
 26 28  2  0
 27 29  1  0
 27 30  2  0
 28 30  1  0
M  CHG  1  23  -1
M  END
