x0471_0_A_α-x0253_0_A_α
     RDKit          3D

 33 35  0  0  0  0  0  0  0  0999 V2000
   -8.8450   14.1580    2.8030 N   0  0  0  0  0  0  0  0  0  0  0  0
   -9.1940   15.1880    3.6610 C   0  0  0  0  0  0  0  0  0  0  0  0
   -9.4580   16.3110    3.2510 O   0  0  0  0  0  0  0  0  0  0  0  0
   -8.8730   14.3880    1.3660 C   0  0  0  0  0  0  0  0  0  0  0  0
   -9.2670   14.8290    5.1510 C   0  0  0  0  0  0  0  0  0  0  0  0
   -7.4780   14.5740    0.8690 C   0  0  0  0  0  0  0  0  0  0  0  0
   -9.5760   13.3510    5.3800 C   0  0  0  0  0  0  0  0  0  0  0  0
   -7.9920   15.2650    5.8720 C   0  0  0  0  0  0  0  0  0  0  0  0
   -7.1410   14.9130   -0.4310 N   0  0  0  0  0  0  0  0  0  0  0  0
   -6.3970   14.4440    1.5960 N   0  0  0  0  0  0  0  0  0  0  0  0
   -5.3330   14.6920    0.7740 C   0  0  0  0  0  0  0  0  0  0  0  0
   -5.7650   14.9920   -0.5080 C   0  0  0  0  0  0  0  0  0  0  0  0
   -4.8760   15.2870   -1.5430 C   0  0  0  0  0  0  0  0  0  0  0  0
   -3.9650   14.6720    1.0710 C   0  0  0  0  0  0  0  0  0  0  0  0
   -3.5040   15.2570   -1.2270 C   0  0  0  0  0  0  0  0  0  0  0  0
   -3.0360   14.9480    0.0760 C   0  0  0  0  0  0  0  0  0  0  0  0
   -1.5620   14.8910    0.4670 C   0  0  0  0  0  0  0  0  0  0  0  0
   -0.6040   14.8040   -0.7250 C   0  0  0  0  0  0  0  0  0  0  0  0
    0.0440   13.4390   -0.9000 C   0  0  0  0  0  0  0  0  0  0  0  0
    0.6890   13.4610   -2.2100 N   0  0  0  0  0  0  0  0  0  0  0  0
    0.7030   12.4450   -2.9910 C   0  0  0  0  0  0  0  0  0  0  0  0
    0.1690   11.2380   -2.7080 O   0  0  0  0  0  0  0  0  0  0  0  0
    1.3490   12.6000   -4.3590 C   0  0  0  0  0  0  0  0  0  0  0  0
    0.5690   11.9530   -5.4090 N   0  0  0  0  0  0  0  0  0  0  0  0
    1.2150   11.6650   -6.5870 C   0  0  0  0  0  0  0  0  0  0  0  0
    2.3070   12.1420   -6.7910 O   0  0  0  0  0  0  0  0  0  0  0  0
    0.5650   10.7460   -7.5610 C   0  0  0  0  0  0  0  0  0  0  0  0
   -0.4870    9.9010   -7.1810 C   0  0  0  0  0  0  0  0  0  0  0  0
    1.0240   10.7300   -8.8810 C   0  0  0  0  0  0  0  0  0  0  0  0
   -1.0800    9.0440   -8.1180 C   0  0  0  0  0  0  0  0  0  0  0  0
    0.4350    9.8810   -9.8180 C   0  0  0  0  0  0  0  0  0  0  0  0
   -2.2070    8.1390   -7.7040 C   0  0  0  0  0  0  0  0  0  0  0  0
   -0.6140    9.0400   -9.4380 C   0  0  0  0  0  0  0  0  0  0  0  0
  1  2  1  0
  2  3  2  0
  1  4  1  0
  2  5  1  0
  4  6  1  0
  5  7  1  0
  5  8  1  0
  6  9  1  0
  6 10  2  0
 10 11  1  0
  9 12  1  0
 11 12  2  0
 12 13  1  0
 11 14  1  0
 13 15  2  0
 14 16  2  0
 15 16  1  0
 16 17  1  0
 17 18  1  0
 18 19  1  0
 19 20  1  0
 20 21  2  3
 21 22  1  0
 21 23  1  0
 23 24  1  0
 24 25  1  0
 25 26  2  0
 25 27  1  0
 27 28  2  0
 27 29  1  0
 28 30  1  0
 29 31  2  0
 30 32  1  0
 30 33  2  0
 31 33  1  0
M  END
