x0471_0_A-x0574_0_A
     RDKit          3D

 23 25  0  0  0  0  0  0  0  0999 V2000
   -8.8140   14.0210    2.7930 N   0  0  0  0  0  0  0  0  0  0  0  0
   -9.1520   15.1000    3.5940 C   0  0  0  0  0  0  0  0  0  0  0  0
   -9.3730   16.2080    3.1160 O   0  0  0  0  0  0  0  0  0  0  0  0
   -8.8720   14.1030    1.3380 C   0  0  0  0  0  0  0  0  0  0  0  0
   -9.2700   14.8190    5.0970 C   0  0  0  0  0  0  0  0  0  0  0  0
   -7.5330   14.4900    0.8030 C   0  0  0  0  0  0  0  0  0  0  0  0
   -9.6120   13.3580    5.3840 C   0  0  0  0  0  0  0  0  0  0  0  0
   -8.0240   15.2650    5.8580 C   0  0  0  0  0  0  0  0  0  0  0  0
   -7.2180   14.4830   -0.5500 N   0  0  0  0  0  0  0  0  0  0  0  0
   -6.5030   14.8800    1.5190 N   0  0  0  0  0  0  0  0  0  0  0  0
   -5.5030   15.1450    0.6160 C   0  0  0  0  0  0  0  0  0  0  0  0
   -5.9160   14.8960   -0.6540 C   0  0  0  0  0  0  0  0  0  0  0  0
   -5.1530   15.0320   -1.8150 C   0  0  0  0  0  0  0  0  0  0  0  0
   -4.1200   15.6340    0.9270 C   0  0  1  0  0  0  0  0  0  0  0  0
   -3.9160   15.1880    2.2810 O   0  0  0  0  0  0  0  0  0  0  0  0
   -3.8230   15.0120   -1.5830 C   0  0  0  0  0  0  0  0  0  0  0  0
   -3.2350   14.8830   -0.1610 C   0  0  1  0  0  0  0  0  0  0  0  0
   -5.1220   14.8650    2.9890 C   0  0  0  0  0  0  0  0  0  0  0  0
   -1.3640   14.8840   -0.3330 S   0  0  0  0  0  0  0  0  0  0  0  0
   -3.1290   13.5560    0.5050 C   0  0  0  0  0  0  0  0  0  0  0  0
   -2.3750   13.8830    1.7480 N   0  0  0  0  0  0  0  0  0  0  0  0
   -1.1260   14.4450    1.3480 C   0  0  1  0  0  0  0  0  0  0  0  0
   -0.1040   13.4610    1.5020 N   0  0  0  0  0  0  0  0  0  0  0  0
  1  2  1  0
  2  3  2  0
  1  4  1  0
  2  5  1  0
  4  6  1  0
  5  7  1  0
  5  8  1  0
  6  9  1  0
  6 10  2  0
 10 11  1  0
  9 12  1  0
 11 12  2  0
 12 13  1  0
 11 14  1  0
 14 15  1  1
 13 16  2  0
 14 17  1  0
 17 16  1  6
 15 18  1  0
 17 19  1  0
 17 20  1  0
 20 21  1  0
 19 22  1  0
 21 22  1  0
 22 23  1  6
M  END
