x0471_0_A-x0967_0_A
     RDKit          3D

 16 17  0  0  0  0  0  0  0  0999 V2000
   -8.8060   14.1100    2.8430 N   0  0  0  0  0  0  0  0  0  0  0  0
   -9.1670   15.1380    3.6750 C   0  0  0  0  0  0  0  0  0  0  0  0
   -9.4370   16.2500    3.2390 O   0  0  0  0  0  0  0  0  0  0  0  0
   -8.8900   14.2860    1.4070 C   0  0  0  0  0  0  0  0  0  0  0  0
   -9.2580   14.8370    5.1710 C   0  0  0  0  0  0  0  0  0  0  0  0
   -7.5130   14.5350    0.8890 C   0  0  0  0  0  0  0  0  0  0  0  0
   -9.6250   13.3840    5.4480 C   0  0  0  0  0  0  0  0  0  0  0  0
   -8.0050   15.2780    5.9190 C   0  0  0  0  0  0  0  0  0  0  0  0
   -7.2450   14.8250   -0.4290 N   0  0  0  0  0  0  0  0  0  0  0  0
   -6.4070   14.5110    1.5960 N   0  0  0  0  0  0  0  0  0  0  0  0
   -5.3890   14.7920    0.7230 C   0  0  0  0  0  0  0  0  0  0  0  0
   -5.8850   14.9940   -0.5570 C   0  0  0  0  0  0  0  0  0  0  0  0
   -5.0760   15.2960   -1.6480 C   0  0  0  0  0  0  0  0  0  0  0  0
   -4.0100   14.8890    0.9580 C   0  0  0  0  0  0  0  0  0  0  0  0
   -3.7050   15.3860   -1.3980 C   0  0  0  0  0  0  0  0  0  0  0  0
   -3.1800   15.1840   -0.1170 C   0  0  0  0  0  0  0  0  0  0  0  0
  1  2  1  0
  2  3  2  0
  1  4  1  0
  2  5  1  0
  4  6  1  0
  5  7  1  0
  5  8  1  0
  6  9  1  0
  6 10  2  0
 10 11  1  0
  9 12  1  0
 11 12  2  0
 12 13  1  0
 11 14  1  0
 13 15  2  0
 14 16  2  0
 15 16  1  0
M  END
