x0471_0_A-x0626_0_A
     RDKit          3D

 21 23  0  0  0  0  0  0  0  0999 V2000
   -7.6110   14.2340    2.3470 N   0  0  0  0  0  0  0  0  0  0  0  0
   -8.4830   15.0200    3.1640 C   0  0  0  0  0  0  0  0  0  0  0  0
   -9.0010   16.0500    2.7240 O   0  0  0  0  0  0  0  0  0  0  0  0
   -8.0430   13.6230    1.1120 C   0  0  0  0  0  0  0  0  0  0  0  0
   -6.2810   14.5910    2.2820 C   0  0  0  0  0  0  0  0  0  0  0  0
   -8.8870   14.6570    4.6260 C   0  0  0  0  0  0  0  0  0  0  0  0
   -5.3010   13.9220    1.6600 N   0  0  0  0  0  0  0  0  0  0  0  0
   -5.8530   15.5780    2.7430 O   0  0  0  0  0  0  0  0  0  0  0  0
   -7.4150   14.1350   -0.1930 C   0  0  0  0  0  0  0  0  0  0  0  0
   -9.1150   13.1680    4.8920 C   0  0  0  0  0  0  0  0  0  0  0  0
   -7.9010   15.2500    5.6320 C   0  0  0  0  0  0  0  0  0  0  0  0
   -6.0100   14.4440   -0.4680 C   0  0  0  0  0  0  0  0  0  0  0  0
   -4.9220   14.3470    0.4260 C   0  0  0  0  0  0  0  0  0  0  0  0
   -8.3350   14.3000   -1.2310 C   0  0  0  0  0  0  0  0  0  0  0  0
   -8.0400   14.7150   -2.4630 N   0  0  0  0  0  0  0  0  0  0  0  0
   -5.7160   14.8840   -1.7710 C   0  0  0  0  0  0  0  0  0  0  0  0
   -3.5600   14.6720    0.0720 C   0  0  0  0  0  0  0  0  0  0  0  0
   -2.3280   14.5910    0.9870 C   0  0  0  0  0  0  0  0  0  0  0  0
   -4.4100   15.2060   -2.1380 C   0  0  0  0  0  0  0  0  0  0  0  0
   -3.3530   15.1020   -1.2420 C   0  0  0  0  0  0  0  0  0  0  0  0
   -6.7490   14.9950   -2.6990 C   0  0  0  0  0  0  0  0  0  0  0  0
  1  2  1  0
  2  3  2  0
  1  4  1  0
  1  5  1  0
  2  6  1  0
  5  7  1  0
  5  8  2  0
  4  9  1  0
  6 10  1  0
  6 11  1  0
  9 12  2  0
  7 13  1  0
 12 13  1  0
  9 14  1  0
 14 15  2  0
 12 16  1  0
 13 17  2  0
 17 18  1  0
 16 19  1  0
 17 20  1  0
 19 20  2  0
 15 21  1  0
 16 21  2  0
M  END
