x0471_0_A-x0844_0_A
     RDKit          3D

 18 19  0  0  0  0  0  0  0  0999 V2000
   -8.9270   13.9960    2.9630 N   0  0  0  0  0  0  0  0  0  0  0  0
   -8.9920   14.9600    3.9270 C   0  0  0  0  0  0  0  0  0  0  0  0
   -9.2640   16.1350    3.6860 O   0  0  0  0  0  0  0  0  0  0  0  0
   -8.9750   14.3970    1.5820 C   0  0  0  0  0  0  0  0  0  0  0  0
   -8.7130   14.4580    5.3330 C   0  0  0  0  0  0  0  0  0  0  0  0
   -7.5660   14.5960    1.0850 C   0  0  0  0  0  0  0  0  0  0  0  0
   -9.9010   13.6560    5.8610 C   0  0  0  0  0  0  0  0  0  0  0  0
   -8.3330   15.6080    6.2550 C   0  0  0  0  0  0  0  0  0  0  0  0
   -7.3830   14.6120   -0.2800 N   0  0  0  0  0  0  0  0  0  0  0  0
   -6.4980   14.7610    1.8340 N   0  0  0  0  0  0  0  0  0  0  0  0
   -5.4860   14.8770    0.9250 C   0  0  0  0  0  0  0  0  0  0  0  0
   -6.1130   14.7950   -0.3670 C   0  0  0  0  0  0  0  0  0  0  0  0
   -5.3500   14.9180   -1.5850 C   0  0  0  0  0  0  0  0  0  0  0  0
   -4.1610   15.0310    1.0220 C   0  0  0  0  0  0  0  0  0  0  0  0
   -5.9980   14.9290   -2.5980 O   0  0  0  0  0  0  0  0  0  0  0  0
   -3.8710   15.0080   -1.4300 C   0  0  0  0  0  0  0  0  0  0  0  0
   -3.3450   15.0740   -0.1830 C   0  0  0  0  0  0  0  0  0  0  0  0
   -2.8560   14.9950   -2.9880 Br  0  0  0  0  0  0  0  0  0  0  0  0
  1  2  1  0
  2  3  2  0
  1  4  1  0
  2  5  1  0
  4  6  1  0
  5  7  1  0
  5  8  1  0
  6  9  1  0
  6 10  2  0
 10 11  1  0
  9 12  2  0
 11 12  1  0
 12 13  1  0
 11 14  2  0
 13 15  2  0
 13 16  1  0
 14 17  1  0
 16 17  2  0
 16 18  1  0
M  END
