x0471_0_A_α-x0711_0_A_α
     RDKit          3D

 24 25  0  0  0  0  0  0  0  0999 V2000
   -8.7180   13.9960    3.1060 N   0  0  0  0  0  0  0  0  0  0  0  0
   -8.9640   14.9480    4.0400 C   0  0  0  0  0  0  0  0  0  0  0  0
   -9.3380   16.0870    3.7480 O   0  0  0  0  0  0  0  0  0  0  0  0
   -8.6760   14.3900    1.7450 C   0  0  0  0  0  0  0  0  0  0  0  0
   -8.7560   14.4840    5.4650 C   0  0  0  0  0  0  0  0  0  0  0  0
   -7.2550   14.5330    1.3500 C   0  0  0  0  0  0  0  0  0  0  0  0
   -9.9720   13.7000    5.9540 C   0  0  0  0  0  0  0  0  0  0  0  0
   -8.4160   15.6550    6.3770 C   0  0  0  0  0  0  0  0  0  0  0  0
   -6.9660   14.6680    0.0630 N   0  0  0  0  0  0  0  0  0  0  0  0
   -6.1310   14.5540    2.0780 N   0  0  0  0  0  0  0  0  0  0  0  0
   -5.0900   14.7020    1.1730 C   0  0  0  0  0  0  0  0  0  0  0  0
   -5.6200   14.7740   -0.0510 C   0  0  0  0  0  0  0  0  0  0  0  0
   -4.9590   14.9190   -1.1790 C   0  0  0  0  0  0  0  0  0  0  0  0
   -3.6780   14.7880    1.2570 C   0  0  0  0  0  0  0  0  0  0  0  0
   -6.0440   14.9460   -2.0910 C   0  0  0  0  0  0  0  0  0  0  0  0
   -3.5320   15.0030   -1.2180 C   0  0  0  0  0  0  0  0  0  0  0  0
   -2.9100   14.9350    0.0530 C   0  0  0  0  0  0  0  0  0  0  0  0
   -2.7280   15.1530   -2.4530 N   0  0  0  0  0  0  0  0  0  0  0  0
   -7.0640   15.7030   -1.5830 N   0  0  0  0  0  0  0  0  0  0  0  0
   -6.1050   14.3430   -3.1190 O   0  0  0  0  0  0  0  0  0  0  0  0
   -1.2400   14.2990   -2.7550 S   0  0  0  0  0  0  0  0  0  0  0  0
   -1.7810   12.9920   -3.8370 C   0  0  0  0  0  0  0  0  0  0  0  0
   -0.3240   15.1260   -3.5230 O   0  0  0  0  0  0  0  0  0  0  0  0
   -0.7850   13.6630   -1.5370 O   0  0  0  0  0  0  0  0  0  0  0  0
  1  2  1  0
  2  3  2  0
  1  4  1  0
  2  5  1  0
  4  6  1  0
  5  7  1  0
  5  8  1  0
  6  9  1  0
  6 10  2  0
 10 11  1  0
  9 12  1  0
 11 12  2  0
 12 13  1  0
 11 14  1  0
 13 15  1  0
 13 16  2  0
 14 17  2  0
 16 17  1  0
 16 18  1  0
 15 19  1  0
 15 20  2  0
 21 18  1  0
 21 22  1  0
 21 23  2  0
 21 24  2  0
M  END
