x0471_0_A-x0864_0_A
     RDKit          3D

 31 33  0  0  0  0  0  0  0  0999 V2000
   -8.7990   14.0750    2.6650 N   0  0  0  0  0  0  0  0  0  0  0  0
   -8.9890   14.9930    3.6730 C   0  0  0  0  0  0  0  0  0  0  0  0
   -9.3420   16.1510    3.4720 O   0  0  0  0  0  0  0  0  0  0  0  0
   -8.8150   14.4710    1.2690 C   0  0  0  0  0  0  0  0  0  0  0  0
   -8.7380   14.4660    5.0850 C   0  0  0  0  0  0  0  0  0  0  0  0
   -7.3950   14.6330    0.8390 C   0  0  0  0  0  0  0  0  0  0  0  0
   -9.9550   13.6970    5.5900 C   0  0  0  0  0  0  0  0  0  0  0  0
   -8.3290   15.5750    6.0530 C   0  0  0  0  0  0  0  0  0  0  0  0
   -7.0040   14.9260   -0.4520 N   0  0  0  0  0  0  0  0  0  0  0  0
   -6.3480   14.5210    1.6200 N   0  0  0  0  0  0  0  0  0  0  0  0
   -5.2490   14.7430    0.8340 C   0  0  0  0  0  0  0  0  0  0  0  0
   -5.6230   15.0020   -0.4740 C   0  0  0  0  0  0  0  0  0  0  0  0
   -4.6920   15.2620   -1.4820 C   0  0  0  0  0  0  0  0  0  0  0  0
   -3.8940   14.7330    1.1950 C   0  0  0  0  0  0  0  0  0  0  0  0
   -3.3310   15.2410   -1.1050 C   0  0  0  0  0  0  0  0  0  0  0  0
   -2.9120   14.9780    0.2250 C   0  0  0  0  0  0  0  0  0  0  0  0
   -1.4390   14.9350    0.6780 C   0  0  0  0  0  0  0  0  0  0  0  0
   -0.6940   13.6800    0.2330 C   0  0  0  0  0  0  0  0  0  0  0  0
    0.1520   13.6970   -1.0470 C   0  0  0  0  0  0  0  0  0  0  0  0
    0.2830   12.3130   -1.4690 N   0  0  0  0  0  0  0  0  0  0  0  0
    0.4330   11.8350   -2.6520 C   0  0  0  0  0  0  0  0  0  0  0  0
    0.5370   12.4920   -4.0310 C   0  0  0  0  0  0  0  0  0  0  0  0
    0.4910   10.4860   -2.6230 O   0  0  0  0  0  0  0  0  0  0  0  0
   -0.1920   11.7630   -5.0810 N   0  0  0  0  0  0  0  0  0  0  0  0
   -1.4150   11.1850   -4.7800 C   0  0  0  0  0  0  0  0  0  0  0  0
    0.4880   11.4580   -6.2600 C   0  0  0  0  0  0  0  0  0  0  0  0
    1.4910   12.0400   -6.6520 O   0  0  0  0  0  0  0  0  0  0  0  0
   -1.9310   10.2070   -5.5450 C   0  0  0  0  0  0  0  0  0  0  0  0
   -0.0580   10.3280   -7.0680 C   0  0  0  0  0  0  0  0  0  0  0  0
   -1.2100    9.7430   -6.7060 C   0  0  0  0  0  0  0  0  0  0  0  0
   -1.9430    8.3180   -7.6630 Br  0  0  0  0  0  0  0  0  0  0  0  0
  1  2  1  0
  2  3  2  0
  1  4  1  0
  2  5  1  0
  4  6  1  0
  5  7  1  0
  5  8  1  0
  6  9  1  0
  6 10  2  0
 10 11  1  0
  9 12  1  0
 11 12  2  0
 12 13  1  0
 11 14  1  0
 13 15  2  0
 14 16  2  0
 15 16  1  0
 16 17  1  0
 17 18  1  0
 18 19  1  0
 19 20  1  0
 20 21  2  3
 21 22  1  0
 21 23  1  0
 22 24  1  0
 24 25  1  0
 24 26  1  0
 26 27  2  0
 25 28  2  0
 26 29  1  0
 28 30  1  0
 29 30  2  0
 30 31  1  0
M  END
