x0471_0_A-x0587_0_A
     RDKit          3D

 20 21  0  0  0  0  0  0  0  0999 V2000
   -8.5870   13.9090    2.3200 N   0  0  0  0  0  0  0  0  0  0  0  0
   -8.8500   14.8610    3.3080 C   0  0  0  0  0  0  0  0  0  0  0  0
   -9.2200   16.0080    3.0610 O   0  0  0  0  0  0  0  0  0  0  0  0
   -8.4140   14.2050    0.8830 C   0  0  0  0  0  0  0  0  0  0  0  0
   -8.6570   14.3910    4.7620 C   0  0  0  0  0  0  0  0  0  0  0  0
   -6.9600   14.5420    0.6540 C   0  0  0  0  0  0  0  0  0  0  0  0
   -9.9000   13.6730    5.2950 C   0  0  0  0  0  0  0  0  0  0  0  0
   -8.2550   15.5370    5.6910 C   0  0  0  0  0  0  0  0  0  0  0  0
   -6.1580   14.6000   -0.5190 N   0  0  0  0  0  0  0  0  0  0  0  0
   -6.1800   14.8590    1.6660 N   0  0  0  0  0  0  0  0  0  0  0  0
   -6.2100   14.3960   -1.9290 C   0  0  0  0  0  0  0  0  0  0  0  0
   -4.9370   15.1130    1.1300 C   0  0  0  0  0  0  0  0  0  0  0  0
   -4.9470   14.9620   -0.2140 C   0  0  0  0  0  0  0  0  0  0  0  0
   -4.9630   14.7510   -2.3700 F   0  0  0  0  0  0  0  0  0  0  0  0
   -6.3160   13.0950   -2.2750 F   0  0  0  0  0  0  0  0  0  0  0  0
   -7.0450   15.1710   -2.6270 F   0  0  0  0  0  0  0  0  0  0  0  0
   -3.8700   15.1560   -1.0670 C   0  0  0  0  0  0  0  0  0  0  0  0
   -3.7360   15.4810    1.7020 C   0  0  0  0  0  0  0  0  0  0  0  0
   -2.6850   15.5270   -0.4940 C   0  0  0  0  0  0  0  0  0  0  0  0
   -2.6110   15.6840    0.8760 C   0  0  0  0  0  0  0  0  0  0  0  0
  1  2  1  0
  2  3  2  0
  1  4  1  0
  2  5  1  0
  4  6  1  0
  5  7  1  0
  5  8  1  0
  6  9  1  0
  6 10  2  0
  9 11  1  0
 10 12  1  0
  9 13  1  0
 12 13  2  0
 11 14  1  0
 11 15  1  0
 11 16  1  0
 13 17  1  0
 12 18  1  0
 17 19  2  0
 18 20  2  0
 19 20  1  0
M  END
