x0471_0_A_α-x0852_0_B_α
     RDKit          3D

 25 27  0  0  0  0  0  0  0  0999 V2000
   -8.6670   13.3770    3.0030 N   0  0  0  0  0  0  0  0  0  0  0  0
   -9.3310   14.0380    4.0450 C   0  0  0  0  0  0  0  0  0  0  0  0
  -10.3450   14.7040    3.8250 O   0  0  0  0  0  0  0  0  0  0  0  0
   -8.8280   13.7570    1.5840 C   0  0  0  0  0  0  0  0  0  0  0  0
   -8.7200   13.9140    5.4770 C   0  0  1  0  0  0  0  0  0  0  0  0
   -7.5050   14.1790    1.0010 C   0  0  0  0  0  0  0  0  0  0  0  0
   -7.9860   12.6100    5.6450 C   0  0  0  0  0  0  0  0  0  0  0  0
   -7.8480   15.1620    5.6360 C   0  0  0  0  0  0  0  0  0  0  0  0
   -7.3200   14.5820   -0.3150 N   0  0  0  0  0  0  0  0  0  0  0  0
   -6.3680   14.2160    1.6450 N   0  0  0  0  0  0  0  0  0  0  0  0
   -5.4200   14.6350    0.7560 C   0  0  0  0  0  0  0  0  0  0  0  0
   -5.9830   14.8750   -0.4880 C   0  0  0  0  0  0  0  0  0  0  0  0
   -8.6070   15.8610    4.6060 C   0  0  0  0  0  0  0  0  0  0  0  0
   -5.2320   15.3100   -1.5820 C   0  0  0  0  0  0  0  0  0  0  0  0
   -4.0490   14.8250    0.9550 C   0  0  0  0  0  0  0  0  0  0  0  0
   -8.3930   15.4110    3.3120 C   0  0  0  0  0  0  0  0  0  0  0  0
   -9.5190   16.8620    4.8780 C   0  0  0  0  0  0  0  0  0  0  0  0
   -9.7280   17.3450    6.2140 C   0  0  0  0  0  0  0  0  0  0  0  0
   -3.8610   15.4890   -1.3680 C   0  0  0  0  0  0  0  0  0  0  0  0
   -3.2780   15.2490   -0.1200 C   0  0  0  0  0  0  0  0  0  0  0  0
   -9.1250   15.9290    2.2610 C   0  0  0  0  0  0  0  0  0  0  0  0
  -10.2540   17.3820    3.8190 C   0  0  0  0  0  0  0  0  0  0  0  0
   -9.8670   17.7400    7.2990 N   0  0  0  0  0  0  0  0  0  0  0  0
  -10.0630   16.9020    2.5180 C   0  0  0  0  0  0  0  0  0  0  0  0
  -11.0750   17.5710    1.0650 Br  0  0  0  0  0  0  0  0  0  0  0  0
  1  2  1  0
  2  3  2  0
  1  4  1  0
  2  5  1  0
  4  6  1  0
  5  7  1  6
  5  8  1  0
  6  9  1  0
  6 10  2  0
 10 11  1  0
  9 12  1  0
 11 12  2  0
  8 13  1  0
 12 14  1  0
 11 15  1  0
 13 16  2  0
 13 17  1  0
 17 18  1  0
 14 19  2  0
 15 20  2  0
 19 20  1  0
 16 21  1  0
 17 22  2  0
 18 23  3  0
 21 24  2  0
 22 24  1  0
 24 25  1  0
M  END
