x0471_0_A_α-x0805_0_A_α
     RDKit          3D

 23 25  0  0  0  0  0  0  0  0999 V2000
   -9.0200   14.0970    2.9970 N   0  0  0  0  0  0  0  0  0  0  0  0
   -9.2280   15.1700    3.8240 C   0  0  0  0  0  0  0  0  0  0  0  0
   -9.4020   16.2960    3.3790 O   0  0  0  0  0  0  0  0  0  0  0  0
   -9.1830   14.2660    1.5750 C   0  0  0  0  0  0  0  0  0  0  0  0
   -9.2620   14.8440    5.3170 C   0  0  0  0  0  0  0  0  0  0  0  0
   -7.8410   14.5340    1.0110 C   0  0  0  0  0  0  0  0  0  0  0  0
   -9.6740   13.3940    5.5590 C   0  0  0  0  0  0  0  0  0  0  0  0
   -7.9380   15.1750    5.9980 C   0  0  0  0  0  0  0  0  0  0  0  0
   -7.6490   14.9860   -0.2630 N   0  0  0  0  0  0  0  0  0  0  0  0
   -6.6990   14.3750    1.6400 N   0  0  0  0  0  0  0  0  0  0  0  0
   -5.7330   14.7260    0.7470 C   0  0  0  0  0  0  0  0  0  0  0  0
   -6.3060   15.1200   -0.4620 C   0  0  0  0  0  0  0  0  0  0  0  0
   -5.5870   15.5360   -1.5610 C   0  0  0  0  0  0  0  0  0  0  0  0
   -4.3490   14.7300    0.8930 C   0  0  0  0  0  0  0  0  0  0  0  0
   -4.2200   15.5300   -1.4080 C   0  0  0  0  0  0  0  0  0  0  0  0
   -3.6350   15.1270   -0.2130 C   0  0  0  0  0  0  0  0  0  0  0  0
   -2.3140   15.1440   -0.3060 O   0  0  0  0  0  0  0  0  0  0  0  0
   -2.2220   14.4620   -1.4740 C   0  0  0  0  0  0  0  0  0  0  0  0
   -3.2640   13.5360   -1.6680 C   0  0  0  0  0  0  0  0  0  0  0  0
   -1.2350   14.6270   -2.4250 C   0  0  0  0  0  0  0  0  0  0  0  0
   -1.2910   13.8610   -3.5880 C   0  0  0  0  0  0  0  0  0  0  0  0
   -3.3150   12.7770   -2.8240 C   0  0  0  0  0  0  0  0  0  0  0  0
   -2.3260   12.9420   -3.7860 C   0  0  0  0  0  0  0  0  0  0  0  0
  1  2  1  0
  2  3  2  0
  1  4  1  0
  2  5  1  0
  4  6  1  0
  5  7  1  0
  5  8  1  0
  6  9  1  0
  6 10  2  0
 10 11  1  0
  9 12  1  0
 11 12  2  0
 12 13  1  0
 11 14  1  0
 13 15  2  0
 14 16  2  0
 15 16  1  0
 16 17  1  0
 17 18  1  0
 18 19  2  0
 18 20  1  0
 20 21  2  0
 19 22  1  0
 21 23  1  0
 22 23  2  0
M  END
