x0471_0_A-x0910_1_A
     RDKit          3D

 16 17  0  0  0  0  0  0  0  0999 V2000
   -8.8120   14.1070    2.8420 N   0  0  0  0  0  0  0  0  0  0  0  0
   -9.1740   15.1290    3.6830 C   0  0  0  0  0  0  0  0  0  0  0  0
   -9.4520   16.2440    3.2490 O   0  0  0  0  0  0  0  0  0  0  0  0
   -8.8880   14.2850    1.4070 C   0  0  0  0  0  0  0  0  0  0  0  0
   -9.2550   14.8290    5.1780 C   0  0  0  0  0  0  0  0  0  0  0  0
   -7.5120   14.5310    0.8860 C   0  0  0  0  0  0  0  0  0  0  0  0
   -9.6440   13.3800    5.4610 C   0  0  0  0  0  0  0  0  0  0  0  0
   -7.9860   15.2570    5.9050 C   0  0  0  0  0  0  0  0  0  0  0  0
   -7.2420   14.8190   -0.4330 N   0  0  0  0  0  0  0  0  0  0  0  0
   -6.4020   14.5060    1.5890 N   0  0  0  0  0  0  0  0  0  0  0  0
   -5.3840   14.7830    0.7140 C   0  0  0  0  0  0  0  0  0  0  0  0
   -5.8830   14.9850   -0.5650 C   0  0  0  0  0  0  0  0  0  0  0  0
   -5.0710   15.2820   -1.6570 C   0  0  0  0  0  0  0  0  0  0  0  0
   -4.0080   14.8770    0.9470 C   0  0  0  0  0  0  0  0  0  0  0  0
   -3.6990   15.3670   -1.4100 C   0  0  0  0  0  0  0  0  0  0  0  0
   -3.1720   15.1670   -0.1290 C   0  0  0  0  0  0  0  0  0  0  0  0
  1  2  1  0
  2  3  2  0
  1  4  1  0
  2  5  1  0
  4  6  1  0
  5  7  1  0
  5  8  1  0
  6  9  1  0
  6 10  2  0
 10 11  1  0
  9 12  1  0
 11 12  2  0
 12 13  1  0
 11 14  1  0
 13 15  2  0
 14 16  2  0
 15 16  1  0
M  END
