x0471_0_A_α-x0967_0_A_α
     RDKit          3D

 16 17  0  0  0  0  0  0  0  0999 V2000
   -8.8070   14.1170    2.8470 N   0  0  0  0  0  0  0  0  0  0  0  0
   -9.1700   15.1430    3.6810 C   0  0  0  0  0  0  0  0  0  0  0  0
   -9.4480   16.2540    3.2470 O   0  0  0  0  0  0  0  0  0  0  0  0
   -8.8970   14.2870    1.4110 C   0  0  0  0  0  0  0  0  0  0  0  0
   -9.2480   14.8370    5.1770 C   0  0  0  0  0  0  0  0  0  0  0  0
   -7.5220   14.5360    0.8910 C   0  0  0  0  0  0  0  0  0  0  0  0
   -9.6360   13.3880    5.4490 C   0  0  0  0  0  0  0  0  0  0  0  0
   -7.9810   15.2550    5.9080 C   0  0  0  0  0  0  0  0  0  0  0  0
   -7.2490   14.8290   -0.4260 N   0  0  0  0  0  0  0  0  0  0  0  0
   -6.4140   14.5100    1.5980 N   0  0  0  0  0  0  0  0  0  0  0  0
   -5.3960   14.7890    0.7280 C   0  0  0  0  0  0  0  0  0  0  0  0
   -5.8880   14.9950   -0.5530 C   0  0  0  0  0  0  0  0  0  0  0  0
   -5.0740   15.2960   -1.6400 C   0  0  0  0  0  0  0  0  0  0  0  0
   -4.0170   14.8830    0.9650 C   0  0  0  0  0  0  0  0  0  0  0  0
   -3.7020   15.3810   -1.3870 C   0  0  0  0  0  0  0  0  0  0  0  0
   -3.1790   15.1780   -0.1090 C   0  0  0  0  0  0  0  0  0  0  0  0
  1  2  1  0
  2  3  2  0
  1  4  1  0
  2  5  1  0
  4  6  1  0
  5  7  1  0
  5  8  1  0
  6  9  1  0
  6 10  2  0
 10 11  1  0
  9 12  1  0
 11 12  2  0
 12 13  1  0
 11 14  1  0
 13 15  2  0
 14 16  2  0
 15 16  1  0
M  END
