x0471_0_A-x0837_0_A
     RDKit          3D

 17 18  0  0  0  0  0  0  0  0999 V2000
   -8.8730   14.0700    2.7690 N   0  0  0  0  0  0  0  0  0  0  0  0
   -8.9780   14.9820    3.7910 C   0  0  0  0  0  0  0  0  0  0  0  0
   -9.2880   16.1570    3.5930 O   0  0  0  0  0  0  0  0  0  0  0  0
   -8.9240   14.5060    1.3910 C   0  0  0  0  0  0  0  0  0  0  0  0
   -8.6980   14.4370    5.1860 C   0  0  0  0  0  0  0  0  0  0  0  0
   -7.5380   14.6350    0.8810 C   0  0  0  0  0  0  0  0  0  0  0  0
   -9.8950   13.6520    5.7210 C   0  0  0  0  0  0  0  0  0  0  0  0
   -8.2920   15.5600    6.1330 C   0  0  0  0  0  0  0  0  0  0  0  0
   -7.2710   14.6590   -0.4600 N   0  0  0  0  0  0  0  0  0  0  0  0
   -6.4270   14.7340    1.5820 N   0  0  0  0  0  0  0  0  0  0  0  0
   -5.4080   14.8210    0.6690 C   0  0  0  0  0  0  0  0  0  0  0  0
   -5.9210   14.7710   -0.6210 C   0  0  0  0  0  0  0  0  0  0  0  0
   -5.1360   14.8240   -1.7550 C   0  0  0  0  0  0  0  0  0  0  0  0
   -4.0180   14.9410    0.8560 C   0  0  0  0  0  0  0  0  0  0  0  0
   -3.7690   14.9220   -1.5600 C   0  0  0  0  0  0  0  0  0  0  0  0
   -3.1960   14.9900   -0.2810 C   0  0  0  0  0  0  0  0  0  0  0  0
   -2.6070   14.9400   -3.2830 I   0  0  0  0  0  0  0  0  0  0  0  0
  1  2  1  0
  2  3  2  0
  1  4  1  0
  2  5  1  0
  4  6  1  0
  5  7  1  0
  5  8  1  0
  6  9  1  0
  6 10  2  0
 10 11  1  0
  9 12  1  0
 11 12  2  0
 12 13  1  0
 11 14  1  0
 13 15  2  0
 14 16  2  0
 15 16  1  0
 15 17  1  0
M  END
