x0471_0_A-x0905_0_A
     RDKit          3D

 17 18  0  0  0  0  0  0  0  0999 V2000
   -9.0500   14.5990    2.7600 N   0  0  0  0  0  0  0  0  0  0  0  0
   -9.1110   15.2030    3.9580 C   0  0  0  0  0  0  0  0  0  0  0  0
   -9.4160   16.4000    4.1640 O   0  0  0  0  0  0  0  0  0  0  0  0
   -8.9140   14.0570    1.5310 C   0  0  0  0  0  0  0  0  0  0  0  0
   -8.7810   14.4390    5.2440 C   0  0  0  0  0  0  0  0  0  0  0  0
   -7.6330   14.3800    0.8710 C   0  0  0  0  0  0  0  0  0  0  0  0
   -9.9760   13.6530    5.7210 C   0  0  0  0  0  0  0  0  0  0  0  0
   -8.2750   15.4250    6.2750 C   0  0  0  0  0  0  0  0  0  0  0  0
   -7.3570   14.6600   -0.3920 N   0  0  0  0  0  0  0  0  0  0  0  0
   -6.4400   14.4500    1.5270 N   0  0  0  0  0  0  0  0  0  0  0  0
   -5.4600   14.7580    0.6770 C   0  0  0  0  0  0  0  0  0  0  0  0
   -6.0500   14.8930   -0.5440 C   0  0  0  0  0  0  0  0  0  0  0  0
   -5.2880   15.2060   -1.5970 C   0  0  0  0  0  0  0  0  0  0  0  0
   -4.0920   14.9370    0.8450 C   0  0  0  0  0  0  0  0  0  0  0  0
   -5.9300   15.3250   -2.8180 O   0  0  0  0  0  0  0  0  0  0  0  0
   -3.9030   15.3960   -1.4890 C   0  0  0  0  0  0  0  0  0  0  0  0
   -3.3090   15.2510   -0.2300 C   0  0  0  0  0  0  0  0  0  0  0  0
  1  2  1  0
  2  3  2  0
  1  4  1  0
  2  5  1  0
  4  6  1  0
  5  7  1  0
  5  8  1  0
  6  9  1  0
  6 10  2  0
 10 11  1  0
  9 12  1  0
 11 12  2  0
 12 13  1  0
 11 14  1  0
 13 15  1  0
 13 16  2  0
 14 17  2  0
 16 17  1  0
M  END
