x0471_0_A-x0910_1_A
     RDKit          3D

 16 17  0  0  0  0  0  0  0  0999 V2000
   -8.8050   14.1110    2.8450 N   0  0  0  0  0  0  0  0  0  0  0  0
   -9.1640   15.1370    3.6780 C   0  0  0  0  0  0  0  0  0  0  0  0
   -9.4370   16.2510    3.2410 O   0  0  0  0  0  0  0  0  0  0  0  0
   -8.8900   14.2880    1.4090 C   0  0  0  0  0  0  0  0  0  0  0  0
   -9.2450   14.8360    5.1720 C   0  0  0  0  0  0  0  0  0  0  0  0
   -7.5160   14.5370    0.8900 C   0  0  0  0  0  0  0  0  0  0  0  0
   -9.6350   13.3870    5.4480 C   0  0  0  0  0  0  0  0  0  0  0  0
   -7.9780   15.2530    5.9060 C   0  0  0  0  0  0  0  0  0  0  0  0
   -7.2470   14.8270   -0.4260 N   0  0  0  0  0  0  0  0  0  0  0  0
   -6.4080   14.5160    1.5970 N   0  0  0  0  0  0  0  0  0  0  0  0
   -5.3910   14.7950    0.7240 C   0  0  0  0  0  0  0  0  0  0  0  0
   -5.8870   14.9970   -0.5560 C   0  0  0  0  0  0  0  0  0  0  0  0
   -5.0760   15.3000   -1.6450 C   0  0  0  0  0  0  0  0  0  0  0  0
   -4.0140   14.8910    0.9610 C   0  0  0  0  0  0  0  0  0  0  0  0
   -3.7050   15.3890   -1.3930 C   0  0  0  0  0  0  0  0  0  0  0  0
   -3.1790   15.1870   -0.1130 C   0  0  0  0  0  0  0  0  0  0  0  0
  1  2  1  0
  2  3  2  0
  1  4  1  0
  2  5  1  0
  4  6  1  0
  5  7  1  0
  5  8  1  0
  6  9  1  0
  6 10  2  0
 10 11  1  0
  9 12  1  0
 11 12  2  0
 12 13  1  0
 11 14  1  0
 13 15  2  0
 14 16  2  0
 15 16  1  0
M  END
