x0471_0_A-x0864_0_A
     RDKit          3D

 31 33  0  0  0  0  0  0  0  0999 V2000
   -8.7990   14.0740    2.6640 N   0  0  0  0  0  0  0  0  0  0  0  0
   -8.9870   14.9920    3.6720 C   0  0  0  0  0  0  0  0  0  0  0  0
   -9.3400   16.1520    3.4710 O   0  0  0  0  0  0  0  0  0  0  0  0
   -8.8160   14.4700    1.2690 C   0  0  0  0  0  0  0  0  0  0  0  0
   -8.7380   14.4680    5.0860 C   0  0  0  0  0  0  0  0  0  0  0  0
   -7.3970   14.6320    0.8380 C   0  0  0  0  0  0  0  0  0  0  0  0
   -9.9550   13.6980    5.5900 C   0  0  0  0  0  0  0  0  0  0  0  0
   -8.3290   15.5760    6.0520 C   0  0  0  0  0  0  0  0  0  0  0  0
   -7.0030   14.9250   -0.4510 N   0  0  0  0  0  0  0  0  0  0  0  0
   -6.3490   14.5210    1.6200 N   0  0  0  0  0  0  0  0  0  0  0  0
   -5.2500   14.7420    0.8360 C   0  0  0  0  0  0  0  0  0  0  0  0
   -5.6240   15.0000   -0.4720 C   0  0  0  0  0  0  0  0  0  0  0  0
   -4.6900   15.2590   -1.4790 C   0  0  0  0  0  0  0  0  0  0  0  0
   -3.8960   14.7330    1.1950 C   0  0  0  0  0  0  0  0  0  0  0  0
   -3.3300   15.2390   -1.1030 C   0  0  0  0  0  0  0  0  0  0  0  0
   -2.9110   14.9770    0.2270 C   0  0  0  0  0  0  0  0  0  0  0  0
   -1.4400   14.9320    0.6800 C   0  0  0  0  0  0  0  0  0  0  0  0
   -0.6950   13.6800    0.2300 C   0  0  0  0  0  0  0  0  0  0  0  0
    0.1500   13.6960   -1.0500 C   0  0  0  0  0  0  0  0  0  0  0  0
    0.2820   12.3130   -1.4700 N   0  0  0  0  0  0  0  0  0  0  0  0
    0.4320   11.8360   -2.6520 C   0  0  0  0  0  0  0  0  0  0  0  0
    0.5360   12.4930   -4.0320 C   0  0  0  0  0  0  0  0  0  0  0  0
    0.4900   10.4850   -2.6230 O   0  0  0  0  0  0  0  0  0  0  0  0
   -0.1900   11.7650   -5.0810 N   0  0  0  0  0  0  0  0  0  0  0  0
   -1.4140   11.1860   -4.7790 C   0  0  0  0  0  0  0  0  0  0  0  0
    0.4870   11.4600   -6.2620 C   0  0  0  0  0  0  0  0  0  0  0  0
    1.4890   12.0420   -6.6550 O   0  0  0  0  0  0  0  0  0  0  0  0
   -1.9290   10.2100   -5.5440 C   0  0  0  0  0  0  0  0  0  0  0  0
   -0.0580   10.3300   -7.0680 C   0  0  0  0  0  0  0  0  0  0  0  0
   -1.2110    9.7440   -6.7060 C   0  0  0  0  0  0  0  0  0  0  0  0
   -1.9440    8.3190   -7.6600 Br  0  0  0  0  0  0  0  0  0  0  0  0
  1  2  1  0
  2  3  2  0
  1  4  1  0
  2  5  1  0
  4  6  1  0
  5  7  1  0
  5  8  1  0
  6  9  1  0
  6 10  2  0
 10 11  1  0
  9 12  1  0
 11 12  2  0
 12 13  1  0
 11 14  1  0
 13 15  2  0
 14 16  2  0
 15 16  1  0
 16 17  1  0
 17 18  1  0
 18 19  1  0
 19 20  1  0
 20 21  2  3
 21 22  1  0
 21 23  1  0
 22 24  1  0
 24 25  1  0
 24 26  1  0
 26 27  2  0
 25 28  2  0
 26 29  1  0
 28 30  1  0
 29 30  2  0
 30 31  1  0
M  END
