x0471_0_A-x0711_0_A
     RDKit          3D

 24 25  0  0  0  0  0  0  0  0999 V2000
   -8.7210   14.0110    3.1130 N   0  0  0  0  0  0  0  0  0  0  0  0
   -8.9670   14.9570    4.0480 C   0  0  0  0  0  0  0  0  0  0  0  0
   -9.3440   16.0960    3.7630 O   0  0  0  0  0  0  0  0  0  0  0  0
   -8.6770   14.4120    1.7530 C   0  0  0  0  0  0  0  0  0  0  0  0
   -8.7540   14.4900    5.4730 C   0  0  0  0  0  0  0  0  0  0  0  0
   -7.2550   14.5480    1.3580 C   0  0  0  0  0  0  0  0  0  0  0  0
   -9.9650   13.7000    5.9610 C   0  0  0  0  0  0  0  0  0  0  0  0
   -8.4150   15.6560    6.3830 C   0  0  0  0  0  0  0  0  0  0  0  0
   -6.9650   14.6660    0.0690 N   0  0  0  0  0  0  0  0  0  0  0  0
   -6.1300   14.5790    2.0850 N   0  0  0  0  0  0  0  0  0  0  0  0
   -5.0880   14.7150    1.1770 C   0  0  0  0  0  0  0  0  0  0  0  0
   -5.6200   14.7700   -0.0450 C   0  0  0  0  0  0  0  0  0  0  0  0
   -4.9580   14.9000   -1.1750 C   0  0  0  0  0  0  0  0  0  0  0  0
   -3.6780   14.8040    1.2610 C   0  0  0  0  0  0  0  0  0  0  0  0
   -6.0440   14.9130   -2.0900 C   0  0  0  0  0  0  0  0  0  0  0  0
   -3.5330   14.9860   -1.2180 C   0  0  0  0  0  0  0  0  0  0  0  0
   -2.9090   14.9360    0.0550 C   0  0  0  0  0  0  0  0  0  0  0  0
   -2.7320   15.1190   -2.4560 N   0  0  0  0  0  0  0  0  0  0  0  0
   -7.0690   15.6730   -1.5940 N   0  0  0  0  0  0  0  0  0  0  0  0
   -6.1020   14.2960   -3.1080 O   0  0  0  0  0  0  0  0  0  0  0  0
   -1.2260   14.2930   -2.7440 S   0  0  0  0  0  0  0  0  0  0  0  0
   -1.7460   12.9750   -3.8220 C   0  0  0  0  0  0  0  0  0  0  0  0
   -0.3200   15.1320   -3.5120 O   0  0  0  0  0  0  0  0  0  0  0  0
   -0.7700   13.6690   -1.5220 O   0  0  0  0  0  0  0  0  0  0  0  0
  1  2  1  0
  2  3  2  0
  1  4  1  0
  2  5  1  0
  4  6  1  0
  5  7  1  0
  5  8  1  0
  6  9  1  0
  6 10  2  0
 10 11  1  0
  9 12  1  0
 11 12  2  0
 12 13  1  0
 11 14  1  0
 13 15  1  0
 13 16  2  0
 14 17  2  0
 16 17  1  0
 16 18  1  0
 15 19  1  0
 15 20  2  0
 21 18  1  0
 21 22  1  0
 21 23  2  0
 21 24  2  0
M  END
