x0471_0_A_α-x0950_1_A_α
     RDKit          3D

 25 26  0  0  0  0  0  0  0  0999 V2000
   -8.7910   14.1840    2.8110 N   0  0  0  0  0  0  0  0  0  0  0  0
   -9.1800   15.1910    3.6700 C   0  0  0  0  0  0  0  0  0  0  0  0
   -9.4830   16.2950    3.2440 O   0  0  0  0  0  0  0  0  0  0  0  0
   -8.8450   14.4100    1.3800 C   0  0  0  0  0  0  0  0  0  0  0  0
   -9.2390   14.8340    5.1570 C   0  0  0  0  0  0  0  0  0  0  0  0
   -7.4510   14.5820    0.8750 C   0  0  0  0  0  0  0  0  0  0  0  0
   -9.6140   13.3730    5.3930 C   0  0  0  0  0  0  0  0  0  0  0  0
   -7.9460   15.2060    5.8710 C   0  0  0  0  0  0  0  0  0  0  0  0
   -7.1420   14.9410   -0.4200 N   0  0  0  0  0  0  0  0  0  0  0  0
   -6.3550   14.4200    1.5800 N   0  0  0  0  0  0  0  0  0  0  0  0
   -5.3080   14.6700    0.7370 C   0  0  0  0  0  0  0  0  0  0  0  0
   -5.7670   15.0020   -0.5280 C   0  0  0  0  0  0  0  0  0  0  0  0
   -4.9050   15.3070   -1.5830 C   0  0  0  0  0  0  0  0  0  0  0  0
   -3.9300   14.6270    0.9900 C   0  0  0  0  0  0  0  0  0  0  0  0
   -3.5260   15.2520   -1.3100 C   0  0  0  0  0  0  0  0  0  0  0  0
   -3.0260   14.9110   -0.0360 C   0  0  0  0  0  0  0  0  0  0  0  0
   -1.5400   14.8270    0.2750 C   0  0  0  0  0  0  0  0  0  0  0  0
   -0.6250   14.6800   -0.9500 C   0  0  0  0  0  0  0  0  0  0  0  0
    0.0830   13.3320   -0.9870 C   0  0  0  0  0  0  0  0  0  0  0  0
    1.0190   13.2340   -2.0830 O   0  0  0  0  0  0  0  0  0  0  0  0
    0.8370   12.1970   -2.9450 C   0  0  0  0  0  0  0  0  0  0  0  0
    1.3320   12.5380   -4.3590 C   0  0  2  0  0  0  0  0  0  0  0  0
    0.3410   11.1110   -2.6520 O   0  0  0  0  0  0  0  0  0  0  0  0
    1.1130   13.9940   -4.7340 C   0  0  0  0  0  0  0  0  0  0  0  0
    0.6710   11.7300   -5.3350 O   0  0  0  0  0  0  0  0  0  0  0  0
  1  2  1  0
  2  3  2  0
  1  4  1  0
  2  5  1  0
  4  6  1  0
  5  7  1  0
  5  8  1  0
  6  9  1  0
  6 10  2  0
 10 11  1  0
  9 12  1  0
 11 12  2  0
 12 13  1  0
 11 14  1  0
 13 15  2  0
 14 16  2  0
 15 16  1  0
 16 17  1  0
 17 18  1  0
 18 19  1  0
 19 20  1  0
 20 21  1  0
 21 22  1  0
 21 23  2  0
 22 24  1  6
 22 25  1  0
M  END
