x0471_0_A-x0592_0_A
     RDKit          3D

 19 20  0  0  0  0  0  0  0  0999 V2000
   -7.6880   14.6760    3.1180 N   0  0  0  0  0  0  0  0  0  0  0  0
   -8.7370   15.3130    3.7660 C   0  0  0  0  0  0  0  0  0  0  0  0
   -9.3710   16.2170    3.2380 O   0  0  0  0  0  0  0  0  0  0  0  0
   -7.8400   14.0800    1.8130 C   0  0  0  0  0  0  0  0  0  0  0  0
   -9.0710   14.8300    5.1870 C   0  0  0  0  0  0  0  0  0  0  0  0
   -6.7760   14.4330    0.7870 C   0  0  0  0  0  0  0  0  0  0  0  0
   -9.5690   13.3860    5.2230 C   0  0  0  0  0  0  0  0  0  0  0  0
   -7.9050   15.0410    6.1400 C   0  0  0  0  0  0  0  0  0  0  0  0
   -7.1200   14.6880   -0.4830 N   0  0  0  0  0  0  0  0  0  0  0  0
   -5.3410   14.5590    0.8520 N   0  0  0  0  0  0  0  0  0  0  0  0
   -4.2080   14.4850    1.6400 C   0  0  0  0  0  0  0  0  0  0  0  0
   -4.8980   14.8510   -0.3150 C   0  0  0  0  0  0  0  0  0  0  0  0
   -5.9460   14.9330   -1.1480 C   0  0  0  0  0  0  0  0  0  0  0  0
   -4.0660   15.4050    2.5880 N   0  0  0  0  0  0  0  0  0  0  0  0
   -3.3390   13.6750    1.3280 O   0  0  0  0  0  0  0  0  0  0  0  0
   -5.6500   15.2320   -2.4690 C   0  0  0  0  0  0  0  0  0  0  0  0
   -3.5660   15.0340   -0.6250 C   0  0  0  0  0  0  0  0  0  0  0  0
   -4.3010   15.4160   -2.8320 C   0  0  0  0  0  0  0  0  0  0  0  0
   -3.2790   15.3160   -1.9180 C   0  0  0  0  0  0  0  0  0  0  0  0
  1  2  1  0
  2  3  2  0
  1  4  1  0
  2  5  1  0
  4  6  1  0
  5  7  1  0
  5  8  1  0
  6  9  2  0
  6 10  1  0
 10 11  1  0
 10 12  1  0
  9 13  1  0
 12 13  2  0
 11 14  1  0
 11 15  2  0
 13 16  1  0
 12 17  1  0
 16 18  2  0
 17 19  2  0
 18 19  1  0
M  END
