x0471_0_A-x0962_1_A
     RDKit          3D

 18 19  0  0  0  0  0  0  0  0999 V2000
   -8.6870   14.1730    2.5620 N   0  0  0  0  0  0  0  0  0  0  0  0
   -9.1130   15.1480    3.4450 C   0  0  0  0  0  0  0  0  0  0  0  0
   -9.4480   16.2560    3.0430 O   0  0  0  0  0  0  0  0  0  0  0  0
   -8.5480   14.4560    1.1300 C   0  0  0  0  0  0  0  0  0  0  0  0
   -9.1960   14.8120    4.9410 C   0  0  0  0  0  0  0  0  0  0  0  0
   -7.0880   14.6360    0.8240 C   0  0  0  0  0  0  0  0  0  0  0  0
   -9.5870   13.3610    5.2110 C   0  0  0  0  0  0  0  0  0  0  0  0
   -7.9440   15.2370    5.7000 C   0  0  0  0  0  0  0  0  0  0  0  0
   -6.4640   14.7420   -0.4210 N   0  0  0  0  0  0  0  0  0  0  0  0
   -6.1380   14.7210    1.7450 N   0  0  0  0  0  0  0  0  0  0  0  0
   -6.7760   14.7430   -1.8090 C   0  0  0  0  0  0  0  0  0  0  0  0
   -4.9440   14.8680    1.0590 C   0  0  0  0  0  0  0  0  0  0  0  0
   -5.1700   14.8780   -0.2750 C   0  0  0  0  0  0  0  0  0  0  0  0
   -6.8090   14.7620   -2.9510 N   0  0  0  0  0  0  0  0  0  0  0  0
   -4.2150   15.0030   -1.2750 C   0  0  0  0  0  0  0  0  0  0  0  0
   -3.6190   14.9970    1.4830 C   0  0  0  0  0  0  0  0  0  0  0  0
   -2.9180   15.1170   -0.8450 C   0  0  0  0  0  0  0  0  0  0  0  0
   -2.6180   15.1170    0.5120 C   0  0  0  0  0  0  0  0  0  0  0  0
  1  2  1  0
  2  3  2  0
  1  4  1  0
  2  5  1  0
  4  6  1  0
  5  7  1  0
  5  8  1  0
  6  9  1  0
  6 10  2  0
  9 11  1  0
 10 12  1  0
  9 13  1  0
 12 13  2  0
 11 14  3  0
 13 15  1  0
 12 16  1  0
 15 17  2  0
 16 18  2  0
 17 18  1  0
M  END
