x0471_0_A_α-x0844_0_A_α
     RDKit          3D

 18 19  0  0  0  0  0  0  0  0999 V2000
   -8.9320   13.9950    2.9600 N   0  0  0  0  0  0  0  0  0  0  0  0
   -8.9880   14.9560    3.9300 C   0  0  0  0  0  0  0  0  0  0  0  0
   -9.2560   16.1340    3.6940 O   0  0  0  0  0  0  0  0  0  0  0  0
   -8.9810   14.3940    1.5770 C   0  0  0  0  0  0  0  0  0  0  0  0
   -8.7090   14.4530    5.3340 C   0  0  0  0  0  0  0  0  0  0  0  0
   -7.5730   14.5850    1.0780 C   0  0  0  0  0  0  0  0  0  0  0  0
   -9.8980   13.6560    5.8730 C   0  0  0  0  0  0  0  0  0  0  0  0
   -8.3210   15.6050    6.2540 C   0  0  0  0  0  0  0  0  0  0  0  0
   -7.3900   14.6120   -0.2890 N   0  0  0  0  0  0  0  0  0  0  0  0
   -6.5040   14.7350    1.8310 N   0  0  0  0  0  0  0  0  0  0  0  0
   -5.4940   14.8530    0.9240 C   0  0  0  0  0  0  0  0  0  0  0  0
   -6.1170   14.7880   -0.3700 C   0  0  0  0  0  0  0  0  0  0  0  0
   -5.3460   14.9090   -1.5860 C   0  0  0  0  0  0  0  0  0  0  0  0
   -4.1660   14.9970    1.0290 C   0  0  0  0  0  0  0  0  0  0  0  0
   -5.9890   14.9120   -2.6020 O   0  0  0  0  0  0  0  0  0  0  0  0
   -3.8680   15.0000   -1.4220 C   0  0  0  0  0  0  0  0  0  0  0  0
   -3.3450   15.0520   -0.1750 C   0  0  0  0  0  0  0  0  0  0  0  0
   -2.8530   15.0050   -2.9820 Br  0  0  0  0  0  0  0  0  0  0  0  0
  1  2  1  0
  2  3  2  0
  1  4  1  0
  2  5  1  0
  4  6  1  0
  5  7  1  0
  5  8  1  0
  6  9  1  0
  6 10  2  0
 10 11  1  0
  9 12  2  0
 11 12  1  0
 12 13  1  0
 11 14  2  0
 13 15  2  0
 13 16  1  0
 14 17  1  0
 16 17  2  0
 16 18  1  0
M  END
