x0471_0_A-x0926_0_A
     RDKit          3D

 17 18  0  0  0  0  0  0  0  0999 V2000
   -8.9240   13.9700    2.8550 N   0  0  0  0  0  0  0  0  0  0  0  0
   -8.9840   14.9440    3.8180 C   0  0  0  0  0  0  0  0  0  0  0  0
   -9.2540   16.1210    3.5690 O   0  0  0  0  0  0  0  0  0  0  0  0
   -8.9430   14.3470    1.4610 C   0  0  0  0  0  0  0  0  0  0  0  0
   -8.7100   14.4570    5.2320 C   0  0  0  0  0  0  0  0  0  0  0  0
   -7.5260   14.5710    0.9850 C   0  0  0  0  0  0  0  0  0  0  0  0
   -9.9010   13.6690    5.7740 C   0  0  0  0  0  0  0  0  0  0  0  0
   -8.3120   15.6040    6.1500 C   0  0  0  0  0  0  0  0  0  0  0  0
   -7.2940   14.7450   -0.3650 N   0  0  0  0  0  0  0  0  0  0  0  0
   -6.4840   14.6150    1.7820 N   0  0  0  0  0  0  0  0  0  0  0  0
   -5.4440   14.8400    0.9320 C   0  0  0  0  0  0  0  0  0  0  0  0
   -6.0090   14.9110   -0.3920 C   0  0  0  0  0  0  0  0  0  0  0  0
   -5.1440   15.1380   -1.5520 C   0  0  0  0  0  0  0  0  0  0  0  0
   -4.1300   14.9910    1.1200 C   0  0  0  0  0  0  0  0  0  0  0  0
   -5.6360   15.1610   -2.6420 O   0  0  0  0  0  0  0  0  0  0  0  0
   -3.6950   15.3020   -1.2710 C   0  0  0  0  0  0  0  0  0  0  0  0
   -3.2520   15.2220   -0.0060 C   0  0  0  0  0  0  0  0  0  0  0  0
  1  2  1  0
  2  3  2  0
  1  4  1  0
  2  5  1  0
  4  6  1  0
  5  7  1  0
  5  8  1  0
  6  9  1  0
  6 10  2  0
 10 11  1  0
  9 12  2  0
 11 12  1  0
 12 13  1  0
 11 14  2  0
 13 15  2  0
 13 16  1  0
 14 17  1  0
 16 17  2  0
M  END
