x0471_0_A_α-x0933_0_A_α
     RDKit          3D

 17 18  0  0  0  0  0  0  0  0999 V2000
   -8.9840   13.9920    2.6620 N   0  0  0  0  0  0  0  0  0  0  0  0
   -9.0250   14.9440    3.6620 C   0  0  0  0  0  0  0  0  0  0  0  0
   -9.2900   16.1250    3.4370 O   0  0  0  0  0  0  0  0  0  0  0  0
   -9.0460   14.3560    1.2580 C   0  0  0  0  0  0  0  0  0  0  0  0
   -8.7360   14.4310    5.0690 C   0  0  0  0  0  0  0  0  0  0  0  0
   -7.6670   14.5890    0.7630 C   0  0  0  0  0  0  0  0  0  0  0  0
   -9.9210   13.6470    5.6260 C   0  0  0  0  0  0  0  0  0  0  0  0
   -8.3250   15.5700    6.0030 C   0  0  0  0  0  0  0  0  0  0  0  0
   -7.3660   14.7830   -0.5720 N   0  0  0  0  0  0  0  0  0  0  0  0
   -6.5840   14.6430    1.4940 N   0  0  0  0  0  0  0  0  0  0  0  0
   -5.5610   14.8820    0.6150 C   0  0  0  0  0  0  0  0  0  0  0  0
   -6.0120   14.9740   -0.6840 C   0  0  0  0  0  0  0  0  0  0  0  0
   -5.1610   15.2130   -1.7630 C   0  0  0  0  0  0  0  0  0  0  0  0
   -4.2130   15.0290    0.9030 C   0  0  0  0  0  0  0  0  0  0  0  0
   -3.7810   14.9470    2.2130 N   0  0  0  0  0  0  0  0  0  0  0  0
   -3.7990   15.3530   -1.4640 C   0  0  0  0  0  0  0  0  0  0  0  0
   -3.3340   15.2600   -0.1470 C   0  0  0  0  0  0  0  0  0  0  0  0
  1  2  1  0
  2  3  2  0
  1  4  1  0
  2  5  1  0
  4  6  1  0
  5  7  1  0
  5  8  1  0
  6  9  1  0
  6 10  2  0
 10 11  1  0
  9 12  1  0
 11 12  2  0
 12 13  1  0
 11 14  1  0
 14 15  1  0
 13 16  2  0
 14 17  2  0
 16 17  1  0
M  END
