x0471_0_A_α-x0290_0_A_α
     RDKit          3D

 27 29  0  0  0  0  0  0  0  0999 V2000
   -7.9930   14.0350    2.4930 N   0  0  0  0  0  0  0  0  0  0  0  0
   -8.6840   14.7680    3.4890 C   0  0  0  0  0  0  0  0  0  0  0  0
   -9.3400   15.7850    3.2090 O   0  0  0  0  0  0  0  0  0  0  0  0
   -8.4770   14.2450    1.1400 C   0  0  0  0  0  0  0  0  0  0  0  0
   -6.4960   13.7680    2.6130 C   0  0  0  0  0  0  0  0  0  0  0  0
   -8.6410   14.3030    4.9570 C   0  0  0  0  0  0  0  0  0  0  0  0
   -5.4390   13.5690    1.4340 C   0  0  0  0  0  0  0  0  0  0  0  0
   -7.2420   14.6480    0.4860 C   0  0  0  0  0  0  0  0  0  0  0  0
   -9.9870   13.7090    5.3870 C   0  0  0  0  0  0  0  0  0  0  0  0
   -8.2660   15.4740    5.8740 C   0  0  0  0  0  0  0  0  0  0  0  0
   -5.7310   13.0940    0.3300 O   0  0  0  0  0  0  0  0  0  0  0  0
   -4.1330   13.9820    1.8170 N   0  0  0  0  0  0  0  0  0  0  0  0
   -6.9870   14.7020   -0.8530 N   0  0  0  0  0  0  0  0  0  0  0  0
   -6.1970   15.0070    1.1810 N   0  0  0  0  0  0  0  0  0  0  0  0
   -5.2260   15.3070    0.2990 C   0  0  0  0  0  0  0  0  0  0  0  0
   -5.6820   15.1200   -0.9980 C   0  0  0  0  0  0  0  0  0  0  0  0
   -2.9200   14.1370    1.0750 C   0  0  0  0  0  0  0  0  0  0  0  0
   -4.8730   15.3470   -2.1000 C   0  0  0  0  0  0  0  0  0  0  0  0
   -3.9260   15.7430    0.5520 C   0  0  0  0  0  0  0  0  0  0  0  0
   -1.8290   14.3460    1.8670 N   0  0  0  0  0  0  0  0  0  0  0  0
   -2.7890   14.0950   -0.3150 C   0  0  0  0  0  0  0  0  0  0  0  0
   -3.5650   15.7760   -1.8410 C   0  0  0  0  0  0  0  0  0  0  0  0
   -3.0960   15.9720   -0.5370 C   0  0  0  0  0  0  0  0  0  0  0  0
   -0.6240   14.5120    1.2750 C   0  0  0  0  0  0  0  0  0  0  0  0
   -1.5190   14.2800   -0.9040 C   0  0  0  0  0  0  0  0  0  0  0  0
   -1.3580   14.2530   -2.3950 C   0  0  0  0  0  0  0  0  0  0  0  0
   -0.4180   14.4910   -0.0860 C   0  0  0  0  0  0  0  0  0  0  0  0
  1  2  1  0
  2  3  2  0
  1  4  1  0
  1  5  1  0
  2  6  1  0
  5  7  1  0
  4  8  1  0
  6  9  1  0
  6 10  1  0
  7 11  2  0
  7 12  1  0
  8 13  1  0
  8 14  2  0
 14 15  1  0
 13 16  1  0
 15 16  2  0
 12 17  1  0
 16 18  1  0
 15 19  1  0
 17 20  2  0
 17 21  1  0
 18 22  2  0
 19 23  2  0
 22 23  1  0
 20 24  1  0
 21 25  2  0
 25 26  1  0
 24 27  2  0
 25 27  1  0
M  END
