x0471_0_A_α-x0465_0_A_α
     RDKit          3D

 32 34  0  0  0  0  0  0  0  0999 V2000
   -8.7150   14.1970    2.8140 N   0  0  0  0  0  0  0  0  0  0  0  0
   -9.1530   15.1940    3.6590 C   0  0  0  0  0  0  0  0  0  0  0  0
   -9.4870   16.2860    3.2260 O   0  0  0  0  0  0  0  0  0  0  0  0
   -8.7700   14.3990    1.3800 C   0  0  0  0  0  0  0  0  0  0  0  0
   -9.2280   14.8380    5.1490 C   0  0  0  0  0  0  0  0  0  0  0  0
   -7.3740   14.5680    0.8820 C   0  0  0  0  0  0  0  0  0  0  0  0
   -9.5940   13.3710    5.3680 C   0  0  0  0  0  0  0  0  0  0  0  0
   -7.9530   15.2170    5.8960 C   0  0  0  0  0  0  0  0  0  0  0  0
   -7.0810   14.8960   -0.4220 N   0  0  0  0  0  0  0  0  0  0  0  0
   -6.2710   14.4370    1.5820 N   0  0  0  0  0  0  0  0  0  0  0  0
   -5.2270   14.6780    0.7200 C   0  0  0  0  0  0  0  0  0  0  0  0
   -5.7100   14.9720   -0.5490 C   0  0  0  0  0  0  0  0  0  0  0  0
   -4.8770   15.2590   -1.6230 C   0  0  0  0  0  0  0  0  0  0  0  0
   -3.8330   14.6630    0.9490 C   0  0  0  0  0  0  0  0  0  0  0  0
   -3.4950   15.2350   -1.3830 C   0  0  0  0  0  0  0  0  0  0  0  0
   -2.9510   14.9380   -0.1140 C   0  0  0  0  0  0  0  0  0  0  0  0
   -1.4320   14.9190    0.0910 C   0  0  0  0  0  0  0  0  0  0  0  0
   -0.7020   13.5980   -0.0340 C   0  0  0  0  0  0  0  0  0  0  0  0
    0.2620   13.5550   -1.2340 C   0  0  0  0  0  0  0  0  0  0  0  0
    0.3260   12.1580   -1.5860 N   0  0  0  0  0  0  0  0  0  0  0  0
    0.4920   11.6560   -2.7620 C   0  0  0  0  0  0  0  0  0  0  0  0
    0.6770   12.4170   -4.1130 C   0  0  1  0  0  0  0  0  0  0  0  0
    0.4810   10.3040   -2.8100 O   0  0  0  0  0  0  0  0  0  0  0  0
    2.0630   13.0550   -4.2120 C   0  0  0  0  0  0  0  0  0  0  0  0
    0.5440   11.4750   -5.2080 O   0  0  0  0  0  0  0  0  0  0  0  0
   -0.6510   10.8400   -5.4470 C   0  0  0  0  0  0  0  0  0  0  0  0
   -0.6810    9.8990   -6.5040 C   0  0  0  0  0  0  0  0  0  0  0  0
   -1.8240   11.0540   -4.7270 C   0  0  0  0  0  0  0  0  0  0  0  0
    0.4080    9.6450   -7.2450 F   0  0  0  0  0  0  0  0  0  0  0  0
   -1.8400    9.1990   -6.8190 C   0  0  0  0  0  0  0  0  0  0  0  0
   -2.9920   10.3470   -5.0490 C   0  0  0  0  0  0  0  0  0  0  0  0
   -3.0010    9.4230   -6.0890 C   0  0  0  0  0  0  0  0  0  0  0  0
  1  2  1  0
  2  3  2  0
  1  4  1  0
  2  5  1  0
  4  6  1  0
  5  7  1  0
  5  8  1  0
  6  9  1  0
  6 10  2  0
 10 11  1  0
  9 12  1  0
 11 12  2  0
 12 13  1  0
 11 14  1  0
 13 15  2  0
 14 16  2  0
 15 16  1  0
 16 17  1  0
 17 18  1  0
 18 19  1  0
 19 20  1  0
 20 21  2  3
 21 22  1  0
 21 23  1  0
 22 24  1  1
 22 25  1  0
 25 26  1  0
 26 27  2  0
 26 28  1  0
 27 29  1  0
 27 30  1  0
 28 31  2  0
 30 32  2  0
 31 32  1  0
M  END
