x0471_0_A-x1015_0_A
     RDKit          3D

 33 36  0  0  0  0  0  0  0  0999 V2000
   -8.7640   14.1190    2.8550 N   0  0  0  0  0  0  0  0  0  0  0  0
   -9.1540   15.1570    3.6700 C   0  0  0  0  0  0  0  0  0  0  0  0
   -9.4340   16.2570    3.2120 O   0  0  0  0  0  0  0  0  0  0  0  0
   -8.8260   14.2700    1.4160 C   0  0  0  0  0  0  0  0  0  0  0  0
   -9.2470   14.8420    5.1660 C   0  0  0  0  0  0  0  0  0  0  0  0
   -7.4540   14.5600    0.9010 C   0  0  0  0  0  0  0  0  0  0  0  0
   -9.6200   13.3840    5.4210 C   0  0  0  0  0  0  0  0  0  0  0  0
   -7.9710   15.2350    5.9010 C   0  0  0  0  0  0  0  0  0  0  0  0
   -7.1700   14.7230   -0.4350 N   0  0  0  0  0  0  0  0  0  0  0  0
   -6.3600   14.6980    1.6250 N   0  0  0  0  0  0  0  0  0  0  0  0
   -5.3420   14.9580    0.7400 C   0  0  0  0  0  0  0  0  0  0  0  0
   -5.8210   14.9770   -0.5600 C   0  0  0  0  0  0  0  0  0  0  0  0
   -5.0100   15.2120   -1.6690 C   0  0  0  0  0  0  0  0  0  0  0  0
   -3.9760   15.1900    0.9800 C   0  0  0  0  0  0  0  0  0  0  0  0
   -3.6410   15.4350   -1.4270 C   0  0  0  0  0  0  0  0  0  0  0  0
   -3.1370   15.4280   -0.1170 C   0  0  0  0  0  0  0  0  0  0  0  0
   -2.7190   15.6740   -2.6000 C   0  0  0  0  0  0  0  0  0  0  0  0
   -2.3750   14.3440   -3.2730 C   0  0  0  0  0  0  0  0  0  0  0  0
   -1.2420   14.4920   -4.2960 C   0  0  0  0  0  0  0  0  0  0  0  0
    0.0240   13.6810   -3.9640 C   0  0  2  0  0  0  0  0  0  0  0  0
   -0.1380   12.2330   -3.9160 N   0  0  0  0  0  0  0  0  0  0  0  0
    0.4610   13.9490   -2.5290 C   0  0  0  0  0  0  0  0  0  0  0  0
    0.5610   15.0430   -1.9940 O   0  0  0  0  0  0  0  0  0  0  0  0
    0.2790   11.7220   -2.6750 C   0  0  0  0  0  0  0  0  0  0  0  0
    0.7310   12.7660   -1.9290 N   0  0  0  0  0  0  0  0  0  0  0  0
   -0.5180   11.4420   -5.0320 C   0  0  0  0  0  0  0  0  0  0  0  0
    0.2710   10.5570   -2.2700 O   0  0  0  0  0  0  0  0  0  0  0  0
    0.0540   11.6470   -6.2960 C   0  0  0  0  0  0  0  0  0  0  0  0
   -1.4770   10.4290   -4.9000 C   0  0  0  0  0  0  0  0  0  0  0  0
   -0.3220   10.8630   -7.3940 C   0  0  0  0  0  0  0  0  0  0  0  0
   -1.8560    9.6430   -5.9920 C   0  0  0  0  0  0  0  0  0  0  0  0
   -1.2780    9.8620   -7.2340 C   0  0  0  0  0  0  0  0  0  0  0  0
   -1.7480    8.8950   -8.5750 Cl  0  0  0  0  0  0  0  0  0  0  0  0
  1  2  1  0
  2  3  2  0
  1  4  1  0
  2  5  1  0
  4  6  1  0
  5  7  1  0
  5  8  1  0
  6  9  1  0
  6 10  2  0
 10 11  1  0
  9 12  1  0
 11 12  2  0
 12 13  1  0
 11 14  1  0
 13 15  2  0
 14 16  2  0
 15 16  1  0
 15 17  1  0
 17 18  1  0
 18 19  1  0
 20 19  1  1
 20 21  1  0
 20 22  1  0
 22 23  2  0
 21 24  1  0
 22 25  1  0
 24 25  1  0
 21 26  1  0
 24 27  2  0
 26 28  2  0
 26 29  1  0
 28 30  1  0
 29 31  2  0
 30 32  2  0
 31 32  1  0
 32 33  1  0
M  END
