x0471_0_A_α-x0962_0_A_α
     RDKit          3D

 17 18  0  0  0  0  0  0  0  0999 V2000
   -8.8710   14.0570    2.6980 N   0  0  0  0  0  0  0  0  0  0  0  0
   -8.9770   14.9780    3.7140 C   0  0  0  0  0  0  0  0  0  0  0  0
   -9.2840   16.1530    3.5080 O   0  0  0  0  0  0  0  0  0  0  0  0
   -8.8970   14.4750    1.3140 C   0  0  0  0  0  0  0  0  0  0  0  0
   -8.6980   14.4430    5.1150 C   0  0  0  0  0  0  0  0  0  0  0  0
   -7.4970   14.6330    0.8410 C   0  0  0  0  0  0  0  0  0  0  0  0
   -9.8940   13.6580    5.6530 C   0  0  0  0  0  0  0  0  0  0  0  0
   -8.2890   15.5660    6.0590 C   0  0  0  0  0  0  0  0  0  0  0  0
   -7.1790   14.7570   -0.4890 N   0  0  0  0  0  0  0  0  0  0  0  0
   -6.4160   14.6770    1.5880 N   0  0  0  0  0  0  0  0  0  0  0  0
   -5.3650   14.8310    0.7200 C   0  0  0  0  0  0  0  0  0  0  0  0
   -5.8180   14.8800   -0.5910 C   0  0  0  0  0  0  0  0  0  0  0  0
   -4.9660   15.0240   -1.6840 C   0  0  0  0  0  0  0  0  0  0  0  0
   -3.9910   14.9320    0.9830 C   0  0  0  0  0  0  0  0  0  0  0  0
   -3.5930   15.1120   -1.4210 C   0  0  0  0  0  0  0  0  0  0  0  0
   -3.1230   15.0700   -0.1030 C   0  0  0  0  0  0  0  0  0  0  0  0
   -2.6940   15.2360   -2.4860 N   0  0  0  0  0  0  0  0  0  0  0  0
  1  2  1  0
  2  3  2  0
  1  4  1  0
  2  5  1  0
  4  6  1  0
  5  7  1  0
  5  8  1  0
  6  9  1  0
  6 10  2  0
 10 11  1  0
  9 12  1  0
 11 12  2  0
 12 13  1  0
 11 14  1  0
 13 15  2  0
 14 16  2  0
 15 16  1  0
 15 17  1  0
M  END
