x0471_0_A_α-x1012_0_A_α
     RDKit          3D

 30 32  0  0  0  0  0  0  0  0999 V2000
   -8.8330   13.9830    2.8750 N   0  0  0  0  0  0  0  0  0  0  0  0
   -8.9570   14.9560    3.8370 C   0  0  0  0  0  0  0  0  0  0  0  0
   -9.2610   16.1160    3.5710 O   0  0  0  0  0  0  0  0  0  0  0  0
   -8.9650   14.3320    1.4830 C   0  0  0  0  0  0  0  0  0  0  0  0
   -8.6850   14.4460    5.2490 C   0  0  0  0  0  0  0  0  0  0  0  0
   -7.6050   14.5630    0.9420 C   0  0  0  0  0  0  0  0  0  0  0  0
   -9.9110   13.6800    5.7600 C   0  0  0  0  0  0  0  0  0  0  0  0
   -8.3290   15.5920    6.1900 C   0  0  0  0  0  0  0  0  0  0  0  0
   -7.4020   14.6660   -0.4020 N   0  0  0  0  0  0  0  0  0  0  0  0
   -6.4720   14.6970    1.6060 N   0  0  0  0  0  0  0  0  0  0  0  0
   -5.5040   14.8960    0.6510 C   0  0  0  0  0  0  0  0  0  0  0  0
   -6.0770   14.8750   -0.6080 C   0  0  0  0  0  0  0  0  0  0  0  0
   -5.3700   15.0390   -1.7710 C   0  0  0  0  0  0  0  0  0  0  0  0
   -4.1160   15.1020    0.7730 C   0  0  0  0  0  0  0  0  0  0  0  0
   -4.0060   15.2320   -1.6660 C   0  0  0  0  0  0  0  0  0  0  0  0
   -3.3680   15.2700   -0.4060 C   0  0  0  0  0  0  0  0  0  0  0  0
   -3.2810   15.3850   -2.9710 C   0  0  0  0  0  0  0  0  0  0  0  0
   -1.9870   16.1270   -2.8590 C   0  0  0  0  0  0  0  0  0  0  0  0
   -1.9180   17.1990   -3.8440 N   0  0  0  0  0  0  0  0  0  0  0  0
   -1.2030   16.9970   -4.8500 C   0  0  0  0  0  0  0  0  0  0  0  0
   -0.9560   17.8590   -5.8620 N   0  0  0  0  0  0  0  0  0  0  0  0
   -0.5790   15.7710   -4.9820 N   0  0  0  0  0  0  0  0  0  0  0  0
   -1.4310   14.5620   -5.0460 C   0  0  0  0  0  0  0  0  0  0  0  0
    0.8530   15.5790   -4.6990 C   0  0  0  0  0  0  0  0  0  0  0  0
   -1.1950   13.5980   -3.8870 C   0  0  0  0  0  0  0  0  0  0  0  0
    1.0960   14.6450   -3.5110 C   0  0  0  0  0  0  0  0  0  0  0  0
    0.2880   13.3400   -3.6360 C   0  0  0  0  0  0  0  0  0  0  0  0
    0.3740   12.4200   -2.4340 C   0  0  0  0  0  0  0  0  0  0  0  0
    0.1140   11.1360   -2.7200 O   0  0  0  0  0  0  0  0  0  0  0  0
    0.6290   12.7410   -1.2840 O   0  0  0  0  0  0  0  0  0  0  0  0
  1  2  1  0
  2  3  2  0
  1  4  1  0
  2  5  1  0
  4  6  1  0
  5  7  1  0
  5  8  1  0
  6  9  1  0
  6 10  2  0
 10 11  1  0
  9 12  1  0
 11 12  2  0
 12 13  1  0
 11 14  1  0
 13 15  2  0
 14 16  2  0
 15 16  1  0
 15 17  1  0
 17 18  1  0
 18 19  1  0
 19 20  2  3
 20 21  1  0
 20 22  1  0
 22 23  1  0
 22 24  1  0
 23 25  1  0
 24 26  1  0
 25 27  1  0
 26 27  1  0
 27 28  1  0
 28 29  1  0
 28 30  2  0
M  END
