x0471_0_A_α-x0900_0_A_α
     RDKit          3D

 17 18  0  0  0  0  0  0  0  0999 V2000
   -8.9210   13.9590    2.8670 N   0  0  0  0  0  0  0  0  0  0  0  0
   -8.9880   14.9370    3.8270 C   0  0  0  0  0  0  0  0  0  0  0  0
   -9.2510   16.1120    3.5740 O   0  0  0  0  0  0  0  0  0  0  0  0
   -8.9450   14.3300    1.4700 C   0  0  0  0  0  0  0  0  0  0  0  0
   -8.7130   14.4550    5.2440 C   0  0  0  0  0  0  0  0  0  0  0  0
   -7.5340   14.5600    0.9860 C   0  0  0  0  0  0  0  0  0  0  0  0
   -9.9040   13.6700    5.7910 C   0  0  0  0  0  0  0  0  0  0  0  0
   -8.3220   15.6070    6.1600 C   0  0  0  0  0  0  0  0  0  0  0  0
   -7.3170   14.7480   -0.3630 N   0  0  0  0  0  0  0  0  0  0  0  0
   -6.4820   14.5970    1.7700 N   0  0  0  0  0  0  0  0  0  0  0  0
   -5.4510   14.8290    0.9100 C   0  0  0  0  0  0  0  0  0  0  0  0
   -6.0370   14.9130   -0.4070 C   0  0  0  0  0  0  0  0  0  0  0  0
   -5.1900   15.1560   -1.5740 C   0  0  0  0  0  0  0  0  0  0  0  0
   -4.1340   14.9730    1.0810 C   0  0  0  0  0  0  0  0  0  0  0  0
   -5.7090   15.1950   -2.6580 O   0  0  0  0  0  0  0  0  0  0  0  0
   -3.7360   15.3110   -1.3180 C   0  0  0  0  0  0  0  0  0  0  0  0
   -3.2730   15.2140   -0.0560 C   0  0  0  0  0  0  0  0  0  0  0  0
  1  2  1  0
  2  3  2  0
  1  4  1  0
  2  5  1  0
  4  6  1  0
  5  7  1  0
  5  8  1  0
  6  9  1  0
  6 10  2  0
 10 11  1  0
  9 12  2  0
 11 12  1  0
 12 13  1  0
 11 14  2  0
 13 15  2  0
 13 16  1  0
 14 17  1  0
 16 17  2  0
M  END
