x0471_0_A-x0290_0_A
     RDKit          3D

 27 29  0  0  0  0  0  0  0  0999 V2000
   -7.9920   14.0370    2.4910 N   0  0  0  0  0  0  0  0  0  0  0  0
   -8.6870   14.7670    3.4870 C   0  0  0  0  0  0  0  0  0  0  0  0
   -9.3400   15.7860    3.2080 O   0  0  0  0  0  0  0  0  0  0  0  0
   -8.4800   14.2500    1.1370 C   0  0  0  0  0  0  0  0  0  0  0  0
   -6.5000   13.7710    2.6100 C   0  0  0  0  0  0  0  0  0  0  0  0
   -8.6400   14.3030    4.9570 C   0  0  0  0  0  0  0  0  0  0  0  0
   -5.4430   13.5760    1.4280 C   0  0  0  0  0  0  0  0  0  0  0  0
   -7.2420   14.6510    0.4850 C   0  0  0  0  0  0  0  0  0  0  0  0
   -9.9870   13.7090    5.3900 C   0  0  0  0  0  0  0  0  0  0  0  0
   -8.2660   15.4740    5.8730 C   0  0  0  0  0  0  0  0  0  0  0  0
   -5.7410   13.1050    0.3250 O   0  0  0  0  0  0  0  0  0  0  0  0
   -4.1390   13.9890    1.8110 N   0  0  0  0  0  0  0  0  0  0  0  0
   -6.9890   14.7030   -0.8540 N   0  0  0  0  0  0  0  0  0  0  0  0
   -6.2000   15.0090    1.1810 N   0  0  0  0  0  0  0  0  0  0  0  0
   -5.2280   15.3080    0.2990 C   0  0  0  0  0  0  0  0  0  0  0  0
   -5.6820   15.1230   -0.9980 C   0  0  0  0  0  0  0  0  0  0  0  0
   -2.9240   14.1410    1.0680 C   0  0  0  0  0  0  0  0  0  0  0  0
   -4.8760   15.3500   -2.1000 C   0  0  0  0  0  0  0  0  0  0  0  0
   -3.9270   15.7450    0.5520 C   0  0  0  0  0  0  0  0  0  0  0  0
   -1.8330   14.3470    1.8640 N   0  0  0  0  0  0  0  0  0  0  0  0
   -2.7930   14.1000   -0.3210 C   0  0  0  0  0  0  0  0  0  0  0  0
   -3.5660   15.7790   -1.8420 C   0  0  0  0  0  0  0  0  0  0  0  0
   -3.0980   15.9740   -0.5360 C   0  0  0  0  0  0  0  0  0  0  0  0
   -0.6270   14.5090    1.2750 C   0  0  0  0  0  0  0  0  0  0  0  0
   -1.5220   14.2820   -0.9100 C   0  0  0  0  0  0  0  0  0  0  0  0
   -1.3580   14.2540   -2.4010 C   0  0  0  0  0  0  0  0  0  0  0  0
   -0.4200   14.4890   -0.0850 C   0  0  0  0  0  0  0  0  0  0  0  0
  1  2  1  0
  2  3  2  0
  1  4  1  0
  1  5  1  0
  2  6  1  0
  5  7  1  0
  4  8  1  0
  6  9  1  0
  6 10  1  0
  7 11  2  0
  7 12  1  0
  8 13  1  0
  8 14  2  0
 14 15  1  0
 13 16  1  0
 15 16  2  0
 12 17  1  0
 16 18  1  0
 15 19  1  0
 17 20  2  0
 17 21  1  0
 18 22  2  0
 19 23  2  0
 22 23  1  0
 20 24  1  0
 21 25  2  0
 25 26  1  0
 24 27  2  0
 25 27  1  0
M  END
