x0496_0_A_α-x0933_3_B_α
     RDKit          3D

 24 25  0  0  0  0  0  0  0  0999 V2000
    1.9590   42.2960    0.5790 C   0  0  0  0  0  0  0  0  0  0  0  0
    3.4180   42.1390    0.9760 C   0  0  0  0  0  0  0  0  0  0  0  0
    4.2710   43.3170    0.5140 C   0  0  0  0  0  0  0  0  0  0  0  0
    3.9650   40.8410    0.4500 C   0  0  0  0  0  0  0  0  0  0  0  0
    4.5930   40.8450   -0.7410 N   0  0  0  0  0  0  0  0  0  0  0  0
    3.7880   39.7620    1.2180 N   0  0  0  0  0  0  0  0  0  0  0  0
    5.0680   39.6610   -1.1670 C   0  0  0  0  0  0  0  0  0  0  0  0
    4.2850   38.5960    0.7530 C   0  0  0  0  0  0  0  0  0  0  0  0
    4.0710   37.4180    1.6490 C   0  0  0  0  0  0  0  0  0  0  0  0
    4.9510   38.4870   -0.4680 C   0  0  0  0  0  0  0  0  0  0  0  0
    4.6390   36.3750    1.3610 O   0  0  0  0  0  0  0  0  0  0  0  0
    5.6250   37.0730   -1.1570 Cl  0  0  0  0  0  0  0  0  0  0  0  0
    3.2600   37.4670    2.7950 N   0  0  0  0  0  0  0  0  0  0  0  0
    3.5350   38.0970    4.1120 C   0  0  0  0  0  0  0  0  0  0  0  0
    2.7870   37.3200    5.2290 C   0  0  0  0  0  0  0  0  0  0  0  0
    2.8120   37.8240    6.6710 C   0  0  0  0  0  0  0  0  0  0  0  0
    2.4980   36.6730    7.6810 C   0  0  0  0  0  0  0  0  0  0  0  0
    1.2660   35.7500    7.3650 C   0  0  1  0  0  0  0  0  0  0  0  0
    1.0410   34.6670    8.3530 N   0  0  0  0  0  0  0  0  0  0  0  0
   -0.0320   36.5530    7.2070 C   0  0  0  0  0  0  0  0  0  0  0  0
    0.5370   35.0580    9.6360 C   0  0  2  0  0  0  0  0  0  0  0  0
   -0.5980   36.9300    8.5710 C   0  0  0  0  0  0  0  0  0  0  0  0
    0.2490   33.9270   10.4600 N   0  0  0  0  0  0  0  0  0  0  0  0
   -0.6570   35.8200    9.5220 N   0  0  0  0  0  0  0  0  0  0  0  0
  1  2  1  0
  2  3  1  0
  2  4  1  0
  4  5  2  0
  4  6  1  0
  5  7  1  0
  6  8  2  0
  8  9  1  0
  7 10  2  0
  8 10  1  0
  9 11  2  0
 10 12  1  0
  9 13  1  0
 13 14  1  0
 14 15  1  0
 15 16  1  0
 16 17  1  0
 18 17  1  1
 18 19  1  0
 18 20  1  0
 19 21  1  0
 20 22  1  0
 21 23  1  1
 21 24  1  0
 22 24  1  0
M  END
