x0496_0_A_α-x0548_1_B_α
     RDKit          3D

 35 37  0  0  0  0  0  0  0  0999 V2000
    1.9030   41.9820    0.8880 C   0  0  0  0  0  0  0  0  0  0  0  0
    3.3050   42.1260    0.3060 C   0  0  0  0  0  0  0  0  0  0  0  0
    4.2130   42.9860    1.1760 C   0  0  0  0  0  0  0  0  0  0  0  0
    3.9300   40.7840    0.0070 C   0  0  0  0  0  0  0  0  0  0  0  0
    4.7240   40.7580   -1.0710 N   0  0  0  0  0  0  0  0  0  0  0  0
    3.6740   39.7140    0.7910 N   0  0  0  0  0  0  0  0  0  0  0  0
    5.2850   39.5790   -1.3770 C   0  0  0  0  0  0  0  0  0  0  0  0
    4.2680   38.5400    0.4360 C   0  0  0  0  0  0  0  0  0  0  0  0
    3.9640   37.3600    1.3190 C   0  0  0  0  0  0  0  0  0  0  0  0
    5.0980   38.4270   -0.6630 C   0  0  0  0  0  0  0  0  0  0  0  0
    4.7030   36.3850    1.2820 O   0  0  0  0  0  0  0  0  0  0  0  0
    5.8920   37.0080   -1.1940 Cl  0  0  0  0  0  0  0  0  0  0  0  0
    2.8560   37.3970    2.1500 N   0  0  0  0  0  0  0  0  0  0  0  0
    1.6310   37.9490    1.6450 C   0  0  0  0  0  0  0  0  0  0  0  0
    0.7140   38.4770    2.7350 C   0  0  0  0  0  0  0  0  0  0  0  0
   -0.6190   37.7410    2.8150 C   0  0  0  0  0  0  0  0  0  0  0  0
   -1.8870   38.5880    2.8610 C   0  0  0  0  0  0  0  0  0  0  0  0
   -2.3540   38.8720    4.2850 C   0  0  0  0  0  0  0  0  0  0  0  0
   -3.8720   39.0560    4.3340 C   0  0  0  0  0  0  0  0  0  0  0  0
   -4.3130   40.4280    4.8690 C   0  0  0  0  0  0  0  0  0  0  0  0
   -4.9370   40.4450    6.2740 C   0  0  0  0  0  0  0  0  0  0  0  0
   -6.1340   39.6040    6.4540 N   0  0  0  0  0  0  0  0  0  0  0  0
   -6.6910   39.1390    5.1660 C   0  0  0  0  0  0  0  0  0  0  0  0
   -7.1550   40.3650    7.1890 C   0  0  0  0  0  0  0  0  0  0  0  0
   -7.9370   38.3770    5.3470 C   0  0  0  0  0  0  0  0  0  0  0  0
   -8.3230   37.4020    6.1580 C   0  0  0  0  0  0  0  0  0  0  0  0
   -9.1510   38.5720    4.5440 C   0  0  0  0  0  0  0  0  0  0  0  0
  -10.1940   37.8350    4.7910 N   0  0  0  0  0  0  0  0  0  0  0  0
   -9.7510   37.0360    5.9420 C   0  0  1  0  0  0  0  0  0  0  0  0
   -7.6360   36.6820    7.1950 C   0  0  0  0  0  0  0  0  0  0  0  0
   -8.0490   35.4200    7.4500 C   0  0  0  0  0  0  0  0  0  0  0  0
   -9.9580   35.5600    5.9530 C   0  0  0  0  0  0  0  0  0  0  0  0
   -7.4770   34.6540    8.4370 O   0  0  0  0  0  0  0  0  0  0  0  0
   -9.1350   34.8040    6.6890 C   0  0  0  0  0  0  0  0  0  0  0  0
   -6.0660   34.8390    8.4830 C   0  0  0  0  0  0  0  0  0  0  0  0
  1  2  1  0
  2  3  1  0
  2  4  1  0
  4  5  2  0
  4  6  1  0
  5  7  1  0
  6  8  2  0
  8  9  1  0
  7 10  2  0
  8 10  1  0
  9 11  2  0
 10 12  1  0
  9 13  1  0
 13 14  1  0
 14 15  1  0
 15 16  1  0
 16 17  1  0
 17 18  1  0
 18 19  1  0
 19 20  1  0
 20 21  1  0
 21 22  1  0
 22 23  1  0
 22 24  1  0
 23 25  1  0
 25 26  2  0
 25 27  1  0
 27 28  2  0
 26 29  1  0
 28 29  1  0
 26 30  1  0
 30 31  2  0
 29 32  1  6
 31 33  1  0
 31 34  1  0
 32 34  2  0
 33 35  1  0
M  END
