x0516_0_A-x0792_0_A
     RDKit          3D

 22 25  0  0  0  0  0  0  0  0999 V2000
    3.8680   27.0090   16.6400 N   0  0  0  0  0  0  0  0  0  0  0  0
    4.6350   26.1230   17.4460 C   0  0  1  0  0  0  0  0  0  0  0  0
    4.2480   24.6560   17.3020 C   0  0  0  0  0  0  0  0  0  0  0  0
    3.2720   26.3150   15.5200 C   0  0  0  0  0  0  0  0  0  0  0  0
    1.7830   26.2210   15.7220 C   0  0  0  0  0  0  0  0  0  0  0  0
    6.0570   26.1730   17.0540 N   0  0  0  0  0  0  0  0  0  0  0  0
    5.4020   24.0400   16.7270 O   0  0  0  0  0  0  0  0  0  0  0  0
    1.0150   25.5620   14.7690 C   0  0  0  0  0  0  0  0  0  0  0  0
    1.1560   26.7900   16.8570 C   0  0  0  0  0  0  0  0  0  0  0  0
    6.8460   27.0810   17.8920 C   0  0  0  0  0  0  0  0  0  0  0  0
    6.4050   24.7840   17.3880 C   0  0  1  0  0  0  0  0  0  0  0  0
   -0.3360   25.4930   14.9590 C   0  0  0  0  0  0  0  0  0  0  0  0
   -0.2290   26.7010   17.0280 C   0  0  0  0  0  0  0  0  0  0  0  0
    8.2490   26.5380   18.0060 C   0  0  0  0  0  0  0  0  0  0  0  0
    7.8400   24.3490   17.0910 C   0  0  2  0  0  0  0  0  0  0  0  0
   -0.9490   26.0450   16.0560 C   0  0  0  0  0  0  0  0  0  0  0  0
   -1.2290   24.8980   14.1340 O   0  0  0  0  0  0  0  0  0  0  0  0
    8.7060   23.6140   18.1440 C   0  0  0  0  0  0  0  0  0  0  0  0
    8.5450   25.6220   16.8470 C   0  0  0  0  0  0  0  0  0  0  0  0
   -2.2940   25.8560   16.0330 O   0  0  0  0  0  0  0  0  0  0  0  0
   -2.4410   25.4670   14.6510 C   0  0  0  0  0  0  0  0  0  0  0  0
    9.3930   22.4240   17.7320 O   0  0  0  0  0  0  0  0  0  0  0  0
  2  1  1  6
  2  3  1  0
  1  4  1  0
  4  5  1  0
  2  6  1  0
  3  7  1  0
  5  8  2  0
  5  9  1  0
  6 10  1  0
  6 11  1  0
 11  7  1  6
  8 12  1  0
  9 13  2  0
 10 14  1  0
 11 15  1  0
 12 16  2  0
 13 16  1  0
 12 17  1  0
 15 18  1  1
 14 19  1  0
 15 19  1  0
 16 20  1  0
 17 21  1  0
 20 21  1  0
 18 22  1  0
M  END
