x0516_0_A_α-x0933_3_B_α
     RDKit          3D

 29 31  0  0  0  0  0  0  0  0999 V2000
    4.3930   26.0680   17.2010 N   0  0  0  0  0  0  0  0  0  0  0  0
    5.6270   26.0570   16.4500 C   0  0  0  0  0  0  0  0  0  0  0  0
    6.4340   24.8830   16.8250 C   0  0  2  0  0  0  0  0  0  0  0  0
    3.6340   27.1590   16.6810 C   0  0  2  0  0  0  0  0  0  0  0  0
    4.0520   28.6080   17.3090 C   0  0  0  0  0  0  0  0  0  0  0  0
    2.1010   26.7690   16.4910 C   0  0  0  0  0  0  0  0  0  0  0  0
    7.9470   24.9730   16.7190 C   0  0  0  0  0  0  0  0  0  0  0  0
    5.9050   23.8690   15.9870 O   0  0  0  0  0  0  0  0  0  0  0  0
    5.2200   29.5530   16.6970 C   0  0  0  0  0  0  0  0  0  0  0  0
    1.5960   26.0840   15.3150 C   0  0  0  0  0  0  0  0  0  0  0  0
    1.1440   27.0860   17.4840 C   0  0  0  0  0  0  0  0  0  0  0  0
    4.9390   31.1460   16.5970 C   0  0  0  0  0  0  0  0  0  0  0  0
    0.2250   25.7910   15.2250 C   0  0  0  0  0  0  0  0  0  0  0  0
   -0.2190   26.7720   17.3570 C   0  0  0  0  0  0  0  0  0  0  0  0
    5.5210   32.1780   15.4710 C   0  0  0  0  0  0  0  0  0  0  0  0
   -0.6510   26.1300   16.2230 C   0  0  0  0  0  0  0  0  0  0  0  0
   -0.4340   25.1640   14.2060 O   0  0  0  0  0  0  0  0  0  0  0  0
    5.0520   32.4010   13.9290 C   0  0  0  0  0  0  0  0  0  0  0  0
   -1.9390   25.7640   15.9490 O   0  0  0  0  0  0  0  0  0  0  0  0
   -1.8080   25.4650   14.5440 C   0  0  0  0  0  0  0  0  0  0  0  0
    4.1040   33.5930   13.3470 C   0  0  0  0  0  0  0  0  0  0  0  0
    3.3870   33.4600   11.8930 C   0  0  0  0  0  0  0  0  0  0  0  0
    2.0930   34.2650   11.6620 N   0  0  0  0  0  0  0  0  0  0  0  0
    1.3900   34.2470   10.3340 C   0  0  0  0  0  0  0  0  0  0  0  0
    2.2400   34.7360    9.2840 N   0  0  0  0  0  0  0  0  0  0  0  0
    0.1790   35.0510   10.4080 N   0  0  0  0  0  0  0  0  0  0  0  0
    1.6300   34.8860    7.9540 C   0  0  0  0  0  0  0  0  0  0  0  0
    0.0080   36.1310    9.4040 C   0  0  0  0  0  0  0  0  0  0  0  0
    0.4020   35.7810    7.9730 C   0  0  0  0  0  0  0  0  0  0  0  0
  1  2  1  0
  2  3  1  0
  1  4  1  0
  4  5  1  1
  4  6  1  0
  3  7  1  6
  3  8  1  0
  5  9  1  0
  6 10  2  0
  6 11  1  0
  9 12  1  0
 10 13  1  0
 11 14  2  0
 12 15  1  0
 13 16  2  0
 14 16  1  0
 13 17  1  0
 15 18  1  0
 16 19  1  0
 17 20  1  0
 19 20  1  0
 18 21  1  0
 21 22  1  0
 22 23  1  0
 23 24  1  0
 24 25  1  0
 24 26  1  0
 25 27  1  0
 26 28  1  0
 27 29  1  0
 28 29  1  0
M  END
