x0516_0_A-x0598_0_A
     RDKit          3D

 26 29  0  0  0  0  0  0  0  0999 V2000
    3.7750   25.6990   15.9950 N   0  0  0  0  0  0  0  0  0  0  0  0
    3.7840   26.1760   17.3380 C   0  0  1  0  0  0  0  0  0  0  0  0
    3.6460   24.9880   18.2170 C   0  0  0  0  0  0  0  0  0  0  0  0
    3.0450   26.6550   15.2580 C   0  0  0  0  0  0  0  0  0  0  0  0
    1.6000   26.4580   15.5600 C   0  0  0  0  0  0  0  0  0  0  0  0
    5.1470   26.5570   17.5490 N   0  0  0  0  0  0  0  0  0  0  0  0
    4.7170   24.2800   17.6980 O   0  0  0  0  0  0  0  0  0  0  0  0
    0.8740   25.6400   14.7120 C   0  0  0  0  0  0  0  0  0  0  0  0
    0.9720   27.0770   16.6670 C   0  0  0  0  0  0  0  0  0  0  0  0
    5.7370   25.2220   17.7120 C   0  0  1  0  0  0  0  0  0  0  0  0
    5.7240   27.1990   16.3870 C   0  0  0  0  0  0  0  0  0  0  0  0
   -0.4510   25.4680   14.9660 C   0  0  0  0  0  0  0  0  0  0  0  0
   -0.3870   26.8760   16.9100 C   0  0  0  0  0  0  0  0  0  0  0  0
    6.7960   24.8480   16.6980 C   0  0  0  0  0  0  0  0  0  0  0  0
    7.2300   27.2440   16.6030 C   0  0  0  0  0  0  0  0  0  0  0  0
   -1.0700   26.0670   16.0330 C   0  0  0  0  0  0  0  0  0  0  0  0
   -1.3110   24.7190   14.2400 O   0  0  0  0  0  0  0  0  0  0  0  0
    7.8830   25.8830   16.8250 C   0  0  1  0  0  0  0  0  0  0  0  0
   -2.3910   25.7520   16.0800 O   0  0  0  0  0  0  0  0  0  0  0  0
   -2.5370   25.2920   14.7210 C   0  0  0  0  0  0  0  0  0  0  0  0
    8.6030   25.8460   18.1830 C   0  0  0  0  0  0  0  0  0  0  0  0
    9.8570   25.1220   17.9970 N   0  0  0  0  0  0  0  0  0  0  0  0
    9.7850   23.9140   16.9000 S   0  0  0  0  0  0  0  0  0  0  0  0
   10.2950   22.4180   17.7160 C   0  0  0  0  0  0  0  0  0  0  0  0
   10.7670   24.1590   15.8680 O   0  0  0  0  0  0  0  0  0  0  0  0
    8.3930   23.8910   16.5140 O   0  0  0  0  0  0  0  0  0  0  0  0
  2  1  1  6
  2  3  1  0
  1  4  1  0
  4  5  1  0
  2  6  1  0
  3  7  1  0
  5  8  2  0
  5  9  1  0
  6 10  1  0
  7 10  1  0
  6 11  1  0
  8 12  1  0
  9 13  2  0
 10 14  1  6
 11 15  1  0
 12 16  2  0
 13 16  1  0
 12 17  1  0
 14 18  1  0
 15 18  1  0
 16 19  1  0
 17 20  1  0
 19 20  1  0
 18 21  1  1
 21 22  1  0
 23 22  1  0
 23 24  1  0
 23 25  2  0
 23 26  2  0
M  END
