x0516_0_A-x0792_0_A
     RDKit          3D

 22 25  0  0  0  0  0  0  0  0999 V2000
    3.5990   25.1800   16.8710 N   0  0  0  0  0  0  0  0  0  0  0  0
    4.8220   25.5470   17.5020 C   0  0  1  0  0  0  0  0  0  0  0  0
    5.0180   25.2180   18.9850 C   0  0  0  0  0  0  0  0  0  0  0  0
    3.2010   26.1230   15.8440 C   0  0  0  0  0  0  0  0  0  0  0  0
    1.7160   26.1300   15.8870 C   0  0  0  0  0  0  0  0  0  0  0  0
    5.8730   24.8100   16.8360 N   0  0  0  0  0  0  0  0  0  0  0  0
    6.1370   24.3180   19.0630 O   0  0  0  0  0  0  0  0  0  0  0  0
    0.9890   25.5260   14.8630 C   0  0  0  0  0  0  0  0  0  0  0  0
    1.0460   26.7370   16.9700 C   0  0  0  0  0  0  0  0  0  0  0  0
    6.5180   25.6490   15.8650 C   0  0  0  0  0  0  0  0  0  0  0  0
    6.8200   24.6820   17.9120 C   0  0  1  0  0  0  0  0  0  0  0  0
   -0.3770   25.5440   14.9550 C   0  0  0  0  0  0  0  0  0  0  0  0
   -0.3450   26.7410   17.0390 C   0  0  0  0  0  0  0  0  0  0  0  0
    7.8000   26.2920   16.4280 C   0  0  0  0  0  0  0  0  0  0  0  0
    8.1370   24.0720   17.4670 C   0  0  2  0  0  0  0  0  0  0  0  0
   -1.0240   26.1330   16.0120 C   0  0  0  0  0  0  0  0  0  0  0  0
   -1.2370   25.0080   14.0670 O   0  0  0  0  0  0  0  0  0  0  0  0
    9.0780   23.2050   18.3530 C   0  0  0  0  0  0  0  0  0  0  0  0
    8.8060   25.3290   17.0720 C   0  0  0  0  0  0  0  0  0  0  0  0
   -2.3740   26.0320   15.9040 O   0  0  0  0  0  0  0  0  0  0  0  0
   -2.4670   25.5780   14.5390 C   0  0  0  0  0  0  0  0  0  0  0  0
    9.5990   22.0180   17.7540 O   0  0  0  0  0  0  0  0  0  0  0  0
  2  1  1  6
  2  3  1  0
  1  4  1  0
  4  5  1  0
  2  6  1  0
  3  7  1  0
  5  8  2  0
  5  9  1  0
  6 10  1  0
  6 11  1  0
 11  7  1  1
  8 12  1  0
  9 13  2  0
 10 14  1  0
 11 15  1  0
 12 16  2  0
 13 16  1  0
 12 17  1  0
 15 18  1  1
 14 19  1  0
 15 19  1  0
 16 20  1  0
 17 21  1  0
 20 21  1  0
 18 22  1  0
M  END
