x0516_0_A-x0334_0_A
     RDKit          3D

 18 19  0  0  0  0  0  0  0  0999 V2000
    3.8010   25.8290   16.4320 N   0  0  0  0  0  0  0  0  0  0  0  0
    5.2010   26.1260   16.1380 C   0  0  0  0  0  0  0  0  0  0  0  0
    5.9930   25.0660   16.8320 C   0  0  2  0  0  0  0  0  0  0  0  0
    2.9810   26.8030   15.7490 C   0  0  0  0  0  0  0  0  0  0  0  0
    1.5270   26.4560   15.7110 C   0  0  0  0  0  0  0  0  0  0  0  0
    7.4770   25.3520   16.8890 C   0  0  0  0  0  0  0  0  0  0  0  0
    5.7330   23.9110   16.0530 O   0  0  0  0  0  0  0  0  0  0  0  0
    1.1020   25.4560   14.8380 C   0  0  0  0  0  0  0  0  0  0  0  0
    0.5650   27.1220   16.5290 C   0  0  0  0  0  0  0  0  0  0  0  0
   -0.2300   25.1610   14.8180 C   0  0  0  0  0  0  0  0  0  0  0  0
   -0.8060   26.7650   16.4480 C   0  0  0  0  0  0  0  0  0  0  0  0
   -1.8930   27.2880   17.1100 N   0  0  0  0  0  0  0  0  0  0  0  0
   -1.1180   25.7980   15.6040 C   0  0  0  0  0  0  0  0  0  0  0  0
   -0.8530   24.2430   14.0570 O   0  0  0  0  0  0  0  0  0  0  0  0
   -2.3940   26.3350   18.1000 C   0  0  0  0  0  0  0  0  0  0  0  0
   -2.9440   27.5350   16.1020 C   0  0  0  0  0  0  0  0  0  0  0  0
   -2.3860   25.3530   15.4450 O   0  0  0  0  0  0  0  0  0  0  0  0
   -2.2000   24.7130   14.2110 C   0  0  0  0  0  0  0  0  0  0  0  0
  1  2  1  0
  2  3  1  0
  1  4  1  0
  4  5  1  0
  3  6  1  6
  3  7  1  0
  5  8  2  0
  5  9  1  0
  8 10  1  0
  9 11  2  0
 11 12  1  0
 10 13  2  0
 11 13  1  0
 10 14  1  0
 12 15  1  0
 12 16  1  0
 13 17  1  0
 14 18  1  0
 17 18  1  0
M  END
