x0516_0_A_α-x0905_0_B_α
     RDKit          3D

 26 28  0  0  0  0  0  0  0  0999 V2000
    4.0610   25.6910   16.7610 N   0  0  0  0  0  0  0  0  0  0  0  0
    5.4660   26.1420   16.8040 C   0  0  0  0  0  0  0  0  0  0  0  0
    6.5240   25.0490   17.0100 C   0  0  2  0  0  0  0  0  0  0  0  0
    3.3490   26.2840   15.6320 C   0  0  0  0  0  0  0  0  0  0  0  0
    1.8480   26.1970   15.8000 C   0  0  0  0  0  0  0  0  0  0  0  0
    8.0270   25.3980   17.0690 C   0  0  0  0  0  0  0  0  0  0  0  0
    6.2320   24.0710   16.0330 O   0  0  0  0  0  0  0  0  0  0  0  0
    1.0830   25.5700   14.8150 C   0  0  0  0  0  0  0  0  0  0  0  0
    1.2060   26.7440   16.9390 C   0  0  0  0  0  0  0  0  0  0  0  0
    9.0020   24.3240   17.6210 C   0  0  0  0  0  0  0  0  0  0  0  0
   -0.2790   25.5160   14.9890 C   0  0  0  0  0  0  0  0  0  0  0  0
   -0.1840   26.6720   17.0900 C   0  0  0  0  0  0  0  0  0  0  0  0
   10.4490   24.5010   17.1240 C   0  0  0  0  0  0  0  0  0  0  0  0
   -0.8970   26.0490   16.0910 C   0  0  0  0  0  0  0  0  0  0  0  0
   -1.1750   24.9500   14.1370 O   0  0  0  0  0  0  0  0  0  0  0  0
   11.2220   23.2120   16.7160 C   0  0  0  0  0  0  0  0  0  0  0  0
   -2.2460   25.8760   16.0440 O   0  0  0  0  0  0  0  0  0  0  0  0
   -2.3900   25.5060   14.6570 C   0  0  0  0  0  0  0  0  0  0  0  0
   11.9070   23.3450   15.3370 C   0  0  0  0  0  0  0  0  0  0  0  0
   12.3620   22.1590   14.5000 C   0  0  0  0  0  0  0  0  0  0  0  0
   11.9630   20.8090   14.5690 C   0  0  0  0  0  0  0  0  0  0  0  0
   13.3000   22.4790   13.5350 C   0  0  0  0  0  0  0  0  0  0  0  0
   12.4540   19.8330   13.7370 N   0  0  0  0  0  0  0  0  0  0  0  0
   13.8090   21.5200   12.6910 C   0  0  0  0  0  0  0  0  0  0  0  0
   13.3650   20.2260   12.8240 C   0  0  0  0  0  0  0  0  0  0  0  0
   13.8860   19.2900   11.9780 O   0  0  0  0  0  0  0  0  0  0  0  0
  1  2  1  0
  2  3  1  0
  1  4  1  0
  4  5  1  0
  3  6  1  0
  3  7  1  6
  5  8  2  0
  5  9  1  0
  6 10  1  0
  8 11  1  0
  9 12  2  0
 10 13  1  0
 11 14  2  0
 12 14  1  0
 11 15  1  0
 13 16  1  0
 14 17  1  0
 15 18  1  0
 17 18  1  0
 16 19  1  0
 19 20  1  0
 20 21  2  0
 20 22  1  0
 21 23  1  0
 22 24  2  0
 23 25  2  0
 24 25  1  0
 25 26  1  0
M  END
