x0516_0_A-x0228_1_A
     RDKit          3D

 31 34  0  0  0  0  0  0  0  0999 V2000
    3.9040   25.3020   16.5710 N   0  0  0  0  0  0  0  0  0  0  0  0
    3.5240   24.4670   17.6900 C   0  0  0  0  0  0  0  0  0  0  0  0
    4.0920   24.7980   19.0830 C   0  0  2  0  0  0  0  0  0  0  0  0
    2.9270   26.3870   16.5300 C   0  0  2  0  0  0  0  0  0  0  0  0
    5.3030   25.6010   16.6820 N   0  0  0  0  0  0  0  0  0  0  0  0
    2.6520   27.2560   15.4750 N   0  0  0  0  0  0  0  0  0  0  0  0
    3.1780   27.3030   17.5900 O   0  0  0  0  0  0  0  0  0  0  0  0
    1.4520   25.9440   16.5620 C   0  0  0  0  0  0  0  0  0  0  0  0
    5.8890   26.4400   17.5800 C   0  0  0  0  0  0  0  0  0  0  0  0
    6.3290   25.1060   15.9390 C   0  0  0  0  0  0  0  0  0  0  0  0
    5.4460   25.4980   19.1360 C   0  0  0  0  0  0  0  0  0  0  0  0
    4.1760   23.5630   19.7860 O   0  0  0  0  0  0  0  0  0  0  0  0
    0.9080   25.2960   15.4210 C   0  0  0  0  0  0  0  0  0  0  0  0
    0.6020   26.1730   17.6650 C   0  0  0  0  0  0  0  0  0  0  0  0
    1.6180   28.2050   15.6250 C   0  0  0  0  0  0  0  0  0  0  0  0
    7.1930   26.4520   17.4030 N   0  0  0  0  0  0  0  0  0  0  0  0
    7.4700   25.6050   16.3620 N   0  0  0  0  0  0  0  0  0  0  0  0
   -0.4150   24.9210   15.4350 C   0  0  0  0  0  0  0  0  0  0  0  0
   -0.7380   25.7840   17.6480 C   0  0  0  0  0  0  0  0  0  0  0  0
    0.2680   27.9730   15.1880 C   0  0  0  0  0  0  0  0  0  0  0  0
    1.8840   29.4350   16.2110 C   0  0  0  0  0  0  0  0  0  0  0  0
   -0.0570   26.7810   14.6060 O   0  0  0  0  0  0  0  0  0  0  0  0
   -1.2190   25.1620   16.5190 C   0  0  0  0  0  0  0  0  0  0  0  0
   -1.0850   24.2960   14.4310 O   0  0  0  0  0  0  0  0  0  0  0  0
   -0.7060   28.9520   15.3490 C   0  0  0  0  0  0  0  0  0  0  0  0
    0.9070   30.4120   16.3670 C   0  0  0  0  0  0  0  0  0  0  0  0
   -1.4540   26.6800   14.2980 C   0  0  0  0  0  0  0  0  0  0  0  0
    1.2610   31.7210   16.9970 C   0  0  0  0  0  0  0  0  0  0  0  0
   -2.4900   24.7220   16.3260 O   0  0  0  0  0  0  0  0  0  0  0  0
   -2.4350   24.3600   14.9270 C   0  0  0  0  0  0  0  0  0  0  0  0
   -0.3890   30.1650   15.9340 C   0  0  0  0  0  0  0  0  0  0  0  0
  1  2  1  0
  2  3  1  0
  1  4  1  0
  1  5  1  0
  4  6  1  0
  4  7  1  1
  4  8  1  0
  5  9  1  0
  5 10  1  0
  3 11  1  6
  3 12  1  0
  8 13  2  0
  8 14  1  0
  6 15  1  0
  9 16  2  0
 10 17  2  0
 16 17  1  0
 13 18  1  0
 14 19  2  0
 15 20  2  0
 15 21  1  0
 20 22  1  0
 18 23  2  0
 19 23  1  0
 18 24  1  0
 20 25  1  0
 21 26  2  0
 22 27  1  0
 26 28  1  0
 23 29  1  0
 24 30  1  0
 29 30  1  0
 25 31  2  0
 26 31  1  0
M  END
