x0516_0_A-x0598_0_A
     RDKit          3D

 26 29  0  0  0  0  0  0  0  0999 V2000
    4.0210   25.8390   15.9050 N   0  0  0  0  0  0  0  0  0  0  0  0
    4.0160   26.0690   17.3100 C   0  0  1  0  0  0  0  0  0  0  0  0
    3.8350   24.7100   17.8800 C   0  0  0  0  0  0  0  0  0  0  0  0
    3.1420   26.7650   15.2920 C   0  0  0  0  0  0  0  0  0  0  0  0
    1.7000   26.4990   15.6120 C   0  0  0  0  0  0  0  0  0  0  0  0
    5.3790   26.2990   17.6980 N   0  0  0  0  0  0  0  0  0  0  0  0
    4.8490   24.1200   17.1140 O   0  0  0  0  0  0  0  0  0  0  0  0
    0.9700   25.7260   14.7200 C   0  0  0  0  0  0  0  0  0  0  0  0
    1.0680   27.0140   16.7690 C   0  0  0  0  0  0  0  0  0  0  0  0
    5.9090   24.9460   17.5160 C   0  0  1  0  0  0  0  0  0  0  0  0
    6.1740   27.2520   16.9890 C   0  0  0  0  0  0  0  0  0  0  0  0
   -0.3520   25.5000   14.9760 C   0  0  0  0  0  0  0  0  0  0  0  0
   -0.2870   26.7630   17.0170 C   0  0  0  0  0  0  0  0  0  0  0  0
    7.1040   24.6770   16.5920 C   0  0  0  0  0  0  0  0  0  0  0  0
    7.5800   26.9030   17.4570 C   0  0  0  0  0  0  0  0  0  0  0  0
   -0.9700   26.0040   16.0900 C   0  0  0  0  0  0  0  0  0  0  0  0
   -1.2090   24.7860   14.2080 O   0  0  0  0  0  0  0  0  0  0  0  0
    8.1700   25.7510   16.6550 C   0  0  1  0  0  0  0  0  0  0  0  0
   -2.2860   25.6580   16.1290 O   0  0  0  0  0  0  0  0  0  0  0  0
   -2.4420   25.2920   14.7390 C   0  0  0  0  0  0  0  0  0  0  0  0
    9.5660   25.2750   17.1510 C   0  0  0  0  0  0  0  0  0  0  0  0
    9.8170   23.8720   16.7620 N   0  0  0  0  0  0  0  0  0  0  0  0
   11.1560   23.3330   15.8120 S   0  0  0  0  0  0  0  0  0  0  0  0
   11.2270   21.5880   16.2260 C   0  0  0  0  0  0  0  0  0  0  0  0
   12.2810   23.9860   16.3380 O   0  0  0  0  0  0  0  0  0  0  0  0
   10.9330   23.4220   14.3920 O   0  0  0  0  0  0  0  0  0  0  0  0
  2  1  1  6
  2  3  1  0
  1  4  1  0
  4  5  1  0
  2  6  1  0
  3  7  1  0
  5  8  2  0
  5  9  1  0
  6 10  1  0
  7 10  1  0
  6 11  1  0
  8 12  1  0
  9 13  2  0
 10 14  1  6
 11 15  1  0
 12 16  2  0
 13 16  1  0
 12 17  1  0
 14 18  1  0
 15 18  1  0
 16 19  1  0
 17 20  1  0
 19 20  1  0
 18 21  1  1
 21 22  1  0
 23 22  1  0
 23 24  1  0
 23 25  2  0
 23 26  2  0
M  END
