x0516_0_A-x0334_0_A
     RDKit          3D

 18 19  0  0  0  0  0  0  0  0999 V2000
    3.7730   25.8300   16.5280 N   0  0  0  0  0  0  0  0  0  0  0  0
    5.1520   26.1080   16.1250 C   0  0  0  0  0  0  0  0  0  0  0  0
    5.9930   25.0750   16.8060 C   0  0  2  0  0  0  0  0  0  0  0  0
    2.9050   26.8660   16.0070 C   0  0  0  0  0  0  0  0  0  0  0  0
    1.4710   26.4460   15.9010 C   0  0  0  0  0  0  0  0  0  0  0  0
    7.4660   25.4100   16.8570 C   0  0  0  0  0  0  0  0  0  0  0  0
    5.7700   23.9110   16.0270 O   0  0  0  0  0  0  0  0  0  0  0  0
    1.1250   25.5430   14.8980 C   0  0  0  0  0  0  0  0  0  0  0  0
    0.4560   26.9390   16.7840 C   0  0  0  0  0  0  0  0  0  0  0  0
   -0.1860   25.1730   14.8200 C   0  0  0  0  0  0  0  0  0  0  0  0
   -0.8940   26.5050   16.6360 C   0  0  0  0  0  0  0  0  0  0  0  0
   -2.0430   26.8320   17.3300 N   0  0  0  0  0  0  0  0  0  0  0  0
   -1.1200   25.6440   15.6660 C   0  0  0  0  0  0  0  0  0  0  0  0
   -0.7450   24.3260   13.9440 O   0  0  0  0  0  0  0  0  0  0  0  0
   -1.9610   28.0350   18.1200 C   0  0  0  0  0  0  0  0  0  0  0  0
   -3.2420   26.7880   16.4680 C   0  0  0  0  0  0  0  0  0  0  0  0
   -2.3530   25.1420   15.4310 O   0  0  0  0  0  0  0  0  0  0  0  0
   -2.1200   24.6950   14.1290 C   0  0  0  0  0  0  0  0  0  0  0  0
  1  2  1  0
  2  3  1  0
  1  4  1  0
  4  5  1  0
  3  6  1  6
  3  7  1  0
  5  8  2  0
  5  9  1  0
  8 10  1  0
  9 11  2  0
 11 12  1  0
 10 13  2  0
 11 13  1  0
 10 14  1  0
 12 15  1  0
 12 16  1  0
 13 17  1  0
 14 18  1  0
 17 18  1  0
M  END
