x0516_0_A_α-x0423_0_B_α
     RDKit          3D

 33 36  0  0  0  0  0  0  0  0999 V2000
    3.8780   26.0370   16.8010 N   0  0  0  0  0  0  0  0  0  0  0  0
    5.2920   26.2520   16.5860 C   0  0  0  0  0  0  0  0  0  0  0  0
    6.1440   25.0850   17.0050 C   0  0  2  0  0  0  0  0  0  0  0  0
    3.1980   26.1820   15.5430 C   0  0  0  0  0  0  0  0  0  0  0  0
    1.7120   26.1380   15.7210 C   0  0  0  0  0  0  0  0  0  0  0  0
    7.6320   25.2750   16.7620 C   0  0  0  0  0  0  0  0  0  0  0  0
    5.6750   23.9970   16.2140 O   0  0  0  0  0  0  0  0  0  0  0  0
    0.9380   25.4890   14.7670 C   0  0  0  0  0  0  0  0  0  0  0  0
    1.0960   26.7440   16.8380 C   0  0  0  0  0  0  0  0  0  0  0  0
    8.3830   26.1890   17.7240 C   0  0  0  0  0  0  0  0  0  0  0  0
   -0.4150   25.4660   14.9430 C   0  0  0  0  0  0  0  0  0  0  0  0
   -0.2930   26.7050   16.9980 C   0  0  0  0  0  0  0  0  0  0  0  0
    9.9020   26.0470   17.5490 C   0  0  0  0  0  0  0  0  0  0  0  0
   -1.0210   26.0550   16.0230 C   0  0  0  0  0  0  0  0  0  0  0  0
   -1.3140   24.8850   14.1160 O   0  0  0  0  0  0  0  0  0  0  0  0
   10.4760   26.6440   16.2510 C   0  0  0  0  0  0  0  0  0  0  0  0
   -2.3710   25.9070   15.9840 O   0  0  0  0  0  0  0  0  0  0  0  0
   -2.5110   25.5020   14.6050 C   0  0  0  0  0  0  0  0  0  0  0  0
   11.7340   25.9960   15.6470 C   0  0  0  0  0  0  0  0  0  0  0  0
   12.9960   26.8770   15.6360 C   0  0  0  0  0  0  0  0  0  0  0  0
   14.0270   26.3750   14.7250 N   0  0  0  0  0  0  0  0  0  0  0  0
   14.3130   24.9380   14.9110 C   0  0  1  0  0  0  0  0  0  0  0  0
   13.3450   24.0260   14.1120 C   0  0  0  0  0  0  0  0  0  0  0  0
   15.7760   24.6500   14.4690 C   0  0  0  0  0  0  0  0  0  0  0  0
   14.1740   22.9590   13.5420 N   0  0  0  0  0  0  0  0  0  0  0  0
   15.9600   24.4530   12.9550 C   0  0  0  0  0  0  0  0  0  0  0  0
   14.9660   23.4250   12.4030 C   0  0  0  0  0  0  0  0  0  0  0  0
   13.5110   21.7270   13.3540 C   0  0  0  0  0  0  0  0  0  0  0  0
   12.4530   21.4030   14.1940 C   0  0  0  0  0  0  0  0  0  0  0  0
   13.8910   20.8660   12.3900 N   0  0  0  0  0  0  0  0  0  0  0  0
   13.2480   19.6690   12.2270 N   0  0  0  0  0  0  0  0  0  0  0  0
   11.8020   20.1950   14.0340 C   0  0  0  0  0  0  0  0  0  0  0  0
   12.2260   19.3580   13.0420 C   0  0  0  0  0  0  0  0  0  0  0  0
  1  2  1  0
  2  3  1  0
  1  4  1  0
  4  5  1  0
  3  6  1  0
  3  7  1  6
  5  8  2  0
  5  9  1  0
  6 10  1  0
  8 11  1  0
  9 12  2  0
 10 13  1  0
 11 14  2  0
 12 14  1  0
 11 15  1  0
 13 16  1  0
 14 17  1  0
 15 18  1  0
 17 18  1  0
 16 19  1  0
 19 20  1  0
 20 21  1  0
 22 21  1  6
 22 23  1  0
 22 24  1  0
 23 25  1  0
 24 26  1  0
 25 27  1  0
 26 27  1  0
 25 28  1  0
 28 29  2  0
 28 30  1  0
 30 31  2  0
 29 32  1  0
 31 33  1  0
 32 33  2  0
M  END
