x0516_0_A_α-x0600_0_A_α
     RDKit          3D

 35 37  0  0  0  0  0  0  0  0999 V2000
    3.9560   26.0440   16.7280 N   0  0  0  0  0  0  0  0  0  0  0  0
    5.3520   26.2460   16.4080 C   0  0  0  0  0  0  0  0  0  0  0  0
    6.1500   25.1110   16.9670 C   0  0  2  0  0  0  0  0  0  0  0  0
    3.2360   26.1660   15.4900 C   0  0  0  0  0  0  0  0  0  0  0  0
    1.7680   26.1310   15.7270 C   0  0  0  0  0  0  0  0  0  0  0  0
    7.6470   25.3380   16.9810 C   0  0  0  0  0  0  0  0  0  0  0  0
    5.8160   23.9990   16.1420 O   0  0  0  0  0  0  0  0  0  0  0  0
    0.9590   25.5210   14.7850 C   0  0  0  0  0  0  0  0  0  0  0  0
    1.1990   26.7020   16.8840 C   0  0  0  0  0  0  0  0  0  0  0  0
   -0.3850   25.5040   15.0150 C   0  0  0  0  0  0  0  0  0  0  0  0
   -0.1780   26.6650   17.0960 C   0  0  0  0  0  0  0  0  0  0  0  0
   -0.9660   26.0570   16.1410 C   0  0  0  0  0  0  0  0  0  0  0  0
   -1.3190   24.9500   14.1890 O   0  0  0  0  0  0  0  0  0  0  0  0
   -2.3330   25.8900   16.1100 N   0  0  0  0  0  0  0  0  0  0  0  0
   -2.5370   25.5420   14.7040 C   0  0  0  0  0  0  0  0  0  0  0  0
   -3.2170   26.7650   16.8630 C   0  0  0  0  0  0  0  0  0  0  0  0
   -4.3620   27.3500   16.0400 C   0  0  0  0  0  0  0  0  0  0  0  0
   -5.6600   26.5570   16.2160 C   0  0  0  0  0  0  0  0  0  0  0  0
   -6.9080   27.3850   15.9110 C   0  0  0  0  0  0  0  0  0  0  0  0
   -8.2170   26.6410   16.1930 C   0  0  0  0  0  0  0  0  0  0  0  0
   -9.2960   27.5090   16.8470 C   0  0  0  0  0  0  0  0  0  0  0  0
  -10.4600   26.6990   17.1660 N   0  0  0  0  0  0  0  0  0  0  0  0
  -11.3290   26.3080   16.2830 C   0  0  0  0  0  0  0  0  0  0  0  0
  -12.5290   25.4700   16.6610 C   0  0  0  0  0  0  0  0  0  0  0  0
  -11.1880   26.6720   14.8290 C   0  0  0  0  0  0  0  0  0  0  0  0
  -12.1350   26.1520   13.9340 C   0  0  0  0  0  0  0  0  0  0  0  0
  -10.1760   27.4920   14.3310 C   0  0  0  0  0  0  0  0  0  0  0  0
  -12.0730   26.4460   12.5650 C   0  0  0  0  0  0  0  0  0  0  0  0
  -10.1200   27.7830   12.9660 C   0  0  0  0  0  0  0  0  0  0  0  0
  -11.0640   27.2640   12.0780 C   0  0  0  0  0  0  0  0  0  0  0  0
  -10.8840   27.6360   10.7790 O   0  0  0  0  0  0  0  0  0  0  0  0
   -9.7470   28.4100   10.4610 C   0  0  0  0  0  0  0  0  0  0  0  0
   -9.8650   29.9010   10.7380 C   0  0  0  0  0  0  0  0  0  0  0  0
   -8.9470   30.7040   10.7390 O   0  0  0  0  0  0  0  0  0  0  0  0
  -11.1190   30.3140   11.0040 O   0  0  0  0  0  0  0  0  0  0  0  0
  1  2  1  0
  2  3  1  0
  1  4  1  0
  4  5  1  0
  3  6  1  6
  3  7  1  0
  5  8  2  0
  5  9  1  0
  8 10  1  0
  9 11  2  0
 10 12  2  0
 11 12  1  0
 10 13  1  0
 12 14  1  0
 13 15  1  0
 14 15  1  0
 14 16  1  0
 16 17  1  0
 17 18  1  0
 18 19  1  0
 19 20  1  0
 20 21  1  0
 21 22  1  0
 22 23  2  3
 23 24  1  0
 23 25  1  0
 25 26  2  0
 25 27  1  0
 26 28  1  0
 27 29  2  0
 28 30  2  0
 29 30  1  0
 30 31  1  0
 31 32  1  0
 32 33  1  0
 33 34  2  0
 33 35  1  0
M  END
