x0524_0_A-x1015_0_A
     RDKit          3D

 31 34  0  0  0  0  0  0  0  0999 V2000
   -0.5350    8.8630   -8.0140 N   0  0  0  0  0  0  0  0  0  0  0  0
   -1.8040    9.1480   -8.4010 C   0  0  0  0  0  0  0  0  0  0  0  0
   -2.9080    8.3820   -7.7190 C   0  0  0  0  0  0  0  0  0  0  0  0
    0.5210    8.8090   -9.0070 C   0  0  0  0  0  0  0  0  0  0  0  0
   -0.4090    9.7520   -6.9630 C   0  0  0  0  0  0  0  0  0  0  0  0
   -2.0610   10.0360   -9.1970 O   0  0  0  0  0  0  0  0  0  0  0  0
    1.5990    7.9180   -8.9040 C   0  0  0  0  0  0  0  0  0  0  0  0
    0.5070    9.6550  -10.1280 C   0  0  0  0  0  0  0  0  0  0  0  0
    0.3350   10.9160   -7.0900 C   0  0  0  0  0  0  0  0  0  0  0  0
   -1.0760    9.4560   -5.7840 C   0  0  0  0  0  0  0  0  0  0  0  0
    2.6140    7.8790   -9.8780 C   0  0  0  0  0  0  0  0  0  0  0  0
    1.5140    9.6130  -11.0960 C   0  0  0  0  0  0  0  0  0  0  0  0
    0.4110   11.7850   -6.0140 C   0  0  0  0  0  0  0  0  0  0  0  0
   -0.9990   10.3240   -4.7160 C   0  0  0  0  0  0  0  0  0  0  0  0
    2.5830    8.7290  -10.9920 C   0  0  0  0  0  0  0  0  0  0  0  0
   -0.2540   11.4960   -4.8160 C   0  0  0  0  0  0  0  0  0  0  0  0
    3.6120    8.6660  -11.9510 N   0  0  0  0  0  0  0  0  0  0  0  0
   -0.1810   12.3480   -3.7190 N   0  0  0  0  0  0  0  0  0  0  0  0
    3.9530    9.5050  -13.0300 C   0  0  0  0  0  0  0  0  0  0  0  0
    0.0060   13.7810   -3.8580 C   0  0  1  0  0  0  0  0  0  0  0  0
    0.2300   11.9030   -2.4590 C   0  0  0  0  0  0  0  0  0  0  0  0
   -1.2800   14.5340   -4.1890 C   0  0  0  0  0  0  0  0  0  0  0  0
    0.3530   10.7400   -2.0570 O   0  0  0  0  0  0  0  0  0  0  0  0
    3.2120   10.6770  -13.2610 C   0  0  0  0  0  0  0  0  0  0  0  0
    5.0130    9.2260  -13.8970 C   0  0  0  0  0  0  0  0  0  0  0  0
    0.4860   12.9970   -1.6980 N   0  0  0  0  0  0  0  0  0  0  0  0
    0.4300   14.1280   -2.4420 C   0  0  0  0  0  0  0  0  0  0  0  0
    0.6930   15.2430   -2.0410 O   0  0  0  0  0  0  0  0  0  0  0  0
    3.5210   11.5330  -14.3180 C   0  0  0  0  0  0  0  0  0  0  0  0
    5.3260   10.0790  -14.9580 C   0  0  0  0  0  0  0  0  0  0  0  0
    4.5800   11.2330  -15.1680 C   0  0  0  0  0  0  0  0  0  0  0  0
  1  2  1  0
  2  3  1  0
  1  4  1  0
  1  5  1  0
  2  6  2  0
  4  7  2  0
  4  8  1  0
  5  9  2  0
  5 10  1  0
  7 11  1  0
  8 12  2  0
  9 13  1  0
 10 14  2  0
 11 15  2  0
 12 15  1  0
 13 16  2  0
 14 16  1  0
 15 17  1  0
 16 18  1  0
 17 19  1  0
 18 20  1  0
 18 21  1  0
 20 22  1  1
 21 23  2  0
 19 24  2  0
 19 25  1  0
 21 26  1  0
 20 27  1  0
 26 27  1  0
 27 28  2  0
 24 29  1  0
 25 30  2  0
 29 31  2  0
 30 31  1  0
M  END
