x0524_0_A_α-x0681_0_A_α
     RDKit          3D

 33 36  0  0  0  0  0  0  0  0999 V2000
   -0.2760    8.6050   -7.8690 N   0  0  0  0  0  0  0  0  0  0  0  0
   -0.9350    9.6430   -7.2350 C   0  0  0  0  0  0  0  0  0  0  0  0
   -2.3370    9.3620   -6.7340 C   0  0  0  0  0  0  0  0  0  0  0  0
    0.6930    8.6370   -8.9050 C   0  0  0  0  0  0  0  0  0  0  0  0
   -0.3550   10.7990   -7.0770 N   0  0  0  0  0  0  0  0  0  0  0  0
    1.7540    7.7400   -8.9150 C   0  0  0  0  0  0  0  0  0  0  0  0
    0.6090    9.5650   -9.9520 C   0  0  0  0  0  0  0  0  0  0  0  0
   -1.1190   11.8610   -6.3960 C   0  0  0  0  0  0  0  0  0  0  0  0
    2.7130    7.7560   -9.9280 C   0  0  0  0  0  0  0  0  0  0  0  0
    1.5750    9.5800  -10.9760 C   0  0  0  0  0  0  0  0  0  0  0  0
   -0.2660   12.6390   -5.3760 C   0  0  0  0  0  0  0  0  0  0  0  0
    2.6450    8.6700  -10.9760 C   0  0  0  0  0  0  0  0  0  0  0  0
    3.6070    8.6900  -12.0010 N   0  0  0  0  0  0  0  0  0  0  0  0
   -0.8780   12.7820   -3.9570 C   0  0  0  0  0  0  0  0  0  0  0  0
   -1.4790   14.1620   -3.6150 C   0  0  0  0  0  0  0  0  0  0  0  0
    3.8900    9.5800  -13.0500 C   0  0  0  0  0  0  0  0  0  0  0  0
   -2.1890   14.0830   -2.3250 N   0  0  0  0  0  0  0  0  0  0  0  0
    3.1640   10.7500  -13.3000 C   0  0  0  0  0  0  0  0  0  0  0  0
    4.9660    9.2800  -13.8970 C   0  0  0  0  0  0  0  0  0  0  0  0
   -3.2690   14.7610   -2.0400 C   0  0  0  0  0  0  0  0  0  0  0  0
    3.5000   11.5870  -14.3610 C   0  0  0  0  0  0  0  0  0  0  0  0
    5.3050   10.1170  -14.9590 C   0  0  0  0  0  0  0  0  0  0  0  0
   -3.7210   15.5780   -3.0330 N   0  0  0  0  0  0  0  0  0  0  0  0
    4.5710   11.2740  -15.1920 C   0  0  0  0  0  0  0  0  0  0  0  0
   -4.1480   14.8010   -0.7830 C   0  0  1  0  0  0  0  0  0  0  0  0
   -4.9300   13.5500   -0.6010 C   0  0  0  0  0  0  0  0  0  0  0  0
   -3.4810   15.3490    0.4960 C   0  0  0  0  0  0  0  0  0  0  0  0
   -5.6190   13.3870    0.5420 N   0  0  0  0  0  0  0  0  0  0  0  0
   -4.1540   14.8710    1.7880 C   0  0  0  0  0  0  0  0  0  0  0  0
   -5.0890   12.5190   -1.4000 N   0  0  0  0  0  0  0  0  0  0  0  0
   -5.5910   14.3860    1.5630 C   0  0  0  0  0  0  0  0  0  0  0  0
   -6.2700   12.1940    0.5060 C   0  0  0  0  0  0  0  0  0  0  0  0
   -5.9270   11.6680   -0.7180 C   0  0  0  0  0  0  0  0  0  0  0  0
  1  2  1  0
  2  3  1  0
  1  4  1  0
  2  5  2  3
  4  6  2  0
  4  7  1  0
  5  8  1  0
  6  9  1  0
  7 10  2  0
  8 11  1  0
  9 12  2  0
 10 12  1  0
 12 13  1  0
 11 14  1  0
 14 15  1  0
 13 16  1  0
 15 17  1  0
 16 18  2  0
 16 19  1  0
 17 20  2  3
 18 21  1  0
 19 22  2  0
 20 23  1  0
 21 24  2  0
 22 24  1  0
 25 20  1  6
 25 26  1  0
 25 27  1  0
 26 28  1  0
 27 29  1  0
 26 30  2  0
 28 31  1  0
 29 31  1  0
 28 32  1  0
 30 33  1  0
 32 33  2  0
M  END
