x0524_0_A_α-x0900_0_A_α
     RDKit          3D

 29 31  0  0  0  0  0  0  0  0999 V2000
   -0.4010    8.6310   -8.0940 N   0  0  0  0  0  0  0  0  0  0  0  0
   -0.7690    9.6740   -7.2570 C   0  0  0  0  0  0  0  0  0  0  0  0
   -2.0220    9.3490   -6.4570 C   0  0  0  0  0  0  0  0  0  0  0  0
    0.5870    8.6700   -9.0950 C   0  0  0  0  0  0  0  0  0  0  0  0
   -0.1840   10.7410   -7.1430 O   0  0  0  0  0  0  0  0  0  0  0  0
    1.6960    7.8360   -8.9400 C   0  0  0  0  0  0  0  0  0  0  0  0
    0.5230    9.4840  -10.2240 C   0  0  0  0  0  0  0  0  0  0  0  0
   -1.7890    9.3590   -4.9450 C   0  0  0  0  0  0  0  0  0  0  0  0
    2.7210    7.8190   -9.8930 C   0  0  0  0  0  0  0  0  0  0  0  0
    1.5460    9.4640  -11.1750 C   0  0  0  0  0  0  0  0  0  0  0  0
   -1.7980   10.7680   -4.3270 C   0  0  0  0  0  0  0  0  0  0  0  0
    2.6640    8.6340  -11.0290 C   0  0  0  0  0  0  0  0  0  0  0  0
    3.6700    8.6420  -12.0060 N   0  0  0  0  0  0  0  0  0  0  0  0
   -2.2240   10.7630   -2.8470 C   0  0  0  0  0  0  0  0  0  0  0  0
   -2.4280   12.1780   -2.2800 C   0  0  0  0  0  0  0  0  0  0  0  0
    3.9750    9.5110  -13.0650 C   0  0  0  0  0  0  0  0  0  0  0  0
   -3.7760   12.3860   -1.5700 C   0  0  0  0  0  0  0  0  0  0  0  0
    3.2160   10.6770  -13.2610 C   0  0  0  0  0  0  0  0  0  0  0  0
    5.0270    9.2590  -13.9490 C   0  0  0  0  0  0  0  0  0  0  0  0
   -4.5360   13.6200   -2.0770 C   0  0  0  0  0  0  0  0  0  0  0  0
    3.5020   11.5550  -14.3030 C   0  0  0  0  0  0  0  0  0  0  0  0
    5.3160   10.1350  -14.9940 C   0  0  0  0  0  0  0  0  0  0  0  0
    4.5540   11.2850  -15.1720 C   0  0  0  0  0  0  0  0  0  0  0  0
   -4.7410   14.6270   -1.0470 N   0  0  0  0  0  0  0  0  0  0  0  0
   -5.8890   14.7590   -0.2980 C   0  0  0  0  0  0  0  0  0  0  0  0
   -3.6510   15.2570   -0.3640 C   0  0  0  0  0  0  0  0  0  0  0  0
   -7.0280   14.9300   -0.6970 O   0  0  0  0  0  0  0  0  0  0  0  0
   -5.4470   14.6400    1.1340 C   0  0  0  0  0  0  0  0  0  0  0  0
   -4.0590   15.2800    1.1040 C   0  0  0  0  0  0  0  0  0  0  0  0
  1  2  1  0
  2  3  1  0
  1  4  1  0
  2  5  2  0
  4  6  2  0
  4  7  1  0
  3  8  1  0
  6  9  1  0
  7 10  2  0
  8 11  1  0
  9 12  2  0
 10 12  1  0
 12 13  1  0
 11 14  1  0
 14 15  1  0
 13 16  1  0
 15 17  1  0
 16 18  2  0
 16 19  1  0
 17 20  1  0
 18 21  1  0
 19 22  2  0
 21 23  2  0
 22 23  1  0
 20 24  1  0
 24 25  1  0
 24 26  1  0
 25 27  2  0
 25 28  1  0
 26 29  1  0
 28 29  1  0
M  END
