x0524_0_A-x0591_0_A
     RDKit          3D

 33 35  0  0  0  0  0  0  0  0999 V2000
   -0.2770    8.5450   -7.9520 N   0  0  0  0  0  0  0  0  0  0  0  0
   -0.9610    9.5620   -7.3210 C   0  0  0  0  0  0  0  0  0  0  0  0
   -2.0470    9.0890   -6.3630 C   0  0  0  0  0  0  0  0  0  0  0  0
    0.6810    8.6260   -8.9790 C   0  0  0  0  0  0  0  0  0  0  0  0
   -0.7140   10.8100   -7.5220 N   0  0  0  0  0  0  0  0  0  0  0  0
    1.7790    7.7670   -8.9120 C   0  0  0  0  0  0  0  0  0  0  0  0
    0.6140    9.5040  -10.0650 C   0  0  0  0  0  0  0  0  0  0  0  0
   -1.4590   11.8830   -6.8570 C   0  0  0  0  0  0  0  0  0  0  0  0
    2.7810    7.7800   -9.8850 C   0  0  0  0  0  0  0  0  0  0  0  0
    1.6150    9.5150  -11.0470 C   0  0  0  0  0  0  0  0  0  0  0  0
   -0.6130   12.7550   -5.9160 C   0  0  0  0  0  0  0  0  0  0  0  0
    2.7150    8.6510  -10.9690 C   0  0  0  0  0  0  0  0  0  0  0  0
    3.7110    8.6840  -11.9690 N   0  0  0  0  0  0  0  0  0  0  0  0
   -1.3820   13.2750   -4.7640 N   0  0  0  0  0  0  0  0  0  0  0  0
   -2.2850   14.5030   -4.9240 S   0  0  1  0  0  0  0  0  0  0  0  0
    3.9890    9.5650  -13.0320 C   0  0  0  0  0  0  0  0  0  0  0  0
   -1.0880   15.6500   -4.6430 N   0  0  0  0  0  0  0  0  0  0  0  0
   -2.9050   15.0060   -6.1300 O   0  0  0  0  0  0  0  0  0  0  0  0
    3.2290   10.7290  -13.2230 C   0  0  0  0  0  0  0  0  0  0  0  0
    5.0300    9.3010  -13.9260 C   0  0  0  0  0  0  0  0  0  0  0  0
   -3.4080   14.6000   -3.5660 C   0  0  0  0  0  0  0  0  0  0  0  0
    3.5090   11.6000  -14.2750 C   0  0  0  0  0  0  0  0  0  0  0  0
    5.3120   10.1710  -14.9780 C   0  0  0  0  0  0  0  0  0  0  0  0
   -2.9770   14.3860   -2.2570 C   0  0  0  0  0  0  0  0  0  0  0  0
   -4.7370   14.8890   -3.8270 C   0  0  0  0  0  0  0  0  0  0  0  0
    4.5510   11.3210  -15.1540 C   0  0  0  0  0  0  0  0  0  0  0  0
   -3.8940   14.4580   -1.2030 C   0  0  0  0  0  0  0  0  0  0  0  0
   -5.6550   14.9650   -2.7780 C   0  0  0  0  0  0  0  0  0  0  0  0
   -5.2370   14.7490   -1.4650 C   0  0  0  0  0  0  0  0  0  0  0  0
   -6.2520   14.8290   -0.3810 C   0  0  0  0  0  0  0  0  0  0  0  0
   -5.7920   14.6610    0.9040 N   0  0  0  0  0  0  0  0  0  0  0  0
   -7.4310   15.0240   -0.6480 O   0  0  0  0  0  0  0  0  0  0  0  0
   -6.7280   14.5280    1.9930 C   0  0  0  0  0  0  0  0  0  0  0  0
  1  2  1  0
  2  3  1  0
  1  4  1  0
  2  5  2  3
  4  6  2  0
  4  7  1  0
  5  8  1  0
  6  9  1  0
  7 10  2  0
  8 11  1  0
  9 12  2  0
 10 12  1  0
 12 13  1  0
 11 14  1  0
 14 15  2  0
 13 16  1  0
 15 17  1  1
 15 18  2  0
 16 19  2  0
 16 20  1  0
 15 21  1  0
 19 22  1  0
 20 23  2  0
 21 24  2  0
 21 25  1  0
 22 26  2  0
 23 26  1  0
 24 27  1  0
 25 28  2  0
 27 29  2  0
 28 29  1  0
 29 30  1  0
 30 31  1  0
 30 32  2  0
 31 33  1  0
M  END
