x0524_0_A_α-x0805_0_A_α
     RDKit          3D

 28 30  0  0  0  0  0  0  0  0999 V2000
   -0.3780    8.5090   -8.0950 N   0  0  0  0  0  0  0  0  0  0  0  0
   -0.8040    9.4940   -7.2210 C   0  0  0  0  0  0  0  0  0  0  0  0
   -1.8640    8.9450   -6.2730 C   0  0  0  0  0  0  0  0  0  0  0  0
    0.6050    8.6010   -9.0970 C   0  0  0  0  0  0  0  0  0  0  0  0
   -0.4100   10.6520   -7.1780 O   0  0  0  0  0  0  0  0  0  0  0  0
    1.7120    7.7650   -8.9740 C   0  0  0  0  0  0  0  0  0  0  0  0
    0.5370    9.4630  -10.1910 C   0  0  0  0  0  0  0  0  0  0  0  0
   -2.8810    9.9750   -5.7870 C   0  0  0  0  0  0  0  0  0  0  0  0
    2.7370    7.7840   -9.9240 C   0  0  0  0  0  0  0  0  0  0  0  0
    1.5640    9.4780  -11.1410 C   0  0  0  0  0  0  0  0  0  0  0  0
   -2.3610   10.8030   -4.6060 C   0  0  0  0  0  0  0  0  0  0  0  0
    2.6810    8.6400  -11.0260 C   0  0  0  0  0  0  0  0  0  0  0  0
    3.6860    8.6840  -12.0010 N   0  0  0  0  0  0  0  0  0  0  0  0
   -2.5520   12.3050   -4.8360 C   0  0  0  0  0  0  0  0  0  0  0  0
    3.9520    9.5680  -13.0600 C   0  0  0  0  0  0  0  0  0  0  0  0
   -2.7270   13.1040   -3.5710 C   0  0  0  0  0  0  0  0  0  0  0  0
    3.2130   10.7330  -13.2990 C   0  0  0  0  0  0  0  0  0  0  0  0
    5.0130    9.2730  -13.9220 C   0  0  0  0  0  0  0  0  0  0  0  0
   -1.6840   13.8980   -3.0970 C   0  0  0  0  0  0  0  0  0  0  0  0
   -3.9310   13.0670   -2.8560 C   0  0  0  0  0  0  0  0  0  0  0  0
    3.5250   11.5740  -14.3670 C   0  0  0  0  0  0  0  0  0  0  0  0
    5.3290   10.1130  -14.9930 C   0  0  0  0  0  0  0  0  0  0  0  0
   -4.0890   13.8170   -1.6810 C   0  0  0  0  0  0  0  0  0  0  0  0
   -1.8430   14.6400   -1.9300 C   0  0  0  0  0  0  0  0  0  0  0  0
    4.5820   11.2650  -15.2140 C   0  0  0  0  0  0  0  0  0  0  0  0
   -3.0430   14.6080   -1.2160 C   0  0  0  0  0  0  0  0  0  0  0  0
   -3.0460   15.3910   -0.0940 O   0  0  0  0  0  0  0  0  0  0  0  0
   -4.2640   15.5290    0.6260 C   0  0  0  0  0  0  0  0  0  0  0  0
  1  2  1  0
  2  3  1  0
  1  4  1  0
  2  5  2  0
  4  6  2  0
  4  7  1  0
  3  8  1  0
  6  9  1  0
  7 10  2  0
  8 11  1  0
  9 12  2  0
 10 12  1  0
 12 13  1  0
 11 14  1  0
 13 15  1  0
 14 16  1  0
 15 17  2  0
 15 18  1  0
 16 19  2  0
 16 20  1  0
 17 21  1  0
 18 22  2  0
 20 23  2  0
 19 24  1  0
 21 25  2  0
 22 25  1  0
 23 26  1  0
 24 26  2  0
 26 27  1  0
 27 28  1  0
M  END
