x0524_0_A_α-5CB5_0_P_γ
     RDKit          3D

 27 29  0  0  0  0  0  0  0  0999 V2000
   -0.4420    8.6810   -8.1670 N   0  0  0  0  0  0  0  0  0  0  0  0
   -0.7080    9.6390   -7.2150 C   0  0  0  0  0  0  0  0  0  0  0  0
   -1.8970    9.3180   -6.3210 C   0  0  0  0  0  0  0  0  0  0  0  0
    0.6110    8.6240   -9.0880 C   0  0  0  0  0  0  0  0  0  0  0  0
   -0.0010   10.7160   -7.0890 N   0  0  0  0  0  0  0  0  0  0  0  0
    1.7060    7.7730   -8.9750 C   0  0  0  0  0  0  0  0  0  0  0  0
    0.5690    9.4770  -10.1970 C   0  0  0  0  0  0  0  0  0  0  0  0
   -0.2400   11.7580   -6.0830 C   0  0  0  0  0  0  0  0  0  0  0  0
    2.7310    7.7690   -9.9330 C   0  0  0  0  0  0  0  0  0  0  0  0
    1.5880    9.4760  -11.1550 C   0  0  0  0  0  0  0  0  0  0  0  0
    1.0770   12.4880   -5.7460 C   0  0  0  0  0  0  0  0  0  0  0  0
    2.6860    8.6210  -11.0370 C   0  0  0  0  0  0  0  0  0  0  0  0
    3.6810    8.6590  -12.0240 N   0  0  0  0  0  0  0  0  0  0  0  0
    0.9260   13.7110   -5.0060 O   0  0  0  0  0  0  0  0  0  0  0  0
    3.9460    9.5520  -13.0710 C   0  0  0  0  0  0  0  0  0  0  0  0
   -0.3620   14.3260   -5.0840 C   0  0  2  0  0  0  0  0  0  0  0  0
    3.2090   10.7190  -13.3060 C   0  0  0  0  0  0  0  0  0  0  0  0
    5.0100    9.2610  -13.9310 C   0  0  0  0  0  0  0  0  0  0  0  0
   -0.3190   15.8180   -4.7100 C   0  0  2  0  0  0  0  0  0  0  0  0
   -1.2390   13.8480   -3.9340 C   0  0  1  0  0  0  0  0  0  0  0  0
   -1.2240   12.4500   -3.7200 O   0  0  0  0  0  0  0  0  0  0  0  0
    0.7140   16.6880   -5.3970 C   0  0  0  0  0  0  0  0  0  0  0  0
    3.5240   11.5670  -14.3660 C   0  0  0  0  0  0  0  0  0  0  0  0
    5.3290   10.1070  -14.9930 C   0  0  0  0  0  0  0  0  0  0  0  0
   -0.7070   14.6480   -2.7520 C   0  0  0  0  0  0  0  0  0  0  0  0
   -0.1090   15.8460   -3.2890 O   0  0  0  0  0  0  0  0  0  0  0  0
    4.5850   11.2630  -15.2110 C   0  0  0  0  0  0  0  0  0  0  0  0
  1  2  1  0
  2  3  1  0
  1  4  1  0
  2  5  2  3
  4  6  2  0
  4  7  1  0
  5  8  1  0
  6  9  1  0
  7 10  2  0
  8 11  1  0
  9 12  2  0
 10 12  1  0
 12 13  1  0
 11 14  1  0
 13 15  1  0
 16 14  1  1
 15 17  2  0
 15 18  1  0
 16 19  1  0
 16 20  1  0
 20 21  1  1
 19 22  1  6
 17 23  1  0
 18 24  2  0
 20 25  1  0
 19 26  1  0
 25 26  1  0
 23 27  2  0
 24 27  1  0
M  END
