x0524_0_A-x0950_1_A
     RDKit          3D

 24 25  0  0  0  0  0  0  0  0999 V2000
   -0.4030    8.5920   -8.1460 N   0  0  0  0  0  0  0  0  0  0  0  0
   -0.6830    9.6280   -7.2850 C   0  0  0  0  0  0  0  0  0  0  0  0
   -1.7980    9.3650   -6.2730 C   0  0  0  0  0  0  0  0  0  0  0  0
    0.5890    8.6270   -9.1360 C   0  0  0  0  0  0  0  0  0  0  0  0
   -0.0180   10.7340   -7.3620 N   0  0  0  0  0  0  0  0  0  0  0  0
    1.7140    7.7990   -9.0090 C   0  0  0  0  0  0  0  0  0  0  0  0
    0.5240    9.4530  -10.2520 C   0  0  0  0  0  0  0  0  0  0  0  0
   -0.2170   11.8840   -6.4980 C   0  0  0  0  0  0  0  0  0  0  0  0
    2.7340    7.8120   -9.9700 C   0  0  0  0  0  0  0  0  0  0  0  0
    1.5380    9.4670  -11.2120 C   0  0  0  0  0  0  0  0  0  0  0  0
   -0.0550   11.6240   -5.1140 O   0  0  0  0  0  0  0  0  0  0  0  0
    2.6590    8.6480  -11.0850 C   0  0  0  0  0  0  0  0  0  0  0  0
    3.6960    8.6410  -12.0290 N   0  0  0  0  0  0  0  0  0  0  0  0
    0.9780   12.3720   -4.4820 C   0  0  1  0  0  0  0  0  0  0  0  0
    0.7820   13.8520   -4.8030 C   0  0  0  0  0  0  0  0  0  0  0  0
    0.9820   12.1750   -2.9580 C   0  0  0  0  0  0  0  0  0  0  0  0
    4.0100    9.5050  -13.0910 C   0  0  0  0  0  0  0  0  0  0  0  0
    0.5380   11.2030   -2.3740 O   0  0  0  0  0  0  0  0  0  0  0  0
    1.5320   13.1940   -2.2700 O   0  0  0  0  0  0  0  0  0  0  0  0
    3.2510   10.6710  -13.2870 C   0  0  0  0  0  0  0  0  0  0  0  0
    5.0620    9.2530  -13.9760 C   0  0  0  0  0  0  0  0  0  0  0  0
    3.5340   11.5520  -14.3290 C   0  0  0  0  0  0  0  0  0  0  0  0
    5.3480   10.1320  -15.0210 C   0  0  0  0  0  0  0  0  0  0  0  0
    4.5850   11.2800  -15.1980 C   0  0  0  0  0  0  0  0  0  0  0  0
  1  2  1  0
  2  3  1  0
  1  4  1  0
  2  5  2  3
  4  6  2  0
  4  7  1  0
  5  8  1  0
  6  9  1  0
  7 10  2  0
  8 11  1  0
  9 12  2  0
 10 12  1  0
 12 13  1  0
 11 14  1  0
 14 15  1  1
 14 16  1  0
 13 17  1  0
 16 18  2  0
 16 19  1  0
 17 20  2  0
 17 21  1  0
 20 22  1  0
 21 23  2  0
 22 24  2  0
 23 24  1  0
M  END
