x0524_0_A_α-x0591_0_A_α
     RDKit          3D

 33 35  0  0  0  0  0  0  0  0999 V2000
   -0.2810    8.5380   -7.9530 N   0  0  0  0  0  0  0  0  0  0  0  0
   -0.9570    9.5520   -7.3120 C   0  0  0  0  0  0  0  0  0  0  0  0
   -2.0530    9.0790   -6.3680 C   0  0  0  0  0  0  0  0  0  0  0  0
    0.6670    8.6150   -8.9910 C   0  0  0  0  0  0  0  0  0  0  0  0
   -0.7000   10.8010   -7.4910 N   0  0  0  0  0  0  0  0  0  0  0  0
    1.7450    7.7330   -8.9450 C   0  0  0  0  0  0  0  0  0  0  0  0
    0.6060    9.5090  -10.0640 C   0  0  0  0  0  0  0  0  0  0  0  0
   -1.4450   11.8630   -6.8090 C   0  0  0  0  0  0  0  0  0  0  0  0
    2.7370    7.7350   -9.9290 C   0  0  0  0  0  0  0  0  0  0  0  0
    1.5990    9.5120  -11.0570 C   0  0  0  0  0  0  0  0  0  0  0  0
   -0.5920   12.7390   -5.8790 C   0  0  0  0  0  0  0  0  0  0  0  0
    2.6800    8.6230  -11.0000 C   0  0  0  0  0  0  0  0  0  0  0  0
    3.6670    8.6480  -12.0110 N   0  0  0  0  0  0  0  0  0  0  0  0
   -1.3570   13.2860   -4.7360 N   0  0  0  0  0  0  0  0  0  0  0  0
   -2.2810   14.4980   -4.9090 S   0  0  1  0  0  0  0  0  0  0  0  0
    3.9530    9.5350  -13.0670 C   0  0  0  0  0  0  0  0  0  0  0  0
   -1.1010   15.6690   -4.6470 N   0  0  0  0  0  0  0  0  0  0  0  0
   -2.9130   14.9790   -6.1190 O   0  0  0  0  0  0  0  0  0  0  0  0
    3.1900   10.6950  -13.2650 C   0  0  0  0  0  0  0  0  0  0  0  0
    5.0100    9.2820  -13.9470 C   0  0  0  0  0  0  0  0  0  0  0  0
   -3.4070   14.5920   -3.5530 C   0  0  0  0  0  0  0  0  0  0  0  0
    3.4780   11.5710  -14.3090 C   0  0  0  0  0  0  0  0  0  0  0  0
    5.3010   10.1560  -14.9930 C   0  0  0  0  0  0  0  0  0  0  0  0
   -2.9680   14.4320   -2.2400 C   0  0  0  0  0  0  0  0  0  0  0  0
   -4.7460   14.8260   -3.8240 C   0  0  0  0  0  0  0  0  0  0  0  0
    4.5340   11.3020  -15.1750 C   0  0  0  0  0  0  0  0  0  0  0  0
   -3.8890   14.5030   -1.1870 C   0  0  0  0  0  0  0  0  0  0  0  0
   -5.6650   14.9010   -2.7770 C   0  0  0  0  0  0  0  0  0  0  0  0
   -5.2400   14.7370   -1.4610 C   0  0  0  0  0  0  0  0  0  0  0  0
   -6.2660   14.8150   -0.3900 C   0  0  0  0  0  0  0  0  0  0  0  0
   -5.8250   14.6210    0.8960 N   0  0  0  0  0  0  0  0  0  0  0  0
   -7.4370   15.0370   -0.6690 O   0  0  0  0  0  0  0  0  0  0  0  0
   -6.7780   14.4840    1.9680 C   0  0  0  0  0  0  0  0  0  0  0  0
  1  2  1  0
  2  3  1  0
  1  4  1  0
  2  5  2  3
  4  6  2  0
  4  7  1  0
  5  8  1  0
  6  9  1  0
  7 10  2  0
  8 11  1  0
  9 12  2  0
 10 12  1  0
 12 13  1  0
 11 14  1  0
 14 15  2  0
 13 16  1  0
 15 17  1  1
 15 18  2  0
 16 19  2  0
 16 20  1  0
 15 21  1  0
 19 22  1  0
 20 23  2  0
 21 24  2  0
 21 25  1  0
 22 26  2  0
 23 26  1  0
 24 27  1  0
 25 28  2  0
 27 29  2  0
 28 29  1  0
 29 30  1  0
 30 31  1  0
 30 32  2  0
 31 33  1  0
M  END
