x0524_0_A-x0628_0_A
     RDKit          3D

 28 30  0  0  0  0  0  0  0  0999 V2000
   -0.0400    8.4470   -7.7600 N   0  0  0  0  0  0  0  0  0  0  0  0
   -1.1140    9.3820   -7.4210 C   0  0  2  0  0  0  0  0  0  0  0  0
   -2.3830    8.6070   -7.0700 C   0  0  0  0  0  0  0  0  0  0  0  0
    0.8190    8.5560   -8.8560 C   0  0  0  0  0  0  0  0  0  0  0  0
   -1.3710   10.0250   -8.6650 O   0  0  0  0  0  0  0  0  0  0  0  0
    1.9420    7.7270   -8.8600 C   0  0  0  0  0  0  0  0  0  0  0  0
    0.6650    9.4160   -9.9520 C   0  0  0  0  0  0  0  0  0  0  0  0
   -0.9080   10.5290   -6.4580 C   0  0  0  0  0  0  0  0  0  0  0  0
    2.8730    7.7470   -9.8990 C   0  0  0  0  0  0  0  0  0  0  0  0
    1.5990    9.4390  -11.0010 C   0  0  0  0  0  0  0  0  0  0  0  0
   -1.8410   10.7390   -5.4670 N   0  0  0  0  0  0  0  0  0  0  0  0
    0.1050   11.3940   -6.4790 N   0  0  0  0  0  0  0  0  0  0  0  0
    2.7220    8.6010  -10.9890 C   0  0  0  0  0  0  0  0  0  0  0  0
   -0.2110   12.1950   -5.4560 N   0  0  0  0  0  0  0  0  0  0  0  0
   -1.3810   11.7980   -4.8480 C   0  0  0  0  0  0  0  0  0  0  0  0
    3.6480    8.6350  -12.0420 N   0  0  0  0  0  0  0  0  0  0  0  0
   -2.0090   12.4660   -3.6890 C   0  0  0  0  0  0  0  0  0  0  0  0
    0.6660   13.3080   -5.1480 C   0  0  0  0  0  0  0  0  0  0  0  0
    1.7130   12.9730   -4.1050 C   0  0  0  0  0  0  0  0  0  0  0  0
    3.9150    9.5520  -13.0710 C   0  0  0  0  0  0  0  0  0  0  0  0
    1.0720   12.3090   -2.9180 C   0  0  0  0  0  0  0  0  0  0  0  0
    3.1770   10.7230  -13.2920 C   0  0  0  0  0  0  0  0  0  0  0  0
    4.9860    9.2790  -13.9290 C   0  0  0  0  0  0  0  0  0  0  0  0
    0.5900   11.1900   -2.8780 O   0  0  0  0  0  0  0  0  0  0  0  0
    1.0740   13.1010   -1.8370 O   0  0  0  0  0  0  0  0  0  0  0  0
    3.5020   11.5870  -14.3350 C   0  0  0  0  0  0  0  0  0  0  0  0
    5.3130   10.1410  -14.9740 C   0  0  0  0  0  0  0  0  0  0  0  0
    4.5680   11.2990  -15.1780 C   0  0  0  0  0  0  0  0  0  0  0  0
  1  2  1  0
  2  3  1  1
  1  4  1  0
  2  5  1  0
  4  6  2  0
  4  7  1  0
  2  8  1  0
  6  9  1  0
  7 10  2  0
  8 11  1  0
  8 12  2  0
  9 13  2  0
 10 13  1  0
 12 14  1  0
 11 15  2  0
 14 15  1  0
 13 16  1  0
 15 17  1  0
 14 18  1  0
 18 19  1  0
 16 20  1  0
 19 21  1  0
 20 22  2  0
 20 23  1  0
 21 24  2  0
 21 25  1  0
 22 26  1  0
 23 27  2  0
 26 28  2  0
 27 28  1  0
M  END
