x0524_0_A_α-x0662_0_A_α
     RDKit          3D

 18 19  0  0  0  0  0  0  0  0999 V2000
   -0.6290    8.8080   -8.1550 N   0  0  0  0  0  0  0  0  0  0  0  0
   -0.9400    9.6180   -7.1150 C   0  0  0  0  0  0  0  0  0  0  0  0
   -1.9900    9.2410   -6.1130 C   0  0  0  0  0  0  0  0  0  0  0  0
    0.4440    8.7030   -9.0450 C   0  0  0  0  0  0  0  0  0  0  0  0
   -0.3360   10.6880   -7.0170 O   0  0  0  0  0  0  0  0  0  0  0  0
    1.5360    7.8700   -8.8760 C   0  0  0  0  0  0  0  0  0  0  0  0
    0.3800    9.5130  -10.1940 C   0  0  0  0  0  0  0  0  0  0  0  0
    2.5470    7.8350   -9.8330 C   0  0  0  0  0  0  0  0  0  0  0  0
    1.3890    9.4840  -11.1580 C   0  0  0  0  0  0  0  0  0  0  0  0
    2.4730    8.6370  -10.9720 C   0  0  0  0  0  0  0  0  0  0  0  0
    3.5570    8.5460  -11.9540 C   0  0  0  0  0  0  0  0  0  0  0  0
    4.2290    7.5470  -11.8400 O   0  0  0  0  0  0  0  0  0  0  0  0
    3.8770    9.5140  -13.0440 C   0  0  0  0  0  0  0  0  0  0  0  0
    3.1180   10.6770  -13.2130 C   0  0  0  0  0  0  0  0  0  0  0  0
    4.9490    9.2550  -13.9070 C   0  0  0  0  0  0  0  0  0  0  0  0
    3.4310   11.5690  -14.2390 C   0  0  0  0  0  0  0  0  0  0  0  0
    5.2570   10.1520  -14.9300 C   0  0  0  0  0  0  0  0  0  0  0  0
    4.4990   11.3080  -15.0960 C   0  0  0  0  0  0  0  0  0  0  0  0
  1  2  1  0
  2  3  1  0
  1  4  1  0
  2  5  2  0
  4  6  2  0
  4  7  1  0
  6  8  1  0
  7  9  2  0
  8 10  2  0
  9 10  1  0
 10 11  1  0
 11 12  2  0
 11 13  1  0
 13 14  2  0
 13 15  1  0
 14 16  1  0
 15 17  2  0
 16 18  2  0
 17 18  1  0
M  END
