x0524_0_A-x0805_0_A
     RDKit          3D

 37 40  0  0  0  0  0  0  0  0999 V2000
   -0.6450    8.4480   -8.3730 N   0  0  0  0  0  0  0  0  0  0  0  0
   -0.9570    9.3210   -7.3570 C   0  0  0  0  0  0  0  0  0  0  0  0
   -1.8400    8.7680   -6.2470 C   0  0  0  0  0  0  0  0  0  0  0  0
    0.4690    8.5000   -9.2370 C   0  0  0  0  0  0  0  0  0  0  0  0
   -0.6080   10.5460   -7.2140 N   0  0  0  0  0  0  0  0  0  0  0  0
    1.6400    7.7610   -9.0400 C   0  0  0  0  0  0  0  0  0  0  0  0
    0.3890    9.3320  -10.3580 C   0  0  0  0  0  0  0  0  0  0  0  0
   -1.0330   11.2730   -6.0250 C   0  0  0  0  0  0  0  0  0  0  0  0
    2.7010    7.8500   -9.9500 C   0  0  0  0  0  0  0  0  0  0  0  0
    1.4460    9.4170  -11.2620 C   0  0  0  0  0  0  0  0  0  0  0  0
   -0.2880   10.6450   -4.8610 C   0  0  0  0  0  0  0  0  0  0  0  0
    2.6150    8.6780  -11.0780 C   0  0  0  0  0  0  0  0  0  0  0  0
    3.6820    8.7450  -11.9810 N   0  0  0  0  0  0  0  0  0  0  0  0
   -0.8750   10.8190   -3.4780 C   0  0  0  0  0  0  0  0  0  0  0  0
    0.2090   10.8600   -2.5470 O   0  0  0  0  0  0  0  0  0  0  0  0
    3.9030    9.5960  -13.0750 C   0  0  0  0  0  0  0  0  0  0  0  0
    0.4530   12.1190   -2.0910 C   0  0  0  0  0  0  0  0  0  0  0  0
    3.2120   10.7980  -13.2720 C   0  0  0  0  0  0  0  0  0  0  0  0
    4.8650    9.2320  -14.0220 C   0  0  0  0  0  0  0  0  0  0  0  0
    0.3850   12.4250   -0.9290 O   0  0  0  0  0  0  0  0  0  0  0  0
    3.4770   11.6080  -14.3710 C   0  0  0  0  0  0  0  0  0  0  0  0
    5.1350   10.0400  -15.1260 C   0  0  0  0  0  0  0  0  0  0  0  0
    0.8070   13.2090   -3.0750 C   0  0  1  0  0  0  0  0  0  0  0  0
    4.4410   11.2320  -15.3020 C   0  0  0  0  0  0  0  0  0  0  0  0
    1.5620   12.9200   -4.3600 C   0  0  0  0  0  0  0  0  0  0  0  0
   -0.1990   14.3340   -3.2150 C   0  0  2  0  0  0  0  0  0  0  0  0
   -1.6490   14.1660   -2.8080 C   0  0  0  0  0  0  0  0  0  0  0  0
    2.2830   14.0910   -4.7500 O   0  0  0  0  0  0  0  0  0  0  0  0
    0.0600   15.0840   -4.5100 C   0  0  0  0  0  0  0  0  0  0  0  0
   -2.6060   13.3930   -3.4900 C   0  0  0  0  0  0  0  0  0  0  0  0
   -2.0440   14.8360   -1.6730 C   0  0  0  0  0  0  0  0  0  0  0  0
    1.5500   15.3280   -4.6450 C   0  0  0  0  0  0  0  0  0  0  0  0
   -3.3270   14.8050   -1.1790 C   0  0  0  0  0  0  0  0  0  0  0  0
   -3.9180   13.3310   -3.0040 C   0  0  0  0  0  0  0  0  0  0  0  0
   -3.7250   15.4960   -0.0610 O   0  0  0  0  0  0  0  0  0  0  0  0
   -4.2810   14.0390   -1.8490 C   0  0  0  0  0  0  0  0  0  0  0  0
   -4.4060   14.8190    0.9830 C   0  0  0  0  0  0  0  0  0  0  0  0
  1  2  1  0
  2  3  1  0
  1  4  1  0
  2  5  2  3
  4  6  2  0
  4  7  1  0
  5  8  1  0
  6  9  1  0
  7 10  2  0
  8 11  1  0
  9 12  2  0
 10 12  1  0
 12 13  1  0
 11 14  1  0
 14 15  1  0
 13 16  1  0
 15 17  1  0
 16 18  2  0
 16 19  1  0
 17 20  2  0
 18 21  1  0
 19 22  2  0
 23 17  1  6
 21 24  2  0
 22 24  1  0
 23 25  1  0
 23 26  1  0
 26 27  1  6
 25 28  1  0
 26 29  1  0
 27 30  2  0
 27 31  1  0
 28 32  1  0
 29 32  1  0
 31 33  2  0
 30 34  1  0
 33 35  1  0
 33 36  1  0
 34 36  2  0
 35 37  1  0
M  END
