x0524_0_A_α-x0574_0_A_α
     RDKit          3D

 34 37  0  0  0  0  0  0  0  0999 V2000
   -0.4370    8.7320   -7.9560 N   0  0  0  0  0  0  0  0  0  0  0  0
   -0.6820    9.7280   -7.0100 C   0  0  0  0  0  0  0  0  0  0  0  0
   -2.0070    9.5670   -6.2900 C   0  0  0  0  0  0  0  0  0  0  0  0
    0.6010    8.6980   -8.9460 C   0  0  0  0  0  0  0  0  0  0  0  0
    0.0490   10.7510   -6.6630 N   0  0  0  0  0  0  0  0  0  0  0  0
    1.7050    7.8490   -8.8520 C   0  0  0  0  0  0  0  0  0  0  0  0
    0.5190    9.5380  -10.0660 C   0  0  0  0  0  0  0  0  0  0  0  0
   -0.3620   11.7360   -5.6260 C   0  0  0  0  0  0  0  0  0  0  0  0
    2.6970    7.8340   -9.8440 C   0  0  0  0  0  0  0  0  0  0  0  0
    1.5140    9.5220  -11.0600 C   0  0  0  0  0  0  0  0  0  0  0  0
   -0.4020   11.1590   -4.1830 C   0  0  0  0  0  0  0  0  0  0  0  0
    2.6210    8.6640  -10.9620 C   0  0  0  0  0  0  0  0  0  0  0  0
    3.6000    8.6680  -11.9750 N   0  0  0  0  0  0  0  0  0  0  0  0
    0.6090   11.8000   -3.1910 C   0  0  0  0  0  0  0  0  0  0  0  0
    0.0950   12.9190   -2.2360 C   0  0  0  0  0  0  0  0  0  0  0  0
    3.8930    9.5530  -13.0270 C   0  0  0  0  0  0  0  0  0  0  0  0
   -1.1120   12.5120   -1.3710 C   0  0  0  0  0  0  0  0  0  0  0  0
    3.1680   10.7290  -13.2740 C   0  0  0  0  0  0  0  0  0  0  0  0
    4.9640    9.2510  -13.8770 C   0  0  0  0  0  0  0  0  0  0  0  0
    3.5040   11.5680  -14.3340 C   0  0  0  0  0  0  0  0  0  0  0  0
    5.3020   10.0900  -14.9400 C   0  0  0  0  0  0  0  0  0  0  0  0
   -1.3180   13.1820   -0.0250 N   0  0  0  0  0  0  0  0  0  0  0  0
    4.5710   11.2510  -15.1680 C   0  0  0  0  0  0  0  0  0  0  0  0
   -2.6960   13.7630    0.0130 C   0  0  1  0  0  0  0  0  0  0  0  0
   -0.4380   14.2970    0.2730 C   0  0  2  0  0  0  0  0  0  0  0  0
   -0.0640   14.3280    1.6420 N   0  0  0  0  0  0  0  0  0  0  0  0
   -3.6090   14.1170    1.2200 C   0  0  0  0  0  0  0  0  0  0  0  0
   -2.6050   14.8860   -0.9950 C   0  0  2  0  0  0  0  0  0  0  0  0
   -1.1820   15.7980   -0.3490 S   0  0  0  0  0  0  0  0  0  0  0  0
   -5.0130   14.5560    0.7350 C   0  0  1  0  0  0  0  0  0  0  0  0
   -3.8650   15.6350   -1.2110 C   0  0  0  0  0  0  0  0  0  0  0  0
   -5.8070   15.2090    1.7090 O   0  0  0  0  0  0  0  0  0  0  0  0
   -4.9440   15.4840   -0.4370 C   0  0  0  0  0  0  0  0  0  0  0  0
   -6.8660   14.4280    2.2350 C   0  0  0  0  0  0  0  0  0  0  0  0
  1  2  1  0
  2  3  1  0
  1  4  1  0
  2  5  2  3
  4  6  2  0
  4  7  1  0
  5  8  1  0
  6  9  1  0
  7 10  2  0
  8 11  1  0
  9 12  2  0
 10 12  1  0
 12 13  1  0
 11 14  1  0
 14 15  1  0
 13 16  1  0
 15 17  1  0
 16 18  2  0
 16 19  1  0
 18 20  1  0
 19 21  2  0
 17 22  1  0
 20 23  2  0
 21 23  1  0
 22 24  1  0
 22 25  1  0
 25 26  1  1
 24 27  1  1
 24 28  1  0
 25 29  1  0
 28 29  1  0
 27 30  1  0
 28 31  1  1
 30 32  1  1
 30 33  1  0
 31 33  2  0
 32 34  1  0
M  END
