x0524_0_A_α-x0371_0_A_β
     RDKit          3D

 32 35  0  0  0  0  0  0  0  0999 V2000
   -0.4590    8.7250   -8.0980 N   0  0  0  0  0  0  0  0  0  0  0  0
   -0.7200    9.7930   -7.2550 C   0  0  0  0  0  0  0  0  0  0  0  0
   -2.0290    9.6600   -6.4870 C   0  0  0  0  0  0  0  0  0  0  0  0
    0.5900    8.6590   -9.0380 C   0  0  0  0  0  0  0  0  0  0  0  0
   -0.0080   10.7710   -7.1020 O   0  0  0  0  0  0  0  0  0  0  0  0
    1.6720    7.7910   -8.9320 C   0  0  0  0  0  0  0  0  0  0  0  0
    0.5360    9.5180  -10.1390 C   0  0  0  0  0  0  0  0  0  0  0  0
   -2.7350   11.0180   -6.3140 C   0  0  0  0  0  0  0  0  0  0  0  0
    2.6800    7.7830   -9.9030 C   0  0  0  0  0  0  0  0  0  0  0  0
    1.5450    9.5070  -11.1080 C   0  0  0  0  0  0  0  0  0  0  0  0
   -1.9920   11.9780   -5.3610 C   0  0  0  0  0  0  0  0  0  0  0  0
    2.6400    8.6360  -11.0060 C   0  0  0  0  0  0  0  0  0  0  0  0
    3.6300    8.6590  -12.0020 N   0  0  0  0  0  0  0  0  0  0  0  0
   -2.7370   13.3150   -5.2010 C   0  0  0  0  0  0  0  0  0  0  0  0
   -2.2280   14.2080   -4.0480 C   0  0  0  0  0  0  0  0  0  0  0  0
    3.9170    9.5490  -13.0500 C   0  0  0  0  0  0  0  0  0  0  0  0
   -3.2090   15.2870   -3.5390 C   0  0  0  0  0  0  0  0  0  0  0  0
    3.1930   10.7230  -13.2930 C   0  0  0  0  0  0  0  0  0  0  0  0
    4.9880    9.2510  -13.9020 C   0  0  0  0  0  0  0  0  0  0  0  0
    3.5270   11.5670  -14.3500 C   0  0  0  0  0  0  0  0  0  0  0  0
    5.3260   10.0930  -14.9610 C   0  0  0  0  0  0  0  0  0  0  0  0
   -3.7760   15.1270   -2.1410 C   0  0  0  0  0  0  0  0  0  0  0  0
    4.5930   11.2550  -15.1850 C   0  0  0  0  0  0  0  0  0  0  0  0
   -2.9800   15.0400   -0.9800 C   0  0  0  0  0  0  0  0  0  0  0  0
   -5.1730   15.0540   -2.0120 C   0  0  0  0  0  0  0  0  0  0  0  0
   -5.7480   14.8830   -0.7500 C   0  0  0  0  0  0  0  0  0  0  0  0
   -3.5380   14.8770    0.2990 C   0  0  0  0  0  0  0  0  0  0  0  0
   -4.9280   14.7960    0.3650 C   0  0  0  0  0  0  0  0  0  0  0  0
   -7.0700   14.7740   -0.3990 N   0  0  0  0  0  0  0  0  0  0  0  0
   -7.0760   14.6120    0.9060 C   0  0  0  0  0  0  0  0  0  0  0  0
   -5.7980   14.6220    1.4050 N   0  0  0  0  0  0  0  0  0  0  0  0
   -8.2660   14.4370    1.7690 C   0  0  0  0  0  0  0  0  0  0  0  0
  1  2  1  0
  2  3  1  0
  1  4  1  0
  2  5  2  0
  4  6  2  0
  4  7  1  0
  3  8  1  0
  6  9  1  0
  7 10  2  0
  8 11  1  0
  9 12  2  0
 10 12  1  0
 12 13  1  0
 11 14  1  0
 14 15  1  0
 13 16  1  0
 15 17  1  0
 16 18  2  0
 16 19  1  0
 18 20  1  0
 19 21  2  0
 17 22  1  0
 20 23  2  0
 21 23  1  0
 22 24  2  0
 22 25  1  0
 25 26  2  0
 24 27  1  0
 26 28  1  0
 27 28  2  0
 26 29  1  0
 29 30  2  0
 28 31  1  0
 30 31  1  0
 30 32  1  0
M  END
