x0524_0_A-x0253_0_A
     RDKit          3D

 30 32  0  0  0  0  0  0  0  0999 V2000
   -0.4750    7.6470   -8.1090 N   0  0  0  0  0  0  0  0  0  0  0  0
   -1.8530    7.8780   -8.0360 C   0  0  0  0  0  0  0  0  0  0  0  0
   -2.2390    9.0810   -7.2710 C   0  0  0  0  0  0  0  0  0  0  0  0
    0.4800    7.9630   -9.1370 C   0  0  0  0  0  0  0  0  0  0  0  0
   -2.7100    7.2500   -8.5470 O   0  0  0  0  0  0  0  0  0  0  0  0
    1.7600    7.4870   -8.9070 C   0  0  0  0  0  0  0  0  0  0  0  0
    0.2690    8.6780  -10.3290 C   0  0  0  0  0  0  0  0  0  0  0  0
    2.8080    7.7100   -9.8130 C   0  0  0  0  0  0  0  0  0  0  0  0
    1.3260    8.9040  -11.2430 C   0  0  0  0  0  0  0  0  0  0  0  0
   -1.1580    9.8370   -7.8150 C   0  0  0  0  0  0  0  0  0  0  0  0
    2.6130    8.4200  -10.9950 C   0  0  0  0  0  0  0  0  0  0  0  0
   -0.3600   10.5380   -6.9930 C   0  0  0  0  0  0  0  0  0  0  0  0
   -0.9700    9.7860   -9.1920 C   0  0  0  0  0  0  0  0  0  0  0  0
    3.6650    8.6400  -11.9140 N   0  0  0  0  0  0  0  0  0  0  0  0
    0.6870   11.2160   -7.5150 C   0  0  0  0  0  0  0  0  0  0  0  0
    0.0850   10.4550   -9.7450 C   0  0  0  0  0  0  0  0  0  0  0  0
    1.4330   11.9350   -6.4590 C   0  0  0  0  0  0  0  0  0  0  0  0
    3.8850    9.5440  -12.9690 C   0  0  0  0  0  0  0  0  0  0  0  0
    0.9190   11.1580   -8.9170 C   0  0  0  0  0  0  0  0  0  0  0  0
    0.6890   12.2790   -5.3660 N   0  0  0  0  0  0  0  0  0  0  0  0
    2.5970   12.2010   -6.5000 O   0  0  0  0  0  0  0  0  0  0  0  0
    3.1180   10.6970  -13.2020 C   0  0  0  0  0  0  0  0  0  0  0  0
    4.9460    9.2770  -13.8430 C   0  0  0  0  0  0  0  0  0  0  0  0
    1.3580   12.9330   -4.2640 C   0  0  0  0  0  0  0  0  0  0  0  0
    3.4090   11.5460  -14.2740 C   0  0  0  0  0  0  0  0  0  0  0  0
    5.2390   10.1210  -14.9130 C   0  0  0  0  0  0  0  0  0  0  0  0
    0.9070   12.3450   -2.9430 C   0  0  0  0  0  0  0  0  0  0  0  0
    4.4680   11.2600  -15.1290 C   0  0  0  0  0  0  0  0  0  0  0  0
    1.2370   12.7480   -1.8440 O   0  0  0  0  0  0  0  0  0  0  0  0
    0.0720   11.2940   -3.0630 O   0  0  0  0  0  0  0  0  0  0  0  0
  1  2  1  0
  2  3  1  0
  1  4  1  0
  2  5  2  0
  4  6  2  0
  4  7  1  0
  6  8  1  0
  7  9  2  0
  3 10  1  0
  8 11  2  0
  9 11  1  0
 10 12  2  0
 10 13  1  0
 11 14  1  0
 12 15  1  0
 13 16  2  0
 15 17  1  0
 14 18  1  0
 15 19  2  0
 16 19  1  0
 17 20  1  0
 17 21  2  0
 18 22  2  0
 18 23  1  0
 20 24  1  0
 22 25  1  0
 23 26  2  0
 24 27  1  0
 25 28  2  0
 26 28  1  0
 27 29  2  0
 27 30  1  0
M  END
