x0524_0_A_α-x0438_0_A_α
     RDKit          3D

 36 39  0  0  0  0  0  0  0  0999 V2000
   -0.4640    8.7280   -8.0200 N   0  0  0  0  0  0  0  0  0  0  0  0
   -0.7590    9.8180   -7.2040 C   0  0  0  0  0  0  0  0  0  0  0  0
   -2.0690    9.6620   -6.4230 C   0  0  0  0  0  0  0  0  0  0  0  0
    0.5790    8.6700   -8.9830 C   0  0  0  0  0  0  0  0  0  0  0  0
   -0.0690   10.8180   -7.0860 O   0  0  0  0  0  0  0  0  0  0  0  0
    1.6660    7.8020   -8.9180 C   0  0  0  0  0  0  0  0  0  0  0  0
    0.5000    9.5530  -10.0670 C   0  0  0  0  0  0  0  0  0  0  0  0
   -2.8570   10.9710   -6.1740 C   0  0  0  0  0  0  0  0  0  0  0  0
    2.6570    7.8170   -9.9160 C   0  0  0  0  0  0  0  0  0  0  0  0
    1.4870    9.5650  -11.0620 C   0  0  0  0  0  0  0  0  0  0  0  0
   -2.3420   11.9560   -5.0950 C   0  0  0  0  0  0  0  0  0  0  0  0
    2.5830    8.7000  -11.0060 C   0  0  0  0  0  0  0  0  0  0  0  0
    3.5990    8.6780  -11.9800 N   0  0  0  0  0  0  0  0  0  0  0  0
   -3.3670   12.9130   -4.4400 C   0  0  0  0  0  0  0  0  0  0  0  0
   -2.7880   14.2570   -3.9390 C   0  0  0  0  0  0  0  0  0  0  0  0
    3.9100    9.5480  -13.0420 C   0  0  0  0  0  0  0  0  0  0  0  0
   -3.7890   15.0320   -3.0480 C   0  0  0  0  0  0  0  0  0  0  0  0
    3.1900   10.7220  -13.3000 C   0  0  0  0  0  0  0  0  0  0  0  0
    4.9870    9.2330  -13.8830 C   0  0  0  0  0  0  0  0  0  0  0  0
    3.5360   11.5550  -14.3650 C   0  0  0  0  0  0  0  0  0  0  0  0
    5.3340   10.0650  -14.9490 C   0  0  0  0  0  0  0  0  0  0  0  0
   -3.3510   15.0770   -1.5940 C   0  0  0  0  0  0  0  0  0  0  0  0
    4.6060   11.2270  -15.1890 C   0  0  0  0  0  0  0  0  0  0  0  0
   -4.7950   14.8530   -1.6130 C   0  0  0  0  0  0  0  0  0  0  0  0
   -3.1310   15.0860   -0.1620 C   0  0  0  0  0  0  0  0  0  0  0  0
   -5.6770   14.6840   -0.5290 C   0  0  0  0  0  0  0  0  0  0  0  0
   -3.9670   14.9270    0.9500 C   0  0  0  0  0  0  0  0  0  0  0  0
   -7.0390   14.4570   -0.4480 N   0  0  0  0  0  0  0  0  0  0  0  0
   -5.2860   14.7130    0.7560 C   0  0  0  0  0  0  0  0  0  0  0  0
   -7.3810   14.3540    0.8860 C   0  0  0  0  0  0  0  0  0  0  0  0
   -6.3180   14.5160    1.6360 N   0  0  0  0  0  0  0  0  0  0  0  0
   -8.7560   14.0870    1.3820 C   0  0  0  0  0  0  0  0  0  0  0  0
   -9.3640   15.3150    2.5290 S   0  0  0  0  0  0  0  0  0  0  0  0
   -8.1540   15.5070    3.8400 C   0  0  0  0  0  0  0  0  0  0  0  0
  -10.5820   14.7780    3.1290 O   0  0  0  0  0  0  0  0  0  0  0  0
   -9.4470   16.5580    1.7890 O   0  0  0  0  0  0  0  0  0  0  0  0
  1  2  1  0
  2  3  1  0
  1  4  1  0
  2  5  2  0
  4  6  2  0
  4  7  1  0
  3  8  1  0
  6  9  1  0
  7 10  2  0
  8 11  1  0
  9 12  2  0
 10 12  1  0
 12 13  1  0
 11 14  1  0
 14 15  1  0
 13 16  1  0
 15 17  1  0
 16 18  2  0
 16 19  1  0
 18 20  1  0
 19 21  2  0
 17 22  1  0
 20 23  2  0
 21 23  1  0
 22 24  2  0
 22 25  1  0
 24 26  1  0
 25 27  2  0
 26 28  1  0
 26 29  2  0
 27 29  1  0
 28 30  1  0
 29 31  1  0
 30 31  2  0
 30 32  1  0
 33 32  1  0
 33 34  1  0
 33 35  2  0
 33 36  2  0
M  END
