x0524_0_A-x1012_0_A
     RDKit          3D

 32 34  0  0  0  0  0  0  0  0999 V2000
   -0.5850    8.5260   -8.3110 N   0  0  0  0  0  0  0  0  0  0  0  0
   -0.8970    9.4890   -7.3880 C   0  0  0  0  0  0  0  0  0  0  0  0
   -1.8260    9.1230   -6.2470 C   0  0  0  0  0  0  0  0  0  0  0  0
    0.5220    8.5420   -9.1870 C   0  0  0  0  0  0  0  0  0  0  0  0
   -0.3750   10.6590   -7.5540 N   0  0  0  0  0  0  0  0  0  0  0  0
    1.6610    7.7640   -8.9940 C   0  0  0  0  0  0  0  0  0  0  0  0
    0.4710    9.3760  -10.3100 C   0  0  0  0  0  0  0  0  0  0  0  0
   -0.6560   11.7030   -6.5850 C   0  0  0  0  0  0  0  0  0  0  0  0
    2.7250    7.8120   -9.9010 C   0  0  0  0  0  0  0  0  0  0  0  0
    1.5340    9.4230  -11.2170 C   0  0  0  0  0  0  0  0  0  0  0  0
   -0.0190   11.2210   -5.2960 C   0  0  0  0  0  0  0  0  0  0  0  0
    2.6760    8.6390  -11.0280 C   0  0  0  0  0  0  0  0  0  0  0  0
    3.7200    8.7030  -11.9630 N   0  0  0  0  0  0  0  0  0  0  0  0
   -0.7350   11.6570   -4.0390 C   0  0  0  0  0  0  0  0  0  0  0  0
    0.2360   11.6380   -2.9790 O   0  0  0  0  0  0  0  0  0  0  0  0
    3.9950    9.5520  -13.0500 C   0  0  0  0  0  0  0  0  0  0  0  0
    0.2460   12.7440   -2.1840 C   0  0  0  0  0  0  0  0  0  0  0  0
    3.2180   10.7040  -13.2630 C   0  0  0  0  0  0  0  0  0  0  0  0
    5.0360    9.2860  -13.9390 C   0  0  0  0  0  0  0  0  0  0  0  0
    0.4420   12.7190   -0.9840 O   0  0  0  0  0  0  0  0  0  0  0  0
    3.4820   11.5570  -14.3360 C   0  0  0  0  0  0  0  0  0  0  0  0
    5.3010   10.1360  -15.0130 C   0  0  0  0  0  0  0  0  0  0  0  0
   -0.0410   14.0420   -2.9340 C   0  0  0  0  0  0  0  0  0  0  0  0
    4.5240   11.2730  -15.2110 C   0  0  0  0  0  0  0  0  0  0  0  0
   -1.5090   14.1300   -3.3870 C   0  0  0  0  0  0  0  0  0  0  0  0
    0.9680   14.3280   -4.0550 C   0  0  0  0  0  0  0  0  0  0  0  0
   -1.6240   14.7430   -4.7770 C   0  0  0  0  0  0  0  0  0  0  0  0
    0.6900   15.6680   -4.7360 C   0  0  0  0  0  0  0  0  0  0  0  0
   -0.7440   15.9060   -4.9220 N   0  0  0  0  0  0  0  0  0  0  0  0
   -1.2090   17.1980   -4.8050 C   0  0  0  0  0  0  0  0  0  0  0  0
   -0.2780   18.1770   -4.7420 N   0  0  0  0  0  0  0  0  0  0  0  0
   -2.3920   17.5100   -4.7520 O   0  0  0  0  0  0  0  0  0  0  0  0
  1  2  1  0
  2  3  1  0
  1  4  1  0
  2  5  2  3
  4  6  2  0
  4  7  1  0
  5  8  1  0
  6  9  1  0
  7 10  2  0
  8 11  1  0
  9 12  2  0
 10 12  1  0
 12 13  1  0
 11 14  1  0
 14 15  1  0
 13 16  1  0
 15 17  1  0
 16 18  2  0
 16 19  1  0
 17 20  2  0
 18 21  1  0
 19 22  2  0
 17 23  1  0
 21 24  2  0
 22 24  1  0
 23 25  1  0
 23 26  1  0
 25 27  1  0
 26 28  1  0
 27 29  1  0
 28 29  1  0
 29 30  1  0
 30 31  1  0
 30 32  2  0
M  END
