x0524_0_A-x1015_0_A
     RDKit          3D

 31 34  0  0  0  0  0  0  0  0999 V2000
   -0.5200    8.8580   -7.9990 N   0  0  0  0  0  0  0  0  0  0  0  0
   -1.7870    9.1410   -8.3940 C   0  0  0  0  0  0  0  0  0  0  0  0
   -2.8980    8.3780   -7.7150 C   0  0  0  0  0  0  0  0  0  0  0  0
    0.5420    8.8140   -8.9870 C   0  0  0  0  0  0  0  0  0  0  0  0
   -0.3960    9.7460   -6.9470 C   0  0  0  0  0  0  0  0  0  0  0  0
   -2.0400   10.0290   -9.1920 O   0  0  0  0  0  0  0  0  0  0  0  0
    1.6360    7.9450   -8.8720 C   0  0  0  0  0  0  0  0  0  0  0  0
    0.5150    9.6470  -10.1170 C   0  0  0  0  0  0  0  0  0  0  0  0
    0.3590   10.9030   -7.0670 C   0  0  0  0  0  0  0  0  0  0  0  0
   -1.0800    9.4610   -5.7730 C   0  0  0  0  0  0  0  0  0  0  0  0
    2.6550    7.9150   -9.8420 C   0  0  0  0  0  0  0  0  0  0  0  0
    1.5270    9.6150  -11.0810 C   0  0  0  0  0  0  0  0  0  0  0  0
    0.4350   11.7740   -5.9930 C   0  0  0  0  0  0  0  0  0  0  0  0
   -1.0040   10.3300   -4.7070 C   0  0  0  0  0  0  0  0  0  0  0  0
    2.6140    8.7530  -10.9660 C   0  0  0  0  0  0  0  0  0  0  0  0
   -0.2490   11.4940   -4.8010 C   0  0  0  0  0  0  0  0  0  0  0  0
    3.6480    8.7000  -11.9170 N   0  0  0  0  0  0  0  0  0  0  0  0
   -0.1760   12.3530   -3.7060 N   0  0  0  0  0  0  0  0  0  0  0  0
    3.9830    9.5360  -13.0020 C   0  0  0  0  0  0  0  0  0  0  0  0
    0.0160   13.7850   -3.8510 C   0  0  1  0  0  0  0  0  0  0  0  0
    0.2410   11.9100   -2.4480 C   0  0  0  0  0  0  0  0  0  0  0  0
   -1.2670   14.5460   -4.1750 C   0  0  0  0  0  0  0  0  0  0  0  0
    0.3740   10.7510   -2.0450 O   0  0  0  0  0  0  0  0  0  0  0  0
    3.2490   10.7150  -13.2250 C   0  0  0  0  0  0  0  0  0  0  0  0
    5.0320    9.2470  -13.8780 C   0  0  0  0  0  0  0  0  0  0  0  0
    0.4910   13.0090   -1.6880 N   0  0  0  0  0  0  0  0  0  0  0  0
    0.4550   14.1340   -2.4400 C   0  0  0  0  0  0  0  0  0  0  0  0
    0.7430   15.2470   -2.0490 O   0  0  0  0  0  0  0  0  0  0  0  0
    3.5540   11.5670  -14.2870 C   0  0  0  0  0  0  0  0  0  0  0  0
    5.3390   10.0980  -14.9420 C   0  0  0  0  0  0  0  0  0  0  0  0
    4.6010   11.2580  -15.1470 C   0  0  0  0  0  0  0  0  0  0  0  0
  1  2  1  0
  2  3  1  0
  1  4  1  0
  1  5  1  0
  2  6  2  0
  4  7  2  0
  4  8  1  0
  5  9  2  0
  5 10  1  0
  7 11  1  0
  8 12  2  0
  9 13  1  0
 10 14  2  0
 11 15  2  0
 12 15  1  0
 13 16  2  0
 14 16  1  0
 15 17  1  0
 16 18  1  0
 17 19  1  0
 18 20  1  0
 18 21  1  0
 20 22  1  1
 21 23  2  0
 19 24  2  0
 19 25  1  0
 21 26  1  0
 20 27  1  0
 26 27  1  0
 27 28  2  0
 24 29  1  0
 25 30  2  0
 29 31  2  0
 30 31  1  0
M  END
