x0524_0_A_α-x0626_0_A_α
     RDKit          3D

 35 37  0  0  0  0  0  0  0  0999 V2000
   -0.4730    8.6800   -8.1240 N   0  0  0  0  0  0  0  0  0  0  0  0
   -0.7650    9.7230   -7.2550 C   0  0  0  0  0  0  0  0  0  0  0  0
   -2.0620    9.4970   -6.4880 C   0  0  0  0  0  0  0  0  0  0  0  0
    0.5880    8.6260   -9.0560 C   0  0  0  0  0  0  0  0  0  0  0  0
   -0.0850   10.7250   -7.0890 O   0  0  0  0  0  0  0  0  0  0  0  0
    1.6780    7.7710   -8.9440 C   0  0  0  0  0  0  0  0  0  0  0  0
    0.5280    9.4890  -10.1560 C   0  0  0  0  0  0  0  0  0  0  0  0
   -2.8590   10.7990   -6.2980 C   0  0  0  0  0  0  0  0  0  0  0  0
    2.6960    7.7730   -9.9100 C   0  0  0  0  0  0  0  0  0  0  0  0
    1.5460    9.4870  -11.1190 C   0  0  0  0  0  0  0  0  0  0  0  0
   -2.5090   11.5480   -5.0020 C   0  0  0  0  0  0  0  0  0  0  0  0
    2.6430    8.6300  -11.0100 C   0  0  0  0  0  0  0  0  0  0  0  0
    3.6400    8.6620  -12.0010 N   0  0  0  0  0  0  0  0  0  0  0  0
   -2.9890   13.0180   -4.9730 C   0  0  0  0  0  0  0  0  0  0  0  0
   -3.1750   13.5470   -3.5380 C   0  0  0  0  0  0  0  0  0  0  0  0
    3.9150    9.5530  -13.0510 C   0  0  0  0  0  0  0  0  0  0  0  0
   -4.0700   14.8020   -3.4660 C   0  0  0  0  0  0  0  0  0  0  0  0
    3.1860   10.7230  -13.2930 C   0  0  0  0  0  0  0  0  0  0  0  0
    4.9860    9.2540  -13.9030 C   0  0  0  0  0  0  0  0  0  0  0  0
   -5.3520   14.5300   -2.6620 C   0  0  0  0  0  0  0  0  0  0  0  0
    3.5160   11.5670  -14.3520 C   0  0  0  0  0  0  0  0  0  0  0  0
    5.3190   10.0960  -14.9640 C   0  0  0  0  0  0  0  0  0  0  0  0
   -5.6490   15.5380   -1.5330 C   0  0  0  0  0  0  0  0  0  0  0  0
    4.5820   11.2540  -15.1890 C   0  0  0  0  0  0  0  0  0  0  0  0
   -6.4400   14.9390   -0.4660 N   0  0  0  0  0  0  0  0  0  0  0  0
   -6.1500   14.6590    0.7810 C   0  0  0  0  0  0  0  0  0  0  0  0
   -4.8880   14.9130    1.3000 N   0  0  0  0  0  0  0  0  0  0  0  0
   -7.2080   14.0640    1.6860 C   0  0  0  0  0  0  0  0  0  0  0  0
   -8.5900   14.4370    1.1640 C   0  0  0  0  0  0  0  0  0  0  0  0
   -3.6320   14.7880    0.8220 C   0  0  0  0  0  0  0  0  0  0  0  0
   -2.5100   14.6570    1.5260 N   0  0  0  0  0  0  0  0  0  0  0  0
   -3.3790   14.7820   -0.8850 S   0  0  0  0  0  0  0  0  0  0  0  0
   -1.7070   14.5940   -0.6610 C   0  0  0  0  0  0  0  0  0  0  0  0
   -1.4290   14.5460    0.6830 C   0  0  0  0  0  0  0  0  0  0  0  0
   -0.0950   14.3840    1.2630 C   0  0  0  0  0  0  0  0  0  0  0  0
  1  2  1  0
  2  3  1  0
  1  4  1  0
  2  5  2  0
  4  6  2  0
  4  7  1  0
  3  8  1  0
  6  9  1  0
  7 10  2  0
  8 11  1  0
  9 12  2  0
 10 12  1  0
 12 13  1  0
 11 14  1  0
 14 15  1  0
 13 16  1  0
 15 17  1  0
 16 18  2  0
 16 19  1  0
 17 20  1  0
 18 21  1  0
 19 22  2  0
 20 23  1  0
 21 24  2  0
 22 24  1  0
 23 25  1  0
 25 26  2  3
 26 27  1  0
 26 28  1  0
 28 29  1  0
 27 30  1  0
 30 31  2  0
 30 32  1  0
 32 33  1  0
 31 34  1  0
 33 34  2  0
 34 35  1  0
M  END
