x0524_0_A_α-x0159_0_B_β
     RDKit          3D

 21 23  0  0  0  0  0  0  0  0999 V2000
   -0.1710    7.7580   -7.7970 N   0  0  0  0  0  0  0  0  0  0  0  0
   -0.6090    8.7280   -6.9370 C   0  0  0  0  0  0  0  0  0  0  0  0
   -1.5190    8.4280   -5.7840 C   0  0  0  0  0  0  0  0  0  0  0  0
    0.5750    7.7550   -8.9980 C   0  0  0  0  0  0  0  0  0  0  0  0
   -0.2410    9.8920   -7.1300 O   0  0  0  0  0  0  0  0  0  0  0  0
    1.8370    7.1930   -9.1870 C   0  0  0  0  0  0  0  0  0  0  0  0
   -0.0280    8.3820  -10.0960 C   0  0  0  0  0  0  0  0  0  0  0  0
    2.4850    7.2630  -10.4370 C   0  0  0  0  0  0  0  0  0  0  0  0
    0.6110    8.4510  -11.3400 C   0  0  0  0  0  0  0  0  0  0  0  0
    1.8820    7.8970  -11.5290 C   0  0  0  0  0  0  0  0  0  0  0  0
    2.4990    8.0280  -12.7970 N   0  0  0  0  0  0  0  0  0  0  0  0
    3.0550    9.3600  -12.7120 C   0  0  2  0  0  0  0  0  0  0  0  0
    2.4180   10.5360  -13.4210 C   0  0  0  0  0  0  0  0  0  0  0  0
    4.5050    9.3270  -13.0950 C   0  0  0  0  0  0  0  0  0  0  0  0
    2.6350    9.6190  -11.3490 N   0  0  0  0  0  0  0  0  0  0  0  0
    2.6850   10.7770  -14.8400 C   0  0  0  0  0  0  0  0  0  0  0  0
    4.8910    9.8380  -14.2910 C   0  0  0  0  0  0  0  0  0  0  0  0
    1.8400   10.6410  -11.4270 C   0  0  0  0  0  0  0  0  0  0  0  0
    1.6750   11.2440  -12.6410 N   0  0  0  0  0  0  0  0  0  0  0  0
    1.2070   11.1150  -10.3340 N   0  0  0  0  0  0  0  0  0  0  0  0
    3.9260   10.4190  -15.2160 C   0  0  0  0  0  0  0  0  0  0  0  0
  1  2  1  0
  2  3  1  0
  1  4  1  0
  2  5  2  0
  4  6  2  0
  4  7  1  0
  6  8  1  0
  7  9  2  0
  8 10  2  0
  9 10  1  0
 10 11  1  0
 12 11  1  6
 12 13  1  0
 12 14  1  0
 12 15  1  0
 13 16  1  0
 14 17  2  0
 15 18  2  0
 13 19  2  0
 18 19  1  0
 18 20  1  0
 16 21  2  0
 17 21  1  0
M  END
