x0524_0_A_α-x0631_0_A_α
     RDKit          3D

 19 20  0  0  0  0  0  0  0  0999 V2000
   -0.5630    8.6710   -8.0020 N   0  0  0  0  0  0  0  0  0  0  0  0
   -0.9130    9.6560   -7.1070 C   0  0  0  0  0  0  0  0  0  0  0  0
   -2.0390    9.2210   -6.2010 C   0  0  0  0  0  0  0  0  0  0  0  0
    0.3480    8.7770   -9.0640 C   0  0  0  0  0  0  0  0  0  0  0  0
   -0.4110   10.7650   -7.0020 O   0  0  0  0  0  0  0  0  0  0  0  0
    1.4210    7.9050   -9.0460 C   0  0  0  0  0  0  0  0  0  0  0  0
    0.2410    9.6860  -10.1220 C   0  0  0  0  0  0  0  0  0  0  0  0
    2.3590    7.9410  -10.0640 C   0  0  0  0  0  0  0  0  0  0  0  0
    1.1960    9.7200  -11.1490 C   0  0  0  0  0  0  0  0  0  0  0  0
    2.2800    8.8460  -11.1470 C   0  0  0  0  0  0  0  0  0  0  0  0
    3.2980    8.7710  -12.1110 N   0  0  0  0  0  0  0  0  0  0  0  0
    4.3490    7.9960  -11.5750 C   0  0  0  0  0  0  0  0  0  0  0  0
    3.6970    9.6540  -13.1280 C   0  0  0  0  0  0  0  0  0  0  0  0
    4.2440    7.8250  -10.1430 N   0  0  0  0  0  0  0  0  0  0  0  0
    3.0370   10.8490  -13.4080 C   0  0  0  0  0  0  0  0  0  0  0  0
    4.8180    9.3210  -13.9110 C   0  0  0  0  0  0  0  0  0  0  0  0
    3.4770   11.6790  -14.4340 C   0  0  0  0  0  0  0  0  0  0  0  0
    5.2600   10.1520  -14.9370 C   0  0  0  0  0  0  0  0  0  0  0  0
    4.5840   11.3340  -15.1990 C   0  0  0  0  0  0  0  0  0  0  0  0
  1  2  1  0
  2  3  1  0
  1  4  1  0
  2  5  2  0
  4  6  2  0
  4  7  1  0
  6  8  1  0
  7  9  2  0
  8 10  2  0
  9 10  1  0
 10 11  1  0
 11 12  1  0
 11 13  1  0
 12 14  1  0
 13 15  2  0
 13 16  1  0
 15 17  1  0
 16 18  2  0
 17 19  2  0
 18 19  1  0
M  END
