x0524_0_A_α-x0855_0_A_α
     RDKit          3D

 26 28  0  0  0  0  0  0  0  0999 V2000
   -0.4110    8.3260   -8.3380 N   0  0  0  0  0  0  0  0  0  0  0  0
   -1.0070    9.4580   -7.8570 C   0  0  0  0  0  0  0  0  0  0  0  0
   -2.0210    9.2380   -6.7690 C   0  0  0  0  0  0  0  0  0  0  0  0
    0.6720    8.3580   -9.2150 C   0  0  0  0  0  0  0  0  0  0  0  0
   -0.7620   10.6040   -8.2140 O   0  0  0  0  0  0  0  0  0  0  0  0
    1.8170    7.5950   -9.0620 C   0  0  0  0  0  0  0  0  0  0  0  0
    0.5740    9.2240  -10.3090 C   0  0  0  0  0  0  0  0  0  0  0  0
    2.8540    7.6900   -9.9900 C   0  0  0  0  0  0  0  0  0  0  0  0
    1.6100    9.3180  -11.2360 C   0  0  0  0  0  0  0  0  0  0  0  0
   -1.6960   10.3450   -5.8810 C   0  0  0  0  0  0  0  0  0  0  0  0
    2.7690    8.5460  -11.0890 C   0  0  0  0  0  0  0  0  0  0  0  0
   -0.4540   10.9070   -5.7760 C   0  0  0  0  0  0  0  0  0  0  0  0
   -2.5050   11.0670   -4.9870 C   0  0  0  0  0  0  0  0  0  0  0  0
    3.7840    8.6640  -12.0420 N   0  0  0  0  0  0  0  0  0  0  0  0
   -0.5660   11.8930   -4.8610 N   0  0  0  0  0  0  0  0  0  0  0  0
   -1.8110   12.0190   -4.3600 N   0  0  0  0  0  0  0  0  0  0  0  0
    0.4870   12.7540   -4.4090 C   0  0  0  0  0  0  0  0  0  0  0  0
    4.0090    9.5670  -13.0930 C   0  0  0  0  0  0  0  0  0  0  0  0
    0.9820   12.2040   -3.1150 C   0  0  0  0  0  0  0  0  0  0  0  0
    3.2460   10.7260  -13.3010 C   0  0  0  0  0  0  0  0  0  0  0  0
    5.0540    9.2950  -13.9800 C   0  0  0  0  0  0  0  0  0  0  0  0
    1.6680   13.0950   -2.3870 O   0  0  0  0  0  0  0  0  0  0  0  0
    0.8130   11.0780   -2.6810 O   0  0  0  0  0  0  0  0  0  0  0  0
    3.5270   11.5820  -14.3640 C   0  0  0  0  0  0  0  0  0  0  0  0
    5.3370   10.1490  -15.0460 C   0  0  0  0  0  0  0  0  0  0  0  0
    4.5680   11.2970  -15.2350 C   0  0  0  0  0  0  0  0  0  0  0  0
  1  2  1  0
  2  3  1  0
  1  4  1  0
  2  5  2  0
  4  6  2  0
  4  7  1  0
  6  8  1  0
  7  9  2  0
  3 10  1  0
  8 11  2  0
  9 11  1  0
 10 12  2  0
 10 13  1  0
 11 14  1  0
 12 15  1  0
 13 16  2  0
 15 16  1  0
 15 17  1  0
 14 18  1  0
 17 19  1  0
 18 20  2  0
 18 21  1  0
 19 22  1  0
 19 23  2  0
 20 24  1  0
 21 25  2  0
 24 26  2  0
 25 26  1  0
M  END
