x0524_0_A_α-x0685_0_A_α
     RDKit          3D

 32 34  0  0  0  0  0  0  0  0999 V2000
   -0.2470    8.6560   -7.8930 N   0  0  0  0  0  0  0  0  0  0  0  0
   -0.9100    9.6640   -7.2150 C   0  0  0  0  0  0  0  0  0  0  0  0
   -2.2430    9.2250   -6.6270 C   0  0  0  0  0  0  0  0  0  0  0  0
    0.6760    8.7060   -8.9560 C   0  0  0  0  0  0  0  0  0  0  0  0
   -0.4770   10.8750   -7.0690 N   0  0  0  0  0  0  0  0  0  0  0  0
    1.7510    7.8150   -8.9140 C   0  0  0  0  0  0  0  0  0  0  0  0
    0.6100    9.5710  -10.0530 C   0  0  0  0  0  0  0  0  0  0  0  0
   -1.2250   11.9110   -6.3500 C   0  0  0  0  0  0  0  0  0  0  0  0
    2.7250    7.7840   -9.9170 C   0  0  0  0  0  0  0  0  0  0  0  0
    1.5850    9.5400  -11.0630 C   0  0  0  0  0  0  0  0  0  0  0  0
   -0.2950   12.9070   -5.6410 C   0  0  0  0  0  0  0  0  0  0  0  0
    2.6600    8.6450  -11.0100 C   0  0  0  0  0  0  0  0  0  0  0  0
    3.6230    8.6330  -12.0290 N   0  0  0  0  0  0  0  0  0  0  0  0
   -0.8700   13.5880   -4.3770 C   0  0  0  0  0  0  0  0  0  0  0  0
   -1.9650   14.6470   -4.6050 C   0  0  0  0  0  0  0  0  0  0  0  0
    3.9430    9.5120  -13.0750 C   0  0  0  0  0  0  0  0  0  0  0  0
   -2.7640   14.8470   -3.3700 C   0  0  0  0  0  0  0  0  0  0  0  0
    3.1900   10.6810  -13.2720 C   0  0  0  0  0  0  0  0  0  0  0  0
    5.0060    9.2640  -13.9480 C   0  0  0  0  0  0  0  0  0  0  0  0
   -3.3800   14.9480   -2.3350 C   0  0  0  0  0  0  0  0  0  0  0  0
    3.4920   11.5670  -14.3030 C   0  0  0  0  0  0  0  0  0  0  0  0
    5.3100   10.1480  -14.9820 C   0  0  0  0  0  0  0  0  0  0  0  0
    4.5540   11.3010  -15.1620 C   0  0  0  0  0  0  0  0  0  0  0  0
   -4.0770   14.9900   -1.0840 C   0  0  0  0  0  0  0  0  0  0  0  0
   -3.3870   15.1080    0.1160 C   0  0  0  0  0  0  0  0  0  0  0  0
   -5.4580   14.9080   -1.0280 C   0  0  0  0  0  0  0  0  0  0  0  0
   -4.1020   15.1410    1.3090 C   0  0  0  0  0  0  0  0  0  0  0  0
   -6.1740   14.9350    0.1200 N   0  0  0  0  0  0  0  0  0  0  0  0
   -5.4910   15.0530    1.2710 C   0  0  0  0  0  0  0  0  0  0  0  0
   -6.2670   15.0920    2.4290 N   0  0  0  0  0  0  0  0  0  0  0  0
   -7.6460   14.6400    2.3750 C   0  0  0  0  0  0  0  0  0  0  0  0
   -7.7660   13.3070    3.0890 C   0  0  0  0  0  0  0  0  0  0  0  0
  1  2  1  0
  2  3  1  0
  1  4  1  0
  2  5  2  3
  4  6  2  0
  4  7  1  0
  5  8  1  0
  6  9  1  0
  7 10  2  0
  8 11  1  0
  9 12  2  0
 10 12  1  0
 12 13  1  0
 11 14  1  0
 14 15  1  0
 13 16  1  0
 15 17  1  0
 16 18  2  0
 16 19  1  0
 17 20  3  0
 18 21  1  0
 19 22  2  0
 21 23  2  0
 22 23  1  0
 20 24  1  0
 24 25  2  0
 24 26  1  0
 25 27  1  0
 26 28  2  0
 27 29  2  0
 28 29  1  0
 29 30  1  0
 30 31  1  0
 31 32  1  0
M  END
