x0524_0_A-x0711_0_A
     RDKit          3D

 33 35  0  0  0  0  0  0  0  0999 V2000
   -0.2830    8.5150   -7.9340 N   0  0  0  0  0  0  0  0  0  0  0  0
   -0.8400    9.5560   -7.2220 C   0  0  0  0  0  0  0  0  0  0  0  0
   -2.1510    9.2240   -6.5200 C   0  0  0  0  0  0  0  0  0  0  0  0
    0.6570    8.6000   -8.9780 C   0  0  0  0  0  0  0  0  0  0  0  0
   -0.2860   10.7270   -7.1640 N   0  0  0  0  0  0  0  0  0  0  0  0
    1.7860    7.7740   -8.9280 C   0  0  0  0  0  0  0  0  0  0  0  0
    0.5350    9.4600  -10.0680 C   0  0  0  0  0  0  0  0  0  0  0  0
   -0.8880   11.8300   -6.4170 C   0  0  0  0  0  0  0  0  0  0  0  0
    2.7580    7.8110   -9.9360 C   0  0  0  0  0  0  0  0  0  0  0  0
    1.5040    9.4970  -11.0760 C   0  0  0  0  0  0  0  0  0  0  0  0
   -0.6470   11.6740   -4.9130 C   0  0  0  0  0  0  0  0  0  0  0  0
    2.6290    8.6770  -11.0290 C   0  0  0  0  0  0  0  0  0  0  0  0
    3.6200    8.6910  -12.0180 N   0  0  0  0  0  0  0  0  0  0  0  0
   -1.4700   12.6180   -4.0310 C   0  0  0  0  0  0  0  0  0  0  0  0
   -0.5300   13.7930   -3.0590 S   0  0  0  0  0  0  0  0  0  0  0  0
    3.8700    9.5680  -13.0840 C   0  0  0  0  0  0  0  0  0  0  0  0
   -1.6100   15.0180   -2.6810 N   0  0  0  0  0  0  0  0  0  0  0  0
    0.4510   14.4020   -3.9350 O   0  0  0  0  0  0  0  0  0  0  0  0
   -0.0860   13.1290   -1.8490 O   0  0  0  0  0  0  0  0  0  0  0  0
    3.1860   10.7770  -13.2660 C   0  0  0  0  0  0  0  0  0  0  0  0
    4.8510    9.2240  -14.0180 C   0  0  0  0  0  0  0  0  0  0  0  0
    3.4780   11.6120  -14.3430 C   0  0  0  0  0  0  0  0  0  0  0  0
    5.1470   10.0570  -15.0970 C   0  0  0  0  0  0  0  0  0  0  0  0
   -2.8030   14.8930   -1.8970 C   0  0  0  0  0  0  0  0  0  0  0  0
    4.4600   11.2540  -15.2610 C   0  0  0  0  0  0  0  0  0  0  0  0
   -4.0390   15.1300   -2.4960 C   0  0  0  0  0  0  0  0  0  0  0  0
   -2.7550   14.5520   -0.5380 C   0  0  0  0  0  0  0  0  0  0  0  0
   -5.2210   15.0360   -1.7600 C   0  0  0  0  0  0  0  0  0  0  0  0
   -3.9430   14.4550    0.2090 C   0  0  0  0  0  0  0  0  0  0  0  0
   -5.1840   14.6990   -0.4040 C   0  0  0  0  0  0  0  0  0  0  0  0
   -6.4380   14.5950    0.3960 C   0  0  0  0  0  0  0  0  0  0  0  0
   -6.3840   14.7140    1.7610 N   0  0  0  0  0  0  0  0  0  0  0  0
   -7.5200   14.4180   -0.1550 O   0  0  0  0  0  0  0  0  0  0  0  0
  1  2  1  0
  2  3  1  0
  1  4  1  0
  2  5  2  3
  4  6  2  0
  4  7  1  0
  5  8  1  0
  6  9  1  0
  7 10  2  0
  8 11  1  0
  9 12  2  0
 10 12  1  0
 12 13  1  0
 11 14  1  0
 14 15  1  0
 13 16  1  0
 15 17  1  0
 15 18  2  0
 15 19  2  0
 16 20  2  0
 16 21  1  0
 20 22  1  0
 21 23  2  0
 17 24  1  0
 22 25  2  0
 23 25  1  0
 24 26  2  0
 24 27  1  0
 26 28  1  0
 27 29  2  0
 28 30  2  0
 29 30  1  0
 30 31  1  0
 31 32  1  0
 31 33  2  0
M  END
