x0524_0_A_α-x0895_0_A_α
     RDKit          3D

 30 32  0  0  0  0  0  0  0  0999 V2000
   -0.4260    8.5340   -8.1510 N   0  0  0  0  0  0  0  0  0  0  0  0
   -0.7730    9.5550   -7.2890 C   0  0  0  0  0  0  0  0  0  0  0  0
   -1.7780    9.0980   -6.2420 C   0  0  0  0  0  0  0  0  0  0  0  0
    0.6250    8.5390   -9.0870 C   0  0  0  0  0  0  0  0  0  0  0  0
   -0.3550   10.7020   -7.3170 O   0  0  0  0  0  0  0  0  0  0  0  0
    1.7440    7.7260   -9.0010 C   0  0  0  0  0  0  0  0  0  0  0  0
    0.5170    9.4230  -10.1640 C   0  0  0  0  0  0  0  0  0  0  0  0
   -1.5710    9.7890   -4.8940 C   0  0  0  0  0  0  0  0  0  0  0  0
    2.7460    7.7900   -9.9750 C   0  0  0  0  0  0  0  0  0  0  0  0
    1.5180    9.4830  -11.1370 C   0  0  0  0  0  0  0  0  0  0  0  0
   -1.6450   11.3220   -4.9290 C   0  0  0  0  0  0  0  0  0  0  0  0
    2.6470    8.6690  -11.0600 C   0  0  0  0  0  0  0  0  0  0  0  0
    3.6750    8.6910  -12.0110 N   0  0  0  0  0  0  0  0  0  0  0  0
   -1.2130   12.0570   -3.6590 C   0  0  0  0  0  0  0  0  0  0  0  0
   -1.3640   13.5810   -3.6770 C   0  0  0  0  0  0  0  0  0  0  0  0
    3.9590    9.5650  -13.0710 C   0  0  0  0  0  0  0  0  0  0  0  0
   -2.1600   14.1920   -2.5240 C   0  0  0  0  0  0  0  0  0  0  0  0
    3.2260   10.7340  -13.3140 C   0  0  0  0  0  0  0  0  0  0  0  0
    5.0230    9.2630  -13.9260 C   0  0  0  0  0  0  0  0  0  0  0  0
   -3.4130   14.9540   -2.9540 C   0  0  0  0  0  0  0  0  0  0  0  0
    3.5480   11.5710  -14.3790 C   0  0  0  0  0  0  0  0  0  0  0  0
    5.3470   10.1000  -14.9940 C   0  0  0  0  0  0  0  0  0  0  0  0
   -4.2760   15.1640   -1.7960 N   0  0  0  0  0  0  0  0  0  0  0  0
    4.6070   11.2560  -15.2200 C   0  0  0  0  0  0  0  0  0  0  0  0
   -3.8940   14.9740   -0.5920 C   0  0  0  0  0  0  0  0  0  0  0  0
   -4.6840   15.1800    0.4850 N   0  0  0  0  0  0  0  0  0  0  0  0
   -2.6840   14.5600   -0.1450 N   0  0  0  0  0  0  0  0  0  0  0  0
   -3.8190   15.6790    1.5210 C   0  0  0  0  0  0  0  0  0  0  0  0
   -2.5630   14.8680    1.1860 C   0  0  0  0  0  0  0  0  0  0  0  0
   -1.6300   14.5560    1.9140 O   0  0  0  0  0  0  0  0  0  0  0  0
  1  2  1  0
  2  3  1  0
  1  4  1  0
  2  5  2  0
  4  6  2  0
  4  7  1  0
  3  8  1  0
  6  9  1  0
  7 10  2  0
  8 11  1  0
  9 12  2  0
 10 12  1  0
 12 13  1  0
 11 14  1  0
 14 15  1  0
 13 16  1  0
 15 17  1  0
 16 18  2  0
 16 19  1  0
 17 20  1  0
 18 21  1  0
 19 22  2  0
 20 23  1  0
 21 24  2  0
 22 24  1  0
 23 25  2  3
 25 26  1  0
 25 27  1  0
 26 28  1  0
 27 29  1  0
 28 29  1  0
 29 30  2  0
M  END
