x0524_0_A_α-x0587_0_A_α
     RDKit          3D

 35 37  0  0  0  0  0  0  0  0999 V2000
   -0.4750    8.6690   -8.1850 N   0  0  0  0  0  0  0  0  0  0  0  0
   -0.7770    9.7210   -7.3330 C   0  0  0  0  0  0  0  0  0  0  0  0
   -2.0220    9.4580   -6.5030 C   0  0  0  0  0  0  0  0  0  0  0  0
    0.6000    8.6150   -9.0940 C   0  0  0  0  0  0  0  0  0  0  0  0
   -0.1450   10.7590   -7.2190 O   0  0  0  0  0  0  0  0  0  0  0  0
    1.6950    7.7710   -8.9600 C   0  0  0  0  0  0  0  0  0  0  0  0
    0.5470    9.4720  -10.1970 C   0  0  0  0  0  0  0  0  0  0  0  0
   -1.7090    9.2090   -5.0320 C   0  0  0  0  0  0  0  0  0  0  0  0
    2.7230    7.7820   -9.9100 C   0  0  0  0  0  0  0  0  0  0  0  0
    1.5760    9.4790  -11.1450 C   0  0  0  0  0  0  0  0  0  0  0  0
   -1.2580   10.4260   -4.1990 C   0  0  0  0  0  0  0  0  0  0  0  0
    2.6830    8.6330  -11.0150 C   0  0  0  0  0  0  0  0  0  0  0  0
    3.7010    8.6670  -11.9870 N   0  0  0  0  0  0  0  0  0  0  0  0
   -2.0550   10.6510   -2.9040 C   0  0  0  0  0  0  0  0  0  0  0  0
   -2.3830   12.1370   -2.6820 C   0  0  0  0  0  0  0  0  0  0  0  0
    3.9780    9.5410  -13.0570 C   0  0  0  0  0  0  0  0  0  0  0  0
   -3.4670   12.3570   -1.6170 C   0  0  0  0  0  0  0  0  0  0  0  0
    3.2100   10.6970  -13.2630 C   0  0  0  0  0  0  0  0  0  0  0  0
    5.0280    9.2780  -13.9390 C   0  0  0  0  0  0  0  0  0  0  0  0
   -4.4770   13.2160   -2.1370 O   0  0  0  0  0  0  0  0  0  0  0  0
    3.4890   11.5610  -14.3250 C   0  0  0  0  0  0  0  0  0  0  0  0
    5.3100   10.1370  -15.0000 C   0  0  0  0  0  0  0  0  0  0  0  0
   -4.4950   14.5200   -1.5360 C   0  0  0  0  0  0  0  0  0  0  0  0
    4.5390   11.2790  -15.1930 C   0  0  0  0  0  0  0  0  0  0  0  0
   -3.2180   14.8230   -1.1500 F   0  0  0  0  0  0  0  0  0  0  0  0
   -4.7850   15.4050   -2.5290 F   0  0  0  0  0  0  0  0  0  0  0  0
   -5.5220   14.5910   -0.3920 C   0  0  0  0  0  0  0  0  0  0  0  0
   -6.8330   14.3400   -0.6700 N   0  0  0  0  0  0  0  0  0  0  0  0
   -5.0820   14.9060    0.8460 N   0  0  0  0  0  0  0  0  0  0  0  0
   -7.7180   14.4200    0.3510 C   0  0  0  0  0  0  0  0  0  0  0  0
   -6.0120   14.9730    1.8230 C   0  0  0  0  0  0  0  0  0  0  0  0
   -7.3560   14.7410    1.6420 C   0  0  0  0  0  0  0  0  0  0  0  0
   -8.2870   14.8580    2.7780 C   0  0  0  0  0  0  0  0  0  0  0  0
   -7.7670   14.8950    4.0440 N   0  0  0  0  0  0  0  0  0  0  0  0
   -9.4950   14.9390    2.5940 O   0  0  0  0  0  0  0  0  0  0  0  0
  1  2  1  0
  2  3  1  0
  1  4  1  0
  2  5  2  0
  4  6  2  0
  4  7  1  0
  3  8  1  0
  6  9  1  0
  7 10  2  0
  8 11  1  0
  9 12  2  0
 10 12  1  0
 12 13  1  0
 11 14  1  0
 14 15  1  0
 13 16  1  0
 15 17  1  0
 16 18  2  0
 16 19  1  0
 17 20  1  0
 18 21  1  0
 19 22  2  0
 20 23  1  0
 21 24  2  0
 22 24  1  0
 23 25  1  0
 23 26  1  0
 23 27  1  0
 27 28  2  0
 27 29  1  0
 28 30  1  0
 29 31  2  0
 30 32  2  0
 31 32  1  0
 32 33  1  0
 33 34  1  0
 33 35  2  0
M  END
