x0524_0_A_α-x0290_0_A_α
     RDKit          3D

 34 36  0  0  0  0  0  0  0  0999 V2000
   -0.3850    8.5520   -8.0260 N   0  0  0  0  0  0  0  0  0  0  0  0
   -0.7660    9.6140   -7.2190 C   0  0  0  0  0  0  0  0  0  0  0  0
   -2.0970    9.4240   -6.5160 C   0  0  0  0  0  0  0  0  0  0  0  0
    0.6060    8.6280   -9.0470 C   0  0  0  0  0  0  0  0  0  0  0  0
   -0.1510   10.7300   -6.9800 N   0  0  0  0  0  0  0  0  0  0  0  0
    1.7040    7.7700   -8.9560 C   0  0  0  0  0  0  0  0  0  0  0  0
    0.5510    9.5010  -10.1390 C   0  0  0  0  0  0  0  0  0  0  0  0
   -0.7460   11.7300   -6.0800 C   0  0  0  0  0  0  0  0  0  0  0  0
    2.7160    7.7790   -9.9210 C   0  0  0  0  0  0  0  0  0  0  0  0
    1.5650    9.5080  -11.1070 C   0  0  0  0  0  0  0  0  0  0  0  0
    0.3100   12.4190   -5.1980 C   0  0  0  0  0  0  0  0  0  0  0  0
    2.6660    8.6440  -11.0130 C   0  0  0  0  0  0  0  0  0  0  0  0
    3.6690    8.6700  -11.9980 N   0  0  0  0  0  0  0  0  0  0  0  0
   -0.0290   12.3330   -3.6930 C   0  0  0  0  0  0  0  0  0  0  0  0
    0.2220   13.6600   -2.9470 C   0  0  0  0  0  0  0  0  0  0  0  0
    3.9620    9.5400  -13.0630 C   0  0  0  0  0  0  0  0  0  0  0  0
   -1.0630   14.4030   -2.5160 C   0  0  0  0  0  0  0  0  0  0  0  0
    3.2010   10.7000  -13.2700 C   0  0  0  0  0  0  0  0  0  0  0  0
    5.0160    9.2780  -13.9440 C   0  0  0  0  0  0  0  0  0  0  0  0
    3.4870   11.5680  -14.3240 C   0  0  0  0  0  0  0  0  0  0  0  0
    5.3040   10.1450  -14.9990 C   0  0  0  0  0  0  0  0  0  0  0  0
   -1.3020   14.4600   -1.0170 C   0  0  0  0  0  0  0  0  0  0  0  0
    4.5410   11.2890  -15.1890 C   0  0  0  0  0  0  0  0  0  0  0  0
   -0.2330   14.4240   -0.1210 C   0  0  0  0  0  0  0  0  0  0  0  0
   -2.6040   14.5470   -0.4880 C   0  0  0  0  0  0  0  0  0  0  0  0
   -0.5080   14.4700    1.2340 C   0  0  0  0  0  0  0  0  0  0  0  0
   -2.7890   14.5890    0.9000 C   0  0  0  0  0  0  0  0  0  0  0  0
   -4.1040   14.6740    1.3910 N   0  0  0  0  0  0  0  0  0  0  0  0
   -1.7490   14.5460    1.7490 N   0  0  0  0  0  0  0  0  0  0  0  0
   -5.2580   14.4380    0.6500 C   0  0  0  0  0  0  0  0  0  0  0  0
   -5.3740   14.4830   -0.5660 O   0  0  0  0  0  0  0  0  0  0  0  0
   -6.4320   14.0870    1.5990 C   0  0  0  0  0  0  0  0  0  0  0  0
   -7.7040   13.7720    0.9250 N   0  0  0  0  0  0  0  0  0  0  0  0
   -8.5690   14.9320    0.7520 C   0  0  0  0  0  0  0  0  0  0  0  0
  1  2  1  0
  2  3  1  0
  1  4  1  0
  2  5  2  3
  4  6  2  0
  4  7  1  0
  5  8  1  0
  6  9  1  0
  7 10  2  0
  8 11  1  0
  9 12  2  0
 10 12  1  0
 12 13  1  0
 11 14  1  0
 14 15  1  0
 13 16  1  0
 15 17  1  0
 16 18  2  0
 16 19  1  0
 18 20  1  0
 19 21  2  0
 17 22  1  0
 20 23  2  0
 21 23  1  0
 22 24  2  0
 22 25  1  0
 24 26  1  0
 25 27  2  0
 27 28  1  0
 26 29  2  0
 27 29  1  0
 28 30  1  0
 30 31  2  0
 30 32  1  0
 32 33  1  0
 33 34  1  0
M  END
