x0524_0_A-x0766_0_A
     RDKit          3D

 33 36  0  0  0  0  0  0  0  0999 V2000
   -0.6010    8.5050   -8.4450 N   0  0  0  0  0  0  0  0  0  0  0  0
   -0.8750    9.5080   -7.5690 C   0  0  0  0  0  0  0  0  0  0  0  0
   -1.6760    9.1030   -6.3290 C   0  0  0  0  0  0  0  0  0  0  0  0
    0.5270    8.4860   -9.2760 C   0  0  0  0  0  0  0  0  0  0  0  0
   -0.4550   10.7070   -7.7850 N   0  0  0  0  0  0  0  0  0  0  0  0
    1.7030    7.7820   -9.0120 C   0  0  0  0  0  0  0  0  0  0  0  0
    0.4660    9.2360  -10.4540 C   0  0  0  0  0  0  0  0  0  0  0  0
   -0.6890   11.7220   -6.8000 C   0  0  0  0  0  0  0  0  0  0  0  0
    2.7830    7.8250   -9.9060 C   0  0  0  0  0  0  0  0  0  0  0  0
    1.5400    9.2800  -11.3430 C   0  0  0  0  0  0  0  0  0  0  0  0
    0.1230   11.1750   -5.6580 C   0  0  0  0  0  0  0  0  0  0  0  0
    2.7160    8.5750  -11.0850 C   0  0  0  0  0  0  0  0  0  0  0  0
    3.7650    8.6480  -12.0100 N   0  0  0  0  0  0  0  0  0  0  0  0
   -0.6170   11.1010   -4.3640 C   0  0  0  0  0  0  0  0  0  0  0  0
    0.2310   11.0480   -3.2100 O   0  0  0  0  0  0  0  0  0  0  0  0
    4.0330    9.5160  -13.0820 C   0  0  0  0  0  0  0  0  0  0  0  0
    0.6980   12.2450   -2.8220 C   0  0  0  0  0  0  0  0  0  0  0  0
    3.2510   10.6710  -13.2680 C   0  0  0  0  0  0  0  0  0  0  0  0
    5.0670    9.2750  -13.9860 C   0  0  0  0  0  0  0  0  0  0  0  0
    1.3700   12.4550   -1.8340 O   0  0  0  0  0  0  0  0  0  0  0  0
    3.5020   11.5490  -14.3230 C   0  0  0  0  0  0  0  0  0  0  0  0
    5.3210   10.1480  -15.0420 C   0  0  0  0  0  0  0  0  0  0  0  0
    0.2980   13.3540   -3.7550 C   0  0  2  0  0  0  0  0  0  0  0  0
    4.5390   11.2860  -15.2120 C   0  0  0  0  0  0  0  0  0  0  0  0
    1.3370   13.7680   -4.8110 C   0  0  0  0  0  0  0  0  0  0  0  0
   -0.0170   14.6140   -2.9440 C   0  0  1  0  0  0  0  0  0  0  0  0
    1.5070   15.2730   -4.6400 C   0  0  0  0  0  0  0  0  0  0  0  0
    0.2610   15.7440   -3.9190 C   0  0  0  0  0  0  0  0  0  0  0  0
   -1.3640   14.6620   -2.2400 C   0  0  0  0  0  0  0  0  0  0  0  0
   -2.6420   14.6990   -2.7770 C   0  0  0  0  0  0  0  0  0  0  0  0
   -1.4310   14.6780   -0.8060 C   0  0  0  0  0  0  0  0  0  0  0  0
   -2.7160   14.7300   -0.3190 C   0  0  0  0  0  0  0  0  0  0  0  0
   -3.8650   14.7580   -1.5780 S   0  0  0  0  0  0  0  0  0  0  0  0
  1  2  1  0
  2  3  1  0
  1  4  1  0
  2  5  2  3
  4  6  2  0
  4  7  1  0
  5  8  1  0
  6  9  1  0
  7 10  2  0
  8 11  1  0
  9 12  2  0
 10 12  1  0
 12 13  1  0
 11 14  1  0
 14 15  1  0
 13 16  1  0
 15 17  1  0
 16 18  2  0
 16 19  1  0
 17 20  2  0
 18 21  1  0
 19 22  2  0
 23 17  1  1
 21 24  2  0
 22 24  1  0
 23 25  1  0
 23 26  1  0
 25 27  1  0
 26 28  1  0
 27 28  1  0
 26 29  1  6
 29 30  2  0
 29 31  1  0
 31 32  2  0
 30 33  1  0
 32 33  1  0
M  END
