x0524_0_A_α-5MQX_0_A_δ
     RDKit          3D

 32 35  0  0  0  0  0  0  0  0999 V2000
   -0.4100    8.5490   -8.1400 N   0  0  0  0  0  0  0  0  0  0  0  0
   -0.8280    9.6000   -7.3470 C   0  0  0  0  0  0  0  0  0  0  0  0
   -2.1730    9.2870   -6.7140 C   0  0  0  0  0  0  0  0  0  0  0  0
    0.6340    8.5510   -9.0810 C   0  0  0  0  0  0  0  0  0  0  0  0
   -0.2360   10.6510   -7.1510 O   0  0  0  0  0  0  0  0  0  0  0  0
    1.7460    7.7250   -9.0030 C   0  0  0  0  0  0  0  0  0  0  0  0
    0.5310    9.4390  -10.1540 C   0  0  0  0  0  0  0  0  0  0  0  0
   -2.0260    8.7680   -5.2870 C   0  0  0  0  0  0  0  0  0  0  0  0
    2.7440    7.7840   -9.9820 C   0  0  0  0  0  0  0  0  0  0  0  0
    1.5280    9.4950  -11.1310 C   0  0  0  0  0  0  0  0  0  0  0  0
   -2.6540    9.7370   -4.2860 C   0  0  0  0  0  0  0  0  0  0  0  0
    2.6500    8.6680  -11.0630 C   0  0  0  0  0  0  0  0  0  0  0  0
    3.6750    8.6840  -12.0180 N   0  0  0  0  0  0  0  0  0  0  0  0
   -1.6210   10.4460   -3.4070 C   0  0  0  0  0  0  0  0  0  0  0  0
   -1.5190   11.9580   -3.5820 C   0  0  0  0  0  0  0  0  0  0  0  0
    3.9540    9.5610  -13.0750 C   0  0  0  0  0  0  0  0  0  0  0  0
   -1.0030   12.6490   -2.3200 C   0  0  0  0  0  0  0  0  0  0  0  0
    3.2210   10.7280  -13.3190 C   0  0  0  0  0  0  0  0  0  0  0  0
    5.0210    9.2610  -13.9330 C   0  0  0  0  0  0  0  0  0  0  0  0
    3.5370   11.5680  -14.3800 C   0  0  0  0  0  0  0  0  0  0  0  0
    5.3400   10.1010  -14.9980 C   0  0  0  0  0  0  0  0  0  0  0  0
   -1.9870   13.5590   -1.7310 N   0  0  0  0  0  0  0  0  0  0  0  0
    4.5990   11.2580  -15.2240 C   0  0  0  0  0  0  0  0  0  0  0  0
   -1.7280   13.7620   -0.3460 C   0  0  2  0  0  0  0  0  0  0  0  0
   -3.3620   13.0190   -1.6620 C   0  0  0  0  0  0  0  0  0  0  0  0
   -2.9960   14.4680    0.0520 C   0  0  1  0  0  0  0  0  0  0  0  0
   -4.0120   13.5440   -0.4460 N   0  0  0  0  0  0  0  0  0  0  0  0
   -0.4910   14.4050   -0.0310 N   0  0  0  0  0  0  0  0  0  0  0  0
   -0.4400   14.4570    1.3990 C   0  0  0  0  0  0  0  0  0  0  0  0
   -2.8840   14.6520    1.5440 C   0  0  2  0  0  0  0  0  0  0  0  0
   -3.8810   15.5480    2.1070 N   0  0  0  0  0  0  0  0  0  0  0  0
   -1.6010   15.2210    1.7790 N   0  0  0  0  0  0  0  0  0  0  0  0
  1  2  1  0
  2  3  1  0
  1  4  1  0
  2  5  2  0
  4  6  2  0
  4  7  1  0
  3  8  1  0
  6  9  1  0
  7 10  2  0
  8 11  1  0
  9 12  2  0
 10 12  1  0
 12 13  1  0
 11 14  1  0
 14 15  1  0
 13 16  1  0
 15 17  1  0
 16 18  2  0
 16 19  1  0
 18 20  1  0
 19 21  2  0
 17 22  1  0
 20 23  2  0
 21 23  1  0
 22 24  1  0
 22 25  1  0
 24 26  1  0
 25 27  1  0
 26 27  1  1
 24 28  1  6
 28 29  1  0
 26 30  1  0
 30 31  1  6
 29 32  1  0
 30 32  1  0
M  END
