x0524_0_A_α-x0849_0_A_α
     RDKit          3D

 33 36  0  0  0  0  0  0  0  0999 V2000
   -0.2280    8.6250   -7.8440 N   0  0  0  0  0  0  0  0  0  0  0  0
   -0.8800    9.6380   -7.1630 C   0  0  0  0  0  0  0  0  0  0  0  0
   -2.2350    9.2240   -6.6080 C   0  0  0  0  0  0  0  0  0  0  0  0
    0.6790    8.6900   -8.9240 C   0  0  0  0  0  0  0  0  0  0  0  0
   -0.4200   10.8360   -6.9800 N   0  0  0  0  0  0  0  0  0  0  0  0
    1.7820    7.8250   -8.9080 C   0  0  0  0  0  0  0  0  0  0  0  0
    0.5620    9.5530  -10.0100 C   0  0  0  0  0  0  0  0  0  0  0  0
   -1.1680   11.8640   -6.2540 C   0  0  0  0  0  0  0  0  0  0  0  0
    2.7320    7.8290   -9.9360 C   0  0  0  0  0  0  0  0  0  0  0  0
    1.5100    9.5570  -11.0430 C   0  0  0  0  0  0  0  0  0  0  0  0
   -0.2600   12.9140   -5.5820 C   0  0  0  0  0  0  0  0  0  0  0  0
    2.6070    8.7020  -11.0240 C   0  0  0  0  0  0  0  0  0  0  0  0
    3.5800    8.6770  -12.0330 N   0  0  0  0  0  0  0  0  0  0  0  0
   -0.9930   14.1950   -5.1250 C   0  0  0  0  0  0  0  0  0  0  0  0
   -1.5320   14.2340   -3.6760 C   0  0  0  0  0  0  0  0  0  0  0  0
    3.8500    9.5550  -13.0940 C   0  0  0  0  0  0  0  0  0  0  0  0
   -1.8810   15.6410   -3.1460 C   0  0  0  0  0  0  0  0  0  0  0  0
    3.1730   10.7640  -13.2780 C   0  0  0  0  0  0  0  0  0  0  0  0
    4.8410    9.2120  -14.0170 C   0  0  0  0  0  0  0  0  0  0  0  0
   -3.1690   15.6510   -2.5190 O   0  0  0  0  0  0  0  0  0  0  0  0
    3.4780   11.6030  -14.3470 C   0  0  0  0  0  0  0  0  0  0  0  0
    5.1520   10.0510  -15.0890 C   0  0  0  0  0  0  0  0  0  0  0  0
    4.4680   11.2480  -15.2540 C   0  0  0  0  0  0  0  0  0  0  0  0
   -3.3300   15.4650   -1.1480 C   0  0  0  0  0  0  0  0  0  0  0  0
   -2.2030   15.1320   -0.3450 C   0  0  0  0  0  0  0  0  0  0  0  0
   -4.5650   15.5870   -0.5180 C   0  0  0  0  0  0  0  0  0  0  0  0
   -2.4000   14.9410    1.0370 C   0  0  0  0  0  0  0  0  0  0  0  0
   -4.6270   15.3780    0.8400 C   0  0  0  0  0  0  0  0  0  0  0  0
   -0.8900   14.9730   -0.8300 C   0  0  0  0  0  0  0  0  0  0  0  0
   -3.5820   15.0640    1.6040 N   0  0  0  0  0  0  0  0  0  0  0  0
   -1.4130   14.6240    1.8500 N   0  0  0  0  0  0  0  0  0  0  0  0
    0.1370   14.6450    0.0340 C   0  0  0  0  0  0  0  0  0  0  0  0
   -0.1870   14.4820    1.3610 C   0  0  0  0  0  0  0  0  0  0  0  0
  1  2  1  0
  2  3  1  0
  1  4  1  0
  2  5  2  3
  4  6  2  0
  4  7  1  0
  5  8  1  0
  6  9  1  0
  7 10  2  0
  8 11  1  0
  9 12  2  0
 10 12  1  0
 12 13  1  0
 11 14  1  0
 14 15  1  0
 13 16  1  0
 15 17  1  0
 16 18  2  0
 16 19  1  0
 17 20  1  0
 18 21  1  0
 19 22  2  0
 21 23  2  0
 22 23  1  0
 20 24  1  0
 24 25  1  0
 24 26  2  0
 25 27  2  0
 26 28  1  0
 25 29  1  0
 27 30  1  0
 28 30  2  0
 27 31  1  0
 29 32  2  0
 31 33  2  0
 32 33  1  0
M  END
