x0524_0_A-x0631_0_A
     RDKit          3D

 23 25  0  0  0  0  0  0  0  0999 V2000
   -0.4260    9.4140   -9.5260 N   0  0  0  0  0  0  0  0  0  0  0  0
   -1.0710    9.3070   -8.1960 C   0  0  2  0  0  0  0  0  0  0  0  0
   -1.8060    7.9810   -7.9900 C   0  0  0  0  0  0  0  0  0  0  0  0
   -0.1210    8.2650  -10.4200 C   0  0  1  0  0  0  0  0  0  0  0  0
   -2.0590   10.3020   -8.1240 O   0  0  0  0  0  0  0  0  0  0  0  0
   -1.3670    7.5370  -10.8620 C   0  0  0  0  0  0  0  0  0  0  0  0
    0.5690    8.5090  -11.8610 C   0  0  1  0  0  0  0  0  0  0  0  0
   -0.2000    9.6040   -7.0620 N   0  0  0  0  0  0  0  0  0  0  0  0
    2.0560    8.7020  -11.9390 N   0  0  0  0  0  0  0  0  0  0  0  0
   -0.0060    7.4290  -12.7930 C   0  0  0  0  0  0  0  0  0  0  0  0
    0.1570   10.9900   -7.0940 N   0  0  0  0  0  0  0  0  0  0  0  0
   -1.3060    7.0890  -12.1260 C   0  0  0  0  0  0  0  0  0  0  0  0
    2.2900    9.1770  -10.6220 C   0  0  0  0  0  0  0  0  0  0  0  0
    2.8320    9.4230  -12.8930 C   0  0  0  0  0  0  0  0  0  0  0  0
    0.4520   11.3370   -8.4460 N   0  0  0  0  0  0  0  0  0  0  0  0
    1.6730   10.4540  -10.2380 N   0  0  0  0  0  0  0  0  0  0  0  0
    2.5520   10.7760  -13.1950 C   0  0  0  0  0  0  0  0  0  0  0  0
    3.9320    8.8950  -13.6050 C   0  0  0  0  0  0  0  0  0  0  0  0
    1.6620   10.6860   -8.8360 C   0  0  2  0  0  0  0  0  0  0  0  0
    3.2890   11.5320  -14.1190 C   0  0  0  0  0  0  0  0  0  0  0  0
    4.6820    9.6460  -14.5360 C   0  0  0  0  0  0  0  0  0  0  0  0
    1.5780    9.3580   -8.3130 N   0  0  0  0  0  0  0  0  0  0  0  0
    4.3570   10.9680  -14.7920 C   0  0  0  0  0  0  0  0  0  0  0  0
  1  2  1  0
  2  3  1  1
  1  4  1  0
  2  5  1  0
  4  6  1  6
  4  7  1  0
  2  8  1  0
  7  9  1  0
  7 10  1  6
  8 11  1  0
  6 12  2  0
 10 12  1  0
  9 13  1  0
  9 14  1  0
 11 15  1  0
 13 16  1  0
 14 17  2  0
 14 18  1  0
 15 19  1  0
 16 19  1  0
 17 20  1  0
 18 21  2  0
 19 22  1  1
 20 23  2  0
 21 23  1  0
M  END
