x0524_0_A_α-x0685_1_A_α
     RDKit          3D

 30 32  0  0  0  0  0  0  0  0999 V2000
   -0.6550    7.7340   -8.3290 N   0  0  0  0  0  0  0  0  0  0  0  0
   -1.1250    8.5570   -7.2250 C   0  0  2  0  0  0  0  0  0  0  0  0
   -1.4530    7.8430   -5.9280 C   0  0  0  0  0  0  0  0  0  0  0  0
    0.4400    7.9550   -9.1860 C   0  0  0  0  0  0  0  0  0  0  0  0
   -2.3430    9.0610   -7.6970 O   0  0  0  0  0  0  0  0  0  0  0  0
    1.7180    7.4520   -8.9740 C   0  0  0  0  0  0  0  0  0  0  0  0
    0.2770    8.7340  -10.3560 C   0  0  0  0  0  0  0  0  0  0  0  0
   -0.2760    9.7710   -7.1180 C   0  0  0  0  0  0  0  0  0  0  0  0
    2.7760    7.6980   -9.8640 C   0  0  0  0  0  0  0  0  0  0  0  0
    1.3380    8.9840  -11.2560 C   0  0  0  0  0  0  0  0  0  0  0  0
   -0.4710   10.9030   -6.1450 C   0  0  2  0  0  0  0  0  0  0  0  0
    0.9040    9.9400   -8.0100 C   0  0  0  0  0  0  0  0  0  0  0  0
   -1.4140   10.6130   -5.0370 N   0  0  0  0  0  0  0  0  0  0  0  0
    2.6120    8.4600  -11.0190 C   0  0  0  0  0  0  0  0  0  0  0  0
    0.2660   10.7480   -9.1160 C   0  0  0  0  0  0  0  0  0  0  0  0
   -1.0480   11.9130   -7.1380 C   0  0  0  0  0  0  0  0  0  0  0  0
    3.6860    8.6810  -11.9070 N   0  0  0  0  0  0  0  0  0  0  0  0
   -1.6430   11.8170   -4.2060 C   0  0  0  0  0  0  0  0  0  0  0  0
   -1.0590   11.3710   -8.6110 C   0  0  0  0  0  0  0  0  0  0  0  0
   -0.3710   12.6330   -3.9600 C   0  0  0  0  0  0  0  0  0  0  0  0
    3.9360    9.5460  -12.9910 C   0  0  0  0  0  0  0  0  0  0  0  0
    0.6150   11.9980   -2.6140 S   0  0  0  0  0  0  0  0  0  0  0  0
    3.1460   10.6890  -13.1950 C   0  0  0  0  0  0  0  0  0  0  0  0
    4.9780    9.3020  -13.8910 C   0  0  0  0  0  0  0  0  0  0  0  0
    2.1420   12.3330   -2.9570 O   0  0  0  0  0  0  0  0  0  0  0  0
    0.3590   10.4190   -2.5050 O   0  0  0  0  0  0  0  0  0  0  0  0
    0.1300   12.7290   -1.2740 O   0  0  0  0  0  0  0  0  0  0  0  0
    3.3960   11.5530  -14.2650 C   0  0  0  0  0  0  0  0  0  0  0  0
    5.2300   10.1610  -14.9610 C   0  0  0  0  0  0  0  0  0  0  0  0
    4.4400   11.2890  -15.1480 C   0  0  0  0  0  0  0  0  0  0  0  0
  1  2  1  0
  2  3  1  1
  1  4  1  0
  2  5  1  0
  4  6  2  0
  4  7  1  0
  2  8  1  0
  6  9  1  0
  7 10  2  0
  8 11  1  0
  8 12  1  0
 11 13  1  1
  9 14  2  0
 10 14  1  0
 12 15  1  0
 11 16  1  0
 14 17  1  0
 13 18  1  0
 15 19  1  0
 16 19  1  0
 18 20  1  0
 17 21  1  0
 20 22  1  0
 21 23  2  0
 21 24  1  0
 22 25  1  0
 22 26  1  0
 22 27  1  0
 23 28  1  0
 24 29  2  0
 28 30  2  0
 29 30  1  0
M  END
