x0524_0_A_α-x0905_0_A_α
     RDKit          3D

 29 31  0  0  0  0  0  0  0  0999 V2000
   -0.4400    8.6640   -8.0780 N   0  0  0  0  0  0  0  0  0  0  0  0
   -0.7270    9.7080   -7.2090 C   0  0  0  0  0  0  0  0  0  0  0  0
   -1.8510    9.3660   -6.2390 C   0  0  0  0  0  0  0  0  0  0  0  0
    0.6060    8.6230   -9.0250 C   0  0  0  0  0  0  0  0  0  0  0  0
   -0.1700   10.7930   -7.1880 O   0  0  0  0  0  0  0  0  0  0  0  0
    1.7000    7.7710   -8.9500 C   0  0  0  0  0  0  0  0  0  0  0  0
    0.5250    9.5040  -10.1060 C   0  0  0  0  0  0  0  0  0  0  0  0
   -1.6520   10.0180   -4.8600 C   0  0  0  0  0  0  0  0  0  0  0  0
    2.6970    7.8000   -9.9370 C   0  0  0  0  0  0  0  0  0  0  0  0
    1.5200    9.5310  -11.0890 C   0  0  0  0  0  0  0  0  0  0  0  0
   -1.6120   11.5540   -4.9390 C   0  0  0  0  0  0  0  0  0  0  0  0
    2.6240    8.6810  -11.0210 C   0  0  0  0  0  0  0  0  0  0  0  0
    3.6490    8.6730  -11.9840 N   0  0  0  0  0  0  0  0  0  0  0  0
   -2.6060   12.2790   -4.0120 C   0  0  0  0  0  0  0  0  0  0  0  0
   -2.0280   13.1430   -2.8650 C   0  0  0  0  0  0  0  0  0  0  0  0
    3.9660    9.5270  -13.0570 C   0  0  0  0  0  0  0  0  0  0  0  0
   -2.5930   14.5760   -2.7150 C   0  0  0  0  0  0  0  0  0  0  0  0
    3.2110   10.6920  -13.2750 C   0  0  0  0  0  0  0  0  0  0  0  0
    5.0230    9.2600  -13.9300 C   0  0  0  0  0  0  0  0  0  0  0  0
    3.5060   11.5550  -14.3300 C   0  0  0  0  0  0  0  0  0  0  0  0
    5.3210   10.1210  -14.9850 C   0  0  0  0  0  0  0  0  0  0  0  0
   -3.5210   14.8100   -1.5400 C   0  0  0  0  0  0  0  0  0  0  0  0
    4.5650   11.2700  -15.1860 C   0  0  0  0  0  0  0  0  0  0  0  0
   -3.0440   14.9000   -0.2210 C   0  0  0  0  0  0  0  0  0  0  0  0
   -4.8990   14.9390   -1.7450 C   0  0  0  0  0  0  0  0  0  0  0  0
   -3.9490   15.1030    0.8120 C   0  0  0  0  0  0  0  0  0  0  0  0
   -5.7010   15.1360   -0.6430 C   0  0  0  0  0  0  0  0  0  0  0  0
   -7.0450   15.2590   -0.7830 O   0  0  0  0  0  0  0  0  0  0  0  0
   -5.2800   15.2210    0.6240 N   0  0  0  0  0  0  0  0  0  0  0  0
  1  2  1  0
  2  3  1  0
  1  4  1  0
  2  5  2  0
  4  6  2  0
  4  7  1  0
  3  8  1  0
  6  9  1  0
  7 10  2  0
  8 11  1  0
  9 12  2  0
 10 12  1  0
 12 13  1  0
 11 14  1  0
 14 15  1  0
 13 16  1  0
 15 17  1  0
 16 18  2  0
 16 19  1  0
 18 20  1  0
 19 21  2  0
 17 22  1  0
 20 23  2  0
 21 23  1  0
 22 24  2  0
 22 25  1  0
 24 26  1  0
 25 27  2  0
 27 28  1  0
 26 29  2  0
 27 29  1  0
M  END
