x0524_0_A_α-x0173_0_B_α
     RDKit          3D

 30 32  0  0  0  0  0  0  0  0999 V2000
   -0.2990    8.5440   -8.0920 N   0  0  0  0  0  0  0  0  0  0  0  0
   -0.7860    9.5810   -7.3190 C   0  0  0  0  0  0  0  0  0  0  0  0
   -2.1080    9.2410   -6.6780 C   0  0  0  0  0  0  0  0  0  0  0  0
    0.6580    8.6310   -9.1240 C   0  0  0  0  0  0  0  0  0  0  0  0
   -0.2600   10.6710   -7.1320 O   0  0  0  0  0  0  0  0  0  0  0  0
    1.7900    7.8200   -9.0340 C   0  0  0  0  0  0  0  0  0  0  0  0
    0.5330    9.4780  -10.2210 C   0  0  0  0  0  0  0  0  0  0  0  0
    2.7780    7.8550  -10.0270 C   0  0  0  0  0  0  0  0  0  0  0  0
    1.5200    9.5120  -11.2130 C   0  0  0  0  0  0  0  0  0  0  0  0
    2.6570    8.7050  -11.1360 C   0  0  0  0  0  0  0  0  0  0  0  0
    3.6820    8.7010  -12.1150 N   0  0  0  0  0  0  0  0  0  0  0  0
    3.9860    9.6160  -13.1540 C   0  0  0  0  0  0  0  0  0  0  0  0
    3.2450   10.7850  -13.3770 C   0  0  0  0  0  0  0  0  0  0  0  0
    5.0680    9.3630  -14.0000 C   0  0  0  0  0  0  0  0  0  0  0  0
    3.5810   11.6700  -14.4090 C   0  0  0  0  0  0  0  0  0  0  0  0
    5.4070   10.2480  -15.0360 C   0  0  0  0  0  0  0  0  0  0  0  0
    4.6700   11.4230  -15.2580 C   0  0  0  0  0  0  0  0  0  0  0  0
    5.0390   12.4050  -16.3820 C   0  0  0  0  0  0  0  0  0  0  0  0
    6.4390   13.0480  -16.2140 C   0  0  0  0  0  0  0  0  0  0  0  0
    6.9760   14.1270  -17.1710 C   0  0  0  0  0  0  0  0  0  0  0  0
    8.3210   14.7540  -16.6870 C   0  0  0  0  0  0  0  0  0  0  0  0
    9.6160   13.9670  -17.0410 C   0  0  0  0  0  0  0  0  0  0  0  0
   10.8960   14.4450  -16.4600 N   0  0  0  0  0  0  0  0  0  0  0  0
   12.0110   13.5500  -16.7770 C   0  0  0  0  0  0  0  0  0  0  0  0
   11.2470   15.8400  -16.7910 C   0  0  0  0  0  0  0  0  0  0  0  0
   13.2910   13.9560  -16.0450 C   0  0  0  0  0  0  0  0  0  0  0  0
   12.6990   16.3510  -16.5360 C   0  0  0  0  0  0  0  0  0  0  0  0
   13.7230   15.3300  -16.2730 N   0  0  0  0  0  0  0  0  0  0  0  0
   15.0240   15.6430  -15.9310 C   0  0  0  0  0  0  0  0  0  0  0  0
   15.7080   16.5530  -16.3600 O   0  0  0  0  0  0  0  0  0  0  0  0
  1  2  1  0
  2  3  1  0
  1  4  1  0
  2  5  2  0
  4  6  2  0
  4  7  1  0
  6  8  1  0
  7  9  2  0
  8 10  2  0
  9 10  1  0
 10 11  1  0
 11 12  1  0
 12 13  2  0
 12 14  1  0
 13 15  1  0
 14 16  2  0
 15 17  2  0
 16 17  1  0
 17 18  1  0
 18 19  1  0
 19 20  1  0
 20 21  1  0
 21 22  1  0
 22 23  1  0
 23 24  1  0
 23 25  1  0
 24 26  1  0
 25 27  1  0
 26 28  1  0
 27 28  1  0
 28 29  1  0
 29 30  2  0
M  END
