x0548_0_B-x0548_1_B
     RDKit          3D

 15 16  0  0  0  0  0  0  0  0999 V2000
   -6.1140   34.6830    8.7930 C   0  0  0  0  0  0  0  0  0  0  0  0
   -7.5040   34.5730    8.5290 O   0  0  0  0  0  0  0  0  0  0  0  0
   -7.9890   35.3930    7.5480 C   0  0  0  0  0  0  0  0  0  0  0  0
   -7.5560   36.6420    7.2810 C   0  0  0  0  0  0  0  0  0  0  0  0
   -9.0710   34.7930    6.7560 C   0  0  0  0  0  0  0  0  0  0  0  0
   -8.2000   37.3620    6.2250 C   0  0  0  0  0  0  0  0  0  0  0  0
   -9.8640   35.5500    5.9880 C   0  0  0  0  0  0  0  0  0  0  0  0
   -9.6290   37.0230    5.9770 C   0  0  2  0  0  0  0  0  0  0  0  0
   -7.7550   38.3170    5.4220 C   0  0  0  0  0  0  0  0  0  0  0  0
   -6.4790   39.0580    5.2400 C   0  0  0  0  0  0  0  0  0  0  0  0
  -10.0240   37.8300    4.8150 N   0  0  0  0  0  0  0  0  0  0  0  0
   -8.9520   38.5360    4.5950 C   0  0  0  0  0  0  0  0  0  0  0  0
   -6.1220   40.0070    6.3190 N   0  0  0  0  0  0  0  0  0  0  0  0
   -6.9630   39.8550    7.5060 C   0  0  0  0  0  0  0  0  0  0  0  0
   -4.7010   39.9400    6.6750 C   0  0  0  0  0  0  0  0  0  0  0  0
  1  2  1  0
  2  3  1  0
  3  4  2  0
  3  5  1  0
  4  6  1  0
  5  7  2  0
  6  8  1  0
  8  7  1  6
  6  9  2  0
  9 10  1  0
  8 11  1  0
  9 12  1  0
 11 12  2  0
 10 13  1  0
 13 14  1  0
 13 15  1  0
M  END
