x0548_0_B-x0600_0_A
     RDKit          3D

 32 34  0  0  0  0  0  0  0  0999 V2000
   -6.1690   34.5250    8.8240 C   0  0  0  0  0  0  0  0  0  0  0  0
   -7.6200   34.6470    8.6670 N   0  0  0  0  0  0  0  0  0  0  0  0
   -8.3570   34.4840    9.9560 C   0  0  0  0  0  0  0  0  0  0  0  0
   -8.1530   35.4990    7.6800 C   0  0  0  0  0  0  0  0  0  0  0  0
   -8.0490   33.1690   10.6970 C   0  0  0  0  0  0  0  0  0  0  0  0
   -7.4190   36.3020    6.8540 C   0  0  0  0  0  0  0  0  0  0  0  0
   -9.6320   35.5480    7.5370 C   0  0  0  0  0  0  0  0  0  0  0  0
   -9.2690   32.2360   10.8040 C   0  0  0  0  0  0  0  0  0  0  0  0
   -8.0940   37.1630    5.9130 C   0  0  0  0  0  0  0  0  0  0  0  0
  -10.2490   36.1040    6.4790 C   0  0  0  0  0  0  0  0  0  0  0  0
   -8.9490   30.8240   10.6150 N   0  0  0  0  0  0  0  0  0  0  0  0
   -9.4100   36.6680    5.4060 C   0  0  1  0  0  0  0  0  0  0  0  0
   -7.7700   38.3460    5.3840 C   0  0  0  0  0  0  0  0  0  0  0  0
   -6.6490   39.3160    5.4410 C   0  0  0  0  0  0  0  0  0  0  0  0
   -9.8580   29.9160   10.6090 C   0  0  0  0  0  0  0  0  0  0  0  0
   -9.9480   37.7630    4.5820 N   0  0  0  0  0  0  0  0  0  0  0  0
   -8.9750   38.6260    4.5900 C   0  0  0  0  0  0  0  0  0  0  0  0
   -6.0230   39.5340    6.7530 N   0  0  0  0  0  0  0  0  0  0  0  0
  -11.1320   30.3150   10.7990 O   0  0  0  0  0  0  0  0  0  0  0  0
   -9.7110   28.4180   10.4080 C   0  0  0  0  0  0  0  0  0  0  0  0
   -6.9670   40.2270    7.6370 C   0  0  0  0  0  0  0  0  0  0  0  0
   -4.7940   40.3280    6.6240 C   0  0  0  0  0  0  0  0  0  0  0  0
  -10.8820   27.7280   10.8310 O   0  0  0  0  0  0  0  0  0  0  0  0
  -10.9350   27.4100   12.1490 C   0  0  0  0  0  0  0  0  0  0  0  0
  -11.9810   26.5710   12.5300 C   0  0  0  0  0  0  0  0  0  0  0  0
  -10.0310   27.8660   13.0970 C   0  0  0  0  0  0  0  0  0  0  0  0
  -12.1240   26.1870   13.8690 C   0  0  0  0  0  0  0  0  0  0  0  0
  -10.1660   27.4860   14.4330 C   0  0  0  0  0  0  0  0  0  0  0  0
  -11.2120   26.6460   14.8290 C   0  0  0  0  0  0  0  0  0  0  0  0
  -11.3070   26.2790   16.2730 C   0  0  0  0  0  0  0  0  0  0  0  0
  -12.5350   25.5530   16.7590 C   0  0  0  0  0  0  0  0  0  0  0  0
  -10.3970   26.5720   17.0440 O   0  0  0  0  0  0  0  0  0  0  0  0
  1  2  1  0
  2  3  1  0
  2  4  1  0
  3  5  1  0
  4  6  2  0
  4  7  1  0
  5  8  1  0
  6  9  1  0
  7 10  2  0
  8 11  1  0
  9 12  1  0
 12 10  1  1
  9 13  2  0
 13 14  1  0
 11 15  2  3
 12 16  1  0
 13 17  1  0
 16 17  2  0
 14 18  1  0
 15 19  1  0
 15 20  1  0
 18 21  1  0
 18 22  1  0
 20 23  1  0
 23 24  1  0
 24 25  2  0
 24 26  1  0
 25 27  1  0
 26 28  2  0
 27 29  2  0
 28 29  1  0
 29 30  1  0
 30 31  1  0
 30 32  2  0
M  END
