x0548_1_B-x0548_0_B
     RDKit          3D

 15 16  0  0  0  0  0  0  0  0999 V2000
   -6.1270   34.8160    8.7050 C   0  0  0  0  0  0  0  0  0  0  0  0
   -7.5370   34.7620    8.5330 O   0  0  0  0  0  0  0  0  0  0  0  0
   -8.0490   35.5420    7.5360 C   0  0  0  0  0  0  0  0  0  0  0  0
   -7.6250   36.7800    7.2370 C   0  0  0  0  0  0  0  0  0  0  0  0
   -9.1490   34.9280    6.7620 C   0  0  0  0  0  0  0  0  0  0  0  0
   -8.2780   37.4740    6.1770 C   0  0  0  0  0  0  0  0  0  0  0  0
   -9.9420   35.6700    5.9900 C   0  0  0  0  0  0  0  0  0  0  0  0
   -9.7060   37.1340    5.9460 C   0  0  2  0  0  0  0  0  0  0  0  0
   -7.8320   38.4040    5.3640 C   0  0  0  0  0  0  0  0  0  0  0  0
   -6.5490   39.1220    5.1880 C   0  0  0  0  0  0  0  0  0  0  0  0
  -10.1070   37.9160    4.7700 N   0  0  0  0  0  0  0  0  0  0  0  0
   -9.0330   38.6150    4.5340 C   0  0  0  0  0  0  0  0  0  0  0  0
   -6.2870   40.2030    6.1620 N   0  0  0  0  0  0  0  0  0  0  0  0
   -7.1990   40.1480    7.3040 C   0  0  0  0  0  0  0  0  0  0  0  0
   -4.8940   40.2210    6.6150 C   0  0  0  0  0  0  0  0  0  0  0  0
  1  2  1  0
  2  3  1  0
  3  4  2  0
  3  5  1  0
  4  6  1  0
  5  7  2  0
  6  8  1  0
  8  7  1  6
  6  9  2  0
  9 10  1  0
  8 11  1  0
  9 12  1  0
 11 12  2  0
 10 13  1  0
 13 14  1  0
 13 15  1  0
M  END
