x0548_0_B_α-x0496_0_A_α
     RDKit          3D

 35 37  0  0  0  0  0  0  0  0999 V2000
   -6.0810   34.7670    8.6100 C   0  0  0  0  0  0  0  0  0  0  0  0
   -7.4960   34.6270    8.5170 O   0  0  0  0  0  0  0  0  0  0  0  0
   -8.0580   35.3760    7.5120 C   0  0  0  0  0  0  0  0  0  0  0  0
   -7.6320   36.6320    7.2630 C   0  0  0  0  0  0  0  0  0  0  0  0
   -9.1400   34.7710    6.7240 C   0  0  0  0  0  0  0  0  0  0  0  0
   -8.2910   37.3610    6.2140 C   0  0  0  0  0  0  0  0  0  0  0  0
   -9.9410   35.5350    5.9720 C   0  0  0  0  0  0  0  0  0  0  0  0
   -9.7170   37.0060    5.9720 C   0  0  2  0  0  0  0  0  0  0  0  0
   -7.8790   38.3390    5.4120 C   0  0  0  0  0  0  0  0  0  0  0  0
   -6.5990   39.0640    5.3000 C   0  0  0  0  0  0  0  0  0  0  0  0
  -10.1350   37.8170    4.8220 N   0  0  0  0  0  0  0  0  0  0  0  0
   -9.0790   38.5420    4.5960 C   0  0  0  0  0  0  0  0  0  0  0  0
   -5.9500   39.4670    6.5510 N   0  0  0  0  0  0  0  0  0  0  0  0
   -6.7930   40.2740    7.4310 C   0  0  0  0  0  0  0  0  0  0  0  0
   -4.5970   40.0000    6.3410 C   0  0  0  0  0  0  0  0  0  0  0  0
   -3.6620   38.9060    5.7990 C   0  0  0  0  0  0  0  0  0  0  0  0
   -3.6570   38.7370    4.2710 C   0  0  0  0  0  0  0  0  0  0  0  0
   -2.2880   38.4670    3.6480 C   0  0  0  0  0  0  0  0  0  0  0  0
   -1.2020   39.5190    3.9030 C   0  0  0  0  0  0  0  0  0  0  0  0
   -0.1830   39.6540    2.7770 C   0  0  0  0  0  0  0  0  0  0  0  0
    0.6270   38.3680    2.6260 C   0  0  0  0  0  0  0  0  0  0  0  0
    2.0470   38.6120    2.1550 C   0  0  0  0  0  0  0  0  0  0  0  0
    2.7910   37.3850    1.9870 N   0  0  0  0  0  0  0  0  0  0  0  0
    3.9850   37.3290    1.2950 C   0  0  0  0  0  0  0  0  0  0  0  0
    4.7100   36.3560    1.3230 O   0  0  0  0  0  0  0  0  0  0  0  0
    4.3120   38.5450    0.4770 C   0  0  0  0  0  0  0  0  0  0  0  0
    5.0320   38.4960   -0.6980 C   0  0  0  0  0  0  0  0  0  0  0  0
    3.8280   39.7030    1.0040 N   0  0  0  0  0  0  0  0  0  0  0  0
    5.6930   37.1110   -1.4540 Cl  0  0  0  0  0  0  0  0  0  0  0  0
    5.2250   39.7160   -1.3030 C   0  0  0  0  0  0  0  0  0  0  0  0
    4.0720   40.8310    0.3320 C   0  0  0  0  0  0  0  0  0  0  0  0
    3.5250   42.1040    0.9240 C   0  0  0  0  0  0  0  0  0  0  0  0
    4.7630   40.8900   -0.8200 N   0  0  0  0  0  0  0  0  0  0  0  0
    2.0480   42.2630    0.5730 C   0  0  0  0  0  0  0  0  0  0  0  0
    4.3460   43.3120    0.4770 C   0  0  0  0  0  0  0  0  0  0  0  0
  1  2  1  0
  2  3  1  0
  3  4  2  0
  3  5  1  0
  4  6  1  0
  5  7  2  0
  6  8  1  0
  8  7  1  6
  6  9  2  0
  9 10  1  0
  8 11  1  0
  9 12  1  0
 11 12  2  0
 10 13  1  0
 13 14  1  0
 13 15  1  0
 15 16  1  0
 16 17  1  0
 17 18  1  0
 18 19  1  0
 19 20  1  0
 20 21  1  0
 21 22  1  0
 22 23  1  0
 23 24  1  0
 24 25  2  0
 24 26  1  0
 26 27  2  0
 26 28  1  0
 27 29  1  0
 27 30  1  0
 28 31  2  0
 31 32  1  0
 30 33  2  0
 31 33  1  0
 32 34  1  0
 32 35  1  0
M  END
