x0548_1_B-x0600_0_A
     RDKit          3D

 32 34  0  0  0  0  0  0  0  0999 V2000
   -6.0550   34.7970    8.7750 C   0  0  0  0  0  0  0  0  0  0  0  0
   -7.4110   34.5320    8.3030 N   0  0  0  0  0  0  0  0  0  0  0  0
   -7.6200   33.0830    8.0630 C   0  0  0  0  0  0  0  0  0  0  0  0
   -8.0480   35.4560    7.4590 C   0  0  0  0  0  0  0  0  0  0  0  0
   -8.0070   32.2860    9.3370 C   0  0  0  0  0  0  0  0  0  0  0  0
   -7.3890   36.3510    6.6640 C   0  0  0  0  0  0  0  0  0  0  0  0
   -9.5300   35.4780    7.4270 C   0  0  0  0  0  0  0  0  0  0  0  0
   -9.4220   32.5320    9.8980 C   0  0  0  0  0  0  0  0  0  0  0  0
   -8.1310   37.2620    5.8240 C   0  0  0  0  0  0  0  0  0  0  0  0
  -10.2270   36.0980    6.4550 C   0  0  0  0  0  0  0  0  0  0  0  0
   -9.8780   31.5630   10.9240 N   0  0  0  0  0  0  0  0  0  0  0  0
   -9.4680   36.7590    5.3740 C   0  0  1  0  0  0  0  0  0  0  0  0
   -7.8640   38.4760    5.3270 C   0  0  0  0  0  0  0  0  0  0  0  0
   -6.7720   39.4880    5.3210 C   0  0  0  0  0  0  0  0  0  0  0  0
  -11.0360   30.9660   10.8760 C   0  0  0  0  0  0  0  0  0  0  0  0
  -10.0820   37.8790    4.6420 N   0  0  0  0  0  0  0  0  0  0  0  0
   -9.1280   38.7600    4.6260 C   0  0  0  0  0  0  0  0  0  0  0  0
   -6.4440   40.2350    6.5430 N   0  0  0  0  0  0  0  0  0  0  0  0
  -11.8130   31.2450    9.8450 O   0  0  0  0  0  0  0  0  0  0  0  0
  -11.7420   29.9960   11.8380 C   0  0  0  0  0  0  0  0  0  0  0  0
   -7.2760   39.8230    7.6730 C   0  0  0  0  0  0  0  0  0  0  0  0
   -5.0130   40.1560    6.8600 C   0  0  0  0  0  0  0  0  0  0  0  0
  -11.6590   28.5690   11.6170 O   0  0  0  0  0  0  0  0  0  0  0  0
  -11.5500   27.8810   12.8020 C   0  0  0  0  0  0  0  0  0  0  0  0
  -12.4630   26.8680   13.0490 C   0  0  0  0  0  0  0  0  0  0  0  0
  -10.5640   28.1800   13.7470 C   0  0  0  0  0  0  0  0  0  0  0  0
  -12.3970   26.1630   14.2480 C   0  0  0  0  0  0  0  0  0  0  0  0
  -10.4930   27.4910   14.9250 C   0  0  0  0  0  0  0  0  0  0  0  0
  -11.4090   26.4890   15.1890 C   0  0  0  0  0  0  0  0  0  0  0  0
  -11.2780   25.8190   16.5000 C   0  0  0  0  0  0  0  0  0  0  0  0
  -12.4400   25.0100   17.0040 C   0  0  0  0  0  0  0  0  0  0  0  0
  -10.2480   25.9590   17.1520 O   0  0  0  0  0  0  0  0  0  0  0  0
  1  2  1  0
  2  3  1  0
  2  4  1  0
  3  5  1  0
  4  6  2  0
  4  7  1  0
  5  8  1  0
  6  9  1  0
  7 10  2  0
  8 11  1  0
  9 12  1  0
 12 10  1  1
  9 13  2  0
 13 14  1  0
 11 15  2  3
 12 16  1  0
 13 17  1  0
 16 17  2  0
 14 18  1  0
 15 19  1  0
 15 20  1  0
 18 21  1  0
 18 22  1  0
 20 23  1  0
 23 24  1  0
 24 25  2  0
 24 26  1  0
 25 27  1  0
 26 28  2  0
 27 29  2  0
 28 29  1  0
 29 30  1  0
 30 31  1  0
 30 32  2  0
M  END
