x0548_0_B-x0469_0_B
     RDKit          3D

 18 19  0  0  0  0  0  0  0  0999 V2000
   -6.2290   34.7950    8.7190 C   0  0  0  0  0  0  0  0  0  0  0  0
   -7.6010   34.7350    8.3310 O   0  0  0  0  0  0  0  0  0  0  0  0
   -8.0350   35.6940    7.4520 C   0  0  0  0  0  0  0  0  0  0  0  0
   -7.3350   36.8170    7.1870 C   0  0  0  0  0  0  0  0  0  0  0  0
   -9.3650   35.4580    6.7900 C   0  0  0  0  0  0  0  0  0  0  0  0
   -7.9070   37.7640    6.2900 C   0  0  0  0  0  0  0  0  0  0  0  0
   -9.9920   36.5140    6.2210 C   0  0  0  0  0  0  0  0  0  0  0  0
   -9.9640   34.0920    6.7760 C   0  0  0  0  0  0  0  0  0  0  0  0
  -11.1960   36.5630    5.5980 O   0  0  0  0  0  0  0  0  0  0  0  0
   -9.3720   37.8240    6.2500 C   0  0  2  0  0  0  0  0  0  0  0  0
   -7.3740   38.6650    5.4970 C   0  0  0  0  0  0  0  0  0  0  0  0
   -6.0030   39.0850    5.2460 C   0  0  0  0  0  0  0  0  0  0  0  0
  -11.4960   37.9150    5.1880 C   0  0  0  0  0  0  0  0  0  0  0  0
   -9.7100   38.7850    5.1910 N   0  0  0  0  0  0  0  0  0  0  0  0
   -8.5580   39.2300    4.8560 C   0  0  0  0  0  0  0  0  0  0  0  0
   -5.5820   40.0790    6.2390 N   0  0  0  0  0  0  0  0  0  0  0  0
   -6.5370   40.2150    7.3430 C   0  0  0  0  0  0  0  0  0  0  0  0
   -4.2260   39.8870    6.7250 C   0  0  0  0  0  0  0  0  0  0  0  0
  1  2  1  0
  2  3  1  0
  3  4  2  0
  3  5  1  0
  4  6  1  0
  5  7  2  0
  5  8  1  0
  7  9  1  0
  6 10  1  0
  7 10  1  0
  6 11  2  0
 11 12  1  0
  9 13  1  0
 10 14  1  6
 11 15  1  0
 14 15  2  0
 12 16  1  0
 16 17  1  0
 16 18  1  0
M  END
