x0574_0_A-x0711_0_A
     RDKit          3D

 19 20  0  0  0  0  0  0  0  0999 V2000
    0.2370   14.0310    2.3230 N   0  0  0  0  0  0  0  0  0  0  0  0
   -0.7630   14.2570    1.5360 C   0  0  0  0  0  0  0  0  0  0  0  0
   -1.9350   14.3190    2.0140 N   0  0  0  0  0  0  0  0  0  0  0  0
   -0.5940   14.4800   -0.1350 S   0  0  0  0  0  0  0  0  0  0  0  0
   -2.8270   14.5280    1.0400 C   0  0  0  0  0  0  0  0  0  0  0  0
   -2.3020   14.6490   -0.2340 C   0  0  0  0  0  0  0  0  0  0  0  0
   -4.1790   14.6140    1.2670 C   0  0  0  0  0  0  0  0  0  0  0  0
   -3.1170   14.8660   -1.3340 C   0  0  0  0  0  0  0  0  0  0  0  0
   -2.5180   14.9860   -2.6550 N   0  0  0  0  0  0  0  0  0  0  0  0
   -5.0500   14.8200    0.2280 C   0  0  0  0  0  0  0  0  0  0  0  0
   -4.5160   14.9530   -1.0790 C   0  0  0  0  0  0  0  0  0  0  0  0
   -6.4260   14.8750    0.5530 N   0  0  0  0  0  0  0  0  0  0  0  0
   -1.0770   14.1830   -3.1390 S   0  0  0  0  0  0  0  0  0  0  0  0
   -6.8490   14.5410    1.9210 C   0  0  0  0  0  0  0  0  0  0  0  0
   -1.6730   13.0260   -4.3570 C   0  0  0  0  0  0  0  0  0  0  0  0
   -0.2760   15.1570   -3.8590 O   0  0  0  0  0  0  0  0  0  0  0  0
   -0.4910   13.3970   -2.0740 O   0  0  0  0  0  0  0  0  0  0  0  0
   -7.3970   14.9490   -0.4070 C   0  0  0  0  0  0  0  0  0  0  0  0
   -8.5170   14.4700   -0.3030 O   0  0  0  0  0  0  0  0  0  0  0  0
  1  2  1  0
  2  3  2  0
  2  4  1  0
  3  5  1  0
  4  6  1  0
  5  6  2  0
  5  7  1  0
  6  8  1  0
  8  9  1  0
  7 10  2  0
  8 11  2  0
 10 11  1  0
 10 12  1  0
 13  9  1  0
 12 14  1  0
 13 15  1  0
 13 16  2  0
 13 17  2  0
 12 18  1  0
 18 19  2  0
M  END
