x0574_0_A-x0628_0_A
     RDKit          3D

 26 28  0  0  0  0  0  0  0  0999 V2000
   -0.3120   14.2150    2.0910 N   0  0  0  0  0  0  0  0  0  0  0  0
   -0.4350   14.3270    0.6860 C   0  0  1  0  0  0  0  0  0  0  0  0
   -1.3200   13.2930    0.2540 N   0  0  0  0  0  0  0  0  0  0  0  0
   -1.2070   15.8700    0.2030 S   0  0  0  0  0  0  0  0  0  0  0  0
   -0.8810   12.9200   -1.1150 C   0  0  0  0  0  0  0  0  0  0  0  0
   -2.7070   13.8140    0.1270 C   0  0  2  0  0  0  0  0  0  0  0  0
   -2.4540   15.0040   -0.7690 C   0  0  1  0  0  0  0  0  0  0  0  0
    0.3070   13.7390   -1.6640 C   0  0  0  0  0  0  0  0  0  0  0  0
   -3.5130   14.2320    1.3850 C   0  0  0  0  0  0  0  0  0  0  0  0
   -3.6920   15.7380   -1.0980 C   0  0  0  0  0  0  0  0  0  0  0  0
    1.3670   12.8460   -2.0060 O   0  0  0  0  0  0  0  0  0  0  0  0
   -4.7590   15.1150    1.0770 C   0  0  1  0  0  0  0  0  0  0  0  0
   -4.7290   15.7850   -0.2720 C   0  0  0  0  0  0  0  0  0  0  0  0
   -5.9780   14.3590    1.0670 O   0  0  0  0  0  0  0  0  0  0  0  0
    1.1080   12.1300   -3.1170 C   0  0  0  0  0  0  0  0  0  0  0  0
   -6.7610   14.5500    2.2400 C   0  0  0  0  0  0  0  0  0  0  0  0
    0.5430   11.0450   -3.1200 O   0  0  0  0  0  0  0  0  0  0  0  0
    1.6160   12.8830   -4.3220 C   0  0  0  0  0  0  0  0  0  0  0  0
    0.4940   13.1630   -5.3110 C   0  0  0  0  0  0  0  0  0  0  0  0
   -0.3000   11.9830   -5.5910 N   0  0  0  0  0  0  0  0  0  0  0  0
    0.1330   11.0970   -6.5040 N   0  0  0  0  0  0  0  0  0  0  0  0
   -1.4960   11.5930   -5.0480 C   0  0  0  0  0  0  0  0  0  0  0  0
   -2.2390   12.3480   -4.0170 C   0  0  0  0  0  0  0  0  0  0  0  0
   -1.8570   10.4480   -5.5980 N   0  0  0  0  0  0  0  0  0  0  0  0
   -0.8390   10.1800   -6.4750 C   0  0  0  0  0  0  0  0  0  0  0  0
   -0.8150    8.9740   -7.3220 C   0  0  0  0  0  0  0  0  0  0  0  0
  2  1  1  1
  2  3  1  0
  2  4  1  0
  3  5  1  0
  3  6  1  0
  4  7  1  0
  6  7  1  0
  5  8  1  0
  6  9  1  1
  7 10  1  1
  8 11  1  0
  9 12  1  0
 10 13  2  0
 12 13  1  0
 12 14  1  6
 11 15  1  0
 14 16  1  0
 15 17  2  0
 15 18  1  0
 18 19  1  0
 19 20  1  0
 20 21  1  0
 20 22  1  0
 22 23  1  0
 22 24  2  0
 21 25  2  0
 24 25  1  0
 25 26  1  0
M  END
