x0574_0_A_α-x0711_0_A_α
     RDKit          3D

 19 20  0  0  0  0  0  0  0  0999 V2000
    0.2340   14.0330    2.3320 N   0  0  0  0  0  0  0  0  0  0  0  0
   -0.7670   14.2600    1.5450 C   0  0  0  0  0  0  0  0  0  0  0  0
   -1.9390   14.3150    2.0210 N   0  0  0  0  0  0  0  0  0  0  0  0
   -0.5950   14.4910   -0.1270 S   0  0  0  0  0  0  0  0  0  0  0  0
   -2.8300   14.5250    1.0480 C   0  0  0  0  0  0  0  0  0  0  0  0
   -2.3030   14.6530   -0.2290 C   0  0  0  0  0  0  0  0  0  0  0  0
   -4.1850   14.6090    1.2690 C   0  0  0  0  0  0  0  0  0  0  0  0
   -3.1190   14.8720   -1.3270 C   0  0  0  0  0  0  0  0  0  0  0  0
   -2.5140   14.9990   -2.6450 N   0  0  0  0  0  0  0  0  0  0  0  0
   -5.0540   14.8190    0.2270 C   0  0  0  0  0  0  0  0  0  0  0  0
   -4.5180   14.9560   -1.0780 C   0  0  0  0  0  0  0  0  0  0  0  0
   -6.4320   14.8730    0.5540 N   0  0  0  0  0  0  0  0  0  0  0  0
   -1.0760   14.1950   -3.1220 S   0  0  0  0  0  0  0  0  0  0  0  0
   -6.8490   14.5490    1.9230 C   0  0  0  0  0  0  0  0  0  0  0  0
   -1.6750   13.0430   -4.3350 C   0  0  0  0  0  0  0  0  0  0  0  0
   -0.2650   15.1590   -3.8420 O   0  0  0  0  0  0  0  0  0  0  0  0
   -0.4960   13.4060   -2.0590 O   0  0  0  0  0  0  0  0  0  0  0  0
   -7.4070   14.9930   -0.4010 C   0  0  0  0  0  0  0  0  0  0  0  0
   -8.4260   14.3300   -0.4430 O   0  0  0  0  0  0  0  0  0  0  0  0
  1  2  1  0
  2  3  2  0
  2  4  1  0
  3  5  1  0
  4  6  1  0
  5  6  2  0
  5  7  1  0
  6  8  1  0
  8  9  1  0
  7 10  2  0
  8 11  2  0
 10 11  1  0
 10 12  1  0
 13  9  1  0
 12 14  1  0
 13 15  1  0
 13 16  2  0
 13 17  2  0
 12 18  1  0
 18 19  2  0
M  END
