x0574_0_A_α-x0962_0_A_α
     RDKit          3D

 13 14  0  0  0  0  0  0  0  0999 V2000
    0.1620   14.0490    2.1470 N   0  0  0  0  0  0  0  0  0  0  0  0
   -0.9040   14.2980    1.4180 C   0  0  0  0  0  0  0  0  0  0  0  0
   -2.0440   14.3270    1.9870 N   0  0  0  0  0  0  0  0  0  0  0  0
   -0.8840   14.5830   -0.2620 S   0  0  0  0  0  0  0  0  0  0  0  0
   -3.0250   14.5640    1.0850 C   0  0  0  0  0  0  0  0  0  0  0  0
   -2.6140   14.7380   -0.2220 C   0  0  0  0  0  0  0  0  0  0  0  0
   -4.3690   14.6290    1.4130 C   0  0  0  0  0  0  0  0  0  0  0  0
   -3.5360   14.9890   -1.2460 C   0  0  0  0  0  0  0  0  0  0  0  0
   -5.3130   14.8620    0.4450 C   0  0  0  0  0  0  0  0  0  0  0  0
   -4.9010   15.0460   -0.8810 C   0  0  0  0  0  0  0  0  0  0  0  0
   -3.1190   15.1680   -2.5780 N   0  0  0  0  0  0  0  0  0  0  0  0
   -6.6510   14.9190    0.7180 O   0  0  0  0  0  0  0  0  0  0  0  0
   -7.0050   14.5750    2.0700 C   0  0  0  0  0  0  0  0  0  0  0  0
  1  2  1  0
  2  3  2  0
  2  4  1  0
  3  5  1  0
  4  6  1  0
  5  6  2  0
  5  7  1  0
  6  8  1  0
  7  9  2  0
  8 10  2  0
  9 10  1  0
  8 11  1  0
  9 12  1  0
 12 13  1  0
M  END
