x0574_0_A-x0849_0_A
     RDKit          3D

 13 14  0  0  0  0  0  0  0  0999 V2000
    0.1520   14.0860    2.0890 N   0  0  0  0  0  0  0  0  0  0  0  0
   -0.9260   14.3160    1.3700 C   0  0  0  0  0  0  0  0  0  0  0  0
   -2.0560   14.3540    1.9590 N   0  0  0  0  0  0  0  0  0  0  0  0
   -0.9470   14.5680   -0.3220 S   0  0  0  0  0  0  0  0  0  0  0  0
   -3.0580   14.5640    1.0730 C   0  0  0  0  0  0  0  0  0  0  0  0
   -2.6800   14.7100   -0.2550 C   0  0  0  0  0  0  0  0  0  0  0  0
   -4.3990   14.6270    1.4360 C   0  0  0  0  0  0  0  0  0  0  0  0
   -3.6650   14.9250   -1.2370 C   0  0  0  0  0  0  0  0  0  0  0  0
   -3.2630   15.1290   -3.0700 Br  0  0  0  0  0  0  0  0  0  0  0  0
   -5.3720   14.8310    0.4950 C   0  0  0  0  0  0  0  0  0  0  0  0
   -5.0140   14.9830   -0.8390 C   0  0  0  0  0  0  0  0  0  0  0  0
   -6.7070   14.8850    0.7940 O   0  0  0  0  0  0  0  0  0  0  0  0
   -7.0380   14.5750    2.1530 C   0  0  0  0  0  0  0  0  0  0  0  0
  1  2  1  0
  2  3  2  0
  2  4  1  0
  3  5  1  0
  4  6  1  0
  5  6  2  0
  5  7  1  0
  6  8  1  0
  8  9  1  0
  7 10  2  0
  8 11  2  0
 10 11  1  0
 10 12  1  0
 12 13  1  0
M  END
