x0574_0_A-x0592_0_A
     RDKit          3D

 21 23  0  0  0  0  0  0  0  0999 V2000
    0.3240   14.0170    2.4780 N   0  0  0  0  0  0  0  0  0  0  0  0
   -0.6600   14.0570    1.6830 C   0  0  0  0  0  0  0  0  0  0  0  0
   -1.8080   14.3130    2.1620 N   0  0  0  0  0  0  0  0  0  0  0  0
   -0.4820   13.7720    0.0310 S   0  0  0  0  0  0  0  0  0  0  0  0
   -2.6990   14.2940    1.2050 C   0  0  0  0  0  0  0  0  0  0  0  0
   -2.1570   14.0010   -0.0590 C   0  0  0  0  0  0  0  0  0  0  0  0
   -4.0550   14.5430    1.3950 C   0  0  0  0  0  0  0  0  0  0  0  0
   -2.9080   13.9240   -1.1800 C   0  0  0  0  0  0  0  0  0  0  0  0
   -4.7560   14.4840    0.2460 C   0  0  0  0  0  0  0  0  0  0  0  0
   -4.2130   14.1740   -0.9890 C   0  0  0  0  0  0  0  0  0  0  0  0
   -6.0290   14.7300   -0.1010 C   0  0  0  0  0  0  0  0  0  0  0  0
   -5.8520   15.4720   -1.1380 C   0  0  0  0  0  0  0  0  0  0  0  0
   -7.3240   14.5470    0.1540 N   0  0  0  0  0  0  0  0  0  0  0  0
   -4.4630   15.7500   -1.4720 C   0  0  0  0  0  0  0  0  0  0  0  0
   -7.1150   15.7670   -1.5930 C   0  0  0  0  0  0  0  0  0  0  0  0
   -8.0500   15.1960   -0.7970 N   0  0  0  0  0  0  0  0  0  0  0  0
   -7.9510   13.8240    1.2110 C   0  0  0  0  0  0  0  0  0  0  0  0
   -3.7110   15.9720   -0.3480 N   0  0  0  0  0  0  0  0  0  0  0  0
   -3.9320   15.7490   -2.5740 O   0  0  0  0  0  0  0  0  0  0  0  0
   -7.6790   14.5390    2.5250 C   0  0  0  0  0  0  0  0  0  0  0  0
   -8.1510   13.7310    3.6980 C   0  0  0  0  0  0  0  0  0  0  0  0
  1  2  1  0
  2  3  2  0
  2  4  1  0
  3  5  1  0
  4  6  1  0
  5  6  2  0
  5  7  1  0
  6  8  1  0
  7  9  2  0
  8 10  2  0
  9 10  1  0
  9 11  1  0
 11 12  2  0
 11 13  1  0
 12 14  1  0
 12 15  1  0
 13 16  1  0
 15 16  2  0
 13 17  1  0
 14 18  1  0
 14 19  2  0
 17 20  1  0
 20 21  1  0
M  END
