x0574_0_A_α-x0844_0_A_α
     RDKit          3D

 13 14  0  0  0  0  0  0  0  0999 V2000
    0.1590   14.0910    2.1200 N   0  0  0  0  0  0  0  0  0  0  0  0
   -0.9160   14.3160    1.3970 C   0  0  0  0  0  0  0  0  0  0  0  0
   -2.0430   14.3810    1.9840 N   0  0  0  0  0  0  0  0  0  0  0  0
   -0.9290   14.5230   -0.3020 S   0  0  0  0  0  0  0  0  0  0  0  0
   -3.0440   14.5750    1.0880 C   0  0  0  0  0  0  0  0  0  0  0  0
   -2.6580   14.6780   -0.2400 C   0  0  0  0  0  0  0  0  0  0  0  0
   -4.3840   14.6620    1.4420 C   0  0  0  0  0  0  0  0  0  0  0  0
   -3.6280   14.8670   -1.2340 C   0  0  0  0  0  0  0  0  0  0  0  0
   -3.1740   15.0010   -3.0570 Br  0  0  0  0  0  0  0  0  0  0  0  0
   -5.3470   14.8420    0.4850 C   0  0  0  0  0  0  0  0  0  0  0  0
   -4.9760   14.9470   -0.8530 C   0  0  0  0  0  0  0  0  0  0  0  0
   -6.6790   14.9210    0.7730 O   0  0  0  0  0  0  0  0  0  0  0  0
   -7.0130   14.5860    2.1250 C   0  0  0  0  0  0  0  0  0  0  0  0
  1  2  1  0
  2  3  2  0
  2  4  1  0
  3  5  1  0
  4  6  1  0
  5  6  2  0
  5  7  1  0
  6  8  1  0
  8  9  1  0
  7 10  2  0
  8 11  2  0
 10 11  1  0
 10 12  1  0
 12 13  1  0
M  END
