x0574_0_A-x0282_0_A
     RDKit          3D

 13 14  0  0  0  0  0  0  0  0999 V2000
    0.1370   14.0600    2.1070 N   0  0  0  0  0  0  0  0  0  0  0  0
   -0.9440   14.3070    1.3940 C   0  0  0  0  0  0  0  0  0  0  0  0
   -2.0870   14.2850    1.9590 N   0  0  0  0  0  0  0  0  0  0  0  0
   -0.9430   14.6630   -0.2810 S   0  0  0  0  0  0  0  0  0  0  0  0
   -3.0820   14.5350    1.0690 C   0  0  0  0  0  0  0  0  0  0  0  0
   -2.6720   14.7760   -0.2290 C   0  0  0  0  0  0  0  0  0  0  0  0
   -4.4380   14.5580    1.3810 C   0  0  0  0  0  0  0  0  0  0  0  0
   -3.6130   15.0510   -1.2340 C   0  0  0  0  0  0  0  0  0  0  0  0
   -5.4190   14.8170    0.4280 C   0  0  0  0  0  0  0  0  0  0  0  0
   -4.9780   15.0660   -0.8810 C   0  0  0  0  0  0  0  0  0  0  0  0
   -6.7770   14.8100    0.8450 N   0  0  0  0  0  0  0  0  0  0  0  0
   -7.0510   14.5540    2.2630 C   0  0  0  0  0  0  0  0  0  0  0  0
   -7.8360   14.4090    0.0110 O   0  0  0  0  0  0  0  0  0  0  0  0
  1  2  1  0
  2  3  2  0
  2  4  1  0
  3  5  1  0
  4  6  1  0
  5  6  2  0
  5  7  1  0
  6  8  1  0
  7  9  2  0
  8 10  2  0
  9 10  1  0
  9 11  1  0
 11 12  1  0
 11 13  1  0
M  END
