x0574_0_A-x0465_0_A
     RDKit          3D

 27 29  0  0  0  0  0  0  0  0999 V2000
    0.0410   14.2650    2.0130 N   0  0  0  0  0  0  0  0  0  0  0  0
   -0.3990   14.2070    0.6570 C   0  0  1  0  0  0  0  0  0  0  0  0
   -1.6490   13.4990    0.5840 N   0  0  0  0  0  0  0  0  0  0  0  0
   -0.8040   15.8120   -0.0920 S   0  0  0  0  0  0  0  0  0  0  0  0
   -1.8140   13.2470   -0.8830 C   0  0  0  0  0  0  0  0  0  0  0  0
   -2.5990   14.5400    0.9620 C   0  0  1  0  0  0  0  0  0  0  0  0
   -2.4290   15.1210   -0.4150 C   0  0  1  0  0  0  0  0  0  0  0  0
   -0.5370   13.5070   -1.7360 C   0  0  0  0  0  0  0  0  0  0  0  0
   -4.0540   14.3250    1.4700 C   0  0  0  0  0  0  0  0  0  0  0  0
   -3.5560   15.8370   -1.0060 C   0  0  0  0  0  0  0  0  0  0  0  0
    0.1760   12.2480   -1.8850 N   0  0  0  0  0  0  0  0  0  0  0  0
   -5.1360   14.4900    0.3660 C   0  0  2  0  0  0  0  0  0  0  0  0
   -4.8070   15.5460   -0.6470 C   0  0  0  0  0  0  0  0  0  0  0  0
   -6.4270   14.8660    0.8690 O   0  0  0  0  0  0  0  0  0  0  0  0
    0.6350   11.8940   -3.0450 C   0  0  0  0  0  0  0  0  0  0  0  0
   -6.6650   14.5560    2.2330 C   0  0  0  0  0  0  0  0  0  0  0  0
    0.5310   12.7060   -4.3550 C   0  0  1  0  0  0  0  0  0  0  0  0
    1.2610   10.7270   -3.1890 O   0  0  0  0  0  0  0  0  0  0  0  0
    1.8390   13.4770   -4.5560 C   0  0  0  0  0  0  0  0  0  0  0  0
    0.4040   11.7910   -5.4660 O   0  0  0  0  0  0  0  0  0  0  0  0
   -0.7480   11.0940   -5.7390 C   0  0  0  0  0  0  0  0  0  0  0  0
   -1.0300   10.3630   -6.9020 C   0  0  0  0  0  0  0  0  0  0  0  0
   -1.7210   11.1220   -4.7360 C   0  0  0  0  0  0  0  0  0  0  0  0
   -0.1460   10.2850   -7.9090 F   0  0  0  0  0  0  0  0  0  0  0  0
   -2.2270    9.6740   -7.0590 C   0  0  0  0  0  0  0  0  0  0  0  0
   -2.9280   10.4350   -4.8900 C   0  0  0  0  0  0  0  0  0  0  0  0
   -3.1810    9.7080   -6.0480 C   0  0  0  0  0  0  0  0  0  0  0  0
  2  1  1  1
  2  3  1  0
  2  4  1  0
  3  5  1  0
  3  6  1  0
  4  7  1  0
  6  7  1  0
  5  8  1  0
  6  9  1  6
  7 10  1  1
  8 11  1  0
  9 12  1  0
 10 13  2  0
 12 13  1  0
 12 14  1  1
 11 15  2  3
 14 16  1  0
 15 17  1  0
 15 18  1  0
 17 19  1  6
 17 20  1  0
 20 21  1  0
 21 22  2  0
 21 23  1  0
 22 24  1  0
 22 25  1  0
 23 26  2  0
 25 27  2  0
 26 27  1  0
M  END
