x0574_0_A-x0900_0_A
     RDKit          3D

 12 13  0  0  0  0  0  0  0  0999 V2000
    0.1450   14.0360    2.1000 N   0  0  0  0  0  0  0  0  0  0  0  0
   -0.9270   14.2980    1.3850 C   0  0  0  0  0  0  0  0  0  0  0  0
   -2.0600   14.3020    1.9600 N   0  0  0  0  0  0  0  0  0  0  0  0
   -0.9250   14.6350   -0.2950 S   0  0  0  0  0  0  0  0  0  0  0  0
   -3.0510   14.5600    1.0730 C   0  0  0  0  0  0  0  0  0  0  0  0
   -2.6500   14.7780   -0.2340 C   0  0  0  0  0  0  0  0  0  0  0  0
   -4.3940   14.6060    1.4110 C   0  0  0  0  0  0  0  0  0  0  0  0
   -3.5990   15.0580   -1.2360 C   0  0  0  0  0  0  0  0  0  0  0  0
   -5.3470   14.8670    0.4590 C   0  0  0  0  0  0  0  0  0  0  0  0
   -4.9560   15.0970   -0.8620 C   0  0  0  0  0  0  0  0  0  0  0  0
   -6.6800   14.9090    0.7500 O   0  0  0  0  0  0  0  0  0  0  0  0
   -7.0070   14.5800    2.1030 C   0  0  0  0  0  0  0  0  0  0  0  0
  1  2  1  0
  2  3  2  0
  2  4  1  0
  3  5  1  0
  4  6  1  0
  5  6  2  0
  5  7  1  0
  6  8  1  0
  7  9  2  0
  8 10  2  0
  9 10  1  0
  9 11  1  0
 11 12  1  0
M  END
