x0574_0_A_α-x0438_0_A_α
     RDKit          3D

 20 22  0  0  0  0  0  0  0  0999 V2000
    0.1680   13.8260    1.4730 N   0  0  0  0  0  0  0  0  0  0  0  0
   -1.0330   14.1120    1.0220 C   0  0  0  0  0  0  0  0  0  0  0  0
   -2.0110   13.8990    1.7360 N   0  0  0  0  0  0  0  0  0  0  0  0
   -1.3370   14.7720   -0.5810 S   0  0  0  0  0  0  0  0  0  0  0  0
   -3.1480   14.1800    1.1050 C   0  0  0  0  0  0  0  0  0  0  0  0
   -3.0460   14.7490   -0.2190 C   0  0  0  0  0  0  0  0  0  0  0  0
   -4.2600   13.9430    1.6870 C   0  0  0  0  0  0  0  0  0  0  0  0
   -4.1330   15.1320   -0.9860 C   0  0  0  0  0  0  0  0  0  0  0  0
   -5.4740   14.3770    1.0970 C   0  0  2  0  0  0  0  0  0  0  0  0
   -5.4580   14.8370   -0.3100 C   0  0  0  0  0  0  0  0  0  0  0  0
   -5.5150   15.4830    1.8790 O   0  0  0  0  0  0  0  0  0  0  0  0
   -6.7350   14.8930   -0.6630 N   0  0  0  0  0  0  0  0  0  0  0  0
   -6.7630   13.8920    1.4380 N   0  0  0  0  0  0  0  0  0  0  0  0
   -6.3510   15.1340    2.9590 C   0  0  0  0  0  0  0  0  0  0  0  0
   -7.4410   14.3420    0.4600 C   0  0  0  0  0  0  0  0  0  0  0  0
   -8.9200   14.2160    0.5570 C   0  0  0  0  0  0  0  0  0  0  0  0
   -9.5920   15.1560    1.9460 S   0  0  0  0  0  0  0  0  0  0  0  0
   -8.5870   14.9570    3.4110 C   0  0  0  0  0  0  0  0  0  0  0  0
  -10.8500   14.5360    2.3160 O   0  0  0  0  0  0  0  0  0  0  0  0
   -9.5860   16.5560    1.6020 O   0  0  0  0  0  0  0  0  0  0  0  0
  1  2  1  0
  2  3  2  0
  2  4  1  0
  3  5  1  0
  4  6  1  0
  5  6  1  0
  5  7  2  0
  6  8  2  0
  7  9  1  0
  8 10  1  0
  9 10  1  0
  9 11  1  1
 10 12  2  0
  9 13  1  0
 11 14  1  0
 12 15  1  0
 13 15  2  0
 15 16  1  0
 17 16  1  0
 17 18  1  0
 17 19  2  0
 17 20  2  0
M  END
