x0574_0_A_α-x0592_0_A_α
     RDKit          3D

 21 23  0  0  0  0  0  0  0  0999 V2000
    0.3240   14.0170    2.4760 N   0  0  0  0  0  0  0  0  0  0  0  0
   -0.6610   14.0580    1.6820 C   0  0  0  0  0  0  0  0  0  0  0  0
   -1.8080   14.3130    2.1610 N   0  0  0  0  0  0  0  0  0  0  0  0
   -0.4820   13.7720    0.0280 S   0  0  0  0  0  0  0  0  0  0  0  0
   -2.7010   14.2940    1.2030 C   0  0  0  0  0  0  0  0  0  0  0  0
   -2.1560   14.0020   -0.0610 C   0  0  0  0  0  0  0  0  0  0  0  0
   -4.0550   14.5430    1.3960 C   0  0  0  0  0  0  0  0  0  0  0  0
   -2.9100   13.9240   -1.1820 C   0  0  0  0  0  0  0  0  0  0  0  0
   -4.7570   14.4840    0.2470 C   0  0  0  0  0  0  0  0  0  0  0  0
   -4.2160   14.1740   -0.9900 C   0  0  0  0  0  0  0  0  0  0  0  0
   -6.0300   14.7290   -0.1000 C   0  0  0  0  0  0  0  0  0  0  0  0
   -5.8520   15.4700   -1.1380 C   0  0  0  0  0  0  0  0  0  0  0  0
   -7.3270   14.5450    0.1550 N   0  0  0  0  0  0  0  0  0  0  0  0
   -4.4630   15.7490   -1.4720 C   0  0  0  0  0  0  0  0  0  0  0  0
   -7.1180   15.7650   -1.5940 C   0  0  0  0  0  0  0  0  0  0  0  0
   -8.0510   15.1940   -0.7980 N   0  0  0  0  0  0  0  0  0  0  0  0
   -7.9510   13.8220    1.2130 C   0  0  0  0  0  0  0  0  0  0  0  0
   -3.7080   15.9710   -0.3490 N   0  0  0  0  0  0  0  0  0  0  0  0
   -3.9330   15.7480   -2.5740 O   0  0  0  0  0  0  0  0  0  0  0  0
   -7.6820   14.5380    2.5250 C   0  0  0  0  0  0  0  0  0  0  0  0
   -8.1530   13.7290    3.6990 C   0  0  0  0  0  0  0  0  0  0  0  0
  1  2  1  0
  2  3  2  0
  2  4  1  0
  3  5  1  0
  4  6  1  0
  5  6  2  0
  5  7  1  0
  6  8  1  0
  7  9  2  0
  8 10  2  0
  9 10  1  0
  9 11  1  0
 11 12  2  0
 11 13  1  0
 12 14  1  0
 12 15  1  0
 13 16  1  0
 15 16  2  0
 13 17  1  0
 14 18  1  0
 14 19  2  0
 17 20  1  0
 20 21  1  0
M  END
