x0574_0_A-x0471_0_A
     RDKit          3D

 22 24  0  0  0  0  0  0  0  0999 V2000
    0.1700   14.0450    1.6690 N   0  0  0  0  0  0  0  0  0  0  0  0
   -1.0290   14.2180    1.1630 C   0  0  0  0  0  0  0  0  0  0  0  0
   -2.0010   13.9950    1.8790 N   0  0  0  0  0  0  0  0  0  0  0  0
   -1.3550   14.7560   -0.4800 S   0  0  0  0  0  0  0  0  0  0  0  0
   -3.1480   14.1950    1.2460 C   0  0  0  0  0  0  0  0  0  0  0  0
   -3.0620   14.7280   -0.0980 C   0  0  0  0  0  0  0  0  0  0  0  0
   -4.2470   13.9310    1.8520 C   0  0  0  0  0  0  0  0  0  0  0  0
   -4.1590   15.0850   -0.8600 C   0  0  0  0  0  0  0  0  0  0  0  0
   -5.4780   14.2850    1.2270 C   0  0  2  0  0  0  0  0  0  0  0  0
   -5.4780   14.8080   -0.1660 C   0  0  0  0  0  0  0  0  0  0  0  0
   -5.5770   15.4550    1.9310 O   0  0  0  0  0  0  0  0  0  0  0  0
   -6.7580   14.9290   -0.4960 N   0  0  0  0  0  0  0  0  0  0  0  0
   -6.7660   13.8360    1.5820 N   0  0  0  0  0  0  0  0  0  0  0  0
   -6.2860   15.1320    3.1250 C   0  0  0  0  0  0  0  0  0  0  0  0
   -7.4470   14.3530    0.6330 C   0  0  0  0  0  0  0  0  0  0  0  0
   -8.9490   14.2800    0.8060 C   0  0  0  0  0  0  0  0  0  0  0  0
   -9.2300   13.9890    2.2360 N   0  0  0  0  0  0  0  0  0  0  0  0
   -9.1430   14.9310    3.2700 C   0  0  0  0  0  0  0  0  0  0  0  0
   -9.3350   16.1300    3.0880 O   0  0  0  0  0  0  0  0  0  0  0  0
   -8.8060   14.4040    4.6790 C   0  0  0  0  0  0  0  0  0  0  0  0
   -9.9780   13.6330    5.2890 C   0  0  0  0  0  0  0  0  0  0  0  0
   -8.3550   15.5280    5.6160 C   0  0  0  0  0  0  0  0  0  0  0  0
  1  2  1  0
  2  3  2  0
  2  4  1  0
  3  5  1  0
  4  6  1  0
  5  6  1  0
  5  7  2  0
  6  8  2  0
  7  9  1  0
  8 10  1  0
  9 10  1  0
  9 11  1  1
 10 12  2  0
  9 13  1  0
 11 14  1  0
 12 15  1  0
 13 15  2  0
 15 16  1  0
 16 17  1  0
 17 18  1  0
 18 19  2  0
 18 20  1  0
 20 21  1  0
 20 22  1  0
M  END
