x0574_0_A_α-x0104_0_A_β
     RDKit          3D

 14 15  0  0  0  0  0  0  0  0999 V2000
    0.2070   14.0690    2.2500 N   0  0  0  0  0  0  0  0  0  0  0  0
   -0.8350   14.3010    1.4980 C   0  0  0  0  0  0  0  0  0  0  0  0
   -1.9900   14.3510    2.0380 N   0  0  0  0  0  0  0  0  0  0  0  0
   -0.7500   14.5380   -0.1850 S   0  0  0  0  0  0  0  0  0  0  0  0
   -2.9390   14.5580    1.1070 C   0  0  0  0  0  0  0  0  0  0  0  0
   -2.4670   14.6850   -0.1800 C   0  0  0  0  0  0  0  0  0  0  0  0
   -4.3040   14.6370    1.3730 C   0  0  0  0  0  0  0  0  0  0  0  0
   -3.3240   14.8910   -1.2340 C   0  0  0  0  0  0  0  0  0  0  0  0
   -5.1980   14.8330    0.3380 C   0  0  0  0  0  0  0  0  0  0  0  0
   -4.6840   14.9580   -0.9800 C   0  0  0  0  0  0  0  0  0  0  0  0
   -6.5490   14.8980    0.5710 O   0  0  0  0  0  0  0  0  0  0  0  0
   -5.5040   15.1400   -2.0340 O   0  0  0  0  0  0  0  0  0  0  0  0
   -6.9590   14.5550    1.9010 C   0  0  0  0  0  0  0  0  0  0  0  0
   -4.8490   14.8060   -3.2510 C   0  0  0  0  0  0  0  0  0  0  0  0
  1  2  1  0
  2  3  2  0
  2  4  1  0
  3  5  1  0
  4  6  1  0
  5  6  2  0
  5  7  1  0
  6  8  1  0
  7  9  2  0
  8 10  2  0
  9 10  1  0
  9 11  1  0
 10 12  1  0
 11 13  1  0
 12 14  1  0
M  END
