x0574_0_A-x0805_0_A
     RDKit          3D

 29 32  0  0  0  0  0  0  0  0999 V2000
    0.3480   15.1100    1.0340 N   0  0  0  0  0  0  0  0  0  0  0  0
   -0.7860   14.5840    0.6350 C   0  0  0  0  0  0  0  0  0  0  0  0
   -1.8880   15.0670    1.0180 N   0  0  0  0  0  0  0  0  0  0  0  0
   -0.9220   13.2500   -0.4180 S   0  0  0  0  0  0  0  0  0  0  0  0
   -2.9220   14.3500    0.4680 C   0  0  0  0  0  0  0  0  0  0  0  0
   -2.6440   13.3290   -0.3170 C   0  0  0  0  0  0  0  0  0  0  0  0
   -4.1920   14.6810    0.7090 C   0  0  0  0  0  0  0  0  0  0  0  0
   -3.7050   12.5830   -0.8660 C   0  0  0  0  0  0  0  0  0  0  0  0
   -4.0690   15.8270    1.4390 C   0  0  0  0  0  0  0  0  0  0  0  0
   -5.3100   14.0270    0.2610 C   0  0  0  0  0  0  0  0  0  0  0  0
   -5.0490   12.9420   -0.5540 C   0  0  0  0  0  0  0  0  0  0  0  0
   -6.5460   14.5160    0.6400 O   0  0  0  0  0  0  0  0  0  0  0  0
   -3.3460   16.4490    0.2920 O   0  0  0  0  0  0  0  0  0  0  0  0
   -6.8410   14.4860    2.0450 C   0  0  0  0  0  0  0  0  0  0  0  0
   -3.2390   15.6230   -0.9130 C   0  0  0  0  0  0  0  0  0  0  0  0
   -4.3460   14.9440   -1.4660 C   0  0  0  0  0  0  0  0  0  0  0  0
   -1.9840   15.4600   -1.6020 C   0  0  0  0  0  0  0  0  0  0  0  0
   -4.2210   14.1420   -2.6180 C   0  0  0  0  0  0  0  0  0  0  0  0
   -1.8510   14.6430   -2.7880 C   0  0  0  0  0  0  0  0  0  0  0  0
   -2.9960   13.9910   -3.2670 C   0  0  0  0  0  0  0  0  0  0  0  0
   -0.5370   14.4400   -3.5920 C   0  0  2  0  0  0  0  0  0  0  0  0
    0.0480   13.0210   -3.8630 C   0  0  2  0  0  0  0  0  0  0  0  0
    0.6080   15.3480   -3.1320 C   0  0  0  0  0  0  0  0  0  0  0  0
    0.3500   12.1100   -2.6830 C   0  0  0  0  0  0  0  0  0  0  0  0
    1.2620   13.0970   -4.7950 C   0  0  0  0  0  0  0  0  0  0  0  0
    1.8100   15.2880   -4.0730 C   0  0  0  0  0  0  0  0  0  0  0  0
    0.2350   10.7850   -2.8840 O   0  0  0  0  0  0  0  0  0  0  0  0
    0.7060   12.5300   -1.5880 O   0  0  0  0  0  0  0  0  0  0  0  0
    2.2750   13.9570   -4.2720 O   0  0  0  0  0  0  0  0  0  0  0  0
  1  2  1  0
  2  3  2  0
  2  4  1  0
  3  5  1  0
  4  6  1  0
  5  6  2  0
  5  7  1  0
  6  8  1  0
  7  9  1  0
  7 10  2  0
  8 11  2  0
 10 11  1  0
 10 12  1  0
  9 13  1  0
 12 14  1  0
 13 15  1  0
 15 16  2  0
 15 17  1  0
 16 18  1  0
 17 19  2  0
 18 20  2  0
 19 20  1  0
 21 19  1  1
 21 22  1  0
 21 23  1  0
 22 24  1  1
 22 25  1  0
 23 26  1  0
 24 27  1  0
 24 28  2  0
 25 29  1  0
 26 29  1  0
M  END
