x0574_0_A-x0895_1_A
     RDKit          3D

 13 14  0  0  0  0  0  0  0  0999 V2000
    0.1330   13.4460    1.6830 N   0  0  0  0  0  0  0  0  0  0  0  0
   -0.8600   14.1540    1.1960 C   0  0  0  0  0  0  0  0  0  0  0  0
   -1.8230   14.5540    1.9190 N   0  0  0  0  0  0  0  0  0  0  0  0
   -0.8560   14.5470   -0.5270 S   0  0  0  0  0  0  0  0  0  0  0  0
   -2.7280   15.2680    1.0260 C   0  0  1  0  0  0  0  0  0  0  0  0
   -2.5460   14.6970   -0.3100 C   0  0  0  0  0  0  0  0  0  0  0  0
   -4.1220   15.2310    1.5270 C   0  0  0  0  0  0  0  0  0  0  0  0
   -3.5350   14.3660   -1.1340 C   0  0  0  0  0  0  0  0  0  0  0  0
   -4.2690   15.5270    2.6710 O   0  0  0  0  0  0  0  0  0  0  0  0
   -5.2470   14.8950    0.5590 C   0  0  0  0  0  0  0  0  0  0  0  0
   -4.9050   14.5180   -0.6870 C   0  0  0  0  0  0  0  0  0  0  0  0
   -6.5940   14.9490    0.8740 O   0  0  0  0  0  0  0  0  0  0  0  0
   -6.9470   14.5940    2.2100 C   0  0  0  0  0  0  0  0  0  0  0  0
  1  2  1  0
  2  3  2  0
  2  4  1  0
  5  3  1  1
  4  6  1  0
  5  6  1  0
  5  7  1  0
  6  8  2  0
  7  9  2  0
  7 10  1  0
  8 11  1  0
 10 11  2  0
 10 12  1  0
 12 13  1  0
M  END
