x0574_0_A-x0438_0_A
     RDKit          3D

 20 22  0  0  0  0  0  0  0  0999 V2000
    0.2100   14.2790    1.2530 N   0  0  0  0  0  0  0  0  0  0  0  0
   -1.0240   14.3240    0.8470 C   0  0  0  0  0  0  0  0  0  0  0  0
   -1.9550   14.0390    1.6160 N   0  0  0  0  0  0  0  0  0  0  0  0
   -1.4170   14.7970   -0.7970 S   0  0  0  0  0  0  0  0  0  0  0  0
   -3.1260   14.2030    0.9770 C   0  0  0  0  0  0  0  0  0  0  0  0
   -3.0960   14.7440   -0.3650 C   0  0  0  0  0  0  0  0  0  0  0  0
   -4.2120   13.9150    1.5720 C   0  0  0  0  0  0  0  0  0  0  0  0
   -4.2120   15.0900   -1.1010 C   0  0  0  0  0  0  0  0  0  0  0  0
   -5.4690   14.2540    0.9880 C   0  0  2  0  0  0  0  0  0  0  0  0
   -5.5070   14.7850   -0.3860 C   0  0  0  0  0  0  0  0  0  0  0  0
   -5.5790   15.3750    1.7650 O   0  0  0  0  0  0  0  0  0  0  0  0
   -6.7960   14.8880   -0.6680 N   0  0  0  0  0  0  0  0  0  0  0  0
   -6.7480   13.7490    1.3680 N   0  0  0  0  0  0  0  0  0  0  0  0
   -6.5500   15.0820    2.7500 C   0  0  0  0  0  0  0  0  0  0  0  0
   -7.4620   14.2800    0.4470 C   0  0  0  0  0  0  0  0  0  0  0  0
   -8.9460   14.1730    0.5910 C   0  0  0  0  0  0  0  0  0  0  0  0
   -9.5950   15.1500    1.9660 S   0  0  0  0  0  0  0  0  0  0  0  0
   -8.5990   14.9700    3.4400 C   0  0  0  0  0  0  0  0  0  0  0  0
  -10.8710   14.5650    2.3410 O   0  0  0  0  0  0  0  0  0  0  0  0
   -9.5670   16.5450    1.5960 O   0  0  0  0  0  0  0  0  0  0  0  0
  1  2  1  0
  2  3  2  0
  2  4  1  0
  3  5  1  0
  4  6  1  0
  5  6  1  0
  5  7  2  0
  6  8  2  0
  7  9  1  0
  8 10  1  0
  9 10  1  0
  9 11  1  1
 10 12  2  0
  9 13  1  0
 11 14  1  0
 12 15  1  0
 13 15  2  0
 15 16  1  0
 17 16  1  0
 17 18  1  0
 17 19  2  0
 17 20  2  0
M  END
