x0574_0_A_α-x0104_0_A_α
     RDKit          3D

 19 21  0  0  0  0  0  0  0  0999 V2000
    0.0740   14.0390    1.9900 N   0  0  0  0  0  0  0  0  0  0  0  0
   -1.0770   14.2870    1.3690 C   0  0  0  0  0  0  0  0  0  0  0  0
   -2.1720   14.1630    2.0130 N   0  0  0  0  0  0  0  0  0  0  0  0
   -1.2510   14.7670   -0.2610 S   0  0  0  0  0  0  0  0  0  0  0  0
   -3.2650   14.4240    1.2350 C   0  0  0  0  0  0  0  0  0  0  0  0
   -2.9880   14.7980   -0.0600 C   0  0  0  0  0  0  0  0  0  0  0  0
   -4.5890   14.3190    1.6820 C   0  0  0  0  0  0  0  0  0  0  0  0
   -4.0520   15.1110   -0.9430 C   0  0  0  0  0  0  0  0  0  0  0  0
   -5.6610   14.5800    0.8590 C   0  0  0  0  0  0  0  0  0  0  0  0
   -5.3930   14.9960   -0.4650 C   0  0  0  0  0  0  0  0  0  0  0  0
   -6.9990   14.3660    1.4170 O   0  0  0  0  0  0  0  0  0  0  0  0
   -7.8280   15.0920    2.3620 C   0  0  0  0  0  0  0  0  0  0  0  0
   -7.6780   14.7950    3.7320 N   0  0  0  0  0  0  0  0  0  0  0  0
   -8.6720   15.8840    1.9740 O   0  0  0  0  0  0  0  0  0  0  0  0
   -8.6990   14.9300    4.7150 C   0  0  0  0  0  0  0  0  0  0  0  0
   -8.6860   15.1090    6.0960 C   0  0  0  0  0  0  0  0  0  0  0  0
  -10.3050   14.8580    4.1300 S   0  0  0  0  0  0  0  0  0  0  0  0
  -10.0120   15.1830    6.6580 C   0  0  0  0  0  0  0  0  0  0  0  0
  -10.9880   15.0590    5.6940 C   0  0  0  0  0  0  0  0  0  0  0  0
  1  2  1  0
  2  3  2  0
  2  4  1  0
  3  5  1  0
  4  6  1  0
  5  6  2  0
  5  7  1  0
  6  8  1  0
  7  9  2  0
  8 10  2  0
  9 10  1  0
  9 11  1  0
 11 12  1  0
 12 13  1  0
 12 14  2  0
 13 15  1  0
 15 16  2  0
 15 17  1  0
 16 18  1  0
 17 19  1  0
 18 19  2  0
M  END
