x0574_0_A-x0900_0_A
     RDKit          3D

 12 13  0  0  0  0  0  0  0  0999 V2000
    0.1490   14.0450    2.1020 N   0  0  0  0  0  0  0  0  0  0  0  0
   -0.9240   14.3010    1.3810 C   0  0  0  0  0  0  0  0  0  0  0  0
   -2.0570   14.3100    1.9610 N   0  0  0  0  0  0  0  0  0  0  0  0
   -0.9280   14.6240   -0.3010 S   0  0  0  0  0  0  0  0  0  0  0  0
   -3.0490   14.5610    1.0740 C   0  0  0  0  0  0  0  0  0  0  0  0
   -2.6540   14.7710   -0.2350 C   0  0  0  0  0  0  0  0  0  0  0  0
   -4.3910   14.6090    1.4210 C   0  0  0  0  0  0  0  0  0  0  0  0
   -3.6040   15.0440   -1.2350 C   0  0  0  0  0  0  0  0  0  0  0  0
   -5.3450   14.8630    0.4680 C   0  0  0  0  0  0  0  0  0  0  0  0
   -4.9590   15.0840   -0.8530 C   0  0  0  0  0  0  0  0  0  0  0  0
   -6.6810   14.9090    0.7500 O   0  0  0  0  0  0  0  0  0  0  0  0
   -7.0240   14.5740    2.0970 C   0  0  0  0  0  0  0  0  0  0  0  0
  1  2  1  0
  2  3  2  0
  2  4  1  0
  3  5  1  0
  4  6  1  0
  5  6  2  0
  5  7  1  0
  6  8  1  0
  7  9  2  0
  8 10  2  0
  9 10  1  0
  9 11  1  0
 11 12  1  0
M  END
