x0574_0_A-x0844_0_A
     RDKit          3D

 13 14  0  0  0  0  0  0  0  0999 V2000
    0.1590   14.0890    2.1220 N   0  0  0  0  0  0  0  0  0  0  0  0
   -0.9170   14.3130    1.3970 C   0  0  0  0  0  0  0  0  0  0  0  0
   -2.0460   14.3790    1.9850 N   0  0  0  0  0  0  0  0  0  0  0  0
   -0.9290   14.5190   -0.2970 S   0  0  0  0  0  0  0  0  0  0  0  0
   -3.0430   14.5720    1.0890 C   0  0  0  0  0  0  0  0  0  0  0  0
   -2.6610   14.6740   -0.2360 C   0  0  0  0  0  0  0  0  0  0  0  0
   -4.3840   14.6600    1.4400 C   0  0  0  0  0  0  0  0  0  0  0  0
   -3.6300   14.8640   -1.2320 C   0  0  0  0  0  0  0  0  0  0  0  0
   -3.1750   14.9980   -3.0550 Br  0  0  0  0  0  0  0  0  0  0  0  0
   -5.3530   14.8410    0.4820 C   0  0  0  0  0  0  0  0  0  0  0  0
   -4.9790   14.9470   -0.8520 C   0  0  0  0  0  0  0  0  0  0  0  0
   -6.6820   14.9180    0.7750 O   0  0  0  0  0  0  0  0  0  0  0  0
   -7.0200   14.5830    2.1270 C   0  0  0  0  0  0  0  0  0  0  0  0
  1  2  1  0
  2  3  2  0
  2  4  1  0
  3  5  1  0
  4  6  1  0
  5  6  2  0
  5  7  1  0
  6  8  1  0
  8  9  1  0
  7 10  2  0
  8 11  2  0
 10 11  1  0
 10 12  1  0
 12 13  1  0
M  END
