x0574_0_A_α-x0766_0_A_α
     RDKit          3D

 23 26  0  0  0  0  0  0  0  0999 V2000
    0.2710   14.2670    2.1660 N   0  0  0  0  0  0  0  0  0  0  0  0
   -0.6100   14.1350    1.0840 C   0  0  1  0  0  0  0  0  0  0  0  0
   -1.8500   13.9420    1.7390 N   0  0  0  0  0  0  0  0  0  0  0  0
   -0.7790   15.6400    0.1080 S   0  0  0  0  0  0  0  0  0  0  0  0
   -2.8490   14.6410    0.9950 C   0  0  1  0  0  0  0  0  0  0  0  0
   -2.3100   14.8440   -0.4480 C   0  0  1  0  0  0  0  0  0  0  0  0
   -4.2190   14.0260    1.0720 C   0  0  0  0  0  0  0  0  0  0  0  0
   -3.3090   15.5710   -1.3420 C   0  0  2  0  0  0  0  0  0  0  0  0
   -1.7410   13.6890   -1.2930 C   0  0  0  0  0  0  0  0  0  0  0  0
   -5.1500   15.0620    0.4730 C   0  0  1  0  0  0  0  0  0  0  0  0
   -4.8170   15.3020   -1.0170 C   0  0  0  0  0  0  0  0  0  0  0  0
   -2.9010   15.2430   -2.7910 C   0  0  0  0  0  0  0  0  0  0  0  0
   -1.9640   14.0290   -2.7780 C   0  0  1  0  0  0  0  0  0  0  0  0
   -6.5270   14.7200    0.6780 O   0  0  0  0  0  0  0  0  0  0  0  0
   -0.7020   14.1590   -3.7160 C   0  0  2  0  0  0  0  0  0  0  0  0
   -6.8350   14.5140    2.0610 C   0  0  0  0  0  0  0  0  0  0  0  0
    0.5600   13.4920   -3.1750 C   0  0  1  0  0  0  0  0  0  0  0  0
   -0.0280   15.5210   -3.9470 C   0  0  0  0  0  0  0  0  0  0  0  0
    0.3720   12.1500   -2.5330 C   0  0  0  0  0  0  0  0  0  0  0  0
    1.4910   13.6400   -4.3780 C   0  0  0  0  0  0  0  0  0  0  0  0
    1.3050   15.1410   -4.6450 C   0  0  0  0  0  0  0  0  0  0  0  0
    0.5180   11.9830   -1.3480 O   0  0  0  0  0  0  0  0  0  0  0  0
    0.0140   11.1310   -3.3450 O   0  0  0  0  0  0  0  0  0  0  0  0
  2  1  1  1
  2  3  1  0
  2  4  1  0
  3  5  1  0
  6  4  1  0
  5  6  1  0
  5  7  1  6
  6  8  1  0
  6  9  1  6
  7 10  1  0
  8 11  1  1
 10 11  1  0
  8 12  1  0
 13  9  1  1
 12 13  1  0
 10 14  1  6
 13 15  1  0
 14 16  1  0
 15 17  1  0
 15 18  1  1
 17 19  1  6
 17 20  1  0
 18 21  1  0
 20 21  1  0
 19 22  2  0
 19 23  1  0
M  END
