x0574_0_A_α-x0905_0_A_α
     RDKit          3D

 12 13  0  0  0  0  0  0  0  0999 V2000
    0.1450   14.0420    2.1080 N   0  0  0  0  0  0  0  0  0  0  0  0
   -0.9280   14.2990    1.3920 C   0  0  0  0  0  0  0  0  0  0  0  0
   -2.0620   14.3100    1.9710 N   0  0  0  0  0  0  0  0  0  0  0  0
   -0.9320   14.6210   -0.2880 S   0  0  0  0  0  0  0  0  0  0  0  0
   -3.0570   14.5630    1.0870 C   0  0  0  0  0  0  0  0  0  0  0  0
   -2.6570   14.7700   -0.2250 C   0  0  0  0  0  0  0  0  0  0  0  0
   -4.4000   14.6160    1.4250 C   0  0  0  0  0  0  0  0  0  0  0  0
   -3.6040   15.0420   -1.2280 C   0  0  0  0  0  0  0  0  0  0  0  0
   -5.3510   14.8670    0.4690 C   0  0  0  0  0  0  0  0  0  0  0  0
   -4.9590   15.0850   -0.8530 C   0  0  0  0  0  0  0  0  0  0  0  0
   -6.6870   14.9130    0.7480 O   0  0  0  0  0  0  0  0  0  0  0  0
   -7.0250   14.5740    2.0970 C   0  0  0  0  0  0  0  0  0  0  0  0
  1  2  1  0
  2  3  2  0
  2  4  1  0
  3  5  1  0
  4  6  1  0
  5  6  2  0
  5  7  1  0
  6  8  1  0
  7  9  2  0
  8 10  2  0
  9 10  1  0
  9 11  1  0
 11 12  1  0
M  END
