x0574_0_A-x0685_0_A
     RDKit          3D

 15 16  0  0  0  0  0  0  0  0999 V2000
    0.1370   14.0730    2.0750 N   0  0  0  0  0  0  0  0  0  0  0  0
   -0.9490   14.3090    1.3700 C   0  0  0  0  0  0  0  0  0  0  0  0
   -2.0770   14.3310    1.9650 N   0  0  0  0  0  0  0  0  0  0  0  0
   -0.9900   14.5900   -0.3160 S   0  0  0  0  0  0  0  0  0  0  0  0
   -3.0890   14.5530    1.0920 C   0  0  0  0  0  0  0  0  0  0  0  0
   -2.7210   14.7270   -0.2310 C   0  0  0  0  0  0  0  0  0  0  0  0
   -4.4250   14.6030    1.4660 C   0  0  0  0  0  0  0  0  0  0  0  0
   -3.7200   14.9590   -1.1920 C   0  0  0  0  0  0  0  0  0  0  0  0
   -3.3640   15.1380   -2.5540 C   0  0  0  0  0  0  0  0  0  0  0  0
   -5.4180   14.8210    0.5440 C   0  0  0  0  0  0  0  0  0  0  0  0
   -5.0670   15.0040   -0.7890 C   0  0  0  0  0  0  0  0  0  0  0  0
   -6.7540   14.8690    0.8460 O   0  0  0  0  0  0  0  0  0  0  0  0
   -3.0700   15.2670   -3.6640 N   0  0  0  0  0  0  0  0  0  0  0  0
   -7.1490   14.7310    2.2250 C   0  0  0  0  0  0  0  0  0  0  0  0
   -7.6780   13.3390    2.5330 C   0  0  0  0  0  0  0  0  0  0  0  0
  1  2  1  0
  2  3  2  0
  2  4  1  0
  3  5  1  0
  4  6  1  0
  5  6  2  0
  5  7  1  0
  6  8  1  0
  8  9  1  0
  7 10  2  0
  8 11  2  0
 10 11  1  0
 10 12  1  0
  9 13  3  0
 12 14  1  0
 14 15  1  0
M  END
