x0574_0_A_α-x0591_0_A_α
     RDKit          3D

 24 26  0  0  0  0  0  0  0  0999 V2000
    0.2320   13.9970    2.2520 N   0  0  0  0  0  0  0  0  0  0  0  0
   -0.7690   14.4200    1.5500 C   0  0  0  0  0  0  0  0  0  0  0  0
   -1.9270   14.2040    1.9810 N   0  0  0  0  0  0  0  0  0  0  0  0
   -0.6170   15.2640    0.0720 S   0  0  0  0  0  0  0  0  0  0  0  0
   -2.8320   14.6850    1.1330 C   0  0  0  0  0  0  0  0  0  0  0  0
   -2.3270   15.3200    0.0130 C   0  0  0  0  0  0  0  0  0  0  0  0
   -4.1840   14.5660    1.3280 C   0  0  0  0  0  0  0  0  0  0  0  0
   -3.1700   15.8680   -0.9320 C   0  0  0  0  0  0  0  0  0  0  0  0
   -5.0400   15.0790    0.4080 C   0  0  0  0  0  0  0  0  0  0  0  0
   -4.5370   15.7350   -0.7080 C   0  0  0  0  0  0  0  0  0  0  0  0
   -6.4180   14.9550    0.5020 N   0  0  0  0  0  0  0  0  0  0  0  0
   -6.9680   14.3890    1.7380 C   0  0  0  0  0  0  0  0  0  0  0  0
   -6.8680   14.5230   -0.7310 C   0  0  0  0  0  0  0  0  0  0  0  0
   -8.0060   14.1740   -1.0010 O   0  0  0  0  0  0  0  0  0  0  0  0
   -5.7980   14.5270   -1.7990 C   0  0  0  0  0  0  0  0  0  0  0  0
   -4.4360   14.3650   -1.4670 C   0  0  0  0  0  0  0  0  0  0  0  0
   -6.1350   14.7040   -3.1360 C   0  0  0  0  0  0  0  0  0  0  0  0
   -3.4430   14.3970   -2.4550 C   0  0  0  0  0  0  0  0  0  0  0  0
   -5.1380   14.7200   -4.1240 C   0  0  0  0  0  0  0  0  0  0  0  0
   -3.7980   14.5720   -3.7840 C   0  0  0  0  0  0  0  0  0  0  0  0
   -2.5700   14.6070   -5.0760 S   0  0  0  0  0  0  0  0  0  0  0  0
   -1.4090   15.6740   -4.4820 N   0  0  0  0  0  0  0  0  0  0  0  0
   -1.9160   13.3200   -5.1290 O   0  0  0  0  0  0  0  0  0  0  0  0
   -3.1700   15.2130   -6.2380 O   0  0  0  0  0  0  0  0  0  0  0  0
  1  2  1  0
  2  3  2  0
  2  4  1  0
  3  5  1  0
  4  6  1  0
  5  6  2  0
  5  7  1  0
  6  8  1  0
  7  9  2  0
  8 10  2  0
  9 10  1  0
  9 11  1  0
 11 12  1  0
 11 13  1  0
 13 14  2  0
 13 15  1  0
 15 16  2  0
 15 17  1  0
 16 18  1  0
 17 19  2  0
 18 20  2  0
 19 20  1  0
 20 21  1  0
 21 22  1  0
 21 23  2  0
 21 24  2  0
M  END
