x0574_0_A_α-x0852_0_B_α
     RDKit          3D

 22 24  0  0  0  0  0  0  0  0999 V2000
    0.1500   13.9980    2.0180 N   0  0  0  0  0  0  0  0  0  0  0  0
   -0.9400   14.2560    1.3350 C   0  0  0  0  0  0  0  0  0  0  0  0
   -2.0390   14.1700    1.9440 N   0  0  0  0  0  0  0  0  0  0  0  0
   -1.0280   14.7000   -0.3160 S   0  0  0  0  0  0  0  0  0  0  0  0
   -3.0720   14.4380    1.1280 C   0  0  0  0  0  0  0  0  0  0  0  0
   -2.7610   14.7710   -0.1710 C   0  0  0  0  0  0  0  0  0  0  0  0
   -4.3830   14.3830    1.5490 C   0  0  0  0  0  0  0  0  0  0  0  0
   -3.7870   15.0830   -1.0880 C   0  0  0  0  0  0  0  0  0  0  0  0
   -5.4090   14.6600    0.7090 C   0  0  0  0  0  0  0  0  0  0  0  0
   -5.1250   15.0200   -0.6180 C   0  0  0  0  0  0  0  0  0  0  0  0
   -6.7050   14.5850    1.1470 O   0  0  0  0  0  0  0  0  0  0  0  0
   -6.8990   14.2220    2.5520 C   0  0  0  0  0  0  0  0  0  0  0  0
   -7.9200   15.1260    3.1780 C   0  0  0  0  0  0  0  0  0  0  0  0
   -8.0920   15.5370    4.5380 C   0  0  0  0  0  0  0  0  0  0  0  0
   -8.7870   15.6160    2.2290 C   0  0  0  0  0  0  0  0  0  0  0  0
   -7.3740   15.1690    5.6180 O   0  0  0  0  0  0  0  0  0  0  0  0
   -9.7720   16.4890    2.5480 C   0  0  0  0  0  0  0  0  0  0  0  0
   -9.0860   16.4250    4.8640 C   0  0  0  0  0  0  0  0  0  0  0  0
   -9.3220   16.9060    6.1970 C   0  0  0  0  0  0  0  0  0  0  0  0
  -10.8340   17.0520    1.0770 Br  0  0  0  0  0  0  0  0  0  0  0  0
   -9.9000   16.8930    3.8900 C   0  0  0  0  0  0  0  0  0  0  0  0
   -9.5640   17.3420    7.2510 N   0  0  0  0  0  0  0  0  0  0  0  0
  1  2  1  0
  2  3  2  0
  2  4  1  0
  3  5  1  0
  4  6  1  0
  5  6  2  0
  5  7  1  0
  6  8  1  0
  7  9  2  0
  8 10  2  0
  9 10  1  0
  9 11  1  0
 11 12  1  0
 12 13  1  0
 13 14  2  0
 13 15  1  0
 14 16  1  0
 15 17  2  0
 14 18  1  0
 18 19  1  0
 17 20  1  0
 17 21  1  0
 18 21  2  0
 19 22  3  0
M  END
