x0574_0_A_α-x0371_0_A_α
     RDKit          3D

 19 21  0  0  0  0  0  0  0  0999 V2000
    0.1100   13.9990    1.9920 N   0  0  0  0  0  0  0  0  0  0  0  0
   -1.0020   14.2690    1.3240 C   0  0  0  0  0  0  0  0  0  0  0  0
   -2.1010   14.3130    1.9630 N   0  0  0  0  0  0  0  0  0  0  0  0
   -1.1150   14.5700   -0.3630 S   0  0  0  0  0  0  0  0  0  0  0  0
   -3.1460   14.5720    1.1340 C   0  0  0  0  0  0  0  0  0  0  0  0
   -2.8350   14.7550   -0.1960 C   0  0  0  0  0  0  0  0  0  0  0  0
   -4.4640   14.6510    1.5620 C   0  0  0  0  0  0  0  0  0  0  0  0
   -3.8580   15.0350   -1.1310 C   0  0  0  0  0  0  0  0  0  0  0  0
   -5.4980   14.9050    0.7020 C   0  0  0  0  0  0  0  0  0  0  0  0
   -5.1930   15.1040   -0.6550 C   0  0  0  0  0  0  0  0  0  0  0  0
   -6.8260   14.9680    1.1260 O   0  0  0  0  0  0  0  0  0  0  0  0
   -7.0940   14.7790    2.5460 C   0  0  0  0  0  0  0  0  0  0  0  0
   -8.3620   15.4130    3.2140 C   0  0  0  0  0  0  0  0  0  0  0  0
   -9.2810   15.8460    2.5100 O   0  0  0  0  0  0  0  0  0  0  0  0
   -8.4180   15.4840    4.6830 C   0  0  0  0  0  0  0  0  0  0  0  0
   -7.9790   14.4080    5.4040 O   0  0  0  0  0  0  0  0  0  0  0  0
   -8.8420   16.4580    5.5810 C   0  0  0  0  0  0  0  0  0  0  0  0
   -8.1130   14.6850    6.7230 C   0  0  0  0  0  0  0  0  0  0  0  0
   -8.6440   15.9370    6.8900 C   0  0  0  0  0  0  0  0  0  0  0  0
  1  2  1  0
  2  3  2  0
  2  4  1  0
  3  5  1  0
  4  6  1  0
  5  6  2  0
  5  7  1  0
  6  8  1  0
  7  9  2  0
  8 10  2  0
  9 10  1  0
  9 11  1  0
 11 12  1  0
 12 13  1  0
 13 14  2  0
 13 15  1  0
 15 16  1  0
 15 17  2  0
 16 18  1  0
 17 19  1  0
 18 19  2  0
M  END
