x0574_0_A_α-x0864_0_A_α
     RDKit          3D

 26 28  0  0  0  0  0  0  0  0999 V2000
    0.2890   14.2670    1.6000 N   0  0  0  0  0  0  0  0  0  0  0  0
   -0.9780   14.8210    1.2840 C   0  0  2  0  0  0  0  0  0  0  0  0
   -1.8440   13.7720    0.9810 N   0  0  0  0  0  0  0  0  0  0  0  0
   -1.1050   15.7650   -0.2630 S   0  0  0  0  0  0  0  0  0  0  0  0
   -1.6090   13.4660   -0.4760 C   0  0  0  0  0  0  0  0  0  0  0  0
   -2.9990   14.6300    0.9650 C   0  0  1  0  0  0  0  0  0  0  0  0
   -2.7400   14.9970   -0.4920 C   0  0  1  0  0  0  0  0  0  0  0  0
   -0.1650   13.4740   -1.0530 C   0  0  0  0  0  0  0  0  0  0  0  0
   -4.3900   14.0730    1.3050 C   0  0  0  0  0  0  0  0  0  0  0  0
   -3.8380   15.7220   -1.1240 C   0  0  0  0  0  0  0  0  0  0  0  0
    0.1150   12.1240   -1.4580 N   0  0  0  0  0  0  0  0  0  0  0  0
   -5.4660   14.3910    0.2380 C   0  0  2  0  0  0  0  0  0  0  0  0
   -5.0970   15.4420   -0.7810 C   0  0  0  0  0  0  0  0  0  0  0  0
   -6.6680   14.8640    0.8610 O   0  0  0  0  0  0  0  0  0  0  0  0
    0.3690   11.6360   -2.6110 C   0  0  0  0  0  0  0  0  0  0  0  0
   -6.8120   14.5040    2.2310 C   0  0  0  0  0  0  0  0  0  0  0  0
    0.4840   12.3850   -3.9520 C   0  0  0  0  0  0  0  0  0  0  0  0
    0.5470   10.3080   -2.7070 O   0  0  0  0  0  0  0  0  0  0  0  0
   -0.2310   11.7220   -5.0490 N   0  0  0  0  0  0  0  0  0  0  0  0
   -1.4660   11.1600   -4.7920 C   0  0  0  0  0  0  0  0  0  0  0  0
    0.4590   11.4540   -6.2370 C   0  0  0  0  0  0  0  0  0  0  0  0
    1.4490   12.0660   -6.6230 O   0  0  0  0  0  0  0  0  0  0  0  0
   -1.9670   10.2000   -5.5780 C   0  0  0  0  0  0  0  0  0  0  0  0
   -0.0570   10.3240   -7.0510 C   0  0  0  0  0  0  0  0  0  0  0  0
   -1.2150    9.7350   -6.7180 C   0  0  0  0  0  0  0  0  0  0  0  0
   -1.9220    8.3060   -7.6880 Br  0  0  0  0  0  0  0  0  0  0  0  0
  2  1  1  6
  2  3  1  0
  2  4  1  0
  3  5  1  0
  3  6  1  0
  4  7  1  0
  6  7  1  0
  5  8  1  0
  6  9  1  6
  7 10  1  1
  8 11  1  0
  9 12  1  0
 10 13  2  0
 12 13  1  0
 12 14  1  1
 11 15  2  3
 14 16  1  0
 15 17  1  0
 15 18  1  0
 17 19  1  0
 19 20  1  0
 19 21  1  0
 21 22  2  0
 20 23  2  0
 21 24  1  0
 23 25  1  0
 24 25  2  0
 25 26  1  0
M  END
