x0574_0_A-x0950_0_A
     RDKit          3D

 20 21  0  0  0  0  0  0  0  0999 V2000
    0.4550   14.6500    1.0430 N   0  0  0  0  0  0  0  0  0  0  0  0
   -0.8830   15.0520    0.9460 C   0  0  2  0  0  0  0  0  0  0  0  0
   -1.6430   13.8830    0.8470 N   0  0  0  0  0  0  0  0  0  0  0  0
   -1.2300   15.8670   -0.6190 S   0  0  0  0  0  0  0  0  0  0  0  0
   -1.2990   13.3320   -0.5310 C   0  0  0  0  0  0  0  0  0  0  0  0
   -2.9200   14.6070    0.7630 C   0  0  1  0  0  0  0  0  0  0  0  0
   -2.7870   14.9410   -0.7090 C   0  0  1  0  0  0  0  0  0  0  0  0
   -0.0180   13.7790   -1.2930 C   0  0  0  0  0  0  0  0  0  0  0  0
   -4.2650   13.9550    1.1400 C   0  0  0  0  0  0  0  0  0  0  0  0
   -3.9340   15.6530   -1.2650 C   0  0  0  0  0  0  0  0  0  0  0  0
    0.7730   12.5900   -1.5100 O   0  0  0  0  0  0  0  0  0  0  0  0
   -5.4580   14.3360    0.2110 C   0  0  2  0  0  0  0  0  0  0  0  0
   -5.1640   15.3790   -0.8370 C   0  0  0  0  0  0  0  0  0  0  0  0
   -6.5830   14.8770    0.9250 O   0  0  0  0  0  0  0  0  0  0  0  0
    0.7300   12.0040   -2.7540 C   0  0  0  0  0  0  0  0  0  0  0  0
   -6.6680   14.5090    2.2860 C   0  0  0  0  0  0  0  0  0  0  0  0
    1.3150   12.8780   -3.8860 C   0  0  1  0  0  0  0  0  0  0  0  0
    0.2820   10.8820   -2.9710 O   0  0  0  0  0  0  0  0  0  0  0  0
    2.8300   12.9430   -3.8360 C   0  0  0  0  0  0  0  0  0  0  0  0
    0.9350   12.3670   -5.1680 O   0  0  0  0  0  0  0  0  0  0  0  0
  2  1  1  6
  2  3  1  0
  2  4  1  0
  3  5  1  0
  3  6  1  0
  4  7  1  0
  6  7  1  0
  5  8  1  0
  6  9  1  6
  7 10  1  1
  8 11  1  0
  9 12  1  0
 10 13  2  0
 12 13  1  0
 12 14  1  1
 11 15  1  0
 14 16  1  0
 15 17  1  0
 15 18  2  0
 17 19  1  6
 17 20  1  0
M  END
