x0574_0_A-x0905_0_A
     RDKit          3D

 12 13  0  0  0  0  0  0  0  0999 V2000
    0.1440   14.0380    2.1110 N   0  0  0  0  0  0  0  0  0  0  0  0
   -0.9270   14.3000    1.3920 C   0  0  0  0  0  0  0  0  0  0  0  0
   -2.0640   14.3110    1.9660 N   0  0  0  0  0  0  0  0  0  0  0  0
   -0.9290   14.6290   -0.2900 S   0  0  0  0  0  0  0  0  0  0  0  0
   -3.0560   14.5650    1.0800 C   0  0  0  0  0  0  0  0  0  0  0  0
   -2.6580   14.7770   -0.2290 C   0  0  0  0  0  0  0  0  0  0  0  0
   -4.3980   14.6140    1.4190 C   0  0  0  0  0  0  0  0  0  0  0  0
   -3.6060   15.0520   -1.2310 C   0  0  0  0  0  0  0  0  0  0  0  0
   -5.3500   14.8670    0.4660 C   0  0  0  0  0  0  0  0  0  0  0  0
   -4.9610   15.0910   -0.8550 C   0  0  0  0  0  0  0  0  0  0  0  0
   -6.6850   14.9100    0.7460 O   0  0  0  0  0  0  0  0  0  0  0  0
   -7.0160   14.5780    2.0980 C   0  0  0  0  0  0  0  0  0  0  0  0
  1  2  1  0
  2  3  2  0
  2  4  1  0
  3  5  1  0
  4  6  1  0
  5  6  2  0
  5  7  1  0
  6  8  1  0
  7  9  2  0
  8 10  2  0
  9 10  1  0
  9 11  1  0
 11 12  1  0
M  END
