x0574_0_A_α-x0662_0_A_β
     RDKit          3D

 26 28  0  0  0  0  0  0  0  0999 V2000
   -0.2180   14.0890    1.9520 N   0  0  0  0  0  0  0  0  0  0  0  0
   -0.3310   13.7490    0.5710 C   0  0  1  0  0  0  0  0  0  0  0  0
   -1.5230   13.0730    0.1400 N   0  0  0  0  0  0  0  0  0  0  0  0
   -0.6180   15.1430   -0.4520 S   0  0  0  0  0  0  0  0  0  0  0  0
   -1.3240   12.6250   -1.2570 C   0  0  0  0  0  0  0  0  0  0  0  0
   -2.7830   13.7890    0.2850 C   0  0  2  0  0  0  0  0  0  0  0  0
   -2.3930   15.1630   -0.0090 C   0  0  2  0  0  0  0  0  0  0  0  0
   -1.1170   13.6600   -2.3740 C   0  0  0  0  0  0  0  0  0  0  0  0
   -3.7380   13.9340    1.4840 C   0  0  0  0  0  0  0  0  0  0  0  0
   -3.4840   15.5620   -0.9320 C   0  0  0  0  0  0  0  0  0  0  0  0
   -0.9740   12.9780   -3.7280 C   0  0  0  0  0  0  0  0  0  0  0  0
   -4.8620   14.9450    1.0330 C   0  0  1  0  0  0  0  0  0  0  0  0
   -4.7030   15.4490   -0.3960 C   0  0  0  0  0  0  0  0  0  0  0  0
   -6.1890   14.3940    1.0650 O   0  0  0  0  0  0  0  0  0  0  0  0
   -0.4390   11.5490   -3.5900 C   0  0  0  0  0  0  0  0  0  0  0  0
   -6.8410   14.5640    2.3170 C   0  0  0  0  0  0  0  0  0  0  0  0
   -0.5980   10.8720   -4.8510 N   0  0  0  0  0  0  0  0  0  0  0  0
    0.1050   11.2050   -5.8610 C   0  0  0  0  0  0  0  0  0  0  0  0
    0.9690   12.0980   -5.9530 O   0  0  0  0  0  0  0  0  0  0  0  0
   -0.0140   10.4970   -7.1670 C   0  0  0  0  0  0  0  0  0  0  0  0
    0.8140   10.8620   -8.2170 C   0  0  0  0  0  0  0  0  0  0  0  0
   -0.9470    9.4730   -7.3310 C   0  0  0  0  0  0  0  0  0  0  0  0
    0.7280   10.2220   -9.4500 C   0  0  0  0  0  0  0  0  0  0  0  0
   -1.0430    8.8210   -8.5570 C   0  0  0  0  0  0  0  0  0  0  0  0
    1.5670   10.6000  -10.5110 N   0  0  0  0  0  0  0  0  0  0  0  0
   -0.2070    9.1950   -9.6150 C   0  0  0  0  0  0  0  0  0  0  0  0
  2  1  1  1
  2  3  1  0
  2  4  1  0
  3  5  1  0
  3  6  1  0
  4  7  1  0
  6  7  1  0
  5  8  1  0
  6  9  1  1
  7 10  1  6
  8 11  1  0
  9 12  1  0
 10 13  2  0
 12 13  1  0
 12 14  1  6
 11 15  1  0
 14 16  1  0
 15 17  1  0
 17 18  2  3
 18 19  1  0
 18 20  1  0
 20 21  2  0
 20 22  1  0
 21 23  1  0
 22 24  2  0
 23 25  1  0
 23 26  2  0
 24 26  1  0
M  CHG  1  19  -1
M  END
