x0574_0_A-x0933_0_A
     RDKit          3D

 12 13  0  0  0  0  0  0  0  0999 V2000
    0.1440   14.0410    2.1070 N   0  0  0  0  0  0  0  0  0  0  0  0
   -0.9290   14.2980    1.3910 C   0  0  0  0  0  0  0  0  0  0  0  0
   -2.0640   14.3090    1.9680 N   0  0  0  0  0  0  0  0  0  0  0  0
   -0.9320   14.6210   -0.2920 S   0  0  0  0  0  0  0  0  0  0  0  0
   -3.0570   14.5620    1.0810 C   0  0  0  0  0  0  0  0  0  0  0  0
   -2.6580   14.7700   -0.2270 C   0  0  0  0  0  0  0  0  0  0  0  0
   -4.4000   14.6130    1.4220 C   0  0  0  0  0  0  0  0  0  0  0  0
   -3.6050   15.0440   -1.2320 C   0  0  0  0  0  0  0  0  0  0  0  0
   -5.3530   14.8660    0.4670 C   0  0  0  0  0  0  0  0  0  0  0  0
   -4.9610   15.0850   -0.8530 C   0  0  0  0  0  0  0  0  0  0  0  0
   -6.6870   14.9110    0.7480 O   0  0  0  0  0  0  0  0  0  0  0  0
   -7.0230   14.5740    2.0960 C   0  0  0  0  0  0  0  0  0  0  0  0
  1  2  1  0
  2  3  2  0
  2  4  1  0
  3  5  1  0
  4  6  1  0
  5  6  2  0
  5  7  1  0
  6  8  1  0
  7  9  2  0
  8 10  2  0
  9 10  1  0
  9 11  1  0
 11 12  1  0
M  END
