x0574_0_A-x0282_0_A
     RDKit          3D

 13 14  0  0  0  0  0  0  0  0999 V2000
    0.1340   14.0610    2.1050 N   0  0  0  0  0  0  0  0  0  0  0  0
   -0.9460   14.3090    1.3880 C   0  0  0  0  0  0  0  0  0  0  0  0
   -2.0880   14.2880    1.9560 N   0  0  0  0  0  0  0  0  0  0  0  0
   -0.9430   14.6600   -0.2880 S   0  0  0  0  0  0  0  0  0  0  0  0
   -3.0830   14.5380    1.0640 C   0  0  0  0  0  0  0  0  0  0  0  0
   -2.6720   14.7750   -0.2330 C   0  0  0  0  0  0  0  0  0  0  0  0
   -4.4400   14.5620    1.3790 C   0  0  0  0  0  0  0  0  0  0  0  0
   -3.6160   15.0490   -1.2380 C   0  0  0  0  0  0  0  0  0  0  0  0
   -5.4200   14.8190    0.4250 C   0  0  0  0  0  0  0  0  0  0  0  0
   -4.9820   15.0650   -0.8840 C   0  0  0  0  0  0  0  0  0  0  0  0
   -6.7810   14.8130    0.8440 N   0  0  0  0  0  0  0  0  0  0  0  0
   -7.0590   14.5550    2.2580 C   0  0  0  0  0  0  0  0  0  0  0  0
   -7.8350   14.4020    0.0110 O   0  0  0  0  0  0  0  0  0  0  0  0
  1  2  1  0
  2  3  2  0
  2  4  1  0
  3  5  1  0
  4  6  1  0
  5  6  2  0
  5  7  1  0
  6  8  1  0
  7  9  2  0
  8 10  2  0
  9 10  1  0
  9 11  1  0
 11 12  1  0
 11 13  1  0
M  END
