x0574_0_A-x1015_0_A
     RDKit          3D

 28 31  0  0  0  0  0  0  0  0999 V2000
    0.0380   13.8570    1.5170 N   0  0  0  0  0  0  0  0  0  0  0  0
   -1.0930   14.4350    1.0250 C   0  0  0  0  0  0  0  0  0  0  0  0
   -1.9650   14.8020    1.8690 N   0  0  0  0  0  0  0  0  0  0  0  0
   -1.2940   14.5370   -0.8280 S   0  0  0  0  0  0  0  0  0  0  0  0
    0.3860   14.2170   -0.2860 C   0  0  0  0  0  0  0  0  0  0  0  0
   -3.0700   15.3580    1.1700 C   0  0  1  0  0  0  0  0  0  0  0  0
   -2.8820   15.0460   -0.2340 C   0  0  0  0  0  0  0  0  0  0  0  0
    0.9350   14.4770   -1.6070 N   0  0  0  0  0  0  0  0  0  0  0  0
   -4.4290   15.0310    1.6050 C   0  0  0  0  0  0  0  0  0  0  0  0
   -3.9670   15.2430   -1.1870 C   0  0  0  0  0  0  0  0  0  0  0  0
   -5.4390   14.9470    0.7320 C   0  0  0  0  0  0  0  0  0  0  0  0
   -5.1920   15.1840   -0.6700 C   0  0  0  0  0  0  0  0  0  0  0  0
    0.4830   13.6540   -2.4650 C   0  0  0  0  0  0  0  0  0  0  0  0
   -6.7520   14.6670    1.0030 O   0  0  0  0  0  0  0  0  0  0  0  0
    0.5710   13.4670   -3.9720 C   0  0  2  0  0  0  0  0  0  0  0  0
   -0.2830   12.6550   -2.0020 N   0  0  0  0  0  0  0  0  0  0  0  0
   -7.1070   14.5830    2.3790 C   0  0  0  0  0  0  0  0  0  0  0  0
   -0.5270   14.3160   -4.6250 C   0  0  0  0  0  0  0  0  0  0  0  0
    0.2460   12.0310   -4.0060 N   0  0  0  0  0  0  0  0  0  0  0  0
    0.1060   11.5680   -2.6970 C   0  0  0  0  0  0  0  0  0  0  0  0
    0.2880   10.4510   -2.2230 O   0  0  0  0  0  0  0  0  0  0  0  0
   -0.2660   11.3410   -5.1280 C   0  0  0  0  0  0  0  0  0  0  0  0
    0.2030   11.5700   -6.4260 C   0  0  0  0  0  0  0  0  0  0  0  0
   -1.2760   10.3780   -4.9550 C   0  0  0  0  0  0  0  0  0  0  0  0
   -0.3160   10.8600   -7.5120 C   0  0  0  0  0  0  0  0  0  0  0  0
   -1.7970    9.6670   -6.0350 C   0  0  0  0  0  0  0  0  0  0  0  0
   -1.3120    9.9100   -7.3140 C   0  0  0  0  0  0  0  0  0  0  0  0
   -1.9480    9.0310   -8.6440 Cl  0  0  0  0  0  0  0  0  0  0  0  0
  1  2  1  0
  2  3  2  0
  2  4  1  0
  4  5  1  0
  3  6  1  0
  4  7  2  0
  6  7  1  0
  5  8  1  0
  6  9  1  1
  7 10  1  0
  9 11  2  0
 10 12  2  0
 11 12  1  0
  8 13  2  3
 11 14  1  0
 13 15  1  0
 13 16  1  0
 14 17  1  0
 15 18  1  6
 15 19  1  0
 16 20  1  0
 19 20  1  0
 20 21  2  0
 19 22  1  0
 22 23  2  0
 22 24  1  0
 23 25  1  0
 24 26  2  0
 25 27  2  0
 26 27  1  0
 27 28  1  0
M  END
