x0574_0_A_α-x0631_0_A_β
     RDKit          3D

 26 28  0  0  0  0  0  0  0  0999 V2000
    0.1780   13.6140    1.4400 N   0  0  0  0  0  0  0  0  0  0  0  0
   -1.0590   14.1900    1.0760 C   0  0  2  0  0  0  0  0  0  0  0  0
   -2.1730   13.3830    0.6970 N   0  0  0  0  0  0  0  0  0  0  0  0
   -1.1700   15.0060   -0.4220 S   0  0  0  0  0  0  0  0  0  0  0  0
   -2.3370   13.1050   -0.7760 C   0  0  0  0  0  0  0  0  0  0  0  0
   -3.1460   14.3350    1.1770 C   0  0  1  0  0  0  0  0  0  0  0  0
   -2.9130   15.4060    0.1530 C   0  0  2  0  0  0  0  0  0  0  0  0
   -1.0500   12.6670   -1.5490 C   0  0  0  0  0  0  0  0  0  0  0  0
   -4.6020   14.0420    1.4980 C   0  0  0  0  0  0  0  0  0  0  0  0
   -3.9160   15.4880   -0.9440 C   0  0  0  0  0  0  0  0  0  0  0  0
   -1.2430   12.3340   -3.0400 C   0  0  0  0  0  0  0  0  0  0  0  0
   -5.6240   14.1890    0.3690 C   0  0  2  0  0  0  0  0  0  0  0  0
   -5.1320   14.9460   -0.8370 C   0  0  0  0  0  0  0  0  0  0  0  0
   -6.7770   14.8590    0.8770 O   0  0  0  0  0  0  0  0  0  0  0  0
   -0.6030   10.9900   -3.4430 C   0  0  0  0  0  0  0  0  0  0  0  0
   -7.0360   14.5620    2.2500 C   0  0  0  0  0  0  0  0  0  0  0  0
   -0.5740   10.7430   -4.9710 C   0  0  0  0  0  0  0  0  0  0  0  0
   -0.5850    9.2320   -5.2870 C   0  0  0  0  0  0  0  0  0  0  0  0
   -0.1790    8.7160   -6.7090 C   0  0  1  0  0  0  0  0  0  0  0  0
   -1.4730    8.3060   -7.4590 C   0  0  0  0  0  0  0  0  0  0  0  0
    0.7170    9.6290   -7.4790 N   0  0  0  0  0  0  0  0  0  0  0  0
   -2.5140    9.4030   -7.6150 C   0  0  0  0  0  0  0  0  0  0  0  0
    0.8450    9.2670   -8.8690 N   0  0  0  0  0  0  0  0  0  0  0  0
    0.3820   11.0050   -7.3930 N   0  0  0  0  0  0  0  0  0  0  0  0
    0.8590   10.5230   -9.5960 C   0  0  0  0  0  0  0  0  0  0  0  0
    0.2110   11.4960   -8.7340 N   0  0  0  0  0  0  0  0  0  0  0  0
  2  1  1  6
  2  3  1  0
  2  4  1  0
  3  5  1  0
  3  6  1  0
  4  7  1  0
  6  7  1  0
  5  8  1  0
  6  9  1  6
  7 10  1  6
  8 11  1  0
  9 12  1  0
 10 13  2  0
 12 13  1  0
 12 14  1  1
 11 15  1  0
 14 16  1  0
 15 17  1  0
 17 18  1  0
 19 18  1  1
 19 20  1  0
 19 21  1  0
 20 22  1  0
 21 23  1  0
 21 24  1  0
 23 25  1  0
 24 26  1  0
 25 26  1  0
M  END
