x0574_0_A_α-5cb3_0_A_α
     RDKit          3D

 28 30  0  0  0  0  0  0  0  0999 V2000
   -0.1440   14.2300    1.9130 N   0  0  0  0  0  0  0  0  0  0  0  0
   -1.2380   14.4160    1.1380 C   0  0  0  0  0  0  0  0  0  0  0  0
   -2.4410   14.4390    1.6450 N   0  0  0  0  0  0  0  0  0  0  0  0
   -1.1500   14.6250   -0.5570 S   0  0  0  0  0  0  0  0  0  0  0  0
   -3.4020   14.6140    0.6320 C   0  0  0  0  0  0  0  0  0  0  0  0
   -2.8760   14.7390   -0.6470 C   0  0  0  0  0  0  0  0  0  0  0  0
   -4.8210   14.6680    0.7800 C   0  0  0  0  0  0  0  0  0  0  0  0
   -3.7130   14.9230   -1.7610 C   0  0  0  0  0  0  0  0  0  0  0  0
   -5.7270   14.8400   -0.3060 C   0  0  0  0  0  0  0  0  0  0  0  0
   -5.1150   14.9680   -1.5670 C   0  0  0  0  0  0  0  0  0  0  0  0
   -7.1410   14.8680   -0.0950 N   0  0  0  0  0  0  0  0  0  0  0  0
   -7.6860   14.4800    1.2080 C   0  0  0  0  0  0  0  0  0  0  0  0
   -8.1380   15.4520   -1.0580 C   0  0  0  0  0  0  0  0  0  0  0  0
   -7.5630   16.6930   -1.7360 C   0  0  0  0  0  0  0  0  0  0  0  0
   -8.5700   17.8640   -2.1570 C   0  0  0  0  0  0  0  0  0  0  0  0
   -8.2450   19.4030   -2.8620 C   0  0  0  0  0  0  0  0  0  0  0  0
   -6.6880   21.1420   -4.0670 C   0  0  0  0  0  0  0  0  0  0  0  0
   -5.9340   21.5730   -5.4850 C   0  0  0  0  0  0  0  0  0  0  0  0
   -4.4190   21.3570   -5.4250 C   0  0  0  0  0  0  0  0  0  0  0  0
   -3.9890   21.0980   -6.7020 O   0  0  0  0  0  0  0  0  0  0  0  0
   -4.8780   21.8420   -7.5070 C   0  0  2  0  0  0  0  0  0  0  0  0
   -4.7200   21.4680   -8.8380 O   0  0  0  0  0  0  0  0  0  0  0  0
   -4.4820   23.3060   -7.3740 C   0  0  2  0  0  0  0  0  0  0  0  0
   -5.6050   24.1580   -7.0910 O   0  0  0  0  0  0  0  0  0  0  0  0
   -3.5410   22.1310   -9.1940 C   0  0  1  0  0  0  0  0  0  0  0  0
   -3.8240   23.5510   -8.7320 C   0  0  1  0  0  0  0  0  0  0  0  0
   -2.3320   21.4610   -8.5310 C   0  0  0  0  0  0  0  0  0  0  0  0
   -4.6700   24.2750   -9.6180 O   0  0  0  0  0  0  0  0  0  0  0  0
  1  2  1  0
  2  3  2  0
  2  4  1  0
  3  5  1  0
  4  6  1  0
  5  6  2  0
  5  7  1  0
  6  8  1  0
  7  9  2  0
  8 10  2  0
  9 10  1  0
  9 11  1  0
 11 12  1  0
 11 13  1  0
 13 14  1  0
 14 15  1  0
 15 16  1  0
 16 17  1  0
 17 18  1  0
 18 19  1  0
 19 20  1  0
 21 20  1  1
 21 22  1  0
 21 23  1  0
 23 24  1  6
 22 25  1  0
 23 26  1  0
 25 26  1  0
 25 27  1  1
 26 28  1  6
M  END
