x0574_0_A-x0685_1_A
     RDKit          3D

 26 28  0  0  0  0  0  0  0  0999 V2000
    0.0790   13.8060    2.1730 N   0  0  0  0  0  0  0  0  0  0  0  0
   -1.0000   14.2490    1.5230 C   0  0  0  0  0  0  0  0  0  0  0  0
   -1.9440   14.9330    2.0440 N   0  0  0  0  0  0  0  0  0  0  0  0
   -1.2900   13.9570   -0.1520 S   0  0  0  0  0  0  0  0  0  0  0  0
   -0.2590   12.9700   -1.2310 C   0  0  0  0  0  0  0  0  0  0  0  0
   -3.0160   15.3660    1.0810 C   0  0  1  0  0  0  0  0  0  0  0  0
   -2.7910   14.8110   -0.2880 C   0  0  0  0  0  0  0  0  0  0  0  0
    0.2840   13.5520   -2.3530 O   0  0  0  0  0  0  0  0  0  0  0  0
   -4.3950   15.0280    1.4730 C   0  0  0  0  0  0  0  0  0  0  0  0
   -3.7420   15.0390   -1.3530 C   0  0  0  0  0  0  0  0  0  0  0  0
    0.9050   12.4650   -3.3260 S   0  0  0  0  0  0  0  0  0  0  0  0
   -5.3410   14.9020    0.5330 C   0  0  0  0  0  0  0  0  0  0  0  0
   -5.0120   15.0810   -0.8830 C   0  0  0  0  0  0  0  0  0  0  0  0
   -6.6610   14.6070    0.7740 O   0  0  0  0  0  0  0  0  0  0  0  0
    0.0690   12.7140   -4.8680 C   0  0  0  0  0  0  0  0  0  0  0  0
    2.4910   12.5580   -3.5300 O   0  0  0  0  0  0  0  0  0  0  0  0
    0.4920   10.9950   -2.8200 O   0  0  0  0  0  0  0  0  0  0  0  0
   -7.0270   14.4530    2.1460 C   0  0  0  0  0  0  0  0  0  0  0  0
   -1.3300   12.1240   -4.7690 C   0  0  0  0  0  0  0  0  0  0  0  0
   -1.3800   10.6940   -5.0690 N   0  0  0  0  0  0  0  0  0  0  0  0
   -0.7800   10.3660   -6.3610 C   0  0  0  0  0  0  0  0  0  0  0  0
   -0.6330    8.8410   -6.4950 C   0  0  0  0  0  0  0  0  0  0  0  0
   -1.5940   10.9020   -7.5430 C   0  0  0  0  0  0  0  0  0  0  0  0
    0.0530    8.4780   -7.8100 C   0  0  0  0  0  0  0  0  0  0  0  0
   -0.9620   10.5520   -8.8850 C   0  0  0  0  0  0  0  0  0  0  0  0
   -0.7110    9.0460   -9.0060 C   0  0  0  0  0  0  0  0  0  0  0  0
  1  2  1  0
  2  3  2  0
  2  4  1  0
  4  5  1  0
  3  6  1  0
  4  7  2  0
  6  7  1  0
  5  8  1  0
  6  9  1  1
  7 10  1  0
 11  8  1  0
  9 12  2  0
 10 13  2  0
 12 13  1  0
 12 14  1  0
 11 15  1  0
 11 16  1  0
 11 17  1  0
 14 18  1  0
 15 19  1  0
 19 20  1  0
 20 21  1  0
 21 22  1  0
 21 23  1  0
 22 24  1  0
 23 25  1  0
 24 26  1  0
 25 26  1  0
M  END
