x0574_0_A-x0926_0_A
     RDKit          3D

 12 13  0  0  0  0  0  0  0  0999 V2000
    0.1460   14.0370    2.1100 N   0  0  0  0  0  0  0  0  0  0  0  0
   -0.9290   14.2980    1.3920 C   0  0  0  0  0  0  0  0  0  0  0  0
   -2.0640   14.3100    1.9680 N   0  0  0  0  0  0  0  0  0  0  0  0
   -0.9330   14.6250   -0.2910 S   0  0  0  0  0  0  0  0  0  0  0  0
   -3.0570   14.5630    1.0810 C   0  0  0  0  0  0  0  0  0  0  0  0
   -2.6590   14.7730   -0.2270 C   0  0  0  0  0  0  0  0  0  0  0  0
   -4.4020   14.6130    1.4210 C   0  0  0  0  0  0  0  0  0  0  0  0
   -3.6040   15.0480   -1.2300 C   0  0  0  0  0  0  0  0  0  0  0  0
   -5.3520   14.8670    0.4650 C   0  0  0  0  0  0  0  0  0  0  0  0
   -4.9590   15.0890   -0.8550 C   0  0  0  0  0  0  0  0  0  0  0  0
   -6.6850   14.9130    0.7450 O   0  0  0  0  0  0  0  0  0  0  0  0
   -7.0190   14.5760    2.0980 C   0  0  0  0  0  0  0  0  0  0  0  0
  1  2  1  0
  2  3  2  0
  2  4  1  0
  3  5  1  0
  4  6  1  0
  5  6  2  0
  5  7  1  0
  6  8  1  0
  7  9  2  0
  8 10  2  0
  9 10  1  0
  9 11  1  0
 11 12  1  0
M  END
