x0574_0_A_α-x0727_0_A_α
     RDKit          3D

 27 29  0  0  0  0  0  0  0  0999 V2000
   -0.1190   14.2680    1.9480 N   0  0  0  0  0  0  0  0  0  0  0  0
   -0.4370   14.4470    0.5720 C   0  0  1  0  0  0  0  0  0  0  0  0
   -1.2520   13.3350    0.2220 N   0  0  0  0  0  0  0  0  0  0  0  0
   -1.3780   15.9160    0.2200 S   0  0  0  0  0  0  0  0  0  0  0  0
   -0.7670   12.8750   -1.1200 C   0  0  0  0  0  0  0  0  0  0  0  0
   -2.6590   13.7750    0.0440 C   0  0  2  0  0  0  0  0  0  0  0  0
   -2.5250   15.0040   -0.8180 C   0  0  1  0  0  0  0  0  0  0  0  0
    0.5800   13.5020   -1.5530 C   0  0  0  0  0  0  0  0  0  0  0  0
   -3.5550   14.1380    1.2670 C   0  0  0  0  0  0  0  0  0  0  0  0
   -3.8220   15.6530   -1.1280 C   0  0  0  0  0  0  0  0  0  0  0  0
    1.3730   12.5990   -2.3340 O   0  0  0  0  0  0  0  0  0  0  0  0
   -4.9860   14.5040    0.7670 C   0  0  2  0  0  0  0  0  0  0  0  0
   -4.9320   15.4280   -0.4210 C   0  0  0  0  0  0  0  0  0  0  0  0
   -5.8220   15.1820    1.6920 O   0  0  0  0  0  0  0  0  0  0  0  0
    0.6910   11.8070   -3.2070 C   0  0  0  0  0  0  0  0  0  0  0  0
   -6.8640   14.4030    2.2550 C   0  0  0  0  0  0  0  0  0  0  0  0
    0.8440   12.2790   -4.6690 C   0  0  1  0  0  0  0  0  0  0  0  0
    0.0480   10.8180   -2.8630 O   0  0  0  0  0  0  0  0  0  0  0  0
    0.0790   11.4630   -5.6140 N   0  0  0  0  0  0  0  0  0  0  0  0
    0.4340   13.7380   -4.8150 C   0  0  0  0  0  0  0  0  0  0  0  0
    0.6650   11.1190   -6.8000 C   0  0  0  0  0  0  0  0  0  0  0  0
    1.6320   11.7090   -7.2090 O   0  0  0  0  0  0  0  0  0  0  0  0
    0.0450    9.9370   -7.5280 C   0  0  0  0  0  0  0  0  0  0  0  0
   -1.2620   10.3080   -8.2470 C   0  0  0  0  0  0  0  0  0  0  0  0
   -0.3030    8.7500   -6.6100 C   0  0  0  0  0  0  0  0  0  0  0  0
   -2.1480    9.0800   -8.1060 C   0  0  0  0  0  0  0  0  0  0  0  0
   -1.7970    8.5300   -6.7350 C   0  0  0  0  0  0  0  0  0  0  0  0
  2  1  1  1
  2  3  1  0
  2  4  1  0
  3  5  1  0
  3  6  1  0
  4  7  1  0
  6  7  1  0
  5  8  1  0
  6  9  1  1
  7 10  1  1
  8 11  1  0
  9 12  1  0
 10 13  2  0
 12 13  1  0
 12 14  1  1
 11 15  1  0
 14 16  1  0
 15 17  1  0
 15 18  2  0
 17 19  1  0
 17 20  1  1
 19 21  1  0
 21 22  2  0
 21 23  1  0
 23 24  1  0
 23 25  1  0
 24 26  1  0
 25 27  1  0
 26 27  1  0
M  END
