x0574_0_A_α-x0900_1_A_α
     RDKit          3D

 23 25  0  0  0  0  0  0  0  0999 V2000
   -0.1070   14.1660    1.9000 N   0  0  0  0  0  0  0  0  0  0  0  0
   -0.4640   14.0480    0.5080 C   0  0  1  0  0  0  0  0  0  0  0  0
   -1.7430   13.4220    0.2870 N   0  0  0  0  0  0  0  0  0  0  0  0
   -0.7770   15.7070   -0.1320 S   0  0  0  0  0  0  0  0  0  0  0  0
   -2.0840   13.1230   -1.1280 C   0  0  0  0  0  0  0  0  0  0  0  0
   -2.6770   14.2790    1.0270 C   0  0  1  0  0  0  0  0  0  0  0  0
   -2.5450   15.6000    0.2300 C   0  0  2  0  0  0  0  0  0  0  0  0
   -1.0170   12.3000   -1.9080 C   0  0  0  0  0  0  0  0  0  0  0  0
   -4.1520   13.8730    1.2040 C   0  0  0  0  0  0  0  0  0  0  0  0
   -3.4890   15.6670   -0.9320 C   0  0  0  0  0  0  0  0  0  0  0  0
   -1.5630   11.0450   -2.6360 C   0  0  0  0  0  0  0  0  0  0  0  0
   -5.0900   15.0070    0.7490 C   0  0  1  0  0  0  0  0  0  0  0  0
   -4.7570   15.3800   -0.6560 C   0  0  0  0  0  0  0  0  0  0  0  0
   -6.4680   14.6560    0.8420 O   0  0  0  0  0  0  0  0  0  0  0  0
   -0.7470   10.5230   -3.8430 C   0  0  0  0  0  0  0  0  0  0  0  0
   -6.9040   14.5260    2.1920 C   0  0  0  0  0  0  0  0  0  0  0  0
   -1.5830    9.7890   -4.9240 C   0  0  0  0  0  0  0  0  0  0  0  0
   -0.9220    9.6180   -6.3190 C   0  0  2  0  0  0  0  0  0  0  0  0
   -1.8290    9.9110   -7.5180 C   0  0  0  0  0  0  0  0  0  0  0  0
   -0.4110    8.2390   -6.7070 C   0  0  0  0  0  0  0  0  0  0  0  0
   -0.1340    8.4350   -8.1020 N   0  0  0  0  0  0  0  0  0  0  0  0
   -0.9520    9.4140   -8.6390 C   0  0  0  0  0  0  0  0  0  0  0  0
   -0.9530    9.7950   -9.7960 O   0  0  0  0  0  0  0  0  0  0  0  0
  2  1  1  1
  2  3  1  0
  2  4  1  0
  3  5  1  0
  3  6  1  0
  4  7  1  0
  6  7  1  0
  5  8  1  0
  6  9  1  6
  7 10  1  6
  8 11  1  0
  9 12  1  0
 10 13  2  0
 12 13  1  0
 12 14  1  6
 11 15  1  0
 14 16  1  0
 15 17  1  0
 18 17  1  1
 18 19  1  0
 18 20  1  0
 20 21  1  0
 19 22  1  0
 21 22  1  0
 22 23  2  0
M  END
