x0574_0_A-x0962_1_A
     RDKit          3D

 18 20  0  0  0  0  0  0  0  0999 V2000
    0.2780   14.1120    2.2860 N   0  0  0  0  0  0  0  0  0  0  0  0
   -0.7590   14.1270    1.5350 C   0  0  0  0  0  0  0  0  0  0  0  0
   -1.8660   14.3060    2.1020 N   0  0  0  0  0  0  0  0  0  0  0  0
   -0.7410   13.9040   -0.1550 S   0  0  0  0  0  0  0  0  0  0  0  0
   -2.8460   14.2540    1.2210 C   0  0  0  0  0  0  0  0  0  0  0  0
   -2.4520   14.0320   -0.0890 C   0  0  0  0  0  0  0  0  0  0  0  0
   -4.1700   14.4060    1.5640 C   0  0  0  0  0  0  0  0  0  0  0  0
   -3.3810   13.9420   -1.0950 C   0  0  0  0  0  0  0  0  0  0  0  0
   -5.1100   14.3250    0.6050 C   0  0  0  0  0  0  0  0  0  0  0  0
   -4.7090   14.0890   -0.7200 C   0  0  0  0  0  0  0  0  0  0  0  0
   -6.5590   14.5390    0.8560 C   0  0  1  0  0  0  0  0  0  0  0  0
   -5.9050   15.5590    0.0570 N   0  0  0  0  0  0  0  0  0  0  0  0
   -7.2900   13.5090    0.1260 N   0  0  0  0  0  0  0  0  0  0  0  0
   -6.8920   14.7750    2.3360 C   0  0  0  0  0  0  0  0  0  0  0  0
   -5.9060   14.9180   -1.0340 C   0  0  0  0  0  0  0  0  0  0  0  0
   -6.8050   13.7470   -1.0330 C   0  0  0  0  0  0  0  0  0  0  0  0
   -5.0480   15.3980   -2.0560 C   0  0  0  0  0  0  0  0  0  0  0  0
   -4.2060   15.6610   -2.8070 N   0  0  0  0  0  0  0  0  0  0  0  0
  1  2  1  0
  2  3  2  0
  2  4  1  0
  3  5  1  0
  4  6  1  0
  5  6  2  0
  5  7  1  0
  6  8  1  0
  7  9  2  0
  8 10  2  0
  9 10  1  0
  9 11  1  0
 11 12  1  0
 11 13  1  0
 11 14  1  1
 12 15  2  0
 13 16  2  0
 15 16  1  0
 15 17  1  0
 17 18  3  0
M  END
