x0574_0_A-x0905_0_A
     RDKit          3D

 12 13  0  0  0  0  0  0  0  0999 V2000
    0.1450   14.0410    2.1090 N   0  0  0  0  0  0  0  0  0  0  0  0
   -0.9280   14.3010    1.3900 C   0  0  0  0  0  0  0  0  0  0  0  0
   -2.0630   14.3110    1.9680 N   0  0  0  0  0  0  0  0  0  0  0  0
   -0.9330   14.6270   -0.2900 S   0  0  0  0  0  0  0  0  0  0  0  0
   -3.0570   14.5640    1.0790 C   0  0  0  0  0  0  0  0  0  0  0  0
   -2.6570   14.7730   -0.2260 C   0  0  0  0  0  0  0  0  0  0  0  0
   -4.3990   14.6120    1.4220 C   0  0  0  0  0  0  0  0  0  0  0  0
   -3.6050   15.0470   -1.2280 C   0  0  0  0  0  0  0  0  0  0  0  0
   -5.3510   14.8670    0.4660 C   0  0  0  0  0  0  0  0  0  0  0  0
   -4.9600   15.0890   -0.8560 C   0  0  0  0  0  0  0  0  0  0  0  0
   -6.6860   14.9110    0.7470 O   0  0  0  0  0  0  0  0  0  0  0  0
   -7.0190   14.5770    2.0980 C   0  0  0  0  0  0  0  0  0  0  0  0
  1  2  1  0
  2  3  2  0
  2  4  1  0
  3  5  1  0
  4  6  1  0
  5  6  2  0
  5  7  1  0
  6  8  1  0
  7  9  2  0
  8 10  2  0
  9 10  1  0
  9 11  1  0
 11 12  1  0
M  END
