x0574_0_A-x0628_0_A
     RDKit          3D

 26 28  0  0  0  0  0  0  0  0999 V2000
   -0.0550   14.2150    2.0510 N   0  0  0  0  0  0  0  0  0  0  0  0
   -0.4160   14.3560    0.6800 C   0  0  1  0  0  0  0  0  0  0  0  0
   -1.3190   13.3120    0.3070 N   0  0  0  0  0  0  0  0  0  0  0  0
   -1.2550   15.8920    0.3210 S   0  0  0  0  0  0  0  0  0  0  0  0
   -0.9240   12.9210   -1.0720 C   0  0  0  0  0  0  0  0  0  0  0  0
   -2.7070   13.8290    0.1740 C   0  0  2  0  0  0  0  0  0  0  0  0
   -2.4520   15.0280   -0.7070 C   0  0  1  0  0  0  0  0  0  0  0  0
    0.2320   13.7410   -1.6840 C   0  0  0  0  0  0  0  0  0  0  0  0
   -3.5310   14.2330    1.4210 C   0  0  0  0  0  0  0  0  0  0  0  0
   -3.6910   15.7420   -1.0640 C   0  0  0  0  0  0  0  0  0  0  0  0
    1.3150   12.8600   -1.9900 O   0  0  0  0  0  0  0  0  0  0  0  0
   -4.7760   15.1140    1.0990 C   0  0  1  0  0  0  0  0  0  0  0  0
   -4.7410   15.7750   -0.2540 C   0  0  0  0  0  0  0  0  0  0  0  0
   -5.9920   14.3530    1.0880 O   0  0  0  0  0  0  0  0  0  0  0  0
    1.0890   12.1300   -3.1020 C   0  0  0  0  0  0  0  0  0  0  0  0
   -6.7800   14.5490    2.2560 C   0  0  0  0  0  0  0  0  0  0  0  0
    0.5480   11.0320   -3.1070 O   0  0  0  0  0  0  0  0  0  0  0  0
    1.6090   12.8820   -4.3020 C   0  0  0  0  0  0  0  0  0  0  0  0
    0.4940   13.1590   -5.3020 C   0  0  0  0  0  0  0  0  0  0  0  0
   -0.2990   11.9800   -5.5870 N   0  0  0  0  0  0  0  0  0  0  0  0
    0.1340   11.0980   -6.5030 N   0  0  0  0  0  0  0  0  0  0  0  0
   -1.4960   11.5860   -5.0460 C   0  0  0  0  0  0  0  0  0  0  0  0
   -2.2420   12.3360   -4.0110 C   0  0  0  0  0  0  0  0  0  0  0  0
   -1.8550   10.4440   -5.6020 N   0  0  0  0  0  0  0  0  0  0  0  0
   -0.8370   10.1810   -6.4780 C   0  0  0  0  0  0  0  0  0  0  0  0
   -0.8110    8.9790   -7.3320 C   0  0  0  0  0  0  0  0  0  0  0  0
  2  1  1  1
  2  3  1  0
  2  4  1  0
  3  5  1  0
  3  6  1  0
  4  7  1  0
  6  7  1  0
  5  8  1  0
  6  9  1  1
  7 10  1  1
  8 11  1  0
  9 12  1  0
 10 13  2  0
 12 13  1  0
 12 14  1  6
 11 15  1  0
 14 16  1  0
 15 17  2  0
 15 18  1  0
 18 19  1  0
 19 20  1  0
 20 21  1  0
 20 22  1  0
 22 23  1  0
 22 24  2  0
 21 25  2  0
 24 25  1  0
 25 26  1  0
M  END
