x0574_0_A-x1012_0_A
     RDKit          3D

 25 27  0  0  0  0  0  0  0  0999 V2000
    0.5560   15.1980    0.9560 N   0  0  0  0  0  0  0  0  0  0  0  0
   -0.8410   15.2160    0.6550 C   0  0  2  0  0  0  0  0  0  0  0  0
   -1.3260   14.0190    1.0840 N   0  0  0  0  0  0  0  0  0  0  0  0
   -1.0530   14.9610   -1.1090 S   0  0  0  0  0  0  0  0  0  0  0  0
   -0.4170   13.2730    0.2120 C   0  0  0  0  0  0  0  0  0  0  0  0
   -2.7460   13.9750    0.6010 C   0  0  2  0  0  0  0  0  0  0  0  0
   -2.7350   14.3730   -0.8840 C   0  0  1  0  0  0  0  0  0  0  0  0
   -0.1020   13.7200   -1.1450 N   0  0  0  0  0  0  0  0  0  0  0  0
   -3.9840   14.5150    1.3760 C   0  0  0  0  0  0  0  0  0  0  0  0
   -3.7750   15.3540   -1.3330 C   0  0  0  0  0  0  0  0  0  0  0  0
    0.1090   12.9080   -2.1400 C   0  0  0  0  0  0  0  0  0  0  0  0
   -5.2280   14.5790    0.4680 C   0  0  2  0  0  0  0  0  0  0  0  0
   -4.9400   15.4480   -0.7030 C   0  0  0  0  0  0  0  0  0  0  0  0
   -6.4670   15.0220    1.0290 O   0  0  0  0  0  0  0  0  0  0  0  0
    0.1050   11.5520   -2.1010 O   0  0  0  0  0  0  0  0  0  0  0  0
    0.3590   13.4380   -3.5420 C   0  0  0  0  0  0  0  0  0  0  0  0
   -6.7020   14.6020    2.3610 C   0  0  0  0  0  0  0  0  0  0  0  0
   -0.9680   13.4700   -4.3210 C   0  0  0  0  0  0  0  0  0  0  0  0
    1.0450   14.8170   -3.5170 C   0  0  0  0  0  0  0  0  0  0  0  0
   -1.6170   14.8580   -4.4250 C   0  0  0  0  0  0  0  0  0  0  0  0
    0.7150   15.6490   -4.7580 C   0  0  0  0  0  0  0  0  0  0  0  0
   -0.7170   15.9380   -4.8400 N   0  0  0  0  0  0  0  0  0  0  0  0
   -1.2530   17.2020   -4.7820 C   0  0  0  0  0  0  0  0  0  0  0  0
   -0.3860   18.2330   -4.6990 N   0  0  0  0  0  0  0  0  0  0  0  0
   -2.4470   17.4600   -4.7850 O   0  0  0  0  0  0  0  0  0  0  0  0
  2  1  1  6
  2  3  1  0
  2  4  1  0
  3  5  1  0
  3  6  1  0
  4  7  1  0
  6  7  1  0
  5  8  1  0
  6  9  1  1
  7 10  1  1
  8 11  2  3
  9 12  1  0
 10 13  2  0
 12 13  1  0
 12 14  1  1
 11 15  1  0
 11 16  1  0
 14 17  1  0
 16 18  1  0
 16 19  1  0
 18 20  1  0
 19 21  1  0
 20 22  1  0
 21 22  1  0
 22 23  1  0
 23 24  1  0
 23 25  2  0
M  END
