x0574_0_A_α-x0837_0_A_α
     RDKit          3D

 13 14  0  0  0  0  0  0  0  0999 V2000
    0.1660   14.1030    2.1320 N   0  0  0  0  0  0  0  0  0  0  0  0
   -0.9070   14.3180    1.4050 C   0  0  0  0  0  0  0  0  0  0  0  0
   -2.0370   14.3890    1.9850 N   0  0  0  0  0  0  0  0  0  0  0  0
   -0.9180   14.5030   -0.2910 S   0  0  0  0  0  0  0  0  0  0  0  0
   -3.0320   14.5680    1.0860 C   0  0  0  0  0  0  0  0  0  0  0  0
   -2.6500   14.6570   -0.2390 C   0  0  0  0  0  0  0  0  0  0  0  0
   -4.3780   14.6550    1.4420 C   0  0  0  0  0  0  0  0  0  0  0  0
   -3.6230   14.8340   -1.2350 C   0  0  0  0  0  0  0  0  0  0  0  0
   -3.1410   14.9560   -3.2550 I   0  0  0  0  0  0  0  0  0  0  0  0
   -5.3470   14.8230    0.4880 C   0  0  0  0  0  0  0  0  0  0  0  0
   -4.9780   14.9170   -0.8520 C   0  0  0  0  0  0  0  0  0  0  0  0
   -6.6830   14.9000    0.7760 O   0  0  0  0  0  0  0  0  0  0  0  0
   -7.0380   14.5730    2.1280 C   0  0  0  0  0  0  0  0  0  0  0  0
  1  2  1  0
  2  3  2  0
  2  4  1  0
  3  5  1  0
  4  6  1  0
  5  6  2  0
  5  7  1  0
  6  8  1  0
  8  9  1  0
  7 10  2  0
  8 11  2  0
 10 11  1  0
 10 12  1  0
 12 13  1  0
M  END
