x0574_0_A_α-x0628_0_A_α
     RDKit          3D

 26 28  0  0  0  0  0  0  0  0999 V2000
   -0.3210   14.2160    2.0930 N   0  0  0  0  0  0  0  0  0  0  0  0
   -0.4340   14.3240    0.6870 C   0  0  1  0  0  0  0  0  0  0  0  0
   -1.3170   13.2910    0.2550 N   0  0  0  0  0  0  0  0  0  0  0  0
   -1.2080   15.8660    0.1980 S   0  0  0  0  0  0  0  0  0  0  0  0
   -0.8760   12.9180   -1.1170 C   0  0  0  0  0  0  0  0  0  0  0  0
   -2.7040   13.8070    0.1270 C   0  0  2  0  0  0  0  0  0  0  0  0
   -2.4580   14.9990   -0.7710 C   0  0  1  0  0  0  0  0  0  0  0  0
    0.3060   13.7410   -1.6660 C   0  0  0  0  0  0  0  0  0  0  0  0
   -3.5130   14.2280    1.3860 C   0  0  0  0  0  0  0  0  0  0  0  0
   -3.6940   15.7310   -1.1010 C   0  0  0  0  0  0  0  0  0  0  0  0
    1.3700   12.8550   -2.0100 O   0  0  0  0  0  0  0  0  0  0  0  0
   -4.7600   15.1100    1.0740 C   0  0  1  0  0  0  0  0  0  0  0  0
   -4.7310   15.7770   -0.2750 C   0  0  0  0  0  0  0  0  0  0  0  0
   -5.9830   14.3600    1.0660 O   0  0  0  0  0  0  0  0  0  0  0  0
    1.1070   12.1350   -3.1210 C   0  0  0  0  0  0  0  0  0  0  0  0
   -6.7710   14.5480    2.2380 C   0  0  0  0  0  0  0  0  0  0  0  0
    0.5420   11.0500   -3.1240 O   0  0  0  0  0  0  0  0  0  0  0  0
    1.6150   12.8850   -4.3280 C   0  0  0  0  0  0  0  0  0  0  0  0
    0.4900   13.1650   -5.3160 C   0  0  0  0  0  0  0  0  0  0  0  0
   -0.3000   11.9870   -5.5930 N   0  0  0  0  0  0  0  0  0  0  0  0
    0.1310   11.1000   -6.5100 N   0  0  0  0  0  0  0  0  0  0  0  0
   -1.4930   11.5890   -5.0500 C   0  0  0  0  0  0  0  0  0  0  0  0
   -2.2370   12.3440   -4.0130 C   0  0  0  0  0  0  0  0  0  0  0  0
   -1.8530   10.4470   -5.5970 N   0  0  0  0  0  0  0  0  0  0  0  0
   -0.8360   10.1830   -6.4800 C   0  0  0  0  0  0  0  0  0  0  0  0
   -0.8140    8.9750   -7.3250 C   0  0  0  0  0  0  0  0  0  0  0  0
  2  1  1  1
  2  3  1  0
  2  4  1  0
  3  5  1  0
  3  6  1  0
  4  7  1  0
  6  7  1  0
  5  8  1  0
  6  9  1  1
  7 10  1  1
  8 11  1  0
  9 12  1  0
 10 13  2  0
 12 13  1  0
 12 14  1  6
 11 15  1  0
 14 16  1  0
 15 17  2  0
 15 18  1  0
 18 19  1  0
 19 20  1  0
 20 21  1  0
 20 22  1  0
 22 23  1  0
 22 24  2  0
 21 25  2  0
 24 25  1  0
 25 26  1  0
M  END
