x0574_0_A-x0727_0_A
     RDKit          3D

 27 29  0  0  0  0  0  0  0  0999 V2000
   -0.1180   14.2770    1.9510 N   0  0  0  0  0  0  0  0  0  0  0  0
   -0.4340   14.4440    0.5720 C   0  0  1  0  0  0  0  0  0  0  0  0
   -1.2490   13.3310    0.2260 N   0  0  0  0  0  0  0  0  0  0  0  0
   -1.3740   15.9120    0.2110 S   0  0  0  0  0  0  0  0  0  0  0  0
   -0.7670   12.8720   -1.1190 C   0  0  0  0  0  0  0  0  0  0  0  0
   -2.6560   13.7650    0.0500 C   0  0  2  0  0  0  0  0  0  0  0  0
   -2.5270   14.9900   -0.8160 C   0  0  1  0  0  0  0  0  0  0  0  0
    0.5780   13.5000   -1.5530 C   0  0  0  0  0  0  0  0  0  0  0  0
   -3.5540   14.1340    1.2700 C   0  0  0  0  0  0  0  0  0  0  0  0
   -3.8240   15.6460   -1.1200 C   0  0  0  0  0  0  0  0  0  0  0  0
    1.3750   12.6000   -2.3340 O   0  0  0  0  0  0  0  0  0  0  0  0
   -4.9870   14.4740    0.7580 C   0  0  2  0  0  0  0  0  0  0  0  0
   -4.9340   15.4130   -0.4160 C   0  0  0  0  0  0  0  0  0  0  0  0
   -5.8450   15.1350    1.6820 O   0  0  0  0  0  0  0  0  0  0  0  0
    0.6970   11.8080   -3.2100 C   0  0  0  0  0  0  0  0  0  0  0  0
   -6.6870   14.2910    2.4450 C   0  0  0  0  0  0  0  0  0  0  0  0
    0.8460   12.2810   -4.6690 C   0  0  1  0  0  0  0  0  0  0  0  0
    0.0540   10.8170   -2.8660 O   0  0  0  0  0  0  0  0  0  0  0  0
    0.0810   11.4660   -5.6150 N   0  0  0  0  0  0  0  0  0  0  0  0
    0.4360   13.7410   -4.8160 C   0  0  0  0  0  0  0  0  0  0  0  0
    0.6610   11.1170   -6.8020 C   0  0  0  0  0  0  0  0  0  0  0  0
    1.6270   11.7080   -7.2140 O   0  0  0  0  0  0  0  0  0  0  0  0
    0.0390    9.9360   -7.5310 C   0  0  0  0  0  0  0  0  0  0  0  0
   -1.2630   10.3080   -8.2490 C   0  0  0  0  0  0  0  0  0  0  0  0
   -0.3060    8.7500   -6.6090 C   0  0  0  0  0  0  0  0  0  0  0  0
   -2.1520    9.0790   -8.1100 C   0  0  0  0  0  0  0  0  0  0  0  0
   -1.8020    8.5300   -6.7390 C   0  0  0  0  0  0  0  0  0  0  0  0
  2  1  1  1
  2  3  1  0
  2  4  1  0
  3  5  1  0
  3  6  1  0
  4  7  1  0
  6  7  1  0
  5  8  1  0
  6  9  1  1
  7 10  1  1
  8 11  1  0
  9 12  1  0
 10 13  2  0
 12 13  1  0
 12 14  1  1
 11 15  1  0
 14 16  1  0
 15 17  1  0
 15 18  2  0
 17 19  1  0
 17 20  1  1
 19 21  1  0
 21 22  2  0
 21 23  1  0
 23 24  1  0
 23 25  1  0
 24 26  1  0
 25 27  1  0
 26 27  1  0
M  END
