x0574_0_A_α-x0849_0_A_α
     RDKit          3D

 13 14  0  0  0  0  0  0  0  0999 V2000
    0.1520   14.0810    2.0950 N   0  0  0  0  0  0  0  0  0  0  0  0
   -0.9270   14.3130    1.3760 C   0  0  0  0  0  0  0  0  0  0  0  0
   -2.0550   14.3540    1.9630 N   0  0  0  0  0  0  0  0  0  0  0  0
   -0.9470   14.5630   -0.3160 S   0  0  0  0  0  0  0  0  0  0  0  0
   -3.0570   14.5640    1.0740 C   0  0  0  0  0  0  0  0  0  0  0  0
   -2.6780   14.7100   -0.2520 C   0  0  0  0  0  0  0  0  0  0  0  0
   -4.3960   14.6290    1.4400 C   0  0  0  0  0  0  0  0  0  0  0  0
   -3.6640   14.9260   -1.2340 C   0  0  0  0  0  0  0  0  0  0  0  0
   -3.2650   15.1280   -3.0680 Br  0  0  0  0  0  0  0  0  0  0  0  0
   -5.3730   14.8320    0.4980 C   0  0  0  0  0  0  0  0  0  0  0  0
   -5.0100   14.9850   -0.8380 C   0  0  0  0  0  0  0  0  0  0  0  0
   -6.7040   14.8930    0.7960 O   0  0  0  0  0  0  0  0  0  0  0  0
   -7.0410   14.5770    2.1530 C   0  0  0  0  0  0  0  0  0  0  0  0
  1  2  1  0
  2  3  2  0
  2  4  1  0
  3  5  1  0
  4  6  1  0
  5  6  2  0
  5  7  1  0
  6  8  1  0
  8  9  1  0
  7 10  2  0
  8 11  2  0
 10 11  1  0
 10 12  1  0
 12 13  1  0
M  END
