x0574_0_A-x0950_0_A
     RDKit          3D

 20 21  0  0  0  0  0  0  0  0999 V2000
    0.4890   14.6410    1.1780 N   0  0  0  0  0  0  0  0  0  0  0  0
   -0.6810   15.2780    0.7790 C   0  0  2  0  0  0  0  0  0  0  0  0
   -1.6150   14.4260    1.2850 N   0  0  0  0  0  0  0  0  0  0  0  0
   -1.0160   14.9490   -0.9630 S   0  0  0  0  0  0  0  0  0  0  0  0
   -1.2220   13.3700    0.3260 C   0  0  0  0  0  0  0  0  0  0  0  0
   -2.8750   14.9860    0.8490 C   0  0  1  0  0  0  0  0  0  0  0  0
   -2.7830   14.6420   -0.6260 C   0  0  1  0  0  0  0  0  0  0  0  0
   -0.5090   13.5870   -1.0670 C   0  0  0  0  0  0  0  0  0  0  0  0
   -4.1980   14.4510    1.4210 C   0  0  0  0  0  0  0  0  0  0  0  0
   -3.8120   15.4210   -1.3430 C   0  0  0  0  0  0  0  0  0  0  0  0
    0.5390   12.5890   -1.2450 O   0  0  0  0  0  0  0  0  0  0  0  0
   -5.3390   14.4590    0.3640 C   0  0  2  0  0  0  0  0  0  0  0  0
   -5.0490   15.3320   -0.8450 C   0  0  0  0  0  0  0  0  0  0  0  0
   -6.5710   14.9210    0.9210 O   0  0  0  0  0  0  0  0  0  0  0  0
    0.6430   11.8840   -2.4350 C   0  0  0  0  0  0  0  0  0  0  0  0
   -6.7680   14.5530    2.2790 C   0  0  0  0  0  0  0  0  0  0  0  0
    1.1190   12.7370   -3.6430 C   0  0  1  0  0  0  0  0  0  0  0  0
    0.4060   10.6680   -2.5230 O   0  0  0  0  0  0  0  0  0  0  0  0
    2.6360   12.9040   -3.7210 C   0  0  0  0  0  0  0  0  0  0  0  0
    0.7010   12.1610   -4.8930 O   0  0  0  0  0  0  0  0  0  0  0  0
  2  1  1  1
  2  3  1  0
  2  4  1  0
  3  5  1  0
  3  6  1  0
  4  7  1  0
  6  7  1  0
  5  8  1  0
  6  9  1  1
  7 10  1  6
  8 11  1  0
  9 12  1  0
 10 13  2  0
 12 13  1  0
 12 14  1  1
 11 15  1  0
 14 16  1  0
 15 17  1  0
 15 18  2  0
 17 19  1  6
 17 20  1  0
M  END
