x0574_0_A-x0962_2_B
     RDKit          3D

 19 21  0  0  0  0  0  0  0  0999 V2000
    0.1230   14.0100    2.0690 N   0  0  0  0  0  0  0  0  0  0  0  0
   -0.9670   14.2720    1.3710 C   0  0  0  0  0  0  0  0  0  0  0  0
   -2.0980   14.2960    1.9670 N   0  0  0  0  0  0  0  0  0  0  0  0
   -0.9980   14.5860   -0.3120 S   0  0  0  0  0  0  0  0  0  0  0  0
   -3.1070   14.5530    1.0940 C   0  0  0  0  0  0  0  0  0  0  0  0
   -2.7220   14.7530   -0.2220 C   0  0  0  0  0  0  0  0  0  0  0  0
   -4.4540   14.6170    1.4470 C   0  0  0  0  0  0  0  0  0  0  0  0
   -3.6800   15.0330   -1.2140 C   0  0  0  0  0  0  0  0  0  0  0  0
   -5.4190   14.8730    0.5030 C   0  0  0  0  0  0  0  0  0  0  0  0
   -5.0320   15.0880   -0.8250 C   0  0  0  0  0  0  0  0  0  0  0  0
   -6.7670   14.9350    0.7640 O   0  0  0  0  0  0  0  0  0  0  0  0
   -7.2900   14.1630    1.8680 C   0  0  0  0  0  0  0  0  0  0  0  0
   -8.0110   14.9650    2.9090 C   0  0  0  0  0  0  0  0  0  0  0  0
   -9.1200   15.7820    2.8230 C   0  0  0  0  0  0  0  0  0  0  0  0
   -7.5610   14.9520    4.2060 N   0  0  0  0  0  0  0  0  0  0  0  0
   -9.9390   16.1130    1.7180 C   0  0  0  0  0  0  0  0  0  0  0  0
   -9.3110   16.2650    4.0900 N   0  0  0  0  0  0  0  0  0  0  0  0
   -8.3430   15.7340    4.8840 C   0  0  0  0  0  0  0  0  0  0  0  0
  -10.6520   16.4260    0.8600 N   0  0  0  0  0  0  0  0  0  0  0  0
  1  2  1  0
  2  3  2  0
  2  4  1  0
  3  5  1  0
  4  6  1  0
  5  6  2  0
  5  7  1  0
  6  8  1  0
  7  9  2  0
  8 10  2  0
  9 10  1  0
  9 11  1  0
 11 12  1  0
 12 13  1  0
 13 14  2  0
 13 15  1  0
 14 16  1  0
 14 17  1  0
 15 18  2  0
 17 18  1  0
 16 19  3  0
M  END
