x0574_0_A_α-x0685_1_A_α
     RDKit          3D

 26 28  0  0  0  0  0  0  0  0999 V2000
    0.0750   13.8010    2.1690 N   0  0  0  0  0  0  0  0  0  0  0  0
   -1.0000   14.2500    1.5190 C   0  0  0  0  0  0  0  0  0  0  0  0
   -1.9410   14.9400    2.0410 N   0  0  0  0  0  0  0  0  0  0  0  0
   -1.2920   13.9610   -0.1560 S   0  0  0  0  0  0  0  0  0  0  0  0
   -0.2570   12.9700   -1.2260 C   0  0  0  0  0  0  0  0  0  0  0  0
   -3.0160   15.3760    1.0790 C   0  0  1  0  0  0  0  0  0  0  0  0
   -2.7930   14.8190   -0.2900 C   0  0  0  0  0  0  0  0  0  0  0  0
    0.2940   13.5490   -2.3450 O   0  0  0  0  0  0  0  0  0  0  0  0
   -4.3940   15.0470    1.4710 C   0  0  0  0  0  0  0  0  0  0  0  0
   -3.7440   15.0440   -1.3540 C   0  0  0  0  0  0  0  0  0  0  0  0
    0.9070   12.4600   -3.3170 S   0  0  0  0  0  0  0  0  0  0  0  0
   -5.3440   14.9170    0.5350 C   0  0  0  0  0  0  0  0  0  0  0  0
   -5.0150   15.0900   -0.8870 C   0  0  0  0  0  0  0  0  0  0  0  0
   -6.6630   14.6260    0.7800 O   0  0  0  0  0  0  0  0  0  0  0  0
    0.0750   12.7240   -4.8560 C   0  0  0  0  0  0  0  0  0  0  0  0
    2.4930   12.5380   -3.5280 O   0  0  0  0  0  0  0  0  0  0  0  0
    0.4830   10.9880   -2.8290 O   0  0  0  0  0  0  0  0  0  0  0  0
   -7.0050   14.4600    2.1610 C   0  0  0  0  0  0  0  0  0  0  0  0
   -1.3270   12.1340   -4.7690 C   0  0  0  0  0  0  0  0  0  0  0  0
   -1.3740   10.7040   -5.0620 N   0  0  0  0  0  0  0  0  0  0  0  0
   -0.7770   10.3710   -6.3530 C   0  0  0  0  0  0  0  0  0  0  0  0
   -0.6300    8.8500   -6.4860 C   0  0  0  0  0  0  0  0  0  0  0  0
   -1.5930   10.9090   -7.5400 C   0  0  0  0  0  0  0  0  0  0  0  0
    0.0530    8.4750   -7.7990 C   0  0  0  0  0  0  0  0  0  0  0  0
   -0.9580   10.5510   -8.8800 C   0  0  0  0  0  0  0  0  0  0  0  0
   -0.7130    9.0460   -8.9980 C   0  0  0  0  0  0  0  0  0  0  0  0
  1  2  1  0
  2  3  2  0
  2  4  1  0
  4  5  1  0
  3  6  1  0
  4  7  2  0
  6  7  1  0
  5  8  1  0
  6  9  1  1
  7 10  1  0
 11  8  1  0
  9 12  2  0
 10 13  2  0
 12 13  1  0
 12 14  1  0
 11 15  1  0
 11 16  1  0
 11 17  1  0
 14 18  1  0
 15 19  1  0
 19 20  1  0
 20 21  1  0
 21 22  1  0
 21 23  1  0
 22 24  1  0
 23 25  1  0
 24 26  1  0
 25 26  1  0
M  END
