x0574_0_A-x1015_0_A
     RDKit          3D

 28 31  0  0  0  0  0  0  0  0999 V2000
    0.0350   13.8180    1.5010 N   0  0  0  0  0  0  0  0  0  0  0  0
   -1.1060   14.3840    1.0290 C   0  0  0  0  0  0  0  0  0  0  0  0
   -2.0010   14.6680    1.8850 N   0  0  0  0  0  0  0  0  0  0  0  0
   -1.2860   14.6220   -0.8150 S   0  0  0  0  0  0  0  0  0  0  0  0
    0.3840   14.2300   -0.2940 C   0  0  0  0  0  0  0  0  0  0  0  0
   -3.1220   15.2280    1.2150 C   0  0  1  0  0  0  0  0  0  0  0  0
   -2.8880   15.0730   -0.2090 C   0  0  0  0  0  0  0  0  0  0  0  0
    0.9310   14.4790   -1.6180 N   0  0  0  0  0  0  0  0  0  0  0  0
   -4.4810   14.7820    1.5560 C   0  0  0  0  0  0  0  0  0  0  0  0
   -3.9570   15.3800   -1.1550 C   0  0  0  0  0  0  0  0  0  0  0  0
   -5.4620   14.8050    0.6630 C   0  0  0  0  0  0  0  0  0  0  0  0
   -5.1960   15.2430   -0.6880 C   0  0  0  0  0  0  0  0  0  0  0  0
    0.4740   13.6550   -2.4720 C   0  0  0  0  0  0  0  0  0  0  0  0
   -6.7620   14.4530    0.8900 O   0  0  0  0  0  0  0  0  0  0  0  0
    0.5640   13.4640   -3.9770 C   0  0  2  0  0  0  0  0  0  0  0  0
   -0.2970   12.6600   -2.0040 N   0  0  0  0  0  0  0  0  0  0  0  0
   -7.1390   14.4440    2.2670 C   0  0  0  0  0  0  0  0  0  0  0  0
   -0.5340   14.3110   -4.6340 C   0  0  0  0  0  0  0  0  0  0  0  0
    0.2340   12.0320   -4.0070 N   0  0  0  0  0  0  0  0  0  0  0  0
    0.0950   11.5730   -2.6980 C   0  0  0  0  0  0  0  0  0  0  0  0
    0.2770   10.4550   -2.2200 O   0  0  0  0  0  0  0  0  0  0  0  0
   -0.2730   11.3390   -5.1310 C   0  0  0  0  0  0  0  0  0  0  0  0
    0.1980   11.5680   -6.4260 C   0  0  0  0  0  0  0  0  0  0  0  0
   -1.2820   10.3760   -4.9550 C   0  0  0  0  0  0  0  0  0  0  0  0
   -0.3180   10.8560   -7.5140 C   0  0  0  0  0  0  0  0  0  0  0  0
   -1.8010    9.6620   -6.0380 C   0  0  0  0  0  0  0  0  0  0  0  0
   -1.3130    9.9050   -7.3140 C   0  0  0  0  0  0  0  0  0  0  0  0
   -1.9450    9.0210   -8.6460 Cl  0  0  0  0  0  0  0  0  0  0  0  0
  1  2  1  0
  2  3  2  0
  2  4  1  0
  4  5  1  0
  3  6  1  0
  4  7  2  0
  6  7  1  0
  5  8  1  0
  6  9  1  1
  7 10  1  0
  9 11  2  0
 10 12  2  0
 11 12  1  0
  8 13  2  3
 11 14  1  0
 13 15  1  0
 13 16  1  0
 14 17  1  0
 15 18  1  6
 15 19  1  0
 16 20  1  0
 19 20  1  0
 20 21  2  0
 19 22  1  0
 22 23  2  0
 22 24  1  0
 23 25  1  0
 24 26  2  0
 25 27  2  0
 26 27  1  0
 27 28  1  0
M  END
