x0574_0_A_α-x1012_0_A_α
     RDKit          3D

 25 27  0  0  0  0  0  0  0  0999 V2000
    0.5550   15.1970    0.9580 N   0  0  0  0  0  0  0  0  0  0  0  0
   -0.8440   15.2150    0.6560 C   0  0  2  0  0  0  0  0  0  0  0  0
   -1.3270   14.0170    1.0860 N   0  0  0  0  0  0  0  0  0  0  0  0
   -1.0510   14.9600   -1.1070 S   0  0  0  0  0  0  0  0  0  0  0  0
   -0.4180   13.2720    0.2160 C   0  0  0  0  0  0  0  0  0  0  0  0
   -2.7470   13.9740    0.6000 C   0  0  2  0  0  0  0  0  0  0  0  0
   -2.7340   14.3710   -0.8840 C   0  0  1  0  0  0  0  0  0  0  0  0
   -0.1050   13.7180   -1.1420 N   0  0  0  0  0  0  0  0  0  0  0  0
   -3.9840   14.5150    1.3740 C   0  0  0  0  0  0  0  0  0  0  0  0
   -3.7700   15.3550   -1.3320 C   0  0  0  0  0  0  0  0  0  0  0  0
    0.1030   12.9040   -2.1340 C   0  0  0  0  0  0  0  0  0  0  0  0
   -5.2310   14.5780    0.4650 C   0  0  2  0  0  0  0  0  0  0  0  0
   -4.9370   15.4460   -0.7020 C   0  0  0  0  0  0  0  0  0  0  0  0
   -6.4670   15.0230    1.0270 O   0  0  0  0  0  0  0  0  0  0  0  0
    0.1020   11.5470   -2.0920 O   0  0  0  0  0  0  0  0  0  0  0  0
    0.3470   13.4270   -3.5370 C   0  0  0  0  0  0  0  0  0  0  0  0
   -6.7070   14.5960    2.3560 C   0  0  0  0  0  0  0  0  0  0  0  0
   -0.9870   13.4750   -4.3050 C   0  0  0  0  0  0  0  0  0  0  0  0
    1.0500   14.7970   -3.5240 C   0  0  0  0  0  0  0  0  0  0  0  0
   -1.6180   14.8710   -4.4110 C   0  0  0  0  0  0  0  0  0  0  0  0
    0.7220   15.6190   -4.7680 C   0  0  0  0  0  0  0  0  0  0  0  0
   -0.7050   15.9350   -4.8340 N   0  0  0  0  0  0  0  0  0  0  0  0
   -1.2160   17.2100   -4.7870 C   0  0  0  0  0  0  0  0  0  0  0  0
   -0.3250   18.2230   -4.7420 N   0  0  0  0  0  0  0  0  0  0  0  0
   -2.4080   17.4910   -4.7720 O   0  0  0  0  0  0  0  0  0  0  0  0
  2  1  1  6
  2  3  1  0
  2  4  1  0
  3  5  1  0
  3  6  1  0
  4  7  1  0
  6  7  1  0
  5  8  1  0
  6  9  1  1
  7 10  1  1
  8 11  2  3
  9 12  1  0
 10 13  2  0
 12 13  1  0
 12 14  1  1
 11 15  1  0
 11 16  1  0
 14 17  1  0
 16 18  1  0
 16 19  1  0
 18 20  1  0
 19 21  1  0
 20 22  1  0
 21 22  1  0
 22 23  1  0
 23 24  1  0
 23 25  2  0
M  END
