x0574_0_A-x0864_0_A
     RDKit          3D

 26 28  0  0  0  0  0  0  0  0999 V2000
    0.3150   14.3880    1.3860 N   0  0  0  0  0  0  0  0  0  0  0  0
   -0.9620   14.9320    1.1520 C   0  0  2  0  0  0  0  0  0  0  0  0
   -1.8270   13.8500    0.9520 N   0  0  0  0  0  0  0  0  0  0  0  0
   -1.1710   15.8060   -0.4210 S   0  0  0  0  0  0  0  0  0  0  0  0
   -1.6280   13.4810   -0.4900 C   0  0  0  0  0  0  0  0  0  0  0  0
   -3.0010   14.6930    0.9270 C   0  0  1  0  0  0  0  0  0  0  0  0
   -2.7940   15.0050   -0.5520 C   0  0  1  0  0  0  0  0  0  0  0  0
   -0.1950   13.4840   -1.1030 C   0  0  0  0  0  0  0  0  0  0  0  0
   -4.3770   14.1410    1.3300 C   0  0  0  0  0  0  0  0  0  0  0  0
   -3.9130   15.7030   -1.1740 C   0  0  0  0  0  0  0  0  0  0  0  0
    0.0930   12.1280   -1.4800 N   0  0  0  0  0  0  0  0  0  0  0  0
   -5.4780   14.3950    0.2690 C   0  0  2  0  0  0  0  0  0  0  0  0
   -5.1560   15.4200   -0.7870 C   0  0  0  0  0  0  0  0  0  0  0  0
   -6.6870   14.8580    0.8840 O   0  0  0  0  0  0  0  0  0  0  0  0
    0.3620   11.6270   -2.6240 C   0  0  0  0  0  0  0  0  0  0  0  0
   -6.8400   14.4900    2.2500 C   0  0  0  0  0  0  0  0  0  0  0  0
    0.4880   12.3680   -3.9690 C   0  0  0  0  0  0  0  0  0  0  0  0
    0.5440   10.2980   -2.7100 O   0  0  0  0  0  0  0  0  0  0  0  0
   -0.2360   11.7070   -5.0620 N   0  0  0  0  0  0  0  0  0  0  0  0
   -1.4710   11.1470   -4.8040 C   0  0  0  0  0  0  0  0  0  0  0  0
    0.4570   11.4360   -6.2460 C   0  0  0  0  0  0  0  0  0  0  0  0
    1.4510   12.0430   -6.6270 O   0  0  0  0  0  0  0  0  0  0  0  0
   -1.9750   10.1890   -5.5910 C   0  0  0  0  0  0  0  0  0  0  0  0
   -0.0640   10.3090   -7.0640 C   0  0  0  0  0  0  0  0  0  0  0  0
   -1.2240    9.7260   -6.7330 C   0  0  0  0  0  0  0  0  0  0  0  0
   -1.9330    8.3000   -7.7060 Br  0  0  0  0  0  0  0  0  0  0  0  0
  2  1  1  6
  2  3  1  0
  2  4  1  0
  3  5  1  0
  3  6  1  0
  4  7  1  0
  6  7  1  0
  5  8  1  0
  6  9  1  6
  7 10  1  1
  8 11  1  0
  9 12  1  0
 10 13  2  0
 12 13  1  0
 12 14  1  1
 11 15  2  3
 14 16  1  0
 15 17  1  0
 15 18  1  0
 17 19  1  0
 19 20  1  0
 19 21  1  0
 21 22  2  0
 20 23  2  0
 21 24  1  0
 23 25  1  0
 24 25  2  0
 25 26  1  0
M  END
