x0574_0_A-x0962_2_B
     RDKit          3D

 19 21  0  0  0  0  0  0  0  0999 V2000
    0.1240   13.9960    2.0630 N   0  0  0  0  0  0  0  0  0  0  0  0
   -0.9620   14.2640    1.3620 C   0  0  0  0  0  0  0  0  0  0  0  0
   -2.0930   14.2800    1.9520 N   0  0  0  0  0  0  0  0  0  0  0  0
   -0.9900   14.6010   -0.3180 S   0  0  0  0  0  0  0  0  0  0  0  0
   -3.1000   14.5510    1.0800 C   0  0  0  0  0  0  0  0  0  0  0  0
   -2.7120   14.7710   -0.2290 C   0  0  0  0  0  0  0  0  0  0  0  0
   -4.4450   14.6090    1.4360 C   0  0  0  0  0  0  0  0  0  0  0  0
   -3.6680   15.0700   -1.2180 C   0  0  0  0  0  0  0  0  0  0  0  0
   -5.4090   14.8850    0.4940 C   0  0  0  0  0  0  0  0  0  0  0  0
   -5.0200   15.1210   -0.8290 C   0  0  0  0  0  0  0  0  0  0  0  0
   -6.7580   14.9440    0.7580 O   0  0  0  0  0  0  0  0  0  0  0  0
   -7.2710   14.1790    1.8710 C   0  0  0  0  0  0  0  0  0  0  0  0
   -7.9970   14.9760    2.9180 C   0  0  0  0  0  0  0  0  0  0  0  0
   -9.1050   15.7900    2.8340 C   0  0  0  0  0  0  0  0  0  0  0  0
   -7.5460   14.9560    4.2160 N   0  0  0  0  0  0  0  0  0  0  0  0
   -9.9210   16.1280    1.7300 C   0  0  0  0  0  0  0  0  0  0  0  0
   -9.2990   16.2660    4.1070 N   0  0  0  0  0  0  0  0  0  0  0  0
   -8.3340   15.7340    4.9010 C   0  0  0  0  0  0  0  0  0  0  0  0
  -10.6350   16.4290    0.8710 N   0  0  0  0  0  0  0  0  0  0  0  0
  1  2  1  0
  2  3  2  0
  2  4  1  0
  3  5  1  0
  4  6  1  0
  5  6  2  0
  5  7  1  0
  6  8  1  0
  7  9  2  0
  8 10  2  0
  9 10  1  0
  9 11  1  0
 11 12  1  0
 12 13  1  0
 13 14  2  0
 13 15  1  0
 14 16  1  0
 14 17  1  0
 15 18  2  0
 17 18  1  0
 16 19  3  0
M  END
