x0574_0_A-x0711_0_A
     RDKit          3D

 19 20  0  0  0  0  0  0  0  0999 V2000
    0.2360   14.0340    2.3280 N   0  0  0  0  0  0  0  0  0  0  0  0
   -0.7660   14.2590    1.5420 C   0  0  0  0  0  0  0  0  0  0  0  0
   -1.9360   14.3150    2.0210 N   0  0  0  0  0  0  0  0  0  0  0  0
   -0.5950   14.4870   -0.1300 S   0  0  0  0  0  0  0  0  0  0  0  0
   -2.8310   14.5260    1.0460 C   0  0  0  0  0  0  0  0  0  0  0  0
   -2.3030   14.6510   -0.2290 C   0  0  0  0  0  0  0  0  0  0  0  0
   -4.1850   14.6100    1.2700 C   0  0  0  0  0  0  0  0  0  0  0  0
   -3.1200   14.8700   -1.3270 C   0  0  0  0  0  0  0  0  0  0  0  0
   -2.5170   14.9960   -2.6470 N   0  0  0  0  0  0  0  0  0  0  0  0
   -5.0540   14.8200    0.2290 C   0  0  0  0  0  0  0  0  0  0  0  0
   -4.5190   14.9560   -1.0770 C   0  0  0  0  0  0  0  0  0  0  0  0
   -6.4310   14.8770    0.5550 N   0  0  0  0  0  0  0  0  0  0  0  0
   -1.0760   14.1940   -3.1230 S   0  0  0  0  0  0  0  0  0  0  0  0
   -6.8520   14.5470    1.9190 C   0  0  0  0  0  0  0  0  0  0  0  0
   -1.6750   13.0400   -4.3360 C   0  0  0  0  0  0  0  0  0  0  0  0
   -0.2700   15.1620   -3.8430 O   0  0  0  0  0  0  0  0  0  0  0  0
   -0.4970   13.4060   -2.0610 O   0  0  0  0  0  0  0  0  0  0  0  0
   -7.4060   14.9940   -0.4000 C   0  0  0  0  0  0  0  0  0  0  0  0
   -8.4190   14.3220   -0.4490 O   0  0  0  0  0  0  0  0  0  0  0  0
  1  2  1  0
  2  3  2  0
  2  4  1  0
  3  5  1  0
  4  6  1  0
  5  6  2  0
  5  7  1  0
  6  8  1  0
  8  9  1  0
  7 10  2  0
  8 11  2  0
 10 11  1  0
 10 12  1  0
 13  9  1  0
 12 14  1  0
 13 15  1  0
 13 16  2  0
 13 17  2  0
 12 18  1  0
 18 19  2  0
M  END
