x0574_0_A-x0950_1_A
     RDKit          3D

 20 21  0  0  0  0  0  0  0  0999 V2000
    0.5180   13.8840    0.0500 N   0  0  0  0  0  0  0  0  0  0  0  0
   -0.5450   14.5480    0.7020 C   0  0  2  0  0  0  0  0  0  0  0  0
   -1.6470   13.6350    0.6800 N   0  0  0  0  0  0  0  0  0  0  0  0
   -1.0850   15.9140   -0.3390 S   0  0  0  0  0  0  0  0  0  0  0  0
   -1.8920   13.2740   -0.7720 C   0  0  0  0  0  0  0  0  0  0  0  0
   -2.7410   14.5800    0.9090 C   0  0  1  0  0  0  0  0  0  0  0  0
   -2.6680   15.0720   -0.5100 C   0  0  1  0  0  0  0  0  0  0  0  0
   -0.9640   12.3420   -1.6110 C   0  0  0  0  0  0  0  0  0  0  0  0
   -4.1360   14.0710    1.3510 C   0  0  0  0  0  0  0  0  0  0  0  0
   -3.8400   15.7560   -1.0440 C   0  0  0  0  0  0  0  0  0  0  0  0
    0.1870   12.9400   -2.2470 O   0  0  0  0  0  0  0  0  0  0  0  0
   -5.3190   14.3640    0.3880 C   0  0  2  0  0  0  0  0  0  0  0  0
   -5.0590   15.4370   -0.6330 C   0  0  0  0  0  0  0  0  0  0  0  0
   -6.4990   14.7920    1.0890 O   0  0  0  0  0  0  0  0  0  0  0  0
    0.6920   12.0220   -3.1080 C   0  0  0  0  0  0  0  0  0  0  0  0
   -6.5230   14.4890    2.4780 C   0  0  0  0  0  0  0  0  0  0  0  0
    1.3620   12.5880   -4.3730 C   0  0  2  0  0  0  0  0  0  0  0  0
    0.5920   10.8190   -2.8910 O   0  0  0  0  0  0  0  0  0  0  0  0
    1.1050   14.0640   -4.6130 C   0  0  0  0  0  0  0  0  0  0  0  0
    0.8800   11.8860   -5.5210 O   0  0  0  0  0  0  0  0  0  0  0  0
  2  1  1  6
  2  3  1  0
  2  4  1  0
  3  5  1  0
  3  6  1  0
  4  7  1  0
  6  7  1  0
  5  8  1  0
  6  9  1  6
  7 10  1  1
  8 11  1  0
  9 12  1  0
 10 13  2  0
 12 13  1  0
 12 14  1  1
 11 15  1  0
 14 16  1  0
 15 17  1  0
 15 18  2  0
 17 19  1  6
 17 20  1  0
M  END
