x0587_0_A_α-x0574_0_A_α
     RDKit          3D

 24 26  0  0  0  0  0  0  0  0999 V2000
   -7.6740   13.5250    2.9380 N   0  0  0  0  0  0  0  0  0  0  0  0
   -7.4700   14.4990    1.9020 C   0  0  1  0  0  0  0  0  0  0  0  0
   -8.6780   15.2300    1.7510 O   0  0  0  0  0  0  0  0  0  0  0  0
   -6.4130   15.4050    2.1640 O   0  0  0  0  0  0  0  0  0  0  0  0
   -6.9510   14.1080    0.5910 C   0  0  0  0  0  0  0  0  0  0  0  0
   -7.5080   14.5440   -0.5900 C   0  0  0  0  0  0  0  0  0  0  0  0
   -5.8370   13.3170    0.4720 C   0  0  0  0  0  0  0  0  0  0  0  0
   -5.2470   15.2770    1.4000 C   0  0  0  0  0  0  0  0  0  0  0  0
   -6.9990   14.2550   -1.7980 N   0  0  0  0  0  0  0  0  0  0  0  0
   -5.2840   13.0000   -0.7000 N   0  0  0  0  0  0  0  0  0  0  0  0
   -4.0770   14.9430    1.9490 C   0  0  0  0  0  0  0  0  0  0  0  0
   -5.2540   15.4830   -0.0090 C   0  0  0  0  0  0  0  0  0  0  0  0
   -5.8740   13.4950   -1.8070 C   0  0  0  0  0  0  0  0  0  0  0  0
   -2.9560   14.7390    1.2510 C   0  0  0  0  0  0  0  0  0  0  0  0
   -4.0830   15.3010   -0.7870 C   0  0  0  0  0  0  0  0  0  0  0  0
   -5.2010   13.1820   -3.1290 C   0  0  0  0  0  0  0  0  0  0  0  0
   -2.9190   14.8980   -0.1060 C   0  0  0  0  0  0  0  0  0  0  0  0
   -1.8460   14.3590    1.8830 N   0  0  0  0  0  0  0  0  0  0  0  0
   -4.6100   14.2900   -3.6820 F   0  0  0  0  0  0  0  0  0  0  0  0
   -6.0260   12.6690   -4.0820 F   0  0  0  0  0  0  0  0  0  0  0  0
   -4.1830   12.2870   -3.0110 F   0  0  0  0  0  0  0  0  0  0  0  0
   -0.9400   14.1800    1.0390 C   0  0  0  0  0  0  0  0  0  0  0  0
   -1.3150   14.5120   -0.6050 S   0  0  0  0  0  0  0  0  0  0  0  0
    0.2000   13.7480    1.4720 N   0  0  0  0  0  0  0  0  0  0  0  0
  2  1  1  1
  2  3  1  0
  2  4  1  0
  2  5  1  0
  5  6  2  0
  5  7  1  0
  4  8  1  0
  6  9  1  0
  7 10  2  0
  8 11  2  0
  8 12  1  0
  9 13  2  0
 10 13  1  0
 11 14  1  0
 12 15  2  0
 13 16  1  0
 14 17  2  0
 15 17  1  0
 14 18  1  0
 16 19  1  0
 16 20  1  0
 16 21  1  0
 18 22  2  0
 17 23  1  0
 22 23  1  0
 22 24  1  0
M  END
