x0587_0_A_α-x0895_0_A_α
     RDKit          3D

 19 20  0  0  0  0  0  0  0  0999 V2000
   -7.8440   14.7920    3.9770 N   0  0  0  0  0  0  0  0  0  0  0  0
   -8.3810   14.8120    2.6650 C   0  0  0  0  0  0  0  0  0  0  0  0
   -9.6300   14.8980    2.5460 O   0  0  0  0  0  0  0  0  0  0  0  0
   -7.5140   14.7570    1.4950 C   0  0  0  0  0  0  0  0  0  0  0  0
   -7.9730   14.6990    0.2020 C   0  0  0  0  0  0  0  0  0  0  0  0
   -6.1540   14.7750    1.6730 C   0  0  0  0  0  0  0  0  0  0  0  0
   -7.0700   14.6710   -0.8040 N   0  0  0  0  0  0  0  0  0  0  0  0
   -5.2980   14.7460    0.6260 N   0  0  0  0  0  0  0  0  0  0  0  0
   -5.7700   14.6990   -0.5990 C   0  0  0  0  0  0  0  0  0  0  0  0
   -4.6000   14.6670   -1.9800 S   0  0  0  0  0  0  0  0  0  0  0  0
   -4.3200   14.6960   -3.3770 F   0  0  0  0  0  0  0  0  0  0  0  0
   -3.0690   14.4920   -1.7020 F   0  0  0  0  0  0  0  0  0  0  0  0
   -5.9510   14.8090   -2.1320 F   0  0  0  0  0  0  0  0  0  0  0  0
   -3.7620   14.5210   -0.4220 C   0  0  0  0  0  0  0  0  0  0  0  0
   -4.3160   14.5310    0.8550 N   0  0  0  0  0  0  0  0  0  0  0  0
   -2.3590   14.3800   -0.2400 N   0  0  0  0  0  0  0  0  0  0  0  0
   -3.4450   15.4150    1.5560 C   0  0  0  0  0  0  0  0  0  0  0  0
   -2.1920   14.7430    1.1490 C   0  0  0  0  0  0  0  0  0  0  0  0
   -1.2040   14.5260    1.8710 O   0  0  0  0  0  0  0  0  0  0  0  0
  1  2  1  0
  2  3  2  0
  2  4  1  0
  4  5  2  0
  4  6  1  0
  5  7  1  0
  6  8  2  0
  7  9  2  0
  8  9  1  0
  9 10  1  0
 10 11  1  0
 10 12  1  0
 10 13  1  0
 10 14  2  3
 14 15  1  0
 14 16  1  0
 15 17  1  0
 16 18  1  0
 17 18  1  0
 18 19  2  0
M  END
