x0587_0_A-x0685_0_A
     RDKit          3D

 14 14  0  0  0  0  0  0  0  0999 V2000
   -7.7220   14.8770    4.1280 N   0  0  0  0  0  0  0  0  0  0  0  0
   -8.2120   14.9300    2.8610 C   0  0  0  0  0  0  0  0  0  0  0  0
   -9.4110   15.1090    2.6590 O   0  0  0  0  0  0  0  0  0  0  0  0
   -7.2660   14.7860    1.7390 C   0  0  0  0  0  0  0  0  0  0  0  0
   -7.7550   14.5920    0.4740 C   0  0  0  0  0  0  0  0  0  0  0  0
   -5.8840   14.8390    1.8310 C   0  0  0  0  0  0  0  0  0  0  0  0
   -6.9720   14.4670   -0.6140 N   0  0  0  0  0  0  0  0  0  0  0  0
   -5.0400   14.7190    0.7640 N   0  0  0  0  0  0  0  0  0  0  0  0
   -5.6310   14.5360   -0.4470 C   0  0  0  0  0  0  0  0  0  0  0  0
   -4.8260   14.3870   -1.7400 C   0  0  0  0  0  0  0  0  0  0  0  0
   -3.4150   14.7390   -1.6960 C   0  0  0  0  0  0  0  0  0  0  0  0
   -4.8710   13.1070   -2.2140 F   0  0  0  0  0  0  0  0  0  0  0  0
   -5.3560   15.1300   -2.7490 F   0  0  0  0  0  0  0  0  0  0  0  0
   -2.2960   14.9770   -1.7890 N   0  0  0  0  0  0  0  0  0  0  0  0
  1  2  1  0
  2  3  2  0
  2  4  1  0
  4  5  2  0
  4  6  1  0
  5  7  1  0
  6  8  2  0
  7  9  2  0
  8  9  1  0
  9 10  1  0
 10 11  1  0
 10 12  1  0
 10 13  1  0
 11 14  3  0
M  END
