x0587_0_A-x0905_0_A
     RDKit          3D

 19 20  0  0  0  0  0  0  0  0999 V2000
   -7.6450   15.1900    4.0500 N   0  0  0  0  0  0  0  0  0  0  0  0
   -8.2770   15.0420    2.8480 C   0  0  0  0  0  0  0  0  0  0  0  0
   -9.2760   15.7230    2.6180 O   0  0  0  0  0  0  0  0  0  0  0  0
   -7.7470   14.0400    1.8320 C   0  0  1  0  0  0  0  0  0  0  0  0
   -8.0210   14.5340    0.4020 C   0  0  0  0  0  0  0  0  0  0  0  0
   -6.2980   13.6300    2.0670 C   0  0  0  0  0  0  0  0  0  0  0  0
   -6.9500   14.3460   -0.6190 N   0  0  0  0  0  0  0  0  0  0  0  0
   -5.8520   12.8660    0.9160 N   0  0  0  0  0  0  0  0  0  0  0  0
   -5.6510   13.7990   -0.1790 C   0  0  1  0  0  0  0  0  0  0  0  0
   -6.5170   15.6910   -0.9230 O   0  0  0  0  0  0  0  0  0  0  0  0
   -4.7530   13.2560   -1.3470 C   0  0  0  0  0  0  0  0  0  0  0  0
   -5.1560   15.7120   -0.6910 C   0  0  0  0  0  0  0  0  0  0  0  0
   -5.0450   11.9490   -1.5890 F   0  0  0  0  0  0  0  0  0  0  0  0
   -4.9980   13.9090   -2.5170 F   0  0  0  0  0  0  0  0  0  0  0  0
   -4.8370   15.6970    0.6260 N   0  0  0  0  0  0  0  0  0  0  0  0
   -4.1940   15.7310   -1.6840 C   0  0  0  0  0  0  0  0  0  0  0  0
   -3.5390   15.6960    0.9570 C   0  0  0  0  0  0  0  0  0  0  0  0
   -2.8540   15.7350   -1.3150 C   0  0  0  0  0  0  0  0  0  0  0  0
   -2.5140   15.7160    0.0340 C   0  0  0  0  0  0  0  0  0  0  0  0
  1  2  1  0
  2  3  2  0
  4  2  1  1
  4  5  1  0
  4  6  1  0
  5  7  1  0
  6  8  1  0
  7  9  1  0
  8  9  1  0
  7 10  1  0
  9 11  1  6
 10 12  1  0
 11 13  1  0
 11 14  1  0
 12 15  2  0
 12 16  1  0
 15 17  1  0
 16 18  2  0
 17 19  2  0
 18 19  1  0
M  END
