x0587_0_A-x0626_0_A
     RDKit          3D

 21 23  0  0  0  0  0  0  0  0999 V2000
   -7.3350   13.7970    2.2320 N   0  0  0  0  0  0  0  0  0  0  0  0
   -6.6810   13.6120    0.7340 S   0  0  0  0  0  0  0  0  0  0  0  0
   -7.5770   14.7920    0.5520 O   0  0  0  0  0  0  0  0  0  0  0  0
   -6.0260   12.2150    1.1950 C   0  0  0  0  0  0  0  0  0  0  0  0
   -5.3440   14.3750   -0.2780 C   0  0  0  0  0  0  0  0  0  0  0  0
   -5.5000   14.2690    0.5130 C   0  0  2  0  0  0  0  0  0  0  0  0
   -6.3340   13.5020   -1.2430 S   0  0  0  0  0  0  0  0  0  0  0  0
   -4.3050   15.2190   -0.6860 N   0  0  0  0  0  0  0  0  0  0  0  0
   -4.2560   13.6580    1.0370 C   0  0  0  0  0  0  0  0  0  0  0  0
   -5.2340   15.6700    0.6020 N   0  0  0  0  0  0  0  0  0  0  0  0
   -6.4160   13.3160   -2.5060 F   0  0  0  0  0  0  0  0  0  0  0  0
   -5.1000   14.4010   -2.0120 F   0  0  0  0  0  0  0  0  0  0  0  0
   -7.1810   12.9090   -0.5320 F   0  0  0  0  0  0  0  0  0  0  0  0
   -3.5450   14.5240    1.6940 C   0  0  0  0  0  0  0  0  0  0  0  0
   -2.9280   14.8720   -0.6550 C   0  0  0  0  0  0  0  0  0  0  0  0
   -4.2470   15.8180    1.6530 C   0  0  0  0  0  0  0  0  0  0  0  0
   -2.2010   14.6590    0.3910 N   0  0  0  0  0  0  0  0  0  0  0  0
   -1.8230   14.6510   -1.9350 S   0  0  0  0  0  0  0  0  0  0  0  0
   -0.4440   14.2960   -0.9920 C   0  0  0  0  0  0  0  0  0  0  0  0
   -0.9610   14.3650    0.2790 C   0  0  0  0  0  0  0  0  0  0  0  0
   -0.1110   14.1020    1.4910 C   0  0  0  0  0  0  0  0  0  0  0  0
  1  2  1  0
  2  3  2  0
  2  4  1  0
  2  5  1  0
  2  6  1  0
  5  7  2  0
  6  7  1  0
  5  8  1  0
  6  9  1  1
  6 10  1  0
  7 11  1  0
  7 12  1  0
  7 13  1  0
  9 14  2  0
  8 15  1  0
 10 16  1  0
 14 16  1  0
 15 17  2  0
 15 18  1  0
 18 19  1  0
 17 20  1  0
 19 20  2  0
 20 21  1  0
M  END
