x0587_0_A_α-x0524_0_A_α
     RDKit          3D

 35 37  0  0  0  0  0  0  0  0999 V2000
   -7.7290   14.9080    4.0950 N   0  0  0  0  0  0  0  0  0  0  0  0
   -8.2440   14.8840    2.8330 C   0  0  0  0  0  0  0  0  0  0  0  0
   -9.4530   14.9780    2.6430 O   0  0  0  0  0  0  0  0  0  0  0  0
   -7.3110   14.7630    1.7040 C   0  0  0  0  0  0  0  0  0  0  0  0
   -7.6900   14.5640    0.3990 C   0  0  0  0  0  0  0  0  0  0  0  0
   -5.9490   14.8640    1.9080 C   0  0  0  0  0  0  0  0  0  0  0  0
   -6.8150   14.4770   -0.6280 N   0  0  0  0  0  0  0  0  0  0  0  0
   -5.0280   14.7850    0.9230 N   0  0  0  0  0  0  0  0  0  0  0  0
   -5.4910   14.5950   -0.3350 C   0  0  0  0  0  0  0  0  0  0  0  0
   -4.4750   14.5140   -1.4930 C   0  0  0  0  0  0  0  0  0  0  0  0
   -3.2020   14.8140   -1.0910 F   0  0  0  0  0  0  0  0  0  0  0  0
   -4.4170   13.2220   -2.1210 O   0  0  0  0  0  0  0  0  0  0  0  0
   -4.7330   15.4120   -2.4860 F   0  0  0  0  0  0  0  0  0  0  0  0
   -3.3910   12.3700   -1.6200 C   0  0  0  0  0  0  0  0  0  0  0  0
   -2.3380   12.1420   -2.7110 C   0  0  0  0  0  0  0  0  0  0  0  0
   -1.9030   10.6730   -2.8370 C   0  0  0  0  0  0  0  0  0  0  0  0
   -1.2610   10.3440   -4.1980 C   0  0  0  0  0  0  0  0  0  0  0  0
   -1.8780    9.1720   -4.9880 C   0  0  0  0  0  0  0  0  0  0  0  0
   -2.1330    9.4190   -6.4750 C   0  0  0  0  0  0  0  0  0  0  0  0
   -0.8510    9.6310   -7.2410 C   0  0  0  0  0  0  0  0  0  0  0  0
   -0.2960    8.6680   -8.0240 N   0  0  0  0  0  0  0  0  0  0  0  0
   -0.2410   10.7000   -7.1830 O   0  0  0  0  0  0  0  0  0  0  0  0
    0.6370    8.7140   -9.0680 C   0  0  0  0  0  0  0  0  0  0  0  0
    1.7600    7.8870   -8.9360 C   0  0  0  0  0  0  0  0  0  0  0  0
    0.5370    9.5060  -10.2010 C   0  0  0  0  0  0  0  0  0  0  0  0
    2.7570    7.8630   -9.9210 C   0  0  0  0  0  0  0  0  0  0  0  0
    1.5320    9.4800  -11.1840 C   0  0  0  0  0  0  0  0  0  0  0  0
    2.6540    8.6630  -11.0610 C   0  0  0  0  0  0  0  0  0  0  0  0
    3.6650    8.6240  -12.0320 N   0  0  0  0  0  0  0  0  0  0  0  0
    3.9880    9.4920  -13.0890 C   0  0  0  0  0  0  0  0  0  0  0  0
    3.2330   10.6610  -13.2810 C   0  0  0  0  0  0  0  0  0  0  0  0
    5.0430    9.2400  -13.9680 C   0  0  0  0  0  0  0  0  0  0  0  0
    3.5260   11.5470  -14.3190 C   0  0  0  0  0  0  0  0  0  0  0  0
    5.3380   10.1240  -15.0080 C   0  0  0  0  0  0  0  0  0  0  0  0
    4.5800   11.2760  -15.1830 C   0  0  0  0  0  0  0  0  0  0  0  0
  1  2  1  0
  2  3  2  0
  2  4  1  0
  4  5  2  0
  4  6  1  0
  5  7  1  0
  6  8  2  0
  7  9  2  0
  8  9  1  0
  9 10  1  0
 10 11  1  0
 10 12  1  0
 10 13  1  0
 12 14  1  0
 14 15  1  0
 15 16  1  0
 16 17  1  0
 17 18  1  0
 18 19  1  0
 19 20  1  0
 20 21  1  0
 20 22  2  0
 21 23  1  0
 23 24  2  0
 23 25  1  0
 24 26  1  0
 25 27  2  0
 26 28  2  0
 27 28  1  0
 28 29  1  0
 29 30  1  0
 30 31  2  0
 30 32  1  0
 31 33  1  0
 32 34  2  0
 33 35  2  0
 34 35  1  0
M  END
