x0587_0_A_α-x0128_0_A_α
     RDKit          3D

 19 20  0  0  0  0  0  0  0  0999 V2000
   -7.7980   15.2360    4.1280 N   0  0  0  0  0  0  0  0  0  0  0  0
   -8.2970   14.9480    2.8680 C   0  0  0  0  0  0  0  0  0  0  0  0
   -9.4820   14.8100    2.5860 O   0  0  0  0  0  0  0  0  0  0  0  0
   -8.4920   16.0320    5.0910 C   0  0  0  0  0  0  0  0  0  0  0  0
   -7.3290   14.8230    1.7590 C   0  0  0  0  0  0  0  0  0  0  0  0
   -9.1770   17.2110    4.7890 C   0  0  0  0  0  0  0  0  0  0  0  0
   -8.5190   15.6270    6.4320 C   0  0  0  0  0  0  0  0  0  0  0  0
   -7.6930   14.6310    0.4430 C   0  0  0  0  0  0  0  0  0  0  0  0
   -5.9670   14.9140    1.9760 C   0  0  0  0  0  0  0  0  0  0  0  0
   -9.8490   17.9710    5.6910 N   0  0  0  0  0  0  0  0  0  0  0  0
   -9.2030   16.3950    7.3820 C   0  0  0  0  0  0  0  0  0  0  0  0
   -6.8110   14.5390   -0.5770 N   0  0  0  0  0  0  0  0  0  0  0  0
   -5.0390   14.8290    0.9900 N   0  0  0  0  0  0  0  0  0  0  0  0
   -9.8490   17.5480    6.9670 C   0  0  0  0  0  0  0  0  0  0  0  0
   -5.4920   14.6460   -0.2760 C   0  0  0  0  0  0  0  0  0  0  0  0
   -4.4760   14.5580   -1.4210 C   0  0  0  0  0  0  0  0  0  0  0  0
   -3.2180   14.9420   -1.0490 F   0  0  0  0  0  0  0  0  0  0  0  0
   -4.3430   13.2950   -1.9280 F   0  0  0  0  0  0  0  0  0  0  0  0
   -4.7960   15.3370   -2.4950 F   0  0  0  0  0  0  0  0  0  0  0  0
  1  2  1  0
  2  3  2  0
  1  4  1  0
  2  5  1  0
  4  6  2  0
  4  7  1  0
  5  8  2  0
  5  9  1  0
  6 10  1  0
  7 11  2  0
  8 12  1  0
  9 13  2  0
 10 14  2  0
 11 14  1  0
 12 15  2  0
 13 15  1  0
 15 16  1  0
 16 17  1  0
 16 18  1  0
 16 19  1  0
M  END
