x0587_0_A-x0104_0_A
     RDKit          3D

 19 20  0  0  0  0  0  0  0  0999 V2000
   -8.6480   13.9740    3.8180 N   0  0  0  0  0  0  0  0  0  0  0  0
   -8.0010   15.0010    3.0940 C   0  0  1  0  0  0  0  0  0  0  0  0
   -8.9600   16.0110    2.8910 O   0  0  0  0  0  0  0  0  0  0  0  0
   -9.4590   14.3400    4.8720 C   0  0  0  0  0  0  0  0  0  0  0  0
   -7.0500   15.5440    3.9950 N   0  0  0  0  0  0  0  0  0  0  0  0
   -7.2210   14.7600    1.8130 C   0  0  0  0  0  0  0  0  0  0  0  0
   -9.1750   14.6300    6.2050 C   0  0  0  0  0  0  0  0  0  0  0  0
  -11.1460   14.5010    4.5810 S   0  0  0  0  0  0  0  0  0  0  0  0
   -7.6880   14.3270    0.5810 C   0  0  0  0  0  0  0  0  0  0  0  0
   -5.8680   15.0240    1.8120 C   0  0  0  0  0  0  0  0  0  0  0  0
  -11.4820   14.9410    6.1960 C   0  0  0  0  0  0  0  0  0  0  0  0
  -10.3430   14.9750    6.9660 C   0  0  0  0  0  0  0  0  0  0  0  0
   -6.8900   14.1910   -0.5170 N   0  0  0  0  0  0  0  0  0  0  0  0
   -5.0340   14.9080    0.7760 N   0  0  0  0  0  0  0  0  0  0  0  0
   -5.5670   14.5000   -0.3780 C   0  0  0  0  0  0  0  0  0  0  0  0
   -4.6070   14.4040   -1.5640 C   0  0  0  0  0  0  0  0  0  0  0  0
   -3.3330   14.8030   -1.2560 F   0  0  0  0  0  0  0  0  0  0  0  0
   -4.4860   13.1400   -2.0620 F   0  0  0  0  0  0  0  0  0  0  0  0
   -4.9630   15.1890   -2.6230 F   0  0  0  0  0  0  0  0  0  0  0  0
  1  2  1  0
  2  3  1  0
  1  4  1  0
  2  5  1  1
  2  6  1  0
  4  7  2  0
  4  8  1  0
  6  9  2  0
  6 10  1  0
  8 11  1  0
  7 12  1  0
 11 12  2  0
  9 13  1  0
 10 14  2  0
 13 15  2  0
 14 15  1  0
 15 16  1  0
 16 17  1  0
 16 18  1  0
 16 19  1  0
M  END
