x0587_0_A-x0742_0_A
     RDKit          3D

 28 31  0  0  0  0  0  0  0  0999 V2000
   -7.7740   15.0690    4.4880 N   0  0  0  0  0  0  0  0  0  0  0  0
   -8.4950   14.9710    3.3370 C   0  0  0  0  0  0  0  0  0  0  0  0
   -9.7190   14.9560    3.3510 O   0  0  0  0  0  0  0  0  0  0  0  0
   -7.7750   14.9030    2.0660 C   0  0  0  0  0  0  0  0  0  0  0  0
   -8.4970   14.8900    0.9000 C   0  0  0  0  0  0  0  0  0  0  0  0
   -6.4080   14.8600    1.9240 C   0  0  0  0  0  0  0  0  0  0  0  0
   -7.9440   14.8400   -0.3250 N   0  0  0  0  0  0  0  0  0  0  0  0
   -5.8040   14.8140    0.7160 N   0  0  0  0  0  0  0  0  0  0  0  0
   -6.6040   14.8030   -0.3840 C   0  0  0  0  0  0  0  0  0  0  0  0
   -5.9850   14.7160   -1.7920 C   0  0  0  0  0  0  0  0  0  0  0  0
   -4.6490   15.0120   -1.8070 F   0  0  0  0  0  0  0  0  0  0  0  0
   -6.1460   13.3270   -2.1610 N   0  0  0  0  0  0  0  0  0  0  0  0
   -6.5430   15.5100   -2.7300 F   0  0  0  0  0  0  0  0  0  0  0  0
   -5.2820   12.5690   -1.6670 C   0  0  0  0  0  0  0  0  0  0  0  0
   -5.2340   11.0670   -1.7940 C   0  0  0  0  0  0  0  0  0  0  0  0
   -4.1990   13.3580   -0.8800 C   0  0  2  0  0  0  0  0  0  0  0  0
   -4.3480   13.0510    0.6180 C   0  0  0  0  0  0  0  0  0  0  0  0
   -4.1890   14.8570   -1.2780 C   0  0  0  0  0  0  0  0  0  0  0  0
   -2.7790   13.1110   -1.3480 C   0  0  1  0  0  0  0  0  0  0  0  0
   -2.8620   13.5050   -2.8160 C   0  0  0  0  0  0  0  0  0  0  0  0
   -1.7540   13.7370   -0.5000 C   0  0  0  0  0  0  0  0  0  0  0  0
   -3.3790   13.8870    1.4590 C   0  0  0  0  0  0  0  0  0  0  0  0
   -3.6090   14.8390   -2.7160 C   0  0  0  0  0  0  0  0  0  0  0  0
   -0.5020   13.9670   -1.0310 C   0  0  0  0  0  0  0  0  0  0  0  0
   -2.0300   14.1070    0.8280 C   0  0  0  0  0  0  0  0  0  0  0  0
   -1.1050   14.6780    1.6130 N   0  0  0  0  0  0  0  0  0  0  0  0
    0.4430   14.5510   -0.2450 C   0  0  0  0  0  0  0  0  0  0  0  0
    0.0980   14.8800    1.0410 C   0  0  0  0  0  0  0  0  0  0  0  0
  1  2  1  0
  2  3  2  0
  2  4  1  0
  4  5  2  0
  4  6  1  0
  5  7  1  0
  6  8  2  0
  7  9  2  0
  8  9  1  0
  9 10  1  0
 10 11  1  0
 10 12  1  0
 10 13  1  0
 12 14  2  3
 14 15  1  0
 16 14  1  6
 16 17  1  0
 16 18  1  0
 16 19  1  0
 19 20  1  6
 19 21  1  0
 17 22  1  0
 18 23  1  0
 20 23  1  0
 21 24  1  0
 21 25  2  0
 22 25  1  0
 25 26  1  0
 24 27  2  0
 26 28  2  0
 27 28  1  0
M  END
