x0587_0_A-x0950_0_A
     RDKit          3D

 22 22  0  0  0  0  0  0  0  0999 V2000
   -7.7780   14.8410    4.0960 N   0  0  0  0  0  0  0  0  0  0  0  0
   -8.2840   14.8770    2.8320 C   0  0  0  0  0  0  0  0  0  0  0  0
   -9.4870   15.0050    2.6340 O   0  0  0  0  0  0  0  0  0  0  0  0
   -7.3390   14.7750    1.7100 C   0  0  0  0  0  0  0  0  0  0  0  0
   -7.7010   14.5980    0.3970 C   0  0  0  0  0  0  0  0  0  0  0  0
   -5.9820   14.8690    1.9350 C   0  0  0  0  0  0  0  0  0  0  0  0
   -6.8120   14.5280   -0.6180 N   0  0  0  0  0  0  0  0  0  0  0  0
   -5.0470   14.8040    0.9610 N   0  0  0  0  0  0  0  0  0  0  0  0
   -5.4950   14.6380   -0.3030 C   0  0  0  0  0  0  0  0  0  0  0  0
   -4.4580   14.5770   -1.4380 C   0  0  0  0  0  0  0  0  0  0  0  0
   -3.1700   15.0600   -1.0110 O   0  0  0  0  0  0  0  0  0  0  0  0
   -4.2620   13.3090   -1.9050 F   0  0  0  0  0  0  0  0  0  0  0  0
   -4.8280   15.2900   -2.5400 F   0  0  0  0  0  0  0  0  0  0  0  0
   -2.2740   14.0420   -0.5770 C   0  0  0  0  0  0  0  0  0  0  0  0
   -1.3660   13.6600   -1.7420 C   0  0  0  0  0  0  0  0  0  0  0  0
    0.1230   13.7820   -1.4060 C   0  0  0  0  0  0  0  0  0  0  0  0
    0.7640   12.5020   -1.5440 O   0  0  0  0  0  0  0  0  0  0  0  0
    0.7470   11.9100   -2.7920 C   0  0  0  0  0  0  0  0  0  0  0  0
    1.2980   12.8260   -3.9090 C   0  0  1  0  0  0  0  0  0  0  0  0
    0.3390   10.7750   -2.9910 O   0  0  0  0  0  0  0  0  0  0  0  0
    2.8120   12.9370   -3.8190 C   0  0  0  0  0  0  0  0  0  0  0  0
    0.9510   12.3770   -5.2210 O   0  0  0  0  0  0  0  0  0  0  0  0
  1  2  1  0
  2  3  2  0
  2  4  1  0
  4  5  2  0
  4  6  1  0
  5  7  1  0
  6  8  2  0
  7  9  2  0
  8  9  1  0
  9 10  1  0
 10 11  1  0
 10 12  1  0
 10 13  1  0
 11 14  1  0
 14 15  1  0
 15 16  1  0
 16 17  1  0
 17 18  1  0
 18 19  1  0
 18 20  2  0
 19 21  1  6
 19 22  1  0
M  END
