x0587_0_A_α-x0967_0_A_α
     RDKit          3D

 17 18  0  0  0  0  0  0  0  0999 V2000
   -7.7030   15.0240    4.1010 N   0  0  0  0  0  0  0  0  0  0  0  0
   -8.2310   15.0340    2.8510 C   0  0  0  0  0  0  0  0  0  0  0  0
   -9.4200   15.2730    2.6510 O   0  0  0  0  0  0  0  0  0  0  0  0
   -7.2900   14.7350    1.7520 C   0  0  0  0  0  0  0  0  0  0  0  0
   -7.7650   14.3950    0.3840 C   0  0  0  0  0  0  0  0  0  0  0  0
   -5.9530   14.7590    1.8840 C   0  0  0  0  0  0  0  0  0  0  0  0
   -7.0700   14.2610   -0.6960 N   0  0  0  0  0  0  0  0  0  0  0  0
   -5.0840   14.4800    0.8470 N   0  0  0  0  0  0  0  0  0  0  0  0
   -5.6180   14.4700   -0.5350 C   0  0  1  0  0  0  0  0  0  0  0  0
   -3.7190   14.4810    0.8680 C   0  0  0  0  0  0  0  0  0  0  0  0
   -4.7360   13.5310   -1.4800 C   0  0  0  0  0  0  0  0  0  0  0  0
   -5.2000   15.5720   -1.3480 N   0  0  0  0  0  0  0  0  0  0  0  0
   -3.0680   15.0940   -0.1170 C   0  0  0  0  0  0  0  0  0  0  0  0
   -3.4170   13.5620   -1.1500 F   0  0  0  0  0  0  0  0  0  0  0  0
   -5.1260   12.2460   -1.5300 F   0  0  0  0  0  0  0  0  0  0  0  0
   -4.7830   14.0250   -2.7460 F   0  0  0  0  0  0  0  0  0  0  0  0
   -3.9600   15.7600   -1.1160 C   0  0  0  0  0  0  0  0  0  0  0  0
  1  2  1  0
  2  3  2  0
  2  4  1  0
  4  5  1  0
  4  6  2  0
  5  7  2  0
  6  8  1  0
  9  7  1  0
  8  9  1  0
  8 10  1  0
  9 11  1  6
  9 12  1  0
 10 13  2  0
 11 14  1  0
 11 15  1  0
 11 16  1  0
 12 17  2  0
 13 17  1  0
M  END
