x0587_0_A-x0128_0_A
     RDKit          3D

 19 20  0  0  0  0  0  0  0  0999 V2000
   -7.8080   15.2120    4.1250 N   0  0  0  0  0  0  0  0  0  0  0  0
   -8.3060   14.9040    2.8660 C   0  0  0  0  0  0  0  0  0  0  0  0
   -9.4900   14.7450    2.5860 O   0  0  0  0  0  0  0  0  0  0  0  0
   -8.5050   16.0100    5.0860 C   0  0  0  0  0  0  0  0  0  0  0  0
   -7.3370   14.7860    1.7550 C   0  0  0  0  0  0  0  0  0  0  0  0
   -9.1820   17.1930    4.7870 C   0  0  0  0  0  0  0  0  0  0  0  0
   -8.5340   15.6020    6.4260 C   0  0  0  0  0  0  0  0  0  0  0  0
   -7.7020   14.5870    0.4400 C   0  0  0  0  0  0  0  0  0  0  0  0
   -5.9760   14.8820    1.9680 C   0  0  0  0  0  0  0  0  0  0  0  0
   -9.8560   17.9520    5.6890 N   0  0  0  0  0  0  0  0  0  0  0  0
   -9.2220   16.3680    7.3790 C   0  0  0  0  0  0  0  0  0  0  0  0
   -6.8200   14.4970   -0.5790 N   0  0  0  0  0  0  0  0  0  0  0  0
   -5.0480   14.8000    0.9860 N   0  0  0  0  0  0  0  0  0  0  0  0
   -9.8610   17.5250    6.9630 C   0  0  0  0  0  0  0  0  0  0  0  0
   -5.5000   14.6130   -0.2790 C   0  0  0  0  0  0  0  0  0  0  0  0
   -4.4820   14.5320   -1.4210 C   0  0  0  0  0  0  0  0  0  0  0  0
   -3.2260   14.9220   -1.0490 F   0  0  0  0  0  0  0  0  0  0  0  0
   -4.3420   13.2710   -1.9320 F   0  0  0  0  0  0  0  0  0  0  0  0
   -4.8040   15.3100   -2.4940 F   0  0  0  0  0  0  0  0  0  0  0  0
  1  2  1  0
  2  3  2  0
  1  4  1  0
  2  5  1  0
  4  6  2  0
  4  7  1  0
  5  8  2  0
  5  9  1  0
  6 10  1  0
  7 11  2  0
  8 12  1  0
  9 13  2  0
 10 14  2  0
 11 14  1  0
 12 15  2  0
 13 15  1  0
 15 16  1  0
 16 17  1  0
 16 18  1  0
 16 19  1  0
M  END
