x0587_0_A-x0910_1_A
     RDKit          3D

 13 13  0  0  0  0  0  0  0  0999 V2000
   -7.8050   14.8460    4.0930 N   0  0  0  0  0  0  0  0  0  0  0  0
   -8.2810   14.8780    2.8170 C   0  0  0  0  0  0  0  0  0  0  0  0
   -9.4760   15.0060    2.5850 O   0  0  0  0  0  0  0  0  0  0  0  0
   -7.2970   14.7690    1.7300 C   0  0  0  0  0  0  0  0  0  0  0  0
   -7.6970   14.5580    0.4300 C   0  0  0  0  0  0  0  0  0  0  0  0
   -5.9390   14.8790    1.9140 C   0  0  0  0  0  0  0  0  0  0  0  0
   -6.8320   14.4710   -0.6090 N   0  0  0  0  0  0  0  0  0  0  0  0
   -5.0280   14.8030    0.9190 N   0  0  0  0  0  0  0  0  0  0  0  0
   -5.5070   14.6020   -0.3340 C   0  0  0  0  0  0  0  0  0  0  0  0
   -4.5010   14.5220   -1.4870 C   0  0  0  0  0  0  0  0  0  0  0  0
   -3.2480   14.9250   -1.1220 F   0  0  0  0  0  0  0  0  0  0  0  0
   -4.3550   13.2670   -2.0020 F   0  0  0  0  0  0  0  0  0  0  0  0
   -4.8410   15.3080   -2.5490 F   0  0  0  0  0  0  0  0  0  0  0  0
  1  2  1  0
  2  3  2  0
  2  4  1  0
  4  5  2  0
  4  6  1  0
  5  7  1  0
  6  8  2  0
  7  9  2  0
  8  9  1  0
  9 10  1  0
 10 11  1  0
 10 12  1  0
 10 13  1  0
M  END
