x0587_0_A_α-x0962_1_A_α
     RDKit          3D

 13 13  0  0  0  0  0  0  0  0999 V2000
   -7.7890   14.8330    4.1090 N   0  0  0  0  0  0  0  0  0  0  0  0
   -8.2670   14.8900    2.8350 C   0  0  0  0  0  0  0  0  0  0  0  0
   -9.4640   15.0380    2.6050 O   0  0  0  0  0  0  0  0  0  0  0  0
   -7.2870   14.7820    1.7450 C   0  0  0  0  0  0  0  0  0  0  0  0
   -7.6860   14.6020    0.4370 C   0  0  0  0  0  0  0  0  0  0  0  0
   -5.9260   14.8620    1.9300 C   0  0  0  0  0  0  0  0  0  0  0  0
   -6.8220   14.5160   -0.6030 N   0  0  0  0  0  0  0  0  0  0  0  0
   -5.0160   14.7810    0.9390 N   0  0  0  0  0  0  0  0  0  0  0  0
   -5.4960   14.6140   -0.3160 C   0  0  0  0  0  0  0  0  0  0  0  0
   -4.4890   14.5360   -1.4680 C   0  0  0  0  0  0  0  0  0  0  0  0
   -3.2360   14.9360   -1.1000 F   0  0  0  0  0  0  0  0  0  0  0  0
   -4.3420   13.2810   -1.9850 F   0  0  0  0  0  0  0  0  0  0  0  0
   -4.8240   15.3200   -2.5330 F   0  0  0  0  0  0  0  0  0  0  0  0
  1  2  1  0
  2  3  2  0
  2  4  1  0
  4  5  2  0
  4  6  1  0
  5  7  1  0
  6  8  2  0
  7  9  2  0
  8  9  1  0
  9 10  1  0
 10 11  1  0
 10 12  1  0
 10 13  1  0
M  END
