x0587_0_A-x0895_0_A
     RDKit          3D

 19 20  0  0  0  0  0  0  0  0999 V2000
   -7.9180   14.8170    4.0920 N   0  0  0  0  0  0  0  0  0  0  0  0
   -8.5180   14.8400    2.8040 C   0  0  0  0  0  0  0  0  0  0  0  0
   -9.7680   14.9310    2.7340 O   0  0  0  0  0  0  0  0  0  0  0  0
   -7.6990   14.7880    1.6130 C   0  0  0  0  0  0  0  0  0  0  0  0
   -8.1760   14.7410    0.3160 C   0  0  0  0  0  0  0  0  0  0  0  0
   -6.3460   14.7980    1.7920 C   0  0  0  0  0  0  0  0  0  0  0  0
   -7.2930   14.7180   -0.7090 N   0  0  0  0  0  0  0  0  0  0  0  0
   -5.5300   14.7780    0.7530 N   0  0  0  0  0  0  0  0  0  0  0  0
   -6.0120   14.7440   -0.4690 C   0  0  0  0  0  0  0  0  0  0  0  0
   -4.6740   14.7410   -1.6320 S   0  0  0  0  0  0  0  0  0  0  0  0
   -4.0350   14.8460   -2.8960 F   0  0  0  0  0  0  0  0  0  0  0  0
   -3.2370   14.5190   -1.0680 F   0  0  0  0  0  0  0  0  0  0  0  0
   -5.3870   14.9590   -2.7800 F   0  0  0  0  0  0  0  0  0  0  0  0
   -3.5250   14.4620   -0.3470 C   0  0  0  0  0  0  0  0  0  0  0  0
   -3.9870   14.3480    0.9580 N   0  0  0  0  0  0  0  0  0  0  0  0
   -2.1180   14.3280   -0.2970 N   0  0  0  0  0  0  0  0  0  0  0  0
   -3.1510   15.2510    1.6200 C   0  0  0  0  0  0  0  0  0  0  0  0
   -1.9080   14.6410    1.1140 C   0  0  0  0  0  0  0  0  0  0  0  0
   -0.9160   14.4260    1.8200 O   0  0  0  0  0  0  0  0  0  0  0  0
  1  2  1  0
  2  3  2  0
  2  4  1  0
  4  5  2  0
  4  6  1  0
  5  7  1  0
  6  8  2  0
  7  9  2  0
  8  9  1  0
  9 10  1  0
 10 11  1  0
 10 12  1  0
 10 13  1  0
 10 14  2  3
 14 15  1  0
 14 16  1  0
 15 17  1  0
 16 18  1  0
 17 18  1  0
 18 19  2  0
M  END
