x0587_0_A-x0895_1_A
     RDKit          3D

 19 20  0  0  0  0  0  0  0  0999 V2000
   -7.2780   14.9380    3.9280 N   0  0  0  0  0  0  0  0  0  0  0  0
   -7.8550   14.9950    2.7050 C   0  0  0  0  0  0  0  0  0  0  0  0
   -9.0440   15.3120    2.6140 O   0  0  0  0  0  0  0  0  0  0  0  0
   -7.0510   14.6710    1.4710 C   0  0  0  0  0  0  0  0  0  0  0  0
   -7.7560   13.9810    0.5360 C   0  0  0  0  0  0  0  0  0  0  0  0
   -5.6750   14.9560    0.9620 C   0  0  0  0  0  0  0  0  0  0  0  0
   -7.1610   13.6360   -0.6830 N   0  0  0  0  0  0  0  0  0  0  0  0
   -5.4380   15.0830   -0.3170 N   0  0  0  0  0  0  0  0  0  0  0  0
   -4.3840   15.1260    1.1230 C   0  0  0  0  0  0  0  0  0  0  0  0
   -6.0810   14.4110   -1.0940 C   0  0  0  0  0  0  0  0  0  0  0  0
   -3.6580   15.4010   -0.0190 N   0  0  0  0  0  0  0  0  0  0  0  0
   -3.5180   15.0910    2.1260 N   0  0  0  0  0  0  0  0  0  0  0  0
   -5.4320   14.5040   -2.4640 C   0  0  0  0  0  0  0  0  0  0  0  0
   -2.5020   14.5530    0.0560 C   0  0  0  0  0  0  0  0  0  0  0  0
   -2.2900   14.6970    1.5500 C   0  0  0  0  0  0  0  0  0  0  0  0
   -4.5440   15.5370   -2.5090 F   0  0  0  0  0  0  0  0  0  0  0  0
   -6.2490   14.4970   -3.5110 F   0  0  0  0  0  0  0  0  0  0  0  0
   -4.6270   13.4460   -2.6570 F   0  0  0  0  0  0  0  0  0  0  0  0
   -1.2540   14.5090    2.1090 O   0  0  0  0  0  0  0  0  0  0  0  0
  1  2  1  0
  2  3  2  0
  2  4  1  0
  4  5  2  0
  4  6  1  0
  5  7  1  0
  6  8  1  0
  6  9  2  3
  7 10  1  0
  8 10  2  0
  9 11  1  0
  9 12  1  0
 10 13  1  0
 11 14  1  0
 12 15  1  0
 14 15  1  0
 13 16  1  0
 13 17  1  0
 13 18  1  0
 15 19  2  0
M  END
