x0587_0_A-x0910_0_A
     RDKit          3D

 18 19  0  0  0  0  0  0  0  0999 V2000
   -7.8160   14.8290    4.0840 N   0  0  0  0  0  0  0  0  0  0  0  0
   -8.2660   14.8850    2.7980 C   0  0  0  0  0  0  0  0  0  0  0  0
   -9.4570   15.0370    2.5460 O   0  0  0  0  0  0  0  0  0  0  0  0
   -7.2610   14.7740    1.7320 C   0  0  0  0  0  0  0  0  0  0  0  0
   -7.6220   14.5680    0.4180 C   0  0  0  0  0  0  0  0  0  0  0  0
   -5.9050   14.8770    1.9490 C   0  0  0  0  0  0  0  0  0  0  0  0
   -6.7270   14.4800   -0.5940 N   0  0  0  0  0  0  0  0  0  0  0  0
   -4.9680   14.7960    0.9830 N   0  0  0  0  0  0  0  0  0  0  0  0
   -5.4040   14.6020   -0.2790 C   0  0  0  0  0  0  0  0  0  0  0  0
   -4.3670   14.5170   -1.4280 C   0  0  0  0  0  0  0  0  0  0  0  0
   -3.1540   15.2690   -1.2910 O   0  0  0  0  0  0  0  0  0  0  0  0
   -4.0050   13.2120   -1.6630 F   0  0  0  0  0  0  0  0  0  0  0  0
   -4.9030   14.9090   -2.6260 F   0  0  0  0  0  0  0  0  0  0  0  0
   -2.1670   14.8780   -0.4490 C   0  0  0  0  0  0  0  0  0  0  0  0
   -2.4180   14.9820    0.8600 N   0  0  0  0  0  0  0  0  0  0  0  0
   -0.9150   14.4100   -0.7490 N   0  0  0  0  0  0  0  0  0  0  0  0
   -1.2620   14.5630    1.3980 N   0  0  0  0  0  0  0  0  0  0  0  0
   -0.3740   14.2250    0.4320 C   0  0  0  0  0  0  0  0  0  0  0  0
  1  2  1  0
  2  3  2  0
  2  4  1  0
  4  5  2  0
  4  6  1  0
  5  7  1  0
  6  8  2  0
  7  9  2  0
  8  9  1  0
  9 10  1  0
 10 11  1  0
 10 12  1  0
 10 13  1  0
 11 14  1  0
 14 15  2  0
 14 16  1  0
 15 17  1  0
 16 18  2  0
 17 18  1  0
M  END
