x0587_0_A_α-x0969_0_A_α
     RDKit          3D

 17 18  0  0  0  0  0  0  0  0999 V2000
   -7.7690   14.8780    3.9800 N   0  0  0  0  0  0  0  0  0  0  0  0
   -8.2460   14.9330    2.7100 C   0  0  0  0  0  0  0  0  0  0  0  0
   -9.4430   15.0780    2.4830 O   0  0  0  0  0  0  0  0  0  0  0  0
   -7.2390   14.8220    1.6270 C   0  0  0  0  0  0  0  0  0  0  0  0
   -7.6110   14.7620    0.1880 C   0  0  0  0  0  0  0  0  0  0  0  0
   -5.9180   14.8040    1.8530 C   0  0  0  0  0  0  0  0  0  0  0  0
   -6.8340   14.7280   -0.8520 N   0  0  0  0  0  0  0  0  0  0  0  0
   -4.9440   14.7200    0.8740 N   0  0  0  0  0  0  0  0  0  0  0  0
   -5.3680   14.7160   -0.5640 C   0  0  1  0  0  0  0  0  0  0  0  0
   -3.5890   14.7990    1.1260 C   0  0  0  0  0  0  0  0  0  0  0  0
   -4.7260   13.5370   -1.3380 C   0  0  0  0  0  0  0  0  0  0  0  0
   -4.5410   15.6750   -1.3500 C   0  0  0  0  0  0  0  0  0  0  0  0
   -2.7490   15.3790    0.2610 C   0  0  0  0  0  0  0  0  0  0  0  0
   -3.7210   12.9750   -0.6390 F   0  0  0  0  0  0  0  0  0  0  0  0
   -4.1430   13.9740   -2.4770 F   0  0  0  0  0  0  0  0  0  0  0  0
   -5.6260   12.6530   -1.7610 F   0  0  0  0  0  0  0  0  0  0  0  0
   -3.2840   15.9490   -0.9570 C   0  0  0  0  0  0  0  0  0  0  0  0
  1  2  1  0
  2  3  2  0
  2  4  1  0
  4  5  1  0
  4  6  2  0
  5  7  2  0
  6  8  1  0
  9  7  1  0
  8  9  1  0
  8 10  1  0
  9 11  1  6
  9 12  1  0
 10 13  2  0
 11 14  1  0
 11 15  1  0
 11 16  1  0
 12 17  2  0
 13 17  1  0
M  END
