x0587_0_A_α-x0864_0_A_α
     RDKit          3D

 28 29  0  0  0  0  0  0  0  0999 V2000
   -7.8050   14.8330    4.0890 N   0  0  0  0  0  0  0  0  0  0  0  0
   -8.2720   14.8590    2.8090 C   0  0  0  0  0  0  0  0  0  0  0  0
   -9.4690   14.9760    2.5700 O   0  0  0  0  0  0  0  0  0  0  0  0
   -7.2800   14.7670    1.7270 C   0  0  0  0  0  0  0  0  0  0  0  0
   -7.6600   14.5620    0.4190 C   0  0  0  0  0  0  0  0  0  0  0  0
   -5.9210   14.8840    1.9270 C   0  0  0  0  0  0  0  0  0  0  0  0
   -6.7780   14.4880   -0.6060 N   0  0  0  0  0  0  0  0  0  0  0  0
   -4.9960   14.8190    0.9460 N   0  0  0  0  0  0  0  0  0  0  0  0
   -5.4570   14.6240   -0.3130 C   0  0  0  0  0  0  0  0  0  0  0  0
   -4.4350   14.5640   -1.4660 C   0  0  0  0  0  0  0  0  0  0  0  0
   -3.1430   15.0480   -1.0720 O   0  0  0  0  0  0  0  0  0  0  0  0
   -4.2660   13.2880   -1.9280 F   0  0  0  0  0  0  0  0  0  0  0  0
   -4.8230   15.2750   -2.5670 F   0  0  0  0  0  0  0  0  0  0  0  0
   -2.1450   14.0430   -0.8780 C   0  0  0  0  0  0  0  0  0  0  0  0
   -1.0050   14.2740   -1.8810 C   0  0  0  0  0  0  0  0  0  0  0  0
    0.3640   13.7820   -1.4030 C   0  0  0  0  0  0  0  0  0  0  0  0
    0.3850   12.3430   -1.5250 N   0  0  0  0  0  0  0  0  0  0  0  0
    0.4830   11.7860   -2.6740 C   0  0  0  0  0  0  0  0  0  0  0  0
    0.6110   12.3990   -4.0720 C   0  0  0  0  0  0  0  0  0  0  0  0
    0.4650   10.4340   -2.5950 O   0  0  0  0  0  0  0  0  0  0  0  0
   -0.1510   11.6780   -5.0990 N   0  0  0  0  0  0  0  0  0  0  0  0
   -1.3770   11.1250   -4.7750 C   0  0  0  0  0  0  0  0  0  0  0  0
    0.4840   11.4000   -6.3020 C   0  0  0  0  0  0  0  0  0  0  0  0
    1.4750   11.9950   -6.7100 O   0  0  0  0  0  0  0  0  0  0  0  0
   -1.9210   10.1750   -5.5430 C   0  0  0  0  0  0  0  0  0  0  0  0
   -0.0840   10.2890   -7.1050 C   0  0  0  0  0  0  0  0  0  0  0  0
   -1.2330    9.7120   -6.7240 C   0  0  0  0  0  0  0  0  0  0  0  0
   -1.9980    8.3020   -7.6770 Br  0  0  0  0  0  0  0  0  0  0  0  0
  1  2  1  0
  2  3  2  0
  2  4  1  0
  4  5  2  0
  4  6  1  0
  5  7  1  0
  6  8  2  0
  7  9  2  0
  8  9  1  0
  9 10  1  0
 10 11  1  0
 10 12  1  0
 10 13  1  0
 11 14  1  0
 14 15  1  0
 15 16  1  0
 16 17  1  0
 17 18  2  3
 18 19  1  0
 18 20  1  0
 19 21  1  0
 21 22  1  0
 21 23  1  0
 23 24  2  0
 22 25  2  0
 23 26  1  0
 25 27  1  0
 26 27  2  0
 27 28  1  0
M  END
