x0587_0_A-x0895_0_A
     RDKit          3D

 19 20  0  0  0  0  0  0  0  0999 V2000
   -7.9290   14.8160    4.0920 N   0  0  0  0  0  0  0  0  0  0  0  0
   -8.5210   14.8420    2.8010 C   0  0  0  0  0  0  0  0  0  0  0  0
   -9.7700   14.9360    2.7250 O   0  0  0  0  0  0  0  0  0  0  0  0
   -7.6940   14.7900    1.6130 C   0  0  0  0  0  0  0  0  0  0  0  0
   -8.1730   14.7410    0.3150 C   0  0  0  0  0  0  0  0  0  0  0  0
   -6.3450   14.8000    1.7940 C   0  0  0  0  0  0  0  0  0  0  0  0
   -7.2890   14.7160   -0.7110 N   0  0  0  0  0  0  0  0  0  0  0  0
   -5.5270   14.7780    0.7560 N   0  0  0  0  0  0  0  0  0  0  0  0
   -6.0090   14.7420   -0.4680 C   0  0  0  0  0  0  0  0  0  0  0  0
   -4.6710   14.7410   -1.6310 S   0  0  0  0  0  0  0  0  0  0  0  0
   -4.0310   14.8530   -2.8960 F   0  0  0  0  0  0  0  0  0  0  0  0
   -3.2370   14.5220   -1.0660 F   0  0  0  0  0  0  0  0  0  0  0  0
   -5.3830   14.9580   -2.7770 F   0  0  0  0  0  0  0  0  0  0  0  0
   -3.5250   14.4620   -0.3450 C   0  0  0  0  0  0  0  0  0  0  0  0
   -3.9900   14.3470    0.9600 N   0  0  0  0  0  0  0  0  0  0  0  0
   -2.1170   14.3310   -0.2940 N   0  0  0  0  0  0  0  0  0  0  0  0
   -3.1540   15.2520    1.6230 C   0  0  0  0  0  0  0  0  0  0  0  0
   -1.9110   14.6400    1.1200 C   0  0  0  0  0  0  0  0  0  0  0  0
   -0.9180   14.4220    1.8240 O   0  0  0  0  0  0  0  0  0  0  0  0
  1  2  1  0
  2  3  2  0
  2  4  1  0
  4  5  2  0
  4  6  1  0
  5  7  1  0
  6  8  2  0
  7  9  2  0
  8  9  1  0
  9 10  1  0
 10 11  1  0
 10 12  1  0
 10 13  1  0
 10 14  2  3
 14 15  1  0
 14 16  1  0
 15 17  1  0
 16 18  1  0
 17 18  1  0
 18 19  2  0
M  END
