x0587_0_A-x0852_0_B
     RDKit          3D

 21 22  0  0  0  0  0  0  0  0999 V2000
   -8.8100   13.9470    1.3210 C   0  0  0  0  0  0  0  0  0  0  0  0
   -9.6210   14.2870    2.1950 N   0  0  0  0  0  0  0  0  0  0  0  0
   -9.5510   15.1660    3.2030 C   0  0  0  0  0  0  0  0  0  0  0  0
   -7.4840   14.2550    0.8930 C   0  0  0  0  0  0  0  0  0  0  0  0
   -7.4320   14.1560   -0.4460 C   0  0  0  0  0  0  0  0  0  0  0  0
   -6.3210   14.5950    1.5460 C   0  0  0  0  0  0  0  0  0  0  0  0
   -6.3550   14.3410   -1.1600 N   0  0  0  0  0  0  0  0  0  0  0  0
   -5.1600   14.8010    0.8580 N   0  0  0  0  0  0  0  0  0  0  0  0
   -8.9040   14.7230    4.3450 C   0  0  0  0  0  0  0  0  0  0  0  0
  -10.1180   16.4260    3.1240 C   0  0  0  0  0  0  0  0  0  0  0  0
   -5.2390   14.6470   -0.5000 C   0  0  0  0  0  0  0  0  0  0  0  0
  -10.9770   17.0270    1.5320 Br  0  0  0  0  0  0  0  0  0  0  0  0
   -8.8520   15.5360    5.4540 C   0  0  0  0  0  0  0  0  0  0  0  0
  -10.0720   17.2520    4.2370 C   0  0  0  0  0  0  0  0  0  0  0  0
   -4.0430   14.7920   -1.4130 C   0  0  0  0  0  0  0  0  0  0  0  0
   -9.4550   16.7880    5.3990 C   0  0  0  0  0  0  0  0  0  0  0  0
   -2.8990   15.1500   -0.7830 F   0  0  0  0  0  0  0  0  0  0  0  0
   -3.7680   13.6110   -2.0420 F   0  0  0  0  0  0  0  0  0  0  0  0
   -4.2510   15.6720   -2.4290 F   0  0  0  0  0  0  0  0  0  0  0  0
   -9.4610   17.5900    6.5660 C   0  0  0  0  0  0  0  0  0  0  0  0
   -9.5520   18.1740    7.5570 N   0  0  0  0  0  0  0  0  0  0  0  0
  1  2  2  3
  2  3  1  0
  1  4  1  0
  4  5  2  0
  4  6  1  0
  5  7  1  0
  6  8  2  0
  3  9  2  0
  3 10  1  0
  7 11  2  0
  8 11  1  0
 10 12  1  0
  9 13  1  0
 10 14  2  0
 11 15  1  0
 13 16  2  0
 14 16  1  0
 15 17  1  0
 15 18  1  0
 15 19  1  0
 16 20  1  0
 20 21  3  0
M  END
