x0587_0_A-x0910_0_A
     RDKit          3D

 18 19  0  0  0  0  0  0  0  0999 V2000
   -7.8180   14.8250    4.0850 N   0  0  0  0  0  0  0  0  0  0  0  0
   -8.2640   14.8850    2.8000 C   0  0  0  0  0  0  0  0  0  0  0  0
   -9.4540   15.0380    2.5450 O   0  0  0  0  0  0  0  0  0  0  0  0
   -7.2540   14.7770    1.7340 C   0  0  0  0  0  0  0  0  0  0  0  0
   -7.6210   14.5760    0.4220 C   0  0  0  0  0  0  0  0  0  0  0  0
   -5.9010   14.8780    1.9500 C   0  0  0  0  0  0  0  0  0  0  0  0
   -6.7290   14.4870   -0.5940 N   0  0  0  0  0  0  0  0  0  0  0  0
   -4.9650   14.7960    0.9790 N   0  0  0  0  0  0  0  0  0  0  0  0
   -5.4050   14.6020   -0.2820 C   0  0  0  0  0  0  0  0  0  0  0  0
   -4.3660   14.5140   -1.4310 C   0  0  0  0  0  0  0  0  0  0  0  0
   -3.1600   15.2690   -1.2850 O   0  0  0  0  0  0  0  0  0  0  0  0
   -3.9930   13.2120   -1.6670 F   0  0  0  0  0  0  0  0  0  0  0  0
   -4.8970   14.9000   -2.6360 F   0  0  0  0  0  0  0  0  0  0  0  0
   -2.1720   14.8760   -0.4410 C   0  0  0  0  0  0  0  0  0  0  0  0
   -2.4210   14.9800    0.8660 N   0  0  0  0  0  0  0  0  0  0  0  0
   -0.9200   14.4090   -0.7460 N   0  0  0  0  0  0  0  0  0  0  0  0
   -1.2610   14.5620    1.4030 N   0  0  0  0  0  0  0  0  0  0  0  0
   -0.3760   14.2240    0.4330 C   0  0  0  0  0  0  0  0  0  0  0  0
  1  2  1  0
  2  3  2  0
  2  4  1  0
  4  5  2  0
  4  6  1  0
  5  7  1  0
  6  8  2  0
  7  9  2  0
  8  9  1  0
  9 10  1  0
 10 11  1  0
 10 12  1  0
 10 13  1  0
 11 14  1  0
 14 15  2  0
 14 16  1  0
 15 17  1  0
 16 18  2  0
 17 18  1  0
M  END
