x0587_0_A_α-x0742_0_A_α
     RDKit          3D

 28 31  0  0  0  0  0  0  0  0999 V2000
   -7.7830   15.0670    4.5010 N   0  0  0  0  0  0  0  0  0  0  0  0
   -8.4930   14.9720    3.3430 C   0  0  0  0  0  0  0  0  0  0  0  0
   -9.7180   14.9660    3.3460 O   0  0  0  0  0  0  0  0  0  0  0  0
   -7.7690   14.9030    2.0720 C   0  0  0  0  0  0  0  0  0  0  0  0
   -8.4920   14.8880    0.9040 C   0  0  0  0  0  0  0  0  0  0  0  0
   -6.3990   14.8580    1.9240 C   0  0  0  0  0  0  0  0  0  0  0  0
   -7.9450   14.8360   -0.3200 N   0  0  0  0  0  0  0  0  0  0  0  0
   -5.8020   14.8120    0.7140 N   0  0  0  0  0  0  0  0  0  0  0  0
   -6.6040   14.7990   -0.3830 C   0  0  0  0  0  0  0  0  0  0  0  0
   -5.9890   14.7130   -1.7940 C   0  0  0  0  0  0  0  0  0  0  0  0
   -4.6530   15.0170   -1.8100 F   0  0  0  0  0  0  0  0  0  0  0  0
   -6.1450   13.3220   -2.1610 N   0  0  0  0  0  0  0  0  0  0  0  0
   -6.5500   15.5020   -2.7340 F   0  0  0  0  0  0  0  0  0  0  0  0
   -5.2810   12.5630   -1.6660 C   0  0  0  0  0  0  0  0  0  0  0  0
   -5.2350   11.0630   -1.7900 C   0  0  0  0  0  0  0  0  0  0  0  0
   -4.1980   13.3510   -0.8770 C   0  0  2  0  0  0  0  0  0  0  0  0
   -4.3510   13.0460    0.6230 C   0  0  0  0  0  0  0  0  0  0  0  0
   -4.1870   14.8510   -1.2760 C   0  0  0  0  0  0  0  0  0  0  0  0
   -2.7790   13.1100   -1.3500 C   0  0  1  0  0  0  0  0  0  0  0  0
   -2.8600   13.5050   -2.8180 C   0  0  0  0  0  0  0  0  0  0  0  0
   -1.7570   13.7350   -0.5010 C   0  0  0  0  0  0  0  0  0  0  0  0
   -3.3850   13.8890    1.4560 C   0  0  0  0  0  0  0  0  0  0  0  0
   -3.6110   14.8370   -2.7150 C   0  0  0  0  0  0  0  0  0  0  0  0
   -0.5030   13.9640   -1.0280 C   0  0  0  0  0  0  0  0  0  0  0  0
   -2.0340   14.1080    0.8280 C   0  0  0  0  0  0  0  0  0  0  0  0
   -1.1100   14.6780    1.6120 N   0  0  0  0  0  0  0  0  0  0  0  0
    0.4410   14.5470   -0.2440 C   0  0  0  0  0  0  0  0  0  0  0  0
    0.0960   14.8780    1.0450 C   0  0  0  0  0  0  0  0  0  0  0  0
  1  2  1  0
  2  3  2  0
  2  4  1  0
  4  5  2  0
  4  6  1  0
  5  7  1  0
  6  8  2  0
  7  9  2  0
  8  9  1  0
  9 10  1  0
 10 11  1  0
 10 12  1  0
 10 13  1  0
 12 14  2  3
 14 15  1  0
 16 14  1  6
 16 17  1  0
 16 18  1  0
 16 19  1  0
 19 20  1  6
 19 21  1  0
 17 22  1  0
 18 23  1  0
 20 23  1  0
 21 24  1  0
 21 25  2  0
 22 25  1  0
 25 26  1  0
 24 27  2  0
 26 28  2  0
 27 28  1  0
M  END
