x0587_0_A-x0962_1_A
     RDKit          3D

 13 13  0  0  0  0  0  0  0  0999 V2000
   -7.8050   14.8440    4.0980 N   0  0  0  0  0  0  0  0  0  0  0  0
   -8.2740   14.8820    2.8210 C   0  0  0  0  0  0  0  0  0  0  0  0
   -9.4700   15.0250    2.5880 O   0  0  0  0  0  0  0  0  0  0  0  0
   -7.2940   14.7740    1.7370 C   0  0  0  0  0  0  0  0  0  0  0  0
   -7.6920   14.5700    0.4320 C   0  0  0  0  0  0  0  0  0  0  0  0
   -5.9310   14.8740    1.9150 C   0  0  0  0  0  0  0  0  0  0  0  0
   -6.8300   14.4830   -0.6090 N   0  0  0  0  0  0  0  0  0  0  0  0
   -5.0240   14.7960    0.9190 N   0  0  0  0  0  0  0  0  0  0  0  0
   -5.5050   14.6040   -0.3310 C   0  0  0  0  0  0  0  0  0  0  0  0
   -4.4990   14.5280   -1.4800 C   0  0  0  0  0  0  0  0  0  0  0  0
   -3.2420   14.9320   -1.1150 F   0  0  0  0  0  0  0  0  0  0  0  0
   -4.3450   13.2730   -2.0000 F   0  0  0  0  0  0  0  0  0  0  0  0
   -4.8330   15.3120   -2.5470 F   0  0  0  0  0  0  0  0  0  0  0  0
  1  2  1  0
  2  3  2  0
  2  4  1  0
  4  5  2  0
  4  6  1  0
  5  7  1  0
  6  8  2  0
  7  9  2  0
  8  9  1  0
  9 10  1  0
 10 11  1  0
 10 12  1  0
 10 13  1  0
M  END
