x0587_0_A-x0685_1_A
     RDKit          3D

 28 29  0  0  0  0  0  0  0  0999 V2000
   -7.7910   14.8420    4.0890 N   0  0  0  0  0  0  0  0  0  0  0  0
   -8.2630   14.8900    2.8130 C   0  0  0  0  0  0  0  0  0  0  0  0
   -9.4620   15.0340    2.5800 O   0  0  0  0  0  0  0  0  0  0  0  0
   -7.2770   14.7790    1.7300 C   0  0  0  0  0  0  0  0  0  0  0  0
   -7.6690   14.5830    0.4250 C   0  0  0  0  0  0  0  0  0  0  0  0
   -5.9170   14.8710    1.9240 C   0  0  0  0  0  0  0  0  0  0  0  0
   -6.7970   14.4920   -0.6060 N   0  0  0  0  0  0  0  0  0  0  0  0
   -5.0010   14.7880    0.9380 N   0  0  0  0  0  0  0  0  0  0  0  0
   -5.4720   14.6010   -0.3210 C   0  0  0  0  0  0  0  0  0  0  0  0
   -4.4530   14.5130   -1.4710 C   0  0  0  0  0  0  0  0  0  0  0  0
   -3.1220   14.8090   -1.0120 O   0  0  0  0  0  0  0  0  0  0  0  0
   -4.4030   13.2720   -2.0490 F   0  0  0  0  0  0  0  0  0  0  0  0
   -4.7650   15.3620   -2.4980 F   0  0  0  0  0  0  0  0  0  0  0  0
   -2.1120   14.3430   -1.9120 C   0  0  0  0  0  0  0  0  0  0  0  0
   -1.3600   13.1490   -1.3120 C   0  0  0  0  0  0  0  0  0  0  0  0
    0.0390   13.1510   -1.6130 O   0  0  0  0  0  0  0  0  0  0  0  0
    0.6640   12.1560   -2.7160 S   0  0  0  0  0  0  0  0  0  0  0  0
   -0.0390   12.6040   -4.3020 C   0  0  0  0  0  0  0  0  0  0  0  0
    2.2470   12.3230   -2.9000 O   0  0  0  0  0  0  0  0  0  0  0  0
    0.2750   10.6090   -2.4430 O   0  0  0  0  0  0  0  0  0  0  0  0
   -1.4300   12.0180   -4.5060 C   0  0  0  0  0  0  0  0  0  0  0  0
   -1.4030   10.6100   -4.9280 N   0  0  0  0  0  0  0  0  0  0  0  0
   -0.7170   10.3510   -6.1950 C   0  0  0  0  0  0  0  0  0  0  0  0
   -0.5090    8.8510   -6.4430 C   0  0  0  0  0  0  0  0  0  0  0  0
   -1.5720   10.9550   -7.3310 C   0  0  0  0  0  0  0  0  0  0  0  0
    0.1120    8.6110   -7.8200 C   0  0  0  0  0  0  0  0  0  0  0  0
   -1.0190   10.6700   -8.7320 C   0  0  0  0  0  0  0  0  0  0  0  0
   -0.7350    9.1920   -8.9580 C   0  0  0  0  0  0  0  0  0  0  0  0
  1  2  1  0
  2  3  2  0
  2  4  1  0
  4  5  2  0
  4  6  1  0
  5  7  1  0
  6  8  2  0
  7  9  2  0
  8  9  1  0
  9 10  1  0
 10 11  1  0
 10 12  1  0
 10 13  1  0
 11 14  1  0
 14 15  1  0
 15 16  1  0
 17 16  1  0
 17 18  1  0
 17 19  1  0
 17 20  1  0
 18 21  1  0
 21 22  1  0
 22 23  1  0
 23 24  1  0
 23 25  1  0
 24 26  1  0
 25 27  1  0
 26 28  1  0
 27 28  1  0
M  END
