x0587_0_A-x0421_0_A
     RDKit          3D

 17 18  0  0  0  0  0  0  0  0999 V2000
   -7.9130   14.5840    3.8670 N   0  0  0  0  0  0  0  0  0  0  0  0
   -8.3310   14.6800    2.5580 C   0  0  0  0  0  0  0  0  0  0  0  0
   -9.5200   14.8410    2.2940 O   0  0  0  0  0  0  0  0  0  0  0  0
   -7.2720   14.6100    1.4550 C   0  0  2  0  0  0  0  0  0  0  0  0
   -7.1770   13.4130    0.5420 C   0  0  0  0  0  0  0  0  0  0  0  0
   -5.8710   14.8570    1.9270 C   0  0  0  0  0  0  0  0  0  0  0  0
   -5.7740   13.2270    0.0370 N   0  0  0  0  0  0  0  0  0  0  0  0
   -5.0190   15.3970    0.8920 N   0  0  0  0  0  0  0  0  0  0  0  0
   -5.0160   14.4900   -0.2960 C   0  0  2  0  0  0  0  0  0  0  0  0
   -3.6860   15.5250    1.4690 N   0  0  0  0  0  0  0  0  0  0  0  0
   -5.4420   15.0240   -1.6840 C   0  0  0  0  0  0  0  0  0  0  0  0
   -3.4750   14.4060   -0.4490 C   0  0  1  0  0  0  0  0  0  0  0  0
   -2.9630   14.3760    0.9600 C   0  0  0  0  0  0  0  0  0  0  0  0
   -5.5200   13.9530   -2.5180 F   0  0  0  0  0  0  0  0  0  0  0  0
   -4.4550   15.7780   -2.2150 F   0  0  0  0  0  0  0  0  0  0  0  0
   -2.8290   13.4200   -1.4060 C   0  0  0  0  0  0  0  0  0  0  0  0
   -1.7790   14.1200   -2.0840 O   0  0  0  0  0  0  0  0  0  0  0  0
  1  2  1  0
  2  3  2  0
  4  2  1  1
  4  5  1  0
  4  6  1  0
  5  7  1  0
  6  8  1  0
  9  7  1  0
  8  9  1  0
  8 10  1  0
  9 11  1  6
  9 12  1  0
 10 13  1  0
 12 13  1  0
 11 14  1  0
 11 15  1  0
 12 16  1  6
 16 17  1  0
M  END
