x0587_0_A_α-x0626_0_A_α
     RDKit          3D

 21 23  0  0  0  0  0  0  0  0999 V2000
   -7.6760   13.1060    1.9880 N   0  0  0  0  0  0  0  0  0  0  0  0
   -6.9060   13.2960    0.5520 S   0  0  0  0  0  0  0  0  0  0  0  0
   -7.8140   14.4820    0.6150 O   0  0  0  0  0  0  0  0  0  0  0  0
   -6.2110   11.8690    0.7750 C   0  0  0  0  0  0  0  0  0  0  0  0
   -5.5390   14.3090   -0.1430 C   0  0  0  0  0  0  0  0  0  0  0  0
   -5.7530   14.0220    0.5980 C   0  0  2  0  0  0  0  0  0  0  0  0
   -6.3890   13.6310   -1.3580 S   0  0  0  0  0  0  0  0  0  0  0  0
   -4.5200   15.2600   -0.2650 N   0  0  0  0  0  0  0  0  0  0  0  0
   -4.4930   13.3890    1.0610 C   0  0  0  0  0  0  0  0  0  0  0  0
   -5.6260   15.3590    1.0430 N   0  0  0  0  0  0  0  0  0  0  0  0
   -6.3500   13.7230   -2.6330 F   0  0  0  0  0  0  0  0  0  0  0  0
   -5.1930   14.6860   -1.9740 F   0  0  0  0  0  0  0  0  0  0  0  0
   -7.2920   12.8310   -1.0070 F   0  0  0  0  0  0  0  0  0  0  0  0
   -3.8110   14.1720    1.8470 C   0  0  0  0  0  0  0  0  0  0  0  0
   -3.1520   14.9280   -0.4110 C   0  0  0  0  0  0  0  0  0  0  0  0
   -4.5420   15.4420    1.9970 C   0  0  0  0  0  0  0  0  0  0  0  0
   -2.3090   14.7080    0.5460 N   0  0  0  0  0  0  0  0  0  0  0  0
   -2.2110   14.7330   -1.8180 S   0  0  0  0  0  0  0  0  0  0  0  0
   -0.7310   14.3820   -1.0490 C   0  0  0  0  0  0  0  0  0  0  0  0
   -1.0910   14.4300    0.2790 C   0  0  0  0  0  0  0  0  0  0  0  0
   -0.0880   14.1600    1.3590 C   0  0  0  0  0  0  0  0  0  0  0  0
  1  2  1  0
  2  3  2  0
  2  4  1  0
  2  5  1  0
  2  6  1  0
  5  7  2  0
  6  7  1  0
  5  8  1  0
  6  9  1  6
  6 10  1  0
  7 11  1  0
  7 12  1  0
  7 13  1  0
  9 14  2  0
  8 15  1  0
 10 16  1  0
 14 16  1  0
 15 17  2  0
 15 18  1  0
 18 19  1  0
 17 20  1  0
 19 20  2  0
 20 21  1  0
M  END
