x0587_0_A_α-x0685_1_A_α
     RDKit          3D

 28 29  0  0  0  0  0  0  0  0999 V2000
   -7.7800   14.9170    4.1100 N   0  0  0  0  0  0  0  0  0  0  0  0
   -8.2490   14.8860    2.8320 C   0  0  0  0  0  0  0  0  0  0  0  0
   -9.4510   14.9630    2.5940 O   0  0  0  0  0  0  0  0  0  0  0  0
   -7.2630   14.7760    1.7460 C   0  0  0  0  0  0  0  0  0  0  0  0
   -7.6570   14.5760    0.4440 C   0  0  0  0  0  0  0  0  0  0  0  0
   -5.9020   14.8770    1.9360 C   0  0  0  0  0  0  0  0  0  0  0  0
   -6.7900   14.4870   -0.5920 N   0  0  0  0  0  0  0  0  0  0  0  0
   -4.9910   14.7960    0.9450 N   0  0  0  0  0  0  0  0  0  0  0  0
   -5.4650   14.6040   -0.3110 C   0  0  0  0  0  0  0  0  0  0  0  0
   -4.4500   14.5150   -1.4650 C   0  0  0  0  0  0  0  0  0  0  0  0
   -3.1170   14.8190   -1.0150 O   0  0  0  0  0  0  0  0  0  0  0  0
   -4.3970   13.2720   -2.0340 F   0  0  0  0  0  0  0  0  0  0  0  0
   -4.7730   15.3580   -2.4950 F   0  0  0  0  0  0  0  0  0  0  0  0
   -2.1140   14.3410   -1.9160 C   0  0  0  0  0  0  0  0  0  0  0  0
   -1.3620   13.1470   -1.3110 C   0  0  0  0  0  0  0  0  0  0  0  0
    0.0360   13.1480   -1.6170 O   0  0  0  0  0  0  0  0  0  0  0  0
    0.6620   12.1550   -2.7210 S   0  0  0  0  0  0  0  0  0  0  0  0
   -0.0400   12.6010   -4.3070 C   0  0  0  0  0  0  0  0  0  0  0  0
    2.2430   12.3290   -2.9080 O   0  0  0  0  0  0  0  0  0  0  0  0
    0.2790   10.6080   -2.4460 O   0  0  0  0  0  0  0  0  0  0  0  0
   -1.4340   12.0160   -4.5110 C   0  0  0  0  0  0  0  0  0  0  0  0
   -1.4080   10.6090   -4.9290 N   0  0  0  0  0  0  0  0  0  0  0  0
   -0.7200   10.3470   -6.1940 C   0  0  0  0  0  0  0  0  0  0  0  0
   -0.5090    8.8490   -6.4420 C   0  0  0  0  0  0  0  0  0  0  0  0
   -1.5720   10.9570   -7.3300 C   0  0  0  0  0  0  0  0  0  0  0  0
    0.1090    8.6100   -7.8200 C   0  0  0  0  0  0  0  0  0  0  0  0
   -1.0230   10.6730   -8.7300 C   0  0  0  0  0  0  0  0  0  0  0  0
   -0.7330    9.1940   -8.9570 C   0  0  0  0  0  0  0  0  0  0  0  0
  1  2  1  0
  2  3  2  0
  2  4  1  0
  4  5  2  0
  4  6  1  0
  5  7  1  0
  6  8  2  0
  7  9  2  0
  8  9  1  0
  9 10  1  0
 10 11  1  0
 10 12  1  0
 10 13  1  0
 11 14  1  0
 14 15  1  0
 15 16  1  0
 17 16  1  0
 17 18  1  0
 17 19  1  0
 17 20  1  0
 18 21  1  0
 21 22  1  0
 22 23  1  0
 23 24  1  0
 23 25  1  0
 24 26  1  0
 25 27  1  0
 26 28  1  0
 27 28  1  0
M  END
