x0587_0_A-x0628_0_A
     RDKit          3D

 27 28  0  0  0  0  0  0  0  0999 V2000
   -7.6130   14.7410    3.9770 N   0  0  0  0  0  0  0  0  0  0  0  0
   -8.2110   14.8330    2.7550 C   0  0  0  0  0  0  0  0  0  0  0  0
   -9.4160   14.9880    2.6060 O   0  0  0  0  0  0  0  0  0  0  0  0
   -7.2890   14.7420    1.6240 C   0  0  0  0  0  0  0  0  0  0  0  0
   -7.6990   14.4270    0.3510 C   0  0  0  0  0  0  0  0  0  0  0  0
   -5.9490   14.9830    1.7760 C   0  0  0  0  0  0  0  0  0  0  0  0
   -6.8400   14.3610   -0.6960 N   0  0  0  0  0  0  0  0  0  0  0  0
   -5.0520   14.9290    0.7770 N   0  0  0  0  0  0  0  0  0  0  0  0
   -5.5260   14.6200   -0.4470 C   0  0  0  0  0  0  0  0  0  0  0  0
   -4.5050   14.5710   -1.5960 C   0  0  0  0  0  0  0  0  0  0  0  0
   -3.2520   14.9390   -1.1970 F   0  0  0  0  0  0  0  0  0  0  0  0
   -4.3750   13.2360   -2.1220 O   0  0  0  0  0  0  0  0  0  0  0  0
   -4.7960   15.4090   -2.6250 F   0  0  0  0  0  0  0  0  0  0  0  0
   -4.6110   13.1590   -3.5330 C   0  0  0  0  0  0  0  0  0  0  0  0
   -3.2880   13.2850   -4.3010 C   0  0  0  0  0  0  0  0  0  0  0  0
   -2.1960   12.3040   -3.8490 C   0  0  0  0  0  0  0  0  0  0  0  0
   -1.4890   11.5820   -4.9560 C   0  0  0  0  0  0  0  0  0  0  0  0
   -1.8500   10.4460   -5.5270 N   0  0  0  0  0  0  0  0  0  0  0  0
   -0.3250   12.0100   -5.5500 N   0  0  0  0  0  0  0  0  0  0  0  0
    0.4590   13.2000   -5.2720 C   0  0  0  0  0  0  0  0  0  0  0  0
   -0.8770   10.2180   -6.4600 C   0  0  0  0  0  0  0  0  0  0  0  0
    0.0810   11.1520   -6.5160 N   0  0  0  0  0  0  0  0  0  0  0  0
   -0.8840    9.0290   -7.3350 C   0  0  0  0  0  0  0  0  0  0  0  0
    1.5960   12.9520   -4.2980 C   0  0  0  0  0  0  0  0  0  0  0  0
    1.1160   12.2280   -3.0740 C   0  0  0  0  0  0  0  0  0  0  0  0
    0.4490   11.2090   -3.0160 O   0  0  0  0  0  0  0  0  0  0  0  0
    1.5000   12.8510   -1.9510 O   0  0  0  0  0  0  0  0  0  0  0  0
  1  2  1  0
  2  3  2  0
  2  4  1  0
  4  5  2  0
  4  6  1  0
  5  7  1  0
  6  8  2  0
  7  9  2  0
  8  9  1  0
  9 10  1  0
 10 11  1  0
 10 12  1  0
 10 13  1  0
 12 14  1  0
 14 15  1  0
 15 16  1  0
 16 17  1  0
 17 18  2  0
 17 19  1  0
 19 20  1  0
 18 21  1  0
 19 22  1  0
 21 22  2  0
 21 23  1  0
 20 24  1  0
 24 25  1  0
 25 26  2  0
 25 27  1  0
M  END
