x0587_0_A-x0969_0_A
     RDKit          3D

 17 18  0  0  0  0  0  0  0  0999 V2000
   -7.8440   14.9300    3.9810 N   0  0  0  0  0  0  0  0  0  0  0  0
   -8.2840   14.9310    2.6940 C   0  0  0  0  0  0  0  0  0  0  0  0
   -9.4810   15.0370    2.4410 O   0  0  0  0  0  0  0  0  0  0  0  0
   -7.2590   14.8190    1.6280 C   0  0  0  0  0  0  0  0  0  0  0  0
   -7.6200   14.7610    0.1820 C   0  0  0  0  0  0  0  0  0  0  0  0
   -5.9370   14.8000    1.8580 C   0  0  0  0  0  0  0  0  0  0  0  0
   -6.8390   14.7320   -0.8550 N   0  0  0  0  0  0  0  0  0  0  0  0
   -4.9580   14.7190    0.8810 N   0  0  0  0  0  0  0  0  0  0  0  0
   -5.3750   14.7200   -0.5610 C   0  0  1  0  0  0  0  0  0  0  0  0
   -3.6040   14.7950    1.1390 C   0  0  0  0  0  0  0  0  0  0  0  0
   -4.7230   13.5470   -1.3350 C   0  0  0  0  0  0  0  0  0  0  0  0
   -4.5430   15.6810   -1.3410 C   0  0  0  0  0  0  0  0  0  0  0  0
   -2.7600   15.3750    0.2750 C   0  0  0  0  0  0  0  0  0  0  0  0
   -3.7200   12.9830   -0.6360 F   0  0  0  0  0  0  0  0  0  0  0  0
   -4.1360   13.9850   -2.4730 F   0  0  0  0  0  0  0  0  0  0  0  0
   -5.6200   12.6620   -1.7630 F   0  0  0  0  0  0  0  0  0  0  0  0
   -3.2900   15.9500   -0.9420 C   0  0  0  0  0  0  0  0  0  0  0  0
  1  2  1  0
  2  3  2  0
  2  4  1  0
  4  5  1  0
  4  6  2  0
  5  7  2  0
  6  8  1  0
  9  7  1  0
  8  9  1  0
  8 10  1  0
  9 11  1  6
  9 12  1  0
 10 13  2  0
 11 14  1  0
 11 15  1  0
 11 16  1  0
 12 17  2  0
 13 17  1  0
M  END
