x0587_0_A_α-x0722_0_A_α
     RDKit          3D

 23 24  0  0  0  0  0  0  0  0999 V2000
   -7.8430   15.0280    4.8220 N   0  0  0  0  0  0  0  0  0  0  0  0
   -8.4330   14.8660    3.5280 C   0  0  0  0  0  0  0  0  0  0  0  0
   -9.6870   14.8230    3.4820 O   0  0  0  0  0  0  0  0  0  0  0  0
   -7.6390   14.7900    2.3540 C   0  0  0  0  0  0  0  0  0  0  0  0
   -8.2940   14.9240    1.2220 C   0  0  0  0  0  0  0  0  0  0  0  0
   -6.2960   14.5990    2.3650 C   0  0  0  0  0  0  0  0  0  0  0  0
   -7.5590   14.8800    0.1210 N   0  0  0  0  0  0  0  0  0  0  0  0
   -5.6930   14.5780    1.1730 N   0  0  0  0  0  0  0  0  0  0  0  0
   -6.3150   14.7290   -0.0040 C   0  0  0  0  0  0  0  0  0  0  0  0
   -5.3910   14.6860   -1.3850 S   0  0  0  0  0  0  0  0  0  0  0  0
   -3.9210   15.7360   -0.8980 O   0  0  0  0  0  0  0  0  0  0  0  0
   -3.3650   13.7970   -1.5050 F   0  0  0  0  0  0  0  0  0  0  0  0
   -4.7340   15.3650   -2.8370 F   0  0  0  0  0  0  0  0  0  0  0  0
   -6.3830   13.8580   -2.4710 C   0  0  0  0  0  0  0  0  0  0  0  0
   -7.0940   14.0950   -3.4150 O   0  0  0  0  0  0  0  0  0  0  0  0
   -6.4680   12.4540   -2.1530 N   0  0  0  0  0  0  0  0  0  0  0  0
   -3.1580   15.3160    0.0650 C   0  0  0  0  0  0  0  0  0  0  0  0
   -3.3230   15.2610    1.4480 C   0  0  0  0  0  0  0  0  0  0  0  0
   -1.9050   14.8000   -0.1430 C   0  0  0  0  0  0  0  0  0  0  0  0
   -4.4500   15.6810    2.2530 C   0  0  0  0  0  0  0  0  0  0  0  0
   -2.2230   14.7470    1.9280 N   0  0  0  0  0  0  0  0  0  0  0  0
   -1.3840   14.4850    1.0010 N   0  0  0  0  0  0  0  0  0  0  0  0
   -0.0880   13.9370    1.3020 C   0  0  0  0  0  0  0  0  0  0  0  0
  1  2  1  0
  2  3  2  0
  2  4  1  0
  4  5  2  0
  4  6  1  0
  5  7  1  0
  6  8  2  0
  7  9  2  0
  8  9  1  0
  9 10  1  0
 10 11  1  0
 10 12  1  0
 10 13  1  0
 10 14  1  0
 14 15  2  0
 14 16  1  0
 11 17  1  0
 17 18  1  0
 17 19  2  0
 18 20  1  0
 18 21  2  0
 19 22  1  0
 21 22  1  0
 22 23  1  0
M  END
