x0587_0_A-x0722_0_A
     RDKit          3D

 23 24  0  0  0  0  0  0  0  0999 V2000
   -7.9010   14.9990    4.7400 N   0  0  0  0  0  0  0  0  0  0  0  0
   -8.4600   14.8930    3.4260 C   0  0  0  0  0  0  0  0  0  0  0  0
   -9.7130   14.8810    3.3520 O   0  0  0  0  0  0  0  0  0  0  0  0
   -7.6450   14.8350    2.2600 C   0  0  0  0  0  0  0  0  0  0  0  0
   -8.2910   14.8850    1.1140 C   0  0  0  0  0  0  0  0  0  0  0  0
   -6.2970   14.7430    2.2890 C   0  0  0  0  0  0  0  0  0  0  0  0
   -7.5370   14.8560    0.0200 N   0  0  0  0  0  0  0  0  0  0  0  0
   -5.6780   14.7240    1.1030 N   0  0  0  0  0  0  0  0  0  0  0  0
   -6.2840   14.7890   -0.0900 C   0  0  0  0  0  0  0  0  0  0  0  0
   -5.3300   14.7630   -1.4670 S   0  0  0  0  0  0  0  0  0  0  0  0
   -3.7770   15.6260   -0.8770 O   0  0  0  0  0  0  0  0  0  0  0  0
   -3.3630   13.7590   -1.5690 F   0  0  0  0  0  0  0  0  0  0  0  0
   -4.5970   15.4480   -2.8730 F   0  0  0  0  0  0  0  0  0  0  0  0
   -6.3240   13.9800   -2.5810 C   0  0  0  0  0  0  0  0  0  0  0  0
   -7.0190   14.2370   -3.5300 O   0  0  0  0  0  0  0  0  0  0  0  0
   -6.4360   12.5730   -2.2780 N   0  0  0  0  0  0  0  0  0  0  0  0
   -3.5920   15.3790    0.3800 C   0  0  0  0  0  0  0  0  0  0  0  0
   -3.2810   15.0730    1.7280 C   0  0  0  0  0  0  0  0  0  0  0  0
   -2.2900   14.9680   -0.0230 C   0  0  0  0  0  0  0  0  0  0  0  0
   -4.2570   15.2650    2.8020 C   0  0  0  0  0  0  0  0  0  0  0  0
   -2.0910   14.6170    1.9380 N   0  0  0  0  0  0  0  0  0  0  0  0
   -1.4760   14.5550    0.8850 N   0  0  0  0  0  0  0  0  0  0  0  0
   -0.0970   14.0920    0.8100 C   0  0  0  0  0  0  0  0  0  0  0  0
  1  2  1  0
  2  3  2  0
  2  4  1  0
  4  5  2  0
  4  6  1  0
  5  7  1  0
  6  8  2  0
  7  9  2  0
  8  9  1  0
  9 10  1  0
 10 11  1  0
 10 12  1  0
 10 13  1  0
 10 14  1  0
 14 15  2  0
 14 16  1  0
 11 17  1  0
 17 18  1  0
 17 19  2  0
 18 20  1  0
 18 21  2  0
 19 22  1  0
 21 22  1  0
 22 23  1  0
M  END
