x0587_0_A_α-x0766_0_A_α
     RDKit          3D

 26 28  0  0  0  0  0  0  0  0999 V2000
   -7.9940   14.8260    4.4250 N   0  0  0  0  0  0  0  0  0  0  0  0
   -8.5740   14.9210    3.1980 C   0  0  0  0  0  0  0  0  0  0  0  0
   -9.7710   15.1090    3.0380 O   0  0  0  0  0  0  0  0  0  0  0  0
   -7.6780   14.7980    2.0710 C   0  0  0  0  0  0  0  0  0  0  0  0
   -8.1390   14.5860    0.7920 C   0  0  0  0  0  0  0  0  0  0  0  0
   -6.3280   14.8950    2.2280 C   0  0  0  0  0  0  0  0  0  0  0  0
   -7.3210   14.4860   -0.2660 N   0  0  0  0  0  0  0  0  0  0  0  0
   -5.4730   14.8060    1.2280 N   0  0  0  0  0  0  0  0  0  0  0  0
   -6.0130   14.6110    0.0210 C   0  0  0  0  0  0  0  0  0  0  0  0
   -5.0070   14.5540   -1.0520 C   0  0  0  0  0  0  0  0  0  0  0  0
   -3.7940   14.9320   -0.4340 O   0  0  0  0  0  0  0  0  0  0  0  0
   -4.8260   13.2990   -1.5800 F   0  0  0  0  0  0  0  0  0  0  0  0
   -5.2810   15.3730   -2.1140 F   0  0  0  0  0  0  0  0  0  0  0  0
   -2.9100   14.8540   -1.3160 C   0  0  0  0  0  0  0  0  0  0  0  0
   -1.5820   14.6520   -1.3540 C   0  0  0  0  0  0  0  0  0  0  0  0
   -3.6160   15.0460   -2.8490 S   0  0  0  0  0  0  0  0  0  0  0  0
   -2.1440   14.8580   -3.5910 C   0  0  0  0  0  0  0  0  0  0  0  0
   -1.1400   14.6560   -2.6870 C   0  0  0  0  0  0  0  0  0  0  0  0
    0.2410   14.4680   -3.0620 C   0  0  1  0  0  0  0  0  0  0  0  0
    0.4110   13.1980   -3.8760 C   0  0  2  0  0  0  0  0  0  0  0  0
    0.6360   15.6110   -3.9400 C   0  0  0  0  0  0  0  0  0  0  0  0
    0.7040   12.1030   -2.9010 C   0  0  0  0  0  0  0  0  0  0  0  0
    1.5490   13.5100   -4.8370 C   0  0  0  0  0  0  0  0  0  0  0  0
    1.7030   15.0340   -4.7960 C   0  0  0  0  0  0  0  0  0  0  0  0
    1.5210   12.2040   -2.0170 O   0  0  0  0  0  0  0  0  0  0  0  0
   -0.0320   10.9830   -3.0450 O   0  0  0  0  0  0  0  0  0  0  0  0
  1  2  1  0
  2  3  2  0
  2  4  1  0
  4  5  2  0
  4  6  1  0
  5  7  1  0
  6  8  2  0
  7  9  2  0
  8  9  1  0
  9 10  1  0
 10 11  1  0
 10 12  1  0
 10 13  1  0
 11 14  1  0
 14 15  2  0
 14 16  1  0
 16 17  1  0
 15 18  1  0
 17 18  2  0
 19 18  1  6
 19 20  1  0
 19 21  1  0
 20 22  1  1
 20 23  1  0
 21 24  1  0
 23 24  1  0
 22 25  2  0
 22 26  1  0
M  END
