x0587_0_A-x0766_0_A
     RDKit          3D

 26 28  0  0  0  0  0  0  0  0999 V2000
   -8.0050   14.8250    4.4280 N   0  0  0  0  0  0  0  0  0  0  0  0
   -8.5730   14.9180    3.1950 C   0  0  0  0  0  0  0  0  0  0  0  0
   -9.7710   15.1050    3.0270 O   0  0  0  0  0  0  0  0  0  0  0  0
   -7.6700   14.7990    2.0720 C   0  0  0  0  0  0  0  0  0  0  0  0
   -8.1310   14.5920    0.7960 C   0  0  0  0  0  0  0  0  0  0  0  0
   -6.3190   14.8960    2.2310 C   0  0  0  0  0  0  0  0  0  0  0  0
   -7.3170   14.4940   -0.2660 N   0  0  0  0  0  0  0  0  0  0  0  0
   -5.4660   14.8080    1.2280 N   0  0  0  0  0  0  0  0  0  0  0  0
   -6.0090   14.6180    0.0210 C   0  0  0  0  0  0  0  0  0  0  0  0
   -5.0050   14.5620   -1.0530 C   0  0  0  0  0  0  0  0  0  0  0  0
   -3.7930   14.9440   -0.4350 O   0  0  0  0  0  0  0  0  0  0  0  0
   -4.8120   13.3070   -1.5750 F   0  0  0  0  0  0  0  0  0  0  0  0
   -5.2810   15.3760   -2.1200 F   0  0  0  0  0  0  0  0  0  0  0  0
   -2.9120   14.8630   -1.3190 C   0  0  0  0  0  0  0  0  0  0  0  0
   -1.5830   14.6570   -1.3550 C   0  0  0  0  0  0  0  0  0  0  0  0
   -3.6200   15.0630   -2.8490 S   0  0  0  0  0  0  0  0  0  0  0  0
   -2.1470   14.8680   -3.5930 C   0  0  0  0  0  0  0  0  0  0  0  0
   -1.1450   14.6620   -2.6920 C   0  0  0  0  0  0  0  0  0  0  0  0
    0.2360   14.4700   -3.0640 C   0  0  1  0  0  0  0  0  0  0  0  0
    0.4060   13.1980   -3.8770 C   0  0  2  0  0  0  0  0  0  0  0  0
    0.6350   15.6140   -3.9400 C   0  0  0  0  0  0  0  0  0  0  0  0
    0.7060   12.1040   -2.9030 C   0  0  0  0  0  0  0  0  0  0  0  0
    1.5470   13.5110   -4.8350 C   0  0  0  0  0  0  0  0  0  0  0  0
    1.7000   15.0330   -4.7970 C   0  0  0  0  0  0  0  0  0  0  0  0
    1.5260   12.2070   -2.0230 O   0  0  0  0  0  0  0  0  0  0  0  0
   -0.0260   10.9830   -3.0430 O   0  0  0  0  0  0  0  0  0  0  0  0
  1  2  1  0
  2  3  2  0
  2  4  1  0
  4  5  2  0
  4  6  1  0
  5  7  1  0
  6  8  2  0
  7  9  2  0
  8  9  1  0
  9 10  1  0
 10 11  1  0
 10 12  1  0
 10 13  1  0
 11 14  1  0
 14 15  2  0
 14 16  1  0
 16 17  1  0
 15 18  1  0
 17 18  2  0
 19 18  1  6
 19 20  1  0
 19 21  1  0
 20 22  1  1
 20 23  1  0
 21 24  1  0
 23 24  1  0
 22 25  2  0
 22 26  1  0
M  END
