x0587_0_A-x0371_0_A
     RDKit          3D

 23 25  0  0  0  0  0  0  0  0999 V2000
   -7.5200   15.1400    3.9170 N   0  0  0  0  0  0  0  0  0  0  0  0
   -8.1210   14.7540    2.6610 C   0  0  2  0  0  0  0  0  0  0  0  0
   -9.1100   15.7420    2.4190 O   0  0  0  0  0  0  0  0  0  0  0  0
   -8.0800   15.4120    5.1120 C   0  0  0  0  0  0  0  0  0  0  0  0
   -8.8570   13.4280    2.6390 C   0  0  0  0  0  0  0  0  0  0  0  0
   -7.0860   14.7760    1.5770 C   0  0  0  0  0  0  0  0  0  0  0  0
   -7.7850   14.4550    6.0260 O   0  0  0  0  0  0  0  0  0  0  0  0
   -8.8610   16.3800    5.6970 C   0  0  0  0  0  0  0  0  0  0  0  0
   -7.5470   14.6230    0.1680 C   0  0  0  0  0  0  0  0  0  0  0  0
   -5.7530   14.9390    1.6990 C   0  0  0  0  0  0  0  0  0  0  0  0
   -9.0410   15.9820    7.0510 C   0  0  0  0  0  0  0  0  0  0  0  0
   -8.3580   14.7990    7.1940 C   0  0  0  0  0  0  0  0  0  0  0  0
   -6.8480   14.5850   -0.9160 N   0  0  0  0  0  0  0  0  0  0  0  0
   -4.8580   14.9470    0.6560 N   0  0  0  0  0  0  0  0  0  0  0  0
   -5.3770   14.6930   -0.7140 C   0  0  1  0  0  0  0  0  0  0  0  0
   -3.4860   15.0520    0.7710 C   0  0  0  0  0  0  0  0  0  0  0  0
   -4.6050   13.5460   -1.4220 C   0  0  0  0  0  0  0  0  0  0  0  0
   -2.7500   15.5410   -0.2420 C   0  0  0  0  0  0  0  0  0  0  0  0
   -4.7060   15.6210   -1.6750 C   0  0  0  0  0  0  0  0  0  0  0  0
   -3.3060   13.5060   -1.0370 F   0  0  0  0  0  0  0  0  0  0  0  0
   -5.1400   12.3180   -1.3150 F   0  0  0  0  0  0  0  0  0  0  0  0
   -4.5790   13.8600   -2.7470 F   0  0  0  0  0  0  0  0  0  0  0  0
   -3.4280   15.9760   -1.4430 C   0  0  0  0  0  0  0  0  0  0  0  0
  1  2  1  0
  2  3  1  0
  1  4  1  0
  2  5  1  1
  2  6  1  0
  4  7  1  0
  4  8  2  0
  6  9  1  0
  6 10  2  0
  8 11  1  0
  7 12  1  0
 11 12  2  0
  9 13  2  0
 10 14  1  0
 15 13  1  0
 14 15  1  0
 14 16  1  0
 15 17  1  6
 16 18  2  0
 15 19  1  0
 17 20  1  0
 17 21  1  0
 17 22  1  0
 18 23  1  0
 19 23  2  0
M  END
