x0587_0_A_α-x0852_0_B_α
     RDKit          3D

 21 22  0  0  0  0  0  0  0  0999 V2000
   -8.8100   13.9470    1.3250 C   0  0  0  0  0  0  0  0  0  0  0  0
   -9.6210   14.2880    2.1980 N   0  0  0  0  0  0  0  0  0  0  0  0
   -9.5510   15.1690    3.2040 C   0  0  0  0  0  0  0  0  0  0  0  0
   -7.4820   14.2520    0.8940 C   0  0  0  0  0  0  0  0  0  0  0  0
   -7.4340   14.1550   -0.4460 C   0  0  0  0  0  0  0  0  0  0  0  0
   -6.3180   14.5920    1.5460 C   0  0  0  0  0  0  0  0  0  0  0  0
   -6.3560   14.3420   -1.1620 N   0  0  0  0  0  0  0  0  0  0  0  0
   -5.1580   14.7980    0.8540 N   0  0  0  0  0  0  0  0  0  0  0  0
   -8.9060   14.7270    4.3450 C   0  0  0  0  0  0  0  0  0  0  0  0
  -10.1200   16.4300    3.1240 C   0  0  0  0  0  0  0  0  0  0  0  0
   -5.2390   14.6480   -0.5010 C   0  0  0  0  0  0  0  0  0  0  0  0
  -10.9800   17.0320    1.5350 Br  0  0  0  0  0  0  0  0  0  0  0  0
   -8.8550   15.5370    5.4530 C   0  0  0  0  0  0  0  0  0  0  0  0
  -10.0760   17.2540    4.2390 C   0  0  0  0  0  0  0  0  0  0  0  0
   -4.0420   14.7930   -1.4140 C   0  0  0  0  0  0  0  0  0  0  0  0
   -9.4580   16.7880    5.4010 C   0  0  0  0  0  0  0  0  0  0  0  0
   -2.8960   15.1470   -0.7820 F   0  0  0  0  0  0  0  0  0  0  0  0
   -3.7710   13.6130   -2.0460 F   0  0  0  0  0  0  0  0  0  0  0  0
   -4.2460   15.6780   -2.4270 F   0  0  0  0  0  0  0  0  0  0  0  0
   -9.4630   17.5880    6.5690 C   0  0  0  0  0  0  0  0  0  0  0  0
   -9.5560   18.1730    7.5610 N   0  0  0  0  0  0  0  0  0  0  0  0
  1  2  2  3
  2  3  1  0
  1  4  1  0
  4  5  2  0
  4  6  1  0
  5  7  1  0
  6  8  2  0
  3  9  2  0
  3 10  1  0
  7 11  2  0
  8 11  1  0
 10 12  1  0
  9 13  1  0
 10 14  2  0
 11 15  1  0
 13 16  2  0
 14 16  1  0
 15 17  1  0
 15 18  1  0
 15 19  1  0
 16 20  1  0
 20 21  3  0
M  END
