x0587_0_A-x0849_0_A
     RDKit          3D

 23 25  0  0  0  0  0  0  0  0999 V2000
   -8.0170   14.9640    3.8500 N   0  0  0  0  0  0  0  0  0  0  0  0
   -8.5190   14.8980    2.5760 C   0  0  0  0  0  0  0  0  0  0  0  0
   -9.7200   14.9960    2.3760 O   0  0  0  0  0  0  0  0  0  0  0  0
   -7.5710   14.7270    1.4550 C   0  0  0  0  0  0  0  0  0  0  0  0
   -7.9830   14.6620    0.1360 C   0  0  0  0  0  0  0  0  0  0  0  0
   -6.2290   14.6290    1.6210 C   0  0  0  0  0  0  0  0  0  0  0  0
   -7.1320   14.5240   -0.9260 N   0  0  0  0  0  0  0  0  0  0  0  0
   -5.3390   14.4850    0.6190 N   0  0  0  0  0  0  0  0  0  0  0  0
   -5.8030   14.4440   -0.6540 C   0  0  0  0  0  0  0  0  0  0  0  0
   -4.7350   14.3180   -1.7910 C   0  0  0  0  0  0  0  0  0  0  0  0
   -3.8420   13.3220   -1.5590 F   0  0  0  0  0  0  0  0  0  0  0  0
   -5.2170   14.0500   -3.0300 F   0  0  0  0  0  0  0  0  0  0  0  0
   -3.8870   15.4770   -1.8390 O   0  0  0  0  0  0  0  0  0  0  0  0
   -3.5390   15.3910   -0.5400 C   0  0  0  0  0  0  0  0  0  0  0  0
   -2.3180   14.8470   -0.0970 C   0  0  0  0  0  0  0  0  0  0  0  0
   -4.4650   15.8400    0.3550 C   0  0  0  0  0  0  0  0  0  0  0  0
   -2.1540   14.7740    1.2850 C   0  0  0  0  0  0  0  0  0  0  0  0
   -4.1710   15.7120    1.6810 C   0  0  0  0  0  0  0  0  0  0  0  0
   -1.2670   14.3760   -0.9040 C   0  0  0  0  0  0  0  0  0  0  0  0
   -3.0420   15.1760    2.1250 N   0  0  0  0  0  0  0  0  0  0  0  0
   -1.1030   14.2920    1.8510 N   0  0  0  0  0  0  0  0  0  0  0  0
   -0.1390   13.8610   -0.2870 C   0  0  0  0  0  0  0  0  0  0  0  0
   -0.1360   13.8450    1.0880 C   0  0  0  0  0  0  0  0  0  0  0  0
  1  2  1  0
  2  3  2  0
  2  4  1  0
  4  5  2  0
  4  6  1  0
  5  7  1  0
  6  8  2  0
  7  9  2  0
  8  9  1  0
  9 10  1  0
 10 11  1  0
 10 12  1  0
 10 13  1  0
 13 14  1  0
 14 15  1  0
 14 16  2  0
 15 17  2  0
 16 18  1  0
 15 19  1  0
 17 20  1  0
 18 20  2  0
 17 21  1  0
 19 22  2  0
 21 23  2  0
 22 23  1  0
M  END
