x0587_0_A_α-x0855_0_A_α
     RDKit          3D

 26 27  0  0  0  0  0  0  0  0999 V2000
   -7.7640   14.8480    4.0870 N   0  0  0  0  0  0  0  0  0  0  0  0
   -8.2600   14.8920    2.8210 C   0  0  0  0  0  0  0  0  0  0  0  0
   -9.4620   15.0420    2.6190 O   0  0  0  0  0  0  0  0  0  0  0  0
   -7.3130   14.7730    1.7010 C   0  0  0  0  0  0  0  0  0  0  0  0
   -7.6590   14.5830    0.3850 C   0  0  0  0  0  0  0  0  0  0  0  0
   -5.9550   14.8660    1.9360 C   0  0  0  0  0  0  0  0  0  0  0  0
   -6.7580   14.4980   -0.6200 N   0  0  0  0  0  0  0  0  0  0  0  0
   -5.0080   14.7890    0.9740 N   0  0  0  0  0  0  0  0  0  0  0  0
   -5.4380   14.6090   -0.2940 C   0  0  0  0  0  0  0  0  0  0  0  0
   -4.3950   14.5250   -1.4260 C   0  0  0  0  0  0  0  0  0  0  0  0
   -3.0520   14.8140   -0.9800 O   0  0  0  0  0  0  0  0  0  0  0  0
   -4.3980   13.3000   -2.0270 F   0  0  0  0  0  0  0  0  0  0  0  0
   -4.6440   15.4040   -2.4370 F   0  0  0  0  0  0  0  0  0  0  0  0
   -2.1440   13.7450   -1.2640 C   0  0  0  0  0  0  0  0  0  0  0  0
   -0.6990   14.1310   -0.9330 C   0  0  0  0  0  0  0  0  0  0  0  0
    0.1580   14.2870   -2.1960 C   0  0  0  0  0  0  0  0  0  0  0  0
    1.1290   13.2180   -2.3130 O   0  0  0  0  0  0  0  0  0  0  0  0
    0.8140   12.1660   -3.1230 C   0  0  0  0  0  0  0  0  0  0  0  0
    0.6910   11.0130   -2.7210 O   0  0  0  0  0  0  0  0  0  0  0  0
    0.6100   12.5370   -4.5680 C   0  0  0  0  0  0  0  0  0  0  0  0
   -0.4250   11.6920   -5.1310 N   0  0  0  0  0  0  0  0  0  0  0  0
   -0.2900   10.7650   -6.1240 C   0  0  0  0  0  0  0  0  0  0  0  0
   -1.6800   11.7840   -4.6470 N   0  0  0  0  0  0  0  0  0  0  0  0
   -1.5370   10.2210   -6.2750 C   0  0  0  0  0  0  0  0  0  0  0  0
   -2.3580   10.8760   -5.3550 C   0  0  0  0  0  0  0  0  0  0  0  0
   -2.0730    8.8790   -7.4500 Br  0  0  0  0  0  0  0  0  0  0  0  0
  1  2  1  0
  2  3  2  0
  2  4  1  0
  4  5  2  0
  4  6  1  0
  5  7  1  0
  6  8  2  0
  7  9  2  0
  8  9  1  0
  9 10  1  0
 10 11  1  0
 10 12  1  0
 10 13  1  0
 11 14  1  0
 14 15  1  0
 15 16  1  0
 16 17  1  0
 17 18  1  0
 18 19  2  0
 18 20  1  0
 20 21  1  0
 21 22  1  0
 21 23  1  0
 22 24  2  0
 23 25  2  0
 24 25  1  0
 24 26  1  0
M  END
