x0587_0_A-x0962_0_A
     RDKit          3D

 14 14  0  0  0  0  0  0  0  0999 V2000
   -7.7300   14.8870    4.1070 N   0  0  0  0  0  0  0  0  0  0  0  0
   -8.2220   14.8980    2.8380 C   0  0  0  0  0  0  0  0  0  0  0  0
   -9.4280   15.0220    2.6290 O   0  0  0  0  0  0  0  0  0  0  0  0
   -7.2660   14.7740    1.7290 C   0  0  0  0  0  0  0  0  0  0  0  0
   -7.7110   14.5650    0.4460 C   0  0  0  0  0  0  0  0  0  0  0  0
   -5.8900   14.8620    1.8560 C   0  0  0  0  0  0  0  0  0  0  0  0
   -6.8900   14.4560   -0.6200 N   0  0  0  0  0  0  0  0  0  0  0  0
   -5.0170   14.7600    0.8210 N   0  0  0  0  0  0  0  0  0  0  0  0
   -5.5560   14.5600   -0.4090 C   0  0  0  0  0  0  0  0  0  0  0  0
   -4.6560   14.4390   -1.6400 C   0  0  0  0  0  0  0  0  0  0  0  0
   -3.2340   14.6790   -1.3750 C   0  0  0  0  0  0  0  0  0  0  0  0
   -4.7330   13.1950   -2.2050 F   0  0  0  0  0  0  0  0  0  0  0  0
   -5.0260   15.2830   -2.6470 F   0  0  0  0  0  0  0  0  0  0  0  0
   -2.0970   14.8300   -1.2330 N   0  0  0  0  0  0  0  0  0  0  0  0
  1  2  1  0
  2  3  2  0
  2  4  1  0
  4  5  2  0
  4  6  1  0
  5  7  1  0
  6  8  2  0
  7  9  2  0
  8  9  1  0
  9 10  1  0
 10 11  1  0
 10 12  1  0
 10 13  1  0
 11 14  3  0
M  END
