x0587_0_A_α-x0729_2_B_α
     RDKit          3D

 32 33  0  0  0  0  0  0  0  0999 V2000
   -7.5950   14.8390    3.9990 N   0  0  0  0  0  0  0  0  0  0  0  0
   -8.2620   14.9080    2.7950 C   0  0  0  0  0  0  0  0  0  0  0  0
   -9.5460   15.0840    2.6480 N   0  0  0  0  0  0  0  0  0  0  0  0
   -7.3750   14.7830    1.6100 C   0  0  0  0  0  0  0  0  0  0  0  0
  -10.2880   15.1650    1.3760 C   0  0  0  0  0  0  0  0  0  0  0  0
   -7.7610   14.5010    0.3200 C   0  0  0  0  0  0  0  0  0  0  0  0
   -6.0250   14.9760    1.7750 C   0  0  0  0  0  0  0  0  0  0  0  0
  -10.1880   16.5370    0.6980 C   0  0  0  0  0  0  0  0  0  0  0  0
   -6.8860   14.4290   -0.7130 N   0  0  0  0  0  0  0  0  0  0  0  0
   -5.1060   14.9160    0.7930 N   0  0  0  0  0  0  0  0  0  0  0  0
  -11.3570   17.4970    1.0190 C   0  0  0  0  0  0  0  0  0  0  0  0
   -5.5720   14.6460   -0.4400 C   0  0  0  0  0  0  0  0  0  0  0  0
   -4.5630   14.5920   -1.5810 C   0  0  0  0  0  0  0  0  0  0  0  0
  -11.4020   18.7430    0.1070 C   0  0  0  0  0  0  0  0  0  0  0  0
   -3.2710   14.7610   -1.1700 F   0  0  0  0  0  0  0  0  0  0  0  0
   -4.6060   13.4300   -2.2780 F   0  0  0  0  0  0  0  0  0  0  0  0
   -4.7670   15.5460   -2.5250 F   0  0  0  0  0  0  0  0  0  0  0  0
  -12.7980   19.3440   -0.1970 C   0  0  0  0  0  0  0  0  0  0  0  0
  -12.8390   20.6770   -0.9680 C   0  0  0  0  0  0  0  0  0  0  0  0
  -13.9620   21.5740   -0.5910 C   0  0  0  0  0  0  0  0  0  0  0  0
  -14.8240   22.3250   -0.1870 C   0  0  0  0  0  0  0  0  0  0  0  0
  -15.8140   23.2160    0.4710 C   0  0  2  0  0  0  0  0  0  0  0  0
  -16.2850   24.4170   -0.3530 C   0  0  0  0  0  0  0  0  0  0  0  0
  -15.2680   23.7500    1.7970 C   0  0  1  0  0  0  0  0  0  0  0  0
  -13.9550   24.5240    1.6650 C   0  0  0  0  0  0  0  0  0  0  0  0
  -16.2660   24.5390    2.5540 N   0  0  0  0  0  0  0  0  0  0  0  0
  -17.2810   25.3090    0.4180 C   0  0  0  0  0  0  0  0  0  0  0  0
  -15.9450   24.6230    4.1950 S   0  0  0  0  0  0  0  0  0  0  0  0
  -16.8660   25.6780    1.8390 C   0  0  0  0  0  0  0  0  0  0  0  0
  -16.4410   25.8700    4.7260 O   0  0  0  0  0  0  0  0  0  0  0  0
  -14.5620   24.2400    4.2820 O   0  0  0  0  0  0  0  0  0  0  0  0
  -16.9040   23.3040    4.8990 C   0  0  0  0  0  0  0  0  0  0  0  0
  1  2  1  0
  2  3  2  3
  2  4  1  0
  3  5  1  0
  4  6  2  0
  4  7  1  0
  5  8  1  0
  6  9  1  0
  7 10  2  0
  8 11  1  0
  9 12  2  0
 10 12  1  0
 12 13  1  0
 11 14  1  0
 13 15  1  0
 13 16  1  0
 13 17  1  0
 14 18  1  0
 18 19  1  0
 19 20  1  0
 20 21  3  0
 22 21  1  6
 22 23  1  0
 22 24  1  0
 24 25  1  6
 24 26  1  0
 23 27  1  0
 26 28  1  0
 26 29  1  0
 27 29  1  0
 28 30  2  0
 28 31  2  0
 28 32  1  0
M  END
