x0587_0_A_α-x0465_0_A_α
     RDKit          3D

 29 30  0  0  0  0  0  0  0  0999 V2000
   -7.7090   14.9010    4.0640 N   0  0  0  0  0  0  0  0  0  0  0  0
   -8.2190   14.8920    2.8000 C   0  0  0  0  0  0  0  0  0  0  0  0
   -9.4280   15.0050    2.6100 O   0  0  0  0  0  0  0  0  0  0  0  0
   -7.2850   14.7660    1.6680 C   0  0  0  0  0  0  0  0  0  0  0  0
   -7.6410   14.4770    0.3740 C   0  0  0  0  0  0  0  0  0  0  0  0
   -5.9310   14.9540    1.8690 C   0  0  0  0  0  0  0  0  0  0  0  0
   -6.7520   14.3860   -0.6420 N   0  0  0  0  0  0  0  0  0  0  0  0
   -5.0000   14.8730    0.8950 N   0  0  0  0  0  0  0  0  0  0  0  0
   -5.4370   14.5920   -0.3480 C   0  0  0  0  0  0  0  0  0  0  0  0
   -4.3830   14.5090   -1.4740 C   0  0  0  0  0  0  0  0  0  0  0  0
   -3.0370   14.7680   -1.0170 O   0  0  0  0  0  0  0  0  0  0  0  0
   -4.3770   13.2950   -2.0960 F   0  0  0  0  0  0  0  0  0  0  0  0
   -4.6400   15.4110   -2.4640 F   0  0  0  0  0  0  0  0  0  0  0  0
   -2.2050   15.4940   -1.9300 C   0  0  0  0  0  0  0  0  0  0  0  0
   -1.4340   14.5340   -2.8420 C   0  0  0  0  0  0  0  0  0  0  0  0
    0.0340   14.3160   -2.4220 C   0  0  0  0  0  0  0  0  0  0  0  0
    0.2340   12.8890   -2.1310 N   0  0  0  0  0  0  0  0  0  0  0  0
    0.5720   12.0680   -3.0680 C   0  0  0  0  0  0  0  0  0  0  0  0
    0.8320   12.4670   -4.5390 C   0  0  1  0  0  0  0  0  0  0  0  0
    0.7170   10.7530   -2.7950 O   0  0  0  0  0  0  0  0  0  0  0  0
    2.1960   13.1300   -4.7250 C   0  0  0  0  0  0  0  0  0  0  0  0
    0.5430   11.5360   -5.5820 O   0  0  0  0  0  0  0  0  0  0  0  0
   -0.6380   10.8660   -5.6720 C   0  0  0  0  0  0  0  0  0  0  0  0
   -0.6880    9.8250   -6.6170 C   0  0  0  0  0  0  0  0  0  0  0  0
   -1.7770   11.1230   -4.9170 C   0  0  0  0  0  0  0  0  0  0  0  0
    0.3760    9.5330   -7.3780 F   0  0  0  0  0  0  0  0  0  0  0  0
   -1.8410    9.0640   -6.7980 C   0  0  0  0  0  0  0  0  0  0  0  0
   -2.9380   10.3620   -5.0950 C   0  0  0  0  0  0  0  0  0  0  0  0
   -2.9690    9.3330   -6.0340 C   0  0  0  0  0  0  0  0  0  0  0  0
  1  2  1  0
  2  3  2  0
  2  4  1  0
  4  5  2  0
  4  6  1  0
  5  7  1  0
  6  8  2  0
  7  9  2  0
  8  9  1  0
  9 10  1  0
 10 11  1  0
 10 12  1  0
 10 13  1  0
 11 14  1  0
 14 15  1  0
 15 16  1  0
 16 17  1  0
 17 18  2  3
 18 19  1  0
 18 20  1  0
 19 21  1  1
 19 22  1  0
 22 23  1  0
 23 24  2  0
 23 25  1  0
 24 26  1  0
 24 27  1  0
 25 28  2  0
 27 29  2  0
 28 29  1  0
M  END
