x0592_0_A_α-x0900_0_A_α
     RDKit          3D

 11 11  0  0  0  0  0  0  0  0999 V2000
   -2.7120   14.9150    1.0810 N   0  0  0  0  0  0  0  0  0  0  0  0
   -3.2610   14.9170   -0.1690 C   0  0  0  0  0  0  0  0  0  0  0  0
   -2.5450   14.9170   -1.1640 O   0  0  0  0  0  0  0  0  0  0  0  0
   -4.7030   14.9000   -0.2290 C   0  0  0  0  0  0  0  0  0  0  0  0
   -5.5220   15.2000   -1.3470 C   0  0  0  0  0  0  0  0  0  0  0  0
   -5.6080   14.5910    0.7650 C   0  0  0  0  0  0  0  0  0  0  0  0
   -6.8280   15.0900   -1.0810 N   0  0  0  0  0  0  0  0  0  0  0  0
   -6.8500   14.7190    0.2160 N   0  0  0  0  0  0  0  0  0  0  0  0
   -8.1140   14.4990    0.8960 C   0  0  0  0  0  0  0  0  0  0  0  0
   -7.8970   14.0760    2.3480 C   0  0  0  0  0  0  0  0  0  0  0  0
   -7.1930   15.0670    3.0990 O   0  0  0  0  0  0  0  0  0  0  0  0
  1  2  1  0
  2  3  2  0
  2  4  1  0
  4  5  1  0
  4  6  2  0
  5  7  2  0
  6  8  1  0
  7  8  1  0
  8  9  1  0
  9 10  1  0
 10 11  1  0
M  END
