x0591_0_A-x0685_1_A
     RDKit          3D

 26 27  0  0  0  0  0  0  0  0999 V2000
   -6.1150   14.7020    0.7040 N   0  0  0  0  0  0  0  0  0  0  0  0
   -6.9520   14.4680    1.8570 C   0  0  0  0  0  0  0  0  0  0  0  0
   -6.4690   14.9150   -0.6100 C   0  0  0  0  0  0  0  0  0  0  0  0
   -7.6190   15.2040   -0.9090 O   0  0  0  0  0  0  0  0  0  0  0  0
   -5.4190   14.7640   -1.6360 C   0  0  0  0  0  0  0  0  0  0  0  0
   -4.1760   14.3920   -1.1930 C   0  0  0  0  0  0  0  0  0  0  0  0
   -5.6410   14.9750   -3.0190 C   0  0  0  0  0  0  0  0  0  0  0  0
   -3.1660   14.2230   -2.0910 C   0  0  0  0  0  0  0  0  0  0  0  0
   -4.5810   14.7990   -3.9620 C   0  0  0  0  0  0  0  0  0  0  0  0
   -3.3420   14.4140   -3.4550 C   0  0  0  0  0  0  0  0  0  0  0  0
   -1.7950   14.0540   -4.1220 S   0  0  1  0  0  0  0  0  0  0  0  0
   -1.1490   15.5220   -3.6860 N   0  0  0  0  0  0  0  0  0  0  0  0
   -0.9050   12.7780   -4.9100 C   0  0  0  0  0  0  0  0  0  0  0  0
   -3.1850   13.2330   -4.3390 O   0  0  0  0  0  0  0  0  0  0  0  0
   -1.5500   11.6050   -5.2850 N   0  0  0  0  0  0  0  0  0  0  0  0
    0.5560   12.8760   -5.1060 C   0  0  0  0  0  0  0  0  0  0  0  0
    1.1840   12.4880   -3.4460 S   0  0  0  0  0  0  0  0  0  0  0  0
   -1.1150   10.7740   -6.4210 C   0  0  0  0  0  0  0  0  0  0  0  0
    2.7740   12.4080   -3.4750 O   0  0  0  0  0  0  0  0  0  0  0  0
    0.5610   11.0740   -3.0100 O   0  0  0  0  0  0  0  0  0  0  0  0
    0.7160   13.5700   -2.3610 O   0  0  0  0  0  0  0  0  0  0  0  0
   -0.8500    9.2790   -6.1850 C   0  0  0  0  0  0  0  0  0  0  0  0
   -1.9080   11.0350   -7.6960 C   0  0  0  0  0  0  0  0  0  0  0  0
   -0.1630    8.6710   -7.4200 C   0  0  0  0  0  0  0  0  0  0  0  0
   -1.1740   10.4940   -8.9180 C   0  0  0  0  0  0  0  0  0  0  0  0
   -0.8490    9.0080   -8.7560 C   0  0  0  0  0  0  0  0  0  0  0  0
  1  2  1  0
  1  3  1  0
  3  4  2  0
  3  5  1  0
  5  6  2  0
  5  7  1  0
  6  8  1  0
  7  9  2  0
  8 10  2  0
  9 10  1  0
 10 11  1  0
 11 12  1  6
 11 13  2  0
 11 14  2  0
 13 15  1  0
 13 16  1  0
 16 17  1  0
 15 18  1  0
 17 19  1  0
 17 20  1  0
 17 21  1  0
 18 22  1  0
 18 23  1  0
 22 24  1  0
 23 25  1  0
 24 26  1  0
 25 26  1  0
M  END
