x0598_0_A_α-x0334_0_A_α
     RDKit          3D

 26 28  0  0  0  0  0  0  0  0999 V2000
   10.0350   25.1510   16.3030 N   0  0  0  0  0  0  0  0  0  0  0  0
    9.6400   25.5620   17.6770 C   0  0  0  0  0  0  0  0  0  0  0  0
    8.1190   25.4580   17.8550 C   0  0  2  0  0  0  0  0  0  0  0  0
   11.1020   23.8520   16.0220 S   0  0  0  0  0  0  0  0  0  0  0  0
   10.5820   22.6030   17.1940 C   0  0  0  0  0  0  0  0  0  0  0  0
   12.3790   24.3280   16.4330 O   0  0  0  0  0  0  0  0  0  0  0  0
   10.9600   23.3890   14.6570 O   0  0  0  0  0  0  0  0  0  0  0  0
    7.7200   24.4500   16.8330 C   0  0  0  0  0  0  0  0  0  0  0  0
    7.2790   26.7550   17.7850 C   0  0  1  0  0  0  0  0  0  0  0  0
    6.6220   24.8690   15.8600 C   0  0  0  0  0  0  0  0  0  0  0  0
    5.8820   26.6710   17.0810 C   0  0  1  0  0  0  0  0  0  0  0  0
    6.9670   27.3440   19.1700 C   0  0  0  0  0  0  0  0  0  0  0  0
    5.4820   25.4370   16.4560 N   0  0  0  0  0  0  0  0  0  0  0  0
    4.8200   27.2060   18.0590 C   0  0  2  0  0  0  0  0  0  0  0  0
    5.5030   27.0060   19.4240 C   0  0  0  0  0  0  0  0  0  0  0  0
    3.5890   26.4210   18.0100 N   0  0  0  0  0  0  0  0  0  0  0  0
    3.3310   25.8720   16.6750 C   0  0  0  0  0  0  0  0  0  0  0  0
    1.8650   25.9180   16.4330 C   0  0  0  0  0  0  0  0  0  0  0  0
    1.0190   26.1170   17.5120 C   0  0  0  0  0  0  0  0  0  0  0  0
    1.3270   25.7660   15.1600 C   0  0  0  0  0  0  0  0  0  0  0  0
   -0.3580   26.1660   17.3230 C   0  0  0  0  0  0  0  0  0  0  0  0
   -0.0560   25.8170   14.9810 C   0  0  0  0  0  0  0  0  0  0  0  0
   -0.9320   26.0190   16.0580 C   0  0  0  0  0  0  0  0  0  0  0  0
   -2.3030   26.0680   15.8810 N   0  0  0  0  0  0  0  0  0  0  0  0
   -3.1610   25.9040   17.0520 C   0  0  0  0  0  0  0  0  0  0  0  0
   -2.8280   25.5440   14.6330 C   0  0  0  0  0  0  0  0  0  0  0  0
  1  2  1  0
  3  2  1  6
  4  1  1  0
  4  5  1  0
  4  6  2  0
  4  7  2  0
  3  8  1  0
  3  9  1  0
  8 10  1  0
  9 11  1  0
  9 12  1  1
 10 13  1  0
 11 13  1  1
 11 14  1  0
 12 15  1  0
 14 15  1  0
 14 16  1  1
 16 17  1  0
 17 18  1  0
 18 19  2  0
 18 20  1  0
 19 21  1  0
 20 22  2  0
 21 23  2  0
 22 23  1  0
 23 24  1  0
 24 25  1  0
 24 26  1  0
M  END
