x0592_0_A-x0253_0_A
     RDKit          3D

 28 29  0  0  0  0  0  0  0  0999 V2000
   -3.1160   14.7900    1.7130 N   0  0  0  0  0  0  0  0  0  0  0  0
   -3.3650   14.7960    0.3730 C   0  0  0  0  0  0  0  0  0  0  0  0
   -2.5150   14.7630   -0.5490 N   0  0  0  0  0  0  0  0  0  0  0  0
   -4.7730   14.8340    0.0590 C   0  0  0  0  0  0  0  0  0  0  0  0
   -1.1600   14.7190   -0.0350 C   0  0  0  0  0  0  0  0  0  0  0  0
   -5.4430   15.1570   -1.1540 C   0  0  0  0  0  0  0  0  0  0  0  0
   -5.7910   14.5490    0.9290 C   0  0  0  0  0  0  0  0  0  0  0  0
   -0.2010   14.7970   -1.1910 C   0  0  0  0  0  0  0  0  0  0  0  0
   -6.7800   15.0750   -1.0380 N   0  0  0  0  0  0  0  0  0  0  0  0
   -6.9510   14.7040    0.2480 N   0  0  0  0  0  0  0  0  0  0  0  0
   -8.2740   14.5050    0.8060 C   0  0  0  0  0  0  0  0  0  0  0  0
    0.6860   13.5930   -1.1570 C   0  0  0  0  0  0  0  0  0  0  0  0
   -8.1630   14.0560    2.2680 C   0  0  0  0  0  0  0  0  0  0  0  0
    1.2180   13.3440   -2.4690 N   0  0  0  0  0  0  0  0  0  0  0  0
   -7.3670   14.9510    3.0530 O   0  0  0  0  0  0  0  0  0  0  0  0
    0.9390   12.2610   -3.0570 C   0  0  0  0  0  0  0  0  0  0  0  0
    0.1690   11.2600   -2.5700 O   0  0  0  0  0  0  0  0  0  0  0  0
    1.5090   12.0620   -4.4200 C   0  0  0  0  0  0  0  0  0  0  0  0
    0.5070   11.8230   -5.4460 N   0  0  0  0  0  0  0  0  0  0  0  0
    0.9890   11.6780   -6.7010 C   0  0  0  0  0  0  0  0  0  0  0  0
    2.0630   12.1960   -6.8590 O   0  0  0  0  0  0  0  0  0  0  0  0
    0.3370   10.8680   -7.7610 C   0  0  0  0  0  0  0  0  0  0  0  0
   -0.8160   10.1630   -7.4290 C   0  0  0  0  0  0  0  0  0  0  0  0
    0.8490   10.7760   -9.0580 C   0  0  0  0  0  0  0  0  0  0  0  0
   -1.4530    9.3420   -8.3610 C   0  0  0  0  0  0  0  0  0  0  0  0
    0.2140    9.9700   -9.9990 C   0  0  0  0  0  0  0  0  0  0  0  0
   -2.6760    8.5670   -7.9710 C   0  0  0  0  0  0  0  0  0  0  0  0
   -0.9270    9.2530   -9.6510 C   0  0  0  0  0  0  0  0  0  0  0  0
  1  2  1  0
  2  3  2  3
  2  4  1  0
  3  5  1  0
  4  6  1  0
  4  7  2  0
  5  8  1  0
  6  9  2  0
  7 10  1  0
  9 10  1  0
 10 11  1  0
  8 12  1  0
 11 13  1  0
 12 14  1  0
 13 15  1  0
 14 16  2  3
 16 17  1  0
 16 18  1  0
 18 19  1  0
 19 20  1  0
 20 21  2  0
 20 22  1  0
 22 23  2  0
 22 24  1  0
 23 25  1  0
 24 26  2  0
 25 27  1  0
 25 28  2  0
 26 28  1  0
M  END
