x0591_0_A-x0465_0_A
     RDKit          3D

 28 29  0  0  0  0  0  0  0  0999 V2000
   -5.8120   14.5740    0.8910 N   0  0  0  0  0  0  0  0  0  0  0  0
   -6.7490   14.5030    1.9860 C   0  0  0  0  0  0  0  0  0  0  0  0
   -6.2720   14.7420   -0.3930 C   0  0  0  0  0  0  0  0  0  0  0  0
   -7.4560   14.8940   -0.6620 O   0  0  0  0  0  0  0  0  0  0  0  0
   -5.2590   14.7300   -1.4820 C   0  0  0  0  0  0  0  0  0  0  0  0
   -3.8800   14.5920   -1.2470 C   0  0  0  0  0  0  0  0  0  0  0  0
   -5.7210   14.8630   -2.7870 C   0  0  0  0  0  0  0  0  0  0  0  0
   -2.9820   14.5960   -2.3270 C   0  0  0  0  0  0  0  0  0  0  0  0
   -4.8320   14.8630   -3.8560 C   0  0  0  0  0  0  0  0  0  0  0  0
   -3.4730   14.7370   -3.6280 C   0  0  0  0  0  0  0  0  0  0  0  0
   -2.4000   14.7660   -5.0280 S   0  0  1  0  0  0  0  0  0  0  0  0
   -1.2580   15.9680   -4.8040 N   0  0  0  0  0  0  0  0  0  0  0  0
   -1.4980   13.5300   -5.0150 N   0  0  0  0  0  0  0  0  0  0  0  0
   -3.1370   15.2670   -6.1630 O   0  0  0  0  0  0  0  0  0  0  0  0
   -0.0270   13.8110   -4.9310 C   0  0  0  0  0  0  0  0  0  0  0  0
    0.8290   12.5680   -4.5880 C   0  0  2  0  0  0  0  0  0  0  0  0
    2.3020   12.9920   -4.7960 C   0  0  0  0  0  0  0  0  0  0  0  0
    0.6480   11.5390   -5.5770 O   0  0  0  0  0  0  0  0  0  0  0  0
    0.8050   12.1330   -3.0990 C   0  0  0  0  0  0  0  0  0  0  0  0
    1.0840   12.8700   -2.1620 O   0  0  0  0  0  0  0  0  0  0  0  0
    0.4540   10.8380   -2.8850 O   0  0  0  0  0  0  0  0  0  0  0  0
   -0.4720   10.7660   -5.7560 C   0  0  0  0  0  0  0  0  0  0  0  0
   -0.6330    9.7220   -6.6690 C   0  0  0  0  0  0  0  0  0  0  0  0
   -1.5560   11.0760   -4.9230 C   0  0  0  0  0  0  0  0  0  0  0  0
    0.3510    9.3580   -7.4990 F   0  0  0  0  0  0  0  0  0  0  0  0
   -1.8290    9.0100   -6.7570 C   0  0  0  0  0  0  0  0  0  0  0  0
   -2.7610   10.3670   -5.0070 C   0  0  0  0  0  0  0  0  0  0  0  0
   -2.8950    9.3300   -5.9280 C   0  0  0  0  0  0  0  0  0  0  0  0
  1  2  1  0
  1  3  1  0
  3  4  2  0
  3  5  1  0
  5  6  2  0
  5  7  1  0
  6  8  1  0
  7  9  2  0
  8 10  2  0
  9 10  1  0
 10 11  1  0
 11 12  1  1
 11 13  2  0
 11 14  2  0
 13 15  1  0
 15 16  1  0
 16 17  1  6
 16 18  1  0
 16 19  1  0
 19 20  2  0
 19 21  1  0
 18 22  1  0
 22 23  2  0
 22 24  1  0
 23 25  1  0
 23 26  1  0
 24 27  2  0
 26 28  2  0
 27 28  1  0
M  END
