x0598_0_A-x0792_0_A
     RDKit          3D

 14 14  0  0  0  0  0  0  0  0999 V2000
    9.6930   24.6170   16.1520 N   0  0  0  0  0  0  0  0  0  0  0  0
    8.8670   24.5520   17.3680 C   0  0  0  0  0  0  0  0  0  0  0  0
    7.7730   25.6510   17.3120 C   0  0  1  0  0  0  0  0  0  0  0  0
   11.0730   23.7070   15.8560 S   0  0  0  0  0  0  0  0  0  0  0  0
   10.9010   22.3050   16.9500 C   0  0  0  0  0  0  0  0  0  0  0  0
   12.1570   24.4980   16.3300 O   0  0  0  0  0  0  0  0  0  0  0  0
   11.0830   23.2380   14.4800 O   0  0  0  0  0  0  0  0  0  0  0  0
    6.7320   25.5840   16.1880 C   0  0  1  0  0  0  0  0  0  0  0  0
    6.9810   25.9980   18.5870 C   0  0  0  0  0  0  0  0  0  0  0  0
    5.6790   24.5570   16.1460 C   0  0  0  0  0  0  0  0  0  0  0  0
    5.8450   26.8040   16.1890 C   0  0  0  0  0  0  0  0  0  0  0  0
    5.4450   25.8760   18.3560 C   0  0  0  0  0  0  0  0  0  0  0  0
    5.9640   23.6740   15.1090 O   0  0  0  0  0  0  0  0  0  0  0  0
    4.8860   26.6880   17.2780 N   0  0  0  0  0  0  0  0  0  0  0  0
  1  2  1  0
  3  2  1  1
  4  1  1  0
  4  5  1  0
  4  6  2  0
  4  7  2  0
  3  8  1  0
  3  9  1  0
  8 10  1  1
  8 11  1  0
  9 12  1  0
 10 13  1  0
 11 14  1  0
 12 14  1  0
M  END
