x0598_0_A-x0091_0_B
     RDKit          3D

 28 30  0  0  0  0  0  0  0  0999 V2000
   10.0380   25.8620   16.7860 N   0  0  0  0  0  0  0  0  0  0  0  0
    8.7210   26.5150   16.9480 C   0  0  0  0  0  0  0  0  0  0  0  0
    7.5890   25.5870   17.4420 C   0  0  0  0  0  0  0  0  0  0  0  0
   10.1140   24.3840   16.0700 S   0  0  2  0  0  0  0  0  0  0  0  0
   10.2070   23.0170   17.2000 C   0  0  0  0  0  0  0  0  0  0  0  0
   11.2430   24.3510   15.0050 N   0  0  0  0  0  0  0  0  0  0  0  0
    8.7490   24.5690   15.6480 O   0  0  0  0  0  0  0  0  0  0  0  0
   12.4830   23.5300   15.1450 C   0  0  0  0  0  0  0  0  0  0  0  0
    7.3250   24.6580   16.3080 C   0  0  0  0  0  0  0  0  0  0  0  0
    6.3050   26.3110   17.9470 C   0  0  0  0  0  0  0  0  0  0  0  0
   12.2890   21.9740   15.0230 C   0  0  0  0  0  0  0  0  0  0  0  0
    5.9720   24.7470   15.6440 C   0  0  0  0  0  0  0  0  0  0  0  0
    4.9300   25.8540   17.3900 C   0  0  0  0  0  0  0  0  0  0  0  0
   12.6380   21.2560   13.7500 N   0  0  0  0  0  0  0  0  0  0  0  0
    4.9030   24.6590   16.5880 N   0  0  0  0  0  0  0  0  0  0  0  0
   12.2210   19.8370   13.6510 C   0  0  0  0  0  0  0  0  0  0  0  0
   13.6340   21.6270   12.8520 C   0  0  0  0  0  0  0  0  0  0  0  0
   13.9770   20.9260   11.8990 O   0  0  0  0  0  0  0  0  0  0  0  0
   14.2200   22.8490   13.0990 N   0  0  0  0  0  0  0  0  0  0  0  0
   13.1420   18.8370   14.3020 C   0  0  0  0  0  0  0  0  0  0  0  0
   12.6620   17.7980   15.0070 N   0  0  0  0  0  0  0  0  0  0  0  0
   14.5660   18.8040   14.2950 C   0  0  0  0  0  0  0  0  0  0  0  0
   15.1760   23.4250   12.2060 C   0  0  0  0  0  0  0  0  0  0  0  0
   13.7600   17.0860   15.4600 O   0  0  0  0  0  0  0  0  0  0  0  0
   14.8960   17.6910   15.0340 C   0  0  0  0  0  0  0  0  0  0  0  0
   16.6460   23.1770   12.4160 C   0  0  0  0  0  0  0  0  0  0  0  0
   16.0720   24.5300   12.7000 C   0  0  0  0  0  0  0  0  0  0  0  0
   16.1700   17.0610   15.4290 C   0  0  0  0  0  0  0  0  0  0  0  0
  1  2  1  0
  2  3  1  0
  4  1  1  0
  4  5  1  1
  4  6  2  0
  4  7  2  0
  6  8  1  0
  3  9  1  0
  3 10  1  0
  8 11  1  0
  9 12  1  0
 10 13  1  0
 11 14  1  0
 12 15  1  0
 13 15  1  0
 14 16  1  0
 14 17  1  0
 17 18  2  0
 17 19  1  0
 16 20  1  0
 20 21  2  0
 20 22  1  0
 19 23  1  0
 21 24  1  0
 22 25  2  0
 24 25  1  0
 23 26  1  0
 23 27  1  0
 26 27  1  0
 25 28  1  0
M  END
