x0591_0_A-x0681_0_A
     RDKit          3D

 26 28  0  0  0  0  0  0  0  0999 V2000
   -6.2560   14.6880    0.3270 N   0  0  0  0  0  0  0  0  0  0  0  0
   -7.1270   14.5700    1.4850 C   0  0  0  0  0  0  0  0  0  0  0  0
   -6.6310   14.8610   -0.9850 C   0  0  0  0  0  0  0  0  0  0  0  0
   -7.7980   15.1630   -1.2010 O   0  0  0  0  0  0  0  0  0  0  0  0
   -5.7100   14.6970   -2.1730 C   0  0  0  0  0  0  0  0  0  0  0  0
   -6.0800   13.9560   -3.2770 C   0  0  0  0  0  0  0  0  0  0  0  0
   -4.4530   15.2440   -2.2530 C   0  0  0  0  0  0  0  0  0  0  0  0
   -3.8800   15.9160   -1.3060 N   0  0  0  0  0  0  0  0  0  0  0  0
   -5.1990   13.8130   -4.3770 C   0  0  0  0  0  0  0  0  0  0  0  0
   -3.6130   15.1220   -3.3050 C   0  0  0  0  0  0  0  0  0  0  0  0
   -2.8630   15.0750   -0.9720 C   0  0  0  0  0  0  0  0  0  0  0  0
   -3.9600   14.4180   -4.3660 C   0  0  0  0  0  0  0  0  0  0  0  0
   -2.7450   14.3450   -5.6420 S   0  0  0  0  0  0  0  0  0  0  0  0
   -1.8140   14.8730   -1.5920 O   0  0  0  0  0  0  0  0  0  0  0  0
   -3.2410   14.3280    0.2400 C   0  0  2  0  0  0  0  0  0  0  0  0
   -1.5210   15.3530   -5.0520 N   0  0  0  0  0  0  0  0  0  0  0  0
   -2.1790   13.0180   -5.6520 O   0  0  0  0  0  0  0  0  0  0  0  0
   -3.3150   14.9920   -6.7920 O   0  0  0  0  0  0  0  0  0  0  0  0
   -4.3100   13.3240   -0.0560 C   0  0  0  0  0  0  0  0  0  0  0  0
   -3.7820   15.4210    1.1330 C   0  0  0  0  0  0  0  0  0  0  0  0
   -5.1800   12.9980    0.9240 N   0  0  0  0  0  0  0  0  0  0  0  0
   -4.3130   14.8620    2.4170 C   0  0  0  0  0  0  0  0  0  0  0  0
   -4.5900   12.6640   -1.1650 N   0  0  0  0  0  0  0  0  0  0  0  0
   -5.1190   13.5540    2.2490 C   0  0  0  0  0  0  0  0  0  0  0  0
   -6.0730   12.0890    0.4390 C   0  0  0  0  0  0  0  0  0  0  0  0
   -5.6890   11.8940   -0.8650 C   0  0  0  0  0  0  0  0  0  0  0  0
  1  2  1  0
  1  3  1  0
  3  4  2  0
  3  5  1  0
  5  6  2  0
  5  7  1  0
  7  8  1  0
  6  9  1  0
  7 10  2  0
  8 11  1  0
  9 12  2  0
 10 12  1  0
 12 13  1  0
 11 14  2  0
 15 11  1  6
 13 16  1  0
 13 17  2  0
 13 18  2  0
 15 19  1  0
 15 20  1  0
 19 21  1  0
 20 22  1  0
 19 23  2  0
 21 24  1  0
 22 24  1  0
 21 25  1  0
 23 26  1  0
 25 26  2  0
M  END
