x0591_0_A-x0852_0_B
     RDKit          3D

 25 26  0  0  0  0  0  0  0  0999 V2000
   -6.0240   14.4650    1.0730 N   0  0  0  0  0  0  0  0  0  0  0  0
   -6.6730   13.3020    1.6740 C   0  0  0  0  0  0  0  0  0  0  0  0
   -7.3050   13.4030    3.0900 C   0  0  0  0  0  0  0  0  0  0  0  0
   -6.3170   14.8010   -0.2430 C   0  0  0  0  0  0  0  0  0  0  0  0
   -7.4410   15.1420   -0.5820 O   0  0  0  0  0  0  0  0  0  0  0  0
   -5.2620   14.7310   -1.3070 C   0  0  0  0  0  0  0  0  0  0  0  0
   -3.8960   14.4840   -1.0840 C   0  0  0  0  0  0  0  0  0  0  0  0
   -5.7010   14.9250   -2.6240 C   0  0  0  0  0  0  0  0  0  0  0  0
   -8.1380   14.6350    3.3810 C   0  0  0  0  0  0  0  0  0  0  0  0
   -2.9940   14.4360   -2.1670 C   0  0  0  0  0  0  0  0  0  0  0  0
   -4.8110   14.8730   -3.6940 C   0  0  0  0  0  0  0  0  0  0  0  0
   -8.2560   15.2430    4.6680 C   0  0  0  0  0  0  0  0  0  0  0  0
   -8.8340   15.1880    2.3070 C   0  0  0  0  0  0  0  0  0  0  0  0
   -7.5930   14.6930    5.7380 O   0  0  0  0  0  0  0  0  0  0  0  0
   -3.4640   14.6330   -3.4750 C   0  0  0  0  0  0  0  0  0  0  0  0
   -9.6170   16.3110    2.4780 C   0  0  0  0  0  0  0  0  0  0  0  0
   -9.0500   16.3840    4.8290 C   0  0  0  0  0  0  0  0  0  0  0  0
   -2.3820   14.5830   -4.8870 S   0  0  0  0  0  0  0  0  0  0  0  0
   -9.2400   17.0490    6.0870 C   0  0  0  0  0  0  0  0  0  0  0  0
  -10.5470   16.9940    0.9710 Br  0  0  0  0  0  0  0  0  0  0  0  0
   -9.7100   16.9110    3.7390 C   0  0  0  0  0  0  0  0  0  0  0  0
   -1.1320   15.6160   -4.4440 N   0  0  0  0  0  0  0  0  0  0  0  0
   -1.8450   13.2490   -4.9930 O   0  0  0  0  0  0  0  0  0  0  0  0
   -3.0500   15.2360   -5.9940 O   0  0  0  0  0  0  0  0  0  0  0  0
   -9.5050   17.5620    7.1010 N   0  0  0  0  0  0  0  0  0  0  0  0
  1  2  1  0
  2  3  1  0
  1  4  1  0
  4  5  2  0
  4  6  1  0
  6  7  2  0
  6  8  1  0
  3  9  1  0
  7 10  1  0
  8 11  2  0
  9 12  2  0
  9 13  1  0
 12 14  1  0
 10 15  2  0
 11 15  1  0
 13 16  2  0
 12 17  1  0
 15 18  1  0
 17 19  1  0
 16 20  1  0
 16 21  1  0
 17 21  2  0
 18 22  1  0
 18 23  2  0
 18 24  2  0
 19 25  3  0
M  END
