x0591_0_A-x0685_0_A
     RDKit          3D

 23 24  0  0  0  0  0  0  0  0999 V2000
   -6.9720   13.2900    0.7560 N   0  0  0  0  0  0  0  0  0  0  0  0
   -6.0580   13.8190    1.7510 C   0  0  2  0  0  0  0  0  0  0  0  0
   -6.8330   14.7940    2.6400 C   0  0  0  0  0  0  0  0  0  0  0  0
   -7.1720   13.9560   -0.4370 C   0  0  0  0  0  0  0  0  0  0  0  0
   -8.1680   14.6390   -0.6480 O   0  0  0  0  0  0  0  0  0  0  0  0
   -6.1120   13.8360   -1.5010 C   0  0  0  0  0  0  0  0  0  0  0  0
   -4.9880   14.3600    0.8080 C   0  0  0  0  0  0  0  0  0  0  0  0
   -7.7990   14.0820    3.5720 C   0  0  0  0  0  0  0  0  0  0  0  0
   -4.9570   13.0400   -1.3420 C   0  0  0  0  0  0  0  0  0  0  0  0
   -6.2890   14.5500   -2.6970 C   0  0  0  0  0  0  0  0  0  0  0  0
   -3.6420   14.0520    0.9570 C   0  0  0  0  0  0  0  0  0  0  0  0
   -5.4410   15.1240   -0.2180 N   0  0  0  0  0  0  0  0  0  0  0  0
   -4.0110   12.9680   -2.3700 C   0  0  0  0  0  0  0  0  0  0  0  0
   -5.3380   14.4680   -3.7190 C   0  0  0  0  0  0  0  0  0  0  0  0
   -2.7350   14.5160   -0.0100 C   0  0  0  0  0  0  0  0  0  0  0  0
   -4.5450   15.5540   -1.1360 C   0  0  0  0  0  0  0  0  0  0  0  0
   -4.2050   13.6770   -3.5520 C   0  0  0  0  0  0  0  0  0  0  0  0
   -3.1830   15.2770   -1.1070 C   0  0  0  0  0  0  0  0  0  0  0  0
   -2.2330   15.7810   -2.2030 C   0  0  0  0  0  0  0  0  0  0  0  0
   -1.9770   15.0400   -3.5740 C   0  0  0  0  0  0  0  0  0  0  0  0
   -0.7710   15.4560   -4.2270 N   0  0  0  0  0  0  0  0  0  0  0  0
   -1.8800   13.6490   -3.4770 O   0  0  0  0  0  0  0  0  0  0  0  0
   -2.9550   15.3470   -4.5370 O   0  0  0  0  0  0  0  0  0  0  0  0
  1  2  1  0
  2  3  1  6
  1  4  1  0
  4  5  2  0
  4  6  1  0
  2  7  1  0
  3  8  1  0
  6  9  2  0
  6 10  1  0
  7 11  2  0
  7 12  1  0
  9 13  1  0
 10 14  2  0
 11 15  1  0
 12 16  2  0
 13 17  2  0
 14 17  1  0
 15 18  2  0
 16 18  1  0
 18 19  1  0
 19 20  1  0
 20 21  1  0
 20 22  1  0
 20 23  1  0
M  END
