x0592_0_A-x0685_1_A
     RDKit          3D

 26 27  0  0  0  0  0  0  0  0999 V2000
   -2.9230   14.7860    1.5520 N   0  0  0  0  0  0  0  0  0  0  0  0
   -3.1830   14.7610    0.2190 C   0  0  0  0  0  0  0  0  0  0  0  0
   -2.2140   14.6820   -0.6140 N   0  0  0  0  0  0  0  0  0  0  0  0
   -4.6040   14.8230   -0.0440 C   0  0  0  0  0  0  0  0  0  0  0  0
   -0.8340   14.6220   -0.0730 C   0  0  0  0  0  0  0  0  0  0  0  0
   -5.3040   15.1670   -1.2270 C   0  0  0  0  0  0  0  0  0  0  0  0
   -5.5980   14.5420    0.8640 C   0  0  0  0  0  0  0  0  0  0  0  0
    0.2130   14.1500   -1.0830 C   0  0  0  0  0  0  0  0  0  0  0  0
   -6.6390   15.1040   -1.0710 N   0  0  0  0  0  0  0  0  0  0  0  0
   -6.7830   14.7190    0.2230 N   0  0  0  0  0  0  0  0  0  0  0  0
   -8.0970   14.5340    0.8090 C   0  0  0  0  0  0  0  0  0  0  0  0
    0.0200   12.7530   -1.2980 O   0  0  0  0  0  0  0  0  0  0  0  0
   -8.0310   14.0340    2.2480 C   0  0  0  0  0  0  0  0  0  0  0  0
    0.6130   12.0360   -2.6090 S   0  0  0  0  0  0  0  0  0  0  0  0
   -7.2980   14.9500    3.0580 O   0  0  0  0  0  0  0  0  0  0  0  0
   -0.1950   12.7310   -4.0570 C   0  0  0  0  0  0  0  0  0  0  0  0
    2.1790   12.3240   -2.8320 O   0  0  0  0  0  0  0  0  0  0  0  0
    0.2690   10.4600   -2.5770 O   0  0  0  0  0  0  0  0  0  0  0  0
   -1.4230   11.9540   -4.5340 C   0  0  0  0  0  0  0  0  0  0  0  0
   -1.2270   10.5150   -4.8450 N   0  0  0  0  0  0  0  0  0  0  0  0
   -1.2110   10.0530   -6.2580 C   0  0  0  0  0  0  0  0  0  0  0  0
    0.0030    9.2120   -6.6690 C   0  0  0  0  0  0  0  0  0  0  0  0
   -1.4780   11.1740   -7.2810 C   0  0  0  0  0  0  0  0  0  0  0  0
   -0.2060    8.4780   -7.9840 C   0  0  0  0  0  0  0  0  0  0  0  0
   -1.0550   10.7570   -8.6910 C   0  0  0  0  0  0  0  0  0  0  0  0
   -1.1460    9.2480   -8.9100 C   0  0  0  0  0  0  0  0  0  0  0  0
  1  2  1  0
  2  3  2  3
  2  4  1  0
  3  5  1  0
  4  6  1  0
  4  7  2  0
  5  8  1  0
  6  9  2  0
  7 10  1  0
  9 10  1  0
 10 11  1  0
  8 12  1  0
 11 13  1  0
 14 12  1  0
 13 15  1  0
 14 16  1  0
 14 17  1  0
 14 18  1  0
 16 19  1  0
 19 20  1  0
 20 21  1  0
 21 22  1  0
 21 23  1  0
 22 24  1  0
 23 25  1  0
 24 26  1  0
 25 26  1  0
M  END
