x0591_0_A_α-x0128_0_A_α
     RDKit          3D

 29 31  0  0  0  0  0  0  0  0999 V2000
   -7.2130   13.5670    0.5920 N   0  0  0  0  0  0  0  0  0  0  0  0
   -7.2730   14.7320    1.4560 C   0  0  1  0  0  0  0  0  0  0  0  0
   -7.9290   14.6840    2.9010 C   0  0  0  0  0  0  0  0  0  0  0  0
   -7.0980   13.8030   -0.7880 C   0  0  0  0  0  0  0  0  0  0  0  0
   -8.1560   13.9590   -1.3710 O   0  0  0  0  0  0  0  0  0  0  0  0
   -5.8530   13.9430   -1.6630 C   0  0  0  0  0  0  0  0  0  0  0  0
   -5.9440   15.0530    0.9010 C   0  0  0  0  0  0  0  0  0  0  0  0
   -8.9910   14.0980    2.9690 O   0  0  0  0  0  0  0  0  0  0  0  0
   -7.3940   15.3290    4.0170 N   0  0  0  0  0  0  0  0  0  0  0  0
   -4.5310   13.5520   -1.3100 C   0  0  0  0  0  0  0  0  0  0  0  0
   -6.0560   14.5070   -2.9410 C   0  0  0  0  0  0  0  0  0  0  0  0
   -6.1140   15.4070   -0.4300 C   0  0  0  0  0  0  0  0  0  0  0  0
   -4.6730   15.0240    1.4580 C   0  0  0  0  0  0  0  0  0  0  0  0
   -3.4610   13.7280   -2.2420 C   0  0  0  0  0  0  0  0  0  0  0  0
   -5.0060   14.6700   -3.8460 C   0  0  0  0  0  0  0  0  0  0  0  0
   -8.2010   15.9790    5.0270 C   0  0  0  0  0  0  0  0  0  0  0  0
   -5.0650   15.7160   -1.2250 C   0  0  0  0  0  0  0  0  0  0  0  0
   -3.5940   15.3420    0.6350 C   0  0  0  0  0  0  0  0  0  0  0  0
   -3.7160   14.2860   -3.5160 C   0  0  0  0  0  0  0  0  0  0  0  0
   -8.9550   17.1150    4.6870 C   0  0  0  0  0  0  0  0  0  0  0  0
   -8.3140   15.5680    6.3600 C   0  0  0  0  0  0  0  0  0  0  0  0
   -3.8090   15.6750   -0.6990 C   0  0  0  0  0  0  0  0  0  0  0  0
   -2.4580   14.5150   -4.7640 S   0  0  0  0  0  0  0  0  0  0  0  0
   -9.7560   17.8190    5.5320 N   0  0  0  0  0  0  0  0  0  0  0  0
   -9.1370   16.2750    7.2560 C   0  0  0  0  0  0  0  0  0  0  0  0
   -1.3370   15.5750   -4.1120 N   0  0  0  0  0  0  0  0  0  0  0  0
   -1.7490   13.2680   -4.9410 O   0  0  0  0  0  0  0  0  0  0  0  0
   -3.0440   15.2160   -5.8880 O   0  0  0  0  0  0  0  0  0  0  0  0
   -9.8300   17.3830    6.7990 C   0  0  0  0  0  0  0  0  0  0  0  0
  2  1  1  1
  2  3  1  0
  1  4  1  0
  4  5  2  0
  4  6  1  0
  2  7  1  0
  3  8  2  0
  3  9  1  0
  6 10  2  0
  6 11  1  0
  7 12  2  0
  7 13  1  0
 10 14  1  0
 11 15  2  0
  9 16  1  0
 12 17  1  0
 13 18  2  0
 14 19  2  0
 15 19  1  0
 16 20  2  0
 16 21  1  0
 17 22  2  0
 18 22  1  0
 19 23  1  0
 20 24  1  0
 21 25  2  0
 23 26  1  0
 23 27  2  0
 23 28  2  0
 24 29  2  0
 25 29  1  0
M  END
