x0591_0_A-x0895_0_A
     RDKit          3D

 21 22  0  0  0  0  0  0  0  0999 V2000
   -6.3920   14.1910    0.1620 N   0  0  0  0  0  0  0  0  0  0  0  0
   -6.9710   14.4720    1.4640 C   0  0  0  0  0  0  0  0  0  0  0  0
   -6.8180   14.6080   -1.0910 C   0  0  0  0  0  0  0  0  0  0  0  0
   -7.9610   14.9790   -1.2890 O   0  0  0  0  0  0  0  0  0  0  0  0
   -5.8210   14.5900   -2.1990 C   0  0  0  0  0  0  0  0  0  0  0  0
   -4.5660   14.3480   -1.8090 C   0  0  0  0  0  0  0  0  0  0  0  0
   -6.1100   14.7960   -3.5220 C   0  0  0  0  0  0  0  0  0  0  0  0
   -4.5620   14.1670   -0.5160 N   0  0  0  0  0  0  0  0  0  0  0  0
   -3.4710   14.3000   -2.6590 C   0  0  0  0  0  0  0  0  0  0  0  0
   -5.0450   14.7560   -4.4350 C   0  0  0  0  0  0  0  0  0  0  0  0
   -3.7340   14.5160   -4.0040 C   0  0  0  0  0  0  0  0  0  0  0  0
   -3.6680   14.3110    0.2570 C   0  0  0  0  0  0  0  0  0  0  0  0
   -2.4510   14.4940   -5.2090 S   0  0  0  0  0  0  0  0  0  0  0  0
   -3.9630   14.1120    1.5280 N   0  0  0  0  0  0  0  0  0  0  0  0
   -2.3810   14.6770    0.1150 N   0  0  0  0  0  0  0  0  0  0  0  0
   -1.3040   15.5720   -4.6210 N   0  0  0  0  0  0  0  0  0  0  0  0
   -1.8170   13.1980   -5.2120 O   0  0  0  0  0  0  0  0  0  0  0  0
   -3.0110   15.0960   -6.3910 O   0  0  0  0  0  0  0  0  0  0  0  0
   -3.3270   15.2130    2.0740 C   0  0  0  0  0  0  0  0  0  0  0  0
   -2.0240   14.8370    1.4070 C   0  0  0  0  0  0  0  0  0  0  0  0
   -0.9630   14.6680    1.9310 O   0  0  0  0  0  0  0  0  0  0  0  0
  1  2  1  0
  1  3  1  0
  3  4  2  0
  3  5  1  0
  5  6  2  0
  5  7  1  0
  6  8  1  0
  6  9  1  0
  7 10  2  0
  9 11  2  0
 10 11  1  0
  8 12  2  3
 11 13  1  0
 12 14  1  0
 12 15  1  0
 13 16  1  0
 13 17  2  0
 13 18  2  0
 14 19  1  0
 15 20  1  0
 19 20  1  0
 20 21  2  0
M  END
