x0591_0_A-x0711_0_A
     RDKit          3D

 18 19  0  0  0  0  0  0  0  0999 V2000
   -5.7970   14.6290    0.8800 N   0  0  0  0  0  0  0  0  0  0  0  0
   -6.7420   14.4980    1.9680 C   0  0  0  0  0  0  0  0  0  0  0  0
   -6.2580   14.8440   -0.3950 C   0  0  0  0  0  0  0  0  0  0  0  0
   -7.4370   15.0540   -0.6550 O   0  0  0  0  0  0  0  0  0  0  0  0
   -5.2630   14.8030   -1.5000 C   0  0  0  0  0  0  0  0  0  0  0  0
   -3.8750   14.7170   -1.2860 C   0  0  0  0  0  0  0  0  0  0  0  0
   -5.7630   14.8490   -2.8060 C   0  0  0  0  0  0  0  0  0  0  0  0
   -3.0120   14.6780   -2.3890 C   0  0  0  0  0  0  0  0  0  0  0  0
   -4.8970   14.8050   -3.8930 C   0  0  0  0  0  0  0  0  0  0  0  0
   -1.5960   14.6000   -2.1770 N   0  0  0  0  0  0  0  0  0  0  0  0
   -3.5430   14.7210   -3.6550 C   0  0  0  0  0  0  0  0  0  0  0  0
   -2.3850   14.6550   -4.9320 S   0  0  1  0  0  0  0  0  0  0  0  0
   -0.5090   14.0180   -3.3850 S   0  0  0  0  0  0  0  0  0  0  0  0
   -1.3120   15.9360   -4.7700 N   0  0  0  0  0  0  0  0  0  0  0  0
   -1.4640   13.5450   -4.5090 N   0  0  0  0  0  0  0  0  0  0  0  0
   -3.0180   14.9280   -6.1950 O   0  0  0  0  0  0  0  0  0  0  0  0
    0.3480   15.1580   -3.6610 O   0  0  0  0  0  0  0  0  0  0  0  0
    0.1560   12.9880   -2.5990 O   0  0  0  0  0  0  0  0  0  0  0  0
  1  2  1  0
  1  3  1  0
  3  4  2  0
  3  5  1  0
  5  6  2  0
  5  7  1  0
  6  8  1  0
  7  9  2  0
  8 10  1  0
  8 11  2  0
  9 11  1  0
 11 12  1  0
 10 13  1  0
 12 14  1  1
 12 15  2  0
 13 15  1  0
 12 16  2  0
 13 17  2  0
 13 18  2  0
M  END
