x0592_0_A-x1012_0_A
     RDKit          3D

 24 25  0  0  0  0  0  0  0  0999 V2000
   -2.8630   14.8290    1.0260 N   0  0  0  0  0  0  0  0  0  0  0  0
   -3.4170   14.6570   -0.2170 C   0  0  0  0  0  0  0  0  0  0  0  0
   -2.8860   14.3610   -1.3410 N   0  0  0  0  0  0  0  0  0  0  0  0
   -4.8490   14.8040   -0.2740 C   0  0  0  0  0  0  0  0  0  0  0  0
   -1.4690   14.1280   -1.4330 C   0  0  0  0  0  0  0  0  0  0  0  0
   -5.6780   15.2830   -1.3130 C   0  0  0  0  0  0  0  0  0  0  0  0
   -5.7360   14.4780    0.7240 C   0  0  0  0  0  0  0  0  0  0  0  0
   -6.9750   15.2550   -0.9970 N   0  0  0  0  0  0  0  0  0  0  0  0
   -6.9780   14.7600    0.2510 N   0  0  0  0  0  0  0  0  0  0  0  0
   -0.8760   14.5100   -2.8050 C   0  0  2  0  0  0  0  0  0  0  0  0
   -8.2160   14.5700    0.9690 C   0  0  0  0  0  0  0  0  0  0  0  0
   -1.7320   15.0860   -3.9120 C   0  0  0  0  0  0  0  0  0  0  0  0
    0.0110   13.4870   -3.4600 C   0  0  2  0  0  0  0  0  0  0  0  0
   -7.9580   14.1080    2.3950 C   0  0  0  0  0  0  0  0  0  0  0  0
    0.4730   12.4450   -2.4530 C   0  0  0  0  0  0  0  0  0  0  0  0
    1.0990   14.3130   -4.1490 C   0  0  0  0  0  0  0  0  0  0  0  0
   -0.8850   15.9490   -4.7370 N   0  0  0  0  0  0  0  0  0  0  0  0
   -7.1360   15.0440    3.0900 O   0  0  0  0  0  0  0  0  0  0  0  0
   -1.2130   17.2910   -4.8290 C   0  0  0  0  0  0  0  0  0  0  0  0
    0.5670   11.1930   -2.9340 O   0  0  0  0  0  0  0  0  0  0  0  0
    0.7230   12.6550   -1.2790 O   0  0  0  0  0  0  0  0  0  0  0  0
    0.5790   15.6560   -4.7470 C   0  0  0  0  0  0  0  0  0  0  0  0
   -0.2020   18.1820   -4.7970 N   0  0  0  0  0  0  0  0  0  0  0  0
   -2.3520   17.7250   -4.9090 O   0  0  0  0  0  0  0  0  0  0  0  0
  1  2  1  0
  2  3  2  3
  2  4  1  0
  3  5  1  0
  4  6  1  0
  4  7  2  0
  6  8  2  0
  7  9  1  0
  8  9  1  0
 10  5  1  1
  9 11  1  0
 10 12  1  0
 10 13  1  0
 11 14  1  0
 13 15  1  1
 13 16  1  0
 12 17  1  0
 14 18  1  0
 17 19  1  0
 15 20  1  0
 15 21  2  0
 16 22  1  0
 17 22  1  0
 19 23  1  0
 19 24  2  0
M  END
