x0592_0_A-x0967_0_A
     RDKit          3D

 16 17  0  0  0  0  0  0  0  0999 V2000
   -2.5850   14.2910    1.2240 N   0  0  0  0  0  0  0  0  0  0  0  0
   -2.8700   13.8770   -0.0480 C   0  0  0  0  0  0  0  0  0  0  0  0
   -2.1950   14.3020   -0.9820 O   0  0  0  0  0  0  0  0  0  0  0  0
   -4.0370   12.9140   -0.2280 C   0  0  0  0  0  0  0  0  0  0  0  0
   -5.2330   13.6870   -0.7060 C   0  0  2  0  0  0  0  0  0  0  0  0
   -6.3010   13.0090   -1.4940 N   0  0  0  0  0  0  0  0  0  0  0  0
   -4.6070   14.7620   -1.5000 C   0  0  0  0  0  0  0  0  0  0  0  0
   -5.9060   14.1110    0.6310 C   0  0  2  0  0  0  0  0  0  0  0  0
   -7.2230   14.4360    0.0960 N   0  0  0  0  0  0  0  0  0  0  0  0
   -5.0890   15.1970    1.2760 C   0  0  0  0  0  0  0  0  0  0  0  0
   -4.1320   15.8020   -0.8790 C   0  0  0  0  0  0  0  0  0  0  0  0
   -7.3650   13.5360   -0.9420 C   0  0  0  0  0  0  0  0  0  0  0  0
   -8.3270   14.6600    1.0210 C   0  0  0  0  0  0  0  0  0  0  0  0
   -4.2520   15.9620    0.5540 C   0  0  0  0  0  0  0  0  0  0  0  0
   -8.0470   14.1040    2.4270 C   0  0  0  0  0  0  0  0  0  0  0  0
   -7.3030   15.0230    3.2210 O   0  0  0  0  0  0  0  0  0  0  0  0
  1  2  1  0
  2  3  2  0
  2  4  1  0
  5  4  1  1
  5  6  1  0
  5  7  1  0
  5  8  1  0
  8  9  1  0
  8 10  1  6
  7 11  2  0
  6 12  2  0
  9 12  1  0
  9 13  1  0
 10 14  2  0
 11 14  1  0
 13 15  1  0
 15 16  1  0
M  END
