x0591_0_A_α-x0681_0_A_α
     RDKit          3D

 26 28  0  0  0  0  0  0  0  0999 V2000
   -6.2500   14.6770    0.3340 N   0  0  0  0  0  0  0  0  0  0  0  0
   -7.1100   14.5860    1.5010 C   0  0  0  0  0  0  0  0  0  0  0  0
   -6.6280   14.8620   -0.9790 C   0  0  0  0  0  0  0  0  0  0  0  0
   -7.7940   15.1730   -1.1900 O   0  0  0  0  0  0  0  0  0  0  0  0
   -5.7090   14.6970   -2.1670 C   0  0  0  0  0  0  0  0  0  0  0  0
   -6.0680   13.9610   -3.2770 C   0  0  0  0  0  0  0  0  0  0  0  0
   -4.4460   15.2460   -2.2440 C   0  0  0  0  0  0  0  0  0  0  0  0
   -3.8730   15.9160   -1.2990 N   0  0  0  0  0  0  0  0  0  0  0  0
   -5.1860   13.8210   -4.3760 C   0  0  0  0  0  0  0  0  0  0  0  0
   -3.6050   15.1260   -3.2950 C   0  0  0  0  0  0  0  0  0  0  0  0
   -2.8510   15.0830   -0.9670 C   0  0  0  0  0  0  0  0  0  0  0  0
   -3.9450   14.4280   -4.3560 C   0  0  0  0  0  0  0  0  0  0  0  0
   -2.7310   14.3590   -5.6310 S   0  0  0  0  0  0  0  0  0  0  0  0
   -1.7960   14.8950   -1.5780 O   0  0  0  0  0  0  0  0  0  0  0  0
   -3.2340   14.3320    0.2410 C   0  0  2  0  0  0  0  0  0  0  0  0
   -1.5000   15.3580   -5.0370 N   0  0  0  0  0  0  0  0  0  0  0  0
   -2.1720   13.0300   -5.6500 O   0  0  0  0  0  0  0  0  0  0  0  0
   -3.3010   15.0130   -6.7770 O   0  0  0  0  0  0  0  0  0  0  0  0
   -4.3050   13.3300   -0.0570 C   0  0  0  0  0  0  0  0  0  0  0  0
   -3.7880   15.4260    1.1240 C   0  0  0  0  0  0  0  0  0  0  0  0
   -5.1720   13.0070    0.9270 N   0  0  0  0  0  0  0  0  0  0  0  0
   -4.3010   14.8700    2.4140 C   0  0  0  0  0  0  0  0  0  0  0  0
   -4.5900   12.6650   -1.1650 N   0  0  0  0  0  0  0  0  0  0  0  0
   -5.1050   13.5610    2.2490 C   0  0  0  0  0  0  0  0  0  0  0  0
   -6.0700   12.1020    0.4480 C   0  0  0  0  0  0  0  0  0  0  0  0
   -5.6930   11.9000   -0.8560 C   0  0  0  0  0  0  0  0  0  0  0  0
  1  2  1  0
  1  3  1  0
  3  4  2  0
  3  5  1  0
  5  6  2  0
  5  7  1  0
  7  8  1  0
  6  9  1  0
  7 10  2  0
  8 11  1  0
  9 12  2  0
 10 12  1  0
 12 13  1  0
 11 14  2  0
 15 11  1  6
 13 16  1  0
 13 17  2  0
 13 18  2  0
 15 19  1  0
 15 20  1  0
 19 21  1  0
 20 22  1  0
 19 23  2  0
 21 24  1  0
 22 24  1  0
 21 25  1  0
 23 26  1  0
 25 26  2  0
M  END
