x0592_0_A_α-x0631_0_A_β
     RDKit          3D

 25 26  0  0  0  0  0  0  0  0999 V2000
   -2.9480   14.9030    1.4220 N   0  0  0  0  0  0  0  0  0  0  0  0
   -3.2620   14.7170    0.1030 C   0  0  0  0  0  0  0  0  0  0  0  0
   -2.3280   14.5060   -0.7590 N   0  0  0  0  0  0  0  0  0  0  0  0
   -4.6910   14.7870   -0.1190 C   0  0  0  0  0  0  0  0  0  0  0  0
   -2.5970   14.2880   -2.1720 C   0  0  0  0  0  0  0  0  0  0  0  0
   -5.4290   15.1410   -1.2790 C   0  0  0  0  0  0  0  0  0  0  0  0
   -5.6670   14.5110    0.8060 C   0  0  0  0  0  0  0  0  0  0  0  0
   -1.3250   13.7260   -2.8190 C   0  0  0  0  0  0  0  0  0  0  0  0
   -6.7570   15.0870   -1.0870 N   0  0  0  0  0  0  0  0  0  0  0  0
   -6.8640   14.7000    0.1990 N   0  0  0  0  0  0  0  0  0  0  0  0
   -8.1570   14.5180    0.8300 C   0  0  0  0  0  0  0  0  0  0  0  0
   -1.0980   12.2280   -2.5460 C   0  0  0  0  0  0  0  0  0  0  0  0
   -7.9890   14.0930    2.2890 C   0  0  0  0  0  0  0  0  0  0  0  0
   -0.1000   11.5840   -3.5220 C   0  0  0  0  0  0  0  0  0  0  0  0
   -7.2130   15.0380    3.0280 O   0  0  0  0  0  0  0  0  0  0  0  0
   -0.6050   10.2360   -4.0550 C   0  0  0  0  0  0  0  0  0  0  0  0
   -1.0060   10.2180   -5.5430 C   0  0  0  0  0  0  0  0  0  0  0  0
   -0.4650    9.0510   -6.4470 C   0  0  1  0  0  0  0  0  0  0  0  0
   -1.6090    8.2390   -7.0880 C   0  0  0  0  0  0  0  0  0  0  0  0
    0.5260    9.6490   -7.3830 N   0  0  0  0  0  0  0  0  0  0  0  0
   -2.6610    9.0890   -7.7810 C   0  0  0  0  0  0  0  0  0  0  0  0
    0.5480    9.0890   -8.6970 N   0  0  0  0  0  0  0  0  0  0  0  0
    0.3790   11.0450   -7.5090 N   0  0  0  0  0  0  0  0  0  0  0  0
    0.8800   10.2100   -9.5740 C   0  0  0  0  0  0  0  0  0  0  0  0
    1.1160   11.3400   -8.6920 N   0  0  0  0  0  0  0  0  0  0  0  0
  1  2  1  0
  2  3  2  3
  2  4  1  0
  3  5  1  0
  4  6  1  0
  4  7  2  0
  5  8  1  0
  6  9  2  0
  7 10  1  0
  9 10  1  0
 10 11  1  0
  8 12  1  0
 11 13  1  0
 12 14  1  0
 13 15  1  0
 14 16  1  0
 16 17  1  0
 18 17  1  6
 18 19  1  0
 18 20  1  0
 19 21  1  0
 20 22  1  0
 20 23  1  0
 22 24  1  0
 23 25  1  0
 24 25  1  0
M  END
