x0592_0_A-x1018_0_A
     RDKit          3D

 14 15  0  0  0  0  0  0  0  0999 V2000
   -3.1560   15.2530    1.5810 N   0  0  0  0  0  0  0  0  0  0  0  0
   -3.1950   14.9340    0.2530 C   0  0  0  0  0  0  0  0  0  0  0  0
   -2.1760   14.9840   -0.4330 O   0  0  0  0  0  0  0  0  0  0  0  0
   -4.5420   14.4820   -0.2860 C   0  0  2  0  0  0  0  0  0  0  0  0
   -5.2640   15.4880   -1.1570 C   0  0  2  0  0  0  0  0  0  0  0  0
   -5.5930   14.1540    0.7690 C   0  0  0  0  0  0  0  0  0  0  0  0
   -4.1260   13.4420   -1.2530 N   0  0  0  0  0  0  0  0  0  0  0  0
   -6.6930   15.1470   -1.0920 N   0  0  0  0  0  0  0  0  0  0  0  0
   -6.8640   14.1790    0.0000 N   0  0  0  0  0  0  0  0  0  0  0  0
   -3.6800   14.2840   -2.3240 N   0  0  0  0  0  0  0  0  0  0  0  0
   -4.7610   15.1950   -2.5090 N   0  0  0  0  0  0  0  0  0  0  0  0
   -8.0350   14.4900    0.8490 C   0  0  0  0  0  0  0  0  0  0  0  0
   -7.8420   14.0520    2.3090 C   0  0  0  0  0  0  0  0  0  0  0  0
   -7.1160   15.0410    3.0350 O   0  0  0  0  0  0  0  0  0  0  0  0
  1  2  1  0
  2  3  2  0
  4  2  1  1
  4  5  1  0
  4  6  1  0
  4  7  1  0
  5  8  1  6
  6  9  1  0
  8  9  1  0
  7 10  1  0
  5 11  1  0
 10 11  1  0
  9 12  1  0
 12 13  1  0
 13 14  1  0
M  END
