x0592_0_A-x0855_0_A
     RDKit          3D

 24 25  0  0  0  0  0  0  0  0999 V2000
   -2.8920   14.7150    1.5580 N   0  0  0  0  0  0  0  0  0  0  0  0
   -3.1940   14.6930    0.2190 C   0  0  0  0  0  0  0  0  0  0  0  0
   -2.3820   14.5770   -0.7650 N   0  0  0  0  0  0  0  0  0  0  0  0
   -4.6190   14.8030   -0.0640 C   0  0  0  0  0  0  0  0  0  0  0  0
   -0.9580   14.4420   -0.4410 C   0  0  0  0  0  0  0  0  0  0  0  0
   -5.3440   15.1970   -1.2210 C   0  0  0  0  0  0  0  0  0  0  0  0
   -5.6120   14.5100    0.8390 C   0  0  0  0  0  0  0  0  0  0  0  0
   -0.2870   13.5440   -1.4810 C   0  0  0  0  0  0  0  0  0  0  0  0
   -6.6760   15.1480   -1.0480 N   0  0  0  0  0  0  0  0  0  0  0  0
   -6.8010   14.7240    0.2270 N   0  0  0  0  0  0  0  0  0  0  0  0
   -8.1050   14.5340    0.8360 C   0  0  0  0  0  0  0  0  0  0  0  0
    1.1430   13.9730   -1.8070 C   0  0  0  0  0  0  0  0  0  0  0  0
   -7.9570   14.1020    2.2940 C   0  0  0  0  0  0  0  0  0  0  0  0
    1.7880   12.9370   -2.5660 O   0  0  0  0  0  0  0  0  0  0  0  0
   -7.2090   15.0630    3.0420 O   0  0  0  0  0  0  0  0  0  0  0  0
    0.9770   12.0690   -3.2250 C   0  0  0  0  0  0  0  0  0  0  0  0
    0.5660   11.0100   -2.7580 O   0  0  0  0  0  0  0  0  0  0  0  0
    0.6360   12.5460   -4.6080 C   0  0  0  0  0  0  0  0  0  0  0  0
   -0.4150   11.7050   -5.1380 N   0  0  0  0  0  0  0  0  0  0  0  0
   -0.3080   10.7660   -6.1240 C   0  0  0  0  0  0  0  0  0  0  0  0
   -1.6650   11.8090   -4.6340 N   0  0  0  0  0  0  0  0  0  0  0  0
   -1.5590   10.2290   -6.2490 C   0  0  0  0  0  0  0  0  0  0  0  0
   -2.3600   10.8980   -5.3220 C   0  0  0  0  0  0  0  0  0  0  0  0
   -2.1230    8.8810   -7.4040 Br  0  0  0  0  0  0  0  0  0  0  0  0
  1  2  1  0
  2  3  2  3
  2  4  1  0
  3  5  1  0
  4  6  1  0
  4  7  2  0
  5  8  1  0
  6  9  2  0
  7 10  1  0
  9 10  1  0
 10 11  1  0
  8 12  1  0
 11 13  1  0
 12 14  1  0
 13 15  1  0
 14 16  1  0
 16 17  2  0
 16 18  1  0
 18 19  1  0
 19 20  1  0
 19 21  1  0
 20 22  2  0
 21 23  2  0
 22 23  1  0
 22 24  1  0
M  END
