x0592_0_A-x0837_0_A
     RDKit          3D

 11 11  0  0  0  0  0  0  0  0999 V2000
   -2.7170   14.9080    1.0620 N   0  0  0  0  0  0  0  0  0  0  0  0
   -3.2710   14.9120   -0.1810 C   0  0  0  0  0  0  0  0  0  0  0  0
   -2.5580   14.9260   -1.1800 O   0  0  0  0  0  0  0  0  0  0  0  0
   -4.7150   14.8880   -0.2410 C   0  0  0  0  0  0  0  0  0  0  0  0
   -5.5350   15.1760   -1.3580 C   0  0  0  0  0  0  0  0  0  0  0  0
   -5.6170   14.5810    0.7570 C   0  0  0  0  0  0  0  0  0  0  0  0
   -6.8390   15.0620   -1.0890 N   0  0  0  0  0  0  0  0  0  0  0  0
   -6.8590   14.6970    0.2070 N   0  0  0  0  0  0  0  0  0  0  0  0
   -8.1220   14.4720    0.8870 C   0  0  0  0  0  0  0  0  0  0  0  0
   -7.9070   14.0540    2.3430 C   0  0  0  0  0  0  0  0  0  0  0  0
   -7.2050   15.0510    3.0850 O   0  0  0  0  0  0  0  0  0  0  0  0
  1  2  1  0
  2  3  2  0
  2  4  1  0
  4  5  1  0
  4  6  2  0
  5  7  2  0
  6  8  1  0
  7  8  1  0
  8  9  1  0
  9 10  1  0
 10 11  1  0
M  END
