x0592_0_A-x0766_0_A
     RDKit          3D

 23 25  0  0  0  0  0  0  0  0999 V2000
   -2.9010   14.2650    1.3740 N   0  0  0  0  0  0  0  0  0  0  0  0
   -3.4160   15.1630    0.3480 C   0  0  2  0  0  0  0  0  0  0  0  0
   -4.8960   15.0650    0.1420 C   0  0  0  0  0  0  0  0  0  0  0  0
   -2.8410   14.8710   -0.9970 C   0  0  0  0  0  0  0  0  0  0  0  0
   -5.7000   15.4890   -0.9590 C   0  0  0  0  0  0  0  0  0  0  0  0
   -5.8180   14.5290    1.0030 C   0  0  0  0  0  0  0  0  0  0  0  0
   -1.5500   14.8380   -1.4920 C   0  0  0  0  0  0  0  0  0  0  0  0
   -3.9820   14.5110   -2.2000 S   0  0  0  0  0  0  0  0  0  0  0  0
   -6.9980   15.2340   -0.7930 N   0  0  0  0  0  0  0  0  0  0  0  0
   -7.0320   14.6550    0.4170 N   0  0  0  0  0  0  0  0  0  0  0  0
   -2.7950   14.3320   -3.3790 C   0  0  0  0  0  0  0  0  0  0  0  0
   -1.5290   14.5320   -2.8990 C   0  0  0  0  0  0  0  0  0  0  0  0
   -8.2820   14.2300    0.9990 C   0  0  0  0  0  0  0  0  0  0  0  0
   -0.3420   14.4400   -3.8060 C   0  0  2  0  0  0  0  0  0  0  0  0
   -8.0840   14.0070    2.4960 C   0  0  0  0  0  0  0  0  0  0  0  0
    0.3390   13.0880   -4.0190 C   0  0  2  0  0  0  0  0  0  0  0  0
    0.8100   15.2960   -3.3020 C   0  0  0  0  0  0  0  0  0  0  0  0
   -7.2810   15.0340    3.0870 O   0  0  0  0  0  0  0  0  0  0  0  0
    0.5060   12.2180   -2.7940 C   0  0  0  0  0  0  0  0  0  0  0  0
    1.6250   13.4780   -4.7400 C   0  0  0  0  0  0  0  0  0  0  0  0
    2.0090   14.8120   -4.0880 C   0  0  0  0  0  0  0  0  0  0  0  0
    1.2530   12.5350   -1.8850 O   0  0  0  0  0  0  0  0  0  0  0  0
   -0.2080   11.0730   -2.7590 O   0  0  0  0  0  0  0  0  0  0  0  0
  2  1  1  1
  2  3  1  0
  2  4  1  0
  3  5  1  0
  3  6  2  0
  4  7  2  0
  4  8  1  0
  5  9  2  0
  6 10  1  0
  9 10  1  0
  8 11  1  0
  7 12  1  0
 11 12  2  0
 10 13  1  0
 14 12  1  1
 13 15  1  0
 14 16  1  0
 14 17  1  0
 15 18  1  0
 16 19  1  1
 16 20  1  0
 17 21  1  0
 20 21  1  0
 19 22  2  0
 19 23  1  0
M  END
