x0592_0_A-x0471_0_A
     RDKit          3D

 20 21  0  0  0  0  0  0  0  0999 V2000
   -2.2120   14.3120   -0.1200 N   0  0  0  0  0  0  0  0  0  0  0  0
   -2.2050   14.6200   -1.4630 C   0  0  0  0  0  0  0  0  0  0  0  0
   -1.1760   14.6300   -2.0920 O   0  0  0  0  0  0  0  0  0  0  0  0
   -3.5470   14.9420   -2.0590 C   0  0  0  0  0  0  0  0  0  0  0  0
   -4.3340   14.9890   -0.8670 C   0  0  0  0  0  0  0  0  0  0  0  0
   -3.6100   15.3360    0.2540 C   0  0  0  0  0  0  0  0  0  0  0  0
   -5.6820   14.7110   -0.7750 C   0  0  0  0  0  0  0  0  0  0  0  0
   -6.5860   14.3540   -1.7520 N   0  0  0  0  0  0  0  0  0  0  0  0
   -6.2570   14.7840    0.4650 C   0  0  0  0  0  0  0  0  0  0  0  0
   -4.1870   15.4040    1.4690 C   0  0  0  0  0  0  0  0  0  0  0  0
   -7.5670   14.4650    0.2230 N   0  0  0  0  0  0  0  0  0  0  0  0
   -5.5250   15.1250    1.6100 C   0  0  0  0  0  0  0  0  0  0  0  0
   -7.7200   14.2170   -1.1110 C   0  0  0  0  0  0  0  0  0  0  0  0
   -8.6100   14.4060    1.2090 C   0  0  0  0  0  0  0  0  0  0  0  0
   -8.0760   13.9980    2.5740 C   0  0  0  0  0  0  0  0  0  0  0  0
   -8.5910   14.9320    3.6500 C   0  0  0  0  0  0  0  0  0  0  0  0
   -9.1450   15.9940    3.3490 O   0  0  0  0  0  0  0  0  0  0  0  0
   -8.4550   14.4760    5.1020 C   0  0  0  0  0  0  0  0  0  0  0  0
   -9.7050   13.6800    5.5000 C   0  0  0  0  0  0  0  0  0  0  0  0
   -8.2560   15.6570    6.0430 C   0  0  0  0  0  0  0  0  0  0  0  0
  1  2  1  0
  2  3  2  0
  2  4  1  0
  4  5  1  0
  5  6  2  0
  5  7  1  0
  7  8  1  0
  7  9  2  0
  6 10  1  0
  9 11  1  0
  9 12  1  0
 10 12  2  0
  8 13  2  0
 11 13  1  0
 11 14  1  0
 14 15  1  0
 15 16  1  0
 16 17  2  0
 16 18  1  0
 18 19  1  0
 18 20  1  0
M  END
