x0591_0_A-x0685_0_A
     RDKit          3D

 23 24  0  0  0  0  0  0  0  0999 V2000
   -6.9710   13.2910    0.7540 N   0  0  0  0  0  0  0  0  0  0  0  0
   -6.0580   13.8200    1.7510 C   0  0  2  0  0  0  0  0  0  0  0  0
   -6.8310   14.7970    2.6400 C   0  0  0  0  0  0  0  0  0  0  0  0
   -7.1720   13.9570   -0.4380 C   0  0  0  0  0  0  0  0  0  0  0  0
   -8.1680   14.6380   -0.6500 O   0  0  0  0  0  0  0  0  0  0  0  0
   -6.1110   13.8370   -1.5010 C   0  0  0  0  0  0  0  0  0  0  0  0
   -4.9870   14.3630    0.8090 C   0  0  0  0  0  0  0  0  0  0  0  0
   -7.7980   14.0820    3.5710 C   0  0  0  0  0  0  0  0  0  0  0  0
   -4.9580   13.0410   -1.3410 C   0  0  0  0  0  0  0  0  0  0  0  0
   -6.2870   14.5510   -2.6970 C   0  0  0  0  0  0  0  0  0  0  0  0
   -3.6410   14.0540    0.9570 C   0  0  0  0  0  0  0  0  0  0  0  0
   -5.4400   15.1270   -0.2140 N   0  0  0  0  0  0  0  0  0  0  0  0
   -4.0090   12.9700   -2.3690 C   0  0  0  0  0  0  0  0  0  0  0  0
   -5.3360   14.4680   -3.7180 C   0  0  0  0  0  0  0  0  0  0  0  0
   -2.7350   14.5180   -0.0100 C   0  0  0  0  0  0  0  0  0  0  0  0
   -4.5470   15.5570   -1.1330 C   0  0  0  0  0  0  0  0  0  0  0  0
   -4.2040   13.6790   -3.5510 C   0  0  0  0  0  0  0  0  0  0  0  0
   -3.1840   15.2800   -1.1070 C   0  0  0  0  0  0  0  0  0  0  0  0
   -2.2330   15.7820   -2.2030 C   0  0  0  0  0  0  0  0  0  0  0  0
   -1.9770   15.0410   -3.5740 C   0  0  0  0  0  0  0  0  0  0  0  0
   -0.7710   15.4530   -4.2280 N   0  0  0  0  0  0  0  0  0  0  0  0
   -1.8820   13.6500   -3.4770 O   0  0  0  0  0  0  0  0  0  0  0  0
   -2.9560   15.3520   -4.5360 O   0  0  0  0  0  0  0  0  0  0  0  0
  1  2  1  0
  2  3  1  6
  1  4  1  0
  4  5  2  0
  4  6  1  0
  2  7  1  0
  3  8  1  0
  6  9  2  0
  6 10  1  0
  7 11  2  0
  7 12  1  0
  9 13  1  0
 10 14  2  0
 11 15  1  0
 12 16  2  0
 13 17  2  0
 14 17  1  0
 15 18  2  0
 16 18  1  0
 18 19  1  0
 19 20  1  0
 20 21  1  0
 20 22  1  0
 20 23  1  0
M  END
