x0592_0_A-x0950_1_A
     RDKit          3D

 20 20  0  0  0  0  0  0  0  0999 V2000
   -2.9560   14.7170    1.4260 N   0  0  0  0  0  0  0  0  0  0  0  0
   -3.3070   14.7570    0.0970 C   0  0  0  0  0  0  0  0  0  0  0  0
   -2.3910   14.7260   -0.7980 N   0  0  0  0  0  0  0  0  0  0  0  0
   -4.7310   14.8260   -0.1230 C   0  0  0  0  0  0  0  0  0  0  0  0
   -0.9890   14.6490   -0.4290 C   0  0  0  0  0  0  0  0  0  0  0  0
   -5.4850   15.1830   -1.2660 C   0  0  0  0  0  0  0  0  0  0  0  0
   -5.6860   14.5290    0.8160 C   0  0  0  0  0  0  0  0  0  0  0  0
   -0.0860   14.5490   -1.6520 C   0  0  0  0  0  0  0  0  0  0  0  0
   -6.8060   15.1140   -1.0610 N   0  0  0  0  0  0  0  0  0  0  0  0
   -6.8940   14.7120    0.2270 N   0  0  0  0  0  0  0  0  0  0  0  0
   -8.1830   14.5130    0.8650 C   0  0  0  0  0  0  0  0  0  0  0  0
    1.1140   13.7240   -1.2520 C   0  0  0  0  0  0  0  0  0  0  0  0
   -8.0020   14.0850    2.3250 C   0  0  0  0  0  0  0  0  0  0  0  0
    1.7660   13.0880   -2.3630 O   0  0  0  0  0  0  0  0  0  0  0  0
   -7.2230   15.0300    3.0600 O   0  0  0  0  0  0  0  0  0  0  0  0
    1.0420   12.2230   -3.1100 C   0  0  0  0  0  0  0  0  0  0  0  0
    1.2650   12.5200   -4.5960 C   0  0  2  0  0  0  0  0  0  0  0  0
    0.3190   11.3180   -2.6900 O   0  0  0  0  0  0  0  0  0  0  0  0
    0.9490   13.9630   -4.9420 C   0  0  0  0  0  0  0  0  0  0  0  0
    0.4640   11.6680   -5.4240 O   0  0  0  0  0  0  0  0  0  0  0  0
  1  2  1  0
  2  3  2  3
  2  4  1  0
  3  5  1  0
  4  6  1  0
  4  7  2  0
  5  8  1  0
  6  9  2  0
  7 10  1  0
  9 10  1  0
 10 11  1  0
  8 12  1  0
 11 13  1  0
 12 14  1  0
 13 15  1  0
 14 16  1  0
 16 17  1  0
 16 18  2  0
 17 19  1  1
 17 20  1  0
M  END
