x0592_0_A-x0962_0_A
     RDKit          3D

 12 12  0  0  0  0  0  0  0  0999 V2000
   -2.8730   14.2870    1.1460 N   0  0  0  0  0  0  0  0  0  0  0  0
   -3.3590   15.1240    0.0500 C   0  0  1  0  0  0  0  0  0  0  0  0
   -2.7120   14.8390   -1.2510 C   0  0  0  0  0  0  0  0  0  0  0  0
   -4.8300   14.9860   -0.0700 C   0  0  0  0  0  0  0  0  0  0  0  0
   -2.2110   14.6340   -2.2780 N   0  0  0  0  0  0  0  0  0  0  0  0
   -5.6120   15.1770   -1.2360 C   0  0  0  0  0  0  0  0  0  0  0  0
   -5.7510   14.6560    0.8990 C   0  0  0  0  0  0  0  0  0  0  0  0
   -6.9110   14.9830   -1.0150 N   0  0  0  0  0  0  0  0  0  0  0  0
   -6.9700   14.6710    0.2900 N   0  0  0  0  0  0  0  0  0  0  0  0
   -8.2370   14.3960    0.9210 C   0  0  0  0  0  0  0  0  0  0  0  0
   -8.0670   13.9580    2.3700 C   0  0  0  0  0  0  0  0  0  0  0  0
   -7.3420   14.9390    3.1080 O   0  0  0  0  0  0  0  0  0  0  0  0
  2  1  1  1
  2  3  1  0
  2  4  1  0
  3  5  3  0
  4  6  1  0
  4  7  2  0
  6  8  2  0
  7  9  1  0
  8  9  1  0
  9 10  1  0
 10 11  1  0
 11 12  1  0
M  END
