x0592_0_A-x1018_0_A
     RDKit          3D

 14 15  0  0  0  0  0  0  0  0999 V2000
   -3.1560   15.2530    1.5800 N   0  0  0  0  0  0  0  0  0  0  0  0
   -3.1980   14.9340    0.2540 C   0  0  0  0  0  0  0  0  0  0  0  0
   -2.1820   14.9830   -0.4330 O   0  0  0  0  0  0  0  0  0  0  0  0
   -4.5420   14.4810   -0.2810 C   0  0  2  0  0  0  0  0  0  0  0  0
   -5.2630   15.4900   -1.1530 C   0  0  2  0  0  0  0  0  0  0  0  0
   -5.5940   14.1560    0.7720 C   0  0  0  0  0  0  0  0  0  0  0  0
   -4.1260   13.4430   -1.2530 N   0  0  0  0  0  0  0  0  0  0  0  0
   -6.6920   15.1470   -1.0900 N   0  0  0  0  0  0  0  0  0  0  0  0
   -6.8620   14.1810    0.0000 N   0  0  0  0  0  0  0  0  0  0  0  0
   -3.6800   14.2830   -2.3240 N   0  0  0  0  0  0  0  0  0  0  0  0
   -4.7600   15.1930   -2.5040 N   0  0  0  0  0  0  0  0  0  0  0  0
   -8.0340   14.4920    0.8480 C   0  0  0  0  0  0  0  0  0  0  0  0
   -7.8390   14.0580    2.3090 C   0  0  0  0  0  0  0  0  0  0  0  0
   -7.1140   15.0420    3.0390 O   0  0  0  0  0  0  0  0  0  0  0  0
  1  2  1  0
  2  3  2  0
  4  2  1  1
  4  5  1  0
  4  6  1  0
  4  7  1  0
  5  8  1  6
  6  9  1  0
  8  9  1  0
  7 10  1  0
  5 11  1  0
 10 11  1  0
  9 12  1  0
 12 13  1  0
 13 14  1  0
M  END
