x0591_0_A-x0900_0_A
     RDKit          3D

 19 20  0  0  0  0  0  0  0  0999 V2000
   -7.9840   14.1400   -0.7520 N   0  0  0  0  0  0  0  0  0  0  0  0
   -8.7440   14.3590    0.4730 C   0  0  0  0  0  0  0  0  0  0  0  0
   -6.6300   14.1780   -0.6430 C   0  0  0  0  0  0  0  0  0  0  0  0
   -6.0650   14.2200    0.4700 N   0  0  0  0  0  0  0  0  0  0  0  0
   -5.6500   14.1900   -1.8090 C   0  0  0  0  0  0  0  0  0  0  0  0
   -4.3460   13.6680   -1.6250 C   0  0  0  0  0  0  0  0  0  0  0  0
   -5.9940   14.7130   -3.0540 C   0  0  0  0  0  0  0  0  0  0  0  0
   -4.6570   14.2690    0.4260 C   0  0  1  0  0  0  0  0  0  0  0  0
   -3.4080   13.6870   -2.6610 C   0  0  0  0  0  0  0  0  0  0  0  0
   -5.0520   14.7230   -4.0970 C   0  0  0  0  0  0  0  0  0  0  0  0
   -4.3160   15.1950   -0.6450 N   0  0  0  0  0  0  0  0  0  0  0  0
   -4.0510   14.9000    1.6470 C   0  0  0  0  0  0  0  0  0  0  0  0
   -3.7650   14.2210   -3.8940 C   0  0  0  0  0  0  0  0  0  0  0  0
   -3.0030   15.8280    1.0840 C   0  0  0  0  0  0  0  0  0  0  0  0
   -2.9440   15.5330   -0.3840 C   0  0  0  0  0  0  0  0  0  0  0  0
   -2.5850   14.2660   -5.2210 S   0  0  0  0  0  0  0  0  0  0  0  0
   -1.3670   15.2430   -4.5840 N   0  0  0  0  0  0  0  0  0  0  0  0
   -1.9940   12.9570   -5.3580 O   0  0  0  0  0  0  0  0  0  0  0  0
   -3.1820   14.9770   -6.3270 O   0  0  0  0  0  0  0  0  0  0  0  0
  1  2  1  0
  1  3  1  0
  3  4  2  3
  3  5  1  0
  5  6  2  0
  5  7  1  0
  8  4  1  1
  6  9  1  0
  7 10  2  0
  8 11  1  0
  8 12  1  0
  9 13  2  0
 10 13  1  0
 12 14  1  0
 11 15  1  0
 14 15  1  0
 13 16  1  0
 16 17  1  0
 16 18  2  0
 16 19  2  0
M  END
