x0592_0_A-x0864_0_A
     RDKit          3D

 26 27  0  0  0  0  0  0  0  0999 V2000
   -2.9910   14.7540    1.6310 N   0  0  0  0  0  0  0  0  0  0  0  0
   -3.2380   14.8410    0.2860 C   0  0  0  0  0  0  0  0  0  0  0  0
   -2.2120   14.8970   -0.4660 N   0  0  0  0  0  0  0  0  0  0  0  0
   -4.6540   14.8570   -0.0390 C   0  0  0  0  0  0  0  0  0  0  0  0
   -0.8690   14.8880    0.1350 C   0  0  0  0  0  0  0  0  0  0  0  0
   -5.3720   15.1310   -1.2370 C   0  0  0  0  0  0  0  0  0  0  0  0
   -5.6530   14.5830    0.8610 C   0  0  0  0  0  0  0  0  0  0  0  0
   -0.1410   13.6540   -0.3110 C   0  0  0  0  0  0  0  0  0  0  0  0
   -6.7060   15.0300   -1.0840 N   0  0  0  0  0  0  0  0  0  0  0  0
   -6.8390   14.6960    0.2150 N   0  0  0  0  0  0  0  0  0  0  0  0
   -8.1350   14.4910    0.8160 C   0  0  0  0  0  0  0  0  0  0  0  0
    0.6920   13.8940   -1.5600 C   0  0  0  0  0  0  0  0  0  0  0  0
   -7.9920   14.0720    2.2810 C   0  0  0  0  0  0  0  0  0  0  0  0
    1.0140   12.5530   -1.9730 N   0  0  0  0  0  0  0  0  0  0  0  0
   -7.2240   15.0330    3.0110 O   0  0  0  0  0  0  0  0  0  0  0  0
    0.8430   12.1190   -3.1560 C   0  0  0  0  0  0  0  0  0  0  0  0
    0.2980   12.9150   -4.3330 C   0  0  0  0  0  0  0  0  0  0  0  0
    1.1540   10.8560   -3.4030 O   0  0  0  0  0  0  0  0  0  0  0  0
   -0.3850   12.0020   -5.2570 N   0  0  0  0  0  0  0  0  0  0  0  0
   -1.3880   11.1850   -4.7660 C   0  0  0  0  0  0  0  0  0  0  0  0
    0.2840   11.6730   -6.4300 C   0  0  0  0  0  0  0  0  0  0  0  0
    1.4120   12.0830   -6.6930 O   0  0  0  0  0  0  0  0  0  0  0  0
   -1.9340   10.2330   -5.5380 C   0  0  0  0  0  0  0  0  0  0  0  0
   -0.4210   10.7510   -7.3560 C   0  0  0  0  0  0  0  0  0  0  0  0
   -1.4780   10.0550   -6.8970 C   0  0  0  0  0  0  0  0  0  0  0  0
   -2.3910    8.8230   -7.9610 Br  0  0  0  0  0  0  0  0  0  0  0  0
  1  2  1  0
  2  3  2  3
  2  4  1  0
  3  5  1  0
  4  6  1  0
  4  7  2  0
  5  8  1  0
  6  9  2  0
  7 10  1  0
  9 10  1  0
 10 11  1  0
  8 12  1  0
 11 13  1  0
 12 14  1  0
 13 15  1  0
 14 16  2  3
 16 17  1  0
 16 18  1  0
 17 19  1  0
 19 20  1  0
 19 21  1  0
 21 22  2  0
 20 23  2  0
 21 24  1  0
 23 25  1  0
 24 25  2  0
 25 26  1  0
M  END
