x0592_0_A-x0844_0_A
     RDKit          3D

 11 11  0  0  0  0  0  0  0  0999 V2000
   -2.7110   14.9170    1.0760 N   0  0  0  0  0  0  0  0  0  0  0  0
   -3.2580   14.9160   -0.1720 C   0  0  0  0  0  0  0  0  0  0  0  0
   -2.5440   14.9210   -1.1660 O   0  0  0  0  0  0  0  0  0  0  0  0
   -4.7050   14.8980   -0.2320 C   0  0  0  0  0  0  0  0  0  0  0  0
   -5.5220   15.1980   -1.3470 C   0  0  0  0  0  0  0  0  0  0  0  0
   -5.6080   14.5910    0.7640 C   0  0  0  0  0  0  0  0  0  0  0  0
   -6.8280   15.0880   -1.0770 N   0  0  0  0  0  0  0  0  0  0  0  0
   -6.8510   14.7180    0.2180 N   0  0  0  0  0  0  0  0  0  0  0  0
   -8.1150   14.4970    0.8980 C   0  0  0  0  0  0  0  0  0  0  0  0
   -7.8990   14.0740    2.3510 C   0  0  0  0  0  0  0  0  0  0  0  0
   -7.1950   15.0670    3.0940 O   0  0  0  0  0  0  0  0  0  0  0  0
  1  2  1  0
  2  3  2  0
  2  4  1  0
  4  5  1  0
  4  6  2  0
  5  7  2  0
  6  8  1  0
  7  8  1  0
  8  9  1  0
  9 10  1  0
 10 11  1  0
M  END
