x0592_0_A-x0849_0_A
     RDKit          3D

 20 22  0  0  0  0  0  0  0  0999 V2000
   -3.3280   14.1400   -2.2310 N   0  0  0  0  0  0  0  0  0  0  0  0
   -3.9450   15.2400   -1.5500 C   0  0  1  0  0  0  0  0  0  0  0  0
   -5.3810   15.0910   -1.2160 C   0  0  0  0  0  0  0  0  0  0  0  0
   -3.5220   15.1660   -0.2060 C   0  0  0  0  0  0  0  0  0  0  0  0
   -6.5180   15.3090   -1.9980 C   0  0  0  0  0  0  0  0  0  0  0  0
   -5.9150   14.6890    0.0170 C   0  0  0  0  0  0  0  0  0  0  0  0
   -2.2800   14.7420    0.2190 C   0  0  0  0  0  0  0  0  0  0  0  0
   -4.5100   15.5370    0.6820 C   0  0  0  0  0  0  0  0  0  0  0  0
   -7.6520   15.0840   -1.3410 N   0  0  0  0  0  0  0  0  0  0  0  0
   -7.2670   14.7130   -0.1170 N   0  0  0  0  0  0  0  0  0  0  0  0
   -2.1430   14.7000    1.5730 C   0  0  0  0  0  0  0  0  0  0  0  0
   -4.2380   15.4570    1.9910 C   0  0  0  0  0  0  0  0  0  0  0  0
   -1.1760   14.3530   -0.5720 C   0  0  0  0  0  0  0  0  0  0  0  0
   -8.2670   14.4010    0.8800 C   0  0  0  0  0  0  0  0  0  0  0  0
   -3.0620   15.0320    2.4160 N   0  0  0  0  0  0  0  0  0  0  0  0
   -1.0830   14.3180    2.1410 N   0  0  0  0  0  0  0  0  0  0  0  0
   -0.0240   13.9380    0.0620 C   0  0  0  0  0  0  0  0  0  0  0  0
   -7.6900   13.8860    2.1920 C   0  0  0  0  0  0  0  0  0  0  0  0
   -0.0740   13.9440    1.4310 C   0  0  0  0  0  0  0  0  0  0  0  0
   -7.2650   14.9460    3.0480 O   0  0  0  0  0  0  0  0  0  0  0  0
  2  1  1  6
  2  3  1  0
  2  4  1  0
  3  5  1  0
  3  6  2  0
  4  7  1  0
  4  8  2  0
  5  9  2  0
  6 10  1  0
  9 10  1  0
  7 11  2  0
  8 12  1  0
  7 13  1  0
 10 14  1  0
 11 15  1  0
 12 15  2  0
 11 16  1  0
 13 17  2  0
 14 18  1  0
 16 19  2  0
 17 19  1  0
 18 20  1  0
M  END
