x0592_0_A-x0290_0_A
     RDKit          3D

 18 19  0  0  0  0  0  0  0  0999 V2000
   -3.9970   15.4820   -1.8500 C   0  0  0  0  0  0  0  0  0  0  0  0
   -5.3810   15.1820   -1.4600 C   0  0  0  0  0  0  0  0  0  0  0  0
   -6.4730   14.9080   -2.3000 C   0  0  0  0  0  0  0  0  0  0  0  0
   -5.9070   15.1050   -0.2010 C   0  0  0  0  0  0  0  0  0  0  0  0
   -7.6000   14.6710   -1.6240 N   0  0  0  0  0  0  0  0  0  0  0  0
   -7.2260   14.7930   -0.3400 N   0  0  0  0  0  0  0  0  0  0  0  0
   -8.1960   14.5950    0.7240 C   0  0  0  0  0  0  0  0  0  0  0  0
   -7.5020   14.1430    2.0010 C   0  0  0  0  0  0  0  0  0  0  0  0
   -6.2580   14.8390    2.1610 O   0  0  0  0  0  0  0  0  0  0  0  0
   -5.1670   14.3580    1.4650 C   0  0  0  0  0  0  0  0  0  0  0  0
   -5.1280   13.2990    0.8420 O   0  0  0  0  0  0  0  0  0  0  0  0
   -4.0290   15.3440    1.5740 C   0  0  0  0  0  0  0  0  0  0  0  0
   -2.7030   14.8610    1.0330 C   0  0  0  0  0  0  0  0  0  0  0  0
   -1.7410   14.5280    1.9280 N   0  0  0  0  0  0  0  0  0  0  0  0
   -2.4810   14.7780   -0.3300 C   0  0  0  0  0  0  0  0  0  0  0  0
   -0.5460   14.1260    1.4480 C   0  0  0  0  0  0  0  0  0  0  0  0
   -1.2440   14.3560   -0.8030 C   0  0  0  0  0  0  0  0  0  0  0  0
   -0.2500   14.0250    0.1050 C   0  0  0  0  0  0  0  0  0  0  0  0
  1  2  1  0
  2  3  1  0
  2  4  2  0
  3  5  2  0
  4  6  1  0
  5  6  1  0
  6  7  1  0
  7  8  1  0
  8  9  1  0
  9 10  1  0
 10 11  2  0
 10 12  1  0
 12 13  1  0
 13 14  2  0
 13 15  1  0
 14 16  1  0
 15 17  2  0
 16 18  2  0
 17 18  1  0
M  END
