x0591_0_A-x0465_0_A
     RDKit          3D

 28 29  0  0  0  0  0  0  0  0999 V2000
   -5.8080   14.5780    0.8900 N   0  0  0  0  0  0  0  0  0  0  0  0
   -6.7450   14.5030    1.9840 C   0  0  0  0  0  0  0  0  0  0  0  0
   -6.2710   14.7430   -0.3940 C   0  0  0  0  0  0  0  0  0  0  0  0
   -7.4550   14.8920   -0.6610 O   0  0  0  0  0  0  0  0  0  0  0  0
   -5.2530   14.7320   -1.4830 C   0  0  0  0  0  0  0  0  0  0  0  0
   -3.8800   14.5930   -1.2470 C   0  0  0  0  0  0  0  0  0  0  0  0
   -5.7210   14.8650   -2.7880 C   0  0  0  0  0  0  0  0  0  0  0  0
   -2.9780   14.5950   -2.3260 C   0  0  0  0  0  0  0  0  0  0  0  0
   -4.8290   14.8640   -3.8570 C   0  0  0  0  0  0  0  0  0  0  0  0
   -3.4720   14.7360   -3.6280 C   0  0  0  0  0  0  0  0  0  0  0  0
   -2.3960   14.7650   -5.0270 S   0  0  1  0  0  0  0  0  0  0  0  0
   -1.2550   15.9700   -4.8030 N   0  0  0  0  0  0  0  0  0  0  0  0
   -1.4940   13.5310   -5.0090 N   0  0  0  0  0  0  0  0  0  0  0  0
   -3.1310   15.2590   -6.1650 O   0  0  0  0  0  0  0  0  0  0  0  0
   -0.0230   13.8140   -4.9270 C   0  0  0  0  0  0  0  0  0  0  0  0
    0.8300   12.5670   -4.5940 C   0  0  2  0  0  0  0  0  0  0  0  0
    2.3030   12.9900   -4.8020 C   0  0  0  0  0  0  0  0  0  0  0  0
    0.6450   11.5440   -5.5880 O   0  0  0  0  0  0  0  0  0  0  0  0
    0.8000   12.1230   -3.1070 C   0  0  0  0  0  0  0  0  0  0  0  0
    1.1000   12.8450   -2.1650 O   0  0  0  0  0  0  0  0  0  0  0  0
    0.4120   10.8370   -2.9070 O   0  0  0  0  0  0  0  0  0  0  0  0
   -0.4720   10.7690   -5.7650 C   0  0  0  0  0  0  0  0  0  0  0  0
   -0.6330    9.7190   -6.6720 C   0  0  0  0  0  0  0  0  0  0  0  0
   -1.5590   11.0810   -4.9340 C   0  0  0  0  0  0  0  0  0  0  0  0
    0.3530    9.3520   -7.5010 F   0  0  0  0  0  0  0  0  0  0  0  0
   -1.8270    9.0060   -6.7570 C   0  0  0  0  0  0  0  0  0  0  0  0
   -2.7610   10.3700   -5.0150 C   0  0  0  0  0  0  0  0  0  0  0  0
   -2.8960    9.3290   -5.9300 C   0  0  0  0  0  0  0  0  0  0  0  0
  1  2  1  0
  1  3  1  0
  3  4  2  0
  3  5  1  0
  5  6  2  0
  5  7  1  0
  6  8  1  0
  7  9  2  0
  8 10  2  0
  9 10  1  0
 10 11  1  0
 11 12  1  1
 11 13  2  0
 11 14  2  0
 13 15  1  0
 15 16  1  0
 16 17  1  6
 16 18  1  0
 16 19  1  0
 19 20  2  0
 19 21  1  0
 18 22  1  0
 22 23  2  0
 22 24  1  0
 23 25  1  0
 23 26  1  0
 24 27  2  0
 26 28  2  0
 27 28  1  0
M  END
