x0591_0_A-x0662_0_A
     RDKit          3D

 33 35  0  0  0  0  0  0  0  0999 V2000
   -5.8370   14.6520    0.9380 N   0  0  0  0  0  0  0  0  0  0  0  0
   -6.7480   14.5400    2.0480 C   0  0  0  0  0  0  0  0  0  0  0  0
   -6.3440   14.8960   -0.3140 C   0  0  0  0  0  0  0  0  0  0  0  0
   -7.5260   15.1420   -0.5260 O   0  0  0  0  0  0  0  0  0  0  0  0
   -5.3900   14.8340   -1.4380 C   0  0  0  0  0  0  0  0  0  0  0  0
   -4.0100   14.7510   -1.2130 C   0  0  0  0  0  0  0  0  0  0  0  0
   -5.8960   14.8530   -2.7320 C   0  0  0  0  0  0  0  0  0  0  0  0
   -3.1460   14.6820   -2.3070 C   0  0  0  0  0  0  0  0  0  0  0  0
   -5.0400   14.7800   -3.8110 C   0  0  0  0  0  0  0  0  0  0  0  0
   -3.6790   14.6940   -3.5990 C   0  0  0  0  0  0  0  0  0  0  0  0
   -2.6590   14.5760   -5.0140 S   0  0  1  0  0  0  0  0  0  0  0  0
   -1.0870   15.0690   -4.6060 N   0  0  0  0  0  0  0  0  0  0  0  0
   -2.4650   13.0770   -5.1470 N   0  0  0  0  0  0  0  0  0  0  0  0
   -3.0170   15.5430   -6.0250 O   0  0  0  0  0  0  0  0  0  0  0  0
   -1.7030   12.5090   -6.2260 C   0  0  0  0  0  0  0  0  0  0  0  0
   -0.3480   12.5520   -5.8030 N   0  0  0  0  0  0  0  0  0  0  0  0
    0.5060   11.7740   -6.3030 C   0  0  0  0  0  0  0  0  0  0  0  0
    1.7100   11.7390   -6.0490 O   0  0  0  0  0  0  0  0  0  0  0  0
    0.1950   10.7390   -7.3410 C   0  0  0  0  0  0  0  0  0  0  0  0
   -0.7250    9.7150   -7.1000 C   0  0  0  0  0  0  0  0  0  0  0  0
    0.8350   10.8090   -8.5700 C   0  0  0  0  0  0  0  0  0  0  0  0
   -0.9780    8.7860   -8.1120 C   0  0  0  0  0  0  0  0  0  0  0  0
    0.5940    9.9000   -9.5840 C   0  0  0  0  0  0  0  0  0  0  0  0
    1.3140   10.1110  -10.7770 N   0  0  0  0  0  0  0  0  0  0  0  0
   -0.3220    8.8780   -9.3510 C   0  0  0  0  0  0  0  0  0  0  0  0
    2.2640    9.3700  -11.4330 C   0  0  0  0  0  0  0  0  0  0  0  0
    2.5160    8.2400  -11.0030 O   0  0  0  0  0  0  0  0  0  0  0  0
    2.9920    9.8870  -12.6040 C   0  0  0  0  0  0  0  0  0  0  0  0
    2.8100   11.1610  -13.2230 C   0  0  0  0  0  0  0  0  0  0  0  0
    3.9510    9.1920  -13.2410 N   0  0  0  0  0  0  0  0  0  0  0  0
    4.3590   10.0030  -14.2240 N   0  0  0  0  0  0  0  0  0  0  0  0
    3.7060   11.2000  -14.2620 C   0  0  0  0  0  0  0  0  0  0  0  0
    5.4050    9.5430  -15.1020 C   0  0  0  0  0  0  0  0  0  0  0  0
  1  2  1  0
  1  3  1  0
  3  4  2  0
  3  5  1  0
  5  6  2  0
  5  7  1  0
  6  8  1  0
  7  9  2  0
  8 10  2  0
  9 10  1  0
 10 11  1  0
 11 12  1  1
 11 13  2  0
 11 14  2  0
 13 15  1  0
 15 16  1  0
 16 17  2  3
 17 18  1  0
 17 19  1  0
 19 20  2  0
 19 21  1  0
 20 22  1  0
 21 23  2  0
 23 24  1  0
 22 25  2  0
 23 25  1  0
 24 26  1  0
 26 27  2  0
 26 28  1  0
 28 29  1  0
 28 30  2  0
 30 31  1  0
 29 32  2  0
 31 32  1  0
 31 33  1  0
M  CHG  1  18  -1
M  END
