x0592_0_A_α-x0421_0_A_α
     RDKit          3D

 21 23  0  0  0  0  0  0  0  0999 V2000
   -3.6710   11.7550   -1.7290 N   0  0  0  0  0  0  0  0  0  0  0  0
   -3.9020   13.0980   -2.3250 C   0  0  2  0  0  0  0  0  0  0  0  0
   -2.6490   14.0780   -2.0700 C   0  0  2  0  0  0  0  0  0  0  0  0
   -5.2770   13.5180   -1.8010 C   0  0  0  0  0  0  0  0  0  0  0  0
   -2.7250   15.2980   -2.8560 N   0  0  0  0  0  0  0  0  0  0  0  0
   -1.4320   13.4210   -2.4180 O   0  0  0  0  0  0  0  0  0  0  0  0
   -6.0530   14.6590   -2.1370 C   0  0  0  0  0  0  0  0  0  0  0  0
   -6.0810   12.8540   -0.8690 C   0  0  0  0  0  0  0  0  0  0  0  0
   -2.6800   14.4330   -0.5940 C   0  0  0  0  0  0  0  0  0  0  0  0
   -7.2240   14.7090   -1.4890 N   0  0  0  0  0  0  0  0  0  0  0  0
   -7.2250   13.6050   -0.7180 N   0  0  0  0  0  0  0  0  0  0  0  0
   -1.7420   14.7470    0.3940 C   0  0  0  0  0  0  0  0  0  0  0  0
   -3.9160   14.4470   -0.0640 N   0  0  0  0  0  0  0  0  0  0  0  0
   -8.3840   13.3490    0.1430 C   0  0  0  0  0  0  0  0  0  0  0  0
   -2.4820   14.9470    1.5450 N   0  0  0  0  0  0  0  0  0  0  0  0
   -3.7940   14.7410    1.1740 C   0  0  0  0  0  0  0  0  0  0  0  0
   -8.0560   12.7040    1.4970 C   0  0  0  0  0  0  0  0  0  0  0  0
   -5.0980   14.7810    1.9590 C   0  0  0  0  0  0  0  0  0  0  0  0
   -8.0490   13.6660    2.5700 O   0  0  0  0  0  0  0  0  0  0  0  0
   -5.8570   13.4940    1.7620 C   0  0  0  0  0  0  0  0  0  0  0  0
   -6.3820   14.7610    1.1900 C   0  0  0  0  0  0  0  0  0  0  0  0
  2  1  1  1
  2  3  1  0
  2  4  1  0
  3  5  1  6
  3  6  1  0
  4  7  1  0
  4  8  2  0
  3  9  1  0
  7 10  2  0
  8 11  1  0
 10 11  1  0
  9 12  2  0
  9 13  1  0
 11 14  1  0
 12 15  1  0
 13 16  2  0
 15 16  1  0
 14 17  1  0
 16 18  1  0
 17 19  1  0
 18 20  1  0
 18 21  1  0
 20 21  1  0
M  END
