x0591_0_A_α-x0662_0_A_α
     RDKit          3D

 28 29  0  0  0  0  0  0  0  0999 V2000
   -5.8220   14.6080    0.9100 N   0  0  0  0  0  0  0  0  0  0  0  0
   -6.7770   14.5120    1.9860 C   0  0  0  0  0  0  0  0  0  0  0  0
   -6.2660   14.8050   -0.3780 C   0  0  0  0  0  0  0  0  0  0  0  0
   -7.4440   14.9960   -0.6560 O   0  0  0  0  0  0  0  0  0  0  0  0
   -5.2430   14.7690   -1.4580 C   0  0  0  0  0  0  0  0  0  0  0  0
   -3.8720   14.6400   -1.1980 C   0  0  0  0  0  0  0  0  0  0  0  0
   -5.6870   14.8650   -2.7770 C   0  0  0  0  0  0  0  0  0  0  0  0
   -2.9620   14.6060   -2.2580 C   0  0  0  0  0  0  0  0  0  0  0  0
   -4.7800   14.8280   -3.8320 C   0  0  0  0  0  0  0  0  0  0  0  0
   -3.4230   14.6980   -3.5710 C   0  0  0  0  0  0  0  0  0  0  0  0
   -2.2980   14.6440   -4.9270 S   0  0  1  0  0  0  0  0  0  0  0  0
   -1.0800   15.7660   -4.6910 N   0  0  0  0  0  0  0  0  0  0  0  0
   -1.4670   13.3770   -4.7780 N   0  0  0  0  0  0  0  0  0  0  0  0
   -2.9620   15.1340   -6.1120 O   0  0  0  0  0  0  0  0  0  0  0  0
   -0.4360   12.9820   -5.7460 C   0  0  0  0  0  0  0  0  0  0  0  0
   -0.9680   11.9330   -6.7190 C   0  0  0  0  0  0  0  0  0  0  0  0
    0.0920   11.1060   -7.4480 C   0  0  0  0  0  0  0  0  0  0  0  0
   -0.2180   10.8980   -8.9310 C   0  0  0  0  0  0  0  0  0  0  0  0
    1.0680   10.5530   -9.6730 C   0  0  0  0  0  0  0  0  0  0  0  0
    0.8730   10.0790  -11.1020 C   0  0  0  0  0  0  0  0  0  0  0  0
    2.1070    9.3360  -11.5760 C   0  0  0  0  0  0  0  0  0  0  0  0
    2.4370    8.2820  -11.0240 O   0  0  0  0  0  0  0  0  0  0  0  0
    2.9010    9.8870  -12.6820 C   0  0  0  0  0  0  0  0  0  0  0  0
    3.8680    9.1760  -13.2830 N   0  0  0  0  0  0  0  0  0  0  0  0
    2.7880   11.1830  -13.2600 C   0  0  0  0  0  0  0  0  0  0  0  0
    4.3530   10.0060  -14.2210 N   0  0  0  0  0  0  0  0  0  0  0  0
    3.7410   11.2230  -14.2510 C   0  0  0  0  0  0  0  0  0  0  0  0
    5.4320    9.5530  -15.0680 C   0  0  0  0  0  0  0  0  0  0  0  0
  1  2  1  0
  1  3  1  0
  3  4  2  0
  3  5  1  0
  5  6  2  0
  5  7  1  0
  6  8  1  0
  7  9  2  0
  8 10  2  0
  9 10  1  0
 10 11  1  0
 11 12  1  1
 11 13  2  0
 11 14  2  0
 13 15  1  0
 15 16  1  0
 16 17  1  0
 17 18  1  0
 18 19  1  0
 19 20  1  0
 20 21  1  0
 21 22  2  0
 21 23  1  0
 23 24  2  0
 23 25  1  0
 24 26  1  0
 25 27  2  0
 26 27  1  0
 26 28  1  0
M  END
