x0591_0_A-x0253_0_A
     RDKit          3D

 29 30  0  0  0  0  0  0  0  0999 V2000
   -6.5130   14.6930    0.6810 N   0  0  0  0  0  0  0  0  0  0  0  0
   -6.5390   14.5940    2.0090 C   0  0  0  0  0  0  0  0  0  0  0  0
   -6.6060   14.8030   -0.6700 C   0  0  0  0  0  0  0  0  0  0  0  0
   -7.6800   14.9320   -1.2650 O   0  0  0  0  0  0  0  0  0  0  0  0
   -5.4370   14.7870   -1.6020 C   0  0  0  0  0  0  0  0  0  0  0  0
   -4.1410   14.7200   -1.1830 C   0  0  0  0  0  0  0  0  0  0  0  0
   -5.7110   14.8420   -2.9250 C   0  0  0  0  0  0  0  0  0  0  0  0
   -3.1240   14.7130   -2.1570 C   0  0  0  0  0  0  0  0  0  0  0  0
   -4.7270   14.8290   -3.8650 C   0  0  0  0  0  0  0  0  0  0  0  0
   -3.3950   14.7660   -3.5070 C   0  0  0  0  0  0  0  0  0  0  0  0
   -2.2480   14.7580   -4.8220 S   0  0  1  0  0  0  0  0  0  0  0  0
   -1.0040   15.9430   -4.6470 N   0  0  0  0  0  0  0  0  0  0  0  0
   -1.6400   13.3350   -4.9990 N   0  0  0  0  0  0  0  0  0  0  0  0
   -3.0300   15.0380   -6.1040 O   0  0  0  0  0  0  0  0  0  0  0  0
   -0.6010   13.2110   -5.9610 C   0  0  0  0  0  0  0  0  0  0  0  0
    0.4690   12.2780   -5.4630 N   0  0  0  0  0  0  0  0  0  0  0  0
    1.0500   11.6780   -6.5460 C   0  0  0  0  0  0  0  0  0  0  0  0
    1.1950   12.8680   -4.3920 C   0  0  0  0  0  0  0  0  0  0  0  0
    2.3120   11.9770   -6.6010 O   0  0  0  0  0  0  0  0  0  0  0  0
    0.9510   12.1930   -3.0940 C   0  0  0  0  0  0  0  0  0  0  0  0
    0.5260   10.8090   -7.5740 C   0  0  0  0  0  0  0  0  0  0  0  0
    1.3290   12.7750   -2.0540 O   0  0  0  0  0  0  0  0  0  0  0  0
    0.3320   10.9580   -2.9910 O   0  0  0  0  0  0  0  0  0  0  0  0
   -0.4540    9.8670   -7.2070 C   0  0  0  0  0  0  0  0  0  0  0  0
    0.8710   10.7880   -8.9000 C   0  0  0  0  0  0  0  0  0  0  0  0
   -1.0500    8.9850   -8.0430 C   0  0  0  0  0  0  0  0  0  0  0  0
    0.2660    9.8810   -9.7860 C   0  0  0  0  0  0  0  0  0  0  0  0
   -2.0780    8.0230   -7.5810 C   0  0  0  0  0  0  0  0  0  0  0  0
   -0.6840    8.9880   -9.3690 C   0  0  0  0  0  0  0  0  0  0  0  0
  1  2  1  0
  1  3  1  0
  3  4  2  0
  3  5  1  0
  5  6  2  0
  5  7  1  0
  6  8  1  0
  7  9  2  0
  8 10  2  0
  9 10  1  0
 10 11  1  0
 11 12  1  1
 11 13  2  0
 11 14  2  0
 13 15  1  0
 15 16  1  0
 16 17  1  0
 16 18  1  0
 17 19  2  0
 18 20  1  0
 17 21  1  0
 20 22  2  0
 20 23  1  0
 21 24  2  0
 21 25  1  0
 24 26  1  0
 25 27  2  0
 26 28  1  0
 26 29  2  0
 27 29  1  0
M  END
