x0592_0_A_α-x0524_0_A_α
     RDKit          3D

 33 35  0  0  0  0  0  0  0  0999 V2000
   -2.7340   14.9170    0.9940 N   0  0  0  0  0  0  0  0  0  0  0  0
   -3.2210   14.7720   -0.2790 C   0  0  0  0  0  0  0  0  0  0  0  0
   -2.4130   14.6010   -1.2760 N   0  0  0  0  0  0  0  0  0  0  0  0
   -4.6650   14.8260   -0.3120 C   0  0  0  0  0  0  0  0  0  0  0  0
   -2.8390   14.4290   -2.6680 C   0  0  0  0  0  0  0  0  0  0  0  0
   -5.5110   15.1830   -1.3920 C   0  0  0  0  0  0  0  0  0  0  0  0
   -5.5530   14.5400    0.7080 C   0  0  0  0  0  0  0  0  0  0  0  0
   -1.6640   13.9740   -3.5630 C   0  0  0  0  0  0  0  0  0  0  0  0
   -6.8100   15.1240   -1.0810 N   0  0  0  0  0  0  0  0  0  0  0  0
   -6.8080   14.7280    0.2050 N   0  0  0  0  0  0  0  0  0  0  0  0
   -8.0600   14.5500    0.9100 C   0  0  0  0  0  0  0  0  0  0  0  0
   -1.9470   12.6670   -4.3390 C   0  0  0  0  0  0  0  0  0  0  0  0
   -7.8420   14.0980    2.3480 C   0  0  0  0  0  0  0  0  0  0  0  0
   -1.2480   12.5320   -5.7180 C   0  0  0  0  0  0  0  0  0  0  0  0
   -7.1320   15.0860    3.0910 O   0  0  0  0  0  0  0  0  0  0  0  0
   -0.0770   11.5300   -5.7570 C   0  0  0  0  0  0  0  0  0  0  0  0
   -0.0900   10.7020   -6.9770 N   0  0  0  0  0  0  0  0  0  0  0  0
   -0.7410    9.5800   -7.0680 C   0  0  0  0  0  0  0  0  0  0  0  0
   -0.6520    8.8630   -8.2410 N   0  0  0  0  0  0  0  0  0  0  0  0
   -1.5970    8.9880   -5.9700 C   0  0  0  0  0  0  0  0  0  0  0  0
    0.4730    8.7770   -9.1090 C   0  0  0  0  0  0  0  0  0  0  0  0
    1.5910    7.9660   -8.8870 C   0  0  0  0  0  0  0  0  0  0  0  0
    0.4470    9.5580  -10.2640 C   0  0  0  0  0  0  0  0  0  0  0  0
    2.6530    7.9370   -9.8090 C   0  0  0  0  0  0  0  0  0  0  0  0
    1.5010    9.5270  -11.1790 C   0  0  0  0  0  0  0  0  0  0  0  0
    2.6200    8.7190  -10.9680 C   0  0  0  0  0  0  0  0  0  0  0  0
    3.6380    8.7400  -11.9330 N   0  0  0  0  0  0  0  0  0  0  0  0
    3.8920    9.5990  -13.0170 C   0  0  0  0  0  0  0  0  0  0  0  0
    3.2270   10.8150  -13.2170 C   0  0  0  0  0  0  0  0  0  0  0  0
    4.8670    9.2300  -13.9480 C   0  0  0  0  0  0  0  0  0  0  0  0
    3.5230   11.6290  -14.3080 C   0  0  0  0  0  0  0  0  0  0  0  0
    5.1670   10.0430  -15.0450 C   0  0  0  0  0  0  0  0  0  0  0  0
    4.4950   11.2470  -15.2220 C   0  0  0  0  0  0  0  0  0  0  0  0
  1  2  1  0
  2  3  2  3
  2  4  1  0
  3  5  1  0
  4  6  1  0
  4  7  2  0
  5  8  1  0
  6  9  2  0
  7 10  1  0
  9 10  1  0
 10 11  1  0
  8 12  1  0
 11 13  1  0
 12 14  1  0
 13 15  1  0
 14 16  1  0
 16 17  1  0
 17 18  2  3
 18 19  1  0
 18 20  1  0
 19 21  1  0
 21 22  2  0
 21 23  1  0
 22 24  1  0
 23 25  2  0
 24 26  2  0
 25 26  1  0
 26 27  1  0
 27 28  1  0
 28 29  2  0
 28 30  1  0
 29 31  1  0
 30 32  2  0
 31 33  2  0
 32 33  1  0
M  END
