x0592_0_A_α-x0844_0_A_α
     RDKit          3D

 11 11  0  0  0  0  0  0  0  0999 V2000
   -2.7120   14.9140    1.0760 N   0  0  0  0  0  0  0  0  0  0  0  0
   -3.2590   14.9170   -0.1740 C   0  0  0  0  0  0  0  0  0  0  0  0
   -2.5440   14.9260   -1.1680 O   0  0  0  0  0  0  0  0  0  0  0  0
   -4.7060   14.8980   -0.2310 C   0  0  0  0  0  0  0  0  0  0  0  0
   -5.5240   15.1970   -1.3500 C   0  0  0  0  0  0  0  0  0  0  0  0
   -5.6110   14.5890    0.7640 C   0  0  0  0  0  0  0  0  0  0  0  0
   -6.8310   15.0860   -1.0790 N   0  0  0  0  0  0  0  0  0  0  0  0
   -6.8510   14.7140    0.2160 N   0  0  0  0  0  0  0  0  0  0  0  0
   -8.1170   14.4920    0.8990 C   0  0  0  0  0  0  0  0  0  0  0  0
   -7.8970   14.0690    2.3490 C   0  0  0  0  0  0  0  0  0  0  0  0
   -7.1970   15.0650    3.0900 O   0  0  0  0  0  0  0  0  0  0  0  0
  1  2  1  0
  2  3  2  0
  2  4  1  0
  4  5  1  0
  4  6  2  0
  5  7  2  0
  6  8  1  0
  7  8  1  0
  8  9  1  0
  9 10  1  0
 10 11  1  0
M  END
