x0591_0_A-x0628_0_A
     RDKit          3D

 25 26  0  0  0  0  0  0  0  0999 V2000
   -5.8580   14.6120    0.9270 N   0  0  0  0  0  0  0  0  0  0  0  0
   -6.7800   14.5330    2.0340 C   0  0  0  0  0  0  0  0  0  0  0  0
   -6.3460   14.8190   -0.3400 C   0  0  0  0  0  0  0  0  0  0  0  0
   -7.5300   15.0260   -0.5670 O   0  0  0  0  0  0  0  0  0  0  0  0
   -5.3840   14.7730   -1.4700 C   0  0  0  0  0  0  0  0  0  0  0  0
   -4.0160   14.6320   -1.2070 C   0  0  0  0  0  0  0  0  0  0  0  0
   -5.8270   14.8630   -2.7880 C   0  0  0  0  0  0  0  0  0  0  0  0
   -3.1040   14.5810   -2.2600 C   0  0  0  0  0  0  0  0  0  0  0  0
   -4.9200   14.8070   -3.8400 C   0  0  0  0  0  0  0  0  0  0  0  0
   -3.5740   14.6670   -3.5700 C   0  0  0  0  0  0  0  0  0  0  0  0
   -2.4240   14.5790   -4.8940 S   0  0  1  0  0  0  0  0  0  0  0  0
   -1.2800   15.8140   -4.7420 N   0  0  0  0  0  0  0  0  0  0  0  0
   -1.5720   13.3760   -4.5280 N   0  0  0  0  0  0  0  0  0  0  0  0
   -3.0710   14.9590   -6.1300 O   0  0  0  0  0  0  0  0  0  0  0  0
   -1.2240   12.3130   -5.4460 C   0  0  0  0  0  0  0  0  0  0  0  0
   -2.0180   11.3920   -5.9510 N   0  0  0  0  0  0  0  0  0  0  0  0
    0.0250   12.1490   -5.9010 N   0  0  0  0  0  0  0  0  0  0  0  0
    1.1760   12.9640   -5.5590 C   0  0  0  0  0  0  0  0  0  0  0  0
   -1.1650   10.6700   -6.7470 C   0  0  0  0  0  0  0  0  0  0  0  0
    0.1080   11.1080   -6.7530 N   0  0  0  0  0  0  0  0  0  0  0  0
   -1.6100    9.5010   -7.5370 C   0  0  0  0  0  0  0  0  0  0  0  0
    2.0180   12.4490   -4.3890 C   0  0  0  0  0  0  0  0  0  0  0  0
    1.2430   12.0540   -3.1450 C   0  0  0  0  0  0  0  0  0  0  0  0
    0.6140   11.0140   -3.0460 O   0  0  0  0  0  0  0  0  0  0  0  0
    1.2990   12.9340   -2.1260 O   0  0  0  0  0  0  0  0  0  0  0  0
  1  2  1  0
  1  3  1  0
  3  4  2  0
  3  5  1  0
  5  6  2  0
  5  7  1  0
  6  8  1  0
  7  9  2  0
  8 10  2  0
  9 10  1  0
 10 11  1  0
 11 12  1  1
 11 13  2  0
 11 14  2  0
 13 15  1  0
 15 16  2  0
 15 17  1  0
 17 18  1  0
 16 19  1  0
 17 20  1  0
 19 20  2  0
 19 21  1  0
 18 22  1  0
 22 23  1  0
 23 24  2  0
 23 25  1  0
M  END
