x0591_0_A-x0855_0_A
     RDKit          3D

 25 26  0  0  0  0  0  0  0  0999 V2000
   -5.8110   14.5170    0.8470 N   0  0  0  0  0  0  0  0  0  0  0  0
   -6.7140   14.5000    1.9760 C   0  0  0  0  0  0  0  0  0  0  0  0
   -6.1850   14.6360   -0.4620 C   0  0  0  0  0  0  0  0  0  0  0  0
   -7.3770   14.6980   -0.7460 O   0  0  0  0  0  0  0  0  0  0  0  0
   -5.1740   14.7050   -1.5450 C   0  0  0  0  0  0  0  0  0  0  0  0
   -3.7910   14.6480   -1.3120 C   0  0  0  0  0  0  0  0  0  0  0  0
   -5.6470   14.8330   -2.8450 C   0  0  0  0  0  0  0  0  0  0  0  0
   -2.8900   14.7360   -2.3940 C   0  0  0  0  0  0  0  0  0  0  0  0
   -4.7580   14.9160   -3.9110 C   0  0  0  0  0  0  0  0  0  0  0  0
   -3.3880   14.8800   -3.7010 C   0  0  0  0  0  0  0  0  0  0  0  0
   -2.3600   15.0460   -5.1490 S   0  0  1  0  0  0  0  0  0  0  0  0
   -1.1770   16.1710   -4.7910 N   0  0  0  0  0  0  0  0  0  0  0  0
   -1.4450   13.8660   -5.4530 N   0  0  0  0  0  0  0  0  0  0  0  0
   -3.1340   15.7210   -6.1580 O   0  0  0  0  0  0  0  0  0  0  0  0
   -0.1230   13.7710   -4.7640 C   0  0  0  0  0  0  0  0  0  0  0  0
   -0.3390   12.5570   -3.9140 C   0  0  2  0  0  0  0  0  0  0  0  0
    0.8200   11.9940   -3.1710 C   0  0  0  0  0  0  0  0  0  0  0  0
   -0.9760   11.5400   -4.7080 N   0  0  0  0  0  0  0  0  0  0  0  0
    1.8370   12.8540   -2.9740 O   0  0  0  0  0  0  0  0  0  0  0  0
    0.8740   10.8650   -2.7390 O   0  0  0  0  0  0  0  0  0  0  0  0
   -0.4590   10.7990   -5.7440 C   0  0  0  0  0  0  0  0  0  0  0  0
   -2.2560   11.2510   -4.4360 N   0  0  0  0  0  0  0  0  0  0  0  0
   -1.4900    9.9870   -6.1360 C   0  0  0  0  0  0  0  0  0  0  0  0
   -2.5680   10.3030   -5.3090 C   0  0  0  0  0  0  0  0  0  0  0  0
   -1.5330    8.7030   -7.4830 Br  0  0  0  0  0  0  0  0  0  0  0  0
  1  2  1  0
  1  3  1  0
  3  4  2  0
  3  5  1  0
  5  6  2  0
  5  7  1  0
  6  8  1  0
  7  9  2  0
  8 10  2  0
  9 10  1  0
 10 11  1  0
 11 12  1  1
 11 13  2  0
 11 14  2  0
 13 15  1  0
 16 15  1  6
 16 17  1  0
 16 18  1  0
 17 19  1  0
 17 20  2  0
 18 21  1  0
 18 22  1  0
 21 23  2  0
 22 24  2  0
 23 24  1  0
 23 25  1  0
M  END
