x0591_0_A-x0950_1_A
     RDKit          3D

 21 21  0  0  0  0  0  0  0  0999 V2000
   -5.7850   14.6070    0.9140 N   0  0  0  0  0  0  0  0  0  0  0  0
   -6.7310   14.5250    1.9960 C   0  0  0  0  0  0  0  0  0  0  0  0
   -6.2510   14.7830   -0.3630 C   0  0  0  0  0  0  0  0  0  0  0  0
   -7.4370   14.9740   -0.6040 O   0  0  0  0  0  0  0  0  0  0  0  0
   -5.2820   14.7270   -1.4920 C   0  0  0  0  0  0  0  0  0  0  0  0
   -3.9100   14.5210   -1.2470 C   0  0  0  0  0  0  0  0  0  0  0  0
   -5.7250   14.8720   -2.8000 C   0  0  0  0  0  0  0  0  0  0  0  0
   -3.0020   14.4630   -2.3180 C   0  0  0  0  0  0  0  0  0  0  0  0
   -4.8290   14.8130   -3.8620 C   0  0  0  0  0  0  0  0  0  0  0  0
   -3.4760   14.6110   -3.6260 C   0  0  0  0  0  0  0  0  0  0  0  0
   -2.4060   14.5420   -5.0450 S   0  0  0  0  0  0  0  0  0  0  0  0
   -0.9440   15.2250   -4.5790 N   0  0  0  0  0  0  0  0  0  0  0  0
   -2.1230   13.1470   -5.2860 O   0  0  0  0  0  0  0  0  0  0  0  0
   -2.9920   15.3810   -6.0670 O   0  0  0  0  0  0  0  0  0  0  0  0
    0.2800   14.8060   -5.2680 C   0  0  0  0  0  0  0  0  0  0  0  0
    1.2980   14.2000   -4.3070 C   0  0  0  0  0  0  0  0  0  0  0  0
    1.4500   12.6740   -4.3480 C   0  0  2  0  0  0  0  0  0  0  0  0
    0.6470   12.1060   -5.3950 O   0  0  0  0  0  0  0  0  0  0  0  0
    1.0390   12.0450   -3.0210 C   0  0  0  0  0  0  0  0  0  0  0  0
    0.3960   11.0170   -2.8780 O   0  0  0  0  0  0  0  0  0  0  0  0
    1.4510   12.7420   -1.9470 O   0  0  0  0  0  0  0  0  0  0  0  0
  1  2  1  0
  1  3  1  0
  3  4  2  0
  3  5  1  0
  5  6  2  0
  5  7  1  0
  6  8  1  0
  7  9  2  0
  8 10  2  0
  9 10  1  0
 10 11  1  0
 11 12  1  0
 11 13  2  0
 11 14  2  0
 12 15  1  0
 15 16  1  0
 16 17  1  0
 17 18  1  6
 17 19  1  0
 19 20  2  0
 19 21  1  0
M  END
