x0591_0_A_α-x0711_0_A_α
     RDKit          3D

 18 19  0  0  0  0  0  0  0  0999 V2000
   -5.7990   14.6210    0.8820 N   0  0  0  0  0  0  0  0  0  0  0  0
   -6.7440   14.4960    1.9670 C   0  0  0  0  0  0  0  0  0  0  0  0
   -6.2550   14.8440   -0.3960 C   0  0  0  0  0  0  0  0  0  0  0  0
   -7.4290   15.0610   -0.6570 O   0  0  0  0  0  0  0  0  0  0  0  0
   -5.2580   14.8020   -1.5010 C   0  0  0  0  0  0  0  0  0  0  0  0
   -3.8720   14.7260   -1.2880 C   0  0  0  0  0  0  0  0  0  0  0  0
   -5.7610   14.8410   -2.8040 C   0  0  0  0  0  0  0  0  0  0  0  0
   -3.0100   14.6890   -2.3930 C   0  0  0  0  0  0  0  0  0  0  0  0
   -4.8990   14.7970   -3.8940 C   0  0  0  0  0  0  0  0  0  0  0  0
   -1.5930   14.6200   -2.1840 N   0  0  0  0  0  0  0  0  0  0  0  0
   -3.5430   14.7240   -3.6570 C   0  0  0  0  0  0  0  0  0  0  0  0
   -2.3860   14.6570   -4.9340 S   0  0  1  0  0  0  0  0  0  0  0  0
   -0.5080   14.0210   -3.3880 S   0  0  0  0  0  0  0  0  0  0  0  0
   -1.3130   15.9390   -4.7690 N   0  0  0  0  0  0  0  0  0  0  0  0
   -1.4650   13.5480   -4.5140 N   0  0  0  0  0  0  0  0  0  0  0  0
   -3.0180   14.9350   -6.1960 O   0  0  0  0  0  0  0  0  0  0  0  0
    0.3570   15.1530   -3.6660 O   0  0  0  0  0  0  0  0  0  0  0  0
    0.1440   12.9940   -2.5890 O   0  0  0  0  0  0  0  0  0  0  0  0
  1  2  1  0
  1  3  1  0
  3  4  2  0
  3  5  1  0
  5  6  2  0
  5  7  1  0
  6  8  1  0
  7  9  2  0
  8 10  1  0
  8 11  2  0
  9 11  1  0
 11 12  1  0
 10 13  1  0
 12 14  1  1
 12 15  2  0
 13 15  1  0
 12 16  2  0
 13 17  2  0
 13 18  2  0
M  END
