x0591_0_A-x0524_0_A
     RDKit          3D

 33 35  0  0  0  0  0  0  0  0999 V2000
   -5.7940   14.6140    0.8980 N   0  0  0  0  0  0  0  0  0  0  0  0
   -6.7520   14.5190    1.9690 C   0  0  0  0  0  0  0  0  0  0  0  0
   -6.2340   14.8080   -0.3900 C   0  0  0  0  0  0  0  0  0  0  0  0
   -7.4130   15.0010   -0.6640 O   0  0  0  0  0  0  0  0  0  0  0  0
   -5.2200   14.7670   -1.4760 C   0  0  0  0  0  0  0  0  0  0  0  0
   -3.8430   14.6800   -1.2420 C   0  0  0  0  0  0  0  0  0  0  0  0
   -5.6900   14.8180   -2.7900 C   0  0  0  0  0  0  0  0  0  0  0  0
   -2.9490   14.6400   -2.3240 C   0  0  0  0  0  0  0  0  0  0  0  0
   -4.8050   14.7740   -3.8640 C   0  0  0  0  0  0  0  0  0  0  0  0
   -3.4440   14.6860   -3.6350 C   0  0  0  0  0  0  0  0  0  0  0  0
   -2.3500   14.6260   -5.0380 S   0  0  1  0  0  0  0  0  0  0  0  0
   -1.0230   15.5970   -4.7020 N   0  0  0  0  0  0  0  0  0  0  0  0
   -1.6560   13.2640   -5.0130 N   0  0  0  0  0  0  0  0  0  0  0  0
   -3.0060   15.2970   -6.1320 O   0  0  0  0  0  0  0  0  0  0  0  0
   -0.8010   12.8030   -6.1350 C   0  0  0  0  0  0  0  0  0  0  0  0
   -0.1440   11.4530   -5.8060 C   0  0  0  0  0  0  0  0  0  0  0  0
   -0.0230   10.5570   -6.9680 N   0  0  0  0  0  0  0  0  0  0  0  0
   -0.7620    9.4970   -7.0890 C   0  0  0  0  0  0  0  0  0  0  0  0
   -0.5690    8.6840   -8.1880 N   0  0  0  0  0  0  0  0  0  0  0  0
   -1.8290    9.0940   -6.0870 C   0  0  0  0  0  0  0  0  0  0  0  0
    0.4880    8.7000   -9.1300 C   0  0  0  0  0  0  0  0  0  0  0  0
    1.6160    7.8990   -8.9170 C   0  0  0  0  0  0  0  0  0  0  0  0
    0.4510    9.4840  -10.2800 C   0  0  0  0  0  0  0  0  0  0  0  0
    2.6770    7.8830   -9.8380 C   0  0  0  0  0  0  0  0  0  0  0  0
    1.5070    9.4680  -11.1960 C   0  0  0  0  0  0  0  0  0  0  0  0
    2.6330    8.6680  -10.9930 C   0  0  0  0  0  0  0  0  0  0  0  0
    3.6570    8.6930  -11.9550 N   0  0  0  0  0  0  0  0  0  0  0  0
    3.9310    9.5630  -13.0260 C   0  0  0  0  0  0  0  0  0  0  0  0
    3.2020   10.7280  -13.2840 C   0  0  0  0  0  0  0  0  0  0  0  0
    4.9940    9.2480  -13.8810 C   0  0  0  0  0  0  0  0  0  0  0  0
    3.5220   11.5540  -14.3630 C   0  0  0  0  0  0  0  0  0  0  0  0
    5.3170   10.0730  -14.9610 C   0  0  0  0  0  0  0  0  0  0  0  0
    4.5810   11.2280  -15.2030 C   0  0  0  0  0  0  0  0  0  0  0  0
  1  2  1  0
  1  3  1  0
  3  4  2  0
  3  5  1  0
  5  6  2  0
  5  7  1  0
  6  8  1  0
  7  9  2  0
  8 10  2  0
  9 10  1  0
 10 11  1  0
 11 12  1  1
 11 13  2  0
 11 14  2  0
 13 15  1  0
 15 16  1  0
 16 17  1  0
 17 18  2  3
 18 19  1  0
 18 20  1  0
 19 21  1  0
 21 22  2  0
 21 23  1  0
 22 24  1  0
 23 25  2  0
 24 26  2  0
 25 26  1  0
 26 27  1  0
 27 28  1  0
 28 29  2  0
 28 30  1  0
 29 31  1  0
 30 32  2  0
 31 33  2  0
 32 33  1  0
M  END
