x0598_0_A_α-x0158_0_B_α
     RDKit          3D

 32 33  0  0  0  0  0  0  0  0999 V2000
   10.3620   23.9110   16.4500 N   0  0  0  0  0  0  0  0  0  0  0  0
    9.9650   25.3290   16.4880 C   0  0  0  0  0  0  0  0  0  0  0  0
    8.5970   25.4680   17.1960 C   0  0  0  0  0  0  0  0  0  0  0  0
   11.4090   23.0420   15.3800 S   0  0  2  0  0  0  0  0  0  0  0  0
   11.3450   21.3190   15.8550 C   0  0  0  0  0  0  0  0  0  0  0  0
   12.7540   23.5720   15.6980 N   0  0  0  0  0  0  0  0  0  0  0  0
   10.9400   23.1130   14.0550 O   0  0  0  0  0  0  0  0  0  0  0  0
   13.7280   23.7940   14.6030 C   0  0  0  0  0  0  0  0  0  0  0  0
    8.0980   24.1240   17.4800 C   0  0  0  0  0  0  0  0  0  0  0  0
    7.4250   26.2490   16.5310 C   0  0  0  0  0  0  0  0  0  0  0  0
   14.5810   22.5700   14.2220 C   0  0  0  0  0  0  0  0  0  0  0  0
    6.8360   24.3460   18.1700 C   0  0  0  0  0  0  0  0  0  0  0  0
    6.1990   25.3800   16.1340 C   0  0  0  0  0  0  0  0  0  0  0  0
   13.7880   21.2480   14.2430 C   0  0  0  0  0  0  0  0  0  0  0  0
    5.7420   24.5560   17.2250 N   0  0  0  0  0  0  0  0  0  0  0  0
   14.0440   20.3510   13.0200 C   0  0  0  0  0  0  0  0  0  0  0  0
   14.7420   19.0150   13.3430 C   0  0  0  0  0  0  0  0  0  0  0  0
   15.6710   18.6020   12.1920 C   0  0  0  0  0  0  0  0  0  0  0  0
   16.5850   17.3900   12.4370 C   0  0  2  0  0  0  0  0  0  0  0  0
   17.8130   17.5010   11.5390 C   0  0  0  0  0  0  0  0  0  0  0  0
   15.8870   16.1280   12.2070 O   0  0  0  0  0  0  0  0  0  0  0  0
   15.8340   15.2680   13.2870 C   0  0  0  0  0  0  0  0  0  0  0  0
   15.8260   15.6570   14.4410 O   0  0  0  0  0  0  0  0  0  0  0  0
   15.7990   13.7780   12.8580 C   0  0  0  0  0  0  0  0  0  0  0  0
   14.4890   13.1050   13.1120 N   0  0  0  0  0  0  0  0  0  0  0  0
   14.3450   11.7920   12.4670 C   0  0  0  0  0  0  0  0  0  0  0  0
   13.3610   13.9580   12.8100 C   0  0  0  0  0  0  0  0  0  0  0  0
   13.3320   10.9000   13.1700 C   0  0  0  0  0  0  0  0  0  0  0  0
   12.0540   13.5090   13.4080 C   0  0  0  0  0  0  0  0  0  0  0  0
   11.7880   11.7330   13.5170 S   0  0  0  0  0  0  0  0  0  0  0  0
   11.4720   11.4240   14.9020 O   0  0  0  0  0  0  0  0  0  0  0  0
   10.8050   11.3640   12.5120 O   0  0  0  0  0  0  0  0  0  0  0  0
  1  2  1  0
  2  3  1  0
  4  1  1  0
  4  5  1  1
  4  6  2  0
  4  7  2  0
  6  8  1  0
  3  9  1  0
  3 10  1  0
  8 11  1  0
  9 12  1  0
 10 13  1  0
 11 14  1  0
 12 15  1  0
 13 15  1  0
 14 16  1  0
 16 17  1  0
 17 18  1  0
 18 19  1  0
 19 20  1  6
 19 21  1  0
 21 22  1  0
 22 23  2  0
 22 24  1  0
 24 25  1  0
 25 26  1  0
 25 27  1  0
 26 28  1  0
 27 29  1  0
 30 28  1  0
 29 30  1  0
 30 31  2  0
 30 32  2  0
M  END
