x0591_0_A_α-x0104_0_A_β
     RDKit          3D

 21 22  0  0  0  0  0  0  0  0999 V2000
   -7.2020   12.6630   -1.0170 N   0  0  0  0  0  0  0  0  0  0  0  0
   -6.7180   13.9970   -1.2310 C   0  0  2  0  0  0  0  0  0  0  0  0
   -7.8450   14.8140   -1.5070 O   0  0  0  0  0  0  0  0  0  0  0  0
   -5.6590   14.0100   -2.3160 C   0  0  0  0  0  0  0  0  0  0  0  0
   -6.0460   14.5460   -0.0350 C   0  0  0  0  0  0  0  0  0  0  0  0
   -4.4400   13.3360   -2.0820 C   0  0  0  0  0  0  0  0  0  0  0  0
   -5.8390   14.6750   -3.5210 C   0  0  0  0  0  0  0  0  0  0  0  0
   -4.8380   15.2370   -0.1920 C   0  0  0  0  0  0  0  0  0  0  0  0
   -6.5510   14.4000    1.2460 C   0  0  0  0  0  0  0  0  0  0  0  0
   -3.4210   13.3430   -3.0330 C   0  0  0  0  0  0  0  0  0  0  0  0
   -4.8240   14.6850   -4.4760 C   0  0  0  0  0  0  0  0  0  0  0  0
   -4.3160   15.4040   -1.4600 O   0  0  0  0  0  0  0  0  0  0  0  0
   -5.8500   14.9330    2.2980 C   0  0  0  0  0  0  0  0  0  0  0  0
   -4.1370   15.7550    0.8150 N   0  0  0  0  0  0  0  0  0  0  0  0
   -3.6310   14.0290   -4.2200 C   0  0  0  0  0  0  0  0  0  0  0  0
   -2.9690   14.9550   -1.5520 C   0  0  0  0  0  0  0  0  0  0  0  0
   -4.6640   15.5900    2.0290 C   0  0  0  0  0  0  0  0  0  0  0  0
   -2.3810   14.0930   -5.4530 S   0  0  0  0  0  0  0  0  0  0  0  0
   -1.3040   15.2250   -4.8130 N   0  0  0  0  0  0  0  0  0  0  0  0
   -1.7180   12.8150   -5.5040 O   0  0  0  0  0  0  0  0  0  0  0  0
   -2.9970   14.7180   -6.5980 O   0  0  0  0  0  0  0  0  0  0  0  0
  2  1  1  1
  2  3  1  0
  2  4  1  0
  2  5  1  0
  4  6  2  0
  4  7  1  0
  5  8  2  0
  5  9  1  0
  6 10  1  0
  7 11  2  0
  8 12  1  0
  9 13  2  0
  8 14  1  0
 10 15  2  0
 11 15  1  0
 12 16  1  0
 13 17  1  0
 14 17  2  0
 15 18  1  0
 18 19  1  0
 18 20  2  0
 18 21  2  0
M  END
