x0592_0_A_α-x0933_0_A_α
     RDKit          3D

 11 11  0  0  0  0  0  0  0  0999 V2000
   -2.7160   14.9070    1.0660 N   0  0  0  0  0  0  0  0  0  0  0  0
   -3.2690   14.9070   -0.1810 C   0  0  0  0  0  0  0  0  0  0  0  0
   -2.5570   14.9130   -1.1800 O   0  0  0  0  0  0  0  0  0  0  0  0
   -4.7100   14.8830   -0.2390 C   0  0  0  0  0  0  0  0  0  0  0  0
   -5.5330   15.1750   -1.3590 C   0  0  0  0  0  0  0  0  0  0  0  0
   -5.6180   14.5790    0.7590 C   0  0  0  0  0  0  0  0  0  0  0  0
   -6.8370   15.0640   -1.0880 N   0  0  0  0  0  0  0  0  0  0  0  0
   -6.8570   14.6990    0.2090 N   0  0  0  0  0  0  0  0  0  0  0  0
   -8.1230   14.4780    0.8920 C   0  0  0  0  0  0  0  0  0  0  0  0
   -7.9060   14.0570    2.3440 C   0  0  0  0  0  0  0  0  0  0  0  0
   -7.2030   15.0550    3.0860 O   0  0  0  0  0  0  0  0  0  0  0  0
  1  2  1  0
  2  3  2  0
  2  4  1  0
  4  5  1  0
  4  6  2  0
  5  7  2  0
  6  8  1  0
  7  8  1  0
  8  9  1  0
  9 10  1  0
 10 11  1  0
M  END
