x0592_0_A-x0926_0_A
     RDKit          3D

 11 11  0  0  0  0  0  0  0  0999 V2000
   -2.7010   14.9350    1.0850 N   0  0  0  0  0  0  0  0  0  0  0  0
   -3.2530   14.9330   -0.1620 C   0  0  0  0  0  0  0  0  0  0  0  0
   -2.5420   14.9370   -1.1580 O   0  0  0  0  0  0  0  0  0  0  0  0
   -4.6950   14.9120   -0.2160 C   0  0  0  0  0  0  0  0  0  0  0  0
   -5.5110   15.2020   -1.3360 C   0  0  0  0  0  0  0  0  0  0  0  0
   -5.5990   14.6180    0.7820 C   0  0  0  0  0  0  0  0  0  0  0  0
   -6.8180   15.0930   -1.0690 N   0  0  0  0  0  0  0  0  0  0  0  0
   -6.8410   14.7420    0.2310 N   0  0  0  0  0  0  0  0  0  0  0  0
   -8.1070   14.5260    0.9100 C   0  0  0  0  0  0  0  0  0  0  0  0
   -7.8930   14.1020    2.3620 C   0  0  0  0  0  0  0  0  0  0  0  0
   -7.1800   15.0890    3.1040 O   0  0  0  0  0  0  0  0  0  0  0  0
  1  2  1  0
  2  3  2  0
  2  4  1  0
  4  5  1  0
  4  6  2  0
  5  7  2  0
  6  8  1  0
  7  8  1  0
  8  9  1  0
  9 10  1  0
 10 11  1  0
M  END
