x0598_0_A-x0905_0_B
     RDKit          3D

 20 21  0  0  0  0  0  0  0  0999 V2000
   10.1240   25.1260   16.3490 N   0  0  0  0  0  0  0  0  0  0  0  0
    8.9120   24.7480   17.1120 C   0  0  0  0  0  0  0  0  0  0  0  0
    7.6950   25.6870   16.7970 C   0  0  0  0  0  0  0  0  0  0  0  0
   11.4410   24.2360   15.6510 S   0  0  2  0  0  0  0  0  0  0  0  0
   11.5440   22.7130   14.7660 C   0  0  0  0  0  0  0  0  0  0  0  0
   10.9930   23.1900   16.6480 N   0  0  0  0  0  0  0  0  0  0  0  0
   11.0310   24.8170   14.3940 O   0  0  0  0  0  0  0  0  0  0  0  0
   11.6840   21.8570   16.6140 C   0  0  0  0  0  0  0  0  0  0  0  0
    6.5570   24.9930   16.0270 C   0  0  0  0  0  0  0  0  0  0  0  0
    7.1800   26.4310   18.0460 C   0  0  0  0  0  0  0  0  0  0  0  0
    5.0920   25.1590   16.4620 C   0  0  0  0  0  0  0  0  0  0  0  0
    5.7410   26.9260   17.8940 C   0  0  0  0  0  0  0  0  0  0  0  0
   12.2360   21.3740   15.2530 C   0  0  0  0  0  0  0  0  0  0  0  0
    4.8060   25.8480   17.7000 N   0  0  0  0  0  0  0  0  0  0  0  0
   11.8770   20.1090   14.7600 C   0  0  0  0  0  0  0  0  0  0  0  0
   13.1170   22.1250   14.4260 C   0  0  0  0  0  0  0  0  0  0  0  0
   12.3000   19.5740   13.5860 N   0  0  0  0  0  0  0  0  0  0  0  0
   13.5640   21.5960   13.2080 C   0  0  0  0  0  0  0  0  0  0  0  0
   13.1240   20.3370   12.8550 C   0  0  0  0  0  0  0  0  0  0  0  0
   13.5250   19.7680   11.6860 O   0  0  0  0  0  0  0  0  0  0  0  0
  1  2  1  0
  2  3  1  0
  4  1  1  0
  4  5  1  6
  4  6  2  0
  4  7  2  0
  6  8  1  0
  3  9  1  0
  3 10  1  0
  9 11  1  0
 10 12  1  0
  8 13  1  0
 11 14  1  0
 12 14  1  0
 13 15  2  0
 13 16  1  0
 15 17  1  0
 16 18  2  0
 17 19  2  0
 18 19  1  0
 19 20  1  0
M  END
