x0592_0_A-x0421_0_A
     RDKit          3D

 21 23  0  0  0  0  0  0  0  0999 V2000
   -3.6550   11.7510   -1.7310 N   0  0  0  0  0  0  0  0  0  0  0  0
   -3.8810   13.0930   -2.3270 C   0  0  2  0  0  0  0  0  0  0  0  0
   -2.6300   14.0690   -2.0710 C   0  0  2  0  0  0  0  0  0  0  0  0
   -5.2580   13.5140   -1.8050 C   0  0  0  0  0  0  0  0  0  0  0  0
   -2.7140   15.2880   -2.8590 N   0  0  0  0  0  0  0  0  0  0  0  0
   -1.4110   13.4170   -2.4210 O   0  0  0  0  0  0  0  0  0  0  0  0
   -6.0320   14.6570   -2.1410 C   0  0  0  0  0  0  0  0  0  0  0  0
   -6.0630   12.8510   -0.8740 C   0  0  0  0  0  0  0  0  0  0  0  0
   -2.6610   14.4240   -0.5940 C   0  0  0  0  0  0  0  0  0  0  0  0
   -7.2040   14.7070   -1.4900 N   0  0  0  0  0  0  0  0  0  0  0  0
   -7.2070   13.6000   -0.7200 N   0  0  0  0  0  0  0  0  0  0  0  0
   -1.7280   14.7470    0.3960 C   0  0  0  0  0  0  0  0  0  0  0  0
   -3.8980   14.4310   -0.0620 N   0  0  0  0  0  0  0  0  0  0  0  0
   -8.3650   13.3430    0.1440 C   0  0  0  0  0  0  0  0  0  0  0  0
   -2.4720   14.9450    1.5470 N   0  0  0  0  0  0  0  0  0  0  0  0
   -3.7840   14.7290    1.1740 C   0  0  0  0  0  0  0  0  0  0  0  0
   -8.0360   12.6980    1.4990 C   0  0  0  0  0  0  0  0  0  0  0  0
   -5.0930   14.7660    1.9550 C   0  0  0  0  0  0  0  0  0  0  0  0
   -8.0420   13.6550    2.5790 O   0  0  0  0  0  0  0  0  0  0  0  0
   -5.8600   13.4840    1.7560 C   0  0  0  0  0  0  0  0  0  0  0  0
   -6.3760   14.7540    1.1800 C   0  0  0  0  0  0  0  0  0  0  0  0
  2  1  1  1
  2  3  1  0
  2  4  1  0
  3  5  1  6
  3  6  1  0
  4  7  1  0
  4  8  2  0
  3  9  1  0
  7 10  2  0
  8 11  1  0
 10 11  1  0
  9 12  2  0
  9 13  1  0
 11 14  1  0
 12 15  1  0
 13 16  2  0
 15 16  1  0
 14 17  1  0
 16 18  1  0
 17 19  1  0
 18 20  1  0
 18 21  1  0
 20 21  1  0
M  END
