x0592_0_A_α-x0711_0_A_α
     RDKit          3D

 22 23  0  0  0  0  0  0  0  0999 V2000
   -2.6830   14.7050    1.8010 N   0  0  0  0  0  0  0  0  0  0  0  0
   -3.0360   15.6590    0.7710 C   0  0  0  0  0  0  0  0  0  0  0  0
   -4.4160   15.4550    0.3780 C   0  0  0  0  0  0  0  0  0  0  0  0
   -5.1870   16.0320   -0.6390 C   0  0  0  0  0  0  0  0  0  0  0  0
   -5.2530   14.5990    0.9520 C   0  0  0  0  0  0  0  0  0  0  0  0
   -6.4190   15.5750   -0.7020 N   0  0  0  0  0  0  0  0  0  0  0  0
   -6.4240   14.6630    0.2950 N   0  0  0  0  0  0  0  0  0  0  0  0
   -7.4070   13.8260    0.5900 C   0  0  0  0  0  0  0  0  0  0  0  0
   -8.5580   14.0910    1.5420 C   0  0  0  0  0  0  0  0  0  0  0  0
   -6.9250   12.8670   -0.1940 C   0  0  0  0  0  0  0  0  0  0  0  0
   -8.0720   14.8410    2.6620 O   0  0  0  0  0  0  0  0  0  0  0  0
   -5.6300   13.3430   -0.8450 C   0  0  0  0  0  0  0  0  0  0  0  0
   -5.5930   14.0240   -2.0870 C   0  0  0  0  0  0  0  0  0  0  0  0
   -4.3890   13.1510   -0.1870 C   0  0  0  0  0  0  0  0  0  0  0  0
   -4.3780   14.4960   -2.6290 C   0  0  0  0  0  0  0  0  0  0  0  0
   -3.1760   13.6240   -0.7340 C   0  0  0  0  0  0  0  0  0  0  0  0
   -3.1580   14.3100   -1.9610 C   0  0  0  0  0  0  0  0  0  0  0  0
   -1.8680   14.8470   -2.5390 C   0  0  0  0  0  0  0  0  0  0  0  0
   -0.6790   13.6880   -3.1860 S   0  0  0  0  0  0  0  0  0  0  0  0
   -1.5900   12.5360   -4.1840 C   0  0  0  0  0  0  0  0  0  0  0  0
    0.1670   14.4540   -4.0910 O   0  0  0  0  0  0  0  0  0  0  0  0
   -0.0660   12.9770   -2.0790 O   0  0  0  0  0  0  0  0  0  0  0  0
  1  2  1  0
  2  3  1  0
  3  4  1  0
  3  5  2  0
  4  6  2  0
  5  7  1  0
  6  7  1  0
  7  8  1  0
  8  9  1  0
  8 10  2  3
  9 11  1  0
 10 12  1  0
 12 13  2  0
 12 14  1  0
 13 15  1  0
 14 16  2  0
 15 17  2  0
 16 17  1  0
 17 18  1  0
 19 18  1  0
 19 20  1  0
 19 21  2  0
 19 22  2  0
M  END
