x0598_0_A-x0334_0_A
     RDKit          3D

 26 28  0  0  0  0  0  0  0  0999 V2000
    9.9400   25.5160   16.3120 N   0  0  0  0  0  0  0  0  0  0  0  0
    8.6630   24.8320   16.0940 C   0  0  0  0  0  0  0  0  0  0  0  0
    7.3950   25.5570   16.5240 C   0  0  2  0  0  0  0  0  0  0  0  0
   11.1920   24.7870   15.4540 S   0  0  0  0  0  0  0  0  0  0  0  0
   10.5270   24.8510   13.8070 C   0  0  0  0  0  0  0  0  0  0  0  0
   12.3160   25.6900   15.5340 O   0  0  0  0  0  0  0  0  0  0  0  0
   11.2810   23.4010   15.8730 O   0  0  0  0  0  0  0  0  0  0  0  0
    6.2220   25.0890   15.6060 C   0  0  0  0  0  0  0  0  0  0  0  0
    7.4780   27.0720   16.8150 C   0  0  1  0  0  0  0  0  0  0  0  0
    5.0790   26.0640   15.4720 C   0  0  0  0  0  0  0  0  0  0  0  0
    6.2820   27.8970   16.2710 C   0  0  1  0  0  0  0  0  0  0  0  0
    7.4280   27.3690   18.3140 C   0  0  0  0  0  0  0  0  0  0  0  0
    5.6510   27.3240   15.1080 N   0  0  0  0  0  0  0  0  0  0  0  0
    5.3340   28.2280   17.4750 C   0  0  2  0  0  0  0  0  0  0  0  0
    5.9310   27.3690   18.6080 C   0  0  0  0  0  0  0  0  0  0  0  0
    3.9000   27.8930   17.3280 N   0  0  0  0  0  0  0  0  0  0  0  0
    3.5530   26.4780   17.5190 C   0  0  0  0  0  0  0  0  0  0  0  0
    2.1530   26.2080   17.0120 C   0  0  0  0  0  0  0  0  0  0  0  0
    1.0940   26.1170   17.9080 C   0  0  0  0  0  0  0  0  0  0  0  0
    1.8850   26.0510   15.6470 C   0  0  0  0  0  0  0  0  0  0  0  0
   -0.2100   25.8770   17.4520 C   0  0  0  0  0  0  0  0  0  0  0  0
    0.5740   25.8120   15.2050 C   0  0  0  0  0  0  0  0  0  0  0  0
   -0.5130   25.7210   16.0920 C   0  0  0  0  0  0  0  0  0  0  0  0
   -1.8230   25.4880   15.6530 N   0  0  0  0  0  0  0  0  0  0  0  0
   -2.8310   26.5110   15.9370 C   0  0  0  0  0  0  0  0  0  0  0  0
   -2.0000   24.8470   14.3600 C   0  0  0  0  0  0  0  0  0  0  0  0
  1  2  1  0
  3  2  1  6
  4  1  1  0
  4  5  1  0
  4  6  2  0
  4  7  2  0
  3  8  1  0
  3  9  1  0
  8 10  1  0
  9 11  1  0
  9 12  1  1
 10 13  1  0
 11 13  1  6
 11 14  1  0
 12 15  1  0
 14 15  1  0
 14 16  1  6
 16 17  1  0
 17 18  1  0
 18 19  2  0
 18 20  1  0
 19 21  1  0
 20 22  2  0
 21 23  2  0
 22 23  1  0
 23 24  1  0
 24 25  1  0
 24 26  1  0
M  END
