x0592_0_A_α-x0766_0_A_α
     RDKit          3D

 23 25  0  0  0  0  0  0  0  0999 V2000
   -2.9230   14.2200    1.3450 N   0  0  0  0  0  0  0  0  0  0  0  0
   -3.4270   15.1440    0.3390 C   0  0  2  0  0  0  0  0  0  0  0  0
   -4.9090   15.0550    0.1360 C   0  0  0  0  0  0  0  0  0  0  0  0
   -2.8550   14.8500   -1.0050 C   0  0  0  0  0  0  0  0  0  0  0  0
   -5.7170   15.4930   -0.9560 C   0  0  0  0  0  0  0  0  0  0  0  0
   -5.8290   14.5130    0.9970 C   0  0  0  0  0  0  0  0  0  0  0  0
   -1.5680   14.8310   -1.4990 C   0  0  0  0  0  0  0  0  0  0  0  0
   -3.9920   14.4690   -2.2050 S   0  0  0  0  0  0  0  0  0  0  0  0
   -7.0170   15.2420   -0.7840 N   0  0  0  0  0  0  0  0  0  0  0  0
   -7.0490   14.6470    0.4220 N   0  0  0  0  0  0  0  0  0  0  0  0
   -2.8060   14.2970   -3.3810 C   0  0  0  0  0  0  0  0  0  0  0  0
   -1.5390   14.5160   -2.9050 C   0  0  0  0  0  0  0  0  0  0  0  0
   -8.3000   14.2200    1.0040 C   0  0  0  0  0  0  0  0  0  0  0  0
   -0.3540   14.4330   -3.8120 C   0  0  2  0  0  0  0  0  0  0  0  0
   -8.1060   13.9920    2.5030 C   0  0  0  0  0  0  0  0  0  0  0  0
    0.3320   13.0800   -4.0190 C   0  0  2  0  0  0  0  0  0  0  0  0
    0.7990   15.2860   -3.3110 C   0  0  0  0  0  0  0  0  0  0  0  0
   -7.3060   15.0170    3.1020 O   0  0  0  0  0  0  0  0  0  0  0  0
    0.5060   12.2140   -2.7930 C   0  0  0  0  0  0  0  0  0  0  0  0
    1.6190   13.4660   -4.7430 C   0  0  0  0  0  0  0  0  0  0  0  0
    1.9920   14.8130   -4.1140 C   0  0  0  0  0  0  0  0  0  0  0  0
    1.2460   12.5410   -1.8810 O   0  0  0  0  0  0  0  0  0  0  0  0
   -0.1950   11.0630   -2.7580 O   0  0  0  0  0  0  0  0  0  0  0  0
  2  1  1  1
  2  3  1  0
  2  4  1  0
  3  5  1  0
  3  6  2  0
  4  7  2  0
  4  8  1  0
  5  9  2  0
  6 10  1  0
  9 10  1  0
  8 11  1  0
  7 12  1  0
 11 12  2  0
 10 13  1  0
 14 12  1  1
 13 15  1  0
 14 16  1  0
 14 17  1  0
 15 18  1  0
 16 19  1  1
 16 20  1  0
 17 21  1  0
 20 21  1  0
 19 22  2  0
 19 23  1  0
M  END
