x0592_0_A-x0900_0_A
     RDKit          3D

 11 11  0  0  0  0  0  0  0  0999 V2000
   -2.7120   14.9170    1.0760 N   0  0  0  0  0  0  0  0  0  0  0  0
   -3.2590   14.9200   -0.1710 C   0  0  0  0  0  0  0  0  0  0  0  0
   -2.5470   14.9320   -1.1650 O   0  0  0  0  0  0  0  0  0  0  0  0
   -4.7050   14.9010   -0.2310 C   0  0  0  0  0  0  0  0  0  0  0  0
   -5.5220   15.2010   -1.3470 C   0  0  0  0  0  0  0  0  0  0  0  0
   -5.6070   14.5920    0.7670 C   0  0  0  0  0  0  0  0  0  0  0  0
   -6.8290   15.0910   -1.0760 N   0  0  0  0  0  0  0  0  0  0  0  0
   -6.8520   14.7190    0.2190 N   0  0  0  0  0  0  0  0  0  0  0  0
   -8.1140   14.4960    0.9000 C   0  0  0  0  0  0  0  0  0  0  0  0
   -7.8960   14.0740    2.3500 C   0  0  0  0  0  0  0  0  0  0  0  0
   -7.1930   15.0680    3.0930 O   0  0  0  0  0  0  0  0  0  0  0  0
  1  2  1  0
  2  3  2  0
  2  4  1  0
  4  5  1  0
  4  6  2  0
  5  7  2  0
  6  8  1  0
  7  8  1  0
  8  9  1  0
  9 10  1  0
 10 11  1  0
M  END
