x0591_0_A-x0864_0_A
     RDKit          3D

 27 28  0  0  0  0  0  0  0  0999 V2000
   -6.2520   14.5990    0.6840 N   0  0  0  0  0  0  0  0  0  0  0  0
   -6.0670   14.4260    2.0140 C   0  0  0  0  0  0  0  0  0  0  0  0
   -6.4760   14.7550   -0.6230 C   0  0  0  0  0  0  0  0  0  0  0  0
   -7.5920   14.8890   -1.1800 O   0  0  0  0  0  0  0  0  0  0  0  0
   -5.3680   14.7860   -1.6280 C   0  0  0  0  0  0  0  0  0  0  0  0
   -4.0300   14.7490   -1.3060 C   0  0  0  0  0  0  0  0  0  0  0  0
   -5.7160   14.8560   -2.9390 C   0  0  0  0  0  0  0  0  0  0  0  0
   -3.0680   14.7950   -2.3020 C   0  0  0  0  0  0  0  0  0  0  0  0
   -4.7680   14.9000   -3.9450 C   0  0  0  0  0  0  0  0  0  0  0  0
   -3.4590   14.8790   -3.6270 C   0  0  0  0  0  0  0  0  0  0  0  0
   -2.3070   14.9760   -4.9490 S   0  0  1  0  0  0  0  0  0  0  0  0
   -1.3510   16.3720   -4.8740 N   0  0  0  0  0  0  0  0  0  0  0  0
   -1.4240   13.7020   -4.9910 N   0  0  0  0  0  0  0  0  0  0  0  0
   -3.1030   15.0150   -6.2230 O   0  0  0  0  0  0  0  0  0  0  0  0
   -0.0290   13.8390   -4.6930 C   0  0  0  0  0  0  0  0  0  0  0  0
    0.6380   12.5150   -4.5490 C   0  0  1  0  0  0  0  0  0  0  0  0
    0.7640   12.1200   -3.1320 C   0  0  0  0  0  0  0  0  0  0  0  0
   -0.0020   11.5070   -5.3200 N   0  0  0  0  0  0  0  0  0  0  0  0
    0.3300   10.8850   -2.7070 O   0  0  0  0  0  0  0  0  0  0  0  0
    1.2670   12.9030   -2.3030 O   0  0  0  0  0  0  0  0  0  0  0  0
   -1.1970   11.0100   -4.9680 C   0  0  0  0  0  0  0  0  0  0  0  0
    0.4470   11.1480   -6.5370 C   0  0  0  0  0  0  0  0  0  0  0  0
    1.4460   11.7230   -7.0220 O   0  0  0  0  0  0  0  0  0  0  0  0
   -1.8750   10.0680   -5.6780 C   0  0  0  0  0  0  0  0  0  0  0  0
   -0.1400   10.1420   -7.2660 C   0  0  0  0  0  0  0  0  0  0  0  0
   -1.3330    9.5780   -6.8270 C   0  0  0  0  0  0  0  0  0  0  0  0
   -2.1940    8.1760   -7.7770 Br  0  0  0  0  0  0  0  0  0  0  0  0
  1  2  1  0
  1  3  1  0
  3  4  2  0
  3  5  1  0
  5  6  2  0
  5  7  1  0
  6  8  1  0
  7  9  2  0
  8 10  2  0
  9 10  1  0
 10 11  1  0
 11 12  1  1
 11 13  2  0
 11 14  2  0
 13 15  1  0
 16 15  1  1
 16 17  1  0
 16 18  1  0
 17 19  1  0
 17 20  2  0
 18 21  1  0
 18 22  1  0
 22 23  2  0
 21 24  2  0
 22 25  1  0
 24 26  1  0
 25 26  2  0
 26 27  1  0
M  END
