x0592_0_A_α-x0689_0_A_α
     RDKit          3D

 16 17  0  0  0  0  0  0  0  0999 V2000
   -3.8200   15.5100   -1.4170 C   0  0  0  0  0  0  0  0  0  0  0  0
   -2.6500   15.0280   -1.2620 N   0  0  0  0  0  0  0  0  0  0  0  0
   -2.3440   14.0080   -0.4730 N   0  0  0  0  0  0  0  0  0  0  0  0
   -5.0950   15.1420   -0.8610 C   0  0  0  0  0  0  0  0  0  0  0  0
   -6.2250   15.1400   -1.6860 C   0  0  0  0  0  0  0  0  0  0  0  0
   -5.5890   14.7620    0.3890 C   0  0  0  0  0  0  0  0  0  0  0  0
   -7.3380   14.8060   -1.0650 N   0  0  0  0  0  0  0  0  0  0  0  0
   -6.9480   14.5830    0.1930 N   0  0  0  0  0  0  0  0  0  0  0  0
   -2.5480   14.3410    0.9480 C   0  0  0  0  0  0  0  0  0  0  0  0
   -1.0940   13.5100   -0.7880 C   0  0  0  0  0  0  0  0  0  0  0  0
   -8.0070   14.2040    1.1160 C   0  0  0  0  0  0  0  0  0  0  0  0
   -0.0180   13.9350   -0.1390 C   0  0  0  0  0  0  0  0  0  0  0  0
   -1.3560   14.5560    1.7620 N   0  0  0  0  0  0  0  0  0  0  0  0
   -7.5280   13.9000    2.5160 C   0  0  0  0  0  0  0  0  0  0  0  0
   -0.2210   14.9220    0.9440 C   0  0  0  0  0  0  0  0  0  0  0  0
   -6.9760   15.0590    3.1230 O   0  0  0  0  0  0  0  0  0  0  0  0
  1  2  2  3
  2  3  1  0
  1  4  1  0
  4  5  1  0
  4  6  2  0
  5  7  2  0
  6  8  1  0
  7  8  1  0
  3  9  1  0
  3 10  1  0
  8 11  1  0
 10 12  2  0
  9 13  1  0
 11 14  1  0
 12 15  1  0
 13 15  1  0
 14 16  1  0
M  END
