x0592_0_A_α-x0864_0_A_α
     RDKit          3D

 26 27  0  0  0  0  0  0  0  0999 V2000
   -2.9930   14.7540    1.6320 N   0  0  0  0  0  0  0  0  0  0  0  0
   -3.2410   14.8420    0.2870 C   0  0  0  0  0  0  0  0  0  0  0  0
   -2.2130   14.8980   -0.4660 N   0  0  0  0  0  0  0  0  0  0  0  0
   -4.6540   14.8580   -0.0400 C   0  0  0  0  0  0  0  0  0  0  0  0
   -0.8720   14.8910    0.1370 C   0  0  0  0  0  0  0  0  0  0  0  0
   -5.3730   15.1300   -1.2370 C   0  0  0  0  0  0  0  0  0  0  0  0
   -5.6560   14.5820    0.8620 C   0  0  0  0  0  0  0  0  0  0  0  0
   -0.1420   13.6560   -0.3090 C   0  0  0  0  0  0  0  0  0  0  0  0
   -6.7070   15.0300   -1.0840 N   0  0  0  0  0  0  0  0  0  0  0  0
   -6.8380   14.6960    0.2130 N   0  0  0  0  0  0  0  0  0  0  0  0
   -8.1370   14.4900    0.8160 C   0  0  0  0  0  0  0  0  0  0  0  0
    0.6930   13.8980   -1.5600 C   0  0  0  0  0  0  0  0  0  0  0  0
   -7.9930   14.0720    2.2790 C   0  0  0  0  0  0  0  0  0  0  0  0
    1.0160   12.5550   -1.9740 N   0  0  0  0  0  0  0  0  0  0  0  0
   -7.2250   15.0320    3.0110 O   0  0  0  0  0  0  0  0  0  0  0  0
    0.8460   12.1220   -3.1580 C   0  0  0  0  0  0  0  0  0  0  0  0
    0.2970   12.9170   -4.3330 C   0  0  0  0  0  0  0  0  0  0  0  0
    1.1590   10.8600   -3.4040 O   0  0  0  0  0  0  0  0  0  0  0  0
   -0.3870   12.0050   -5.2560 N   0  0  0  0  0  0  0  0  0  0  0  0
   -1.3900   11.1860   -4.7670 C   0  0  0  0  0  0  0  0  0  0  0  0
    0.2810   11.6770   -6.4300 C   0  0  0  0  0  0  0  0  0  0  0  0
    1.4060   12.0900   -6.6930 O   0  0  0  0  0  0  0  0  0  0  0  0
   -1.9350   10.2320   -5.5380 C   0  0  0  0  0  0  0  0  0  0  0  0
   -0.4230   10.7520   -7.3560 C   0  0  0  0  0  0  0  0  0  0  0  0
   -1.4770   10.0540   -6.8980 C   0  0  0  0  0  0  0  0  0  0  0  0
   -2.3870    8.8180   -7.9590 Br  0  0  0  0  0  0  0  0  0  0  0  0
  1  2  1  0
  2  3  2  3
  2  4  1  0
  3  5  1  0
  4  6  1  0
  4  7  2  0
  5  8  1  0
  6  9  2  0
  7 10  1  0
  9 10  1  0
 10 11  1  0
  8 12  1  0
 11 13  1  0
 12 14  1  0
 13 15  1  0
 14 16  2  3
 16 17  1  0
 16 18  1  0
 17 19  1  0
 19 20  1  0
 19 21  1  0
 21 22  2  0
 20 23  2  0
 21 24  1  0
 23 25  1  0
 24 25  2  0
 25 26  1  0
M  END
