x0592_0_A_α-x0805_0_A_β
     RDKit          3D

 22 23  0  0  0  0  0  0  0  0999 V2000
   -3.0510   14.8710    1.6190 N   0  0  0  0  0  0  0  0  0  0  0  0
   -3.2440   14.6980    0.2840 C   0  0  0  0  0  0  0  0  0  0  0  0
   -2.2200   14.4740   -0.4390 N   0  0  0  0  0  0  0  0  0  0  0  0
   -4.6500   14.7970   -0.0450 C   0  0  0  0  0  0  0  0  0  0  0  0
   -0.9110   14.4140    0.2290 C   0  0  0  0  0  0  0  0  0  0  0  0
   -5.3480   15.1510   -1.2250 C   0  0  0  0  0  0  0  0  0  0  0  0
   -5.6540   14.5250    0.8590 C   0  0  0  0  0  0  0  0  0  0  0  0
    0.2000   13.9840   -0.7210 C   0  0  0  0  0  0  0  0  0  0  0  0
   -6.6820   15.1020   -1.0700 N   0  0  0  0  0  0  0  0  0  0  0  0
   -6.8320   14.7170    0.2160 N   0  0  0  0  0  0  0  0  0  0  0  0
   -8.1510   14.5450    0.8000 C   0  0  0  0  0  0  0  0  0  0  0  0
    0.1190   12.5870   -1.1340 N   0  0  0  0  0  0  0  0  0  0  0  0
   -8.0510   14.0650    2.2500 C   0  0  0  0  0  0  0  0  0  0  0  0
    0.3540   12.2770   -2.3280 C   0  0  0  0  0  0  0  0  0  0  0  0
   -7.3370   14.9840    3.0770 O   0  0  0  0  0  0  0  0  0  0  0  0
    0.2620   10.9650   -2.6500 O   0  0  0  0  0  0  0  0  0  0  0  0
    0.7290   13.1700   -3.4550 C   0  0  2  0  0  0  0  0  0  0  0  0
   -0.4250   13.9280   -4.0710 C   0  0  0  0  0  0  0  0  0  0  0  0
    1.7610   12.8820   -4.4760 C   0  0  0  0  0  0  0  0  0  0  0  0
    2.3480   14.1410   -4.7660 O   0  0  0  0  0  0  0  0  0  0  0  0
    0.0900   15.3220   -4.3690 C   0  0  0  0  0  0  0  0  0  0  0  0
    1.6200   15.3600   -4.4490 C   0  0  0  0  0  0  0  0  0  0  0  0
  1  2  1  0
  2  3  2  3
  2  4  1  0
  3  5  1  0
  4  6  1  0
  4  7  2  0
  5  8  1  0
  6  9  2  0
  7 10  1  0
  9 10  1  0
 10 11  1  0
  8 12  1  0
 11 13  1  0
 12 14  2  3
 13 15  1  0
 14 16  1  0
 17 14  1  6
 17 18  1  0
 17 19  1  0
 19 20  1  0
 18 21  1  0
 20 22  1  0
 21 22  1  0
M  END
