x0591_0_A-x0849_0_A
     RDKit          3D

 25 27  0  0  0  0  0  0  0  0999 V2000
   -6.3920   14.2110    0.4490 N   0  0  0  0  0  0  0  0  0  0  0  0
   -7.0350   14.4470    1.7260 C   0  0  0  0  0  0  0  0  0  0  0  0
   -6.9410   14.6250   -0.7580 C   0  0  0  0  0  0  0  0  0  0  0  0
   -8.1070   14.9480   -0.8970 O   0  0  0  0  0  0  0  0  0  0  0  0
   -5.9950   14.6560   -1.9120 C   0  0  0  0  0  0  0  0  0  0  0  0
   -4.6980   14.9010   -1.6610 C   0  0  0  0  0  0  0  0  0  0  0  0
   -6.3630   14.4470   -3.2500 C   0  0  0  0  0  0  0  0  0  0  0  0
   -3.7700   14.9410   -2.6690 C   0  0  0  0  0  0  0  0  0  0  0  0
   -5.3920   14.4800   -4.2880 C   0  0  0  0  0  0  0  0  0  0  0  0
   -2.6080   15.2090   -2.1980 O   0  0  0  0  0  0  0  0  0  0  0  0
   -4.0520   14.7300   -3.9820 C   0  0  0  0  0  0  0  0  0  0  0  0
   -2.7700   14.7720   -5.2210 S   0  0  0  0  0  0  0  0  0  0  0  0
   -2.9090   15.2260   -0.8660 C   0  0  0  0  0  0  0  0  0  0  0  0
   -1.5650   15.7840   -4.6130 N   0  0  0  0  0  0  0  0  0  0  0  0
   -2.1770   13.4530   -5.2770 O   0  0  0  0  0  0  0  0  0  0  0  0
   -3.2960   15.4200   -6.3940 O   0  0  0  0  0  0  0  0  0  0  0  0
   -1.9300   14.7880   -0.0730 C   0  0  0  0  0  0  0  0  0  0  0  0
   -4.1280   15.6600   -0.3410 C   0  0  0  0  0  0  0  0  0  0  0  0
   -2.1500   14.7660    1.2870 C   0  0  0  0  0  0  0  0  0  0  0  0
   -4.2470   15.5960    1.0250 C   0  0  0  0  0  0  0  0  0  0  0  0
   -0.7340   14.3760   -0.6170 C   0  0  0  0  0  0  0  0  0  0  0  0
   -3.2810   15.1590    1.8250 N   0  0  0  0  0  0  0  0  0  0  0  0
   -1.2290   14.3490    2.0810 N   0  0  0  0  0  0  0  0  0  0  0  0
    0.2220   13.9430    0.2180 C   0  0  0  0  0  0  0  0  0  0  0  0
   -0.0810   13.9480    1.5670 C   0  0  0  0  0  0  0  0  0  0  0  0
  1  2  1  0
  1  3  1  0
  3  4  2  0
  3  5  1  0
  5  6  2  0
  5  7  1  0
  6  8  1  0
  7  9  2  0
  8 10  1  0
  8 11  2  0
  9 11  1  0
 11 12  1  0
 10 13  1  0
 12 14  1  0
 12 15  2  0
 12 16  2  0
 13 17  1  0
 13 18  2  0
 17 19  2  0
 18 20  1  0
 17 21  1  0
 19 22  1  0
 20 22  2  0
 19 23  1  0
 21 24  2  0
 23 25  2  0
 24 25  1  0
M  END
