x0591_0_A_α-x0628_0_A_α
     RDKit          3D

 25 26  0  0  0  0  0  0  0  0999 V2000
   -5.8510   14.6200    0.9090 N   0  0  0  0  0  0  0  0  0  0  0  0
   -6.7740   14.5280    2.0160 C   0  0  0  0  0  0  0  0  0  0  0  0
   -6.3470   14.8390   -0.3560 C   0  0  0  0  0  0  0  0  0  0  0  0
   -7.5310   15.0450   -0.5760 O   0  0  0  0  0  0  0  0  0  0  0  0
   -5.3880   14.8060   -1.4890 C   0  0  0  0  0  0  0  0  0  0  0  0
   -4.0120   14.7510   -1.2330 C   0  0  0  0  0  0  0  0  0  0  0  0
   -5.8380   14.8260   -2.8110 C   0  0  0  0  0  0  0  0  0  0  0  0
   -3.1030   14.7110   -2.2890 C   0  0  0  0  0  0  0  0  0  0  0  0
   -4.9340   14.7810   -3.8650 C   0  0  0  0  0  0  0  0  0  0  0  0
   -3.5770   14.7220   -3.6040 C   0  0  0  0  0  0  0  0  0  0  0  0
   -2.4340   14.6490   -4.9370 S   0  0  1  0  0  0  0  0  0  0  0  0
   -1.3240   15.9100   -4.7890 N   0  0  0  0  0  0  0  0  0  0  0  0
   -1.5260   13.4810   -4.5850 N   0  0  0  0  0  0  0  0  0  0  0  0
   -3.0890   15.0030   -6.1710 O   0  0  0  0  0  0  0  0  0  0  0  0
   -1.2070   12.3810   -5.4700 C   0  0  0  0  0  0  0  0  0  0  0  0
   -2.0170   11.4620   -5.9590 N   0  0  0  0  0  0  0  0  0  0  0  0
    0.0430   12.1670   -5.9090 N   0  0  0  0  0  0  0  0  0  0  0  0
    1.2110   12.9570   -5.5790 C   0  0  0  0  0  0  0  0  0  0  0  0
   -1.1730   10.6940   -6.7210 C   0  0  0  0  0  0  0  0  0  0  0  0
    0.1090   11.1010   -6.7250 N   0  0  0  0  0  0  0  0  0  0  0  0
   -1.6330    9.5120   -7.4810 C   0  0  0  0  0  0  0  0  0  0  0  0
    2.0190   12.4490   -4.3780 C   0  0  0  0  0  0  0  0  0  0  0  0
    1.1970   12.0940   -3.1530 C   0  0  0  0  0  0  0  0  0  0  0  0
    0.7060   10.9920   -2.9710 O   0  0  0  0  0  0  0  0  0  0  0  0
    1.0470   13.0830   -2.2490 O   0  0  0  0  0  0  0  0  0  0  0  0
  1  2  1  0
  1  3  1  0
  3  4  2  0
  3  5  1  0
  5  6  2  0
  5  7  1  0
  6  8  1  0
  7  9  2  0
  8 10  2  0
  9 10  1  0
 10 11  1  0
 11 12  1  1
 11 13  2  0
 11 14  2  0
 13 15  1  0
 15 16  2  0
 15 17  1  0
 17 18  1  0
 16 19  1  0
 17 20  1  0
 19 20  2  0
 19 21  1  0
 18 22  1  0
 22 23  1  0
 23 24  2  0
 23 25  1  0
M  END
