x0591_0_A-x0727_0_A
     RDKit          3D

 28 29  0  0  0  0  0  0  0  0999 V2000
   -5.8380   14.5750    0.9280 N   0  0  0  0  0  0  0  0  0  0  0  0
   -6.7660   14.5150    2.0270 C   0  0  0  0  0  0  0  0  0  0  0  0
   -6.3230   14.7340   -0.3460 C   0  0  0  0  0  0  0  0  0  0  0  0
   -7.5170   14.8500   -0.5960 O   0  0  0  0  0  0  0  0  0  0  0  0
   -5.3360   14.7580   -1.4510 C   0  0  0  0  0  0  0  0  0  0  0  0
   -3.9500   14.7110   -1.2480 C   0  0  0  0  0  0  0  0  0  0  0  0
   -5.8420   14.8310   -2.7450 C   0  0  0  0  0  0  0  0  0  0  0  0
   -3.0850   14.7440   -2.3480 C   0  0  0  0  0  0  0  0  0  0  0  0
   -4.9840   14.8570   -3.8340 C   0  0  0  0  0  0  0  0  0  0  0  0
   -3.6210   14.8220   -3.6370 C   0  0  0  0  0  0  0  0  0  0  0  0
   -2.6030   14.8820   -5.0680 S   0  0  1  0  0  0  0  0  0  0  0  0
   -1.5410   16.1700   -4.9530 N   0  0  0  0  0  0  0  0  0  0  0  0
   -1.6100   13.7560   -4.9300 N   0  0  0  0  0  0  0  0  0  0  0  0
   -3.3800   15.2320   -6.2260 O   0  0  0  0  0  0  0  0  0  0  0  0
   -0.4460   14.1110   -4.1020 C   0  0  0  0  0  0  0  0  0  0  0  0
    0.7860   13.7180   -4.8710 C   0  0  0  0  0  0  0  0  0  0  0  0
    1.0300   12.2250   -4.7050 C   0  0  2  0  0  0  0  0  0  0  0  0
    0.2010   11.4510   -5.6490 N   0  0  0  0  0  0  0  0  0  0  0  0
    0.8280   11.8310   -3.2230 C   0  0  0  0  0  0  0  0  0  0  0  0
    0.1570   10.8660   -2.8740 O   0  0  0  0  0  0  0  0  0  0  0  0
    0.7170   11.0880   -6.8560 C   0  0  0  0  0  0  0  0  0  0  0  0
    1.4390   12.6290   -2.3170 O   0  0  0  0  0  0  0  0  0  0  0  0
    1.6540   11.7120   -7.2670 O   0  0  0  0  0  0  0  0  0  0  0  0
    0.1060    9.8930   -7.5690 C   0  0  0  0  0  0  0  0  0  0  0  0
   -1.1760   10.2330   -8.3400 C   0  0  0  0  0  0  0  0  0  0  0  0
   -0.2600    8.7790   -6.5770 C   0  0  0  0  0  0  0  0  0  0  0  0
   -2.3030    9.5010   -7.6200 C   0  0  0  0  0  0  0  0  0  0  0  0
   -1.6400    8.2970   -6.9710 C   0  0  0  0  0  0  0  0  0  0  0  0
  1  2  1  0
  1  3  1  0
  3  4  2  0
  3  5  1  0
  5  6  2  0
  5  7  1  0
  6  8  1  0
  7  9  2  0
  8 10  2  0
  9 10  1  0
 10 11  1  0
 11 12  1  1
 11 13  2  0
 11 14  2  0
 13 15  1  0
 15 16  1  0
 17 16  1  1
 17 18  1  0
 17 19  1  0
 19 20  2  0
 18 21  1  0
 19 22  1  0
 21 23  2  0
 21 24  1  0
 24 25  1  0
 24 26  1  0
 25 27  1  0
 26 28  1  0
 27 28  1  0
M  END
