x0591_0_A-x0900_0_A
     RDKit          3D

 19 20  0  0  0  0  0  0  0  0999 V2000
   -7.9770   14.1570   -0.7500 N   0  0  0  0  0  0  0  0  0  0  0  0
   -8.7240   14.4000    0.4740 C   0  0  0  0  0  0  0  0  0  0  0  0
   -6.6230   14.1870   -0.6440 C   0  0  0  0  0  0  0  0  0  0  0  0
   -6.0630   14.2250    0.4710 N   0  0  0  0  0  0  0  0  0  0  0  0
   -5.6430   14.1950   -1.8010 C   0  0  0  0  0  0  0  0  0  0  0  0
   -4.3420   13.6670   -1.6200 C   0  0  0  0  0  0  0  0  0  0  0  0
   -5.9850   14.7220   -3.0470 C   0  0  0  0  0  0  0  0  0  0  0  0
   -4.6550   14.2690    0.4280 C   0  0  1  0  0  0  0  0  0  0  0  0
   -3.4050   13.6830   -2.6530 C   0  0  0  0  0  0  0  0  0  0  0  0
   -5.0460   14.7280   -4.0850 C   0  0  0  0  0  0  0  0  0  0  0  0
   -4.3130   15.1960   -0.6440 N   0  0  0  0  0  0  0  0  0  0  0  0
   -4.0570   14.8990    1.6490 C   0  0  0  0  0  0  0  0  0  0  0  0
   -3.7640   14.2210   -3.8870 C   0  0  0  0  0  0  0  0  0  0  0  0
   -3.0040   15.8250    1.0880 C   0  0  0  0  0  0  0  0  0  0  0  0
   -2.9410   15.5310   -0.3800 C   0  0  0  0  0  0  0  0  0  0  0  0
   -2.5920   14.2680   -5.2210 S   0  0  0  0  0  0  0  0  0  0  0  0
   -1.3620   15.2430   -4.5980 N   0  0  0  0  0  0  0  0  0  0  0  0
   -2.0070   12.9560   -5.3680 O   0  0  0  0  0  0  0  0  0  0  0  0
   -3.2020   14.9810   -6.3160 O   0  0  0  0  0  0  0  0  0  0  0  0
  1  2  1  0
  1  3  1  0
  3  4  2  3
  3  5  1  0
  5  6  2  0
  5  7  1  0
  8  4  1  1
  6  9  1  0
  7 10  2  0
  8 11  1  0
  8 12  1  0
  9 13  2  0
 10 13  1  0
 12 14  1  0
 11 15  1  0
 14 15  1  0
 13 16  1  0
 16 17  1  0
 16 18  2  0
 16 19  2  0
M  END
