x0592_0_A-x0895_1_A
     RDKit          3D

 16 17  0  0  0  0  0  0  0  0999 V2000
   -3.9510   12.9240   -1.0960 C   0  0  0  0  0  0  0  0  0  0  0  0
   -2.7320   13.3240   -1.0080 N   0  0  0  0  0  0  0  0  0  0  0  0
   -2.3220   14.5980   -0.4910 C   0  0  1  0  0  0  0  0  0  0  0  0
   -5.1920   13.5800   -0.7350 C   0  0  0  0  0  0  0  0  0  0  0  0
   -5.8440   14.6030   -1.4770 C   0  0  0  0  0  0  0  0  0  0  0  0
   -6.0260   13.3980    0.3550 C   0  0  0  0  0  0  0  0  0  0  0  0
   -6.9790   15.0180   -0.9060 N   0  0  0  0  0  0  0  0  0  0  0  0
   -7.0710   14.2730    0.2090 N   0  0  0  0  0  0  0  0  0  0  0  0
   -3.4770   15.4260   -0.4990 N   0  0  0  0  0  0  0  0  0  0  0  0
   -1.9710   14.6170    1.0090 C   0  0  0  0  0  0  0  0  0  0  0  0
   -8.1940   14.4370    1.1140 C   0  0  0  0  0  0  0  0  0  0  0  0
   -3.2480   14.8530    1.6350 N   0  0  0  0  0  0  0  0  0  0  0  0
   -4.1490   15.2730    0.6820 C   0  0  0  0  0  0  0  0  0  0  0  0
   -7.8450   14.0120    2.5350 C   0  0  0  0  0  0  0  0  0  0  0  0
   -5.3300   15.4590    0.8600 O   0  0  0  0  0  0  0  0  0  0  0  0
   -7.1650   15.0440    3.2420 O   0  0  0  0  0  0  0  0  0  0  0  0
  1  2  2  3
  3  2  1  1
  1  4  1  0
  4  5  1  0
  4  6  2  0
  5  7  2  0
  6  8  1  0
  7  8  1  0
  3  9  1  0
  3 10  1  0
  8 11  1  0
 10 12  1  0
  9 13  1  0
 12 13  1  0
 11 14  1  0
 13 15  2  0
 14 16  1  0
M  END
