x0598_0_A-x0516_0_A
     RDKit          3D

 26 28  0  0  0  0  0  0  0  0999 V2000
    8.6500   26.7690   15.4140 N   0  0  0  0  0  0  0  0  0  0  0  0
    7.5790   26.9750   16.4630 C   0  0  1  0  0  0  0  0  0  0  0  0
    6.1670   27.0850   15.7730 C   0  0  1  0  0  0  0  0  0  0  0  0
    9.6400   25.4100   15.1870 S   0  0  0  0  0  0  0  0  0  0  0  0
    9.3640   24.3010   16.5600 C   0  0  0  0  0  0  0  0  0  0  0  0
   11.0190   25.8120   15.2390 O   0  0  0  0  0  0  0  0  0  0  0  0
    9.1320   24.8420   13.9620 O   0  0  0  0  0  0  0  0  0  0  0  0
    7.6360   25.8710   17.4940 C   0  0  0  0  0  0  0  0  0  0  0  0
    5.7720   25.8370   15.1820 O   0  0  0  0  0  0  0  0  0  0  0  0
    5.0450   27.6390   16.6940 C   0  0  0  0  0  0  0  0  0  0  0  0
    7.1690   26.2010   18.9130 C   0  0  0  0  0  0  0  0  0  0  0  0
    6.8660   24.7110   16.9700 C   0  0  0  0  0  0  0  0  0  0  0  0
    3.8260   26.8220   16.7820 N   0  0  0  0  0  0  0  0  0  0  0  0
    5.8260   25.5430   19.3000 C   0  0  0  0  0  0  0  0  0  0  0  0
    5.3520   24.9310   16.9640 C   0  0  0  0  0  0  0  0  0  0  0  0
    3.2990   26.3360   15.5050 C   0  0  0  0  0  0  0  0  0  0  0  0
    4.8240   25.3550   18.2560 N   0  0  0  0  0  0  0  0  0  0  0  0
    1.8000   26.2790   15.6230 C   0  0  0  0  0  0  0  0  0  0  0  0
    1.0440   25.4560   14.7780 C   0  0  0  0  0  0  0  0  0  0  0  0
    1.1400   27.0600   16.6020 C   0  0  0  0  0  0  0  0  0  0  0  0
   -0.3200   25.4430   14.9380 C   0  0  0  0  0  0  0  0  0  0  0  0
   -0.2490   27.0240   16.7410 C   0  0  0  0  0  0  0  0  0  0  0  0
   -0.9480   26.2030   15.8920 C   0  0  0  0  0  0  0  0  0  0  0  0
   -1.2060   24.7150   14.2180 O   0  0  0  0  0  0  0  0  0  0  0  0
   -2.2960   26.0290   15.8700 O   0  0  0  0  0  0  0  0  0  0  0  0
   -2.4120   25.4120   14.5730 C   0  0  0  0  0  0  0  0  0  0  0  0
  2  1  1  6
  2  3  1  0
  4  1  1  0
  4  5  1  0
  4  6  2  0
  4  7  2  0
  2  8  1  0
  3  9  1  1
  3 10  1  0
  8 11  1  0
  8 12  1  0
 10 13  1  0
 11 14  1  0
 12 15  1  0
 13 16  1  0
 14 17  1  0
 15 17  1  0
 16 18  1  0
 18 19  2  0
 18 20  1  0
 19 21  1  0
 20 22  2  0
 21 23  2  0
 22 23  1  0
 21 24  1  0
 23 25  1  0
 24 26  1  0
 25 26  1  0
M  END
