x0598_0_A_α-x0228_1_A_β
     RDKit          3D

 24 25  0  0  0  0  0  0  0  0999 V2000
    8.3360   24.9530   15.1960 N   0  0  0  0  0  0  0  0  0  0  0  0
    8.5090   25.0080   16.6540 C   0  0  0  0  0  0  0  0  0  0  0  0
    7.4830   25.8950   17.3750 C   0  0  2  0  0  0  0  0  0  0  0  0
    9.7820   25.0400   14.3590 S   0  0  0  0  0  0  0  0  0  0  0  0
    9.3230   24.4450   12.7930 C   0  0  0  0  0  0  0  0  0  0  0  0
   10.7570   24.1390   14.9250 O   0  0  0  0  0  0  0  0  0  0  0  0
   10.0180   26.4270   14.1110 O   0  0  0  0  0  0  0  0  0  0  0  0
    6.7510   25.1360   18.4410 C   0  0  0  0  0  0  0  0  0  0  0  0
    6.4450   26.5860   16.4970 C   0  0  0  0  0  0  0  0  0  0  0  0
    5.2230   25.2960   18.3980 C   0  0  0  0  0  0  0  0  0  0  0  0
    5.2430   25.7310   16.0380 C   0  0  1  0  0  0  0  0  0  0  0  0
    4.6810   24.9010   17.1110 N   0  0  0  0  0  0  0  0  0  0  0  0
    4.2290   26.7290   15.4690 C   0  0  0  0  0  0  0  0  0  0  0  0
    2.8900   26.1700   15.0300 C   0  0  0  0  0  0  0  0  0  0  0  0
    1.8740   26.3700   16.0220 N   0  0  0  0  0  0  0  0  0  0  0  0
    1.0770   27.4910   15.8110 C   0  0  0  0  0  0  0  0  0  0  0  0
    1.4870   28.7680   16.2000 C   0  0  0  0  0  0  0  0  0  0  0  0
   -0.1660   27.3130   15.1850 C   0  0  0  0  0  0  0  0  0  0  0  0
   -0.4510   26.0050   14.8520 O   0  0  0  0  0  0  0  0  0  0  0  0
    0.6760   29.8800   15.9760 C   0  0  0  0  0  0  0  0  0  0  0  0
   -0.9840   28.4190   14.9550 C   0  0  0  0  0  0  0  0  0  0  0  0
   -1.7630   25.7300   14.3760 C   0  0  0  0  0  0  0  0  0  0  0  0
    1.1400   31.2390   16.4060 C   0  0  0  0  0  0  0  0  0  0  0  0
   -0.5630   29.6940   15.3510 C   0  0  0  0  0  0  0  0  0  0  0  0
  1  2  1  0
  3  2  1  6
  4  1  1  0
  4  5  1  0
  4  6  2  0
  4  7  2  0
  3  8  1  0
  3  9  1  0
  8 10  1  0
  9 11  1  0
 10 12  1  0
 11 12  1  0
 11 13  1  1
 13 14  1  0
 14 15  1  0
 15 16  1  0
 16 17  2  0
 16 18  1  0
 18 19  1  0
 17 20  1  0
 18 21  2  0
 19 22  1  0
 20 23  1  0
 20 24  2  0
 21 24  1  0
M  END
