x0598_0_A-x0918_4_B
     RDKit          3D

 21 22  0  0  0  0  0  0  0  0999 V2000
    9.8120   24.3610   16.8210 N   0  0  0  0  0  0  0  0  0  0  0  0
    9.2850   25.7340   16.6880 C   0  0  0  0  0  0  0  0  0  0  0  0
    7.8710   25.8010   17.3060 C   0  0  0  0  0  0  0  0  0  0  0  0
   11.1290   23.6050   16.0230 S   0  0  2  0  0  0  0  0  0  0  0  0
   11.2130   21.9770   16.7350 C   0  0  0  0  0  0  0  0  0  0  0  0
   12.2770   24.4810   16.4320 N   0  0  0  0  0  0  0  0  0  0  0  0
   10.8690   23.4400   14.6320 O   0  0  0  0  0  0  0  0  0  0  0  0
   13.0950   25.0010   15.2850 C   0  0  0  0  0  0  0  0  0  0  0  0
    7.1470   24.5990   16.8390 C   0  0  0  0  0  0  0  0  0  0  0  0
    6.9020   26.9450   16.9750 C   0  0  0  0  0  0  0  0  0  0  0  0
   12.7180   24.3190   13.9340 C   0  0  0  0  0  0  0  0  0  0  0  0
    6.0600   24.9290   15.8440 C   0  0  0  0  0  0  0  0  0  0  0  0
    5.4390   26.5610   17.3460 C   0  0  0  0  0  0  0  0  0  0  0  0
   13.7130   23.2870   13.6030 N   0  0  0  0  0  0  0  0  0  0  0  0
    4.9250   25.4180   16.5920 N   0  0  0  0  0  0  0  0  0  0  0  0
   13.3460   21.9560   13.3870 C   0  0  0  0  0  0  0  0  0  0  0  0
   12.2340   21.3480   13.9570 C   0  0  0  0  0  0  0  0  0  0  0  0
   14.1380   21.1750   12.5520 C   0  0  0  0  0  0  0  0  0  0  0  0
   11.9700   20.0160   13.6810 C   0  0  0  0  0  0  0  0  0  0  0  0
   13.8000   19.8500   12.3300 C   0  0  0  0  0  0  0  0  0  0  0  0
   12.7290   19.2480   12.8820 N   0  0  0  0  0  0  0  0  0  0  0  0
  1  2  1  0
  2  3  1  0
  4  1  1  0
  4  5  1  1
  4  6  2  0
  4  7  2  0
  6  8  1  0
  3  9  1  0
  3 10  1  0
  8 11  1  0
  9 12  1  0
 10 13  1  0
 11 14  1  0
 12 15  1  0
 13 15  1  0
 14 16  1  0
 16 17  2  0
 16 18  1  0
 17 19  1  0
 18 20  2  0
 19 21  2  0
 20 21  1  0
M  END
