x0591_0_A-x0900_1_A
     RDKit          3D

 22 23  0  0  0  0  0  0  0  0999 V2000
   -5.7970   14.6130    0.9060 N   0  0  0  0  0  0  0  0  0  0  0  0
   -6.7600   14.4970    1.9720 C   0  0  0  0  0  0  0  0  0  0  0  0
   -6.2350   14.7930   -0.3860 C   0  0  0  0  0  0  0  0  0  0  0  0
   -7.4110   14.9970   -0.6620 O   0  0  0  0  0  0  0  0  0  0  0  0
   -5.2210   14.7170   -1.4790 C   0  0  0  0  0  0  0  0  0  0  0  0
   -3.8580   14.4710   -1.2560 C   0  0  0  0  0  0  0  0  0  0  0  0
   -5.6800   14.8990   -2.7860 C   0  0  0  0  0  0  0  0  0  0  0  0
   -2.9660   14.4120   -2.3400 C   0  0  0  0  0  0  0  0  0  0  0  0
   -4.7960   14.8350   -3.8610 C   0  0  0  0  0  0  0  0  0  0  0  0
   -3.4500   14.5960   -3.6380 C   0  0  0  0  0  0  0  0  0  0  0  0
   -2.3880   14.5400   -5.0510 S   0  0  1  0  0  0  0  0  0  0  0  0
   -1.0060   15.4300   -4.7400 N   0  0  0  0  0  0  0  0  0  0  0  0
   -1.7720   13.1450   -5.1690 N   0  0  0  0  0  0  0  0  0  0  0  0
   -3.0120   15.2940   -6.1090 O   0  0  0  0  0  0  0  0  0  0  0  0
   -2.1790   12.2930   -6.3080 C   0  0  0  0  0  0  0  0  0  0  0  0
   -1.1650   11.1670   -6.5460 C   0  0  0  0  0  0  0  0  0  0  0  0
   -1.7020    9.9470   -7.3180 C   0  0  1  0  0  0  0  0  0  0  0  0
   -0.8300    9.6000   -8.5000 C   0  0  0  0  0  0  0  0  0  0  0  0
   -1.6760    8.6160   -6.5480 C   0  0  0  0  0  0  0  0  0  0  0  0
   -0.9380    9.9710   -9.6550 O   0  0  0  0  0  0  0  0  0  0  0  0
    0.1440    8.7560   -8.0180 N   0  0  0  0  0  0  0  0  0  0  0  0
   -0.3210    8.0100   -6.8840 C   0  0  0  0  0  0  0  0  0  0  0  0
  1  2  1  0
  1  3  1  0
  3  4  2  0
  3  5  1  0
  5  6  2  0
  5  7  1  0
  6  8  1  0
  7  9  2  0
  8 10  2  0
  9 10  1  0
 10 11  1  0
 11 12  1  1
 11 13  2  0
 11 14  2  0
 13 15  1  0
 15 16  1  0
 17 16  1  1
 17 18  1  0
 17 19  1  0
 18 20  2  0
 18 21  1  0
 19 22  1  0
 21 22  1  0
M  END
