x0592_0_A-x1015_0_A
     RDKit          3D

 28 30  0  0  0  0  0  0  0  0999 V2000
   -2.8010   14.9670    1.0370 N   0  0  0  0  0  0  0  0  0  0  0  0
   -3.3780   15.0960   -0.2000 C   0  0  0  0  0  0  0  0  0  0  0  0
   -2.7010   15.3050   -1.2630 N   0  0  0  0  0  0  0  0  0  0  0  0
   -4.8140   14.9860   -0.2150 C   0  0  0  0  0  0  0  0  0  0  0  0
   -1.2730   15.4520   -1.4330 C   0  0  0  0  0  0  0  0  0  0  0  0
   -5.6840   15.1840   -1.3100 C   0  0  0  0  0  0  0  0  0  0  0  0
   -5.6620   14.6640    0.8280 C   0  0  0  0  0  0  0  0  0  0  0  0
   -1.0720   15.8060   -2.9180 C   0  0  0  0  0  0  0  0  0  0  0  0
   -6.9670   15.0070   -1.0000 N   0  0  0  0  0  0  0  0  0  0  0  0
   -6.9320   14.6940    0.3040 N   0  0  0  0  0  0  0  0  0  0  0  0
   -8.1720   14.4360    0.9950 C   0  0  0  0  0  0  0  0  0  0  0  0
   -1.2290   14.5790   -3.8430 C   0  0  0  0  0  0  0  0  0  0  0  0
   -7.9620   13.9700    2.4260 C   0  0  0  0  0  0  0  0  0  0  0  0
    0.0150   13.6760   -3.8870 C   0  0  2  0  0  0  0  0  0  0  0  0
   -7.2650   14.9480    3.1870 O   0  0  0  0  0  0  0  0  0  0  0  0
   -0.1970   12.2290   -3.8730 N   0  0  0  0  0  0  0  0  0  0  0  0
    0.7680   13.8520   -2.5740 C   0  0  0  0  0  0  0  0  0  0  0  0
    1.0700   14.9100   -2.0540 O   0  0  0  0  0  0  0  0  0  0  0  0
    0.3280   11.6720   -2.6960 C   0  0  0  0  0  0  0  0  0  0  0  0
    1.0470   12.6320   -2.0650 N   0  0  0  0  0  0  0  0  0  0  0  0
   -0.5480   11.4600   -5.0130 C   0  0  0  0  0  0  0  0  0  0  0  0
    0.2090   10.5270   -2.2570 O   0  0  0  0  0  0  0  0  0  0  0  0
    0.0350   11.6790   -6.2720 C   0  0  0  0  0  0  0  0  0  0  0  0
   -1.5030   10.4360   -4.9010 C   0  0  0  0  0  0  0  0  0  0  0  0
   -0.3250   10.9030   -7.3800 C   0  0  0  0  0  0  0  0  0  0  0  0
   -1.8670    9.6570   -6.0030 C   0  0  0  0  0  0  0  0  0  0  0  0
   -1.2770    9.8930   -7.2400 C   0  0  0  0  0  0  0  0  0  0  0  0
   -1.7270    8.9330   -8.5930 Cl  0  0  0  0  0  0  0  0  0  0  0  0
  1  2  1  0
  2  3  2  3
  2  4  1  0
  3  5  1  0
  4  6  1  0
  4  7  2  0
  5  8  1  0
  6  9  2  0
  7 10  1  0
  9 10  1  0
 10 11  1  0
  8 12  1  0
 11 13  1  0
 14 12  1  1
 13 15  1  0
 14 16  1  0
 14 17  1  0
 17 18  2  0
 16 19  1  0
 17 20  1  0
 19 20  1  0
 16 21  1  0
 19 22  2  0
 21 23  2  0
 21 24  1  0
 23 25  1  0
 24 26  2  0
 25 27  2  0
 26 27  1  0
 27 28  1  0
M  END
