x0592_0_A_α-x0837_0_A_α
     RDKit          3D

 11 11  0  0  0  0  0  0  0  0999 V2000
   -2.7090   14.9140    1.0760 N   0  0  0  0  0  0  0  0  0  0  0  0
   -3.2610   14.9100   -0.1700 C   0  0  0  0  0  0  0  0  0  0  0  0
   -2.5520   14.9100   -1.1680 O   0  0  0  0  0  0  0  0  0  0  0  0
   -4.7080   14.8950   -0.2280 C   0  0  0  0  0  0  0  0  0  0  0  0
   -5.5240   15.1950   -1.3480 C   0  0  0  0  0  0  0  0  0  0  0  0
   -5.6120   14.5900    0.7690 C   0  0  0  0  0  0  0  0  0  0  0  0
   -6.8310   15.0870   -1.0800 N   0  0  0  0  0  0  0  0  0  0  0  0
   -6.8510   14.7180    0.2170 N   0  0  0  0  0  0  0  0  0  0  0  0
   -8.1150   14.4970    0.8990 C   0  0  0  0  0  0  0  0  0  0  0  0
   -7.8960   14.0770    2.3500 C   0  0  0  0  0  0  0  0  0  0  0  0
   -7.1900   15.0660    3.0970 O   0  0  0  0  0  0  0  0  0  0  0  0
  1  2  1  0
  2  3  2  0
  2  4  1  0
  4  5  1  0
  4  6  2  0
  5  7  2  0
  6  8  1  0
  7  8  1  0
  8  9  1  0
  9 10  1  0
 10 11  1  0
M  END
