x0591_0_A-x0950_0_A
     RDKit          3D

 21 21  0  0  0  0  0  0  0  0999 V2000
   -5.8750   14.6060    0.8860 N   0  0  0  0  0  0  0  0  0  0  0  0
   -6.7690   14.5070    2.0170 C   0  0  0  0  0  0  0  0  0  0  0  0
   -6.2410   14.8030   -0.4170 C   0  0  0  0  0  0  0  0  0  0  0  0
   -7.4140   15.0250   -0.6970 O   0  0  0  0  0  0  0  0  0  0  0  0
   -5.2320   14.7410   -1.4990 C   0  0  0  0  0  0  0  0  0  0  0  0
   -3.8710   14.5250   -1.2470 C   0  0  0  0  0  0  0  0  0  0  0  0
   -5.6810   14.9030   -2.8060 C   0  0  0  0  0  0  0  0  0  0  0  0
   -2.9620   14.4720   -2.3150 C   0  0  0  0  0  0  0  0  0  0  0  0
   -4.7800   14.8480   -3.8660 C   0  0  0  0  0  0  0  0  0  0  0  0
   -3.4290   14.6350   -3.6210 C   0  0  0  0  0  0  0  0  0  0  0  0
   -2.3340   14.5800   -5.0120 S   0  0  1  0  0  0  0  0  0  0  0  0
   -1.0970   15.6720   -4.7550 N   0  0  0  0  0  0  0  0  0  0  0  0
   -1.5690   13.2470   -4.9880 N   0  0  0  0  0  0  0  0  0  0  0  0
   -3.0180   15.1490   -6.1450 O   0  0  0  0  0  0  0  0  0  0  0  0
   -0.4090   13.1210   -5.8900 C   0  0  0  0  0  0  0  0  0  0  0  0
    0.6150   12.2870   -5.3710 O   0  0  0  0  0  0  0  0  0  0  0  0
    1.1950   12.8460   -4.2050 C   0  0  2  0  0  0  0  0  0  0  0  0
    2.6950   12.9620   -4.4380 C   0  0  0  0  0  0  0  0  0  0  0  0
    0.9070   12.0420   -2.9280 C   0  0  0  0  0  0  0  0  0  0  0  0
    0.3790   10.9390   -2.8880 O   0  0  0  0  0  0  0  0  0  0  0  0
    1.2760   12.6760   -1.8000 O   0  0  0  0  0  0  0  0  0  0  0  0
  1  2  1  0
  1  3  1  0
  3  4  2  0
  3  5  1  0
  5  6  2  0
  5  7  1  0
  6  8  1  0
  7  9  2  0
  8 10  2  0
  9 10  1  0
 10 11  1  0
 11 12  1  1
 11 13  2  0
 11 14  2  0
 13 15  1  0
 15 16  1  0
 16 17  1  0
 17 18  1  6
 17 19  1  0
 19 20  2  0
 19 21  1  0
M  END
