x0591_0_A_α-x0228_0_B_β
     RDKit          3D

 31 32  0  0  0  0  0  0  0  0999 V2000
   -5.6790   14.4320    0.9490 N   0  0  0  0  0  0  0  0  0  0  0  0
   -6.5760   14.4880    2.0760 C   0  0  0  0  0  0  0  0  0  0  0  0
   -6.1660   14.6180   -0.3300 C   0  0  0  0  0  0  0  0  0  0  0  0
   -7.3660   14.7290   -0.5670 O   0  0  0  0  0  0  0  0  0  0  0  0
   -5.1720   14.6870   -1.4400 C   0  0  0  0  0  0  0  0  0  0  0  0
   -3.7850   14.6190   -1.2410 C   0  0  0  0  0  0  0  0  0  0  0  0
   -5.6610   14.8300   -2.7410 C   0  0  0  0  0  0  0  0  0  0  0  0
   -2.9090   14.7060   -2.3330 C   0  0  0  0  0  0  0  0  0  0  0  0
   -4.7910   14.9110   -3.8220 C   0  0  0  0  0  0  0  0  0  0  0  0
   -3.4250   14.8600   -3.6250 C   0  0  0  0  0  0  0  0  0  0  0  0
   -2.3620   14.9990   -5.0310 S   0  0  1  0  0  0  0  0  0  0  0  0
   -0.8690   15.5450   -4.5110 N   0  0  0  0  0  0  0  0  0  0  0  0
   -2.0340   13.6790   -5.5180 O   0  0  0  0  0  0  0  0  0  0  0  0
   -2.7670   16.2520   -5.8540 N   0  0  0  0  0  0  0  0  0  0  0  0
   -1.9910   17.5320   -5.6930 C   0  0  0  0  0  0  0  0  0  0  0  0
   -2.5240   18.7750   -6.4680 C   0  0  0  0  0  0  0  0  0  0  0  0
   -2.5480   20.0920   -5.6300 C   0  0  0  0  0  0  0  0  0  0  0  0
   -3.7760   21.0580   -5.7220 C   0  0  0  0  0  0  0  0  0  0  0  0
   -4.6980   21.0270   -6.9680 C   0  0  0  0  0  0  0  0  0  0  0  0
   -4.0310   21.7030   -8.1740 C   0  0  0  0  0  0  0  0  0  0  0  0
   -4.8630   22.2770   -9.3360 C   0  0  0  0  0  0  0  0  0  0  0  0
   -4.7450   23.7900   -9.4750 C   0  0  0  0  0  0  0  0  0  0  0  0
   -4.4820   24.4110  -10.8510 C   0  0  0  0  0  0  0  0  0  0  0  0
   -5.5280   24.7870  -11.6970 C   0  0  0  0  0  0  0  0  0  0  0  0
   -3.1830   24.6460  -11.2940 C   0  0  0  0  0  0  0  0  0  0  0  0
   -5.2700   25.3880  -12.9420 C   0  0  0  0  0  0  0  0  0  0  0  0
   -2.9050   25.2480  -12.5130 C   0  0  0  0  0  0  0  0  0  0  0  0
   -6.3420   25.7540  -13.7740 N   0  0  0  0  0  0  0  0  0  0  0  0
   -3.9430   25.6260  -13.3540 C   0  0  0  0  0  0  0  0  0  0  0  0
   -3.7910   26.2260  -14.5850 O   0  0  0  0  0  0  0  0  0  0  0  0
   -2.5080   26.7610  -14.9090 C   0  0  0  0  0  0  0  0  0  0  0  0
  1  2  1  0
  1  3  1  0
  3  4  2  0
  3  5  1  0
  5  6  2  0
  5  7  1  0
  6  8  1  0
  7  9  2  0
  8 10  2  0
  9 10  1  0
 10 11  1  0
 11 12  1  1
 11 13  2  0
 11 14  2  0
 14 15  1  0
 15 16  1  0
 16 17  1  0
 17 18  1  0
 18 19  1  0
 19 20  1  0
 20 21  1  0
 21 22  1  0
 22 23  1  0
 23 24  2  0
 23 25  1  0
 24 26  1  0
 25 27  2  0
 26 28  1  0
 26 29  2  0
 27 29  1  0
 29 30  1  0
 30 31  1  0
M  END
