x0591_0_A_α-x0524_0_A_α
     RDKit          3D

 33 35  0  0  0  0  0  0  0  0999 V2000
   -5.8010   14.5970    0.8780 N   0  0  0  0  0  0  0  0  0  0  0  0
   -6.7590   14.5230    1.9480 C   0  0  0  0  0  0  0  0  0  0  0  0
   -6.2440   14.8170   -0.4040 C   0  0  0  0  0  0  0  0  0  0  0  0
   -7.4200   15.0300   -0.6720 O   0  0  0  0  0  0  0  0  0  0  0  0
   -5.2320   14.7760   -1.4910 C   0  0  0  0  0  0  0  0  0  0  0  0
   -3.8550   14.6700   -1.2530 C   0  0  0  0  0  0  0  0  0  0  0  0
   -5.6990   14.8420   -2.8030 C   0  0  0  0  0  0  0  0  0  0  0  0
   -2.9620   14.6290   -2.3320 C   0  0  0  0  0  0  0  0  0  0  0  0
   -4.8130   14.7970   -3.8750 C   0  0  0  0  0  0  0  0  0  0  0  0
   -3.4510   14.6910   -3.6430 C   0  0  0  0  0  0  0  0  0  0  0  0
   -2.3580   14.6290   -5.0420 S   0  0  1  0  0  0  0  0  0  0  0  0
   -1.0250   15.5930   -4.7020 N   0  0  0  0  0  0  0  0  0  0  0  0
   -1.6700   13.2650   -5.0110 N   0  0  0  0  0  0  0  0  0  0  0  0
   -3.0070   15.2990   -6.1390 O   0  0  0  0  0  0  0  0  0  0  0  0
   -0.8060   12.8070   -6.1260 C   0  0  0  0  0  0  0  0  0  0  0  0
   -0.1470   11.4590   -5.7940 C   0  0  0  0  0  0  0  0  0  0  0  0
   -0.0220   10.5640   -6.9570 N   0  0  0  0  0  0  0  0  0  0  0  0
   -0.7620    9.5050   -7.0840 C   0  0  0  0  0  0  0  0  0  0  0  0
   -0.5660    8.6930   -8.1820 N   0  0  0  0  0  0  0  0  0  0  0  0
   -1.8260    9.0950   -6.0810 C   0  0  0  0  0  0  0  0  0  0  0  0
    0.4910    8.7050   -9.1270 C   0  0  0  0  0  0  0  0  0  0  0  0
    1.6180    7.9010   -8.9190 C   0  0  0  0  0  0  0  0  0  0  0  0
    0.4520    9.4880  -10.2770 C   0  0  0  0  0  0  0  0  0  0  0  0
    2.6740    7.8800   -9.8450 C   0  0  0  0  0  0  0  0  0  0  0  0
    1.5040    9.4680  -11.1990 C   0  0  0  0  0  0  0  0  0  0  0  0
    2.6270    8.6660  -11.0020 C   0  0  0  0  0  0  0  0  0  0  0  0
    3.6480    8.6860  -11.9660 N   0  0  0  0  0  0  0  0  0  0  0  0
    3.9310    9.5590  -13.0310 C   0  0  0  0  0  0  0  0  0  0  0  0
    3.2060   10.7270  -13.2830 C   0  0  0  0  0  0  0  0  0  0  0  0
    4.9950    9.2460  -13.8850 C   0  0  0  0  0  0  0  0  0  0  0  0
    3.5320   11.5600  -14.3560 C   0  0  0  0  0  0  0  0  0  0  0  0
    5.3230   10.0770  -14.9610 C   0  0  0  0  0  0  0  0  0  0  0  0
    4.5900   11.2350  -15.1950 C   0  0  0  0  0  0  0  0  0  0  0  0
  1  2  1  0
  1  3  1  0
  3  4  2  0
  3  5  1  0
  5  6  2  0
  5  7  1  0
  6  8  1  0
  7  9  2  0
  8 10  2  0
  9 10  1  0
 10 11  1  0
 11 12  1  1
 11 13  2  0
 11 14  2  0
 13 15  1  0
 15 16  1  0
 16 17  1  0
 17 18  2  3
 18 19  1  0
 18 20  1  0
 19 21  1  0
 21 22  2  0
 21 23  1  0
 22 24  1  0
 23 25  2  0
 24 26  2  0
 25 26  1  0
 26 27  1  0
 27 28  1  0
 28 29  2  0
 28 30  1  0
 29 31  1  0
 30 32  2  0
 31 33  2  0
 32 33  1  0
M  END
