x0591_0_A_α-x0631_0_A_α
     RDKit          3D

 27 28  0  0  0  0  0  0  0  0999 V2000
   -5.7840   14.5980    0.8980 N   0  0  0  0  0  0  0  0  0  0  0  0
   -6.7430   14.5120    1.9750 C   0  0  0  0  0  0  0  0  0  0  0  0
   -6.2320   14.7790   -0.3910 C   0  0  0  0  0  0  0  0  0  0  0  0
   -7.4080   14.9740   -0.6700 O   0  0  0  0  0  0  0  0  0  0  0  0
   -5.2100   14.7180   -1.4730 C   0  0  0  0  0  0  0  0  0  0  0  0
   -3.8420   14.5310   -1.2220 C   0  0  0  0  0  0  0  0  0  0  0  0
   -5.6620   14.8530   -2.7860 C   0  0  0  0  0  0  0  0  0  0  0  0
   -2.9360   14.4790   -2.2930 C   0  0  0  0  0  0  0  0  0  0  0  0
   -4.7630   14.7960   -3.8490 C   0  0  0  0  0  0  0  0  0  0  0  0
   -3.4080   14.6100   -3.6040 C   0  0  0  0  0  0  0  0  0  0  0  0
   -2.3080   14.5440   -4.9850 S   0  0  1  0  0  0  0  0  0  0  0  0
   -1.0030   15.5560   -4.7190 N   0  0  0  0  0  0  0  0  0  0  0  0
   -1.5830   13.1940   -4.9800 N   0  0  0  0  0  0  0  0  0  0  0  0
   -2.9720   15.1590   -6.1120 O   0  0  0  0  0  0  0  0  0  0  0  0
   -0.8290   12.8050   -6.1910 C   0  0  0  0  0  0  0  0  0  0  0  0
   -0.1800   11.4200   -6.0610 C   0  0  0  0  0  0  0  0  0  0  0  0
   -0.3720   10.5560   -7.3300 C   0  0  0  0  0  0  0  0  0  0  0  0
    0.8850   10.4180   -8.2100 C   0  0  0  0  0  0  0  0  0  0  0  0
    0.6860    9.9290   -9.6640 C   0  0  0  0  0  0  0  0  0  0  0  0
    1.6110   10.4890  -10.6740 N   0  0  0  0  0  0  0  0  0  0  0  0
    2.0790    9.5250  -11.6770 C   0  0  2  0  0  0  0  0  0  0  0  0
    2.7960    8.5040  -11.0000 O   0  0  0  0  0  0  0  0  0  0  0  0
    3.0430   10.1550  -12.7400 C   0  0  1  0  0  0  0  0  0  0  0  0
    3.2120    9.3310  -13.8930 O   0  0  0  0  0  0  0  0  0  0  0  0
    2.6250   11.4870  -13.3360 C   0  0  0  0  0  0  0  0  0  0  0  0
    4.0490   10.1600  -14.7170 C   0  0  0  0  0  0  0  0  0  0  0  0
    3.5340   11.5860  -14.5460 C   0  0  0  0  0  0  0  0  0  0  0  0
  1  2  1  0
  1  3  1  0
  3  4  2  0
  3  5  1  0
  5  6  2  0
  5  7  1  0
  6  8  1  0
  7  9  2  0
  8 10  2  0
  9 10  1  0
 10 11  1  0
 11 12  1  1
 11 13  2  0
 11 14  2  0
 13 15  1  0
 15 16  1  0
 16 17  1  0
 17 18  1  0
 18 19  1  0
 19 20  1  0
 20 21  1  0
 21 22  1  1
 21 23  1  0
 23 24  1  0
 23 25  1  6
 24 26  1  0
 25 27  1  0
 26 27  1  0
M  END
