x0592_0_A_α-x0962_0_A_α
     RDKit          3D

 12 12  0  0  0  0  0  0  0  0999 V2000
   -2.8870   14.2760    1.1480 N   0  0  0  0  0  0  0  0  0  0  0  0
   -3.3610   15.1190    0.0490 C   0  0  1  0  0  0  0  0  0  0  0  0
   -2.7050   14.8360   -1.2480 C   0  0  0  0  0  0  0  0  0  0  0  0
   -4.8340   14.9790   -0.0730 C   0  0  0  0  0  0  0  0  0  0  0  0
   -2.1960   14.6410   -2.2720 N   0  0  0  0  0  0  0  0  0  0  0  0
   -5.6150   15.1640   -1.2400 C   0  0  0  0  0  0  0  0  0  0  0  0
   -5.7520   14.6510    0.8990 C   0  0  0  0  0  0  0  0  0  0  0  0
   -6.9150   14.9710   -1.0160 N   0  0  0  0  0  0  0  0  0  0  0  0
   -6.9750   14.6630    0.2930 N   0  0  0  0  0  0  0  0  0  0  0  0
   -8.2440   14.3880    0.9250 C   0  0  0  0  0  0  0  0  0  0  0  0
   -8.0750   13.9500    2.3740 C   0  0  0  0  0  0  0  0  0  0  0  0
   -7.3530   14.9310    3.1120 O   0  0  0  0  0  0  0  0  0  0  0  0
  2  1  1  1
  2  3  1  0
  2  4  1  0
  3  5  3  0
  4  6  1  0
  4  7  2  0
  6  8  2  0
  7  9  1  0
  8  9  1  0
  9 10  1  0
 10 11  1  0
 11 12  1  0
M  END
