x0591_0_A_α-x0689_0_A_α
     RDKit          3D

 21 22  0  0  0  0  0  0  0  0999 V2000
   -5.2670   14.5480    0.9000 N   0  0  0  0  0  0  0  0  0  0  0  0
   -6.1590   14.3710    2.0250 C   0  0  0  0  0  0  0  0  0  0  0  0
   -5.8260   14.7200   -0.3610 C   0  0  0  0  0  0  0  0  0  0  0  0
   -4.0680   15.3130    1.2590 N   0  0  0  0  0  0  0  0  0  0  0  0
   -7.0300   14.9580   -0.5320 O   0  0  0  0  0  0  0  0  0  0  0  0
   -4.9870   14.6070   -1.5460 C   0  0  0  0  0  0  0  0  0  0  0  0
   -2.7140   14.9230    0.9090 C   0  0  0  0  0  0  0  0  0  0  0  0
   -3.7190   14.0460   -1.4240 C   0  0  0  0  0  0  0  0  0  0  0  0
   -5.4540   15.0530   -2.7720 C   0  0  0  0  0  0  0  0  0  0  0  0
   -2.4060   14.9340   -0.3900 N   0  0  0  0  0  0  0  0  0  0  0  0
   -1.7860   14.5840    1.8440 N   0  0  0  0  0  0  0  0  0  0  0  0
   -2.8980   13.9490   -2.5460 C   0  0  0  0  0  0  0  0  0  0  0  0
   -4.6300   14.9460   -3.8880 C   0  0  0  0  0  0  0  0  0  0  0  0
   -1.1470   14.6090   -0.7630 C   0  0  0  0  0  0  0  0  0  0  0  0
   -0.5380   14.2630    1.4230 C   0  0  0  0  0  0  0  0  0  0  0  0
   -3.3630   14.4100   -3.7700 C   0  0  0  0  0  0  0  0  0  0  0  0
   -0.1620   14.2620    0.1130 C   0  0  0  0  0  0  0  0  0  0  0  0
   -2.3610   14.3330   -5.2140 S   0  0  0  0  0  0  0  0  0  0  0  0
   -1.1140   15.3940   -4.8320 N   0  0  0  0  0  0  0  0  0  0  0  0
   -1.7680   13.0240   -5.3080 O   0  0  0  0  0  0  0  0  0  0  0  0
   -3.0830   14.9570   -6.2970 O   0  0  0  0  0  0  0  0  0  0  0  0
  1  2  1  0
  1  3  1  0
  1  4  1  0
  3  5  2  0
  3  6  1  0
  4  7  1  0
  6  8  2  0
  6  9  1  0
  7 10  2  0
  7 11  1  0
  8 12  1  0
  9 13  2  0
 10 14  1  0
 11 15  2  0
 12 16  2  0
 13 16  1  0
 14 17  2  0
 15 17  1  0
 16 18  1  0
 18 19  1  0
 18 20  2  0
 18 21  2  0
M  END
