x0592_0_A-x0950_1_A
     RDKit          3D

 20 20  0  0  0  0  0  0  0  0999 V2000
   -2.9670   14.7380    1.4210 N   0  0  0  0  0  0  0  0  0  0  0  0
   -3.3160   14.7680    0.0940 C   0  0  0  0  0  0  0  0  0  0  0  0
   -2.4040   14.7290   -0.7960 N   0  0  0  0  0  0  0  0  0  0  0  0
   -4.7310   14.8350   -0.1250 C   0  0  0  0  0  0  0  0  0  0  0  0
   -0.9990   14.6470   -0.4250 C   0  0  0  0  0  0  0  0  0  0  0  0
   -5.4910   15.1930   -1.2670 C   0  0  0  0  0  0  0  0  0  0  0  0
   -5.6860   14.5360    0.8170 C   0  0  0  0  0  0  0  0  0  0  0  0
   -0.1070   14.5170   -1.6560 C   0  0  0  0  0  0  0  0  0  0  0  0
   -6.8140   15.1220   -1.0560 N   0  0  0  0  0  0  0  0  0  0  0  0
   -6.8940   14.7170    0.2300 N   0  0  0  0  0  0  0  0  0  0  0  0
   -8.1750   14.5140    0.8690 C   0  0  0  0  0  0  0  0  0  0  0  0
    1.1290   13.7670   -1.2270 C   0  0  0  0  0  0  0  0  0  0  0  0
   -7.9840   14.0930    2.3260 C   0  0  0  0  0  0  0  0  0  0  0  0
    1.7750   13.0620   -2.3020 O   0  0  0  0  0  0  0  0  0  0  0  0
   -7.2040   15.0400    3.0550 O   0  0  0  0  0  0  0  0  0  0  0  0
    1.0260   12.2260   -3.0670 C   0  0  0  0  0  0  0  0  0  0  0  0
    1.2680   12.5270   -4.5480 C   0  0  2  0  0  0  0  0  0  0  0  0
    0.2730   11.3410   -2.6580 O   0  0  0  0  0  0  0  0  0  0  0  0
    0.9750   13.9770   -4.8990 C   0  0  0  0  0  0  0  0  0  0  0  0
    0.4780   11.6850   -5.3930 O   0  0  0  0  0  0  0  0  0  0  0  0
  1  2  1  0
  2  3  2  3
  2  4  1  0
  3  5  1  0
  4  6  1  0
  4  7  2  0
  5  8  1  0
  6  9  2  0
  7 10  1  0
  9 10  1  0
 10 11  1  0
  8 12  1  0
 11 13  1  0
 12 14  1  0
 13 15  1  0
 14 16  1  0
 16 17  1  0
 16 18  2  0
 17 19  1  1
 17 20  1  0
M  END
