x0598_0_A-x0516_0_A
     RDKit          3D

 26 28  0  0  0  0  0  0  0  0999 V2000
    8.6600   26.7650   15.4060 N   0  0  0  0  0  0  0  0  0  0  0  0
    7.5880   26.9680   16.4490 C   0  0  1  0  0  0  0  0  0  0  0  0
    6.1710   27.0770   15.7580 C   0  0  1  0  0  0  0  0  0  0  0  0
    9.6540   25.4030   15.1830 S   0  0  0  0  0  0  0  0  0  0  0  0
    9.3610   24.2960   16.5550 C   0  0  0  0  0  0  0  0  0  0  0  0
   11.0340   25.7980   15.2500 O   0  0  0  0  0  0  0  0  0  0  0  0
    9.1510   24.8370   13.9550 O   0  0  0  0  0  0  0  0  0  0  0  0
    7.6420   25.8630   17.4810 C   0  0  0  0  0  0  0  0  0  0  0  0
    5.7780   25.8220   15.1760 O   0  0  0  0  0  0  0  0  0  0  0  0
    5.0570   27.6430   16.6770 C   0  0  0  0  0  0  0  0  0  0  0  0
    7.1690   26.1920   18.8960 C   0  0  0  0  0  0  0  0  0  0  0  0
    6.8640   24.7070   16.9540 C   0  0  0  0  0  0  0  0  0  0  0  0
    3.8310   26.8340   16.7770 N   0  0  0  0  0  0  0  0  0  0  0  0
    5.8210   25.5500   19.2830 C   0  0  0  0  0  0  0  0  0  0  0  0
    5.3530   24.9340   16.9470 C   0  0  0  0  0  0  0  0  0  0  0  0
    3.2960   26.3400   15.5060 C   0  0  0  0  0  0  0  0  0  0  0  0
    4.8200   25.3550   18.2370 N   0  0  0  0  0  0  0  0  0  0  0  0
    1.7980   26.2810   15.6270 C   0  0  0  0  0  0  0  0  0  0  0  0
    1.0440   25.4580   14.7790 C   0  0  0  0  0  0  0  0  0  0  0  0
    1.1380   27.0610   16.6050 C   0  0  0  0  0  0  0  0  0  0  0  0
   -0.3210   25.4460   14.9390 C   0  0  0  0  0  0  0  0  0  0  0  0
   -0.2510   27.0260   16.7440 C   0  0  0  0  0  0  0  0  0  0  0  0
   -0.9500   26.2070   15.8930 C   0  0  0  0  0  0  0  0  0  0  0  0
   -1.2060   24.7180   14.2190 O   0  0  0  0  0  0  0  0  0  0  0  0
   -2.2980   26.0330   15.8680 O   0  0  0  0  0  0  0  0  0  0  0  0
   -2.4130   25.4110   14.5750 C   0  0  0  0  0  0  0  0  0  0  0  0
  2  1  1  6
  2  3  1  0
  4  1  1  0
  4  5  1  0
  4  6  2  0
  4  7  2  0
  2  8  1  0
  3  9  1  1
  3 10  1  0
  8 11  1  0
  8 12  1  0
 10 13  1  0
 11 14  1  0
 12 15  1  0
 13 16  1  0
 14 17  1  0
 15 17  1  0
 16 18  1  0
 18 19  2  0
 18 20  1  0
 19 21  1  0
 20 22  2  0
 21 23  2  0
 22 23  1  0
 21 24  1  0
 23 25  1  0
 24 26  1  0
 25 26  1  0
M  END
