x0592_0_A_α-x0253_0_A_α
     RDKit          3D

 28 29  0  0  0  0  0  0  0  0999 V2000
   -3.1100   14.7440    1.7120 N   0  0  0  0  0  0  0  0  0  0  0  0
   -3.3650   14.7830    0.3740 C   0  0  0  0  0  0  0  0  0  0  0  0
   -2.5170   14.7760   -0.5500 N   0  0  0  0  0  0  0  0  0  0  0  0
   -4.7710   14.8260    0.0620 C   0  0  0  0  0  0  0  0  0  0  0  0
   -1.1640   14.7220   -0.0330 C   0  0  0  0  0  0  0  0  0  0  0  0
   -5.4410   15.1540   -1.1500 C   0  0  0  0  0  0  0  0  0  0  0  0
   -5.7900   14.5410    0.9310 C   0  0  0  0  0  0  0  0  0  0  0  0
   -0.2020   14.7930   -1.1870 C   0  0  0  0  0  0  0  0  0  0  0  0
   -6.7770   15.0770   -1.0340 N   0  0  0  0  0  0  0  0  0  0  0  0
   -6.9490   14.7020    0.2510 N   0  0  0  0  0  0  0  0  0  0  0  0
   -8.2730   14.5070    0.8080 C   0  0  0  0  0  0  0  0  0  0  0  0
    0.6780   13.5800   -1.1500 C   0  0  0  0  0  0  0  0  0  0  0  0
   -8.1640   14.0580    2.2700 C   0  0  0  0  0  0  0  0  0  0  0  0
    1.2130   13.3380   -2.4610 N   0  0  0  0  0  0  0  0  0  0  0  0
   -7.3690   14.9530    3.0550 O   0  0  0  0  0  0  0  0  0  0  0  0
    0.9370   12.2570   -3.0560 C   0  0  0  0  0  0  0  0  0  0  0  0
    0.1690   11.2550   -2.5690 O   0  0  0  0  0  0  0  0  0  0  0  0
    1.5080   12.0630   -4.4170 C   0  0  0  0  0  0  0  0  0  0  0  0
    0.5070   11.8290   -5.4470 N   0  0  0  0  0  0  0  0  0  0  0  0
    0.9860   11.6780   -6.7030 C   0  0  0  0  0  0  0  0  0  0  0  0
    2.0630   12.1920   -6.8600 O   0  0  0  0  0  0  0  0  0  0  0  0
    0.3370   10.8700   -7.7650 C   0  0  0  0  0  0  0  0  0  0  0  0
   -0.8180   10.1630   -7.4310 C   0  0  0  0  0  0  0  0  0  0  0  0
    0.8430   10.7760   -9.0640 C   0  0  0  0  0  0  0  0  0  0  0  0
   -1.4580    9.3430   -8.3630 C   0  0  0  0  0  0  0  0  0  0  0  0
    0.2090    9.9710  -10.0050 C   0  0  0  0  0  0  0  0  0  0  0  0
   -2.6810    8.5690   -7.9740 C   0  0  0  0  0  0  0  0  0  0  0  0
   -0.9340    9.2540   -9.6560 C   0  0  0  0  0  0  0  0  0  0  0  0
  1  2  1  0
  2  3  2  3
  2  4  1  0
  3  5  1  0
  4  6  1  0
  4  7  2  0
  5  8  1  0
  6  9  2  0
  7 10  1  0
  9 10  1  0
 10 11  1  0
  8 12  1  0
 11 13  1  0
 12 14  1  0
 13 15  1  0
 14 16  2  3
 16 17  1  0
 16 18  1  0
 18 19  1  0
 19 20  1  0
 20 21  2  0
 20 22  1  0
 22 23  2  0
 22 24  1  0
 23 25  1  0
 24 26  2  0
 25 27  1  0
 25 28  2  0
 26 28  1  0
M  END
