x0591_0_A-x0631_0_A
     RDKit          3D

 33 35  0  0  0  0  0  0  0  0999 V2000
   -5.7830   14.6060    0.9110 N   0  0  0  0  0  0  0  0  0  0  0  0
   -6.7340   14.4940    1.9840 C   0  0  0  0  0  0  0  0  0  0  0  0
   -6.2500   14.7700   -0.3710 C   0  0  0  0  0  0  0  0  0  0  0  0
   -7.4380   14.9540   -0.6180 O   0  0  0  0  0  0  0  0  0  0  0  0
   -5.2850   14.7150   -1.4990 C   0  0  0  0  0  0  0  0  0  0  0  0
   -3.9150   14.5060   -1.2610 C   0  0  0  0  0  0  0  0  0  0  0  0
   -5.7270   14.8660   -2.8040 C   0  0  0  0  0  0  0  0  0  0  0  0
   -3.0080   14.4510   -2.3330 C   0  0  0  0  0  0  0  0  0  0  0  0
   -4.8310   14.8080   -3.8620 C   0  0  0  0  0  0  0  0  0  0  0  0
   -3.4820   14.6020   -3.6340 C   0  0  0  0  0  0  0  0  0  0  0  0
   -2.4140   14.5430   -5.0440 S   0  0  1  0  0  0  0  0  0  0  0  0
   -0.9090   15.1310   -4.6210 N   0  0  0  0  0  0  0  0  0  0  0  0
   -2.1050   13.0740   -5.3740 N   0  0  0  0  0  0  0  0  0  0  0  0
   -2.9110   15.4960   -6.0090 O   0  0  0  0  0  0  0  0  0  0  0  0
   -0.8210   12.4680   -4.9890 C   0  0  0  0  0  0  0  0  0  0  0  0
   -0.8750   10.9310   -5.1470 C   0  0  0  0  0  0  0  0  0  0  0  0
   -2.2450   10.3120   -5.5410 C   0  0  0  0  0  0  0  0  0  0  0  0
   -2.3450    9.7650   -6.9760 C   0  0  0  0  0  0  0  0  0  0  0  0
   -1.6220    8.4360   -7.1400 C   0  0  0  0  0  0  0  0  0  0  0  0
   -0.1390    8.5290   -6.7880 C   0  0  0  0  0  0  0  0  0  0  0  0
    0.6280    9.4700   -7.6420 N   0  0  0  0  0  0  0  0  0  0  0  0
    0.1540   10.8300   -7.6200 N   0  0  0  0  0  0  0  0  0  0  0  0
    0.6310    9.0820   -9.0240 N   0  0  0  0  0  0  0  0  0  0  0  0
    0.2490   11.3130   -8.9740 N   0  0  0  0  0  0  0  0  0  0  0  0
    1.0550   10.3190   -9.6200 C   0  0  2  0  0  0  0  0  0  0  0  0
    0.9490   10.3100  -11.0250 N   0  0  0  0  0  0  0  0  0  0  0  0
    2.0960    9.6220  -11.5960 C   0  0  1  0  0  0  0  0  0  0  0  0
    1.9140    8.2210  -11.5970 O   0  0  0  0  0  0  0  0  0  0  0  0
    2.5580   10.0630  -13.0090 C   0  0  2  0  0  0  0  0  0  0  0  0
    3.8880    9.6200  -13.3090 O   0  0  0  0  0  0  0  0  0  0  0  0
    2.5590   11.5560  -13.3080 C   0  0  0  0  0  0  0  0  0  0  0  0
    3.5310   11.6770  -14.4650 C   0  0  0  0  0  0  0  0  0  0  0  0
    4.3150   10.3780  -14.4500 C   0  0  0  0  0  0  0  0  0  0  0  0
  1  2  1  0
  1  3  1  0
  3  4  2  0
  3  5  1  0
  5  6  2  0
  5  7  1  0
  6  8  1  0
  7  9  2  0
  8 10  2  0
  9 10  1  0
 10 11  1  0
 11 12  1  1
 11 13  2  0
 11 14  2  0
 13 15  1  0
 15 16  1  0
 16 17  1  0
 17 18  1  0
 18 19  1  0
 19 20  1  0
 20 21  1  0
 21 22  1  0
 21 23  1  0
 22 24  1  0
 23 25  1  0
 24 25  1  0
 25 26  1  6
 26 27  1  0
 27 28  1  6
 27 29  1  0
 29 30  1  0
 29 31  1  1
 31 32  1  0
 30 33  1  0
 32 33  1  0
M  END
