x0592_0_A-x0727_0_A
     RDKit          3D

 27 28  0  0  0  0  0  0  0  0999 V2000
   -2.9190   14.7000    1.4490 N   0  0  0  0  0  0  0  0  0  0  0  0
   -3.2700   14.7380    0.1220 C   0  0  0  0  0  0  0  0  0  0  0  0
   -2.3610   14.6970   -0.7830 N   0  0  0  0  0  0  0  0  0  0  0  0
   -4.6920   14.8130   -0.0850 C   0  0  0  0  0  0  0  0  0  0  0  0
   -0.9600   14.6050   -0.3940 C   0  0  0  0  0  0  0  0  0  0  0  0
   -5.4360   15.1850   -1.2340 C   0  0  0  0  0  0  0  0  0  0  0  0
   -5.6540   14.5160    0.8440 C   0  0  0  0  0  0  0  0  0  0  0  0
   -0.0890   14.4880   -1.6480 C   0  0  0  0  0  0  0  0  0  0  0  0
   -6.7590   15.1220   -1.0300 N   0  0  0  0  0  0  0  0  0  0  0  0
   -6.8600   14.7100    0.2530 N   0  0  0  0  0  0  0  0  0  0  0  0
   -8.1480   14.5180    0.8770 C   0  0  0  0  0  0  0  0  0  0  0  0
    1.0670   13.5410   -1.3730 C   0  0  0  0  0  0  0  0  0  0  0  0
   -8.0460   14.1320    2.3580 C   0  0  0  0  0  0  0  0  0  0  0  0
    1.6770   13.0400   -2.5660 O   0  0  0  0  0  0  0  0  0  0  0  0
   -7.2470   15.0650    3.0850 O   0  0  0  0  0  0  0  0  0  0  0  0
    0.9770   12.1450   -3.3140 C   0  0  0  0  0  0  0  0  0  0  0  0
    1.1030   12.5490   -4.7920 C   0  0  1  0  0  0  0  0  0  0  0  0
    0.3590   11.1710   -2.8800 O   0  0  0  0  0  0  0  0  0  0  0  0
    0.1450   11.8340   -5.6020 N   0  0  0  0  0  0  0  0  0  0  0  0
    0.8810   14.0480   -4.9270 C   0  0  0  0  0  0  0  0  0  0  0  0
    0.4750   11.1320   -6.7130 C   0  0  0  0  0  0  0  0  0  0  0  0
    1.4950   11.3010   -7.3540 O   0  0  0  0  0  0  0  0  0  0  0  0
   -0.5780   10.1000   -7.0310 C   0  0  0  0  0  0  0  0  0  0  0  0
   -1.0630   10.0430   -8.4620 C   0  0  0  0  0  0  0  0  0  0  0  0
   -0.2320    8.6540   -6.7390 C   0  0  0  0  0  0  0  0  0  0  0  0
   -2.0120    8.8440   -8.3910 C   0  0  0  0  0  0  0  0  0  0  0  0
   -1.4830    7.9630   -7.2480 C   0  0  0  0  0  0  0  0  0  0  0  0
  1  2  1  0
  2  3  2  3
  2  4  1  0
  3  5  1  0
  4  6  1  0
  4  7  2  0
  5  8  1  0
  6  9  2  0
  7 10  1  0
  9 10  1  0
 10 11  1  0
  8 12  1  0
 11 13  1  0
 12 14  1  0
 13 15  1  0
 14 16  1  0
 16 17  1  0
 16 18  2  0
 17 19  1  0
 17 20  1  1
 19 21  1  0
 21 22  2  0
 21 23  1  0
 23 24  1  0
 23 25  1  0
 24 26  1  0
 25 27  1  0
 26 27  1  0
M  END
