x0591_0_A-x0662_0_A
     RDKit          3D

 33 35  0  0  0  0  0  0  0  0999 V2000
   -5.8330   14.6460    0.9470 N   0  0  0  0  0  0  0  0  0  0  0  0
   -6.7500   14.5460    2.0550 C   0  0  0  0  0  0  0  0  0  0  0  0
   -6.3380   14.8750   -0.3090 C   0  0  0  0  0  0  0  0  0  0  0  0
   -7.5200   15.1010   -0.5250 O   0  0  0  0  0  0  0  0  0  0  0  0
   -5.3790   14.8210   -1.4320 C   0  0  0  0  0  0  0  0  0  0  0  0
   -3.9990   14.7490   -1.2140 C   0  0  0  0  0  0  0  0  0  0  0  0
   -5.8920   14.8360   -2.7260 C   0  0  0  0  0  0  0  0  0  0  0  0
   -3.1380   14.6850   -2.3140 C   0  0  0  0  0  0  0  0  0  0  0  0
   -5.0380   14.7690   -3.8070 C   0  0  0  0  0  0  0  0  0  0  0  0
   -3.6770   14.6910   -3.6040 C   0  0  0  0  0  0  0  0  0  0  0  0
   -2.6630   14.5760   -5.0260 S   0  0  1  0  0  0  0  0  0  0  0  0
   -1.0950   15.0970   -4.6430 N   0  0  0  0  0  0  0  0  0  0  0  0
   -2.4470   13.0780   -5.1470 N   0  0  0  0  0  0  0  0  0  0  0  0
   -3.0440   15.5320   -6.0390 O   0  0  0  0  0  0  0  0  0  0  0  0
   -1.6880   12.5010   -6.2260 C   0  0  0  0  0  0  0  0  0  0  0  0
   -0.3300   12.5440   -5.8090 N   0  0  0  0  0  0  0  0  0  0  0  0
    0.5210   11.7620   -6.3140 C   0  0  0  0  0  0  0  0  0  0  0  0
    1.7250   11.7270   -6.0680 O   0  0  0  0  0  0  0  0  0  0  0  0
    0.2010   10.7290   -7.3450 C   0  0  0  0  0  0  0  0  0  0  0  0
   -0.7190    9.7050   -7.1080 C   0  0  0  0  0  0  0  0  0  0  0  0
    0.8390   10.8000   -8.5750 C   0  0  0  0  0  0  0  0  0  0  0  0
   -0.9760    8.7800   -8.1210 C   0  0  0  0  0  0  0  0  0  0  0  0
    0.5970    9.8970   -9.5900 C   0  0  0  0  0  0  0  0  0  0  0  0
    1.3130   10.1080  -10.7780 N   0  0  0  0  0  0  0  0  0  0  0  0
   -0.3210    8.8770   -9.3590 C   0  0  0  0  0  0  0  0  0  0  0  0
    2.2510    9.3590  -11.4410 C   0  0  0  0  0  0  0  0  0  0  0  0
    2.4810    8.2210  -11.0230 O   0  0  0  0  0  0  0  0  0  0  0  0
    2.9800    9.8760  -12.6090 C   0  0  0  0  0  0  0  0  0  0  0  0
    2.7940   11.1500  -13.2260 C   0  0  0  0  0  0  0  0  0  0  0  0
    3.9410    9.1840  -13.2420 N   0  0  0  0  0  0  0  0  0  0  0  0
    4.3490    9.9960  -14.2240 N   0  0  0  0  0  0  0  0  0  0  0  0
    3.6930   11.1930  -14.2630 C   0  0  0  0  0  0  0  0  0  0  0  0
    5.4000    9.5420  -15.1010 C   0  0  0  0  0  0  0  0  0  0  0  0
  1  2  1  0
  1  3  1  0
  3  4  2  0
  3  5  1  0
  5  6  2  0
  5  7  1  0
  6  8  1  0
  7  9  2  0
  8 10  2  0
  9 10  1  0
 10 11  1  0
 11 12  1  1
 11 13  2  0
 11 14  2  0
 13 15  1  0
 15 16  1  0
 16 17  2  3
 17 18  1  0
 17 19  1  0
 19 20  2  0
 19 21  1  0
 20 22  1  0
 21 23  2  0
 23 24  1  0
 22 25  2  0
 23 25  1  0
 24 26  1  0
 26 27  2  0
 26 28  1  0
 28 29  1  0
 28 30  2  0
 30 31  1  0
 29 32  2  0
 31 32  1  0
 31 33  1  0
M  CHG  1  18  -1
M  END
