x0598_0_A_α-x0091_0_B_α
     RDKit          3D

 28 30  0  0  0  0  0  0  0  0999 V2000
    9.8630   24.8990   15.4530 N   0  0  0  0  0  0  0  0  0  0  0  0
    9.0640   25.7530   16.3370 C   0  0  0  0  0  0  0  0  0  0  0  0
    7.7040   25.1930   16.8610 C   0  0  0  0  0  0  0  0  0  0  0  0
   10.9860   23.7300   15.9360 S   0  0  1  0  0  0  0  0  0  0  0  0
   11.4460   22.4730   14.7900 C   0  0  0  0  0  0  0  0  0  0  0  0
   12.2750   24.4940   15.9180 N   0  0  0  0  0  0  0  0  0  0  0  0
   10.3320   23.1160   17.0500 O   0  0  0  0  0  0  0  0  0  0  0  0
   13.3010   23.8380   15.0570 C   0  0  0  0  0  0  0  0  0  0  0  0
    6.5650   25.1890   15.8110 C   0  0  0  0  0  0  0  0  0  0  0  0
    7.2600   26.0950   18.0340 C   0  0  0  0  0  0  0  0  0  0  0  0
   13.3200   22.2610   15.1780 C   0  0  0  0  0  0  0  0  0  0  0  0
    5.1320   24.9940   16.2690 C   0  0  0  0  0  0  0  0  0  0  0  0
    5.8500   26.6770   17.8450 C   0  0  0  0  0  0  0  0  0  0  0  0
   13.1550   21.4440   13.9240 N   0  0  0  0  0  0  0  0  0  0  0  0
    4.7930   25.7670   17.4370 N   0  0  0  0  0  0  0  0  0  0  0  0
   12.4710   20.1300   13.9740 C   0  0  0  0  0  0  0  0  0  0  0  0
   13.8460   21.7140   12.7560 C   0  0  0  0  0  0  0  0  0  0  0  0
   14.1020   20.8650   11.9110 O   0  0  0  0  0  0  0  0  0  0  0  0
   14.2180   23.0310   12.6250 N   0  0  0  0  0  0  0  0  0  0  0  0
   13.3100   18.9990   14.4970 C   0  0  0  0  0  0  0  0  0  0  0  0
   12.7560   17.9410   15.1100 N   0  0  0  0  0  0  0  0  0  0  0  0
   14.7200   18.8610   14.4430 C   0  0  0  0  0  0  0  0  0  0  0  0
   15.3920   23.4410   11.9190 C   0  0  0  0  0  0  0  0  0  0  0  0
   13.8030   17.1070   15.4600 O   0  0  0  0  0  0  0  0  0  0  0  0
   14.9740   17.6600   15.0610 C   0  0  0  0  0  0  0  0  0  0  0  0
   16.7590   23.1510   12.4740 C   0  0  0  0  0  0  0  0  0  0  0  0
   16.2340   24.5530   12.4790 C   0  0  0  0  0  0  0  0  0  0  0  0
   16.2030   16.9040   15.3560 C   0  0  0  0  0  0  0  0  0  0  0  0
  1  2  1  0
  2  3  1  0
  4  1  1  0
  4  5  1  6
  4  6  2  0
  4  7  2  0
  6  8  1  0
  3  9  1  0
  3 10  1  0
  8 11  1  0
  9 12  1  0
 10 13  1  0
 11 14  1  0
 12 15  1  0
 13 15  1  0
 14 16  1  0
 14 17  1  0
 17 18  2  0
 17 19  1  0
 16 20  1  0
 20 21  2  0
 20 22  1  0
 19 23  1  0
 21 24  1  0
 22 25  2  0
 24 25  1  0
 23 26  1  0
 23 27  1  0
 26 27  1  0
 25 28  1  0
M  END
