x0591_0_A_α-x0849_0_A_α
     RDKit          3D

 25 27  0  0  0  0  0  0  0  0999 V2000
   -6.3940   14.2100    0.4470 N   0  0  0  0  0  0  0  0  0  0  0  0
   -7.0340   14.4460    1.7230 C   0  0  0  0  0  0  0  0  0  0  0  0
   -6.9430   14.6250   -0.7580 C   0  0  0  0  0  0  0  0  0  0  0  0
   -8.1080   14.9510   -0.8940 O   0  0  0  0  0  0  0  0  0  0  0  0
   -5.9960   14.6550   -1.9140 C   0  0  0  0  0  0  0  0  0  0  0  0
   -4.6980   14.8990   -1.6610 C   0  0  0  0  0  0  0  0  0  0  0  0
   -6.3650   14.4460   -3.2500 C   0  0  0  0  0  0  0  0  0  0  0  0
   -3.7730   14.9380   -2.6700 C   0  0  0  0  0  0  0  0  0  0  0  0
   -5.3930   14.4780   -4.2880 C   0  0  0  0  0  0  0  0  0  0  0  0
   -2.6120   15.2050   -2.1980 O   0  0  0  0  0  0  0  0  0  0  0  0
   -4.0530   14.7280   -3.9820 C   0  0  0  0  0  0  0  0  0  0  0  0
   -2.7730   14.7700   -5.2220 S   0  0  0  0  0  0  0  0  0  0  0  0
   -2.9110   15.2260   -0.8670 C   0  0  0  0  0  0  0  0  0  0  0  0
   -1.5690   15.7820   -4.6130 N   0  0  0  0  0  0  0  0  0  0  0  0
   -2.1770   13.4530   -5.2840 O   0  0  0  0  0  0  0  0  0  0  0  0
   -3.3020   15.4210   -6.3920 O   0  0  0  0  0  0  0  0  0  0  0  0
   -1.9300   14.7880   -0.0750 C   0  0  0  0  0  0  0  0  0  0  0  0
   -4.1300   15.6600   -0.3390 C   0  0  0  0  0  0  0  0  0  0  0  0
   -2.1520   14.7680    1.2850 C   0  0  0  0  0  0  0  0  0  0  0  0
   -4.2490   15.5980    1.0260 C   0  0  0  0  0  0  0  0  0  0  0  0
   -0.7350   14.3760   -0.6180 C   0  0  0  0  0  0  0  0  0  0  0  0
   -3.2810   15.1610    1.8240 N   0  0  0  0  0  0  0  0  0  0  0  0
   -1.2300   14.3520    2.0790 N   0  0  0  0  0  0  0  0  0  0  0  0
    0.2210   13.9450    0.2180 C   0  0  0  0  0  0  0  0  0  0  0  0
   -0.0820   13.9510    1.5660 C   0  0  0  0  0  0  0  0  0  0  0  0
  1  2  1  0
  1  3  1  0
  3  4  2  0
  3  5  1  0
  5  6  2  0
  5  7  1  0
  6  8  1  0
  7  9  2  0
  8 10  1  0
  8 11  2  0
  9 11  1  0
 11 12  1  0
 10 13  1  0
 12 14  1  0
 12 15  2  0
 12 16  2  0
 13 17  1  0
 13 18  2  0
 17 19  2  0
 18 20  1  0
 17 21  1  0
 19 22  1  0
 20 22  2  0
 19 23  1  0
 21 24  2  0
 23 25  2  0
 24 25  1  0
M  END
