x0592_0_A-x0805_0_A
     RDKit          3D

 26 28  0  0  0  0  0  0  0  0999 V2000
   -3.0950   13.8650    1.1870 N   0  0  0  0  0  0  0  0  0  0  0  0
   -3.5220   14.7000    0.0940 C   0  0  2  0  0  0  0  0  0  0  0  0
   -2.9840   15.9170    0.3860 O   0  0  0  0  0  0  0  0  0  0  0  0
   -4.9890   14.7900   -0.0300 C   0  0  0  0  0  0  0  0  0  0  0  0
   -3.1620   14.1690   -1.2730 C   0  0  0  0  0  0  0  0  0  0  0  0
   -5.7700   15.2300   -1.1360 C   0  0  0  0  0  0  0  0  0  0  0  0
   -5.9190   14.4550    0.9130 C   0  0  0  0  0  0  0  0  0  0  0  0
   -4.1390   13.4280   -1.9500 C   0  0  0  0  0  0  0  0  0  0  0  0
   -1.9120   14.3660   -1.9080 C   0  0  0  0  0  0  0  0  0  0  0  0
   -7.0790   15.1680   -0.8960 N   0  0  0  0  0  0  0  0  0  0  0  0
   -7.1310   14.6940    0.3640 N   0  0  0  0  0  0  0  0  0  0  0  0
   -3.9030   12.9010   -3.2020 C   0  0  0  0  0  0  0  0  0  0  0  0
   -1.6650   13.8270   -3.1830 C   0  0  0  0  0  0  0  0  0  0  0  0
   -8.3870   14.4770    1.0350 C   0  0  0  0  0  0  0  0  0  0  0  0
   -2.6790   13.0980   -3.8150 C   0  0  0  0  0  0  0  0  0  0  0  0
   -0.3480   13.9810   -3.9240 C   0  0  2  0  0  0  0  0  0  0  0  0
   -8.1220   14.0950    2.4910 C   0  0  0  0  0  0  0  0  0  0  0  0
    0.8110   13.2940   -3.2240 C   0  0  1  0  0  0  0  0  0  0  0  0
    0.1240   15.4080   -4.1690 C   0  0  0  0  0  0  0  0  0  0  0  0
   -7.3120   15.0700    3.1570 O   0  0  0  0  0  0  0  0  0  0  0  0
    0.4530   12.1420   -2.3580 C   0  0  0  0  0  0  0  0  0  0  0  0
    1.8240   12.9720   -4.2640 C   0  0  0  0  0  0  0  0  0  0  0  0
    1.6300   15.4370   -4.4360 C   0  0  0  0  0  0  0  0  0  0  0  0
    0.2630   10.9600   -2.9780 O   0  0  0  0  0  0  0  0  0  0  0  0
    0.3330   12.2580   -1.1620 O   0  0  0  0  0  0  0  0  0  0  0  0
    2.2720   14.1930   -4.8140 O   0  0  0  0  0  0  0  0  0  0  0  0
  2  1  1  1
  2  3  1  0
  2  4  1  0
  2  5  1  0
  4  6  1  0
  4  7  2  0
  5  8  2  0
  5  9  1  0
  6 10  2  0
  7 11  1  0
 10 11  1  0
  8 12  1  0
  9 13  2  0
 11 14  1  0
 12 15  2  0
 13 15  1  0
 16 13  1  1
 14 17  1  0
 16 18  1  0
 16 19  1  0
 17 20  1  0
 18 21  1  6
 18 22  1  0
 19 23  1  0
 21 24  1  0
 21 25  2  0
 22 26  1  0
 23 26  1  0
M  END
