x0592_0_A-x0689_0_A
     RDKit          3D

 16 17  0  0  0  0  0  0  0  0999 V2000
   -3.8220   15.5080   -1.4130 C   0  0  0  0  0  0  0  0  0  0  0  0
   -2.6460   15.0300   -1.2630 N   0  0  0  0  0  0  0  0  0  0  0  0
   -2.3440   14.0060   -0.4750 N   0  0  0  0  0  0  0  0  0  0  0  0
   -5.0940   15.1410   -0.8600 C   0  0  0  0  0  0  0  0  0  0  0  0
   -6.2240   15.1400   -1.6820 C   0  0  0  0  0  0  0  0  0  0  0  0
   -5.5870   14.7590    0.3910 C   0  0  0  0  0  0  0  0  0  0  0  0
   -7.3350   14.8080   -1.0670 N   0  0  0  0  0  0  0  0  0  0  0  0
   -6.9470   14.5820    0.1930 N   0  0  0  0  0  0  0  0  0  0  0  0
   -2.5480   14.3400    0.9460 C   0  0  0  0  0  0  0  0  0  0  0  0
   -1.0930   13.5100   -0.7860 C   0  0  0  0  0  0  0  0  0  0  0  0
   -8.0070   14.2030    1.1150 C   0  0  0  0  0  0  0  0  0  0  0  0
   -0.0200   13.9370   -0.1370 C   0  0  0  0  0  0  0  0  0  0  0  0
   -1.3600   14.5670    1.7610 N   0  0  0  0  0  0  0  0  0  0  0  0
   -7.5280   13.9010    2.5170 C   0  0  0  0  0  0  0  0  0  0  0  0
   -0.2260   14.9280    0.9440 C   0  0  0  0  0  0  0  0  0  0  0  0
   -6.9750   15.0580    3.1220 O   0  0  0  0  0  0  0  0  0  0  0  0
  1  2  2  3
  2  3  1  0
  1  4  1  0
  4  5  1  0
  4  6  2  0
  5  7  2  0
  6  8  1  0
  7  8  1  0
  3  9  1  0
  3 10  1  0
  8 11  1  0
 10 12  2  0
  9 13  1  0
 11 14  1  0
 12 15  1  0
 13 15  1  0
 14 16  1  0
M  END
