x0598_0_A-x0091_0_B
     RDKit          3D

 28 30  0  0  0  0  0  0  0  0999 V2000
    9.9600   24.9450   15.5970 N   0  0  0  0  0  0  0  0  0  0  0  0
    9.1140   25.6540   16.5710 C   0  0  0  0  0  0  0  0  0  0  0  0
    7.7900   24.9590   16.9930 C   0  0  0  0  0  0  0  0  0  0  0  0
   11.0330   23.6790   15.9640 S   0  0  1  0  0  0  0  0  0  0  0  0
   11.4610   22.5220   14.7090 C   0  0  0  0  0  0  0  0  0  0  0  0
   12.3520   24.3870   16.0500 N   0  0  0  0  0  0  0  0  0  0  0  0
   10.3590   22.9890   17.0180 O   0  0  0  0  0  0  0  0  0  0  0  0
   13.4200   23.7200   15.2490 C   0  0  0  0  0  0  0  0  0  0  0  0
    6.6600   25.1740   15.9530 C   0  0  0  0  0  0  0  0  0  0  0  0
    7.3430   25.4730   18.3680 C   0  0  0  0  0  0  0  0  0  0  0  0
   13.3430   22.1400   15.2750 C   0  0  0  0  0  0  0  0  0  0  0  0
    5.2120   24.9960   16.3880 C   0  0  0  0  0  0  0  0  0  0  0  0
    6.0100   26.2130   18.3060 C   0  0  0  0  0  0  0  0  0  0  0  0
   13.1550   21.4020   13.9740 N   0  0  0  0  0  0  0  0  0  0  0  0
    4.9080   25.4850   17.7130 N   0  0  0  0  0  0  0  0  0  0  0  0
   12.4790   20.0820   13.9750 C   0  0  0  0  0  0  0  0  0  0  0  0
   13.8440   21.7140   12.8120 C   0  0  0  0  0  0  0  0  0  0  0  0
   14.0900   20.8950   11.9340 O   0  0  0  0  0  0  0  0  0  0  0  0
   14.2290   23.0310   12.7260 N   0  0  0  0  0  0  0  0  0  0  0  0
   13.3170   18.9570   14.5040 C   0  0  0  0  0  0  0  0  0  0  0  0
   12.7620   17.8990   15.1200 N   0  0  0  0  0  0  0  0  0  0  0  0
   14.7260   18.8170   14.4550 C   0  0  0  0  0  0  0  0  0  0  0  0
   15.3640   23.4500   11.9670 C   0  0  0  0  0  0  0  0  0  0  0  0
   13.8080   17.0680   15.4750 O   0  0  0  0  0  0  0  0  0  0  0  0
   14.9830   17.6210   15.0760 C   0  0  0  0  0  0  0  0  0  0  0  0
   16.7580   23.1560   12.4500 C   0  0  0  0  0  0  0  0  0  0  0  0
   16.2330   24.5580   12.4930 C   0  0  0  0  0  0  0  0  0  0  0  0
   16.2080   16.8660   15.3780 C   0  0  0  0  0  0  0  0  0  0  0  0
  1  2  1  0
  2  3  1  0
  4  1  1  0
  4  5  1  6
  4  6  2  0
  4  7  2  0
  6  8  1  0
  3  9  1  0
  3 10  1  0
  8 11  1  0
  9 12  1  0
 10 13  1  0
 11 14  1  0
 12 15  1  0
 13 15  1  0
 14 16  1  0
 14 17  1  0
 17 18  2  0
 17 19  1  0
 16 20  1  0
 20 21  2  0
 20 22  1  0
 19 23  1  0
 21 24  1  0
 22 25  2  0
 24 25  1  0
 23 26  1  0
 23 27  1  0
 26 27  1  0
 25 28  1  0
M  END
