x0592_0_A_α-x0900_1_A_α
     RDKit          3D

 22 23  0  0  0  0  0  0  0  0999 V2000
   -2.8560   15.1610    1.1680 N   0  0  0  0  0  0  0  0  0  0  0  0
   -3.2240   14.7160   -0.0680 C   0  0  0  0  0  0  0  0  0  0  0  0
   -2.4640   14.2610   -1.0020 N   0  0  0  0  0  0  0  0  0  0  0  0
   -4.6620   14.7880   -0.2650 C   0  0  0  0  0  0  0  0  0  0  0  0
   -2.9940   13.7840   -2.2770 C   0  0  0  0  0  0  0  0  0  0  0  0
   -5.4560   15.1300   -1.3900 C   0  0  0  0  0  0  0  0  0  0  0  0
   -5.6010   14.5110    0.7080 C   0  0  0  0  0  0  0  0  0  0  0  0
   -2.1020   12.6170   -2.7440 C   0  0  0  0  0  0  0  0  0  0  0  0
   -6.7710   15.0690   -1.1380 N   0  0  0  0  0  0  0  0  0  0  0  0
   -6.8250   14.6910    0.1520 N   0  0  0  0  0  0  0  0  0  0  0  0
   -8.0930   14.5110    0.8240 C   0  0  0  0  0  0  0  0  0  0  0  0
   -2.6850   11.6980   -3.8320 C   0  0  0  0  0  0  0  0  0  0  0  0
   -7.9040   14.0700    2.2710 C   0  0  0  0  0  0  0  0  0  0  0  0
   -2.0460   10.3010   -3.9750 C   0  0  0  0  0  0  0  0  0  0  0  0
   -7.1330   15.0220    3.0030 O   0  0  0  0  0  0  0  0  0  0  0  0
   -1.1390   10.0370   -5.2020 C   0  0  0  0  0  0  0  0  0  0  0  0
   -1.5240    8.9560   -6.2510 C   0  0  1  0  0  0  0  0  0  0  0  0
   -2.1060    9.5280   -7.5590 C   0  0  0  0  0  0  0  0  0  0  0  0
   -0.3680    8.1020   -6.7540 C   0  0  0  0  0  0  0  0  0  0  0  0
    0.0820    8.8020   -7.9200 N   0  0  0  0  0  0  0  0  0  0  0  0
   -0.9480    9.4760   -8.5280 C   0  0  0  0  0  0  0  0  0  0  0  0
   -0.9190    9.9440   -9.6530 O   0  0  0  0  0  0  0  0  0  0  0  0
  1  2  1  0
  2  3  2  3
  2  4  1  0
  3  5  1  0
  4  6  1  0
  4  7  2  0
  5  8  1  0
  6  9  2  0
  7 10  1  0
  9 10  1  0
 10 11  1  0
  8 12  1  0
 11 13  1  0
 12 14  1  0
 13 15  1  0
 14 16  1  0
 17 16  1  1
 17 18  1  0
 17 19  1  0
 19 20  1  0
 18 21  1  0
 20 21  1  0
 21 22  2  0
M  END
