x0591_0_A-x0128_0_A
     RDKit          3D

 29 31  0  0  0  0  0  0  0  0999 V2000
   -7.1970   13.5590    0.6020 N   0  0  0  0  0  0  0  0  0  0  0  0
   -7.2730   14.7290    1.4580 C   0  0  1  0  0  0  0  0  0  0  0  0
   -7.9320   14.6880    2.9030 C   0  0  0  0  0  0  0  0  0  0  0  0
   -7.0890   13.7950   -0.7770 C   0  0  0  0  0  0  0  0  0  0  0  0
   -8.1500   13.9480   -1.3520 O   0  0  0  0  0  0  0  0  0  0  0  0
   -5.8460   13.9400   -1.6570 C   0  0  0  0  0  0  0  0  0  0  0  0
   -5.9450   15.0550    0.8990 C   0  0  0  0  0  0  0  0  0  0  0  0
   -9.0000   14.1100    2.9680 O   0  0  0  0  0  0  0  0  0  0  0  0
   -7.3980   15.3280    4.0200 N   0  0  0  0  0  0  0  0  0  0  0  0
   -4.5240   13.5530   -1.3040 C   0  0  0  0  0  0  0  0  0  0  0  0
   -6.0540   14.5030   -2.9310 C   0  0  0  0  0  0  0  0  0  0  0  0
   -6.1170   15.4070   -0.4340 C   0  0  0  0  0  0  0  0  0  0  0  0
   -4.6760   15.0290    1.4560 C   0  0  0  0  0  0  0  0  0  0  0  0
   -3.4550   13.7300   -2.2380 C   0  0  0  0  0  0  0  0  0  0  0  0
   -5.0040   14.6680   -3.8400 C   0  0  0  0  0  0  0  0  0  0  0  0
   -8.2050   15.9770    5.0330 C   0  0  0  0  0  0  0  0  0  0  0  0
   -5.0690   15.7160   -1.2280 C   0  0  0  0  0  0  0  0  0  0  0  0
   -3.5970   15.3460    0.6340 C   0  0  0  0  0  0  0  0  0  0  0  0
   -3.7130   14.2850   -3.5110 C   0  0  0  0  0  0  0  0  0  0  0  0
   -8.9590   17.1120    4.6910 C   0  0  0  0  0  0  0  0  0  0  0  0
   -8.3160   15.5680    6.3670 C   0  0  0  0  0  0  0  0  0  0  0  0
   -3.8120   15.6780   -0.7050 C   0  0  0  0  0  0  0  0  0  0  0  0
   -2.4530   14.5120   -4.7620 S   0  0  0  0  0  0  0  0  0  0  0  0
   -9.7600   17.8190    5.5350 N   0  0  0  0  0  0  0  0  0  0  0  0
   -9.1370   16.2780    7.2630 C   0  0  0  0  0  0  0  0  0  0  0  0
   -1.3370   15.5800   -4.1130 N   0  0  0  0  0  0  0  0  0  0  0  0
   -1.7480   13.2650   -4.9380 O   0  0  0  0  0  0  0  0  0  0  0  0
   -3.0400   15.2080   -5.8870 O   0  0  0  0  0  0  0  0  0  0  0  0
   -9.8300   17.3860    6.8040 C   0  0  0  0  0  0  0  0  0  0  0  0
  2  1  1  1
  2  3  1  0
  1  4  1  0
  4  5  2  0
  4  6  1  0
  2  7  1  0
  3  8  2  0
  3  9  1  0
  6 10  2  0
  6 11  1  0
  7 12  2  0
  7 13  1  0
 10 14  1  0
 11 15  2  0
  9 16  1  0
 12 17  1  0
 13 18  2  0
 14 19  2  0
 15 19  1  0
 16 20  2  0
 16 21  1  0
 17 22  2  0
 18 22  1  0
 19 23  1  0
 20 24  1  0
 21 25  2  0
 23 26  1  0
 23 27  2  0
 23 28  2  0
 24 29  2  0
 25 29  1  0
M  END
