x0592_0_A-x0128_0_A
     RDKit          3D

 19 21  0  0  0  0  0  0  0  0999 V2000
   -3.1590   14.9150    1.5000 N   0  0  0  0  0  0  0  0  0  0  0  0
   -3.5660   14.9300    0.2040 C   0  0  0  0  0  0  0  0  0  0  0  0
   -2.7390   14.9850   -0.7080 O   0  0  0  0  0  0  0  0  0  0  0  0
   -4.9930   14.8600   -0.0270 C   0  0  0  0  0  0  0  0  0  0  0  0
   -5.6750   14.7770   -1.2660 C   0  0  0  0  0  0  0  0  0  0  0  0
   -6.0400   14.8560    0.9190 C   0  0  0  0  0  0  0  0  0  0  0  0
   -6.1330   14.9260    2.2980 N   0  0  0  0  0  0  0  0  0  0  0  0
   -7.0010   14.7170   -1.1440 N   0  0  0  0  0  0  0  0  0  0  0  0
   -7.1890   14.7640    0.1840 N   0  0  0  0  0  0  0  0  0  0  0  0
   -7.3850   15.2230    2.8960 N   0  0  0  0  0  0  0  0  0  0  0  0
   -8.5160   14.7230    0.7680 C   0  0  0  0  0  0  0  0  0  0  0  0
   -8.4190   14.4120    2.2600 C   0  0  0  0  0  0  0  0  0  0  0  0
   -7.4060   15.1680    4.3150 N   0  0  0  0  0  0  0  0  0  0  0  0
   -8.2750   15.9870    5.1230 C   0  0  0  0  0  0  0  0  0  0  0  0
   -8.9750   17.1280    4.7030 C   0  0  0  0  0  0  0  0  0  0  0  0
   -8.4650   15.6420    6.4710 C   0  0  0  0  0  0  0  0  0  0  0  0
   -9.7900   17.8900    5.4850 N   0  0  0  0  0  0  0  0  0  0  0  0
   -9.2990   16.4010    7.2990 C   0  0  0  0  0  0  0  0  0  0  0  0
   -9.9320   17.5090    6.7650 C   0  0  0  0  0  0  0  0  0  0  0  0
  1  2  1  0
  2  3  2  0
  2  4  1  0
  4  5  1  0
  4  6  2  0
  6  7  1  0
  5  8  2  0
  6  9  1  0
  8  9  1  0
  7 10  1  0
  9 11  1  0
 10 12  1  0
 11 12  1  0
 10 13  1  0
 13 14  1  0
 14 15  2  0
 14 16  1  0
 15 17  1  0
 16 18  2  0
 17 19  2  0
 18 19  1  0
M  END
