x0598_0_A-x0228_1_A
     RDKit          3D

 25 26  0  0  0  0  0  0  0  0999 V2000
    8.8940   26.2050   15.8940 N   0  0  0  0  0  0  0  0  0  0  0  0
    8.2430   25.9760   17.2170 C   0  0  0  0  0  0  0  0  0  0  0  0
    7.1850   24.8470   17.1910 C   0  0  1  0  0  0  0  0  0  0  0  0
    9.2640   24.8030   15.1420 S   0  0  0  0  0  0  0  0  0  0  0  0
    9.6510   24.0310   16.7080 C   0  0  0  0  0  0  0  0  0  0  0  0
   10.4650   24.7020   14.3500 O   0  0  0  0  0  0  0  0  0  0  0  0
    7.9580   24.5380   14.5760 O   0  0  0  0  0  0  0  0  0  0  0  0
    6.2180   24.8480   18.3780 C   0  0  0  0  0  0  0  0  0  0  0  0
    6.2990   25.0610   15.9910 C   0  0  0  0  0  0  0  0  0  0  0  0
    4.8270   24.3020   17.9660 C   0  0  0  0  0  0  0  0  0  0  0  0
    5.0540   25.8230   16.3520 C   0  0  1  0  0  0  0  0  0  0  0  0
    4.1840   26.0380   15.3200 N   0  0  0  0  0  0  0  0  0  0  0  0
    4.1370   25.2450   17.2670 N   0  0  0  0  0  0  0  0  0  0  0  0
    3.3880   27.0080   15.7500 C   0  0  0  0  0  0  0  0  0  0  0  0
    2.0900   26.6730   15.6590 N   0  0  0  0  0  0  0  0  0  0  0  0
    3.8540   28.0490   16.1910 O   0  0  0  0  0  0  0  0  0  0  0  0
    1.1430   27.6680   15.6000 C   0  0  0  0  0  0  0  0  0  0  0  0
   -0.1260   27.3430   15.1200 C   0  0  0  0  0  0  0  0  0  0  0  0
    1.4570   28.9600   16.0030 C   0  0  0  0  0  0  0  0  0  0  0  0
   -0.2960   26.0210   14.7630 O   0  0  0  0  0  0  0  0  0  0  0  0
   -1.0810   28.3540   15.0450 C   0  0  0  0  0  0  0  0  0  0  0  0
    0.5150   29.9690   15.9340 C   0  0  0  0  0  0  0  0  0  0  0  0
   -1.6130   25.6060   14.4250 C   0  0  0  0  0  0  0  0  0  0  0  0
    0.8870   31.3530   16.3740 C   0  0  0  0  0  0  0  0  0  0  0  0
   -0.7600   29.6600   15.4500 C   0  0  0  0  0  0  0  0  0  0  0  0
  1  2  1  0
  3  2  1  1
  4  1  1  0
  4  5  1  0
  4  6  2  0
  4  7  2  0
  3  8  1  0
  3  9  1  0
  8 10  1  0
  9 11  1  0
 11 12  1  6
 10 13  1  0
 11 13  1  0
 12 14  1  0
 14 15  1  0
 14 16  2  0
 15 17  1  0
 17 18  2  0
 17 19  1  0
 18 20  1  0
 18 21  1  0
 19 22  2  0
 20 23  1  0
 22 24  1  0
 21 25  2  0
 22 25  1  0
M  END
