x0591_0_A-x0438_0_A
     RDKit          3D

 27 29  0  0  0  0  0  0  0  0999 V2000
   -5.5790   14.0460   -1.1440 N   0  0  0  0  0  0  0  0  0  0  0  0
   -6.5930   14.2400   -2.0400 C   0  0  0  0  0  0  0  0  0  0  0  0
   -7.7040   14.5530   -1.4260 N   0  0  0  0  0  0  0  0  0  0  0  0
   -6.1030   14.0420   -3.4260 C   0  0  0  0  0  0  0  0  0  0  0  0
   -4.7550   13.6590   -3.4670 C   0  0  0  0  0  0  0  0  0  0  0  0
   -6.8290   14.2180   -4.6010 C   0  0  0  0  0  0  0  0  0  0  0  0
   -7.2400   14.6830   -0.1600 N   0  0  0  0  0  0  0  0  0  0  0  0
   -4.1170   13.4550   -4.6700 C   0  0  0  0  0  0  0  0  0  0  0  0
   -6.1850   14.0130   -5.8290 C   0  0  0  0  0  0  0  0  0  0  0  0
   -7.8130   14.5890    1.1100 C   0  0  0  0  0  0  0  0  0  0  0  0
   -5.9080   14.9930    0.0030 C   0  0  0  0  0  0  0  0  0  0  0  0
   -4.8300   13.6340   -5.8470 C   0  0  0  0  0  0  0  0  0  0  0  0
   -6.8810   14.8170    2.0370 N   0  0  0  0  0  0  0  0  0  0  0  0
   -5.6980   15.0750    1.3540 C   0  0  0  0  0  0  0  0  0  0  0  0
   -4.8870   15.2070   -0.9410 C   0  0  0  0  0  0  0  0  0  0  0  0
   -9.2520   14.2870    1.3940 C   0  0  0  0  0  0  0  0  0  0  0  0
   -3.9720   13.3740   -7.3730 S   0  0  0  0  0  0  0  0  0  0  0  0
   -3.6250   15.5010   -0.4810 C   0  0  0  0  0  0  0  0  0  0  0  0
   -4.3940   15.3990    1.7980 C   0  0  0  0  0  0  0  0  0  0  0  0
  -10.1220   15.6650    2.1860 S   0  0  0  0  0  0  0  0  0  0  0  0
   -2.4610   12.9040   -6.7970 N   0  0  0  0  0  0  0  0  0  0  0  0
   -4.5360   12.2130   -8.0180 O   0  0  0  0  0  0  0  0  0  0  0  0
   -3.8140   14.6420   -8.0320 O   0  0  0  0  0  0  0  0  0  0  0  0
   -3.3740   15.6000    0.8740 C   0  0  0  0  0  0  0  0  0  0  0  0
   -9.1320   16.0770    3.6090 C   0  0  0  0  0  0  0  0  0  0  0  0
  -11.3990   15.1760    2.7330 O   0  0  0  0  0  0  0  0  0  0  0  0
  -10.1320   16.8370    1.3290 O   0  0  0  0  0  0  0  0  0  0  0  0
  1  2  1  0
  2  3  2  3
  2  4  1  0
  4  5  2  0
  4  6  1  0
  3  7  1  0
  5  8  1  0
  6  9  2  0
  7 10  1  0
  7 11  1  0
  8 12  2  0
  9 12  1  0
 10 13  2  0
 11 14  2  0
 13 14  1  0
 11 15  1  0
 10 16  1  0
 12 17  1  0
 15 18  2  0
 14 19  1  0
 20 16  1  0
 17 21  1  0
 17 22  2  0
 17 23  2  0
 18 24  1  0
 19 24  2  0
 20 25  1  0
 20 26  2  0
 20 27  2  0
M  END
