x0592_0_A-x0626_0_A
     RDKit          3D

 20 21  0  0  0  0  0  0  0  0999 V2000
   -3.1410   12.9900   -0.9510 N   0  0  0  0  0  0  0  0  0  0  0  0
   -3.7810   13.8070   -1.8410 C   0  0  0  0  0  0  0  0  0  0  0  0
   -3.1970   14.2900   -2.8020 O   0  0  0  0  0  0  0  0  0  0  0  0
   -5.1650   14.0620   -1.5050 C   0  0  0  0  0  0  0  0  0  0  0  0
   -6.1930   14.7010   -2.2360 C   0  0  0  0  0  0  0  0  0  0  0  0
   -5.7690   13.7120   -0.3260 C   0  0  0  0  0  0  0  0  0  0  0  0
   -7.3590   14.7570   -1.5580 N   0  0  0  0  0  0  0  0  0  0  0  0
   -7.0570   14.1540   -0.4020 N   0  0  0  0  0  0  0  0  0  0  0  0
   -7.9670   13.9920    0.7010 C   0  0  0  0  0  0  0  0  0  0  0  0
   -6.9690   14.1700    1.8380 C   0  0  2  0  0  0  0  0  0  0  0  0
   -7.4500   14.7160    3.0520 O   0  0  0  0  0  0  0  0  0  0  0  0
   -5.8170   14.9990    1.2080 C   0  0  0  0  0  0  0  0  0  0  0  0
   -4.7300   15.1320    2.0060 N   0  0  0  0  0  0  0  0  0  0  0  0
   -5.9090   15.4850    0.0810 O   0  0  0  0  0  0  0  0  0  0  0  0
   -3.5170   14.9660    1.4220 C   0  0  0  0  0  0  0  0  0  0  0  0
   -2.3860   14.5880    1.9450 N   0  0  0  0  0  0  0  0  0  0  0  0
   -3.5100   15.3030   -0.2380 S   0  0  0  0  0  0  0  0  0  0  0  0
   -1.8520   14.8830   -0.2930 C   0  0  0  0  0  0  0  0  0  0  0  0
   -1.4300   14.5380    0.9630 C   0  0  0  0  0  0  0  0  0  0  0  0
   -0.0830   14.1350    1.3390 C   0  0  0  0  0  0  0  0  0  0  0  0
  1  2  1  0
  2  3  2  0
  2  4  1  0
  4  5  1  0
  4  6  2  0
  5  7  2  0
  6  8  1  0
  7  8  1  0
  8  9  1  0
  9 10  1  0
 10 11  1  1
 10 12  1  0
 12 13  1  0
 12 14  2  0
 13 15  1  0
 15 16  2  0
 15 17  1  0
 17 18  1  0
 16 19  1  0
 18 19  2  0
 19 20  1  0
M  END
