x0598_0_A-x0228_1_A
     RDKit          3D

 25 26  0  0  0  0  0  0  0  0999 V2000
    8.7560   25.8750   15.4620 N   0  0  0  0  0  0  0  0  0  0  0  0
    8.6420   25.5500   16.8920 C   0  0  0  0  0  0  0  0  0  0  0  0
    7.4260   24.6700   17.1200 C   0  0  1  0  0  0  0  0  0  0  0  0
    9.7760   24.9880   14.4750 S   0  0  0  0  0  0  0  0  0  0  0  0
   10.4280   23.8210   15.6580 C   0  0  0  0  0  0  0  0  0  0  0  0
   10.8980   25.7350   14.0500 O   0  0  0  0  0  0  0  0  0  0  0  0
    8.8220   24.5470   13.4700 O   0  0  0  0  0  0  0  0  0  0  0  0
    6.6530   24.9100   18.4140 C   0  0  0  0  0  0  0  0  0  0  0  0
    6.4010   24.8390   15.9870 C   0  0  0  0  0  0  0  0  0  0  0  0
    5.1590   24.7540   18.1320 C   0  0  0  0  0  0  0  0  0  0  0  0
    5.4220   25.9610   16.2120 C   0  0  1  0  0  0  0  0  0  0  0  0
    4.2680   25.9090   15.4350 N   0  0  0  0  0  0  0  0  0  0  0  0
    4.7450   25.8940   17.4690 N   0  0  0  0  0  0  0  0  0  0  0  0
    3.4340   26.8580   15.8890 C   0  0  0  0  0  0  0  0  0  0  0  0
    2.1350   26.5790   15.6620 N   0  0  0  0  0  0  0  0  0  0  0  0
    3.8790   27.8500   16.4520 O   0  0  0  0  0  0  0  0  0  0  0  0
    1.2000   27.6000   15.6060 C   0  0  0  0  0  0  0  0  0  0  0  0
   -0.0730   27.2960   15.1190 C   0  0  0  0  0  0  0  0  0  0  0  0
    1.5230   28.8890   16.0180 C   0  0  0  0  0  0  0  0  0  0  0  0
   -0.2640   25.9770   14.7520 O   0  0  0  0  0  0  0  0  0  0  0  0
   -1.0190   28.3160   15.0430 C   0  0  0  0  0  0  0  0  0  0  0  0
    0.5870   29.9110   15.9490 C   0  0  0  0  0  0  0  0  0  0  0  0
   -1.5910   25.5770   14.4350 C   0  0  0  0  0  0  0  0  0  0  0  0
    0.9580   31.2910   16.3960 C   0  0  0  0  0  0  0  0  0  0  0  0
   -0.6900   29.6170   15.4560 C   0  0  0  0  0  0  0  0  0  0  0  0
  1  2  1  0
  3  2  1  6
  4  1  1  0
  4  5  1  0
  4  6  2  0
  4  7  2  0
  3  8  1  0
  3  9  1  0
  8 10  1  0
  9 11  1  0
 11 12  1  6
 10 13  1  0
 11 13  1  0
 12 14  1  0
 14 15  1  0
 14 16  2  0
 15 17  1  0
 17 18  2  0
 17 19  1  0
 18 20  1  0
 18 21  1  0
 19 22  2  0
 20 23  1  0
 22 24  1  0
 21 25  2  0
 22 25  1  0
M  END
