x0592_0_A_α-x0926_0_A_α
     RDKit          3D

 11 11  0  0  0  0  0  0  0  0999 V2000
   -2.7170   14.9140    1.0730 N   0  0  0  0  0  0  0  0  0  0  0  0
   -3.2620   14.9110   -0.1740 C   0  0  0  0  0  0  0  0  0  0  0  0
   -2.5510   14.9170   -1.1700 O   0  0  0  0  0  0  0  0  0  0  0  0
   -4.7070   14.8940   -0.2330 C   0  0  0  0  0  0  0  0  0  0  0  0
   -5.5230   15.1950   -1.3490 C   0  0  0  0  0  0  0  0  0  0  0  0
   -5.6080   14.5880    0.7630 C   0  0  0  0  0  0  0  0  0  0  0  0
   -6.8300   15.0830   -1.0800 N   0  0  0  0  0  0  0  0  0  0  0  0
   -6.8510   14.7130    0.2140 N   0  0  0  0  0  0  0  0  0  0  0  0
   -8.1150   14.4900    0.8970 C   0  0  0  0  0  0  0  0  0  0  0  0
   -7.8980   14.0700    2.3500 C   0  0  0  0  0  0  0  0  0  0  0  0
   -7.1990   15.0640    3.0960 O   0  0  0  0  0  0  0  0  0  0  0  0
  1  2  1  0
  2  3  2  0
  2  4  1  0
  4  5  1  0
  4  6  2  0
  5  7  2  0
  6  8  1  0
  7  8  1  0
  8  9  1  0
  9 10  1  0
 10 11  1  0
M  END
