x0592_0_A-x0724_0_A
     RDKit          3D

 23 24  0  0  0  0  0  0  0  0999 V2000
   -3.9660   14.1780    1.1790 N   0  0  0  0  0  0  0  0  0  0  0  0
   -3.3420   15.0920    0.2590 C   0  0  1  0  0  0  0  0  0  0  0  0
   -2.3630   14.3100   -0.4010 O   0  0  0  0  0  0  0  0  0  0  0  0
   -4.3070   15.6350   -0.7530 C   0  0  0  0  0  0  0  0  0  0  0  0
   -5.6200   15.4210   -0.9630 C   0  0  0  0  0  0  0  0  0  0  0  0
   -2.8040   13.6980   -1.6130 C   0  0  1  0  0  0  0  0  0  0  0  0
   -6.5930   14.6400   -0.3700 N   0  0  0  0  0  0  0  0  0  0  0  0
   -1.8210   12.5890   -1.8780 C   0  0  0  0  0  0  0  0  0  0  0  0
   -4.1660   12.9270   -1.5550 C   0  0  2  0  0  0  0  0  0  0  0  0
   -7.1490   14.9430    0.8920 N   0  0  0  0  0  0  0  0  0  0  0  0
   -4.5510   12.4760   -0.1950 N   0  0  0  0  0  0  0  0  0  0  0  0
   -3.9000   11.6650   -2.4150 C   0  0  0  0  0  0  0  0  0  0  0  0
   -2.4190   11.4740   -2.3180 C   0  0  0  0  0  0  0  0  0  0  0  0
   -8.4660   14.3030    1.1470 C   0  0  2  0  0  0  0  0  0  0  0  0
   -6.1900   14.7500    1.9900 C   0  0  0  0  0  0  0  0  0  0  0  0
   -5.7920   12.6320    0.3870 C   0  0  0  0  0  0  0  0  0  0  0  0
   -9.0070   14.5460    2.5910 C   0  0  0  0  0  0  0  0  0  0  0  0
   -7.0390   12.6340   -0.1050 C   0  0  0  0  0  0  0  0  0  0  0  0
   -8.3570   12.8450    0.5770 C   0  0  1  0  0  0  0  0  0  0  0  0
   -8.5360   11.7840    1.5810 N   0  0  0  0  0  0  0  0  0  0  0  0
   -8.7450   13.4870    3.6720 C   0  0  0  0  0  0  0  0  0  0  0  0
   -8.1760   14.0180    4.9170 N   0  0  0  0  0  0  0  0  0  0  0  0
   -8.2890   15.4670    5.0290 C   0  0  0  0  0  0  0  0  0  0  0  0
  2  1  1  1
  2  3  1  0
  2  4  1  0
  4  5  2  0
  3  6  1  0
  5  7  1  0
  6  8  1  1
  6  9  1  0
  7 10  1  0
  9 11  1  0
  9 12  1  6
  8 13  2  0
 12 13  1  0
 10 14  1  0
 10 15  1  0
 11 16  1  0
 14 17  1  1
 16 18  2  0
 14 19  1  0
 18 19  1  0
 19 20  1  1
 17 21  1  0
 21 22  1  0
 22 23  1  0
M  END
