x0598_0_A-x0423_0_B
     RDKit          3D

 27 29  0  0  0  0  0  0  0  0999 V2000
    9.5020   23.9850   16.8080 N   0  0  0  0  0  0  0  0  0  0  0  0
    9.0920   25.0950   17.6710 C   0  0  0  0  0  0  0  0  0  0  0  0
    7.6700   25.7100   17.4640 C   0  0  0  0  0  0  0  0  0  0  0  0
   11.0690   23.3140   16.6580 S   0  0  1  0  0  0  0  0  0  0  0  0
   11.0350   21.5850   17.0930 C   0  0  0  0  0  0  0  0  0  0  0  0
   11.6340   23.4260   15.2170 N   0  0  0  0  0  0  0  0  0  0  0  0
   11.6640   24.0110   17.7230 O   0  0  0  0  0  0  0  0  0  0  0  0
   11.5650   22.1900   14.4260 C   0  0  0  0  0  0  0  0  0  0  0  0
    6.9200   25.0250   16.3300 C   0  0  0  0  0  0  0  0  0  0  0  0
    6.8030   25.8310   18.7210 C   0  0  0  0  0  0  0  0  0  0  0  0
    5.3970   24.9540   16.3630 C   0  0  0  0  0  0  0  0  0  0  0  0
    5.4280   26.3580   18.3570 C   0  0  0  0  0  0  0  0  0  0  0  0
   12.6790   21.4400   13.8070 C   0  0  0  0  0  0  0  0  0  0  0  0
    4.6860   25.4280   17.5360 N   0  0  0  0  0  0  0  0  0  0  0  0
   12.4970   20.0530   13.8950 C   0  0  0  0  0  0  0  0  0  0  0  0
   13.8080   21.9360   13.1670 C   0  0  0  0  0  0  0  0  0  0  0  0
   14.0610   23.3100   13.0250 N   0  0  0  0  0  0  0  0  0  0  0  0
   13.4250   19.2150   13.3540 C   0  0  0  0  0  0  0  0  0  0  0  0
   14.6910   21.0460   12.6540 N   0  0  0  0  0  0  0  0  0  0  0  0
   13.6310   24.1790   14.1430 C   0  0  0  0  0  0  0  0  0  0  0  0
   15.3190   23.5720   12.2950 C   0  0  0  0  0  0  0  0  0  0  0  0
   14.5100   19.6870   12.7390 N   0  0  0  0  0  0  0  0  0  0  0  0
   14.7320   25.0020   14.8690 C   0  0  2  0  0  0  0  0  0  0  0  0
   16.2080   24.6540   12.9090 C   0  0  0  0  0  0  0  0  0  0  0  0
   14.4670   26.4470   14.7690 N   0  0  0  0  0  0  0  0  0  0  0  0
   16.1330   24.5860   14.4190 C   0  0  0  0  0  0  0  0  0  0  0  0
   13.1450   26.8430   15.2230 C   0  0  0  0  0  0  0  0  0  0  0  0
  1  2  1  0
  2  3  1  0
  4  1  1  0
  4  5  1  1
  4  6  2  0
  4  7  2  0
  6  8  1  0
  3  9  1  0
  3 10  1  0
  9 11  1  0
 10 12  1  0
  8 13  1  0
 11 14  1  0
 12 14  1  0
 13 15  2  0
 13 16  1  0
 16 17  1  0
 15 18  1  0
 16 19  2  0
 17 20  1  0
 17 21  1  0
 18 22  2  0
 19 22  1  0
 20 23  1  0
 21 24  1  0
 23 25  1  6
 23 26  1  0
 24 26  1  0
 25 27  1  0
M  END
