x0591_0_A-x0282_0_A
     RDKit          3D

 26 28  0  0  0  0  0  0  0  0999 V2000
   -7.4010   13.6230   -0.0280 N   0  0  0  0  0  0  0  0  0  0  0  0
   -7.1560   14.1200    1.2740 C   0  0  0  0  0  0  0  0  0  0  0  0
   -5.7400   14.5020    1.0930 C   0  0  0  0  0  0  0  0  0  0  0  0
   -7.0990   14.3940   -1.1180 C   0  0  0  0  0  0  0  0  0  0  0  0
   -7.9220   15.2360   -1.4260 O   0  0  0  0  0  0  0  0  0  0  0  0
   -5.8470   14.3210   -1.9660 C   0  0  0  0  0  0  0  0  0  0  0  0
   -4.5830   13.8120   -1.5510 C   0  0  0  0  0  0  0  0  0  0  0  0
   -5.9690   14.8020   -3.2560 C   0  0  0  0  0  0  0  0  0  0  0  0
   -4.9740   15.0090    2.2610 C   0  0  0  0  0  0  0  0  0  0  0  0
   -5.3950   15.2710   -0.1720 C   0  0  0  0  0  0  0  0  0  0  0  0
   -3.4830   13.8180   -2.4520 C   0  0  0  0  0  0  0  0  0  0  0  0
   -4.8940   14.8000   -4.1360 C   0  0  0  0  0  0  0  0  0  0  0  0
   -3.6140   14.3930    2.0750 C   0  0  0  0  0  0  0  0  0  0  0  0
   -3.9350   15.5500   -0.0940 C   0  0  0  0  0  0  0  0  0  0  0  0
   -3.6630   14.3230   -3.7510 C   0  0  0  0  0  0  0  0  0  0  0  0
   -3.3090   14.4670    0.6580 N   0  0  0  0  0  0  0  0  0  0  0  0
   -2.3880   14.3910   -4.9930 S   0  0  0  0  0  0  0  0  0  0  0  0
   -1.9980   14.5400    0.4220 C   0  0  0  0  0  0  0  0  0  0  0  0
   -1.2850   15.5280   -4.4210 N   0  0  0  0  0  0  0  0  0  0  0  0
   -1.6930   13.1280   -5.0040 O   0  0  0  0  0  0  0  0  0  0  0  0
   -2.9900   14.9540   -6.1800 O   0  0  0  0  0  0  0  0  0  0  0  0
   -1.5990   14.5510   -0.8460 N   0  0  0  0  0  0  0  0  0  0  0  0
   -1.2140   14.6100    1.4810 N   0  0  0  0  0  0  0  0  0  0  0  0
   -0.3050   14.6520   -1.0790 C   0  0  0  0  0  0  0  0  0  0  0  0
    0.0670   14.7140    1.1960 C   0  0  0  0  0  0  0  0  0  0  0  0
    0.5870   14.7440   -0.0820 C   0  0  0  0  0  0  0  0  0  0  0  0
  1  2  1  0
  2  3  1  0
  1  4  1  0
  4  5  2  0
  4  6  1  0
  6  7  2  0
  6  8  1  0
  3  9  1  0
  3 10  1  0
  7 11  1  0
  8 12  2  0
  9 13  1  0
 10 14  1  0
 11 15  2  0
 12 15  1  0
 13 16  1  0
 14 16  1  0
 15 17  1  0
 16 18  1  0
 17 19  1  0
 17 20  2  0
 17 21  2  0
 18 22  2  0
 18 23  1  0
 22 24  1  0
 23 25  2  0
 24 26  2  0
 25 26  1  0
M  END
