x0591_0_A_α-x0910_1_A_α
     RDKit          3D

 19 20  0  0  0  0  0  0  0  0999 V2000
   -6.4590   12.5540    0.0230 N   0  0  0  0  0  0  0  0  0  0  0  0
   -5.9760   13.1540    1.2490 C   0  0  0  0  0  0  0  0  0  0  0  0
   -5.3270   14.4180    0.8330 C   0  0  0  0  0  0  0  0  0  0  0  0
   -6.7970   13.3560   -1.0410 C   0  0  0  0  0  0  0  0  0  0  0  0
   -7.9370   13.7810   -1.1940 O   0  0  0  0  0  0  0  0  0  0  0  0
   -5.7240   13.7190   -2.0310 C   0  0  0  0  0  0  0  0  0  0  0  0
   -4.3690   13.5420   -1.6800 C   0  0  0  0  0  0  0  0  0  0  0  0
   -6.0400   14.2310   -3.2960 C   0  0  0  0  0  0  0  0  0  0  0  0
   -5.7810   15.1460   -0.1990 N   0  0  0  0  0  0  0  0  0  0  0  0
   -4.2250   14.9290    1.4520 N   0  0  0  0  0  0  0  0  0  0  0  0
   -3.3490   13.8730   -2.5880 C   0  0  0  0  0  0  0  0  0  0  0  0
   -5.0270   14.5560   -4.2010 C   0  0  0  0  0  0  0  0  0  0  0  0
   -4.9090   16.1470   -0.2160 N   0  0  0  0  0  0  0  0  0  0  0  0
   -3.9890   16.0150    0.7720 C   0  0  0  0  0  0  0  0  0  0  0  0
   -3.6880   14.3760   -3.8480 C   0  0  0  0  0  0  0  0  0  0  0  0
   -2.4310   14.7920   -5.0260 S   0  0  0  0  0  0  0  0  0  0  0  0
   -1.2420   15.5130   -4.0900 N   0  0  0  0  0  0  0  0  0  0  0  0
   -1.8460   13.5750   -5.5330 O   0  0  0  0  0  0  0  0  0  0  0  0
   -2.9300   15.8250   -5.9050 O   0  0  0  0  0  0  0  0  0  0  0  0
  1  2  1  0
  2  3  1  0
  1  4  1  0
  4  5  2  0
  4  6  1  0
  6  7  2  0
  6  8  1  0
  3  9  2  0
  3 10  1  0
  7 11  1  0
  8 12  2  0
  9 13  1  0
 10 14  2  0
 13 14  1  0
 11 15  2  0
 12 15  1  0
 15 16  1  0
 16 17  1  0
 16 18  2  0
 16 19  2  0
M  END
