x0598_0_A-x0933_1_A
     RDKit          3D

 13 13  0  0  0  0  0  0  0  0999 V2000
    9.4040   24.7640   16.1300 N   0  0  0  0  0  0  0  0  0  0  0  0
    8.6570   24.7470   17.3930 C   0  0  0  0  0  0  0  0  0  0  0  0
    7.1710   24.9810   17.0340 C   0  0  1  0  0  0  0  0  0  0  0  0
   10.8880   23.9950   15.8720 S   0  0  0  0  0  0  0  0  0  0  0  0
   10.8840   22.5660   16.9480 C   0  0  0  0  0  0  0  0  0  0  0  0
   11.9100   24.8800   16.3120 O   0  0  0  0  0  0  0  0  0  0  0  0
   10.9000   23.5310   14.5050 O   0  0  0  0  0  0  0  0  0  0  0  0
    6.1510   25.0200   18.1450 C   0  0  0  0  0  0  0  0  0  0  0  0
    6.8410   26.2880   16.3320 C   0  0  0  0  0  0  0  0  0  0  0  0
    4.8130   24.7830   17.4170 C   0  0  1  0  0  0  0  0  0  0  0  0
    5.4510   26.1970   15.6630 C   0  0  0  0  0  0  0  0  0  0  0  0
    3.7200   24.4310   18.2920 N   0  0  0  0  0  0  0  0  0  0  0  0
    4.3970   25.9000   16.6440 N   0  0  0  0  0  0  0  0  0  0  0  0
  1  2  1  0
  3  2  1  1
  4  1  1  0
  4  5  1  0
  4  6  2  0
  4  7  2  0
  3  8  1  0
  3  9  1  0
  8 10  1  0
  9 11  1  0
 10 12  1  1
 10 13  1  0
 11 13  1  0
M  END
