x0592_0_A-x0471_0_A
     RDKit          3D

 20 21  0  0  0  0  0  0  0  0999 V2000
   -2.2170   14.3180   -0.1210 N   0  0  0  0  0  0  0  0  0  0  0  0
   -2.2070   14.6180   -1.4670 C   0  0  0  0  0  0  0  0  0  0  0  0
   -1.1780   14.6260   -2.0950 O   0  0  0  0  0  0  0  0  0  0  0  0
   -3.5520   14.9360   -2.0640 C   0  0  0  0  0  0  0  0  0  0  0  0
   -4.3380   14.9850   -0.8720 C   0  0  0  0  0  0  0  0  0  0  0  0
   -3.6100   15.3330    0.2470 C   0  0  0  0  0  0  0  0  0  0  0  0
   -5.6870   14.7060   -0.7790 C   0  0  0  0  0  0  0  0  0  0  0  0
   -6.5890   14.3480   -1.7570 N   0  0  0  0  0  0  0  0  0  0  0  0
   -6.2610   14.7810    0.4610 C   0  0  0  0  0  0  0  0  0  0  0  0
   -4.1860   15.4000    1.4650 C   0  0  0  0  0  0  0  0  0  0  0  0
   -7.5710   14.4630    0.2200 N   0  0  0  0  0  0  0  0  0  0  0  0
   -5.5260   15.1230    1.6050 C   0  0  0  0  0  0  0  0  0  0  0  0
   -7.7230   14.2110   -1.1160 C   0  0  0  0  0  0  0  0  0  0  0  0
   -8.6150   14.4040    1.2060 C   0  0  0  0  0  0  0  0  0  0  0  0
   -8.0840   14.0000    2.5720 C   0  0  0  0  0  0  0  0  0  0  0  0
   -8.5990   14.9330    3.6480 C   0  0  0  0  0  0  0  0  0  0  0  0
   -9.1550   15.9940    3.3480 O   0  0  0  0  0  0  0  0  0  0  0  0
   -8.4620   14.4730    5.0990 C   0  0  0  0  0  0  0  0  0  0  0  0
   -9.7070   13.6760    5.4970 C   0  0  0  0  0  0  0  0  0  0  0  0
   -8.2580   15.6560    6.0390 C   0  0  0  0  0  0  0  0  0  0  0  0
  1  2  1  0
  2  3  2  0
  2  4  1  0
  4  5  1  0
  5  6  2  0
  5  7  1  0
  7  8  1  0
  7  9  2  0
  6 10  1  0
  9 11  1  0
  9 12  1  0
 10 12  2  0
  8 13  2  0
 11 13  1  0
 11 14  1  0
 14 15  1  0
 15 16  1  0
 16 17  2  0
 16 18  1  0
 18 19  1  0
 18 20  1  0
M  END
