x0592_0_A-x0574_0_A
     RDKit          3D

 21 23  0  0  0  0  0  0  0  0999 V2000
   -2.7900   12.9510   -0.8670 N   0  0  0  0  0  0  0  0  0  0  0  0
   -3.6490   13.0440   -1.9260 C   0  0  0  0  0  0  0  0  0  0  0  0
   -3.2390   12.9420   -3.0700 O   0  0  0  0  0  0  0  0  0  0  0  0
   -5.0170   13.3090   -1.5660 C   0  0  0  0  0  0  0  0  0  0  0  0
   -6.2880   13.0500   -2.1710 C   0  0  0  0  0  0  0  0  0  0  0  0
   -5.3510   13.9360   -0.4600 C   0  0  0  0  0  0  0  0  0  0  0  0
   -7.3420   13.5220   -1.4360 N   0  0  0  0  0  0  0  0  0  0  0  0
   -6.6740   14.0580   -0.4090 N   0  0  0  0  0  0  0  0  0  0  0  0
   -7.0310   14.7790    0.7460 C   0  0  1  0  0  0  0  0  0  0  0  0
   -7.6840   14.0120    1.9140 C   0  0  0  0  0  0  0  0  0  0  0  0
   -5.4950   14.9300    0.5890 C   0  0  0  0  0  0  0  0  0  0  0  0
   -7.5290   14.6790    3.1710 O   0  0  0  0  0  0  0  0  0  0  0  0
   -4.5410   14.5330    1.5220 C   0  0  0  0  0  0  0  0  0  0  0  0
   -5.0160   15.4480   -0.6440 C   0  0  0  0  0  0  0  0  0  0  0  0
   -3.1590   14.5960    1.2340 C   0  0  0  0  0  0  0  0  0  0  0  0
   -3.6450   15.5190   -0.9480 C   0  0  0  0  0  0  0  0  0  0  0  0
   -2.7250   15.0620    0.0100 C   0  0  0  0  0  0  0  0  0  0  0  0
   -2.1580   14.2100    2.0730 N   0  0  0  0  0  0  0  0  0  0  0  0
   -1.0010   14.3270    1.5320 C   0  0  0  0  0  0  0  0  0  0  0  0
   -0.9870   14.9430   -0.0430 S   0  0  0  0  0  0  0  0  0  0  0  0
    0.1000   13.9820    2.1880 N   0  0  0  0  0  0  0  0  0  0  0  0
  1  2  1  0
  2  3  2  0
  2  4  1  0
  4  5  1  0
  4  6  2  0
  5  7  2  0
  6  8  1  0
  7  8  1  0
  8  9  1  0
  9 10  1  1
  9 11  1  0
 10 12  1  0
 11 13  2  0
 11 14  1  0
 13 15  1  0
 14 16  2  0
 15 17  2  0
 16 17  1  0
 15 18  1  0
 18 19  2  0
 17 20  1  0
 19 20  1  0
 19 21  1  0
M  END
