x0591_0_A_α-x0933_0_A_α
     RDKit          3D

 20 21  0  0  0  0  0  0  0  0999 V2000
   -6.2670   13.6390    0.3050 N   0  0  0  0  0  0  0  0  0  0  0  0
   -5.9470   14.2530    1.5860 C   0  0  0  0  0  0  0  0  0  0  0  0
   -4.6620   15.1400    1.5560 C   0  0  0  0  0  0  0  0  0  0  0  0
   -6.5390   14.2700   -0.8630 C   0  0  0  0  0  0  0  0  0  0  0  0
   -7.6070   14.8530   -1.0350 O   0  0  0  0  0  0  0  0  0  0  0  0
   -5.5190   14.2430   -1.9250 C   0  0  0  0  0  0  0  0  0  0  0  0
   -4.2820   13.6210   -1.6740 C   0  0  0  0  0  0  0  0  0  0  0  0
   -5.7660   14.8190   -3.1600 C   0  0  0  0  0  0  0  0  0  0  0  0
   -4.5580   15.9000    0.2990 N   0  0  0  0  0  0  0  0  0  0  0  0
   -3.4780   14.3160    1.7120 N   0  0  0  0  0  0  0  0  0  0  0  0
   -3.2900   13.5980   -2.6660 C   0  0  0  0  0  0  0  0  0  0  0  0
   -4.7840   14.7920   -4.1470 C   0  0  0  0  0  0  0  0  0  0  0  0
   -3.8670   15.2510   -0.8200 C   0  0  0  0  0  0  0  0  0  0  0  0
   -2.3340   14.9010    1.0510 C   0  0  0  0  0  0  0  0  0  0  0  0
   -3.5590   14.1950   -3.8960 C   0  0  0  0  0  0  0  0  0  0  0  0
   -2.5110   14.6750   -0.4220 C   0  0  0  0  0  0  0  0  0  0  0  0
   -2.3510   14.2150   -5.1890 S   0  0  0  0  0  0  0  0  0  0  0  0
   -1.2010   15.2970   -4.6070 N   0  0  0  0  0  0  0  0  0  0  0  0
   -1.7510   12.9070   -5.2660 O   0  0  0  0  0  0  0  0  0  0  0  0
   -2.9670   14.8700   -6.3180 O   0  0  0  0  0  0  0  0  0  0  0  0
  1  2  1  0
  2  3  1  0
  1  4  1  0
  4  5  2  0
  4  6  1  0
  6  7  2  0
  6  8  1  0
  3  9  1  0
  3 10  1  0
  7 11  1  0
  8 12  2  0
  9 13  1  0
 10 14  1  0
 11 15  2  0
 12 15  1  0
 13 16  1  0
 14 16  1  0
 15 17  1  0
 17 18  1  0
 17 19  2  0
 17 20  2  0
M  END
