x0592_0_A_α-x1012_0_A_α
     RDKit          3D

 24 25  0  0  0  0  0  0  0  0999 V2000
   -2.8740   14.9280    1.0080 N   0  0  0  0  0  0  0  0  0  0  0  0
   -3.4240   14.6840   -0.2240 C   0  0  0  0  0  0  0  0  0  0  0  0
   -2.8920   14.3380   -1.3340 N   0  0  0  0  0  0  0  0  0  0  0  0
   -4.8560   14.8150   -0.2820 C   0  0  0  0  0  0  0  0  0  0  0  0
   -1.4730   14.1210   -1.4260 C   0  0  0  0  0  0  0  0  0  0  0  0
   -5.6910   15.2730   -1.3260 C   0  0  0  0  0  0  0  0  0  0  0  0
   -5.7390   14.4900    0.7220 C   0  0  0  0  0  0  0  0  0  0  0  0
   -6.9870   15.2350   -1.0080 N   0  0  0  0  0  0  0  0  0  0  0  0
   -6.9840   14.7540    0.2460 N   0  0  0  0  0  0  0  0  0  0  0  0
   -0.8800   14.5030   -2.7980 C   0  0  2  0  0  0  0  0  0  0  0  0
   -8.2210   14.5610    0.9660 C   0  0  0  0  0  0  0  0  0  0  0  0
   -1.7380   15.0850   -3.9040 C   0  0  0  0  0  0  0  0  0  0  0  0
    0.0080   13.4860   -3.4570 C   0  0  2  0  0  0  0  0  0  0  0  0
   -7.9580   14.1000    2.3930 C   0  0  0  0  0  0  0  0  0  0  0  0
    0.4730   12.4400   -2.4500 C   0  0  0  0  0  0  0  0  0  0  0  0
    1.0950   14.3090   -4.1450 C   0  0  0  0  0  0  0  0  0  0  0  0
   -0.8910   15.9490   -4.7310 N   0  0  0  0  0  0  0  0  0  0  0  0
   -7.1380   15.0400    3.0820 O   0  0  0  0  0  0  0  0  0  0  0  0
   -1.2150   17.2880   -4.8250 C   0  0  0  0  0  0  0  0  0  0  0  0
    0.5690   11.1910   -2.9330 O   0  0  0  0  0  0  0  0  0  0  0  0
    0.7220   12.6510   -1.2770 O   0  0  0  0  0  0  0  0  0  0  0  0
    0.5760   15.6530   -4.7440 C   0  0  0  0  0  0  0  0  0  0  0  0
   -0.2020   18.1780   -4.7930 N   0  0  0  0  0  0  0  0  0  0  0  0
   -2.3550   17.7270   -4.9070 O   0  0  0  0  0  0  0  0  0  0  0  0
  1  2  1  0
  2  3  2  3
  2  4  1  0
  3  5  1  0
  4  6  1  0
  4  7  2  0
  6  8  2  0
  7  9  1  0
  8  9  1  0
 10  5  1  1
  9 11  1  0
 10 12  1  0
 10 13  1  0
 11 14  1  0
 13 15  1  1
 13 16  1  0
 12 17  1  0
 14 18  1  0
 17 19  1  0
 15 20  1  0
 15 21  2  0
 16 22  1  0
 17 22  1  0
 19 23  1  0
 19 24  2  0
M  END
