x0591_0_A_α-x0837_0_A_α
     RDKit          3D

 21 22  0  0  0  0  0  0  0  0999 V2000
   -8.2150   14.0090   -1.1430 N   0  0  0  0  0  0  0  0  0  0  0  0
   -9.0120   13.9710    0.0750 C   0  0  0  0  0  0  0  0  0  0  0  0
   -6.9160   14.3170   -0.9330 C   0  0  0  0  0  0  0  0  0  0  0  0
   -6.5620   14.7340    0.1960 N   0  0  0  0  0  0  0  0  0  0  0  0
   -5.8130   14.2020   -1.9700 C   0  0  0  0  0  0  0  0  0  0  0  0
   -4.5800   13.5640   -1.6890 C   0  0  0  0  0  0  0  0  0  0  0  0
   -6.0090   14.7530   -3.2340 C   0  0  0  0  0  0  0  0  0  0  0  0
   -5.2620   14.9880    0.4430 C   0  0  0  0  0  0  0  0  0  0  0  0
   -3.5670   13.5020   -2.6670 C   0  0  0  0  0  0  0  0  0  0  0  0
   -5.0070   14.6890   -4.2040 C   0  0  0  0  0  0  0  0  0  0  0  0
   -4.8850   15.0450    1.7080 N   0  0  0  0  0  0  0  0  0  0  0  0
   -4.4210   15.1420   -0.6290 C   0  0  0  0  0  0  0  0  0  0  0  0
   -3.7930   14.0770   -3.9280 C   0  0  0  0  0  0  0  0  0  0  0  0
   -3.5890   15.2500    1.9250 C   0  0  0  0  0  0  0  0  0  0  0  0
   -3.0910   15.3470   -0.3750 C   0  0  0  0  0  0  0  0  0  0  0  0
   -2.5630   14.0510   -5.2180 S   0  0  0  0  0  0  0  0  0  0  0  0
   -1.7670   15.5420   -1.9490 I   0  0  0  0  0  0  0  0  0  0  0  0
   -2.6470   15.4060    0.9290 C   0  0  0  0  0  0  0  0  0  0  0  0
   -1.3570   15.0920   -4.6660 N   0  0  0  0  0  0  0  0  0  0  0  0
   -1.9460   12.7490   -5.2500 O   0  0  0  0  0  0  0  0  0  0  0  0
   -3.1500   14.6700   -6.3840 O   0  0  0  0  0  0  0  0  0  0  0  0
  1  2  1  0
  1  3  1  0
  3  4  2  3
  3  5  1  0
  5  6  2  0
  5  7  1  0
  4  8  1  0
  6  9  1  0
  7 10  2  0
  8 11  2  0
  8 12  1  0
  9 13  2  0
 10 13  1  0
 11 14  1  0
 12 15  2  0
 13 16  1  0
 15 17  1  0
 14 18  2  0
 15 18  1  0
 16 19  1  0
 16 20  2  0
 16 21  2  0
M  END
