x0592_0_A-x0895_0_A
     RDKit          3D

 15 16  0  0  0  0  0  0  0  0999 V2000
   -3.8720   14.7770   -0.4130 C   0  0  0  0  0  0  0  0  0  0  0  0
   -2.9630   13.9120   -0.6600 N   0  0  0  0  0  0  0  0  0  0  0  0
   -1.8470   14.5610   -0.3580 N   0  0  0  0  0  0  0  0  0  0  0  0
   -5.2700   14.7580   -0.4340 C   0  0  0  0  0  0  0  0  0  0  0  0
   -6.1510   14.9850   -1.5060 C   0  0  0  0  0  0  0  0  0  0  0  0
   -6.0690   14.5120    0.6390 C   0  0  0  0  0  0  0  0  0  0  0  0
   -7.4270   14.8870   -1.1230 N   0  0  0  0  0  0  0  0  0  0  0  0
   -7.3340   14.6020    0.1970 N   0  0  0  0  0  0  0  0  0  0  0  0
   -1.5600   14.4420    1.0560 C   0  0  0  0  0  0  0  0  0  0  0  0
   -2.2360   15.9360   -0.3590 C   0  0  0  0  0  0  0  0  0  0  0  0
   -8.5020   14.4190    1.0240 C   0  0  0  0  0  0  0  0  0  0  0  0
   -3.3010   15.9490    0.6880 N   0  0  0  0  0  0  0  0  0  0  0  0
   -2.9230   14.8350    1.6000 C   0  0  0  0  0  0  0  0  0  0  0  0
   -8.0950   14.0380    2.4490 C   0  0  0  0  0  0  0  0  0  0  0  0
   -7.2900   15.0480    3.0670 O   0  0  0  0  0  0  0  0  0  0  0  0
  1  2  2  3
  2  3  1  0
  1  4  1  0
  4  5  1  0
  4  6  2  0
  5  7  2  0
  6  8  1  0
  7  8  1  0
  3  9  1  0
  3 10  1  0
  8 11  1  0
 10 12  1  0
  9 13  1  0
 12 13  1  0
 11 14  1  0
 14 15  1  0
M  END
