x0591_0_A_α-x0421_0_A_α
     RDKit          3D

 25 27  0  0  0  0  0  0  0  0999 V2000
   -6.3340   13.1000   -0.5270 N   0  0  0  0  0  0  0  0  0  0  0  0
   -5.3210   13.3280    0.4830 C   0  0  0  0  0  0  0  0  0  0  0  0
   -5.3110   14.7880    0.7890 C   0  0  2  0  0  0  0  0  0  0  0  0
   -6.7470   14.1530   -1.3230 C   0  0  0  0  0  0  0  0  0  0  0  0
   -7.7000   14.8780   -1.0490 O   0  0  0  0  0  0  0  0  0  0  0  0
   -5.9560   14.3800   -2.5660 C   0  0  0  0  0  0  0  0  0  0  0  0
   -4.5920   14.6650   -2.4270 C   0  0  0  0  0  0  0  0  0  0  0  0
   -6.5220   14.3170   -3.8500 C   0  0  0  0  0  0  0  0  0  0  0  0
   -4.8730   15.7660   -0.2690 C   0  0  0  0  0  0  0  0  0  0  0  0
   -4.0480   15.5970    0.9780 C   0  0  2  0  0  0  0  0  0  0  0  0
   -3.7960   14.8870   -3.5420 C   0  0  0  0  0  0  0  0  0  0  0  0
   -5.7230   14.5370   -4.9800 C   0  0  0  0  0  0  0  0  0  0  0  0
   -2.6470   14.9610    0.8360 C   0  0  0  0  0  0  0  0  0  0  0  0
   -4.3630   14.8210   -4.8120 C   0  0  0  0  0  0  0  0  0  0  0  0
   -1.9000   14.5320    1.8830 N   0  0  0  0  0  0  0  0  0  0  0  0
   -2.0310   14.7740   -0.3040 N   0  0  0  0  0  0  0  0  0  0  0  0
   -3.3300   15.0930   -6.2130 S   0  0  0  0  0  0  0  0  0  0  0  0
   -0.8130   14.2040    0.0260 C   0  0  0  0  0  0  0  0  0  0  0  0
   -0.7220   14.0480    1.3950 C   0  0  0  0  0  0  0  0  0  0  0  0
   -1.8960   14.5190   -5.5490 N   0  0  0  0  0  0  0  0  0  0  0  0
   -3.6890   14.1530   -7.2480 O   0  0  0  0  0  0  0  0  0  0  0  0
   -3.0970   16.5070   -6.4900 O   0  0  0  0  0  0  0  0  0  0  0  0
    0.1800   13.8470   -0.9800 C   0  0  0  0  0  0  0  0  0  0  0  0
   -0.0920   12.6740   -1.6240 N   0  0  0  0  0  0  0  0  0  0  0  0
    1.1720   14.5190   -1.2560 O   0  0  0  0  0  0  0  0  0  0  0  0
  1  2  1  0
  3  2  1  6
  1  4  1  0
  4  5  2  0
  4  6  1  0
  6  7  2  0
  6  8  1  0
  3  9  1  0
  3 10  1  0
  9 10  1  0
  7 11  1  0
  8 12  2  0
 10 13  1  6
 11 14  2  0
 12 14  1  0
 13 15  1  0
 13 16  2  0
 14 17  1  0
 16 18  1  0
 15 19  1  0
 18 19  2  0
 17 20  1  0
 17 21  2  0
 17 22  2  0
 18 23  1  0
 23 24  1  0
 23 25  2  0
M  END
