x0591_0_A-x0910_0_A
     RDKit          3D

 20 21  0  0  0  0  0  0  0  0999 V2000
   -5.9490   14.5830    0.8270 N   0  0  0  0  0  0  0  0  0  0  0  0
   -6.8290   14.4800    1.9670 C   0  0  0  0  0  0  0  0  0  0  0  0
   -6.4630   14.7950   -0.4360 C   0  0  0  0  0  0  0  0  0  0  0  0
   -7.6430   15.0170   -0.6550 O   0  0  0  0  0  0  0  0  0  0  0  0
   -5.4880   14.7370   -1.5570 C   0  0  0  0  0  0  0  0  0  0  0  0
   -4.1450   14.5290   -1.2640 C   0  0  0  0  0  0  0  0  0  0  0  0
   -5.8880   14.8830   -2.8800 C   0  0  0  0  0  0  0  0  0  0  0  0
   -3.1690   14.4620   -2.2670 C   0  0  0  0  0  0  0  0  0  0  0  0
   -4.9370   14.8180   -3.8990 C   0  0  0  0  0  0  0  0  0  0  0  0
   -1.8410   14.2530   -1.9220 N   0  0  0  0  0  0  0  0  0  0  0  0
   -3.5880   14.6130   -3.6050 C   0  0  0  0  0  0  0  0  0  0  0  0
   -2.4890   14.5580   -5.0080 S   0  0  0  0  0  0  0  0  0  0  0  0
   -1.2420   14.5630   -0.7690 C   0  0  0  0  0  0  0  0  0  0  0  0
   -1.2400   15.6040   -4.6050 N   0  0  0  0  0  0  0  0  0  0  0  0
   -1.9030   13.2420   -5.0900 O   0  0  0  0  0  0  0  0  0  0  0  0
   -3.1430   15.1820   -6.1420 O   0  0  0  0  0  0  0  0  0  0  0  0
   -1.9510   14.6310    0.4030 N   0  0  0  0  0  0  0  0  0  0  0  0
    0.0030   14.8390   -0.5210 N   0  0  0  0  0  0  0  0  0  0  0  0
   -1.1650   14.9560    1.4280 N   0  0  0  0  0  0  0  0  0  0  0  0
    0.0070   15.0760    0.8150 C   0  0  0  0  0  0  0  0  0  0  0  0
  1  2  1  0
  1  3  1  0
  3  4  2  0
  3  5  1  0
  5  6  2  0
  5  7  1  0
  6  8  1  0
  7  9  2  0
  8 10  1  0
  8 11  2  0
  9 11  1  0
 11 12  1  0
 10 13  1  0
 12 14  1  0
 12 15  2  0
 12 16  2  0
 13 17  1  0
 13 18  2  0
 17 19  1  0
 18 20  1  0
 19 20  2  0
M  END
