x0592_0_A_α-x0591_0_A_α
     RDKit          3D

 23 25  0  0  0  0  0  0  0  0999 V2000
   -1.6740   14.6270    1.5170 N   0  0  0  0  0  0  0  0  0  0  0  0
   -2.1180   14.8520    0.2700 C   0  0  0  0  0  0  0  0  0  0  0  0
   -1.3800   14.8820   -0.7000 O   0  0  0  0  0  0  0  0  0  0  0  0
   -3.5000   15.0170    0.1590 C   0  0  0  0  0  0  0  0  0  0  0  0
   -4.1700   15.8390   -0.7380 C   0  0  0  0  0  0  0  0  0  0  0  0
   -4.4650   14.4050    0.8650 C   0  0  0  0  0  0  0  0  0  0  0  0
   -5.4530   15.7670   -0.6250 N   0  0  0  0  0  0  0  0  0  0  0  0
   -5.6120   14.8580    0.3550 N   0  0  0  0  0  0  0  0  0  0  0  0
   -6.7930   14.5030    0.6000 C   0  0  0  0  0  0  0  0  0  0  0  0
   -7.7030   14.4490    1.7570 C   0  0  0  0  0  0  0  0  0  0  0  0
   -7.1980   14.0550   -0.4860 C   0  0  0  0  0  0  0  0  0  0  0  0
   -8.8680   13.9050    1.0920 O   0  0  0  0  0  0  0  0  0  0  0  0
   -8.4610   13.6240   -0.2810 N   0  0  0  0  0  0  0  0  0  0  0  0
   -6.1980   14.1170   -1.6540 C   0  0  0  0  0  0  0  0  0  0  0  0
   -4.8690   13.6140   -1.4400 C   0  0  0  0  0  0  0  0  0  0  0  0
   -6.4390   14.6600   -2.9300 C   0  0  0  0  0  0  0  0  0  0  0  0
   -3.8500   13.6700   -2.4240 C   0  0  0  0  0  0  0  0  0  0  0  0
   -5.4140   14.7020   -3.9190 C   0  0  0  0  0  0  0  0  0  0  0  0
   -4.1200   14.2230   -3.6730 C   0  0  0  0  0  0  0  0  0  0  0  0
   -2.8560   14.3260   -4.9450 S   0  0  0  0  0  0  0  0  0  0  0  0
   -1.7320   15.4190   -4.3370 N   0  0  0  0  0  0  0  0  0  0  0  0
   -2.1420   13.0750   -5.0200 O   0  0  0  0  0  0  0  0  0  0  0  0
   -3.3930   14.9740   -6.1160 O   0  0  0  0  0  0  0  0  0  0  0  0
  1  2  1  0
  2  3  2  0
  2  4  1  0
  4  5  1  0
  4  6  2  0
  5  7  2  0
  6  8  1  0
  7  8  1  0
  8  9  1  0
  9 10  1  0
  9 11  2  0
 10 12  1  0
 11 13  1  0
 12 13  1  0
 11 14  1  0
 14 15  2  0
 14 16  1  0
 15 17  1  0
 16 18  2  0
 17 19  2  0
 18 19  1  0
 19 20  1  0
 20 21  1  0
 20 22  2  0
 20 23  2  0
M  END
