x0592_0_A-x0967_0_A
     RDKit          3D

 16 17  0  0  0  0  0  0  0  0999 V2000
   -2.5820   14.2940    1.2290 N   0  0  0  0  0  0  0  0  0  0  0  0
   -2.8650   13.8790   -0.0420 C   0  0  0  0  0  0  0  0  0  0  0  0
   -2.1890   14.3060   -0.9750 O   0  0  0  0  0  0  0  0  0  0  0  0
   -4.0360   12.9190   -0.2290 C   0  0  0  0  0  0  0  0  0  0  0  0
   -5.2320   13.6900   -0.7080 C   0  0  2  0  0  0  0  0  0  0  0  0
   -6.3030   13.0150   -1.4940 N   0  0  0  0  0  0  0  0  0  0  0  0
   -4.6070   14.7680   -1.5040 C   0  0  0  0  0  0  0  0  0  0  0  0
   -5.9000   14.1180    0.6300 C   0  0  2  0  0  0  0  0  0  0  0  0
   -7.2160   14.4480    0.0940 N   0  0  0  0  0  0  0  0  0  0  0  0
   -5.0760   15.1960    1.2750 C   0  0  0  0  0  0  0  0  0  0  0  0
   -4.1290   15.8020   -0.8810 C   0  0  0  0  0  0  0  0  0  0  0  0
   -7.3620   13.5520   -0.9430 C   0  0  0  0  0  0  0  0  0  0  0  0
   -8.3220   14.6610    1.0170 C   0  0  0  0  0  0  0  0  0  0  0  0
   -4.2390   15.9620    0.5540 C   0  0  0  0  0  0  0  0  0  0  0  0
   -8.0460   14.1040    2.4230 C   0  0  0  0  0  0  0  0  0  0  0  0
   -7.3040   15.0230    3.2180 O   0  0  0  0  0  0  0  0  0  0  0  0
  1  2  1  0
  2  3  2  0
  2  4  1  0
  5  4  1  1
  5  6  1  0
  5  7  1  0
  5  8  1  0
  8  9  1  0
  8 10  1  6
  7 11  2  0
  6 12  2  0
  9 12  1  0
  9 13  1  0
 10 14  2  0
 11 14  1  0
 13 15  1  0
 15 16  1  0
M  END
