x0591_0_A_α-x0253_0_A_α
     RDKit          3D

 29 30  0  0  0  0  0  0  0  0999 V2000
   -6.5160   14.6890    0.7010 N   0  0  0  0  0  0  0  0  0  0  0  0
   -6.5460   14.6010    2.0310 C   0  0  0  0  0  0  0  0  0  0  0  0
   -6.6070   14.7840   -0.6520 C   0  0  0  0  0  0  0  0  0  0  0  0
   -7.6800   14.9010   -1.2490 O   0  0  0  0  0  0  0  0  0  0  0  0
   -5.4350   14.7640   -1.5850 C   0  0  0  0  0  0  0  0  0  0  0  0
   -4.1430   14.6610   -1.1650 C   0  0  0  0  0  0  0  0  0  0  0  0
   -5.7100   14.8520   -2.9030 C   0  0  0  0  0  0  0  0  0  0  0  0
   -3.1230   14.6540   -2.1420 C   0  0  0  0  0  0  0  0  0  0  0  0
   -4.7240   14.8410   -3.8460 C   0  0  0  0  0  0  0  0  0  0  0  0
   -3.3960   14.7430   -3.4850 C   0  0  0  0  0  0  0  0  0  0  0  0
   -2.2470   14.7420   -4.8010 S   0  0  1  0  0  0  0  0  0  0  0  0
   -1.0120   15.9330   -4.6300 N   0  0  0  0  0  0  0  0  0  0  0  0
   -1.6290   13.3230   -4.9700 N   0  0  0  0  0  0  0  0  0  0  0  0
   -3.0260   15.0100   -6.0840 O   0  0  0  0  0  0  0  0  0  0  0  0
   -0.6110   13.2020   -5.9560 C   0  0  0  0  0  0  0  0  0  0  0  0
    0.4790   12.2860   -5.4660 N   0  0  0  0  0  0  0  0  0  0  0  0
    1.0610   11.6860   -6.5470 C   0  0  0  0  0  0  0  0  0  0  0  0
    1.1970   12.8740   -4.3840 C   0  0  0  0  0  0  0  0  0  0  0  0
    2.3220   11.9820   -6.5940 O   0  0  0  0  0  0  0  0  0  0  0  0
    0.9320   12.1730   -3.1070 C   0  0  0  0  0  0  0  0  0  0  0  0
    0.5340   10.8160   -7.5730 C   0  0  0  0  0  0  0  0  0  0  0  0
    1.3050   12.7230   -2.0450 O   0  0  0  0  0  0  0  0  0  0  0  0
    0.2950   10.9460   -3.0640 O   0  0  0  0  0  0  0  0  0  0  0  0
   -0.4470    9.8710   -7.2050 C   0  0  0  0  0  0  0  0  0  0  0  0
    0.8750   10.7910   -8.9020 C   0  0  0  0  0  0  0  0  0  0  0  0
   -1.0450    8.9860   -8.0390 C   0  0  0  0  0  0  0  0  0  0  0  0
    0.2670    9.8810   -9.7840 C   0  0  0  0  0  0  0  0  0  0  0  0
   -2.0730    8.0240   -7.5750 C   0  0  0  0  0  0  0  0  0  0  0  0
   -0.6800    8.9880   -9.3670 C   0  0  0  0  0  0  0  0  0  0  0  0
  1  2  1  0
  1  3  1  0
  3  4  2  0
  3  5  1  0
  5  6  2  0
  5  7  1  0
  6  8  1  0
  7  9  2  0
  8 10  2  0
  9 10  1  0
 10 11  1  0
 11 12  1  1
 11 13  2  0
 11 14  2  0
 13 15  1  0
 15 16  1  0
 16 17  1  0
 16 18  1  0
 17 19  2  0
 18 20  1  0
 17 21  1  0
 20 22  2  0
 20 23  1  0
 21 24  2  0
 21 25  1  0
 24 26  1  0
 25 27  2  0
 26 28  1  0
 26 29  2  0
 27 29  1  0
M  END
