x0592_0_A_α-x0849_0_A_α
     RDKit          3D

 20 22  0  0  0  0  0  0  0  0999 V2000
   -3.3230   14.1500   -2.2420 N   0  0  0  0  0  0  0  0  0  0  0  0
   -3.9420   15.2450   -1.5570 C   0  0  1  0  0  0  0  0  0  0  0  0
   -5.3780   15.0930   -1.2140 C   0  0  0  0  0  0  0  0  0  0  0  0
   -3.5150   15.1690   -0.2130 C   0  0  0  0  0  0  0  0  0  0  0  0
   -6.5140   15.3090   -1.9950 C   0  0  0  0  0  0  0  0  0  0  0  0
   -5.9090   14.6910    0.0200 C   0  0  0  0  0  0  0  0  0  0  0  0
   -2.2750   14.7450    0.2100 C   0  0  0  0  0  0  0  0  0  0  0  0
   -4.5030   15.5400    0.6720 C   0  0  0  0  0  0  0  0  0  0  0  0
   -7.6490   15.0820   -1.3360 N   0  0  0  0  0  0  0  0  0  0  0  0
   -7.2630   14.7130   -0.1110 N   0  0  0  0  0  0  0  0  0  0  0  0
   -2.1400   14.7020    1.5660 C   0  0  0  0  0  0  0  0  0  0  0  0
   -4.2370   15.4590    1.9830 C   0  0  0  0  0  0  0  0  0  0  0  0
   -1.1730   14.3570   -0.5800 C   0  0  0  0  0  0  0  0  0  0  0  0
   -8.2690   14.3990    0.8830 C   0  0  0  0  0  0  0  0  0  0  0  0
   -3.0620   15.0330    2.4060 N   0  0  0  0  0  0  0  0  0  0  0  0
   -1.0840   14.3200    2.1340 N   0  0  0  0  0  0  0  0  0  0  0  0
   -0.0240   13.9420    0.0540 C   0  0  0  0  0  0  0  0  0  0  0  0
   -7.6950   13.8840    2.1950 C   0  0  0  0  0  0  0  0  0  0  0  0
   -0.0740   13.9470    1.4240 C   0  0  0  0  0  0  0  0  0  0  0  0
   -7.2700   14.9460    3.0460 O   0  0  0  0  0  0  0  0  0  0  0  0
  2  1  1  6
  2  3  1  0
  2  4  1  0
  3  5  1  0
  3  6  2  0
  4  7  1  0
  4  8  2  0
  5  9  2  0
  6 10  1  0
  9 10  1  0
  7 11  2  0
  8 12  1  0
  7 13  1  0
 10 14  1  0
 11 15  1  0
 12 15  2  0
 11 16  1  0
 13 17  2  0
 14 18  1  0
 16 19  2  0
 17 19  1  0
 18 20  1  0
M  END
