x0591_0_A_α-x0805_0_A_β
     RDKit          3D

 23 24  0  0  0  0  0  0  0  0999 V2000
   -5.7990   14.6420    0.8910 N   0  0  0  0  0  0  0  0  0  0  0  0
   -6.7310   14.4920    1.9800 C   0  0  0  0  0  0  0  0  0  0  0  0
   -6.2700   14.8540   -0.3820 C   0  0  0  0  0  0  0  0  0  0  0  0
   -7.4440   15.1020   -0.6320 O   0  0  0  0  0  0  0  0  0  0  0  0
   -5.2900   14.7490   -1.4940 C   0  0  0  0  0  0  0  0  0  0  0  0
   -3.9240   14.5020   -1.2920 C   0  0  0  0  0  0  0  0  0  0  0  0
   -5.7780   14.9010   -2.7880 C   0  0  0  0  0  0  0  0  0  0  0  0
   -3.0600   14.4080   -2.3970 C   0  0  0  0  0  0  0  0  0  0  0  0
   -4.9230   14.8040   -3.8830 C   0  0  0  0  0  0  0  0  0  0  0  0
   -3.5740   14.5590   -3.6920 C   0  0  0  0  0  0  0  0  0  0  0  0
   -2.5590   14.4420   -5.1500 S   0  0  0  0  0  0  0  0  0  0  0  0
   -1.0650   15.0870   -4.6750 N   0  0  0  0  0  0  0  0  0  0  0  0
   -2.3340   13.0540   -5.4520 O   0  0  0  0  0  0  0  0  0  0  0  0
   -3.0820   15.3670   -6.1300 O   0  0  0  0  0  0  0  0  0  0  0  0
   -0.3880   14.3870   -3.5430 C   0  0  1  0  0  0  0  0  0  0  0  0
    0.1380   12.9850   -3.9290 C   0  0  2  0  0  0  0  0  0  0  0  0
    0.7300   15.2950   -3.0680 C   0  0  0  0  0  0  0  0  0  0  0  0
    0.3370   12.1440   -2.6670 C   0  0  0  0  0  0  0  0  0  0  0  0
    1.4310   13.0740   -4.7480 C   0  0  0  0  0  0  0  0  0  0  0  0
    1.9010   15.2280   -4.0040 C   0  0  0  0  0  0  0  0  0  0  0  0
    0.3580   10.8120   -2.9030 O   0  0  0  0  0  0  0  0  0  0  0  0
    0.4610   12.5930   -1.5270 O   0  0  0  0  0  0  0  0  0  0  0  0
    2.3830   13.8990   -4.0940 O   0  0  0  0  0  0  0  0  0  0  0  0
  1  2  1  0
  1  3  1  0
  3  4  2  0
  3  5  1  0
  5  6  2  0
  5  7  1  0
  6  8  1  0
  7  9  2  0
  8 10  2  0
  9 10  1  0
 10 11  1  0
 11 12  1  0
 11 13  2  0
 11 14  2  0
 15 12  1  6
 15 16  1  0
 15 17  1  0
 16 18  1  1
 16 19  1  0
 17 20  1  0
 18 21  1  0
 18 22  2  0
 19 23  1  0
 20 23  1  0
M  END
