x0591_0_A_α-x0626_0_A_α
     RDKit          3D

 21 22  0  0  0  0  0  0  0  0999 V2000
   -5.9030   14.3560    0.8950 N   0  0  0  0  0  0  0  0  0  0  0  0
   -6.8550   13.9220    1.9020 C   0  0  0  0  0  0  0  0  0  0  0  0
   -6.2430   14.6430   -0.4220 C   0  0  0  0  0  0  0  0  0  0  0  0
   -4.8400   15.0850    1.5000 N   0  0  0  0  0  0  0  0  0  0  0  0
   -7.3840   15.0020   -0.7140 O   0  0  0  0  0  0  0  0  0  0  0  0
   -5.2640   14.5200   -1.5300 C   0  0  0  0  0  0  0  0  0  0  0  0
   -3.5850   15.1140    0.9750 C   0  0  0  0  0  0  0  0  0  0  0  0
   -3.9960   13.9400   -1.3330 C   0  0  0  0  0  0  0  0  0  0  0  0
   -5.6140   14.9940   -2.7920 C   0  0  0  0  0  0  0  0  0  0  0  0
   -2.4820   14.7030    1.5880 N   0  0  0  0  0  0  0  0  0  0  0  0
   -3.3300   15.7240   -0.6130 S   0  0  0  0  0  0  0  0  0  0  0  0
   -3.0840   13.8570   -2.4030 C   0  0  0  0  0  0  0  0  0  0  0  0
   -4.7090   14.9000   -3.8500 C   0  0  0  0  0  0  0  0  0  0  0  0
   -1.6640   15.4030   -0.4780 C   0  0  0  0  0  0  0  0  0  0  0  0
   -1.3970   14.8640    0.7560 C   0  0  0  0  0  0  0  0  0  0  0  0
   -0.0830   14.4500    1.2540 C   0  0  0  0  0  0  0  0  0  0  0  0
   -3.4590   14.3500   -3.6580 C   0  0  0  0  0  0  0  0  0  0  0  0
   -2.3620   14.2950   -5.0570 S   0  0  0  0  0  0  0  0  0  0  0  0
   -1.1560   15.3900   -4.6310 N   0  0  0  0  0  0  0  0  0  0  0  0
   -1.7800   12.9820   -5.1230 O   0  0  0  0  0  0  0  0  0  0  0  0
   -3.0480   14.9080   -6.1730 O   0  0  0  0  0  0  0  0  0  0  0  0
  1  2  1  0
  1  3  1  0
  1  4  1  0
  3  5  2  0
  3  6  1  0
  4  7  1  0
  6  8  2  0
  6  9  1  0
  7 10  2  0
  7 11  1  0
  8 12  1  0
  9 13  2  0
 11 14  1  0
 10 15  1  0
 14 15  2  0
 15 16  1  0
 12 17  2  0
 13 17  1  0
 17 18  1  0
 18 19  1  0
 18 20  2  0
 18 21  2  0
M  END
