x0592_0_A-x0962_0_A
     RDKit          3D

 12 12  0  0  0  0  0  0  0  0999 V2000
   -2.8890   14.3420    1.1870 N   0  0  0  0  0  0  0  0  0  0  0  0
   -3.3620   15.1430    0.0530 C   0  0  1  0  0  0  0  0  0  0  0  0
   -2.6920   14.8310   -1.2340 C   0  0  0  0  0  0  0  0  0  0  0  0
   -4.8310   14.9970   -0.0720 C   0  0  0  0  0  0  0  0  0  0  0  0
   -2.1740   14.6120   -2.2460 N   0  0  0  0  0  0  0  0  0  0  0  0
   -5.6130   15.1830   -1.2380 C   0  0  0  0  0  0  0  0  0  0  0  0
   -5.7500   14.6630    0.8980 C   0  0  0  0  0  0  0  0  0  0  0  0
   -6.9120   14.9880   -1.0170 N   0  0  0  0  0  0  0  0  0  0  0  0
   -6.9680   14.6760    0.2920 N   0  0  0  0  0  0  0  0  0  0  0  0
   -8.2390   14.3980    0.9250 C   0  0  0  0  0  0  0  0  0  0  0  0
   -8.0760   13.9630    2.3770 C   0  0  0  0  0  0  0  0  0  0  0  0
   -7.3470   14.9370    3.1220 O   0  0  0  0  0  0  0  0  0  0  0  0
  2  1  1  1
  2  3  1  0
  2  4  1  0
  3  5  3  0
  4  6  1  0
  4  7  2  0
  6  8  2  0
  7  9  1  0
  8  9  1  0
  9 10  1  0
 10 11  1  0
 11 12  1  0
M  END
