x0591_0_A-x0722_0_A
     RDKit          3D

 23 24  0  0  0  0  0  0  0  0999 V2000
   -5.9630   13.7710    0.3740 N   0  0  0  0  0  0  0  0  0  0  0  0
   -6.9420   13.9510    1.4370 C   0  0  0  0  0  0  0  0  0  0  0  0
   -5.8630   14.7990   -0.6650 C   0  0  1  0  0  0  0  0  0  0  0  0
   -7.1910   15.2460   -0.9170 O   0  0  0  0  0  0  0  0  0  0  0  0
   -4.8260   15.9390   -0.4680 C   0  0  0  0  0  0  0  0  0  0  0  0
   -5.0720   14.5380   -1.8840 C   0  0  0  0  0  0  0  0  0  0  0  0
   -3.8130   13.9550   -1.7350 C   0  0  0  0  0  0  0  0  0  0  0  0
   -5.5210   14.9150   -3.1330 C   0  0  0  0  0  0  0  0  0  0  0  0
   -3.5900   15.4740    0.2170 C   0  0  0  0  0  0  0  0  0  0  0  0
   -2.9860   13.7840   -2.8220 C   0  0  0  0  0  0  0  0  0  0  0  0
   -4.7000   14.7500   -4.2310 C   0  0  0  0  0  0  0  0  0  0  0  0
   -3.6280   15.1270    1.5320 C   0  0  0  0  0  0  0  0  0  0  0  0
   -2.2680   15.2710   -0.1710 C   0  0  0  0  0  0  0  0  0  0  0  0
   -4.8430   15.1970    2.3170 C   0  0  0  0  0  0  0  0  0  0  0  0
   -1.5590   15.4530   -1.4590 C   0  0  0  0  0  0  0  0  0  0  0  0
   -3.4390   14.2040   -4.0580 C   0  0  0  0  0  0  0  0  0  0  0  0
   -2.4650   14.7200    2.0060 N   0  0  0  0  0  0  0  0  0  0  0  0
   -1.6400   14.8120    0.9630 N   0  0  0  0  0  0  0  0  0  0  0  0
   -2.3910   14.0640   -5.4480 S   0  0  0  0  0  0  0  0  0  0  0  0
   -0.2560   14.4350    1.1330 C   0  0  0  0  0  0  0  0  0  0  0  0
   -1.1670   15.1370   -4.9930 N   0  0  0  0  0  0  0  0  0  0  0  0
   -1.7840   12.7570   -5.4540 O   0  0  0  0  0  0  0  0  0  0  0  0
   -3.0950   14.6450   -6.5650 O   0  0  0  0  0  0  0  0  0  0  0  0
  1  2  1  0
  1  3  1  0
  3  4  1  6
  3  5  1  0
  3  6  1  0
  6  7  2  0
  6  8  1  0
  5  9  1  0
  7 10  1  0
  8 11  2  0
  9 12  1  0
  9 13  2  0
 12 14  1  0
 13 15  1  0
 10 16  2  0
 11 16  1  0
 12 17  2  0
 13 18  1  0
 17 18  1  0
 16 19  1  0
 18 20  1  0
 19 21  1  0
 19 22  2  0
 19 23  2  0
M  END
