x0592_0_A_α-4IQY_0_B_β
     RDKit          3D

 23 23  0  0  0  0  0  0  0  0999 V2000
   -2.6950   14.9220    1.1160 N   0  0  0  0  0  0  0  0  0  0  0  0
   -3.2360   14.8380   -0.2450 C   0  0  0  0  0  0  0  0  0  0  0  0
   -2.3870   14.7640   -1.1360 N   0  0  0  0  0  0  0  0  0  0  0  0
   -4.7000   14.8530   -0.3280 C   0  0  0  0  0  0  0  0  0  0  0  0
   -2.1990   14.6690   -2.5090 C   0  0  0  0  0  0  0  0  0  0  0  0
   -5.4570   15.1260   -1.4760 C   0  0  0  0  0  0  0  0  0  0  0  0
   -5.6330   14.6140    0.6550 C   0  0  0  0  0  0  0  0  0  0  0  0
   -1.7280   15.9950   -3.1170 C   0  0  0  0  0  0  0  0  0  0  0  0
   -6.7500   15.0410   -1.1370 N   0  0  0  0  0  0  0  0  0  0  0  0
   -6.8840   14.7380    0.1280 N   0  0  0  0  0  0  0  0  0  0  0  0
   -8.1090   14.5550    0.9040 C   0  0  0  0  0  0  0  0  0  0  0  0
   -1.8340   15.9950   -4.5910 C   0  0  0  0  0  0  0  0  0  0  0  0
   -7.8480   14.0380    2.3070 C   0  0  0  0  0  0  0  0  0  0  0  0
   -2.5270   17.1530   -4.9900 O   0  0  0  0  0  0  0  0  0  0  0  0
   -6.9930   14.8870    3.0010 O   0  0  0  0  0  0  0  0  0  0  0  0
   -1.7310   18.2530   -5.7350 P   0  0  0  0  0  0  0  0  0  0  0  0
   -0.8700   19.4640   -6.1660 O   0  0  0  0  0  0  0  0  0  0  0  0
   -0.3770   17.2700   -5.6710 O   0  0  0  0  0  0  0  0  0  0  0  0
   -2.6650   18.1580   -7.0530 O   0  0  0  0  0  0  0  0  0  0  0  0
   -0.3400   19.7940   -7.6910 P   0  0  0  0  0  0  0  0  0  0  0  0
   -1.7210   20.1720   -8.1880 O   0  0  0  0  0  0  0  0  0  0  0  0
    1.0470   19.4780   -7.1530 O   0  0  0  0  0  0  0  0  0  0  0  0
   -0.1300   18.5610   -8.7610 O   0  0  0  0  0  0  0  0  0  0  0  0
  1  2  1  0
  2  3  2  3
  2  4  1  0
  3  5  1  0
  4  6  1  0
  4  7  2  0
  5  8  1  0
  6  9  2  0
  7 10  1  0
  9 10  1  0
 10 11  1  0
  8 12  1  0
 11 13  1  0
 12 14  1  0
 13 15  1  0
 14 16  1  0
 16 17  1  0
 16 18  1  0
 16 19  1  0
 17 20  1  0
 20 21  1  0
 20 22  1  0
 20 23  1  0
M  CHG  1  22  -1
M  END
