x0600_0_A-x0548_0_B
     RDKit          3D

 32 34  0  0  0  0  0  0  0  0999 V2000
  -12.5720   25.5700   16.7590 C   0  0  0  0  0  0  0  0  0  0  0  0
  -11.3380   26.2920   16.2840 C   0  0  0  0  0  0  0  0  0  0  0  0
  -10.4400   26.6030   17.0650 O   0  0  0  0  0  0  0  0  0  0  0  0
  -11.2140   26.6390   14.8350 C   0  0  0  0  0  0  0  0  0  0  0  0
  -12.0910   26.1540   13.8560 C   0  0  0  0  0  0  0  0  0  0  0  0
  -10.1720   27.4870   14.4590 C   0  0  0  0  0  0  0  0  0  0  0  0
  -11.9130   26.5230   12.5160 C   0  0  0  0  0  0  0  0  0  0  0  0
  -10.0030   27.8520   13.1260 C   0  0  0  0  0  0  0  0  0  0  0  0
  -10.8680   27.3740   12.1490 C   0  0  0  0  0  0  0  0  0  0  0  0
  -10.7890   27.6680   10.8260 O   0  0  0  0  0  0  0  0  0  0  0  0
   -9.7410   28.5340   10.4320 C   0  0  0  0  0  0  0  0  0  0  0  0
   -9.9730   30.0320   10.6130 C   0  0  0  0  0  0  0  0  0  0  0  0
   -9.0190   30.8990   10.5790 N   0  0  0  0  0  0  0  0  0  0  0  0
  -11.2590   30.3540   10.8020 O   0  0  0  0  0  0  0  0  0  0  0  0
   -9.3140   32.3260   10.7360 C   0  0  0  0  0  0  0  0  0  0  0  0
   -8.0470   33.1930   10.6730 C   0  0  0  0  0  0  0  0  0  0  0  0
   -8.2740   34.5510    9.9860 C   0  0  0  0  0  0  0  0  0  0  0  0
   -7.5730   34.6840    8.6770 N   0  0  0  0  0  0  0  0  0  0  0  0
   -6.1200   34.5810    8.7990 C   0  0  0  0  0  0  0  0  0  0  0  0
   -8.1230   35.5150    7.6900 C   0  0  0  0  0  0  0  0  0  0  0  0
   -7.3960   36.3200    6.8570 C   0  0  0  0  0  0  0  0  0  0  0  0
   -9.5970   35.5350    7.5580 C   0  0  0  0  0  0  0  0  0  0  0  0
   -8.0980   37.1530    5.9130 C   0  0  0  0  0  0  0  0  0  0  0  0
  -10.2310   36.0750    6.5020 C   0  0  0  0  0  0  0  0  0  0  0  0
   -9.4070   36.6510    5.4200 C   0  0  1  0  0  0  0  0  0  0  0  0
   -7.7790   38.3340    5.3700 C   0  0  0  0  0  0  0  0  0  0  0  0
   -6.6190   39.2520    5.4560 C   0  0  0  0  0  0  0  0  0  0  0  0
   -9.9580   37.7430    4.5990 N   0  0  0  0  0  0  0  0  0  0  0  0
   -8.9900   38.6070    4.5880 C   0  0  0  0  0  0  0  0  0  0  0  0
   -6.0590   39.5210    6.7860 N   0  0  0  0  0  0  0  0  0  0  0  0
   -7.0040   40.1880    7.6730 C   0  0  0  0  0  0  0  0  0  0  0  0
   -4.7900   40.2450    6.7110 C   0  0  0  0  0  0  0  0  0  0  0  0
  1  2  1  0
  2  3  2  0
  2  4  1  0
  4  5  2  0
  4  6  1  0
  5  7  1  0
  6  8  2  0
  7  9  2  0
  8  9  1  0
  9 10  1  0
 10 11  1  0
 11 12  1  0
 12 13  2  3
 12 14  1  0
 13 15  1  0
 15 16  1  0
 16 17  1  0
 17 18  1  0
 18 19  1  0
 18 20  1  0
 20 21  2  0
 20 22  1  0
 21 23  1  0
 22 24  2  0
 23 25  1  0
 25 24  1  1
 23 26  2  0
 26 27  1  0
 25 28  1  0
 26 29  1  0
 28 29  2  0
 27 30  1  0
 30 31  1  0
 30 32  1  0
M  END
