x0600_0_A-x0548_1_B
     RDKit          3D

 32 34  0  0  0  0  0  0  0  0999 V2000
  -12.4650   24.9910   17.0100 C   0  0  0  0  0  0  0  0  0  0  0  0
  -11.3080   25.8060   16.5070 C   0  0  0  0  0  0  0  0  0  0  0  0
  -10.2740   25.9480   17.1570 O   0  0  0  0  0  0  0  0  0  0  0  0
  -11.4380   26.4830   15.2030 C   0  0  0  0  0  0  0  0  0  0  0  0
  -12.4190   26.1710   14.2490 C   0  0  0  0  0  0  0  0  0  0  0  0
  -10.5200   27.4860   14.9620 C   0  0  0  0  0  0  0  0  0  0  0  0
  -12.4720   26.8900   13.0570 C   0  0  0  0  0  0  0  0  0  0  0  0
  -10.5800   28.1870   13.7960 C   0  0  0  0  0  0  0  0  0  0  0  0
  -11.5560   27.9040   12.8330 C   0  0  0  0  0  0  0  0  0  0  0  0
  -11.6520   28.6030   11.6520 O   0  0  0  0  0  0  0  0  0  0  0  0
  -11.5290   30.0260   11.8400 C   0  0  0  0  0  0  0  0  0  0  0  0
  -10.9400   31.0010   10.8050 C   0  0  0  0  0  0  0  0  0  0  0  0
   -9.7600   31.5590   10.8740 N   0  0  0  0  0  0  0  0  0  0  0  0
  -11.8110   31.2460    9.8480 O   0  0  0  0  0  0  0  0  0  0  0  0
   -9.2910   32.5530    9.8830 C   0  0  0  0  0  0  0  0  0  0  0  0
   -7.9170   32.2020    9.2770 C   0  0  0  0  0  0  0  0  0  0  0  0
   -7.4960   33.0210    8.0330 C   0  0  0  0  0  0  0  0  0  0  0  0
   -7.3810   34.4770    8.2980 N   0  0  0  0  0  0  0  0  0  0  0  0
   -6.0490   34.8090    8.8010 C   0  0  0  0  0  0  0  0  0  0  0  0
   -8.0360   35.3890    7.4530 C   0  0  0  0  0  0  0  0  0  0  0  0
   -7.3840   36.2880    6.6570 C   0  0  0  0  0  0  0  0  0  0  0  0
   -9.5180   35.3900    7.4190 C   0  0  0  0  0  0  0  0  0  0  0  0
   -8.1400   37.1820    5.8160 C   0  0  0  0  0  0  0  0  0  0  0  0
  -10.2250   36.0170    6.4580 C   0  0  0  0  0  0  0  0  0  0  0  0
   -9.4820   36.7110    5.3820 C   0  0  1  0  0  0  0  0  0  0  0  0
   -7.8520   38.3870    5.3100 C   0  0  0  0  0  0  0  0  0  0  0  0
   -6.6790   39.2900    5.3630 C   0  0  0  0  0  0  0  0  0  0  0  0
  -10.0850   37.8500    4.6660 N   0  0  0  0  0  0  0  0  0  0  0  0
   -9.1100   38.7080    4.6270 C   0  0  0  0  0  0  0  0  0  0  0  0
   -6.2360   39.7470    6.6810 N   0  0  0  0  0  0  0  0  0  0  0  0
   -7.2820   40.4590    7.4040 C   0  0  0  0  0  0  0  0  0  0  0  0
   -5.0090   40.5380    6.6090 C   0  0  0  0  0  0  0  0  0  0  0  0
  1  2  1  0
  2  3  2  0
  2  4  1  0
  4  5  2  0
  4  6  1  0
  5  7  1  0
  6  8  2  0
  7  9  2  0
  8  9  1  0
  9 10  1  0
 10 11  1  0
 11 12  1  0
 12 13  2  3
 12 14  1  0
 13 15  1  0
 15 16  1  0
 16 17  1  0
 17 18  1  0
 18 19  1  0
 18 20  1  0
 20 21  2  0
 20 22  1  0
 21 23  1  0
 22 24  2  0
 23 25  1  0
 25 24  1  1
 23 26  2  0
 26 27  1  0
 25 28  1  0
 26 29  1  0
 28 29  2  0
 27 30  1  0
 30 31  1  0
 30 32  1  0
M  END
