x0600_0_A_α-x0729_2_B_α
     RDKit          3D

 33 34  0  0  0  0  0  0  0  0999 V2000
  -12.4850   25.7540   17.4060 C   0  0  0  0  0  0  0  0  0  0  0  0
  -11.2910   26.4540   16.8170 C   0  0  0  0  0  0  0  0  0  0  0  0
  -10.3670   26.8640   17.5040 O   0  0  0  0  0  0  0  0  0  0  0  0
  -11.2620   26.6220   15.3580 C   0  0  0  0  0  0  0  0  0  0  0  0
  -12.2750   26.0970   14.5790 C   0  0  0  0  0  0  0  0  0  0  0  0
  -10.2070   27.3120   14.7650 C   0  0  0  0  0  0  0  0  0  0  0  0
  -12.2300   26.2510   13.2140 C   0  0  0  0  0  0  0  0  0  0  0  0
  -10.1830   27.4560   13.3860 C   0  0  0  0  0  0  0  0  0  0  0  0
  -11.1920   26.9180   12.5940 C   0  0  0  0  0  0  0  0  0  0  0  0
  -11.1910   27.0120   11.2700 N   0  0  0  0  0  0  0  0  0  0  0  0
  -10.0800   27.8400   10.6530 C   0  0  0  0  0  0  0  0  0  0  0  0
  -11.6060   25.7570   10.5530 C   0  0  0  0  0  0  0  0  0  0  0  0
  -10.1050   29.3770   10.8050 C   0  0  0  0  0  0  0  0  0  0  0  0
  -12.6650   24.6840   11.1080 C   0  0  0  0  0  0  0  0  0  0  0  0
   -9.1020   30.0870   10.8530 O   0  0  0  0  0  0  0  0  0  0  0  0
  -11.3200   29.9500   10.8940 O   0  0  0  0  0  0  0  0  0  0  0  0
  -12.8690   23.3490   10.2030 C   0  0  0  0  0  0  0  0  0  0  0  0
  -14.2620   22.9000    9.5160 C   0  0  0  0  0  0  0  0  0  0  0  0
  -14.1010   22.5440    7.9650 C   0  0  0  0  0  0  0  0  0  0  0  0
  -15.2870   22.4930    6.8710 C   0  0  0  0  0  0  0  0  0  0  0  0
  -15.0200   23.0250    5.4080 N   0  0  0  0  0  0  0  0  0  0  0  0
  -16.0180   24.0080    4.6350 S   0  0  2  0  0  0  0  0  0  0  0  0
  -16.0790   25.4430    4.8220 O   0  0  0  0  0  0  0  0  0  0  0  0
  -17.6200   23.4080    5.0660 C   0  0  0  0  0  0  0  0  0  0  0  0
  -16.0440   24.0140    2.8700 N   0  0  0  0  0  0  0  0  0  0  0  0
  -16.5750   25.2700    2.2780 C   0  0  0  0  0  0  0  0  0  0  0  0
  -14.9400   23.6620    1.9340 C   0  0  2  0  0  0  0  0  0  0  0  0
  -13.7330   24.5690    2.0970 C   0  0  0  0  0  0  0  0  0  0  0  0
  -17.4680   25.0150    1.0760 C   0  0  0  0  0  0  0  0  0  0  0  0
  -15.3980   23.6590    0.4450 C   0  0  1  0  0  0  0  0  0  0  0  0
  -14.9740   22.4570   -0.2880 C   0  0  0  0  0  0  0  0  0  0  0  0
  -16.9110   23.8620    0.2510 C   0  0  0  0  0  0  0  0  0  0  0  0
  -14.5650   21.5670   -0.9080 N   0  0  0  0  0  0  0  0  0  0  0  0
  1  2  1  0
  2  3  2  0
  2  4  1  0
  4  5  2  0
  4  6  1  0
  5  7  1  0
  6  8  2  0
  7  9  2  0
  8  9  1  0
  9 10  1  0
 10 11  1  0
 10 12  1  0
 11 13  1  0
 12 14  1  0
 13 15  2  0
 13 16  1  0
 14 17  1  0
 17 18  1  0
 18 19  1  0
 19 20  1  0
 20 21  1  0
 21 22  2  0
 22 23  2  0
 22 24  1  1
 22 25  1  0
 25 26  1  0
 25 27  1  0
 27 28  1  6
 26 29  1  0
 27 30  1  0
 30 31  1  1
 29 32  1  0
 30 32  1  0
 31 33  3  0
M  END
