x0600_0_A_α-x0334_0_A_α
     RDKit          3D

 33 34  0  0  0  0  0  0  0  0999 V2000
  -12.5790   25.7760   16.7730 C   0  0  0  0  0  0  0  0  0  0  0  0
  -11.2390   26.2650   16.2620 C   0  0  0  0  0  0  0  0  0  0  0  0
  -10.1890   26.3730   17.0090 N   0  0  0  0  0  0  0  0  0  0  0  0
  -11.1420   26.6370   14.8110 C   0  0  0  0  0  0  0  0  0  0  0  0
   -8.8920   26.8330   16.5280 C   0  0  0  0  0  0  0  0  0  0  0  0
  -12.0470   26.0620   13.9090 C   0  0  0  0  0  0  0  0  0  0  0  0
  -10.1860   27.5330   14.3260 C   0  0  0  0  0  0  0  0  0  0  0  0
   -7.7500   26.0820   17.2150 C   0  0  0  0  0  0  0  0  0  0  0  0
  -12.0020   26.3750   12.5430 C   0  0  0  0  0  0  0  0  0  0  0  0
  -10.1450   27.8400   12.9640 C   0  0  0  0  0  0  0  0  0  0  0  0
   -6.6490   25.6180   16.2580 C   0  0  0  0  0  0  0  0  0  0  0  0
  -11.0480   27.2670   12.0670 C   0  0  0  0  0  0  0  0  0  0  0  0
  -10.8880   27.6630   10.7730 O   0  0  0  0  0  0  0  0  0  0  0  0
   -5.2300   25.5230   16.8250 C   0  0  0  0  0  0  0  0  0  0  0  0
   -9.7380   28.4180   10.4380 C   0  0  0  0  0  0  0  0  0  0  0  0
   -4.4280   26.8130   16.6300 C   0  0  0  0  0  0  0  0  0  0  0  0
   -9.8460   29.9110   10.7150 C   0  0  0  0  0  0  0  0  0  0  0  0
   -2.9510   26.6680   17.0160 C   0  0  0  0  0  0  0  0  0  0  0  0
   -8.9540   30.7370   10.7460 O   0  0  0  0  0  0  0  0  0  0  0  0
  -11.1190   30.3000   10.9500 O   0  0  0  0  0  0  0  0  0  0  0  0
   -2.2380   25.7630   16.0950 N   0  0  0  0  0  0  0  0  0  0  0  0
   -2.7580   25.7190   14.7250 C   0  0  0  0  0  0  0  0  0  0  0  0
   -0.8450   25.8720   16.1100 C   0  0  0  0  0  0  0  0  0  0  0  0
   -0.1050   26.1610   17.2630 C   0  0  0  0  0  0  0  0  0  0  0  0
   -0.1680   25.6740   14.9090 C   0  0  0  0  0  0  0  0  0  0  0  0
    1.2840   26.2460   17.2030 C   0  0  0  0  0  0  0  0  0  0  0  0
    1.2080   25.7590   14.8540 C   0  0  0  0  0  0  0  0  0  0  0  0
    1.9420   26.0420   15.9880 C   0  0  0  0  0  0  0  0  0  0  0  0
    3.4240   26.1170   15.8690 C   0  0  0  0  0  0  0  0  0  0  0  0
    4.1360   25.5840   17.0090 N   0  0  0  0  0  0  0  0  0  0  0  0
    5.5330   25.9550   16.8850 C   0  0  0  0  0  0  0  0  0  0  0  0
    6.1870   24.8700   16.0730 C   0  0  0  0  0  0  0  0  0  0  0  0
    6.2080   26.1740   18.2220 C   0  0  0  0  0  0  0  0  0  0  0  0
  1  2  1  0
  2  3  2  3
  2  4  1  0
  3  5  1  0
  4  6  2  0
  4  7  1  0
  5  8  1  0
  6  9  1  0
  7 10  2  0
  8 11  1  0
  9 12  2  0
 10 12  1  0
 12 13  1  0
 11 14  1  0
 13 15  1  0
 14 16  1  0
 15 17  1  0
 16 18  1  0
 17 19  2  0
 17 20  1  0
 18 21  1  0
 21 22  1  0
 21 23  1  0
 23 24  2  0
 23 25  1  0
 24 26  1  0
 25 27  2  0
 26 28  2  0
 27 28  1  0
 28 29  1  0
 29 30  1  0
 30 31  1  0
 31 32  1  0
 31 33  1  0
M  END
