x0600_0_A_α-x1092_0_B_α
     RDKit          3D

 34 38  0  0  0  0  0  0  0  0999 V2000
  -12.5660   25.5880   16.8000 C   0  0  0  0  0  0  0  0  0  0  0  0
  -11.3400   26.3060   16.3040 C   0  0  0  0  0  0  0  0  0  0  0  0
  -10.4340   26.6270   17.0730 O   0  0  0  0  0  0  0  0  0  0  0  0
  -11.2290   26.6310   14.8530 C   0  0  0  0  0  0  0  0  0  0  0  0
  -12.1170   26.1300   13.8920 C   0  0  0  0  0  0  0  0  0  0  0  0
  -10.1890   27.4730   14.4520 C   0  0  0  0  0  0  0  0  0  0  0  0
  -11.9540   26.4740   12.5450 C   0  0  0  0  0  0  0  0  0  0  0  0
  -10.0350   27.8140   13.1100 C   0  0  0  0  0  0  0  0  0  0  0  0
  -10.9120   27.3160   12.1550 C   0  0  0  0  0  0  0  0  0  0  0  0
  -10.8430   27.5850   10.8300 O   0  0  0  0  0  0  0  0  0  0  0  0
   -9.7000   28.3260   10.4440 C   0  0  0  0  0  0  0  0  0  0  0  0
  -10.0620   29.7830   10.5500 C   0  0  0  0  0  0  0  0  0  0  0  0
   -9.2150   30.7330   10.5280 N   0  0  0  0  0  0  0  0  0  0  0  0
  -11.3860   29.9800   10.6650 O   0  0  0  0  0  0  0  0  0  0  0  0
   -9.6850   32.1070   10.6110 C   0  0  0  0  0  0  0  0  0  0  0  0
   -8.9450   32.8550   11.7230 C   0  0  0  0  0  0  0  0  0  0  0  0
   -8.5630   34.1890   11.3740 O   0  0  0  0  0  0  0  0  0  0  0  0
   -7.1590   34.3310   11.1150 C   0  0  2  0  0  0  0  0  0  0  0  0
   -6.6590   35.6650   11.7150 C   0  0  0  0  0  0  0  0  0  0  0  0
   -6.9390   34.5270    9.6150 C   0  0  1  0  0  0  0  0  0  0  0  0
   -5.6960   36.1970   10.7360 N   0  0  0  0  0  0  0  0  0  0  0  0
   -8.2600   34.3900    8.8380 C   0  0  0  0  0  0  0  0  0  0  0  0
   -6.4880   35.9870    9.5390 C   0  0  1  0  0  0  0  0  0  0  0  0
   -8.3040   35.4060    7.7440 C   0  0  0  0  0  0  0  0  0  0  0  0
   -6.0240   36.3670    8.1480 C   0  0  0  0  0  0  0  0  0  0  0  0
   -9.3490   35.6000    6.9070 N   0  0  0  0  0  0  0  0  0  0  0  0
   -7.3050   36.3220    7.4170 C   0  0  0  0  0  0  0  0  0  0  0  0
  -10.5800   34.8370    6.8940 C   0  0  0  0  0  0  0  0  0  0  0  0
   -7.7880   37.1150    6.3640 C   0  0  0  0  0  0  0  0  0  0  0  0
   -9.0670   36.6540    6.0720 C   0  0  0  0  0  0  0  0  0  0  0  0
   -7.2640   38.1860    5.6380 C   0  0  0  0  0  0  0  0  0  0  0  0
   -9.8400   37.2360    5.0940 C   0  0  0  0  0  0  0  0  0  0  0  0
   -8.0420   38.7670    4.6510 C   0  0  0  0  0  0  0  0  0  0  0  0
   -9.3180   38.3000    4.3780 C   0  0  0  0  0  0  0  0  0  0  0  0
  1  2  1  0
  2  3  2  0
  2  4  1  0
  4  5  2  0
  4  6  1  0
  5  7  1  0
  6  8  2  0
  7  9  2  0
  8  9  1  0
  9 10  1  0
 10 11  1  0
 11 12  1  0
 12 13  2  3
 12 14  1  0
 13 15  1  0
 15 16  1  0
 16 17  1  0
 18 17  1  6
 18 19  1  0
 18 20  1  0
 19 21  1  0
 20 22  1  6
 20 23  1  0
 21 23  1  0
 22 24  1  0
 23 25  1  6
 24 26  1  0
 24 27  2  0
 25 27  1  0
 26 28  1  0
 27 29  1  0
 26 30  1  0
 29 30  2  0
 29 31  1  0
 30 32  1  0
 31 33  2  0
 32 34  2  0
 33 34  1  0
M  END
