x0600_0_A_α-x0933_3_B_α
     RDKit          3D

 28 29  0  0  0  0  0  0  0  0999 V2000
  -12.5690   25.5420   16.6680 C   0  0  0  0  0  0  0  0  0  0  0  0
  -11.3240   26.2660   16.2270 C   0  0  0  0  0  0  0  0  0  0  0  0
  -10.4300   26.5390   17.0270 O   0  0  0  0  0  0  0  0  0  0  0  0
  -11.1850   26.6630   14.7960 C   0  0  0  0  0  0  0  0  0  0  0  0
  -12.0480   26.2200   13.7850 C   0  0  0  0  0  0  0  0  0  0  0  0
  -10.1360   27.5230   14.4630 C   0  0  0  0  0  0  0  0  0  0  0  0
  -11.8500   26.6420   12.4610 C   0  0  0  0  0  0  0  0  0  0  0  0
   -9.9460   27.9400   13.1490 C   0  0  0  0  0  0  0  0  0  0  0  0
  -10.7950   27.5080   12.1420 C   0  0  0  0  0  0  0  0  0  0  0  0
  -10.6820   27.8680   10.8340 O   0  0  0  0  0  0  0  0  0  0  0  0
   -9.5960   28.7410   10.5330 C   0  0  0  0  0  0  0  0  0  0  0  0
   -9.9990   30.1770   10.8450 C   0  0  0  0  0  0  0  0  0  0  0  0
   -9.3720   31.3120   11.0330 N   0  0  0  0  0  0  0  0  0  0  0  0
  -11.3280   30.2900   10.9530 O   0  0  0  0  0  0  0  0  0  0  0  0
   -7.9200   31.5410   10.9800 C   0  0  0  0  0  0  0  0  0  0  0  0
   -7.2590   31.7700   12.3470 C   0  0  0  0  0  0  0  0  0  0  0  0
   -6.2650   32.9680   12.4150 C   0  0  0  0  0  0  0  0  0  0  0  0
   -5.1050   33.0060   11.3810 C   0  0  0  0  0  0  0  0  0  0  0  0
   -3.6840   32.8130   11.9760 C   0  0  0  0  0  0  0  0  0  0  0  0
   -2.7400   34.0400   11.8170 C   0  0  0  0  0  0  0  0  0  0  0  0
   -1.2010   33.8090   11.8800 C   0  0  0  0  0  0  0  0  0  0  0  0
   -0.4870   33.7190   10.5900 N   0  0  0  0  0  0  0  0  0  0  0  0
    0.2770   34.8570   10.1430 C   0  0  0  0  0  0  0  0  0  0  0  0
    1.0080   34.3970    8.9790 N   0  0  0  0  0  0  0  0  0  0  0  0
   -0.7640   35.7770    9.7980 N   0  0  0  0  0  0  0  0  0  0  0  0
    1.2690   35.2700    7.8310 C   0  0  0  0  0  0  0  0  0  0  0  0
   -0.3380   36.8020    8.8540 C   0  0  0  0  0  0  0  0  0  0  0  0
    0.1280   36.2120    7.5340 C   0  0  0  0  0  0  0  0  0  0  0  0
  1  2  1  0
  2  3  2  0
  2  4  1  0
  4  5  2  0
  4  6  1  0
  5  7  1  0
  6  8  2  0
  7  9  2  0
  8  9  1  0
  9 10  1  0
 10 11  1  0
 11 12  1  0
 12 13  2  3
 12 14  1  0
 13 15  1  0
 15 16  1  0
 16 17  1  0
 17 18  1  0
 18 19  1  0
 19 20  1  0
 20 21  1  0
 21 22  1  0
 22 23  1  0
 23 24  1  0
 23 25  1  0
 24 26  1  0
 25 27  1  0
 26 28  1  0
 27 28  1  0
M  END
