x0600_0_A_α-x0228_1_A_β
     RDKit          3D

 31 32  0  0  0  0  0  0  0  0999 V2000
  -12.6390   26.0340   16.8510 C   0  0  0  0  0  0  0  0  0  0  0  0
  -11.2540   26.2160   16.2650 C   0  0  0  0  0  0  0  0  0  0  0  0
  -10.1680   26.0530   16.9550 N   0  0  0  0  0  0  0  0  0  0  0  0
  -11.1630   26.5950   14.8180 C   0  0  0  0  0  0  0  0  0  0  0  0
   -8.8360   26.2130   16.3580 C   0  0  0  0  0  0  0  0  0  0  0  0
  -12.0360   26.0670   13.8600 C   0  0  0  0  0  0  0  0  0  0  0  0
  -10.1810   27.5020   14.4210 C   0  0  0  0  0  0  0  0  0  0  0  0
   -8.1620   27.4320   16.9900 C   0  0  0  0  0  0  0  0  0  0  0  0
  -11.9130   26.4520   12.5170 C   0  0  0  0  0  0  0  0  0  0  0  0
  -10.0630   27.8820   13.0840 C   0  0  0  0  0  0  0  0  0  0  0  0
   -6.7030   27.1360   17.3540 C   0  0  0  0  0  0  0  0  0  0  0  0
  -10.9260   27.3590   12.1310 C   0  0  0  0  0  0  0  0  0  0  0  0
  -10.9000   27.6610   10.8080 O   0  0  0  0  0  0  0  0  0  0  0  0
   -5.8280   26.8430   16.1350 C   0  0  0  0  0  0  0  0  0  0  0  0
   -9.7980   28.4290   10.3710 C   0  0  0  0  0  0  0  0  0  0  0  0
   -4.3240   26.7850   16.4420 C   0  0  0  0  0  0  0  0  0  0  0  0
   -9.8700   29.9130   10.6980 C   0  0  0  0  0  0  0  0  0  0  0  0
   -3.5270   26.1070   15.3300 C   0  0  0  0  0  0  0  0  0  0  0  0
   -8.9600   30.7200   10.7350 O   0  0  0  0  0  0  0  0  0  0  0  0
  -11.1290   30.3170   10.9760 O   0  0  0  0  0  0  0  0  0  0  0  0
   -2.1210   25.6880   15.7160 C   0  0  0  0  0  0  0  0  0  0  0  0
   -1.2880   25.4730   14.4580 C   0  0  0  0  0  0  0  0  0  0  0  0
    0.0550   25.8320   14.7620 O   0  0  0  0  0  0  0  0  0  0  0  0
    0.2700   27.1270   15.1610 C   0  0  0  0  0  0  0  0  0  0  0  0
    1.5490   27.3700   15.6840 C   0  0  0  0  0  0  0  0  0  0  0  0
   -0.6600   28.1700   15.0820 C   0  0  0  0  0  0  0  0  0  0  0  0
    2.4900   26.3230   15.7550 N   0  0  0  0  0  0  0  0  0  0  0  0
    1.8830   28.6550   16.1300 C   0  0  0  0  0  0  0  0  0  0  0  0
   -0.3150   29.4500   15.5260 C   0  0  0  0  0  0  0  0  0  0  0  0
    0.9540   29.7050   16.0540 C   0  0  0  0  0  0  0  0  0  0  0  0
    1.3200   31.0800   16.5300 C   0  0  0  0  0  0  0  0  0  0  0  0
  1  2  1  0
  2  3  2  3
  2  4  1  0
  3  5  1  0
  4  6  2  0
  4  7  1  0
  5  8  1  0
  6  9  1  0
  7 10  2  0
  8 11  1  0
  9 12  2  0
 10 12  1  0
 12 13  1  0
 11 14  1  0
 13 15  1  0
 14 16  1  0
 15 17  1  0
 16 18  1  0
 17 19  2  0
 17 20  1  0
 18 21  1  0
 21 22  1  0
 22 23  1  0
 23 24  1  0
 24 25  2  0
 24 26  1  0
 25 27  1  0
 25 28  1  0
 26 29  2  0
 28 30  2  0
 29 30  1  0
 30 31  1  0
M  END
