x0600_0_A_α-x0548_1_B_α
     RDKit          3D

 32 34  0  0  0  0  0  0  0  0999 V2000
  -12.4520   24.9960   17.0010 C   0  0  0  0  0  0  0  0  0  0  0  0
  -11.2960   25.8090   16.4980 C   0  0  0  0  0  0  0  0  0  0  0  0
  -10.2610   25.9470   17.1440 O   0  0  0  0  0  0  0  0  0  0  0  0
  -11.4290   26.4890   15.2000 C   0  0  0  0  0  0  0  0  0  0  0  0
  -12.4160   26.1800   14.2490 C   0  0  0  0  0  0  0  0  0  0  0  0
  -10.5100   27.4910   14.9530 C   0  0  0  0  0  0  0  0  0  0  0  0
  -12.4750   26.9010   13.0590 C   0  0  0  0  0  0  0  0  0  0  0  0
  -10.5760   28.1930   13.7860 C   0  0  0  0  0  0  0  0  0  0  0  0
  -11.5570   27.9130   12.8300 C   0  0  0  0  0  0  0  0  0  0  0  0
  -11.6640   28.6130   11.6480 O   0  0  0  0  0  0  0  0  0  0  0  0
  -11.5540   30.0380   11.8290 C   0  0  0  0  0  0  0  0  0  0  0  0
  -10.9650   31.0110   10.7900 C   0  0  0  0  0  0  0  0  0  0  0  0
   -9.7900   31.5760   10.8670 N   0  0  0  0  0  0  0  0  0  0  0  0
  -11.8330   31.2390    9.8280 O   0  0  0  0  0  0  0  0  0  0  0  0
   -9.3130   32.5690    9.8780 C   0  0  0  0  0  0  0  0  0  0  0  0
   -7.9280   32.2280    9.2970 C   0  0  0  0  0  0  0  0  0  0  0  0
   -7.5130   33.0390    8.0430 C   0  0  0  0  0  0  0  0  0  0  0  0
   -7.3860   34.4920    8.3000 N   0  0  0  0  0  0  0  0  0  0  0  0
   -6.0510   34.8240    8.7950 C   0  0  0  0  0  0  0  0  0  0  0  0
   -8.0400   35.4040    7.4520 C   0  0  0  0  0  0  0  0  0  0  0  0
   -7.3850   36.2960    6.6550 C   0  0  0  0  0  0  0  0  0  0  0  0
   -9.5220   35.4060    7.4190 C   0  0  0  0  0  0  0  0  0  0  0  0
   -8.1400   37.1900    5.8080 C   0  0  0  0  0  0  0  0  0  0  0  0
  -10.2270   36.0320    6.4540 C   0  0  0  0  0  0  0  0  0  0  0  0
   -9.4820   36.7180    5.3760 C   0  0  1  0  0  0  0  0  0  0  0  0
   -7.8510   38.3940    5.3040 C   0  0  0  0  0  0  0  0  0  0  0  0
   -6.6790   39.2970    5.3610 C   0  0  0  0  0  0  0  0  0  0  0  0
  -10.0820   37.8550    4.6550 N   0  0  0  0  0  0  0  0  0  0  0  0
   -9.1080   38.7130    4.6180 C   0  0  0  0  0  0  0  0  0  0  0  0
   -6.2340   39.7480    6.6820 N   0  0  0  0  0  0  0  0  0  0  0  0
   -7.2780   40.4620    7.4070 C   0  0  0  0  0  0  0  0  0  0  0  0
   -5.0060   40.5380    6.6090 C   0  0  0  0  0  0  0  0  0  0  0  0
  1  2  1  0
  2  3  2  0
  2  4  1  0
  4  5  2  0
  4  6  1  0
  5  7  1  0
  6  8  2  0
  7  9  2  0
  8  9  1  0
  9 10  1  0
 10 11  1  0
 11 12  1  0
 12 13  2  3
 12 14  1  0
 13 15  1  0
 15 16  1  0
 16 17  1  0
 17 18  1  0
 18 19  1  0
 18 20  1  0
 20 21  2  0
 20 22  1  0
 21 23  1  0
 22 24  2  0
 23 25  1  0
 25 24  1  1
 23 26  2  0
 26 27  1  0
 25 28  1  0
 26 29  1  0
 28 29  2  0
 27 30  1  0
 30 31  1  0
 30 32  1  0
M  END
