x0600_0_A-x0548_0_B
     RDKit          3D

 32 34  0  0  0  0  0  0  0  0999 V2000
  -12.5730   25.5710   16.7610 C   0  0  0  0  0  0  0  0  0  0  0  0
  -11.3400   26.2930   16.2830 C   0  0  0  0  0  0  0  0  0  0  0  0
  -10.4400   26.6030   17.0630 O   0  0  0  0  0  0  0  0  0  0  0  0
  -11.2190   26.6380   14.8360 C   0  0  0  0  0  0  0  0  0  0  0  0
  -12.0950   26.1550   13.8540 C   0  0  0  0  0  0  0  0  0  0  0  0
  -10.1750   27.4880   14.4620 C   0  0  0  0  0  0  0  0  0  0  0  0
  -11.9160   26.5250   12.5170 C   0  0  0  0  0  0  0  0  0  0  0  0
  -10.0060   27.8540   13.1310 C   0  0  0  0  0  0  0  0  0  0  0  0
  -10.8690   27.3780   12.1510 C   0  0  0  0  0  0  0  0  0  0  0  0
  -10.7900   27.6690   10.8270 O   0  0  0  0  0  0  0  0  0  0  0  0
   -9.7410   28.5320   10.4290 C   0  0  0  0  0  0  0  0  0  0  0  0
   -9.9730   30.0330   10.6070 C   0  0  0  0  0  0  0  0  0  0  0  0
   -9.0200   30.9010   10.5730 N   0  0  0  0  0  0  0  0  0  0  0  0
  -11.2600   30.3530   10.7980 O   0  0  0  0  0  0  0  0  0  0  0  0
   -9.3140   32.3290   10.7340 C   0  0  0  0  0  0  0  0  0  0  0  0
   -8.0450   33.1940   10.6740 C   0  0  0  0  0  0  0  0  0  0  0  0
   -8.2730   34.5530    9.9860 C   0  0  0  0  0  0  0  0  0  0  0  0
   -7.5760   34.6790    8.6770 N   0  0  0  0  0  0  0  0  0  0  0  0
   -6.1210   34.5850    8.8000 C   0  0  0  0  0  0  0  0  0  0  0  0
   -8.1240   35.5110    7.6900 C   0  0  0  0  0  0  0  0  0  0  0  0
   -7.3990   36.3160    6.8570 C   0  0  0  0  0  0  0  0  0  0  0  0
   -9.6010   35.5350    7.5600 C   0  0  0  0  0  0  0  0  0  0  0  0
   -8.0980   37.1530    5.9150 C   0  0  0  0  0  0  0  0  0  0  0  0
  -10.2290   36.0770    6.5040 C   0  0  0  0  0  0  0  0  0  0  0  0
   -9.4090   36.6530    5.4250 C   0  0  1  0  0  0  0  0  0  0  0  0
   -7.7820   38.3320    5.3710 C   0  0  0  0  0  0  0  0  0  0  0  0
   -6.6210   39.2510    5.4580 C   0  0  0  0  0  0  0  0  0  0  0  0
   -9.9600   37.7420    4.6000 N   0  0  0  0  0  0  0  0  0  0  0  0
   -8.9910   38.6060    4.5910 C   0  0  0  0  0  0  0  0  0  0  0  0
   -6.0630   39.5190    6.7870 N   0  0  0  0  0  0  0  0  0  0  0  0
   -7.0030   40.1900    7.6770 C   0  0  0  0  0  0  0  0  0  0  0  0
   -4.7950   40.2450    6.7110 C   0  0  0  0  0  0  0  0  0  0  0  0
  1  2  1  0
  2  3  2  0
  2  4  1  0
  4  5  2  0
  4  6  1  0
  5  7  1  0
  6  8  2  0
  7  9  2  0
  8  9  1  0
  9 10  1  0
 10 11  1  0
 11 12  1  0
 12 13  2  3
 12 14  1  0
 13 15  1  0
 15 16  1  0
 16 17  1  0
 17 18  1  0
 18 19  1  0
 18 20  1  0
 20 21  2  0
 20 22  1  0
 21 23  1  0
 22 24  2  0
 23 25  1  0
 25 24  1  1
 23 26  2  0
 26 27  1  0
 25 28  1  0
 26 29  1  0
 28 29  2  0
 27 30  1  0
 30 31  1  0
 30 32  1  0
M  END
