x0626_0_A_α-x0864_0_A_α
     RDKit          3D

 25 26  0  0  0  0  0  0  0  0999 V2000
   -4.9120   14.8920    1.4510 N   0  0  0  0  0  0  0  0  0  0  0  0
   -6.0970   14.7010    0.8080 C   0  0  0  0  0  0  0  0  0  0  0  0
   -6.1380   14.8350   -0.4220 O   0  0  0  0  0  0  0  0  0  0  0  0
   -3.6860   14.8030    0.8780 C   0  0  0  0  0  0  0  0  0  0  0  0
   -7.3330   14.3400    1.6120 C   0  0  0  0  0  0  0  0  0  0  0  0
   -2.5010   14.6510    1.4390 N   0  0  0  0  0  0  0  0  0  0  0  0
   -3.7450   14.9000   -0.8240 S   0  0  0  0  0  0  0  0  0  0  0  0
   -8.6180   14.6300    0.8550 C   0  0  0  0  0  0  0  0  0  0  0  0
   -2.0540   14.7150   -0.8540 C   0  0  0  0  0  0  0  0  0  0  0  0
   -1.5620   14.6000    0.4290 C   0  0  0  0  0  0  0  0  0  0  0  0
   -0.1280   14.4330    0.7270 C   0  0  0  0  0  0  0  0  0  0  0  0
    0.7140   14.8060   -0.4950 C   0  0  0  0  0  0  0  0  0  0  0  0
    1.2430   13.6310   -1.3030 C   0  0  0  0  0  0  0  0  0  0  0  0
    0.9320   13.7480   -2.7010 N   0  0  0  0  0  0  0  0  0  0  0  0
    0.6870   12.6930   -3.3770 C   0  0  0  0  0  0  0  0  0  0  0  0
    0.3690   12.8660   -4.8440 C   0  0  0  0  0  0  0  0  0  0  0  0
    0.6920   11.4280   -2.8840 O   0  0  0  0  0  0  0  0  0  0  0  0
   -0.1770   11.6690   -5.4410 N   0  0  0  0  0  0  0  0  0  0  0  0
   -1.3460   11.1070   -4.9650 C   0  0  0  0  0  0  0  0  0  0  0  0
    0.4620   11.2120   -6.5720 C   0  0  0  0  0  0  0  0  0  0  0  0
    1.5120   11.7000   -6.9720 O   0  0  0  0  0  0  0  0  0  0  0  0
   -1.9120   10.0800   -5.6060 C   0  0  0  0  0  0  0  0  0  0  0  0
   -0.1650   10.0830   -7.2840 C   0  0  0  0  0  0  0  0  0  0  0  0
   -1.2990    9.5540   -6.8050 C   0  0  0  0  0  0  0  0  0  0  0  0
   -2.1340    8.1210   -7.6520 Br  0  0  0  0  0  0  0  0  0  0  0  0
  1  2  1  0
  2  3  2  0
  1  4  1  0
  2  5  1  0
  4  6  2  0
  4  7  1  0
  5  8  1  0
  7  9  1  0
  6 10  1  0
  9 10  2  0
 10 11  1  0
 11 12  1  0
 12 13  1  0
 13 14  1  0
 14 15  2  3
 15 16  1  0
 15 17  1  0
 16 18  1  0
 18 19  1  0
 18 20  1  0
 20 21  2  0
 19 22  2  0
 20 23  1  0
 22 24  1  0
 23 24  2  0
 24 25  1  0
M  END
