x0628_0_A-x0849_0_A
     RDKit          3D

 25 27  0  0  0  0  0  0  0  0999 V2000
   -0.9190    9.0390   -7.3340 C   0  0  0  0  0  0  0  0  0  0  0  0
   -0.9000   10.2290   -6.4600 C   0  0  0  0  0  0  0  0  0  0  0  0
   -1.8690   10.4760   -5.5260 N   0  0  0  0  0  0  0  0  0  0  0  0
    0.0680   11.1460   -6.5170 N   0  0  0  0  0  0  0  0  0  0  0  0
   -0.3150   12.0150   -5.5620 N   0  0  0  0  0  0  0  0  0  0  0  0
   -1.4870   11.6100   -4.9610 C   0  0  0  0  0  0  0  0  0  0  0  0
   -2.2070   12.3200   -3.8540 C   0  0  0  0  0  0  0  0  0  0  0  0
    0.4850   13.1940   -5.2830 C   0  0  0  0  0  0  0  0  0  0  0  0
    1.6440   12.9630   -4.3190 C   0  0  0  0  0  0  0  0  0  0  0  0
   -2.5400   13.7910   -4.1490 C   0  0  0  0  0  0  0  0  0  0  0  0
    1.1770   12.2090   -3.1040 C   0  0  0  0  0  0  0  0  0  0  0  0
   -3.7140   14.3160   -3.3100 C   0  0  0  0  0  0  0  0  0  0  0  0
    0.4930   11.1970   -3.1060 O   0  0  0  0  0  0  0  0  0  0  0  0
    1.5970   12.7790   -1.9630 O   0  0  0  0  0  0  0  0  0  0  0  0
   -3.2410   15.3650   -2.4610 O   0  0  0  0  0  0  0  0  0  0  0  0
   -3.4200   15.2480   -1.0950 C   0  0  0  0  0  0  0  0  0  0  0  0
   -2.2810   14.9100   -0.3160 C   0  0  0  0  0  0  0  0  0  0  0  0
   -4.6280   15.4480   -0.4520 C   0  0  0  0  0  0  0  0  0  0  0  0
   -2.4350   14.7980    1.0710 C   0  0  0  0  0  0  0  0  0  0  0  0
   -4.6550   15.3060    0.9140 C   0  0  0  0  0  0  0  0  0  0  0  0
   -0.9900   14.6850   -0.8450 C   0  0  0  0  0  0  0  0  0  0  0  0
   -3.5950   14.9920    1.6560 N   0  0  0  0  0  0  0  0  0  0  0  0
   -1.4330   14.4960    1.8700 N   0  0  0  0  0  0  0  0  0  0  0  0
    0.0560   14.3710    0.0030 C   0  0  0  0  0  0  0  0  0  0  0  0
   -0.2250   14.2890    1.3500 C   0  0  0  0  0  0  0  0  0  0  0  0
  1  2  1  0
  2  3  1  0
  2  4  2  0
  4  5  1  0
  3  6  2  0
  5  6  1  0
  6  7  1  0
  5  8  1  0
  8  9  1  0
  7 10  1  0
  9 11  1  0
 10 12  1  0
 11 13  2  0
 11 14  1  0
 12 15  1  0
 15 16  1  0
 16 17  1  0
 16 18  2  0
 17 19  2  0
 18 20  1  0
 17 21  1  0
 19 22  1  0
 20 22  2  0
 19 23  1  0
 21 24  2  0
 23 25  2  0
 24 25  1  0
M  END
