x0628_0_A_α-x0104_0_A_β
     RDKit          3D

 23 24  0  0  0  0  0  0  0  0999 V2000
   -0.7160    8.9700   -7.2270 C   0  0  0  0  0  0  0  0  0  0  0  0
   -0.8120   10.2040   -6.4270 C   0  0  0  0  0  0  0  0  0  0  0  0
   -1.9110   10.5110   -5.6720 N   0  0  0  0  0  0  0  0  0  0  0  0
    0.1670   11.1110   -6.3830 N   0  0  0  0  0  0  0  0  0  0  0  0
   -0.3460   12.0340   -5.5500 N   0  0  0  0  0  0  0  0  0  0  0  0
   -1.6020   11.6700   -5.1250 C   0  0  0  0  0  0  0  0  0  0  0  0
   -2.4790   12.4570   -4.2040 C   0  0  0  0  0  0  0  0  0  0  0  0
    0.4350   13.2150   -5.2360 C   0  0  0  0  0  0  0  0  0  0  0  0
    1.5880   12.9250   -4.2860 C   0  0  0  0  0  0  0  0  0  0  0  0
   -1.8950   12.6310   -2.8020 C   0  0  0  0  0  0  0  0  0  0  0  0
    1.1000   12.2360   -3.0420 C   0  0  0  0  0  0  0  0  0  0  0  0
   -2.7890   13.4580   -1.8640 C   0  0  0  0  0  0  0  0  0  0  0  0
    0.5970   11.1300   -2.9570 O   0  0  0  0  0  0  0  0  0  0  0  0
    1.2740   12.9800   -1.9350 O   0  0  0  0  0  0  0  0  0  0  0  0
   -3.2670   14.7980   -2.4420 C   0  0  0  0  0  0  0  0  0  0  0  0
   -4.6910   14.8380   -2.4340 O   0  0  0  0  0  0  0  0  0  0  0  0
   -5.2060   14.8150   -1.1570 C   0  0  0  0  0  0  0  0  0  0  0  0
   -4.3740   14.8860   -0.0990 N   0  0  0  0  0  0  0  0  0  0  0  0
   -6.5820   14.7150   -1.0540 C   0  0  0  0  0  0  0  0  0  0  0  0
   -4.9600   14.8570    1.1170 C   0  0  0  0  0  0  0  0  0  0  0  0
   -7.1520   14.6820    0.2150 C   0  0  0  0  0  0  0  0  0  0  0  0
   -6.3320   14.7540    1.3390 C   0  0  0  0  0  0  0  0  0  0  0  0
   -6.8780   14.7290    2.6230 N   0  0  0  0  0  0  0  0  0  0  0  0
  1  2  1  0
  2  3  1  0
  2  4  2  0
  4  5  1  0
  3  6  2  0
  5  6  1  0
  6  7  1  0
  5  8  1  0
  8  9  1  0
  7 10  1  0
  9 11  1  0
 10 12  1  0
 11 13  2  0
 11 14  1  0
 12 15  1  0
 15 16  1  0
 16 17  1  0
 17 18  2  0
 17 19  1  0
 18 20  1  0
 19 21  2  0
 20 22  2  0
 21 22  1  0
 22 23  1  0
M  END
