x0628_0_A_α-x0631_0_A_β
     RDKit          3D

 19 20  0  0  0  0  0  0  0  0999 V2000
   -1.2490    9.4190   -7.3940 C   0  0  1  0  0  0  0  0  0  0  0  0
   -0.0030    8.5320   -7.2990 C   0  0  0  0  0  0  0  0  0  0  0  0
    1.1480    9.1850   -7.9560 N   0  0  0  0  0  0  0  0  0  0  0  0
   -2.5350    8.6120   -7.2150 C   0  0  0  0  0  0  0  0  0  0  0  0
   -1.1780   10.5250   -6.4020 C   0  0  0  0  0  0  0  0  0  0  0  0
   -2.1210   10.7270   -5.4380 N   0  0  0  0  0  0  0  0  0  0  0  0
   -0.1750   11.4020   -6.3960 N   0  0  0  0  0  0  0  0  0  0  0  0
   -0.5010   12.2010   -5.3780 N   0  0  0  0  0  0  0  0  0  0  0  0
   -1.6750   11.7920   -4.8010 C   0  0  0  0  0  0  0  0  0  0  0  0
    1.0500    9.1030   -9.3930 N   0  0  0  0  0  0  0  0  0  0  0  0
    1.2270   10.5660   -7.6350 N   0  0  0  0  0  0  0  0  0  0  0  0
   -2.3220   12.4520   -3.6490 C   0  0  0  0  0  0  0  0  0  0  0  0
    0.3800   13.3100   -5.0600 C   0  0  0  0  0  0  0  0  0  0  0  0
    0.9750   10.4950   -9.8470 C   0  0  0  0  0  0  0  0  0  0  0  0
    0.5720   11.2680   -8.6930 N   0  0  0  0  0  0  0  0  0  0  0  0
    1.5580   12.9270   -4.1680 C   0  0  0  0  0  0  0  0  0  0  0  0
    1.0860   12.2400   -2.9160 C   0  0  0  0  0  0  0  0  0  0  0  0
    0.6140   11.1210   -2.8170 O   0  0  0  0  0  0  0  0  0  0  0  0
    1.2320   13.0070   -1.8260 O   0  0  0  0  0  0  0  0  0  0  0  0
  1  2  1  0
  2  3  1  0
  1  4  1  1
  1  5  1  0
  5  6  1  0
  5  7  2  0
  7  8  1  0
  6  9  2  0
  8  9  1  0
  3 10  1  0
  3 11  1  0
  9 12  1  0
  8 13  1  0
 10 14  1  0
 11 15  1  0
 14 15  1  0
 13 16  1  0
 16 17  1  0
 17 18  2  0
 17 19  1  0
M  END
