x0628_0_A-x0421_0_A
     RDKit          3D

 25 27  0  0  0  0  0  0  0  0999 V2000
   -0.8490    8.9440   -7.2810 C   0  0  0  0  0  0  0  0  0  0  0  0
   -0.8270   10.1680   -6.4610 C   0  0  0  0  0  0  0  0  0  0  0  0
   -1.8280   10.4860   -5.5800 N   0  0  0  0  0  0  0  0  0  0  0  0
    0.1700   11.0510   -6.5170 N   0  0  0  0  0  0  0  0  0  0  0  0
   -0.2200   11.9720   -5.6210 N   0  0  0  0  0  0  0  0  0  0  0  0
   -1.4250   11.6330   -5.0580 C   0  0  0  0  0  0  0  0  0  0  0  0
   -2.1480   12.4350   -4.0310 C   0  0  0  0  0  0  0  0  0  0  0  0
    0.6320   13.1270   -5.3930 C   0  0  0  0  0  0  0  0  0  0  0  0
    1.6730   12.9260   -4.2950 C   0  0  0  0  0  0  0  0  0  0  0  0
   -2.1340   13.9300   -4.3570 C   0  0  0  0  0  0  0  0  0  0  0  0
    1.1040   12.2500   -3.0790 C   0  0  0  0  0  0  0  0  0  0  0  0
   -1.2740   14.7680   -3.4110 C   0  0  0  0  0  0  0  0  0  0  0  0
    0.5800   11.1510   -3.0010 O   0  0  0  0  0  0  0  0  0  0  0  0
    1.2320   13.0190   -1.9840 O   0  0  0  0  0  0  0  0  0  0  0  0
   -1.8090   14.7090   -2.0540 N   0  0  0  0  0  0  0  0  0  0  0  0
   -3.0440   14.9920   -1.8830 C   0  0  0  0  0  0  0  0  0  0  0  0
   -3.9980   15.3610   -2.7860 N   0  0  0  0  0  0  0  0  0  0  0  0
   -3.5930   14.9400   -0.5300 C   0  0  0  0  0  0  0  0  0  0  0  0
   -2.9130   15.0320    0.6740 C   0  0  0  0  0  0  0  0  0  0  0  0
   -4.9520   14.7820   -0.3010 N   0  0  0  0  0  0  0  0  0  0  0  0
   -3.8760   14.9260    1.6320 N   0  0  0  0  0  0  0  0  0  0  0  0
   -5.0730   14.7760    1.0060 C   0  0  0  0  0  0  0  0  0  0  0  0
   -6.4170   14.6160    1.7550 C   0  0  0  0  0  0  0  0  0  0  0  0
   -7.7040   14.6580    0.9740 C   0  0  0  0  0  0  0  0  0  0  0  0
   -7.2210   13.3620    1.5560 C   0  0  0  0  0  0  0  0  0  0  0  0
  1  2  1  0
  2  3  1  0
  2  4  2  0
  4  5  1  0
  3  6  2  0
  5  6  1  0
  6  7  1  0
  5  8  1  0
  8  9  1  0
  7 10  1  0
  9 11  1  0
 10 12  1  0
 11 13  2  0
 11 14  1  0
 12 15  1  0
 15 16  2  3
 16 17  1  0
 16 18  1  0
 18 19  2  0
 18 20  1  0
 19 21  1  0
 20 22  2  0
 21 22  1  0
 22 23  1  0
 23 24  1  0
 23 25  1  0
 24 25  1  0
M  END
