x0628_0_A_α-x0855_0_A_α
     RDKit          3D

 12 12  0  0  0  0  0  0  0  0999 V2000
   -0.8160    9.0060   -7.3180 C   0  0  0  0  0  0  0  0  0  0  0  0
   -0.8320   10.2070   -6.4640 C   0  0  0  0  0  0  0  0  0  0  0  0
   -1.8430   10.4740   -5.5820 N   0  0  0  0  0  0  0  0  0  0  0  0
    0.1440   11.1180   -6.4910 N   0  0  0  0  0  0  0  0  0  0  0  0
   -0.2780   12.0010   -5.5700 N   0  0  0  0  0  0  0  0  0  0  0  0
   -1.4740   11.6110   -5.0240 C   0  0  0  0  0  0  0  0  0  0  0  0
   -2.2120   12.3600   -3.9850 C   0  0  0  0  0  0  0  0  0  0  0  0
    0.5270   13.1820   -5.2890 C   0  0  0  0  0  0  0  0  0  0  0  0
    1.6080   12.9400   -4.2420 C   0  0  0  0  0  0  0  0  0  0  0  0
    1.0570   12.2560   -3.0170 C   0  0  0  0  0  0  0  0  0  0  0  0
    0.5290   11.1570   -2.9770 O   0  0  0  0  0  0  0  0  0  0  0  0
    1.1930   12.9850   -1.8990 O   0  0  0  0  0  0  0  0  0  0  0  0
  1  2  1  0
  2  3  1  0
  2  4  2  0
  4  5  1  0
  3  6  2  0
  5  6  1  0
  6  7  1  0
  5  8  1  0
  8  9  1  0
  9 10  1  0
 10 11  2  0
 10 12  1  0
M  END
