x0628_0_A-x0967_0_A
     RDKit          3D

 24 26  0  0  0  0  0  0  0  0999 V2000
   -1.0910    9.1320   -7.2570 C   0  0  0  0  0  0  0  0  0  0  0  0
   -1.0210   10.3110   -6.3730 C   0  0  0  0  0  0  0  0  0  0  0  0
   -1.9550   10.5790   -5.4060 N   0  0  0  0  0  0  0  0  0  0  0  0
   -0.0350   11.1990   -6.4550 N   0  0  0  0  0  0  0  0  0  0  0  0
   -0.3610   12.0750   -5.4820 N   0  0  0  0  0  0  0  0  0  0  0  0
   -1.5250   11.7000   -4.8430 C   0  0  0  0  0  0  0  0  0  0  0  0
   -2.1840   12.4320   -3.6960 C   0  0  0  0  0  0  0  0  0  0  0  0
    0.5110   13.2090   -5.2610 C   0  0  0  0  0  0  0  0  0  0  0  0
    1.6450   12.9830   -4.2740 C   0  0  0  0  0  0  0  0  0  0  0  0
   -3.0640   13.6560   -4.0460 C   0  0  0  0  0  0  0  0  0  0  0  0
    1.1900   12.2940   -3.0180 C   0  0  0  0  0  0  0  0  0  0  0  0
   -2.9330   14.8850   -3.0970 C   0  0  0  0  0  0  0  0  0  0  0  0
    0.5120   11.2830   -2.9200 O   0  0  0  0  0  0  0  0  0  0  0  0
    1.6370   12.9640   -1.9460 O   0  0  0  0  0  0  0  0  0  0  0  0
   -3.6790   14.8540   -1.7720 C   0  0  0  0  0  0  0  0  0  0  0  0
   -5.0300   14.7400   -1.8160 N   0  0  0  0  0  0  0  0  0  0  0  0
   -2.9880   14.9410   -0.5620 C   0  0  0  0  0  0  0  0  0  0  0  0
   -5.7310   14.7060   -0.6790 C   0  0  0  0  0  0  0  0  0  0  0  0
   -3.7080   14.9090    0.6250 C   0  0  0  0  0  0  0  0  0  0  0  0
   -7.0630   14.5870   -0.7760 N   0  0  0  0  0  0  0  0  0  0  0  0
   -5.0970   14.7880    0.5730 C   0  0  0  0  0  0  0  0  0  0  0  0
   -5.8800   14.7450    1.7330 C   0  0  0  0  0  0  0  0  0  0  0  0
   -7.7950   14.5420    0.3620 C   0  0  0  0  0  0  0  0  0  0  0  0
   -7.2560   14.6160    1.6290 C   0  0  0  0  0  0  0  0  0  0  0  0
  1  2  1  0
  2  3  1  0
  2  4  2  0
  4  5  1  0
  3  6  2  0
  5  6  1  0
  6  7  1  0
  5  8  1  0
  8  9  1  0
  7 10  1  0
  9 11  1  0
 10 12  1  0
 11 13  2  0
 11 14  1  0
 12 15  1  0
 15 16  2  0
 15 17  1  0
 16 18  1  0
 17 19  2  0
 18 20  2  0
 18 21  1  0
 19 21  1  0
 21 22  2  0
 20 23  1  0
 22 24  1  0
 23 24  2  0
M  END
