x0628_0_A-x0962_0_A
     RDKit          3D

 21 22  0  0  0  0  0  0  0  0999 V2000
   -1.0310    8.8710   -7.2100 C   0  0  0  0  0  0  0  0  0  0  0  0
   -0.8910   10.1300   -6.4560 C   0  0  0  0  0  0  0  0  0  0  0  0
   -1.8660   10.6110   -5.6270 N   0  0  0  0  0  0  0  0  0  0  0  0
    0.2070   10.8870   -6.5340 N   0  0  0  0  0  0  0  0  0  0  0  0
   -0.0910   11.9030   -5.6980 N   0  0  0  0  0  0  0  0  0  0  0  0
   -1.3450   11.7310   -5.1600 C   0  0  0  0  0  0  0  0  0  0  0  0
   -1.9810   12.6820   -4.2090 C   0  0  0  0  0  0  0  0  0  0  0  0
    0.8650   12.9810   -5.4830 C   0  0  0  0  0  0  0  0  0  0  0  0
    1.7480   12.9270   -4.2260 C   0  0  0  0  0  0  0  0  0  0  0  0
   -1.4780   14.1050   -4.4930 C   0  0  0  0  0  0  0  0  0  0  0  0
    1.0750   12.2460   -3.0580 C   0  0  0  0  0  0  0  0  0  0  0  0
   -2.4200   15.2270   -4.0860 C   0  0  0  0  0  0  0  0  0  0  0  0
    0.5100   11.1640   -3.0860 O   0  0  0  0  0  0  0  0  0  0  0  0
    1.1660   12.9680   -1.9200 O   0  0  0  0  0  0  0  0  0  0  0  0
   -2.8620   15.1060   -2.7010 C   0  0  0  0  0  0  0  0  0  0  0  0
   -3.3170   15.0670   -1.6050 C   0  0  0  0  0  0  0  0  0  0  0  0
   -4.0110   15.1210   -0.3930 C   0  0  0  0  0  0  0  0  0  0  0  0
   -3.4830   15.4210    0.8280 N   0  0  0  0  0  0  0  0  0  0  0  0
   -5.3420   14.8960   -0.1750 C   0  0  0  0  0  0  0  0  0  0  0  0
   -4.5050   15.3750    1.7210 C   0  0  0  0  0  0  0  0  0  0  0  0
   -5.6430   15.0520    1.1450 N   0  0  0  0  0  0  0  0  0  0  0  0
  1  2  1  0
  2  3  1  0
  2  4  2  0
  4  5  1  0
  3  6  2  0
  5  6  1  0
  6  7  1  0
  5  8  1  0
  8  9  1  0
  7 10  1  0
  9 11  1  0
 10 12  1  0
 11 13  2  0
 11 14  1  0
 12 15  1  0
 15 16  3  0
 16 17  1  0
 17 18  1  0
 17 19  2  0
 18 20  1  0
 19 21  1  0
 20 21  2  0
M  END
