x0626_0_A-x0253_0_A
     RDKit          3D

 27 28  0  0  0  0  0  0  0  0999 V2000
   -4.8600   14.8780    1.4660 N   0  0  0  0  0  0  0  0  0  0  0  0
   -6.0480   14.7030    0.8230 C   0  0  0  0  0  0  0  0  0  0  0  0
   -6.1000   14.8400   -0.4070 O   0  0  0  0  0  0  0  0  0  0  0  0
   -3.6370   14.8360    0.8730 C   0  0  0  0  0  0  0  0  0  0  0  0
   -7.2850   14.3490    1.6270 C   0  0  0  0  0  0  0  0  0  0  0  0
   -2.4250   14.7000    1.4060 N   0  0  0  0  0  0  0  0  0  0  0  0
   -3.7490   14.9810   -0.8240 S   0  0  0  0  0  0  0  0  0  0  0  0
   -8.5670   14.6590    0.8750 C   0  0  0  0  0  0  0  0  0  0  0  0
   -2.0510   14.8470   -0.9000 C   0  0  0  0  0  0  0  0  0  0  0  0
   -1.5070   14.7080    0.3660 C   0  0  0  0  0  0  0  0  0  0  0  0
   -0.0380   14.5630    0.5790 C   0  0  0  0  0  0  0  0  0  0  0  0
    0.4940   13.7970   -0.6480 C   0  0  0  0  0  0  0  0  0  0  0  0
    1.7770   14.1880   -1.3570 C   0  0  0  0  0  0  0  0  0  0  0  0
    1.4510   14.0750   -2.7700 N   0  0  0  0  0  0  0  0  0  0  0  0
    0.9400   12.9980   -3.3060 C   0  0  0  0  0  0  0  0  0  0  0  0
    0.6400   11.8140   -2.6920 O   0  0  0  0  0  0  0  0  0  0  0  0
    0.6260   13.0940   -4.7840 C   0  0  0  0  0  0  0  0  0  0  0  0
    0.3910   11.8180   -5.3990 N   0  0  0  0  0  0  0  0  0  0  0  0
    1.1110   11.5920   -6.5460 C   0  0  0  0  0  0  0  0  0  0  0  0
    2.2120   12.0880   -6.6650 O   0  0  0  0  0  0  0  0  0  0  0  0
    0.4780   10.7020   -7.5690 C   0  0  0  0  0  0  0  0  0  0  0  0
   -0.5040    9.7880   -7.1760 C   0  0  0  0  0  0  0  0  0  0  0  0
    0.8510   10.7610   -8.9200 C   0  0  0  0  0  0  0  0  0  0  0  0
   -1.1120    8.9460   -8.1120 C   0  0  0  0  0  0  0  0  0  0  0  0
    0.2500    9.9240   -9.8550 C   0  0  0  0  0  0  0  0  0  0  0  0
   -2.1660    7.9760   -7.6620 C   0  0  0  0  0  0  0  0  0  0  0  0
   -0.7320    9.0160   -9.4590 C   0  0  0  0  0  0  0  0  0  0  0  0
  1  2  1  0
  2  3  2  0
  1  4  1  0
  2  5  1  0
  4  6  2  0
  4  7  1  0
  5  8  1  0
  7  9  1  0
  6 10  1  0
  9 10  2  0
 10 11  1  0
 11 12  1  0
 12 13  1  0
 13 14  1  0
 14 15  2  3
 15 16  1  0
 15 17  1  0
 17 18  1  0
 18 19  1  0
 19 20  2  0
 19 21  1  0
 21 22  2  0
 21 23  1  0
 22 24  1  0
 23 25  2  0
 24 26  1  0
 24 27  2  0
 25 27  1  0
M  END
