x0626_0_A-x0727_0_A
     RDKit          3D

 27 28  0  0  0  0  0  0  0  0999 V2000
   -4.9930   14.8930    1.4280 N   0  0  0  0  0  0  0  0  0  0  0  0
   -6.1670   14.6940    0.7730 C   0  0  0  0  0  0  0  0  0  0  0  0
   -6.2010   14.8160   -0.4540 O   0  0  0  0  0  0  0  0  0  0  0  0
   -3.7640   14.8030    0.8680 C   0  0  0  0  0  0  0  0  0  0  0  0
   -7.4010   14.3350    1.5770 C   0  0  0  0  0  0  0  0  0  0  0  0
   -2.6010   14.6630    1.4630 N   0  0  0  0  0  0  0  0  0  0  0  0
   -3.7760   14.8830   -0.8360 S   0  0  0  0  0  0  0  0  0  0  0  0
   -8.6800   14.6890    0.8380 C   0  0  0  0  0  0  0  0  0  0  0  0
   -2.0860   14.7060   -0.8100 C   0  0  0  0  0  0  0  0  0  0  0  0
   -1.6420   14.6040    0.4910 C   0  0  0  0  0  0  0  0  0  0  0  0
   -0.2410   14.4430    0.8620 C   0  0  0  0  0  0  0  0  0  0  0  0
    0.6420   14.9840   -0.2390 C   0  0  0  0  0  0  0  0  0  0  0  0
    1.2790   13.9040   -1.0640 C   0  0  0  0  0  0  0  0  0  0  0  0
    1.1420   13.9360   -2.5450 C   0  0  0  0  0  0  0  0  0  0  0  0
    1.6770   12.6580   -2.8830 O   0  0  0  0  0  0  0  0  0  0  0  0
    0.8090   11.8700   -3.5320 C   0  0  0  0  0  0  0  0  0  0  0  0
    0.7740   12.3290   -4.9780 C   0  0  1  0  0  0  0  0  0  0  0  0
    0.1710   10.9400   -3.0480 O   0  0  0  0  0  0  0  0  0  0  0  0
    0.0420   11.3580   -5.7660 N   0  0  0  0  0  0  0  0  0  0  0  0
    0.1800   13.7180   -5.1130 C   0  0  0  0  0  0  0  0  0  0  0  0
    0.6150   10.9640   -6.9290 C   0  0  0  0  0  0  0  0  0  0  0  0
    1.5820   11.5440   -7.3500 O   0  0  0  0  0  0  0  0  0  0  0  0
    0.0180    9.7710   -7.6440 C   0  0  0  0  0  0  0  0  0  0  0  0
   -1.2670   10.1490   -8.3790 C   0  0  0  0  0  0  0  0  0  0  0  0
   -0.3440    8.6000   -6.7090 C   0  0  0  0  0  0  0  0  0  0  0  0
   -2.2870    9.0820   -7.9990 C   0  0  0  0  0  0  0  0  0  0  0  0
   -1.8560    8.6130   -6.6210 C   0  0  0  0  0  0  0  0  0  0  0  0
  1  2  1  0
  2  3  2  0
  1  4  1  0
  2  5  1  0
  4  6  2  0
  4  7  1  0
  5  8  1  0
  7  9  1  0
  6 10  1  0
  9 10  2  0
 10 11  1  0
 11 12  1  0
 12 13  1  0
 13 14  1  0
 14 15  1  0
 15 16  1  0
 16 17  1  0
 16 18  2  0
 17 19  1  0
 17 20  1  1
 19 21  1  0
 21 22  2  0
 21 23  1  0
 23 24  1  0
 23 25  1  0
 24 26  1  0
 25 27  1  0
 26 27  1  0
M  END
