x0628_0_A-x0969_0_A
     RDKit          3D

 24 26  0  0  0  0  0  0  0  0999 V2000
   -0.9220    9.0420   -7.0980 C   0  0  0  0  0  0  0  0  0  0  0  0
   -0.9400   10.2910   -6.3130 C   0  0  0  0  0  0  0  0  0  0  0  0
   -1.9910   10.6580   -5.5110 N   0  0  0  0  0  0  0  0  0  0  0  0
    0.0680   11.1580   -6.3260 N   0  0  0  0  0  0  0  0  0  0  0  0
   -0.3670   12.1170   -5.4880 N   0  0  0  0  0  0  0  0  0  0  0  0
   -1.6150   11.8220   -4.9920 C   0  0  0  0  0  0  0  0  0  0  0  0
   -2.4370   12.6490   -4.0350 C   0  0  0  0  0  0  0  0  0  0  0  0
    0.4950   13.2560   -5.2480 C   0  0  0  0  0  0  0  0  0  0  0  0
    1.6520   12.9750   -4.3070 C   0  0  0  0  0  0  0  0  0  0  0  0
   -1.6970   13.2810   -2.8320 C   0  0  0  0  0  0  0  0  0  0  0  0
    1.2090   12.2910   -3.0380 C   0  0  0  0  0  0  0  0  0  0  0  0
   -2.1510   14.6960   -2.3620 C   0  0  0  0  0  0  0  0  0  0  0  0
    0.5290   11.2800   -2.9420 O   0  0  0  0  0  0  0  0  0  0  0  0
    1.6650   12.9570   -1.9660 O   0  0  0  0  0  0  0  0  0  0  0  0
   -3.2960   14.7640   -1.3600 C   0  0  0  0  0  0  0  0  0  0  0  0
   -4.5900   14.7010   -1.7490 C   0  0  0  0  0  0  0  0  0  0  0  0
   -2.9720   14.8900    0.0730 C   0  0  0  0  0  0  0  0  0  0  0  0
   -5.6330   14.7130   -0.7870 C   0  0  0  0  0  0  0  0  0  0  0  0
   -3.9660   14.9100    0.9890 C   0  0  0  0  0  0  0  0  0  0  0  0
   -6.9400   14.6350   -0.9090 N   0  0  0  0  0  0  0  0  0  0  0  0
   -5.2850   14.8070    0.5500 N   0  0  0  0  0  0  0  0  0  0  0  0
   -6.5000   14.7670    1.2250 C   0  0  0  0  0  0  0  0  0  0  0  0
   -7.4790   14.6670    0.3520 N   0  0  0  0  0  0  0  0  0  0  0  0
   -6.6360   14.8350    2.5680 N   0  0  0  0  0  0  0  0  0  0  0  0
  1  2  1  0
  2  3  1  0
  2  4  2  0
  4  5  1  0
  3  6  2  0
  5  6  1  0
  6  7  1  0
  5  8  1  0
  8  9  1  0
  7 10  1  0
  9 11  1  0
 10 12  1  0
 11 13  2  0
 11 14  1  0
 12 15  1  0
 15 16  2  0
 15 17  1  0
 16 18  1  0
 17 19  2  0
 18 20  2  0
 18 21  1  0
 19 21  1  0
 21 22  1  0
 20 23  1  0
 22 23  2  0
 22 24  1  0
M  END
