x0626_0_A-x0910_1_A
     RDKit          3D

 16 17  0  0  0  0  0  0  0  0999 V2000
   -4.8570   14.3330    1.6050 N   0  0  0  0  0  0  0  0  0  0  0  0
   -5.8620   13.6310    1.0060 C   0  0  0  0  0  0  0  0  0  0  0  0
   -5.4870   12.6880    0.3270 O   0  0  0  0  0  0  0  0  0  0  0  0
   -3.5910   14.4530    1.0790 C   0  0  0  0  0  0  0  0  0  0  0  0
   -7.3250   14.0290    0.9810 C   0  0  1  0  0  0  0  0  0  0  0  0
   -2.4260   14.4940    1.6840 N   0  0  0  0  0  0  0  0  0  0  0  0
   -3.5460   14.5440   -0.6360 S   0  0  0  0  0  0  0  0  0  0  0  0
   -7.9060   14.6910    2.2150 C   0  0  0  0  0  0  0  0  0  0  0  0
   -1.8500   14.6370   -0.5800 C   0  0  0  0  0  0  0  0  0  0  0  0
   -1.4310   14.5940    0.7270 C   0  0  0  0  0  0  0  0  0  0  0  0
   -6.9820   14.8960   -0.1070 C   0  0  0  0  0  0  0  0  0  0  0  0
   -0.0410   14.6340    1.1640 C   0  0  0  0  0  0  0  0  0  0  0  0
   -7.6950   15.3180   -1.1290 N   0  0  0  0  0  0  0  0  0  0  0  0
   -5.6900   15.3110   -0.0480 N   0  0  0  0  0  0  0  0  0  0  0  0
   -6.7660   16.0490   -1.7660 N   0  0  0  0  0  0  0  0  0  0  0  0
   -5.5760   16.0260   -1.1000 C   0  0  0  0  0  0  0  0  0  0  0  0
  1  2  1  0
  2  3  2  0
  1  4  1  0
  2  5  1  0
  4  6  2  0
  4  7  1  0
  5  8  1  1
  7  9  1  0
  6 10  1  0
  9 10  2  0
  5 11  1  0
 10 12  1  0
 11 13  2  0
 11 14  1  0
 13 15  1  0
 14 16  2  0
 15 16  1  0
M  END
