x0626_0_A-x0926_0_A
     RDKit          3D

 11 11  0  0  0  0  0  0  0  0999 V2000
   -4.8740   14.9320    1.4440 N   0  0  0  0  0  0  0  0  0  0  0  0
   -5.9990   14.7600    0.6660 C   0  0  0  0  0  0  0  0  0  0  0  0
   -6.1010   14.8750   -0.5490 O   0  0  0  0  0  0  0  0  0  0  0  0
   -3.6090   14.8440    0.9380 C   0  0  0  0  0  0  0  0  0  0  0  0
   -7.1890   14.3880    1.5400 C   0  0  0  0  0  0  0  0  0  0  0  0
   -2.4700   14.6930    1.5730 N   0  0  0  0  0  0  0  0  0  0  0  0
   -3.5210   14.9220   -0.7670 S   0  0  0  0  0  0  0  0  0  0  0  0
   -8.5190   14.6750    0.8630 C   0  0  0  0  0  0  0  0  0  0  0  0
   -1.8200   14.7420   -0.6580 C   0  0  0  0  0  0  0  0  0  0  0  0
   -1.4430   14.6370    0.6650 C   0  0  0  0  0  0  0  0  0  0  0  0
   -0.0780   14.4730    1.1850 C   0  0  0  0  0  0  0  0  0  0  0  0
  1  2  1  0
  2  3  2  0
  1  4  1  0
  2  5  1  0
  4  6  2  0
  4  7  1  0
  5  8  1  0
  7  9  1  0
  6 10  1  0
  9 10  2  0
 10 11  1  0
M  END
