x0628_0_A_α-3EW5_0_C_α
     RDKit          3D

 26 26  0  0  0  0  0  0  0  0999 V2000
   -0.9150    9.0520   -7.2950 C   0  0  0  0  0  0  0  0  0  0  0  0
   -0.8270   10.2980   -6.4730 C   0  0  0  0  0  0  0  0  0  0  0  0
   -1.7600   10.6790   -5.5880 N   0  0  0  0  0  0  0  0  0  0  0  0
    0.1220   11.2230   -6.4450 N   0  0  0  0  0  0  0  0  0  0  0  0
   -0.1450   12.1930   -5.5730 N   0  0  0  0  0  0  0  0  0  0  0  0
   -1.3530   11.8330   -5.0330 C   0  0  0  0  0  0  0  0  0  0  0  0
   -2.1160   12.5790   -3.9950 C   0  0  0  0  0  0  0  0  0  0  0  0
    0.7120   13.3520   -5.3060 C   0  0  2  0  0  0  0  0  0  0  0  0
    1.7210   13.0020   -4.2550 C   0  0  0  0  0  0  0  0  0  0  0  0
   -0.0890   14.5940   -4.9590 C   0  0  0  0  0  0  0  0  0  0  0  0
    1.1330   12.3470   -3.0550 C   0  0  0  0  0  0  0  0  0  0  0  0
    0.7130   15.8530   -4.9810 C   0  0  0  0  0  0  0  0  0  0  0  0
    0.5640   11.2360   -3.0490 O   0  0  0  0  0  0  0  0  0  0  0  0
    1.2290   13.0280   -1.8530 O   0  0  0  0  0  0  0  0  0  0  0  0
   -0.1150   17.1080   -4.9220 C   0  0  0  0  0  0  0  0  0  0  0  0
    0.1380   18.1800   -5.9320 C   0  0  0  0  0  0  0  0  0  0  0  0
   -0.8960   19.0340   -6.1960 O   0  0  0  0  0  0  0  0  0  0  0  0
   -0.7830   19.6590   -7.7360 P   0  0  0  0  0  0  0  0  0  0  0  0
   -1.7460   20.8950   -8.2200 O   0  0  0  0  0  0  0  0  0  0  0  0
    0.4100   20.5360   -7.4230 O   0  0  0  0  0  0  0  0  0  0  0  0
    0.1260   18.8450   -8.8300 O   0  0  0  0  0  0  0  0  0  0  0  0
   -2.3990   21.6460   -7.2860 C   0  0  0  0  0  0  0  0  0  0  0  0
   -3.8700   21.8660   -7.6580 C   0  0  2  0  0  0  0  0  0  0  0  0
   -4.0760   23.2300   -8.3020 C   0  0  0  0  0  0  0  0  0  0  0  0
   -4.6920   21.8190   -6.5420 O   0  0  0  0  0  0  0  0  0  0  0  0
   -4.6540   23.0610   -9.5630 O   0  0  0  0  0  0  0  0  0  0  0  0
  1  2  1  0
  2  3  1  0
  2  4  2  0
  4  5  1  0
  3  6  2  0
  5  6  1  0
  6  7  1  0
  5  8  1  0
  8  9  1  1
  8 10  1  0
  9 11  1  0
 10 12  1  0
 11 13  2  0
 11 14  1  0
 12 15  1  0
 15 16  1  0
 16 17  1  0
 17 18  1  0
 18 19  1  0
 18 20  1  0
 18 21  1  0
 19 22  1  0
 22 23  1  0
 23 24  1  0
 23 25  1  1
 24 26  1  0
M  CHG  1  21  -1
M  END
