x0628_0_A-x0724_0_A
     RDKit          3D

 28 30  0  0  0  0  0  0  0  0999 V2000
   -0.8720    9.0670   -7.2950 C   0  0  0  0  0  0  0  0  0  0  0  0
   -0.8840   10.2650   -6.4380 C   0  0  0  0  0  0  0  0  0  0  0  0
   -1.9000   10.5450   -5.5620 N   0  0  0  0  0  0  0  0  0  0  0  0
    0.0990   11.1680   -6.4550 N   0  0  0  0  0  0  0  0  0  0  0  0
   -0.3200   12.0570   -5.5330 N   0  0  0  0  0  0  0  0  0  0  0  0
   -1.5320   11.6790   -4.9930 C   0  0  0  0  0  0  0  0  0  0  0  0
   -2.2840   12.4410   -3.9410 C   0  0  0  0  0  0  0  0  0  0  0  0
    0.5070   13.2140   -5.2530 C   0  0  0  0  0  0  0  0  0  0  0  0
    1.6300   12.9130   -4.2670 C   0  0  0  0  0  0  0  0  0  0  0  0
   -2.4370   13.9520   -4.1950 C   0  0  0  0  0  0  0  0  0  0  0  0
    1.1030   12.2060   -3.0500 C   0  0  0  0  0  0  0  0  0  0  0  0
   -3.6950   14.6180   -3.5980 C   0  0  0  0  0  0  0  0  0  0  0  0
    0.6130   11.0910   -2.9870 O   0  0  0  0  0  0  0  0  0  0  0  0
    1.2250   12.9470   -1.9380 O   0  0  0  0  0  0  0  0  0  0  0  0
   -3.7460   14.6660   -2.0860 C   0  0  0  0  0  0  0  0  0  0  0  0
   -2.5570   14.7210   -1.3490 C   0  0  0  0  0  0  0  0  0  0  0  0
   -4.9700   14.6580   -1.3950 C   0  0  0  0  0  0  0  0  0  0  0  0
   -2.5790   14.7710    0.0450 C   0  0  0  0  0  0  0  0  0  0  0  0
   -5.0000   14.7070    0.0070 C   0  0  0  0  0  0  0  0  0  0  0  0
   -6.2290   14.7070    0.7260 N   0  0  0  0  0  0  0  0  0  0  0  0
   -3.7950   14.7650    0.7250 C   0  0  0  0  0  0  0  0  0  0  0  0
   -7.4240   14.5590    0.0960 N   0  0  0  0  0  0  0  0  0  0  0  0
   -6.4040   14.8560    2.0860 C   0  0  0  0  0  0  0  0  0  0  0  0
   -7.7600   14.8210    2.3450 C   0  0  0  0  0  0  0  0  0  0  0  0
   -8.3330   14.6290    1.0710 C   0  0  0  0  0  0  0  0  0  0  0  0
   -8.4600   14.9630    3.6500 C   0  0  0  0  0  0  0  0  0  0  0  0
   -8.2510   13.7470    4.4230 N   0  0  0  0  0  0  0  0  0  0  0  0
   -8.7110   13.9200    5.7940 C   0  0  0  0  0  0  0  0  0  0  0  0
  1  2  1  0
  2  3  1  0
  2  4  2  0
  4  5  1  0
  3  6  2  0
  5  6  1  0
  6  7  1  0
  5  8  1  0
  8  9  1  0
  7 10  1  0
  9 11  1  0
 10 12  1  0
 11 13  2  0
 11 14  1  0
 12 15  1  0
 15 16  2  0
 15 17  1  0
 16 18  1  0
 17 19  2  0
 19 20  1  0
 18 21  2  0
 19 21  1  0
 20 22  1  0
 20 23  1  0
 23 24  2  0
 22 25  2  0
 24 25  1  0
 24 26  1  0
 26 27  1  0
 27 28  1  0
M  END
