x0628_0_A-x0722_0_A
     RDKit          3D

 26 27  0  0  0  0  0  0  0  0999 V2000
   -0.8670    8.9610   -7.3290 C   0  0  0  0  0  0  0  0  0  0  0  0
   -0.8680   10.1670   -6.4790 C   0  0  0  0  0  0  0  0  0  0  0  0
   -1.8620   10.4290   -5.5720 N   0  0  0  0  0  0  0  0  0  0  0  0
    0.1050   11.0860   -6.5340 N   0  0  0  0  0  0  0  0  0  0  0  0
   -0.3090   11.9740   -5.5970 N   0  0  0  0  0  0  0  0  0  0  0  0
   -1.4960   11.5700   -5.0240 C   0  0  0  0  0  0  0  0  0  0  0  0
   -2.2330   12.3150   -3.9570 C   0  0  0  0  0  0  0  0  0  0  0  0
    0.4840   13.1590   -5.3260 C   0  0  0  0  0  0  0  0  0  0  0  0
    1.6690   12.9320   -4.3990 C   0  0  0  0  0  0  0  0  0  0  0  0
   -1.9120   11.7980   -2.5500 C   0  0  0  0  0  0  0  0  0  0  0  0
    1.2540   12.2040   -3.1480 C   0  0  0  0  0  0  0  0  0  0  0  0
   -1.1300   12.8510   -1.7540 C   0  0  0  0  0  0  0  0  0  0  0  0
    0.5530   11.1990   -3.1350 O   0  0  0  0  0  0  0  0  0  0  0  0
    1.7080   12.7670   -2.0170 O   0  0  0  0  0  0  0  0  0  0  0  0
   -1.7690   14.2410   -1.7470 C   0  0  0  0  0  0  0  0  0  0  0  0
   -2.3020   14.6260   -0.4090 C   0  0  0  0  0  0  0  0  0  0  0  0
   -3.5500   15.1300   -0.0570 C   0  0  0  0  0  0  0  0  0  0  0  0
   -1.5850   14.5430    0.7640 N   0  0  0  0  0  0  0  0  0  0  0  0
   -0.2350   14.1070    1.0170 C   0  0  0  0  0  0  0  0  0  0  0  0
   -4.7340   15.4400   -0.9250 C   0  0  0  0  0  0  0  0  0  0  0  0
   -2.2710   14.9400    1.8130 N   0  0  0  0  0  0  0  0  0  0  0  0
   -3.4430   15.3010    1.3390 C   0  0  0  0  0  0  0  0  0  0  0  0
   -4.4120   15.8190    2.2850 C   0  0  0  0  0  0  0  0  0  0  0  0
   -5.9960   14.6830   -0.5370 C   0  0  0  0  0  0  0  0  0  0  0  0
   -7.1370   15.1050   -0.7120 O   0  0  0  0  0  0  0  0  0  0  0  0
   -5.8090   13.4580    0.0440 N   0  0  0  0  0  0  0  0  0  0  0  0
  1  2  1  0
  2  3  1  0
  2  4  2  0
  4  5  1  0
  3  6  2  0
  5  6  1  0
  6  7  1  0
  5  8  1  0
  8  9  1  0
  7 10  1  0
  9 11  1  0
 10 12  1  0
 11 13  2  0
 11 14  1  0
 12 15  1  0
 15 16  1  0
 16 17  2  0
 16 18  1  0
 18 19  1  0
 17 20  1  0
 18 21  1  0
 17 22  1  0
 21 22  2  0
 22 23  1  0
 20 24  1  0
 24 25  2  0
 24 26  1  0
M  END
