x0626_0_A-x0628_0_A
     RDKit          3D

 25 26  0  0  0  0  0  0  0  0999 V2000
   -5.0290   14.7580    1.4040 N   0  0  0  0  0  0  0  0  0  0  0  0
   -6.2210   14.6410    0.7690 C   0  0  0  0  0  0  0  0  0  0  0  0
   -6.2670   14.7990   -0.4590 O   0  0  0  0  0  0  0  0  0  0  0  0
   -3.8100   14.7790    0.8300 C   0  0  0  0  0  0  0  0  0  0  0  0
   -7.4550   14.3290    1.5830 C   0  0  0  0  0  0  0  0  0  0  0  0
   -2.6280   14.7710    1.3980 N   0  0  0  0  0  0  0  0  0  0  0  0
   -3.8680   14.8210   -0.8760 S   0  0  0  0  0  0  0  0  0  0  0  0
   -8.7250   14.6880    0.8380 C   0  0  0  0  0  0  0  0  0  0  0  0
   -2.1700   14.8350   -0.8910 C   0  0  0  0  0  0  0  0  0  0  0  0
   -1.6850   14.8150    0.4010 C   0  0  0  0  0  0  0  0  0  0  0  0
   -0.2770   14.8430    0.7830 C   0  0  0  0  0  0  0  0  0  0  0  0
    0.6250   14.2080   -0.2520 C   0  0  0  0  0  0  0  0  0  0  0  0
    0.1410   13.7580   -1.6070 C   0  0  0  0  0  0  0  0  0  0  0  0
    1.2180   12.9180   -2.0480 O   0  0  0  0  0  0  0  0  0  0  0  0
    1.0010   12.1800   -3.1530 C   0  0  0  0  0  0  0  0  0  0  0  0
    0.4460   11.0930   -3.1600 O   0  0  0  0  0  0  0  0  0  0  0  0
    1.5560   12.9000   -4.3480 C   0  0  0  0  0  0  0  0  0  0  0  0
    0.4600   13.1610   -5.3570 C   0  0  0  0  0  0  0  0  0  0  0  0
   -0.3290   11.9760   -5.6090 N   0  0  0  0  0  0  0  0  0  0  0  0
    0.0910   11.0880   -6.5250 N   0  0  0  0  0  0  0  0  0  0  0  0
   -1.5090   11.5810   -5.0350 C   0  0  0  0  0  0  0  0  0  0  0  0
   -2.2320   12.3400   -3.9920 C   0  0  0  0  0  0  0  0  0  0  0  0
   -1.8700   10.4310   -5.5690 N   0  0  0  0  0  0  0  0  0  0  0  0
   -0.8710   10.1650   -6.4670 C   0  0  0  0  0  0  0  0  0  0  0  0
   -0.8550    8.9530   -7.3050 C   0  0  0  0  0  0  0  0  0  0  0  0
  1  2  1  0
  2  3  2  0
  1  4  1  0
  2  5  1  0
  4  6  2  0
  4  7  1  0
  5  8  1  0
  7  9  1  0
  6 10  1  0
  9 10  2  0
 10 11  1  0
 11 12  1  0
 12 13  1  0
 13 14  1  0
 14 15  1  0
 15 16  2  0
 15 17  1  0
 17 18  1  0
 18 19  1  0
 19 20  1  0
 19 21  1  0
 21 22  1  0
 21 23  2  0
 20 24  2  0
 23 24  1  0
 24 25  1  0
M  END
