x0626_0_A_α-x0926_0_A_α
     RDKit          3D

 11 11  0  0  0  0  0  0  0  0999 V2000
   -4.9010   14.9180    1.4310 N   0  0  0  0  0  0  0  0  0  0  0  0
   -6.0230   14.7310    0.6540 C   0  0  0  0  0  0  0  0  0  0  0  0
   -6.1250   14.8440   -0.5630 O   0  0  0  0  0  0  0  0  0  0  0  0
   -3.6400   14.8190    0.9190 C   0  0  0  0  0  0  0  0  0  0  0  0
   -7.2100   14.3470    1.5260 C   0  0  0  0  0  0  0  0  0  0  0  0
   -2.4970   14.6730    1.5490 N   0  0  0  0  0  0  0  0  0  0  0  0
   -3.5680   14.8860   -0.7890 S   0  0  0  0  0  0  0  0  0  0  0  0
   -8.5430   14.6540    0.8740 C   0  0  0  0  0  0  0  0  0  0  0  0
   -1.8660   14.6960   -0.6910 C   0  0  0  0  0  0  0  0  0  0  0  0
   -1.4800   14.6000    0.6320 C   0  0  0  0  0  0  0  0  0  0  0  0
   -0.1130   14.4290    1.1420 C   0  0  0  0  0  0  0  0  0  0  0  0
  1  2  1  0
  2  3  2  0
  1  4  1  0
  2  5  1  0
  4  6  2  0
  4  7  1  0
  5  8  1  0
  7  9  1  0
  6 10  1  0
  9 10  2  0
 10 11  1  0
M  END
