x0626_0_A-x0950_0_A
     RDKit          3D

 19 19  0  0  0  0  0  0  0  0999 V2000
   -5.0240   14.6930    1.3230 N   0  0  0  0  0  0  0  0  0  0  0  0
   -6.2380   14.6160    0.7280 C   0  0  0  0  0  0  0  0  0  0  0  0
   -6.3090   14.7840   -0.4920 O   0  0  0  0  0  0  0  0  0  0  0  0
   -3.8320   14.7660    0.6960 C   0  0  0  0  0  0  0  0  0  0  0  0
   -7.4640   14.3390    1.5750 C   0  0  0  0  0  0  0  0  0  0  0  0
   -2.6500   14.7790    1.2270 N   0  0  0  0  0  0  0  0  0  0  0  0
   -3.9150   14.8500   -1.0050 S   0  0  0  0  0  0  0  0  0  0  0  0
   -8.7420   14.7020    0.8460 C   0  0  0  0  0  0  0  0  0  0  0  0
   -2.2130   14.9150   -1.0490 C   0  0  0  0  0  0  0  0  0  0  0  0
   -1.7090   14.8760    0.2340 C   0  0  0  0  0  0  0  0  0  0  0  0
   -0.2970   14.9320    0.6350 C   0  0  0  0  0  0  0  0  0  0  0  0
    0.6880   14.3260   -0.3540 C   0  0  0  0  0  0  0  0  0  0  0  0
    0.3680   13.9750   -1.7940 C   0  0  0  0  0  0  0  0  0  0  0  0
    1.1060   12.7660   -2.0550 O   0  0  0  0  0  0  0  0  0  0  0  0
    0.9100   12.0620   -3.1910 C   0  0  0  0  0  0  0  0  0  0  0  0
    1.5790   12.7370   -4.3900 C   0  0  1  0  0  0  0  0  0  0  0  0
    0.2950   11.0080   -3.2650 O   0  0  0  0  0  0  0  0  0  0  0  0
    3.0740   12.4540   -4.4160 C   0  0  0  0  0  0  0  0  0  0  0  0
    1.0060   12.2620   -5.6090 O   0  0  0  0  0  0  0  0  0  0  0  0
  1  2  1  0
  2  3  2  0
  1  4  1  0
  2  5  1  0
  4  6  2  0
  4  7  1  0
  5  8  1  0
  7  9  1  0
  6 10  1  0
  9 10  2  0
 10 11  1  0
 11 12  1  0
 12 13  1  0
 13 14  1  0
 14 15  1  0
 15 16  1  0
 15 17  2  0
 16 18  1  6
 16 19  1  0
M  END
