x0626_0_A_α-x0727_0_A_α
     RDKit          3D

 27 28  0  0  0  0  0  0  0  0999 V2000
   -4.9910   14.8940    1.4250 N   0  0  0  0  0  0  0  0  0  0  0  0
   -6.1680   14.6920    0.7760 C   0  0  0  0  0  0  0  0  0  0  0  0
   -6.2000   14.8140   -0.4560 O   0  0  0  0  0  0  0  0  0  0  0  0
   -3.7650   14.8030    0.8700 C   0  0  0  0  0  0  0  0  0  0  0  0
   -7.4000   14.3340    1.5760 C   0  0  0  0  0  0  0  0  0  0  0  0
   -2.6010   14.6620    1.4610 N   0  0  0  0  0  0  0  0  0  0  0  0
   -3.7770   14.8820   -0.8360 S   0  0  0  0  0  0  0  0  0  0  0  0
   -8.6800   14.6890    0.8390 C   0  0  0  0  0  0  0  0  0  0  0  0
   -2.0850   14.7040   -0.8120 C   0  0  0  0  0  0  0  0  0  0  0  0
   -1.6420   14.6020    0.4910 C   0  0  0  0  0  0  0  0  0  0  0  0
   -0.2410   14.4410    0.8600 C   0  0  0  0  0  0  0  0  0  0  0  0
    0.6410   14.9830   -0.2400 C   0  0  0  0  0  0  0  0  0  0  0  0
    1.2800   13.9040   -1.0670 C   0  0  0  0  0  0  0  0  0  0  0  0
    1.1460   13.9350   -2.5470 C   0  0  0  0  0  0  0  0  0  0  0  0
    1.6790   12.6570   -2.8820 O   0  0  0  0  0  0  0  0  0  0  0  0
    0.8120   11.8690   -3.5330 C   0  0  0  0  0  0  0  0  0  0  0  0
    0.7740   12.3300   -4.9770 C   0  0  1  0  0  0  0  0  0  0  0  0
    0.1730   10.9380   -3.0480 O   0  0  0  0  0  0  0  0  0  0  0  0
    0.0430   11.3580   -5.7660 N   0  0  0  0  0  0  0  0  0  0  0  0
    0.1790   13.7170   -5.1130 C   0  0  0  0  0  0  0  0  0  0  0  0
    0.6140   10.9650   -6.9280 C   0  0  0  0  0  0  0  0  0  0  0  0
    1.5820   11.5440   -7.3510 O   0  0  0  0  0  0  0  0  0  0  0  0
    0.0190    9.7700   -7.6430 C   0  0  0  0  0  0  0  0  0  0  0  0
   -1.2680   10.1500   -8.3800 C   0  0  0  0  0  0  0  0  0  0  0  0
   -0.3430    8.6010   -6.7090 C   0  0  0  0  0  0  0  0  0  0  0  0
   -2.2870    9.0820   -8.0000 C   0  0  0  0  0  0  0  0  0  0  0  0
   -1.8560    8.6130   -6.6220 C   0  0  0  0  0  0  0  0  0  0  0  0
  1  2  1  0
  2  3  2  0
  1  4  1  0
  2  5  1  0
  4  6  2  0
  4  7  1  0
  5  8  1  0
  7  9  1  0
  6 10  1  0
  9 10  2  0
 10 11  1  0
 11 12  1  0
 12 13  1  0
 13 14  1  0
 14 15  1  0
 15 16  1  0
 16 17  1  0
 16 18  2  0
 17 19  1  0
 17 20  1  1
 19 21  1  0
 21 22  2  0
 21 23  1  0
 23 24  1  0
 23 25  1  0
 24 26  1  0
 25 27  1  0
 26 27  1  0
M  END
