x0628_0_A_α-6woj_A_0_A_α
     RDKit          3D

 28 29  0  0  0  0  0  0  0  0999 V2000
   -0.7850    9.2140   -7.4350 C   0  0  0  0  0  0  0  0  0  0  0  0
   -0.8560   10.3350   -6.4780 C   0  0  0  0  0  0  0  0  0  0  0  0
   -1.9580   10.5580   -5.6980 N   0  0  0  0  0  0  0  0  0  0  0  0
    0.1360   11.2170   -6.3020 N   0  0  0  0  0  0  0  0  0  0  0  0
   -0.3770   12.0360   -5.3420 N   0  0  0  0  0  0  0  0  0  0  0  0
   -1.6310   11.6160   -4.9900 C   0  0  0  0  0  0  0  0  0  0  0  0
   -2.4840   12.2700   -3.9710 C   0  0  0  0  0  0  0  0  0  0  0  0
    0.4120   13.1600   -4.8060 C   0  0  1  0  0  0  0  0  0  0  0  0
    1.6600   12.7330   -4.0580 C   0  0  0  0  0  0  0  0  0  0  0  0
    0.5600   14.3920   -5.7110 C   0  0  0  0  0  0  0  0  0  0  0  0
    1.1870   12.0760   -2.7990 C   0  0  0  0  0  0  0  0  0  0  0  0
    0.0310   15.7270   -5.1500 C   0  0  0  0  0  0  0  0  0  0  0  0
    0.7360   10.9590   -2.6890 O   0  0  0  0  0  0  0  0  0  0  0  0
    1.2850   12.8980   -1.7440 O   0  0  0  0  0  0  0  0  0  0  0  0
    0.9380   16.9190   -5.5400 C   0  0  0  0  0  0  0  0  0  0  0  0
    0.2930   17.8130   -6.6150 C   0  0  0  0  0  0  0  0  0  0  0  0
   -0.1910   19.1670   -6.1990 C   0  0  0  0  0  0  0  0  0  0  0  0
   -1.4640   19.6370   -6.8920 C   0  0  0  0  0  0  0  0  0  0  0  0
   -1.1830   20.5120   -8.1140 C   0  0  0  0  0  0  0  0  0  0  0  0
   -1.5510   21.9800   -7.9490 C   0  0  0  0  0  0  0  0  0  0  0  0
   -2.9220   22.3080   -7.3540 C   0  0  2  0  0  0  0  0  0  0  0  0
   -3.9060   21.2890   -7.5500 O   0  0  0  0  0  0  0  0  0  0  0  0
   -3.6060   23.5980   -7.8280 C   0  0  1  0  0  0  0  0  0  0  0  0
   -3.7760   23.6990   -9.2470 O   0  0  0  0  0  0  0  0  0  0  0  0
   -5.1210   21.8780   -7.0630 C   0  0  2  0  0  0  0  0  0  0  0  0
   -5.0020   23.4180   -7.2560 C   0  0  1  0  0  0  0  0  0  0  0  0
   -5.2870   21.5450   -5.6910 O   0  0  0  0  0  0  0  0  0  0  0  0
   -5.2410   24.2060   -6.0830 O   0  0  0  0  0  0  0  0  0  0  0  0
  1  2  1  0
  2  3  1  0
  2  4  2  0
  4  5  1  0
  3  6  2  0
  5  6  1  0
  6  7  1  0
  5  8  1  0
  8  9  1  6
  8 10  1  0
  9 11  1  0
 10 12  1  0
 11 13  2  0
 11 14  1  0
 12 15  1  0
 15 16  1  0
 16 17  1  0
 17 18  1  0
 18 19  1  0
 19 20  1  0
 21 20  1  6
 21 22  1  0
 21 23  1  0
 23 24  1  6
 22 25  1  0
 23 26  1  0
 25 26  1  0
 25 27  1  1
 26 28  1  1
M  END
