x0628_0_A-x0662_0_A
     RDKit          3D

 29 31  0  0  0  0  0  0  0  0999 V2000
   -2.0030    8.2070   -5.6570 C   0  0  0  0  0  0  0  0  0  0  0  0
   -1.7880    9.6290   -5.3470 C   0  0  0  0  0  0  0  0  0  0  0  0
   -2.6590   10.3870   -4.6220 N   0  0  0  0  0  0  0  0  0  0  0  0
   -0.7180   10.2780   -5.7620 N   0  0  0  0  0  0  0  0  0  0  0  0
   -0.9250   11.5110   -5.2880 N   0  0  0  0  0  0  0  0  0  0  0  0
   -2.0970   11.5810   -4.5920 C   0  0  0  0  0  0  0  0  0  0  0  0
   -2.6530   12.7750   -3.9260 C   0  0  0  0  0  0  0  0  0  0  0  0
    0.1030   12.4540   -5.6220 C   0  0  1  0  0  0  0  0  0  0  0  0
    0.9690   13.0100   -4.4770 C   0  0  0  0  0  0  0  0  0  0  0  0
    0.9760   11.7230   -6.6020 C   0  0  0  0  0  0  0  0  0  0  0  0
    0.7620   12.3110   -3.1640 C   0  0  0  0  0  0  0  0  0  0  0  0
    2.1700   11.8660   -6.5030 O   0  0  0  0  0  0  0  0  0  0  0  0
    0.4390   10.7630   -7.6500 C   0  0  0  0  0  0  0  0  0  0  0  0
    0.3250   11.1890   -2.9800 O   0  0  0  0  0  0  0  0  0  0  0  0
    1.1200   13.0880   -2.1260 O   0  0  0  0  0  0  0  0  0  0  0  0
   -0.5510    9.8130   -7.3860 C   0  0  0  0  0  0  0  0  0  0  0  0
    0.9610   10.8140   -8.9420 C   0  0  0  0  0  0  0  0  0  0  0  0
   -0.9950    8.9500   -8.3870 C   0  0  0  0  0  0  0  0  0  0  0  0
    0.5330    9.9590   -9.9390 C   0  0  0  0  0  0  0  0  0  0  0  0
    1.0540    9.9840  -11.2360 N   0  0  0  0  0  0  0  0  0  0  0  0
   -0.4550    9.0200   -9.6600 C   0  0  0  0  0  0  0  0  0  0  0  0
    2.2070    9.3240  -11.6210 C   0  0  0  0  0  0  0  0  0  0  0  0
    2.6200    8.2990  -11.0920 O   0  0  0  0  0  0  0  0  0  0  0  0
    2.9310    9.9610  -12.7430 C   0  0  0  0  0  0  0  0  0  0  0  0
    2.7850   11.2670  -13.3020 C   0  0  0  0  0  0  0  0  0  0  0  0
    3.8960    9.2870  -13.3910 N   0  0  0  0  0  0  0  0  0  0  0  0
    4.3410   10.1340  -14.3230 N   0  0  0  0  0  0  0  0  0  0  0  0
    3.7080   11.3400  -14.3170 C   0  0  0  0  0  0  0  0  0  0  0  0
    5.3990    9.7010  -15.1950 C   0  0  0  0  0  0  0  0  0  0  0  0
  1  2  1  0
  2  3  1  0
  2  4  2  0
  4  5  1  0
  3  6  2  0
  5  6  1  0
  6  7  1  0
  5  8  1  0
  8  9  1  1
  8 10  1  0
  9 11  1  0
 10 12  2  0
 10 13  1  0
 11 14  2  0
 11 15  1  0
 13 16  2  0
 13 17  1  0
 16 18  1  0
 17 19  2  0
 19 20  1  0
 18 21  2  0
 19 21  1  0
 20 22  1  0
 22 23  2  0
 22 24  1  0
 24 25  1  0
 24 26  2  0
 26 27  1  0
 25 28  2  0
 27 28  1  0
 27 29  1  0
M  END
