x0628_0_A_α-x0685_0_A_α
     RDKit          3D

 24 25  0  0  0  0  0  0  0  0999 V2000
   -0.8110    9.0500   -7.3110 C   0  0  0  0  0  0  0  0  0  0  0  0
   -0.8200   10.2810   -6.5020 C   0  0  0  0  0  0  0  0  0  0  0  0
   -1.8720   10.6310   -5.7030 N   0  0  0  0  0  0  0  0  0  0  0  0
    0.1990   11.1420   -6.4870 N   0  0  0  0  0  0  0  0  0  0  0  0
   -0.2360   12.0820   -5.6260 N   0  0  0  0  0  0  0  0  0  0  0  0
   -1.4870   11.7720   -5.1560 C   0  0  0  0  0  0  0  0  0  0  0  0
   -2.3010   12.5650   -4.1880 C   0  0  0  0  0  0  0  0  0  0  0  0
    0.6260   13.2170   -5.3390 C   0  0  0  0  0  0  0  0  0  0  0  0
    1.6680   12.9430   -4.2640 C   0  0  0  0  0  0  0  0  0  0  0  0
   -2.3620   14.0830   -4.4440 C   0  0  0  0  0  0  0  0  0  0  0  0
    1.0730   12.2860   -3.0460 C   0  0  0  0  0  0  0  0  0  0  0  0
   -3.0190   14.6830   -3.2750 C   0  0  0  0  0  0  0  0  0  0  0  0
    0.5940   11.1650   -2.9730 O   0  0  0  0  0  0  0  0  0  0  0  0
    1.1160   13.0810   -1.9670 O   0  0  0  0  0  0  0  0  0  0  0  0
   -3.5590   14.9480   -2.2480 C   0  0  0  0  0  0  0  0  0  0  0  0
   -4.2120   14.9950   -0.9920 C   0  0  0  0  0  0  0  0  0  0  0  0
   -3.4980   15.1640    0.1860 C   0  0  0  0  0  0  0  0  0  0  0  0
   -5.5810   14.8560   -0.9150 C   0  0  0  0  0  0  0  0  0  0  0  0
   -4.1930   15.1810    1.3880 C   0  0  0  0  0  0  0  0  0  0  0  0
   -6.2750   14.8670    0.2380 N   0  0  0  0  0  0  0  0  0  0  0  0
   -5.5780   15.0270    1.3740 C   0  0  0  0  0  0  0  0  0  0  0  0
   -6.3430   15.0320    2.5340 N   0  0  0  0  0  0  0  0  0  0  0  0
   -7.7740   14.8050    2.5230 C   0  0  0  0  0  0  0  0  0  0  0  0
   -8.0930   13.4020    3.0100 C   0  0  0  0  0  0  0  0  0  0  0  0
  1  2  1  0
  2  3  1  0
  2  4  2  0
  4  5  1  0
  3  6  2  0
  5  6  1  0
  6  7  1  0
  5  8  1  0
  8  9  1  0
  7 10  1  0
  9 11  1  0
 10 12  1  0
 11 13  2  0
 11 14  1  0
 12 15  3  0
 15 16  1  0
 16 17  2  0
 16 18  1  0
 17 19  1  0
 18 20  2  0
 19 21  2  0
 20 21  1  0
 21 22  1  0
 22 23  1  0
 23 24  1  0
M  END
