x0628_0_A_α-x0967_0_A_α
     RDKit          3D

 24 26  0  0  0  0  0  0  0  0999 V2000
   -1.0920    9.1310   -7.2560 C   0  0  0  0  0  0  0  0  0  0  0  0
   -1.0200   10.3110   -6.3740 C   0  0  0  0  0  0  0  0  0  0  0  0
   -1.9550   10.5790   -5.4060 N   0  0  0  0  0  0  0  0  0  0  0  0
   -0.0350   11.2000   -6.4550 N   0  0  0  0  0  0  0  0  0  0  0  0
   -0.3600   12.0760   -5.4810 N   0  0  0  0  0  0  0  0  0  0  0  0
   -1.5240   11.7000   -4.8430 C   0  0  0  0  0  0  0  0  0  0  0  0
   -2.1840   12.4310   -3.6970 C   0  0  0  0  0  0  0  0  0  0  0  0
    0.5120   13.2090   -5.2610 C   0  0  0  0  0  0  0  0  0  0  0  0
    1.6430   12.9830   -4.2740 C   0  0  0  0  0  0  0  0  0  0  0  0
   -3.0630   13.6570   -4.0440 C   0  0  0  0  0  0  0  0  0  0  0  0
    1.1910   12.2920   -3.0170 C   0  0  0  0  0  0  0  0  0  0  0  0
   -2.9340   14.8850   -3.0980 C   0  0  0  0  0  0  0  0  0  0  0  0
    0.5120   11.2820   -2.9200 O   0  0  0  0  0  0  0  0  0  0  0  0
    1.6370   12.9620   -1.9450 O   0  0  0  0  0  0  0  0  0  0  0  0
   -3.6780   14.8550   -1.7700 C   0  0  0  0  0  0  0  0  0  0  0  0
   -5.0300   14.7400   -1.8160 N   0  0  0  0  0  0  0  0  0  0  0  0
   -2.9900   14.9420   -0.5640 C   0  0  0  0  0  0  0  0  0  0  0  0
   -5.7310   14.7060   -0.6770 C   0  0  0  0  0  0  0  0  0  0  0  0
   -3.7050   14.9100    0.6260 C   0  0  0  0  0  0  0  0  0  0  0  0
   -7.0620   14.5870   -0.7750 N   0  0  0  0  0  0  0  0  0  0  0  0
   -5.0960   14.7890    0.5740 C   0  0  0  0  0  0  0  0  0  0  0  0
   -5.8800   14.7440    1.7330 C   0  0  0  0  0  0  0  0  0  0  0  0
   -7.7950   14.5430    0.3640 C   0  0  0  0  0  0  0  0  0  0  0  0
   -7.2540   14.6160    1.6300 C   0  0  0  0  0  0  0  0  0  0  0  0
  1  2  1  0
  2  3  1  0
  2  4  2  0
  4  5  1  0
  3  6  2  0
  5  6  1  0
  6  7  1  0
  5  8  1  0
  8  9  1  0
  7 10  1  0
  9 11  1  0
 10 12  1  0
 11 13  2  0
 11 14  1  0
 12 15  1  0
 15 16  2  0
 15 17  1  0
 16 18  1  0
 17 19  2  0
 18 20  2  0
 18 21  1  0
 19 21  1  0
 21 22  2  0
 20 23  1  0
 22 24  1  0
 23 24  2  0
M  END
