x0626_0_A-x0855_0_A
     RDKit          3D

 24 25  0  0  0  0  0  0  0  0999 V2000
   -4.9140   14.8940    1.4580 N   0  0  0  0  0  0  0  0  0  0  0  0
   -6.0970   14.7070    0.8100 C   0  0  0  0  0  0  0  0  0  0  0  0
   -6.1380   14.8510   -0.4190 O   0  0  0  0  0  0  0  0  0  0  0  0
   -3.6860   14.8090    0.8920 C   0  0  0  0  0  0  0  0  0  0  0  0
   -7.3310   14.3370    1.6080 C   0  0  0  0  0  0  0  0  0  0  0  0
   -2.5020   14.6640    1.4600 N   0  0  0  0  0  0  0  0  0  0  0  0
   -3.7290   14.9050   -0.8110 S   0  0  0  0  0  0  0  0  0  0  0  0
   -8.6140   14.6590    0.8590 C   0  0  0  0  0  0  0  0  0  0  0  0
   -2.0360   14.7280   -0.8240 C   0  0  0  0  0  0  0  0  0  0  0  0
   -1.5510   14.6170    0.4640 C   0  0  0  0  0  0  0  0  0  0  0  0
   -0.1160   14.4600    0.7620 C   0  0  0  0  0  0  0  0  0  0  0  0
    0.6770   14.8650   -0.4780 C   0  0  0  0  0  0  0  0  0  0  0  0
    0.8310   13.7620   -1.5130 C   0  0  0  0  0  0  0  0  0  0  0  0
    2.1880   13.7640   -2.1990 C   0  0  0  0  0  0  0  0  0  0  0  0
    2.2760   12.5870   -2.9950 O   0  0  0  0  0  0  0  0  0  0  0  0
    1.0970   12.0350   -3.3680 C   0  0  0  0  0  0  0  0  0  0  0  0
    0.5100   11.1720   -2.7220 O   0  0  0  0  0  0  0  0  0  0  0  0
    0.5990   12.5780   -4.6760 C   0  0  0  0  0  0  0  0  0  0  0  0
   -0.4450   11.7160   -5.1700 N   0  0  0  0  0  0  0  0  0  0  0  0
   -0.3270   10.7500   -6.1290 C   0  0  0  0  0  0  0  0  0  0  0  0
   -1.6940   11.8200   -4.6640 N   0  0  0  0  0  0  0  0  0  0  0  0
   -1.5690   10.1980   -6.2360 C   0  0  0  0  0  0  0  0  0  0  0  0
   -2.3800   10.8810   -5.3250 C   0  0  0  0  0  0  0  0  0  0  0  0
   -2.1130    8.8090   -7.3570 Br  0  0  0  0  0  0  0  0  0  0  0  0
  1  2  1  0
  2  3  2  0
  1  4  1  0
  2  5  1  0
  4  6  2  0
  4  7  1  0
  5  8  1  0
  7  9  1  0
  6 10  1  0
  9 10  2  0
 10 11  1  0
 11 12  1  0
 12 13  1  0
 13 14  1  0
 14 15  1  0
 15 16  1  0
 16 17  2  0
 16 18  1  0
 18 19  1  0
 19 20  1  0
 19 21  1  0
 20 22  2  0
 21 23  2  0
 22 23  1  0
 22 24  1  0
M  END
