x0628_0_A-x0742_0_A
     RDKit          3D

 30 33  0  0  0  0  0  0  0  0999 V2000
   -0.9090    8.9860   -7.2690 C   0  0  0  0  0  0  0  0  0  0  0  0
   -0.8970   10.1770   -6.4000 C   0  0  0  0  0  0  0  0  0  0  0  0
   -1.8410   10.3970   -5.4320 N   0  0  0  0  0  0  0  0  0  0  0  0
    0.0400   11.1240   -6.4980 N   0  0  0  0  0  0  0  0  0  0  0  0
   -0.3390   11.9810   -5.5330 N   0  0  0  0  0  0  0  0  0  0  0  0
   -1.4710   11.5450   -4.8910 C   0  0  0  0  0  0  0  0  0  0  0  0
   -2.1450   12.2700   -3.7710 C   0  0  0  0  0  0  0  0  0  0  0  0
    0.4430   13.1790   -5.3100 C   0  0  0  0  0  0  0  0  0  0  0  0
    1.6340   12.9510   -4.3960 C   0  0  0  0  0  0  0  0  0  0  0  0
   -3.1250   11.4180   -2.9480 C   0  0  0  0  0  0  0  0  0  0  0  0
    1.2140   12.2480   -3.1360 C   0  0  0  0  0  0  0  0  0  0  0  0
   -4.5720   11.9180   -3.0430 C   0  0  0  0  0  0  0  0  0  0  0  0
    0.5430   11.2340   -3.0240 O   0  0  0  0  0  0  0  0  0  0  0  0
    1.6790   12.8840   -2.0490 O   0  0  0  0  0  0  0  0  0  0  0  0
   -5.3550   11.5540   -1.8720 N   0  0  0  0  0  0  0  0  0  0  0  0
   -5.5160   12.1990   -0.7620 C   0  0  0  0  0  0  0  0  0  0  0  0
   -6.4630   11.5180    0.2070 C   0  0  0  0  0  0  0  0  0  0  0  0
   -4.9210   13.5550   -0.2910 C   0  0  2  0  0  0  0  0  0  0  0  0
   -4.6480   13.4620    1.2210 C   0  0  0  0  0  0  0  0  0  0  0  0
   -5.9880   14.6780   -0.4220 C   0  0  0  0  0  0  0  0  0  0  0  0
   -3.7080   14.0600   -1.1800 C   0  0  1  0  0  0  0  0  0  0  0  0
   -4.2290   15.3560   -1.8350 C   0  0  0  0  0  0  0  0  0  0  0  0
   -2.4040   14.2090   -0.3950 C   0  0  0  0  0  0  0  0  0  0  0  0
   -3.7310   14.5700    1.6730 C   0  0  0  0  0  0  0  0  0  0  0  0
   -5.2450   15.9020   -0.8640 C   0  0  0  0  0  0  0  0  0  0  0  0
   -1.1300   14.1220   -0.9640 C   0  0  0  0  0  0  0  0  0  0  0  0
   -2.4410   14.4500    0.9780 C   0  0  0  0  0  0  0  0  0  0  0  0
   -1.3690   14.5890    1.7600 N   0  0  0  0  0  0  0  0  0  0  0  0
    0.0030   14.2730   -0.1630 C   0  0  0  0  0  0  0  0  0  0  0  0
   -0.1840   14.5030    1.1840 C   0  0  0  0  0  0  0  0  0  0  0  0
  1  2  1  0
  2  3  1  0
  2  4  2  0
  4  5  1  0
  3  6  2  0
  5  6  1  0
  6  7  1  0
  5  8  1  0
  8  9  1  0
  7 10  1  0
  9 11  1  0
 10 12  1  0
 11 13  2  0
 11 14  1  0
 12 15  1  0
 15 16  2  3
 16 17  1  0
 18 16  1  6
 18 19  1  0
 18 20  1  0
 18 21  1  0
 21 22  1  1
 21 23  1  0
 19 24  1  0
 20 25  1  0
 22 25  1  0
 23 26  1  0
 23 27  2  0
 24 27  1  0
 27 28  1  0
 26 29  2  0
 28 30  2  0
 29 30  1  0
M  END
