x0628_0_A-x0844_0_A
     RDKit          3D

 22 23  0  0  0  0  0  0  0  0999 V2000
   -0.8630    9.0660   -7.2610 C   0  0  0  0  0  0  0  0  0  0  0  0
   -0.8740   10.2730   -6.4130 C   0  0  0  0  0  0  0  0  0  0  0  0
   -1.8970   10.5690   -5.5470 N   0  0  0  0  0  0  0  0  0  0  0  0
    0.1200   11.1630   -6.4300 N   0  0  0  0  0  0  0  0  0  0  0  0
   -0.3010   12.0660   -5.5200 N   0  0  0  0  0  0  0  0  0  0  0  0
   -1.5200   11.7060   -4.9870 C   0  0  0  0  0  0  0  0  0  0  0  0
   -2.3010   12.4560   -3.9520 C   0  0  0  0  0  0  0  0  0  0  0  0
    0.5380   13.2180   -5.2480 C   0  0  0  0  0  0  0  0  0  0  0  0
    1.6430   12.9340   -4.2360 C   0  0  0  0  0  0  0  0  0  0  0  0
   -2.2230   13.9860   -4.0740 C   0  0  0  0  0  0  0  0  0  0  0  0
    1.0970   12.2460   -3.0180 C   0  0  0  0  0  0  0  0  0  0  0  0
   -3.4660   14.7130   -3.5450 C   0  0  0  0  0  0  0  0  0  0  0  0
    0.5710   11.1470   -2.9620 O   0  0  0  0  0  0  0  0  0  0  0  0
    1.2440   12.9810   -1.9010 O   0  0  0  0  0  0  0  0  0  0  0  0
   -3.2140   15.2210   -2.2250 O   0  0  0  0  0  0  0  0  0  0  0  0
   -4.0790   14.6970   -1.2030 C   0  0  1  0  0  0  0  0  0  0  0  0
   -3.5270   15.0800    0.1300 C   0  0  0  0  0  0  0  0  0  0  0  0
   -5.5230   15.1660   -1.3500 C   0  0  0  0  0  0  0  0  0  0  0  0
   -4.3240   15.1330    1.2010 C   0  0  0  0  0  0  0  0  0  0  0  0
   -6.3430   14.8990   -0.1060 C   0  0  0  0  0  0  0  0  0  0  0  0
   -7.5650   14.7540   -0.1300 O   0  0  0  0  0  0  0  0  0  0  0  0
   -5.6480   14.8320    1.0760 N   0  0  0  0  0  0  0  0  0  0  0  0
  1  2  1  0
  2  3  1  0
  2  4  2  0
  4  5  1  0
  3  6  2  0
  5  6  1  0
  6  7  1  0
  5  8  1  0
  8  9  1  0
  7 10  1  0
  9 11  1  0
 10 12  1  0
 11 13  2  0
 11 14  1  0
 12 15  1  0
 16 15  1  6
 16 17  1  0
 16 18  1  0
 17 19  2  0
 18 20  1  0
 20 21  2  0
 19 22  1  0
 20 22  1  0
M  END
