x0628_0_A_α-x0592_0_A_α
     RDKit          3D

 25 26  0  0  0  0  0  0  0  0999 V2000
   -1.0400    9.1120   -7.1700 C   0  0  0  0  0  0  0  0  0  0  0  0
   -0.9150   10.3080   -6.3140 C   0  0  0  0  0  0  0  0  0  0  0  0
   -1.8190   10.6270   -5.3310 N   0  0  0  0  0  0  0  0  0  0  0  0
    0.0960   11.1680   -6.4380 N   0  0  0  0  0  0  0  0  0  0  0  0
   -0.1830   12.0720   -5.4790 N   0  0  0  0  0  0  0  0  0  0  0  0
   -1.3450   11.7500   -4.8040 C   0  0  0  0  0  0  0  0  0  0  0  0
   -1.9730   12.5280   -3.6670 C   0  0  0  0  0  0  0  0  0  0  0  0
    0.7290   13.1870   -5.3130 C   0  0  0  0  0  0  0  0  0  0  0  0
    1.7560   12.9590   -4.2060 C   0  0  0  0  0  0  0  0  0  0  0  0
   -1.2120   13.8060   -3.2350 C   0  0  0  0  0  0  0  0  0  0  0  0
    1.1670   12.2390   -3.0230 C   0  0  0  0  0  0  0  0  0  0  0  0
   -1.3730   14.1520   -1.7340 C   0  0  0  0  0  0  0  0  0  0  0  0
    0.6390   11.1360   -2.9950 O   0  0  0  0  0  0  0  0  0  0  0  0
    1.2720   12.9660   -1.9000 O   0  0  0  0  0  0  0  0  0  0  0  0
   -2.7940   14.3470   -1.4920 N   0  0  0  0  0  0  0  0  0  0  0  0
   -3.3740   14.6620   -0.3840 C   0  0  0  0  0  0  0  0  0  0  0  0
   -2.7310   14.8890    0.8070 N   0  0  0  0  0  0  0  0  0  0  0  0
   -4.8040   14.7820   -0.3210 C   0  0  0  0  0  0  0  0  0  0  0  0
   -5.6670   15.2610   -1.3320 C   0  0  0  0  0  0  0  0  0  0  0  0
   -5.6530   14.4520    0.7120 C   0  0  0  0  0  0  0  0  0  0  0  0
   -6.9500   15.2320   -0.9720 N   0  0  0  0  0  0  0  0  0  0  0  0
   -6.9160   14.7340    0.2790 N   0  0  0  0  0  0  0  0  0  0  0  0
   -8.1490   14.5480    1.0190 C   0  0  0  0  0  0  0  0  0  0  0  0
   -7.8830   14.1050    2.4530 C   0  0  0  0  0  0  0  0  0  0  0  0
   -7.1530   15.0930    3.1770 O   0  0  0  0  0  0  0  0  0  0  0  0
  1  2  1  0
  2  3  1  0
  2  4  2  0
  4  5  1  0
  3  6  2  0
  5  6  1  0
  6  7  1  0
  5  8  1  0
  8  9  1  0
  7 10  1  0
  9 11  1  0
 10 12  1  0
 11 13  2  0
 11 14  1  0
 12 15  1  0
 15 16  2  3
 16 17  1  0
 16 18  1  0
 18 19  1  0
 18 20  2  0
 19 21  2  0
 20 22  1  0
 21 22  1  0
 22 23  1  0
 23 24  1  0
 24 25  1  0
M  END
