x0628_0_A-x0685_1_A
     RDKit          3D

 19 20  0  0  0  0  0  0  0  0999 V2000
    0.9180   10.1180   -8.2950 C   0  0  0  0  0  0  0  0  0  0  0  0
    0.4630   10.9070   -7.1380 C   0  0  0  0  0  0  0  0  0  0  0  0
   -0.6710   10.6200   -6.4560 N   0  0  0  0  0  0  0  0  0  0  0  0
    1.1280   11.9550   -6.6720 N   0  0  0  0  0  0  0  0  0  0  0  0
    0.3630   12.3420   -5.6430 N   0  0  0  0  0  0  0  0  0  0  0  0
   -0.7230   11.5290   -5.5180 C   0  0  0  0  0  0  0  0  0  0  0  0
   -1.8070   11.6070   -4.5120 C   0  0  0  0  0  0  0  0  0  0  0  0
    0.7720   13.4840   -4.8650 C   0  0  0  0  0  0  0  0  0  0  0  0
    1.7950   13.1160   -3.8050 C   0  0  0  0  0  0  0  0  0  0  0  0
   -2.6720   10.4470   -4.7160 N   0  0  0  0  0  0  0  0  0  0  0  0
    1.1190   12.3940   -2.6770 C   0  0  0  0  0  0  0  0  0  0  0  0
   -2.4980    9.6830   -5.9720 C   0  0  0  0  0  0  0  0  0  0  0  0
    0.7110   11.2450   -2.6940 O   0  0  0  0  0  0  0  0  0  0  0  0
    0.9810   13.1520   -1.5780 O   0  0  0  0  0  0  0  0  0  0  0  0
   -1.3010    8.6800   -5.9560 C   0  0  0  0  0  0  0  0  0  0  0  0
   -2.6620   10.5800   -7.2350 C   0  0  0  0  0  0  0  0  0  0  0  0
   -0.7380    8.2160   -7.3100 C   0  0  0  0  0  0  0  0  0  0  0  0
   -1.9480   10.0960   -8.5030 C   0  0  0  0  0  0  0  0  0  0  0  0
   -1.5900    8.6160   -8.5070 C   0  0  0  0  0  0  0  0  0  0  0  0
  1  2  1  0
  2  3  1  0
  2  4  2  0
  4  5  1  0
  3  6  2  0
  5  6  1  0
  6  7  1  0
  5  8  1  0
  8  9  1  0
  7 10  1  0
  9 11  1  0
 10 12  1  0
 11 13  2  0
 11 14  1  0
 12 15  1  0
 12 16  1  0
 15 17  1  0
 16 18  1  0
 17 19  1  0
 18 19  1  0
M  END
