x0626_0_A_α-x0910_1_A_α
     RDKit          3D

 16 17  0  0  0  0  0  0  0  0999 V2000
   -4.8550   14.3310    1.6070 N   0  0  0  0  0  0  0  0  0  0  0  0
   -5.8610   13.6300    1.0050 C   0  0  0  0  0  0  0  0  0  0  0  0
   -5.4830   12.6890    0.3240 O   0  0  0  0  0  0  0  0  0  0  0  0
   -3.5890   14.4500    1.0800 C   0  0  0  0  0  0  0  0  0  0  0  0
   -7.3210   14.0290    0.9790 C   0  0  1  0  0  0  0  0  0  0  0  0
   -2.4240   14.4920    1.6840 N   0  0  0  0  0  0  0  0  0  0  0  0
   -3.5440   14.5450   -0.6330 S   0  0  0  0  0  0  0  0  0  0  0  0
   -7.9020   14.6920    2.2160 C   0  0  0  0  0  0  0  0  0  0  0  0
   -1.8480   14.6370   -0.5780 C   0  0  0  0  0  0  0  0  0  0  0  0
   -1.4300   14.5930    0.7290 C   0  0  0  0  0  0  0  0  0  0  0  0
   -6.9810   14.8960   -0.1090 C   0  0  0  0  0  0  0  0  0  0  0  0
   -0.0400   14.6360    1.1630 C   0  0  0  0  0  0  0  0  0  0  0  0
   -7.6960   15.3190   -1.1330 N   0  0  0  0  0  0  0  0  0  0  0  0
   -5.6910   15.3140   -0.0510 N   0  0  0  0  0  0  0  0  0  0  0  0
   -6.7660   16.0490   -1.7700 N   0  0  0  0  0  0  0  0  0  0  0  0
   -5.5760   16.0290   -1.1050 C   0  0  0  0  0  0  0  0  0  0  0  0
  1  2  1  0
  2  3  2  0
  1  4  1  0
  2  5  1  0
  4  6  2  0
  4  7  1  0
  5  8  1  1
  7  9  1  0
  6 10  1  0
  9 10  2  0
  5 11  1  0
 10 12  1  0
 11 13  2  0
 11 14  1  0
 13 15  1  0
 14 16  2  0
 15 16  1  0
M  END
