x0628_0_A-x0685_0_A
     RDKit          3D

 24 25  0  0  0  0  0  0  0  0999 V2000
   -0.8140    9.0500   -7.3080 C   0  0  0  0  0  0  0  0  0  0  0  0
   -0.8200   10.2830   -6.4990 C   0  0  0  0  0  0  0  0  0  0  0  0
   -1.8720   10.6330   -5.7010 N   0  0  0  0  0  0  0  0  0  0  0  0
    0.2000   11.1430   -6.4860 N   0  0  0  0  0  0  0  0  0  0  0  0
   -0.2350   12.0830   -5.6240 N   0  0  0  0  0  0  0  0  0  0  0  0
   -1.4860   11.7720   -5.1550 C   0  0  0  0  0  0  0  0  0  0  0  0
   -2.3000   12.5630   -4.1870 C   0  0  0  0  0  0  0  0  0  0  0  0
    0.6270   13.2180   -5.3370 C   0  0  0  0  0  0  0  0  0  0  0  0
    1.6700   12.9420   -4.2620 C   0  0  0  0  0  0  0  0  0  0  0  0
   -2.3610   14.0810   -4.4450 C   0  0  0  0  0  0  0  0  0  0  0  0
    1.0730   12.2850   -3.0460 C   0  0  0  0  0  0  0  0  0  0  0  0
   -3.0120   14.6820   -3.2740 C   0  0  0  0  0  0  0  0  0  0  0  0
    0.5920   11.1650   -2.9760 O   0  0  0  0  0  0  0  0  0  0  0  0
    1.1140   13.0810   -1.9680 O   0  0  0  0  0  0  0  0  0  0  0  0
   -3.5510   14.9490   -2.2470 C   0  0  0  0  0  0  0  0  0  0  0  0
   -4.2010   14.9970   -0.9900 C   0  0  0  0  0  0  0  0  0  0  0  0
   -3.4900   15.1650    0.1880 C   0  0  0  0  0  0  0  0  0  0  0  0
   -5.5720   14.8590   -0.9130 C   0  0  0  0  0  0  0  0  0  0  0  0
   -4.1830   15.1840    1.3900 C   0  0  0  0  0  0  0  0  0  0  0  0
   -6.2670   14.8720    0.2410 N   0  0  0  0  0  0  0  0  0  0  0  0
   -5.5710   15.0320    1.3770 C   0  0  0  0  0  0  0  0  0  0  0  0
   -6.3340   15.0390    2.5360 N   0  0  0  0  0  0  0  0  0  0  0  0
   -7.7650   14.8060    2.5290 C   0  0  0  0  0  0  0  0  0  0  0  0
   -8.0800   13.4040    3.0270 C   0  0  0  0  0  0  0  0  0  0  0  0
  1  2  1  0
  2  3  1  0
  2  4  2  0
  4  5  1  0
  3  6  2  0
  5  6  1  0
  6  7  1  0
  5  8  1  0
  8  9  1  0
  7 10  1  0
  9 11  1  0
 10 12  1  0
 11 13  2  0
 11 14  1  0
 12 15  3  0
 15 16  1  0
 16 17  2  0
 16 18  1  0
 17 19  1  0
 18 20  2  0
 19 21  2  0
 20 21  1  0
 21 22  1  0
 22 23  1  0
 23 24  1  0
M  END
