x0626_0_A_α-x0766_0_A_α
     RDKit          3D

 18 19  0  0  0  0  0  0  0  0999 V2000
   -4.5870   14.5520    0.7800 N   0  0  0  0  0  0  0  0  0  0  0  0
   -5.9010   14.6210    0.4230 C   0  0  0  0  0  0  0  0  0  0  0  0
   -6.1640   14.9130   -0.7420 O   0  0  0  0  0  0  0  0  0  0  0  0
   -3.3780   14.2480    0.0350 C   0  0  2  0  0  0  0  0  0  0  0  0
   -6.9840   14.3410    1.4530 C   0  0  0  0  0  0  0  0  0  0  0  0
   -2.2240   14.6470    0.7740 N   0  0  0  0  0  0  0  0  0  0  0  0
   -3.0930   14.9110   -1.6110 S   0  0  0  0  0  0  0  0  0  0  0  0
   -8.3900   14.6160    0.9270 C   0  0  0  0  0  0  0  0  0  0  0  0
   -1.2450   14.5240   -1.6350 C   0  0  1  0  0  0  0  0  0  0  0  0
   -1.0220   14.3330   -0.0610 C   0  0  1  0  0  0  0  0  0  0  0  0
    0.1150   15.1070    0.5710 C   0  0  0  0  0  0  0  0  0  0  0  0
   -0.7720   13.4040   -2.6920 C   0  0  2  0  0  0  0  0  0  0  0  0
   -0.4430   15.7530   -2.2230 C   0  0  0  0  0  0  0  0  0  0  0  0
    0.2110   12.3460   -2.2710 C   0  0  0  0  0  0  0  0  0  0  0  0
   -0.0880   14.1050   -3.8890 C   0  0  0  0  0  0  0  0  0  0  0  0
    0.6190   15.2570   -3.2260 C   0  0  0  0  0  0  0  0  0  0  0  0
    1.3330   12.5330   -1.8570 O   0  0  0  0  0  0  0  0  0  0  0  0
   -0.2520   11.0900   -2.4180 O   0  0  0  0  0  0  0  0  0  0  0  0
  1  2  1  0
  2  3  2  0
  4  1  1  1
  2  5  1  0
  4  6  1  0
  4  7  1  0
  5  8  1  0
  9  7  1  0
  6 10  1  0
  9 10  1  0
 10 11  1  1
  9 12  1  0
  9 13  1  6
 12 14  1  1
 12 15  1  0
 13 16  1  0
 15 16  1  0
 14 17  2  0
 14 18  1  0
M  END
