x0628_0_A_α-x0128_0_A_α
     RDKit          3D

 31 33  0  0  0  0  0  0  0  0999 V2000
   -1.1120    9.0740   -7.1020 C   0  0  0  0  0  0  0  0  0  0  0  0
   -1.0260   10.3140   -6.3040 C   0  0  0  0  0  0  0  0  0  0  0  0
   -2.0110   10.7240   -5.4350 N   0  0  0  0  0  0  0  0  0  0  0  0
    0.0290   11.1260   -6.3750 N   0  0  0  0  0  0  0  0  0  0  0  0
   -0.3050   12.0930   -5.5030 N   0  0  0  0  0  0  0  0  0  0  0  0
   -1.5360   11.8580   -4.9330 C   0  0  0  0  0  0  0  0  0  0  0  0
   -2.1750   12.7680   -3.9170 C   0  0  0  0  0  0  0  0  0  0  0  0
    0.6140   13.1960   -5.2850 C   0  0  0  0  0  0  0  0  0  0  0  0
    1.6680   12.9180   -4.2220 C   0  0  0  0  0  0  0  0  0  0  0  0
   -3.7060   12.6640   -3.8070 C   0  0  0  0  0  0  0  0  0  0  0  0
    1.0810   12.2450   -3.0100 C   0  0  0  0  0  0  0  0  0  0  0  0
   -4.4070   14.0450   -3.7230 C   0  0  0  0  0  0  0  0  0  0  0  0
    0.5530   11.1480   -2.9710 O   0  0  0  0  0  0  0  0  0  0  0  0
    1.1950   12.9860   -1.8950 O   0  0  0  0  0  0  0  0  0  0  0  0
   -3.9150   14.9950   -2.6080 C   0  0  0  0  0  0  0  0  0  0  0  0
   -4.6910   14.9160   -1.3000 C   0  0  0  0  0  0  0  0  0  0  0  0
   -6.0840   14.7320   -1.2640 C   0  0  0  0  0  0  0  0  0  0  0  0
   -4.0070   15.0240   -0.0860 C   0  0  0  0  0  0  0  0  0  0  0  0
   -6.7680   14.6470   -0.0390 C   0  0  0  0  0  0  0  0  0  0  0  0
   -4.6890   14.9400    1.1340 C   0  0  0  0  0  0  0  0  0  0  0  0
   -6.0780   14.7450    1.1700 C   0  0  0  0  0  0  0  0  0  0  0  0
   -6.6800   14.6590    2.4520 N   0  0  0  0  0  0  0  0  0  0  0  0
   -7.8510   15.2140    2.9530 C   0  0  0  0  0  0  0  0  0  0  0  0
   -8.8270   15.5650    2.3020 O   0  0  0  0  0  0  0  0  0  0  0  0
   -7.7080   15.2990    4.3280 N   0  0  0  0  0  0  0  0  0  0  0  0
   -8.4730   16.0420    5.2670 C   0  0  0  0  0  0  0  0  0  0  0  0
   -9.1400   17.1990    4.8460 C   0  0  0  0  0  0  0  0  0  0  0  0
   -8.6210   15.7020    6.6090 C   0  0  0  0  0  0  0  0  0  0  0  0
   -9.9040   17.9900    5.6360 N   0  0  0  0  0  0  0  0  0  0  0  0
   -9.4010   16.4990    7.4530 C   0  0  0  0  0  0  0  0  0  0  0  0
  -10.0160   17.6230    6.9250 C   0  0  0  0  0  0  0  0  0  0  0  0
  1  2  1  0
  2  3  1  0
  2  4  2  0
  4  5  1  0
  3  6  2  0
  5  6  1  0
  6  7  1  0
  5  8  1  0
  8  9  1  0
  7 10  1  0
  9 11  1  0
 10 12  1  0
 11 13  2  0
 11 14  1  0
 12 15  1  0
 15 16  1  0
 16 17  2  0
 16 18  1  0
 17 19  1  0
 18 20  2  0
 19 21  2  0
 20 21  1  0
 21 22  1  0
 22 23  1  0
 23 24  2  0
 23 25  1  0
 25 26  1  0
 26 27  2  0
 26 28  1  0
 27 29  1  0
 28 30  2  0
 29 31  2  0
 30 31  1  0
M  END
