x0628_0_A-x0933_0_A
     RDKit          3D

 21 22  0  0  0  0  0  0  0  0999 V2000
   -1.1320    9.0220   -6.9310 C   0  0  0  0  0  0  0  0  0  0  0  0
   -1.0330   10.2960   -6.1930 C   0  0  0  0  0  0  0  0  0  0  0  0
   -2.0130   10.7640   -5.3460 N   0  0  0  0  0  0  0  0  0  0  0  0
    0.0310   11.0900   -6.2970 N   0  0  0  0  0  0  0  0  0  0  0  0
   -0.2920   12.1040   -5.4770 N   0  0  0  0  0  0  0  0  0  0  0  0
   -1.5280   11.9210   -4.8960 C   0  0  0  0  0  0  0  0  0  0  0  0
   -2.1340   12.9240   -3.9390 C   0  0  0  0  0  0  0  0  0  0  0  0
    0.6470   13.1970   -5.3190 C   0  0  0  0  0  0  0  0  0  0  0  0
    1.6980   12.9680   -4.2340 C   0  0  0  0  0  0  0  0  0  0  0  0
   -2.9790   12.4090   -2.7520 C   0  0  0  0  0  0  0  0  0  0  0  0
    1.1070   12.3120   -3.0150 C   0  0  0  0  0  0  0  0  0  0  0  0
   -2.6780   12.9750   -1.3300 C   0  0  0  0  0  0  0  0  0  0  0  0
    0.6180   11.1970   -2.9470 O   0  0  0  0  0  0  0  0  0  0  0  0
    1.1680   13.1010   -1.9330 O   0  0  0  0  0  0  0  0  0  0  0  0
   -2.8920   14.4830   -0.9810 C   0  0  1  0  0  0  0  0  0  0  0  0
   -4.2790   15.0030   -1.4370 C   0  0  0  0  0  0  0  0  0  0  0  0
   -2.7730   14.7430    0.5460 C   0  0  0  0  0  0  0  0  0  0  0  0
   -5.3890   14.7570   -0.4910 N   0  0  0  0  0  0  0  0  0  0  0  0
   -3.9740   14.2840    1.2230 N   0  0  0  0  0  0  0  0  0  0  0  0
   -5.0460   15.0950    0.8480 C   0  0  2  0  0  0  0  0  0  0  0  0
   -6.1250   14.6440    1.6550 N   0  0  0  0  0  0  0  0  0  0  0  0
  1  2  1  0
  2  3  1  0
  2  4  2  0
  4  5  1  0
  3  6  2  0
  5  6  1  0
  6  7  1  0
  5  8  1  0
  8  9  1  0
  7 10  1  0
  9 11  1  0
 10 12  1  0
 11 13  2  0
 11 14  1  0
 15 12  1  1
 15 16  1  0
 15 17  1  0
 16 18  1  0
 17 19  1  0
 18 20  1  0
 19 20  1  0
 20 21  1  1
M  END
