x0626_0_A_α-x0933_0_A_α
     RDKit          3D

 11 11  0  0  0  0  0  0  0  0999 V2000
   -4.8930   14.9260    1.4320 N   0  0  0  0  0  0  0  0  0  0  0  0
   -6.0180   14.7330    0.6580 C   0  0  0  0  0  0  0  0  0  0  0  0
   -6.1220   14.8450   -0.5580 O   0  0  0  0  0  0  0  0  0  0  0  0
   -3.6330   14.8240    0.9190 C   0  0  0  0  0  0  0  0  0  0  0  0
   -7.2000   14.3470    1.5330 C   0  0  0  0  0  0  0  0  0  0  0  0
   -2.4900   14.6830    1.5520 N   0  0  0  0  0  0  0  0  0  0  0  0
   -3.5580   14.8830   -0.7890 S   0  0  0  0  0  0  0  0  0  0  0  0
   -8.5350   14.6580    0.8760 C   0  0  0  0  0  0  0  0  0  0  0  0
   -1.8570   14.6940   -0.6870 C   0  0  0  0  0  0  0  0  0  0  0  0
   -1.4700   14.6070    0.6370 C   0  0  0  0  0  0  0  0  0  0  0  0
   -0.1040   14.4410    1.1500 C   0  0  0  0  0  0  0  0  0  0  0  0
  1  2  1  0
  2  3  2  0
  1  4  1  0
  2  5  1  0
  4  6  2  0
  4  7  1  0
  5  8  1  0
  7  9  1  0
  6 10  1  0
  9 10  2  0
 10 11  1  0
M  END
