x0626_0_A_α-x0837_0_A_α
     RDKit          3D

 18 19  0  0  0  0  0  0  0  0999 V2000
   -4.7510   13.8610    1.7140 N   0  0  0  0  0  0  0  0  0  0  0  0
   -5.9560   13.3370    1.3520 C   0  0  0  0  0  0  0  0  0  0  0  0
   -5.9020   12.2340    0.8090 O   0  0  0  0  0  0  0  0  0  0  0  0
   -3.5380   13.9140    1.0740 C   0  0  0  0  0  0  0  0  0  0  0  0
   -7.3100   14.0420    1.4430 C   0  0  0  0  0  0  0  0  0  0  0  0
   -2.4470   14.4660    1.6120 N   0  0  0  0  0  0  0  0  0  0  0  0
   -3.3370   13.2720   -0.4840 S   0  0  0  0  0  0  0  0  0  0  0  0
   -7.3890   14.3480    0.0050 C   0  0  0  0  0  0  0  0  0  0  0  0
   -1.7030   13.7510   -0.4880 C   0  0  0  0  0  0  0  0  0  0  0  0
   -1.3980   14.3690    0.7020 C   0  0  0  0  0  0  0  0  0  0  0  0
   -0.0800   14.9100    1.0410 C   0  0  0  0  0  0  0  0  0  0  0  0
   -6.3810   15.0320   -0.5150 C   0  0  0  0  0  0  0  0  0  0  0  0
   -5.4180   15.4700    0.3630 N   0  0  0  0  0  0  0  0  0  0  0  0
   -6.1290   15.3820   -1.9590 C   0  0  0  0  0  0  0  0  0  0  0  0
   -4.1140   15.6000    0.0810 C   0  0  0  0  0  0  0  0  0  0  0  0
   -4.6050   15.3180   -2.3090 C   0  0  2  0  0  0  0  0  0  0  0  0
   -4.0150   13.5050   -3.3390 I   0  0  0  0  0  0  0  0  0  0  0  0
   -3.6660   15.5200   -1.1590 C   0  0  0  0  0  0  0  0  0  0  0  0
  1  2  1  0
  2  3  2  0
  1  4  1  0
  2  5  1  0
  4  6  2  0
  4  7  1  0
  5  8  1  0
  7  9  1  0
  6 10  1  0
  9 10  2  0
 10 11  1  0
  8 12  2  3
 12 13  1  0
 12 14  1  0
 13 15  1  0
 14 16  1  0
 16 17  1  1
 15 18  2  0
 16 18  1  0
M  END
