x0626_0_A_α-x0905_0_A_α
     RDKit          3D

 11 11  0  0  0  0  0  0  0  0999 V2000
   -4.8830   14.8750    1.4030 N   0  0  0  0  0  0  0  0  0  0  0  0
   -6.0130   14.7130    0.6290 C   0  0  0  0  0  0  0  0  0  0  0  0
   -6.1170   14.8320   -0.5880 O   0  0  0  0  0  0  0  0  0  0  0  0
   -3.6200   14.7970    0.8910 C   0  0  0  0  0  0  0  0  0  0  0  0
   -7.1990   14.3480    1.5060 C   0  0  0  0  0  0  0  0  0  0  0  0
   -2.4750   14.6690    1.5260 N   0  0  0  0  0  0  0  0  0  0  0  0
   -3.5460   14.8730   -0.8170 S   0  0  0  0  0  0  0  0  0  0  0  0
   -8.5340   14.6600    0.8470 C   0  0  0  0  0  0  0  0  0  0  0  0
   -1.8450   14.7120   -0.7120 C   0  0  0  0  0  0  0  0  0  0  0  0
   -1.4550   14.6180    0.6080 C   0  0  0  0  0  0  0  0  0  0  0  0
   -0.0860   14.4680    1.1160 C   0  0  0  0  0  0  0  0  0  0  0  0
  1  2  1  0
  2  3  2  0
  1  4  1  0
  2  5  1  0
  4  6  2  0
  4  7  1  0
  5  8  1  0
  7  9  1  0
  6 10  1  0
  9 10  2  0
 10 11  1  0
M  END
