x0628_0_A-x0128_0_A
     RDKit          3D

 31 33  0  0  0  0  0  0  0  0999 V2000
   -1.1160    9.0800   -7.1010 C   0  0  0  0  0  0  0  0  0  0  0  0
   -1.0280   10.3200   -6.3050 C   0  0  0  0  0  0  0  0  0  0  0  0
   -2.0120   10.7300   -5.4320 N   0  0  0  0  0  0  0  0  0  0  0  0
    0.0240   11.1340   -6.3800 N   0  0  0  0  0  0  0  0  0  0  0  0
   -0.3090   12.1020   -5.5080 N   0  0  0  0  0  0  0  0  0  0  0  0
   -1.5380   11.8640   -4.9320 C   0  0  0  0  0  0  0  0  0  0  0  0
   -2.1760   12.7770   -3.9170 C   0  0  0  0  0  0  0  0  0  0  0  0
    0.6060   13.2090   -5.2950 C   0  0  0  0  0  0  0  0  0  0  0  0
    1.6570   12.9460   -4.2250 C   0  0  0  0  0  0  0  0  0  0  0  0
   -3.7070   12.6650   -3.8000 C   0  0  0  0  0  0  0  0  0  0  0  0
    1.0740   12.2550   -3.0180 C   0  0  0  0  0  0  0  0  0  0  0  0
   -4.4110   14.0440   -3.7160 C   0  0  0  0  0  0  0  0  0  0  0  0
    0.5490   11.1540   -2.9880 O   0  0  0  0  0  0  0  0  0  0  0  0
    1.1860   12.9850   -1.8970 O   0  0  0  0  0  0  0  0  0  0  0  0
   -3.9220   14.9890   -2.5930 C   0  0  0  0  0  0  0  0  0  0  0  0
   -4.7060   14.9080   -1.2950 C   0  0  0  0  0  0  0  0  0  0  0  0
   -6.1000   14.7200   -1.2610 C   0  0  0  0  0  0  0  0  0  0  0  0
   -4.0250   15.0140   -0.0770 C   0  0  0  0  0  0  0  0  0  0  0  0
   -6.7860   14.6310   -0.0370 C   0  0  0  0  0  0  0  0  0  0  0  0
   -4.7070   14.9250    1.1400 C   0  0  0  0  0  0  0  0  0  0  0  0
   -6.0950   14.7280    1.1710 C   0  0  0  0  0  0  0  0  0  0  0  0
   -6.7000   14.6390    2.4480 N   0  0  0  0  0  0  0  0  0  0  0  0
   -7.8490   15.2220    2.9460 C   0  0  0  0  0  0  0  0  0  0  0  0
   -8.8080   15.6200    2.2920 O   0  0  0  0  0  0  0  0  0  0  0  0
   -7.7150   15.2800    4.3190 N   0  0  0  0  0  0  0  0  0  0  0  0
   -8.4770   16.0240    5.2530 C   0  0  0  0  0  0  0  0  0  0  0  0
   -9.1380   17.1790    4.8290 C   0  0  0  0  0  0  0  0  0  0  0  0
   -8.6210   15.6830    6.5940 C   0  0  0  0  0  0  0  0  0  0  0  0
   -9.9000   17.9770    5.6160 N   0  0  0  0  0  0  0  0  0  0  0  0
   -9.3990   16.4860    7.4350 C   0  0  0  0  0  0  0  0  0  0  0  0
  -10.0100   17.6080    6.9060 C   0  0  0  0  0  0  0  0  0  0  0  0
  1  2  1  0
  2  3  1  0
  2  4  2  0
  4  5  1  0
  3  6  2  0
  5  6  1  0
  6  7  1  0
  5  8  1  0
  8  9  1  0
  7 10  1  0
  9 11  1  0
 10 12  1  0
 11 13  2  0
 11 14  1  0
 12 15  1  0
 15 16  1  0
 16 17  2  0
 16 18  1  0
 17 19  1  0
 18 20  2  0
 19 21  2  0
 20 21  1  0
 21 22  1  0
 22 23  1  0
 23 24  2  0
 23 25  1  0
 25 26  1  0
 26 27  2  0
 26 28  1  0
 27 29  1  0
 28 30  2  0
 29 31  2  0
 30 31  1  0
M  END
