x0626_0_A-x1012_0_A
     RDKit          3D

 25 26  0  0  0  0  0  0  0  0999 V2000
   -5.1440   14.8730    1.4640 N   0  0  0  0  0  0  0  0  0  0  0  0
   -6.2980   14.6590    0.7890 C   0  0  0  0  0  0  0  0  0  0  0  0
   -6.2970   14.7730   -0.4440 O   0  0  0  0  0  0  0  0  0  0  0  0
   -3.9150   14.8910    0.9260 C   0  0  0  0  0  0  0  0  0  0  0  0
   -7.5420   14.3020    1.5650 C   0  0  0  0  0  0  0  0  0  0  0  0
   -2.7690   14.8480    1.5460 N   0  0  0  0  0  0  0  0  0  0  0  0
   -3.8960   14.9740   -0.7790 S   0  0  0  0  0  0  0  0  0  0  0  0
   -8.8030   14.7090    0.8270 C   0  0  0  0  0  0  0  0  0  0  0  0
   -2.2000   14.9440   -0.7040 C   0  0  0  0  0  0  0  0  0  0  0  0
   -1.7900   14.8850    0.6100 C   0  0  0  0  0  0  0  0  0  0  0  0
   -0.4090   14.8420    1.0320 C   0  0  0  0  0  0  0  0  0  0  0  0
    0.0890   13.6190    0.4000 C   0  0  0  0  0  0  0  0  0  0  0  0
    0.7710   13.8130   -0.9340 C   0  0  0  0  0  0  0  0  0  0  0  0
    0.6830   12.4880   -1.4960 N   0  0  0  0  0  0  0  0  0  0  0  0
    0.4150   12.3250   -2.7190 C   0  0  0  0  0  0  0  0  0  0  0  0
    0.3590   11.0410   -3.0860 O   0  0  0  0  0  0  0  0  0  0  0  0
    0.1370   13.3390   -3.8050 C   0  0  0  0  0  0  0  0  0  0  0  0
   -1.3470   13.7130   -3.7310 C   0  0  0  0  0  0  0  0  0  0  0  0
    1.0500   14.5820   -3.7450 C   0  0  0  0  0  0  0  0  0  0  0  0
   -1.7130   14.7600   -4.7680 C   0  0  0  0  0  0  0  0  0  0  0  0
    0.6530   15.6280   -4.7840 C   0  0  0  0  0  0  0  0  0  0  0  0
   -0.7930   15.9010   -4.7860 N   0  0  0  0  0  0  0  0  0  0  0  0
   -1.2200   17.2040   -4.7140 C   0  0  0  0  0  0  0  0  0  0  0  0
   -0.2730   18.1670   -4.6860 N   0  0  0  0  0  0  0  0  0  0  0  0
   -2.3920   17.5410   -4.6770 O   0  0  0  0  0  0  0  0  0  0  0  0
  1  2  1  0
  2  3  2  0
  1  4  1  0
  2  5  1  0
  4  6  2  0
  4  7  1  0
  5  8  1  0
  7  9  1  0
  6 10  1  0
  9 10  2  0
 10 11  1  0
 11 12  1  0
 12 13  1  0
 13 14  1  0
 14 15  2  3
 15 16  1  0
 15 17  1  0
 17 18  1  0
 17 19  1  0
 18 20  1  0
 19 21  1  0
 20 22  1  0
 21 22  1  0
 22 23  1  0
 23 24  1  0
 23 25  2  0
M  END
