x0628_0_A-x0711_0_A
     RDKit          3D

 24 26  0  0  0  0  0  0  0  0999 V2000
   -1.2160    9.0480   -7.2120 C   0  0  0  0  0  0  0  0  0  0  0  0
   -0.9740   10.2570   -6.4080 C   0  0  0  0  0  0  0  0  0  0  0  0
   -1.8810   10.7690   -5.5200 N   0  0  0  0  0  0  0  0  0  0  0  0
    0.1570   10.9450   -6.4860 N   0  0  0  0  0  0  0  0  0  0  0  0
   -0.0280   11.9380   -5.6030 N   0  0  0  0  0  0  0  0  0  0  0  0
   -1.2780   11.8410   -5.0100 C   0  0  0  0  0  0  0  0  0  0  0  0
   -1.9240   12.7180   -3.9760 C   0  0  0  0  0  0  0  0  0  0  0  0
    1.0810   12.8690   -5.4630 C   0  0  0  0  0  0  0  0  0  0  0  0
    1.8250   12.7950   -4.1320 C   0  0  0  0  0  0  0  0  0  0  0  0
   -0.7800   13.8630   -3.2320 S   0  0  2  0  0  0  0  0  0  0  0  0
    0.2120   13.1240   -2.3490 N   0  0  0  0  0  0  0  0  0  0  0  0
    0.9560   12.2150   -3.0380 C   0  0  0  0  0  0  0  0  0  0  0  0
   -1.4990   14.9380   -2.1720 N   0  0  0  0  0  0  0  0  0  0  0  0
   -0.3490   14.7920   -4.2550 O   0  0  0  0  0  0  0  0  0  0  0  0
    0.8710   11.0250   -2.7820 O   0  0  0  0  0  0  0  0  0  0  0  0
   -2.7750   14.8710   -1.6020 C   0  0  0  0  0  0  0  0  0  0  0  0
   -3.9490   15.1360   -2.3140 C   0  0  0  0  0  0  0  0  0  0  0  0
   -2.8660   14.5300   -0.2500 C   0  0  0  0  0  0  0  0  0  0  0  0
   -5.1970   15.0630   -1.6830 C   0  0  0  0  0  0  0  0  0  0  0  0
   -4.1030   14.4550    0.3830 C   0  0  0  0  0  0  0  0  0  0  0  0
   -5.2730   14.7200   -0.3260 C   0  0  0  0  0  0  0  0  0  0  0  0
   -6.5680   14.6240    0.3990 C   0  0  0  0  0  0  0  0  0  0  0  0
   -6.5570   14.6560    1.7710 N   0  0  0  0  0  0  0  0  0  0  0  0
   -7.6270   14.5250   -0.2080 O   0  0  0  0  0  0  0  0  0  0  0  0
  1  2  1  0
  2  3  1  0
  2  4  2  0
  4  5  1  0
  3  6  2  0
  5  6  1  0
  6  7  1  0
  5  8  1  0
  8  9  1  0
  7 10  1  0
 10 11  2  0
  9 12  1  0
 11 12  1  0
 10 13  1  1
 10 14  2  0
 12 15  2  0
 13 16  1  0
 16 17  2  0
 16 18  1  0
 17 19  1  0
 18 20  2  0
 19 21  2  0
 20 21  1  0
 21 22  1  0
 22 23  1  0
 22 24  2  0
M  END
