x0626_0_A_α-x0628_0_A_α
     RDKit          3D

 25 26  0  0  0  0  0  0  0  0999 V2000
   -5.0280   14.7570    1.4020 N   0  0  0  0  0  0  0  0  0  0  0  0
   -6.2200   14.6450    0.7640 C   0  0  0  0  0  0  0  0  0  0  0  0
   -6.2620   14.8060   -0.4580 O   0  0  0  0  0  0  0  0  0  0  0  0
   -3.8080   14.7790    0.8200 C   0  0  0  0  0  0  0  0  0  0  0  0
   -7.4600   14.3330    1.5780 C   0  0  0  0  0  0  0  0  0  0  0  0
   -2.6290   14.7690    1.3910 N   0  0  0  0  0  0  0  0  0  0  0  0
   -3.8640   14.8220   -0.8820 S   0  0  0  0  0  0  0  0  0  0  0  0
   -8.7370   14.6940    0.8400 C   0  0  0  0  0  0  0  0  0  0  0  0
   -2.1660   14.8350   -0.8970 C   0  0  0  0  0  0  0  0  0  0  0  0
   -1.6870   14.8140    0.3950 C   0  0  0  0  0  0  0  0  0  0  0  0
   -0.2840   14.8400    0.7850 C   0  0  0  0  0  0  0  0  0  0  0  0
    0.6200   14.2060   -0.2480 C   0  0  0  0  0  0  0  0  0  0  0  0
    0.1350   13.7640   -1.6040 C   0  0  0  0  0  0  0  0  0  0  0  0
    1.2110   12.9220   -2.0500 O   0  0  0  0  0  0  0  0  0  0  0  0
    0.9940   12.1820   -3.1530 C   0  0  0  0  0  0  0  0  0  0  0  0
    0.4400   11.0920   -3.1610 O   0  0  0  0  0  0  0  0  0  0  0  0
    1.5520   12.9060   -4.3450 C   0  0  0  0  0  0  0  0  0  0  0  0
    0.4600   13.1640   -5.3590 C   0  0  0  0  0  0  0  0  0  0  0  0
   -0.3280   11.9770   -5.6120 N   0  0  0  0  0  0  0  0  0  0  0  0
    0.0900   11.0900   -6.5280 N   0  0  0  0  0  0  0  0  0  0  0  0
   -1.5070   11.5810   -5.0360 C   0  0  0  0  0  0  0  0  0  0  0  0
   -2.2310   12.3390   -3.9910 C   0  0  0  0  0  0  0  0  0  0  0  0
   -1.8700   10.4310   -5.5700 N   0  0  0  0  0  0  0  0  0  0  0  0
   -0.8730   10.1650   -6.4690 C   0  0  0  0  0  0  0  0  0  0  0  0
   -0.8600    8.9520   -7.3080 C   0  0  0  0  0  0  0  0  0  0  0  0
  1  2  1  0
  2  3  2  0
  1  4  1  0
  2  5  1  0
  4  6  2  0
  4  7  1  0
  5  8  1  0
  7  9  1  0
  6 10  1  0
  9 10  2  0
 10 11  1  0
 11 12  1  0
 12 13  1  0
 13 14  1  0
 14 15  1  0
 15 16  2  0
 15 17  1  0
 17 18  1  0
 18 19  1  0
 19 20  1  0
 19 21  1  0
 21 22  1  0
 21 23  2  0
 20 24  2  0
 23 24  1  0
 24 25  1  0
M  END
