x0626_0_A_α-x0805_0_A_β
     RDKit          3D

 22 23  0  0  0  0  0  0  0  0999 V2000
   -5.0450   14.6010    1.3790 N   0  0  0  0  0  0  0  0  0  0  0  0
   -6.1910   14.6060    0.6250 C   0  0  0  0  0  0  0  0  0  0  0  0
   -6.2940   14.7840   -0.5820 O   0  0  0  0  0  0  0  0  0  0  0  0
   -3.8090   14.7230    0.8450 C   0  0  0  0  0  0  0  0  0  0  0  0
   -7.3920   14.3500    1.5170 C   0  0  0  0  0  0  0  0  0  0  0  0
   -2.6770   14.9880    1.4440 N   0  0  0  0  0  0  0  0  0  0  0  0
   -3.7670   14.4970   -0.8470 S   0  0  0  0  0  0  0  0  0  0  0  0
   -8.7080   14.7120    0.8490 C   0  0  0  0  0  0  0  0  0  0  0  0
   -2.0870   14.7810   -0.7970 C   0  0  0  0  0  0  0  0  0  0  0  0
   -1.6920   15.0330    0.5010 C   0  0  0  0  0  0  0  0  0  0  0  0
   -0.3240   15.3570    0.9300 C   0  0  0  0  0  0  0  0  0  0  0  0
    0.5590   15.0340   -0.2080 C   0  0  0  0  0  0  0  0  0  0  0  0
    0.2930   13.6020   -0.3840 C   0  0  0  0  0  0  0  0  0  0  0  0
    0.4790   13.4010   -1.7790 N   0  0  0  0  0  0  0  0  0  0  0  0
    0.5200   12.4240   -2.5720 C   0  0  0  0  0  0  0  0  0  0  0  0
    0.4050   11.0890   -2.3850 O   0  0  0  0  0  0  0  0  0  0  0  0
    0.7290   13.0080   -3.9020 C   0  0  2  0  0  0  0  0  0  0  0  0
   -0.4260   13.6440   -4.5880 C   0  0  0  0  0  0  0  0  0  0  0  0
    1.9620   12.8680   -4.7040 C   0  0  0  0  0  0  0  0  0  0  0  0
    2.4760   14.1940   -4.7070 O   0  0  0  0  0  0  0  0  0  0  0  0
    0.0500   15.0850   -4.6910 C   0  0  0  0  0  0  0  0  0  0  0  0
    1.5450   15.2680   -4.3480 C   0  0  0  0  0  0  0  0  0  0  0  0
  1  2  1  0
  2  3  2  0
  1  4  1  0
  2  5  1  0
  4  6  2  0
  4  7  1  0
  5  8  1  0
  7  9  1  0
  6 10  1  0
  9 10  2  0
 10 11  1  0
 11 12  1  0
 12 13  1  0
 13 14  1  0
 14 15  2  3
 15 16  1  0
 17 15  1  6
 17 18  1  0
 17 19  1  0
 19 20  1  0
 18 21  1  0
 20 22  1  0
 21 22  1  0
M  END
