x0626_0_A-x0253_0_A
     RDKit          3D

 27 28  0  0  0  0  0  0  0  0999 V2000
   -4.8580   14.8770    1.4650 N   0  0  0  0  0  0  0  0  0  0  0  0
   -6.0510   14.7020    0.8220 C   0  0  0  0  0  0  0  0  0  0  0  0
   -6.1010   14.8420   -0.4080 O   0  0  0  0  0  0  0  0  0  0  0  0
   -3.6380   14.8360    0.8730 C   0  0  0  0  0  0  0  0  0  0  0  0
   -7.2840   14.3500    1.6280 C   0  0  0  0  0  0  0  0  0  0  0  0
   -2.4250   14.7000    1.4070 N   0  0  0  0  0  0  0  0  0  0  0  0
   -3.7490   14.9790   -0.8230 S   0  0  0  0  0  0  0  0  0  0  0  0
   -8.5680   14.6590    0.8740 C   0  0  0  0  0  0  0  0  0  0  0  0
   -2.0520   14.8460   -0.8970 C   0  0  0  0  0  0  0  0  0  0  0  0
   -1.5050   14.7070    0.3650 C   0  0  0  0  0  0  0  0  0  0  0  0
   -0.0400   14.5640    0.5820 C   0  0  0  0  0  0  0  0  0  0  0  0
    0.4940   13.7960   -0.6490 C   0  0  0  0  0  0  0  0  0  0  0  0
    1.7720   14.1860   -1.3580 C   0  0  0  0  0  0  0  0  0  0  0  0
    1.4430   14.0740   -2.7730 N   0  0  0  0  0  0  0  0  0  0  0  0
    0.9350   12.9970   -3.3040 C   0  0  0  0  0  0  0  0  0  0  0  0
    0.6380   11.8130   -2.6910 O   0  0  0  0  0  0  0  0  0  0  0  0
    0.6150   13.0900   -4.7840 C   0  0  0  0  0  0  0  0  0  0  0  0
    0.3940   11.8110   -5.3960 N   0  0  0  0  0  0  0  0  0  0  0  0
    1.1110   11.5890   -6.5470 C   0  0  0  0  0  0  0  0  0  0  0  0
    2.2110   12.0890   -6.6660 O   0  0  0  0  0  0  0  0  0  0  0  0
    0.4790   10.7000   -7.5700 C   0  0  0  0  0  0  0  0  0  0  0  0
   -0.5030    9.7860   -7.1750 C   0  0  0  0  0  0  0  0  0  0  0  0
    0.8490   10.7620   -8.9200 C   0  0  0  0  0  0  0  0  0  0  0  0
   -1.1110    8.9450   -8.1100 C   0  0  0  0  0  0  0  0  0  0  0  0
    0.2470    9.9220   -9.8560 C   0  0  0  0  0  0  0  0  0  0  0  0
   -2.1660    7.9730   -7.6590 C   0  0  0  0  0  0  0  0  0  0  0  0
   -0.7310    9.0160   -9.4560 C   0  0  0  0  0  0  0  0  0  0  0  0
  1  2  1  0
  2  3  2  0
  1  4  1  0
  2  5  1  0
  4  6  2  0
  4  7  1  0
  5  8  1  0
  7  9  1  0
  6 10  1  0
  9 10  2  0
 10 11  1  0
 11 12  1  0
 12 13  1  0
 13 14  1  0
 14 15  2  3
 15 16  1  0
 15 17  1  0
 17 18  1  0
 18 19  1  0
 19 20  2  0
 19 21  1  0
 21 22  2  0
 21 23  1  0
 22 24  1  0
 23 25  2  0
 24 26  1  0
 24 27  2  0
 25 27  1  0
M  END
