x0628_0_A_α-x0864_0_A_α
     RDKit          3D

 13 13  0  0  0  0  0  0  0  0999 V2000
   -0.7680    8.9970   -7.3390 C   0  0  0  0  0  0  0  0  0  0  0  0
   -0.8140   10.1890   -6.4880 C   0  0  0  0  0  0  0  0  0  0  0  0
   -1.8720   10.5130   -5.6190 N   0  0  0  0  0  0  0  0  0  0  0  0
    0.1810   11.0900   -6.4720 N   0  0  0  0  0  0  0  0  0  0  0  0
    1.2820   11.2190   -7.0540 O   0  0  0  0  0  0  0  0  0  0  0  0
   -0.2810   12.0700   -5.5070 N   0  0  0  0  0  0  0  0  0  0  0  0
   -1.5220   11.6670   -5.0280 C   0  0  0  0  0  0  0  0  0  0  0  0
   -2.3190   12.4090   -4.0230 C   0  0  0  0  0  0  0  0  0  0  0  0
    0.5000   13.2410   -5.1710 C   0  0  0  0  0  0  0  0  0  0  0  0
    1.6160   12.9370   -4.1740 C   0  0  0  0  0  0  0  0  0  0  0  0
    1.0710   12.2630   -2.9360 C   0  0  0  0  0  0  0  0  0  0  0  0
    0.5770   11.1460   -2.8930 O   0  0  0  0  0  0  0  0  0  0  0  0
    1.1800   13.0280   -1.8310 O   0  0  0  0  0  0  0  0  0  0  0  0
  1  2  1  0
  2  3  1  0
  2  4  2  0
  4  5  1  0
  4  6  1  0
  3  7  2  0
  6  7  1  0
  7  8  1  0
  6  9  1  0
  9 10  1  0
 10 11  1  0
 11 12  2  0
 11 13  1  0
M  CHG  2   4   1   5  -1
M  END
