x0626_0_A_α-5cb5_C_0_C_β
     RDKit          3D

 25 25  0  0  0  0  0  0  0  0999 V2000
   -4.9160   14.5030    1.1700 N   0  0  0  0  0  0  0  0  0  0  0  0
   -6.1750   14.3870    0.6320 C   0  0  0  0  0  0  0  0  0  0  0  0
   -6.2430   14.1310   -0.6550 N   0  0  0  0  0  0  0  0  0  0  0  0
   -3.6790   14.7800    0.7380 C   0  0  0  0  0  0  0  0  0  0  0  0
   -7.4080   14.5240    1.5090 C   0  0  0  0  0  0  0  0  0  0  0  0
   -2.6220   14.3510    1.3860 N   0  0  0  0  0  0  0  0  0  0  0  0
   -3.2920   15.6830   -0.6500 S   0  0  0  0  0  0  0  0  0  0  0  0
   -8.6440   14.8720    0.6910 C   0  0  0  0  0  0  0  0  0  0  0  0
   -5.1180   13.9160   -1.5810 C   0  0  0  0  0  0  0  0  0  0  0  0
   -1.6320   15.4820   -0.3820 C   0  0  0  0  0  0  0  0  0  0  0  0
   -1.4520   14.7420    0.7570 C   0  0  0  0  0  0  0  0  0  0  0  0
   -0.1600   14.3450    1.3310 C   0  0  0  0  0  0  0  0  0  0  0  0
   -4.8920   15.1020   -2.5320 C   0  0  0  0  0  0  0  0  0  0  0  0
   -3.3930   15.4220   -2.7720 C   0  0  0  0  0  0  0  0  0  0  0  0
   -2.8660   15.7880   -4.1600 C   0  0  0  0  0  0  0  0  0  0  0  0
   -1.6510   16.7250   -4.0990 C   0  0  0  0  0  0  0  0  0  0  0  0
   -1.9820   18.0390   -4.5850 O   0  0  0  0  0  0  0  0  0  0  0  0
   -1.6280   18.2190   -6.1300 P   0  0  1  0  0  0  0  0  0  0  0  0
   -0.9690   19.6250   -6.4190 O   0  0  0  0  0  0  0  0  0  0  0  0
   -0.3770   17.2490   -6.2190 O   0  0  0  0  0  0  0  0  0  0  0  0
   -2.7310   17.8640   -7.0390 O   0  0  0  0  0  0  0  0  0  0  0  0
   -0.2930   19.9670   -7.8120 P   0  0  0  0  0  0  0  0  0  0  0  0
   -1.4670   20.6170   -8.6670 O   0  0  0  0  0  0  0  0  0  0  0  0
    0.9140   20.8310   -7.7270 O   0  0  0  0  0  0  0  0  0  0  0  0
   -0.0730   18.5990   -8.6270 O   0  0  0  0  0  0  0  0  0  0  0  0
  1  2  1  0
  2  3  2  3
  1  4  1  0
  2  5  1  0
  4  6  2  0
  4  7  1  0
  5  8  1  0
  3  9  1  0
  7 10  1  0
  6 11  1  0
 10 11  2  0
 11 12  1  0
  9 13  1  0
 13 14  1  0
 14 15  1  0
 15 16  1  0
 16 17  1  0
 17 18  1  0
 18 19  1  0
 18 20  1  6
 18 21  2  0
 19 22  1  0
 22 23  1  0
 22 24  2  0
 22 25  1  0
M  END
