x0626_0_A-x0805_0_A
     RDKit          3D

 27 29  0  0  0  0  0  0  0  0999 V2000
   -4.6500   15.3660    0.4980 N   0  0  0  0  0  0  0  0  0  0  0  0
   -5.8870   14.7190    0.4570 C   0  0  0  0  0  0  0  0  0  0  0  0
   -6.3980   14.3920   -0.6180 O   0  0  0  0  0  0  0  0  0  0  0  0
   -4.4620   16.0420   -0.7560 O   0  0  0  0  0  0  0  0  0  0  0  0
   -3.4300   14.7840    0.5820 C   0  0  0  0  0  0  0  0  0  0  0  0
   -6.7170   14.4080    1.6890 C   0  0  0  0  0  0  0  0  0  0  0  0
   -2.4180   14.9410    1.4220 N   0  0  0  0  0  0  0  0  0  0  0  0
   -3.1820   13.6900   -0.7030 S   0  0  0  0  0  0  0  0  0  0  0  0
   -3.7530   15.2170   -1.6590 C   0  0  0  0  0  0  0  0  0  0  0  0
   -8.2020   14.5620    1.3770 C   0  0  0  0  0  0  0  0  0  0  0  0
   -1.6180   13.4430   -0.1710 C   0  0  0  0  0  0  0  0  0  0  0  0
   -1.3770   14.1660    0.9560 C   0  0  0  0  0  0  0  0  0  0  0  0
   -4.4990   14.2270   -2.3170 C   0  0  0  0  0  0  0  0  0  0  0  0
   -2.3650   15.3200   -1.9340 C   0  0  0  0  0  0  0  0  0  0  0  0
   -0.0940   14.1270    1.6270 C   0  0  0  0  0  0  0  0  0  0  0  0
   -3.8790   13.3570   -3.2210 C   0  0  0  0  0  0  0  0  0  0  0  0
   -1.7280   14.4410   -2.8500 C   0  0  0  0  0  0  0  0  0  0  0  0
   -2.5110   13.4580   -3.4870 C   0  0  0  0  0  0  0  0  0  0  0  0
   -0.2220   14.5670   -3.1270 C   0  0  1  0  0  0  0  0  0  0  0  0
    0.7130   13.3340   -3.2600 C   0  0  1  0  0  0  0  0  0  0  0  0
    0.0690   15.5260   -4.2810 C   0  0  0  0  0  0  0  0  0  0  0  0
    0.3930   12.0940   -2.5160 C   0  0  0  0  0  0  0  0  0  0  0  0
    1.1840   13.1310   -4.6720 C   0  0  0  0  0  0  0  0  0  0  0  0
    1.5540   15.5080   -4.6010 C   0  0  0  0  0  0  0  0  0  0  0  0
    0.0990   11.0300   -3.2910 O   0  0  0  0  0  0  0  0  0  0  0  0
    0.4120   12.0310   -1.3120 O   0  0  0  0  0  0  0  0  0  0  0  0
    2.0460   14.2080   -4.9620 O   0  0  0  0  0  0  0  0  0  0  0  0
  1  2  1  0
  2  3  2  0
  1  4  1  0
  1  5  1  0
  2  6  1  0
  5  7  2  0
  5  8  1  0
  4  9  1  0
  6 10  1  0
  8 11  1  0
  7 12  1  0
 11 12  2  0
  9 13  2  0
  9 14  1  0
 12 15  1  0
 13 16  1  0
 14 17  2  0
 16 18  2  0
 17 18  1  0
 19 17  1  6
 19 20  1  0
 19 21  1  0
 20 22  1  6
 20 23  1  0
 21 24  1  0
 22 25  1  0
 22 26  2  0
 23 27  1  0
 24 27  1  0
M  END
