x0628_0_A-x0685_1_A
     RDKit          3D

 19 20  0  0  0  0  0  0  0  0999 V2000
    0.9250   10.1350   -8.2980 C   0  0  0  0  0  0  0  0  0  0  0  0
    0.4680   10.9200   -7.1430 C   0  0  0  0  0  0  0  0  0  0  0  0
   -0.6640   10.6400   -6.4650 N   0  0  0  0  0  0  0  0  0  0  0  0
    1.1380   11.9670   -6.6710 N   0  0  0  0  0  0  0  0  0  0  0  0
    0.3710   12.3540   -5.6410 N   0  0  0  0  0  0  0  0  0  0  0  0
   -0.7200   11.5450   -5.5200 C   0  0  0  0  0  0  0  0  0  0  0  0
   -1.8120   11.6200   -4.5210 C   0  0  0  0  0  0  0  0  0  0  0  0
    0.7920   13.4940   -4.8660 C   0  0  0  0  0  0  0  0  0  0  0  0
    1.8070   13.1130   -3.8050 C   0  0  0  0  0  0  0  0  0  0  0  0
   -2.6590   10.4390   -4.6930 N   0  0  0  0  0  0  0  0  0  0  0  0
    1.1150   12.4000   -2.6780 C   0  0  0  0  0  0  0  0  0  0  0  0
   -2.4930    9.6690   -5.9500 C   0  0  0  0  0  0  0  0  0  0  0  0
    0.6870   11.2590   -2.6990 O   0  0  0  0  0  0  0  0  0  0  0  0
    0.9890   13.1570   -1.5810 O   0  0  0  0  0  0  0  0  0  0  0  0
   -1.2970    8.6670   -5.9350 C   0  0  0  0  0  0  0  0  0  0  0  0
   -2.6660   10.5650   -7.2080 C   0  0  0  0  0  0  0  0  0  0  0  0
   -0.7220    8.2250   -7.2910 C   0  0  0  0  0  0  0  0  0  0  0  0
   -1.9520   10.0860   -8.4820 C   0  0  0  0  0  0  0  0  0  0  0  0
   -1.5820    8.6070   -8.4830 C   0  0  0  0  0  0  0  0  0  0  0  0
  1  2  1  0
  2  3  1  0
  2  4  2  0
  4  5  1  0
  3  6  2  0
  5  6  1  0
  6  7  1  0
  5  8  1  0
  8  9  1  0
  7 10  1  0
  9 11  1  0
 10 12  1  0
 11 13  2  0
 11 14  1  0
 12 15  1  0
 12 16  1  0
 15 17  1  0
 16 18  1  0
 17 19  1  0
 18 19  1  0
M  END
