x0628_0_A-x0592_0_A
     RDKit          3D

 25 26  0  0  0  0  0  0  0  0999 V2000
   -1.0350    9.1020   -7.1640 C   0  0  0  0  0  0  0  0  0  0  0  0
   -0.9160   10.3030   -6.3130 C   0  0  0  0  0  0  0  0  0  0  0  0
   -1.8190   10.6190   -5.3250 N   0  0  0  0  0  0  0  0  0  0  0  0
    0.0860   11.1710   -6.4430 N   0  0  0  0  0  0  0  0  0  0  0  0
   -0.1960   12.0760   -5.4870 N   0  0  0  0  0  0  0  0  0  0  0  0
   -1.3510   11.7480   -4.8050 C   0  0  0  0  0  0  0  0  0  0  0  0
   -1.9790   12.5250   -3.6680 C   0  0  0  0  0  0  0  0  0  0  0  0
    0.7070   13.1970   -5.3310 C   0  0  0  0  0  0  0  0  0  0  0  0
    1.7570   12.9640   -4.2480 C   0  0  0  0  0  0  0  0  0  0  0  0
   -1.2170   13.8050   -3.2340 C   0  0  0  0  0  0  0  0  0  0  0  0
    1.1840   12.2690   -3.0440 C   0  0  0  0  0  0  0  0  0  0  0  0
   -1.3810   14.1530   -1.7350 C   0  0  0  0  0  0  0  0  0  0  0  0
    0.6680   11.1610   -2.9790 O   0  0  0  0  0  0  0  0  0  0  0  0
    1.2910   13.0340   -1.9480 O   0  0  0  0  0  0  0  0  0  0  0  0
   -2.8020   14.3500   -1.4950 N   0  0  0  0  0  0  0  0  0  0  0  0
   -3.3810   14.6580   -0.3870 C   0  0  0  0  0  0  0  0  0  0  0  0
   -2.7380   14.8720    0.8070 N   0  0  0  0  0  0  0  0  0  0  0  0
   -4.8100   14.7810   -0.3230 C   0  0  0  0  0  0  0  0  0  0  0  0
   -5.6730   15.2640   -1.3310 C   0  0  0  0  0  0  0  0  0  0  0  0
   -5.6580   14.4510    0.7120 C   0  0  0  0  0  0  0  0  0  0  0  0
   -6.9570   15.2380   -0.9690 N   0  0  0  0  0  0  0  0  0  0  0  0
   -6.9210   14.7370    0.2800 N   0  0  0  0  0  0  0  0  0  0  0  0
   -8.1540   14.5530    1.0230 C   0  0  0  0  0  0  0  0  0  0  0  0
   -7.8860   14.1060    2.4550 C   0  0  0  0  0  0  0  0  0  0  0  0
   -7.1550   15.0940    3.1800 O   0  0  0  0  0  0  0  0  0  0  0  0
  1  2  1  0
  2  3  1  0
  2  4  2  0
  4  5  1  0
  3  6  2  0
  5  6  1  0
  6  7  1  0
  5  8  1  0
  8  9  1  0
  7 10  1  0
  9 11  1  0
 10 12  1  0
 11 13  2  0
 11 14  1  0
 12 15  1  0
 15 16  2  3
 16 17  1  0
 16 18  1  0
 18 19  1  0
 18 20  2  0
 19 21  2  0
 20 22  1  0
 21 22  1  0
 22 23  1  0
 23 24  1  0
 24 25  1  0
M  END
