x0626_0_A_α-x0574_0_A_α
     RDKit          3D

 16 17  0  0  0  0  0  0  0  0999 V2000
   -5.5820   13.6080    1.6960 N   0  0  0  0  0  0  0  0  0  0  0  0
   -4.2120   13.2780    1.4320 C   0  0  0  0  0  0  0  0  0  0  0  0
   -3.3570   14.4090    1.2740 N   0  0  0  0  0  0  0  0  0  0  0  0
   -4.0670   15.5600    1.2450 C   0  0  0  0  0  0  0  0  0  0  0  0
   -2.4430   14.2360    0.1540 C   0  0  1  0  0  0  0  0  0  0  0  0
   -3.1480   14.5080   -1.2130 C   0  0  2  0  0  0  0  0  0  0  0  0
   -1.2920   15.2720    0.2480 C   0  0  1  0  0  0  0  0  0  0  0  0
   -4.6460   15.9460    0.1200 C   0  0  0  0  0  0  0  0  0  0  0  0
    0.0110   14.7730    0.8410 C   0  0  0  0  0  0  0  0  0  0  0  0
   -2.1430   15.3680   -1.9500 C   0  0  0  0  0  0  0  0  0  0  0  0
   -4.5440   15.1520   -1.1020 C   0  0  2  0  0  0  0  0  0  0  0  0
   -1.1370   15.7720   -1.1580 C   0  0  0  0  0  0  0  0  0  0  0  0
   -5.6420   14.2200   -1.0260 O   0  0  0  0  0  0  0  0  0  0  0  0
   -6.9000   14.8620   -0.7990 C   0  0  0  0  0  0  0  0  0  0  0  0
   -7.4420   14.4850    0.5870 C   0  0  0  0  0  0  0  0  0  0  0  0
   -8.9100   14.8230    0.7450 C   0  0  0  0  0  0  0  0  0  0  0  0
  1  2  1  0
  2  3  1  0
  3  4  1  0
  5  3  1  1
  5  6  1  0
  5  7  1  0
  4  8  2  0
  7  9  1  6
  6 10  1  6
  6 11  1  0
  8 11  1  0
  7 12  1  0
 10 12  2  0
 11 13  1  1
 13 14  1  0
 14 15  1  0
 15 16  1  0
M  END
