x0628_0_A-x0631_0_A
     RDKit          3D

 27 29  0  0  0  0  0  0  0  0999 V2000
   -1.3130    9.3520   -7.3860 C   0  0  2  0  0  0  0  0  0  0  0  0
   -2.6260    8.6060   -7.1820 C   0  0  0  0  0  0  0  0  0  0  0  0
   -0.0560    8.4820   -7.2820 C   0  0  0  0  0  0  0  0  0  0  0  0
   -1.1910   10.4730   -6.4140 C   0  0  0  0  0  0  0  0  0  0  0  0
   -2.1090   10.6970   -5.4300 N   0  0  0  0  0  0  0  0  0  0  0  0
   -0.1790   11.3420   -6.4380 N   0  0  0  0  0  0  0  0  0  0  0  0
    1.1170    9.1880   -7.8220 N   0  0  0  0  0  0  0  0  0  0  0  0
   -0.4720   12.1550   -5.4190 N   0  0  0  0  0  0  0  0  0  0  0  0
   -1.6380   11.7640   -4.8120 C   0  0  0  0  0  0  0  0  0  0  0  0
    1.0660   10.5860   -7.5710 N   0  0  0  0  0  0  0  0  0  0  0  0
    1.2510    9.0080   -9.2420 N   0  0  0  0  0  0  0  0  0  0  0  0
   -2.2620   12.4360   -3.6550 C   0  0  0  0  0  0  0  0  0  0  0  0
    0.4260   13.2620   -5.1300 C   0  0  0  0  0  0  0  0  0  0  0  0
    0.9620   11.2540   -8.8380 N   0  0  0  0  0  0  0  0  0  0  0  0
    0.7600   10.2340   -9.8370 C   0  0  1  0  0  0  0  0  0  0  0  0
    1.5710   12.9080   -4.1860 C   0  0  0  0  0  0  0  0  0  0  0  0
    1.6350   10.6450  -10.9010 N   0  0  0  0  0  0  0  0  0  0  0  0
    1.0690   12.2310   -2.9400 C   0  0  0  0  0  0  0  0  0  0  0  0
    2.1990    9.6280  -11.7780 C   0  0  2  0  0  0  0  0  0  0  0  0
    0.5750   11.1200   -2.8470 O   0  0  0  0  0  0  0  0  0  0  0  0
    1.2130   12.9970   -1.8480 O   0  0  0  0  0  0  0  0  0  0  0  0
    2.7820    8.6190  -10.9680 O   0  0  0  0  0  0  0  0  0  0  0  0
    3.1900   10.1220  -12.8770 C   0  0  1  0  0  0  0  0  0  0  0  0
    3.3510    9.3100  -14.0290 O   0  0  0  0  0  0  0  0  0  0  0  0
    2.8020   11.4660  -13.4710 C   0  0  0  0  0  0  0  0  0  0  0  0
    3.6980   11.5620  -14.6800 C   0  0  0  0  0  0  0  0  0  0  0  0
    4.1750   10.1310  -14.8650 C   0  0  0  0  0  0  0  0  0  0  0  0
  1  2  1  1
  1  3  1  0
  1  4  1  0
  4  5  1  0
  4  6  2  0
  3  7  1  0
  6  8  1  0
  5  9  2  0
  8  9  1  0
  7 10  1  0
  7 11  1  0
  9 12  1  0
  8 13  1  0
 10 14  1  0
 11 15  1  0
 14 15  1  0
 13 16  1  0
 15 17  1  6
 16 18  1  0
 17 19  1  0
 18 20  2  0
 18 21  1  0
 19 22  1  1
 19 23  1  0
 23 24  1  0
 23 25  1  6
 25 26  1  0
 24 27  1  0
 26 27  1  0
M  END
