x0628_0_A_α-x0662_0_A_β
     RDKit          3D

 21 22  0  0  0  0  0  0  0  0999 V2000
   -1.5420    7.9310   -6.2980 C   0  0  0  0  0  0  0  0  0  0  0  0
   -1.3030    9.2190   -5.6400 C   0  0  0  0  0  0  0  0  0  0  0  0
   -2.1120    9.7850   -4.6900 N   0  0  0  0  0  0  0  0  0  0  0  0
   -0.2560    9.9210   -5.9550 N   0  0  0  0  0  0  0  0  0  0  0  0
   -0.3880   10.9850   -5.1920 N   0  0  0  0  0  0  0  0  0  0  0  0
   -1.5070   10.9270   -4.4140 C   0  0  0  0  0  0  0  0  0  0  0  0
   -1.9640   11.9630   -3.4630 C   0  0  0  0  0  0  0  0  0  0  0  0
    0.6040   11.9680   -5.3750 C   0  0  2  0  0  0  0  0  0  0  0  0
    0.8810   12.9830   -4.2740 C   0  0  0  0  0  0  0  0  0  0  0  0
   -0.1610   12.3080   -6.5720 C   0  0  0  0  0  0  0  0  0  0  0  0
    0.8860   12.3490   -2.9110 C   0  0  0  0  0  0  0  0  0  0  0  0
   -0.7810   13.3340   -6.6250 O   0  0  0  0  0  0  0  0  0  0  0  0
   -0.2880   11.2390   -7.6400 C   0  0  0  0  0  0  0  0  0  0  0  0
    0.4910   11.2230   -2.6610 O   0  0  0  0  0  0  0  0  0  0  0  0
    1.3830   13.1340   -1.9460 O   0  0  0  0  0  0  0  0  0  0  0  0
    0.7570   11.0120   -8.5270 C   0  0  0  0  0  0  0  0  0  0  0  0
   -1.4370   10.4460   -7.7590 C   0  0  0  0  0  0  0  0  0  0  0  0
    0.6900   10.0430   -9.5260 C   0  0  0  0  0  0  0  0  0  0  0  0
   -1.5130    9.4620   -8.7490 C   0  0  0  0  0  0  0  0  0  0  0  0
    1.7490    9.8510  -10.4130 N   0  0  0  0  0  0  0  0  0  0  0  0
   -0.4560    9.2650   -9.6290 C   0  0  0  0  0  0  0  0  0  0  0  0
  1  2  1  0
  2  3  1  0
  2  4  2  0
  4  5  1  0
  3  6  2  0
  5  6  1  0
  6  7  1  0
  5  8  1  0
  8  9  1  1
  8 10  1  0
  9 11  1  0
 10 12  2  0
 10 13  1  0
 11 14  2  0
 11 15  1  0
 13 16  2  0
 13 17  1  0
 16 18  1  0
 17 19  2  0
 18 20  1  0
 18 21  2  0
 19 21  1  0
M  END
