x0628_0_A-x0371_0_A
     RDKit          3D

 32 35  0  0  0  0  0  0  0  0999 V2000
   -1.0590    9.1230   -7.2000 C   0  0  0  0  0  0  0  0  0  0  0  0
   -1.0050   10.3410   -6.3680 C   0  0  0  0  0  0  0  0  0  0  0  0
   -1.9970   10.6950   -5.4860 N   0  0  0  0  0  0  0  0  0  0  0  0
    0.0220   11.1850   -6.4150 N   0  0  0  0  0  0  0  0  0  0  0  0
   -0.3380   12.1220   -5.5140 N   0  0  0  0  0  0  0  0  0  0  0  0
   -1.5610   11.8290   -4.9480 C   0  0  0  0  0  0  0  0  0  0  0  0
   -2.2740   12.6490   -3.8940 C   0  0  0  0  0  0  0  0  0  0  0  0
    0.5420   13.2440   -5.2590 C   0  0  0  0  0  0  0  0  0  0  0  0
    1.6510   12.9940   -4.2380 C   0  0  0  0  0  0  0  0  0  0  0  0
   -2.9050   13.9770   -4.3930 C   0  0  0  0  0  0  0  0  0  0  0  0
    1.1300   12.3040   -3.0050 C   0  0  0  0  0  0  0  0  0  0  0  0
   -2.8120   15.2000   -3.4330 C   0  0  0  0  0  0  0  0  0  0  0  0
    0.6550   11.1850   -2.9080 O   0  0  0  0  0  0  0  0  0  0  0  0
    1.2460   13.0840   -1.9160 O   0  0  0  0  0  0  0  0  0  0  0  0
   -3.5430   15.0410   -2.1030 C   0  0  0  0  0  0  0  0  0  0  0  0
   -2.8210   14.9540   -0.8950 C   0  0  0  0  0  0  0  0  0  0  0  0
   -4.9460   14.9730   -2.0640 C   0  0  0  0  0  0  0  0  0  0  0  0
   -5.5970   14.7990   -0.8310 C   0  0  0  0  0  0  0  0  0  0  0  0
   -3.4510   14.7890    0.3450 C   0  0  0  0  0  0  0  0  0  0  0  0
   -6.9380   14.6870   -0.5460 N   0  0  0  0  0  0  0  0  0  0  0  0
   -4.8370   14.7090    0.3270 C   0  0  0  0  0  0  0  0  0  0  0  0
   -5.7510   14.5300    1.3230 N   0  0  0  0  0  0  0  0  0  0  0  0
   -7.0040   14.5160    0.7600 C   0  0  0  0  0  0  0  0  0  0  0  0
   -8.2210   14.3230    1.5850 C   0  0  0  0  0  0  0  0  0  0  0  0
   -7.9180   14.6160    2.9590 N   0  0  0  0  0  0  0  0  0  0  0  0
   -8.6740   15.5450    3.6370 C   0  0  0  0  0  0  0  0  0  0  0  0
   -9.3930   16.3450    3.0350 O   0  0  0  0  0  0  0  0  0  0  0  0
   -8.5760   15.4990    5.0710 C   0  0  0  0  0  0  0  0  0  0  0  0
   -8.0130   14.4070    5.6690 O   0  0  0  0  0  0  0  0  0  0  0  0
   -8.9710   16.4020    6.0360 C   0  0  0  0  0  0  0  0  0  0  0  0
   -8.6260   15.8330    7.2840 C   0  0  0  0  0  0  0  0  0  0  0  0
   -8.0450   14.6200    7.0060 C   0  0  0  0  0  0  0  0  0  0  0  0
  1  2  1  0
  2  3  1  0
  2  4  2  0
  4  5  1  0
  3  6  2  0
  5  6  1  0
  6  7  1  0
  5  8  1  0
  8  9  1  0
  7 10  1  0
  9 11  1  0
 10 12  1  0
 11 13  2  0
 11 14  1  0
 12 15  1  0
 15 16  2  0
 15 17  1  0
 17 18  2  0
 16 19  1  0
 18 20  1  0
 18 21  1  0
 19 21  2  0
 21 22  1  0
 20 23  2  0
 22 23  1  0
 23 24  1  0
 24 25  1  0
 25 26  1  0
 26 27  2  0
 26 28  1  0
 28 29  1  0
 28 30  2  0
 30 31  1  0
 29 32  1  0
 31 32  2  0
M  END
