x0628_0_A_α-x0371_0_A_α
     RDKit          3D

 27 28  0  0  0  0  0  0  0  0999 V2000
   -0.8120    8.9780   -7.2350 C   0  0  0  0  0  0  0  0  0  0  0  0
   -0.8410   10.2010   -6.4100 C   0  0  0  0  0  0  0  0  0  0  0  0
   -1.8700   10.4910   -5.5560 N   0  0  0  0  0  0  0  0  0  0  0  0
    0.1380   11.1110   -6.4400 N   0  0  0  0  0  0  0  0  0  0  0  0
   -0.3030   12.0190   -5.5520 N   0  0  0  0  0  0  0  0  0  0  0  0
   -1.5160   11.6450   -5.0200 C   0  0  0  0  0  0  0  0  0  0  0  0
   -2.2920   12.4270   -4.0100 C   0  0  0  0  0  0  0  0  0  0  0  0
    0.4960   13.2030   -5.2840 C   0  0  0  0  0  0  0  0  0  0  0  0
    1.6080   12.9480   -4.2680 C   0  0  0  0  0  0  0  0  0  0  0  0
   -2.1370   11.8850   -2.5820 C   0  0  0  0  0  0  0  0  0  0  0  0
    1.0820   12.2610   -3.0340 C   0  0  0  0  0  0  0  0  0  0  0  0
   -2.5600   12.9190   -1.5270 C   0  0  0  0  0  0  0  0  0  0  0  0
    0.6140   11.1360   -2.9900 O   0  0  0  0  0  0  0  0  0  0  0  0
    1.1790   13.0240   -1.9260 O   0  0  0  0  0  0  0  0  0  0  0  0
   -3.9800   12.7290   -0.9740 C   0  0  0  0  0  0  0  0  0  0  0  0
   -4.2600   13.3600    0.3970 C   0  0  0  0  0  0  0  0  0  0  0  0
   -5.7070   13.1690    0.8520 C   0  0  0  0  0  0  0  0  0  0  0  0
   -6.4180   14.4930    1.1460 C   0  0  0  0  0  0  0  0  0  0  0  0
   -7.8960   14.3650    1.5140 C   0  0  0  0  0  0  0  0  0  0  0  0
   -8.1090   14.3940    2.9460 N   0  0  0  0  0  0  0  0  0  0  0  0
   -8.7740   15.4560    3.5330 C   0  0  0  0  0  0  0  0  0  0  0  0
   -9.4100   16.2850    2.8960 O   0  0  0  0  0  0  0  0  0  0  0  0
   -8.6470   15.4830    4.9770 C   0  0  0  0  0  0  0  0  0  0  0  0
   -8.0510   14.4280    5.6140 O   0  0  0  0  0  0  0  0  0  0  0  0
   -9.0340   16.4240    5.9090 C   0  0  0  0  0  0  0  0  0  0  0  0
   -8.0590   14.7020    6.9430 C   0  0  0  0  0  0  0  0  0  0  0  0
   -8.6540   15.9160    7.1760 C   0  0  0  0  0  0  0  0  0  0  0  0
  1  2  1  0
  2  3  1  0
  2  4  2  0
  4  5  1  0
  3  6  2  0
  5  6  1  0
  6  7  1  0
  5  8  1  0
  8  9  1  0
  7 10  1  0
  9 11  1  0
 10 12  1  0
 11 13  2  0
 11 14  1  0
 12 15  1  0
 15 16  1  0
 16 17  1  0
 17 18  1  0
 18 19  1  0
 19 20  1  0
 20 21  1  0
 21 22  2  0
 21 23  1  0
 23 24  1  0
 23 25  2  0
 24 26  1  0
 25 27  1  0
 26 27  2  0
M  END
