x0628_0_A-x0438_0_A
     RDKit          3D

 28 30  0  0  0  0  0  0  0  0999 V2000
   -1.1170    9.2210   -7.1790 C   0  0  0  0  0  0  0  0  0  0  0  0
   -1.0430   10.4140   -6.3080 C   0  0  0  0  0  0  0  0  0  0  0  0
   -2.0000   10.7160   -5.3590 N   0  0  0  0  0  0  0  0  0  0  0  0
   -0.0340   11.2860   -6.3800 N   0  0  0  0  0  0  0  0  0  0  0  0
   -0.3710   12.1780   -5.4230 N   0  0  0  0  0  0  0  0  0  0  0  0
   -1.5600   11.8400   -4.7990 C   0  0  0  0  0  0  0  0  0  0  0  0
   -2.2350   12.6050   -3.6700 C   0  0  0  0  0  0  0  0  0  0  0  0
    0.5120   13.2980   -5.1920 C   0  0  0  0  0  0  0  0  0  0  0  0
    1.6680   12.9590   -4.2630 C   0  0  0  0  0  0  0  0  0  0  0  0
   -2.9720   13.9170   -4.0470 C   0  0  0  0  0  0  0  0  0  0  0  0
    1.1330   12.2980   -3.0290 C   0  0  0  0  0  0  0  0  0  0  0  0
   -2.8280   15.0880   -3.0240 C   0  0  0  0  0  0  0  0  0  0  0  0
    0.6670   11.1780   -2.9480 O   0  0  0  0  0  0  0  0  0  0  0  0
    1.2150   13.0810   -1.9490 O   0  0  0  0  0  0  0  0  0  0  0  0
   -3.6960   14.9540   -1.7680 C   0  0  0  0  0  0  0  0  0  0  0  0
   -5.0870   14.7970   -1.8910 C   0  0  0  0  0  0  0  0  0  0  0  0
   -3.1100   14.9750   -0.4790 C   0  0  0  0  0  0  0  0  0  0  0  0
   -5.8280   14.6450   -0.7120 C   0  0  0  0  0  0  0  0  0  0  0  0
   -3.8820   14.8330    0.6890 C   0  0  0  0  0  0  0  0  0  0  0  0
   -7.1700   14.4540   -0.4920 N   0  0  0  0  0  0  0  0  0  0  0  0
   -5.2670   14.6570    0.5560 C   0  0  0  0  0  0  0  0  0  0  0  0
   -7.3790   14.3410    0.8630 C   0  0  0  0  0  0  0  0  0  0  0  0
   -6.2420   14.4760    1.5130 N   0  0  0  0  0  0  0  0  0  0  0  0
   -8.7260   14.0820    1.4510 C   0  0  0  0  0  0  0  0  0  0  0  0
   -9.3190   15.3560    2.5440 S   0  0  0  0  0  0  0  0  0  0  0  0
   -8.1000   15.5030    3.8440 C   0  0  0  0  0  0  0  0  0  0  0  0
  -10.5280   14.8390    3.1510 O   0  0  0  0  0  0  0  0  0  0  0  0
   -9.3990   16.5880    1.7860 O   0  0  0  0  0  0  0  0  0  0  0  0
  1  2  1  0
  2  3  1  0
  2  4  2  0
  4  5  1  0
  3  6  2  0
  5  6  1  0
  6  7  1  0
  5  8  1  0
  8  9  1  0
  7 10  1  0
  9 11  1  0
 10 12  1  0
 11 13  2  0
 11 14  1  0
 12 15  1  0
 15 16  2  0
 15 17  1  0
 16 18  1  0
 17 19  2  0
 18 20  1  0
 18 21  2  0
 19 21  1  0
 20 22  1  0
 21 23  1  0
 22 23  2  0
 22 24  1  0
 25 24  1  0
 25 26  1  0
 25 27  2  0
 25 28  2  0
M  END
