x0626_0_A_α-x0910_2_B_α
     RDKit          3D

 23 24  0  0  0  0  0  0  0  0999 V2000
   -4.9340   14.8260    1.4550 N   0  0  0  0  0  0  0  0  0  0  0  0
   -6.1010   14.6830    0.7580 C   0  0  0  0  0  0  0  0  0  0  0  0
   -6.0840   14.8570   -0.4670 O   0  0  0  0  0  0  0  0  0  0  0  0
   -3.6710   14.7630    0.9470 C   0  0  0  0  0  0  0  0  0  0  0  0
   -7.3790   14.3240    1.5050 C   0  0  0  0  0  0  0  0  0  0  0  0
   -2.5210   14.6380    1.5790 N   0  0  0  0  0  0  0  0  0  0  0  0
   -3.5920   14.8570   -0.7600 S   0  0  0  0  0  0  0  0  0  0  0  0
   -8.6660   14.4410    0.6760 C   0  0  0  0  0  0  0  0  0  0  0  0
   -1.8890   14.7040   -0.6630 C   0  0  0  0  0  0  0  0  0  0  0  0
   -1.4970   14.6010    0.6580 C   0  0  0  0  0  0  0  0  0  0  0  0
   -0.1210   14.4530    1.1560 C   0  0  0  0  0  0  0  0  0  0  0  0
   -9.1440   15.8750    0.3990 C   0  0  0  0  0  0  0  0  0  0  0  0
  -10.5350   16.0730   -0.1890 C   0  0  0  0  0  0  0  0  0  0  0  0
  -10.8140   17.5440   -0.5100 C   0  0  0  0  0  0  0  0  0  0  0  0
  -10.6590   17.8330   -2.0060 C   0  0  0  0  0  0  0  0  0  0  0  0
  -11.8020   18.6950   -2.5520 C   0  0  0  0  0  0  0  0  0  0  0  0
  -11.9990   20.0000   -1.7940 C   0  0  0  0  0  0  0  0  0  0  0  0
  -11.9380   21.1540   -2.6770 N   0  0  0  0  0  0  0  0  0  0  0  0
  -12.3260   22.3160   -2.1170 C   0  0  0  0  0  0  0  0  0  0  0  0
  -11.7710   23.5350   -2.3800 N   0  0  0  0  0  0  0  0  0  0  0  0
  -13.2880   22.4590   -1.2330 N   0  0  0  0  0  0  0  0  0  0  0  0
  -12.3720   24.4920   -1.6600 N   0  0  0  0  0  0  0  0  0  0  0  0
  -13.2810   23.7940   -0.9800 C   0  0  0  0  0  0  0  0  0  0  0  0
  1  2  1  0
  2  3  2  0
  1  4  1  0
  2  5  1  0
  4  6  2  0
  4  7  1  0
  5  8  1  0
  7  9  1  0
  6 10  1  0
  9 10  2  0
 10 11  1  0
  8 12  1  0
 12 13  1  0
 13 14  1  0
 14 15  1  0
 15 16  1  0
 16 17  1  0
 17 18  1  0
 18 19  1  0
 19 20  1  0
 19 21  2  0
 20 22  1  0
 21 23  1  0
 22 23  2  0
M  END
