x0628_0_A-x0574_0_A
     RDKit          3D

 26 28  0  0  0  0  0  0  0  0999 V2000
   -0.8220    9.0640   -7.3340 C   0  0  0  0  0  0  0  0  0  0  0  0
   -0.8240   10.2430   -6.4450 C   0  0  0  0  0  0  0  0  0  0  0  0
   -1.8450   10.5140   -5.5720 N   0  0  0  0  0  0  0  0  0  0  0  0
    0.1760   11.1330   -6.4310 N   0  0  0  0  0  0  0  0  0  0  0  0
   -0.2400   12.0020   -5.4930 N   0  0  0  0  0  0  0  0  0  0  0  0
   -1.4580   11.6280   -4.9790 C   0  0  0  0  0  0  0  0  0  0  0  0
   -2.1990   12.3680   -3.9300 C   0  0  0  0  0  0  0  0  0  0  0  0
    0.5900   13.1530   -5.1620 C   0  0  0  0  0  0  0  0  0  0  0  0
    1.4940   12.9700   -3.9430 C   0  0  0  0  0  0  0  0  0  0  0  0
    0.8720   12.0940   -2.8770 C   0  0  0  0  0  0  0  0  0  0  0  0
    0.1620   11.1270   -3.1050 O   0  0  0  0  0  0  0  0  0  0  0  0
    1.2180   12.4760   -1.6120 O   0  0  0  0  0  0  0  0  0  0  0  0
    0.9390   13.8000   -1.0980 C   0  0  0  0  0  0  0  0  0  0  0  0
    0.2830   13.6340    0.2970 C   0  0  0  0  0  0  0  0  0  0  0  0
    0.0180   14.8270    1.0260 N   0  0  0  0  0  0  0  0  0  0  0  0
   -1.2220   14.8780    0.7600 C   0  0  0  0  0  0  0  0  0  0  0  0
   -2.1570   15.0260    1.6290 N   0  0  0  0  0  0  0  0  0  0  0  0
   -1.6150   14.6840   -0.8880 S   0  0  0  0  0  0  0  0  0  0  0  0
   -3.3370   14.9700    0.9190 C   0  0  0  0  0  0  0  0  0  0  0  0
   -3.2320   14.7890   -0.4580 C   0  0  0  0  0  0  0  0  0  0  0  0
   -4.6060   15.0710    1.4580 C   0  0  0  0  0  0  0  0  0  0  0  0
   -4.3240   14.7080   -1.3050 C   0  0  0  0  0  0  0  0  0  0  0  0
   -5.7150   14.9610    0.6420 C   0  0  0  0  0  0  0  0  0  0  0  0
   -5.5750   14.7920   -0.7240 C   0  0  0  0  0  0  0  0  0  0  0  0
   -7.0000   15.0030    1.0910 O   0  0  0  0  0  0  0  0  0  0  0  0
   -7.1700   14.6080    2.4520 C   0  0  0  0  0  0  0  0  0  0  0  0
  1  2  1  0
  2  3  1  0
  2  4  2  0
  4  5  1  0
  3  6  2  0
  5  6  1  0
  6  7  1  0
  5  8  1  0
  8  9  1  0
  9 10  1  0
 10 11  2  0
 10 12  1  0
 12 13  1  0
 13 14  1  0
 14 15  1  0
 15 16  1  0
 16 17  2  0
 16 18  1  0
 17 19  1  0
 18 20  1  0
 19 20  2  0
 19 21  1  0
 20 22  1  0
 21 23  2  0
 22 24  2  0
 23 24  1  0
 23 25  1  0
 25 26  1  0
M  END
