x0628_0_A-x0104_0_A
     RDKit          3D

 31 33  0  0  0  0  0  0  0  0999 V2000
   -0.7900    8.9280   -7.1710 C   0  0  0  0  0  0  0  0  0  0  0  0
   -0.8510   10.1840   -6.4030 C   0  0  0  0  0  0  0  0  0  0  0  0
   -1.9350   10.5380   -5.6460 N   0  0  0  0  0  0  0  0  0  0  0  0
    0.1510   11.0670   -6.3890 N   0  0  0  0  0  0  0  0  0  0  0  0
   -0.3300   12.0210   -5.5790 N   0  0  0  0  0  0  0  0  0  0  0  0
   -1.5910   11.7060   -5.1310 C   0  0  0  0  0  0  0  0  0  0  0  0
   -2.4210   12.5500   -4.2260 C   0  0  0  0  0  0  0  0  0  0  0  0
    0.4830   13.1920   -5.2980 C   0  0  0  0  0  0  0  0  0  0  0  0
    1.5930   12.9340   -4.2890 C   0  0  0  0  0  0  0  0  0  0  0  0
   -2.1750   12.2750   -2.7390 C   0  0  0  0  0  0  0  0  0  0  0  0
    1.1020   12.2980   -3.0160 C   0  0  0  0  0  0  0  0  0  0  0  0
   -2.9300   13.2250   -1.7940 C   0  0  0  0  0  0  0  0  0  0  0  0
    0.6490   11.1720   -2.8850 O   0  0  0  0  0  0  0  0  0  0  0  0
    1.2020   13.1180   -1.9590 O   0  0  0  0  0  0  0  0  0  0  0  0
   -3.1900   14.6350   -2.3490 C   0  0  0  0  0  0  0  0  0  0  0  0
   -4.5900   14.8990   -2.3030 O   0  0  0  0  0  0  0  0  0  0  0  0
   -5.1140   14.8180   -1.0310 C   0  0  0  0  0  0  0  0  0  0  0  0
   -4.2980   14.8020    0.0470 N   0  0  0  0  0  0  0  0  0  0  0  0
   -6.4920   14.7540   -0.9500 C   0  0  0  0  0  0  0  0  0  0  0  0
   -4.9050   14.7230    1.2580 C   0  0  0  0  0  0  0  0  0  0  0  0
   -7.0820   14.6700    0.3070 C   0  0  0  0  0  0  0  0  0  0  0  0
   -6.2880   14.6560    1.4520 C   0  0  0  0  0  0  0  0  0  0  0  0
   -6.8130   14.5830    2.7600 N   0  0  0  0  0  0  0  0  0  0  0  0
   -8.0270   15.0750    3.1990 C   0  0  0  0  0  0  0  0  0  0  0  0
   -8.0330   15.0690    4.5830 N   0  0  0  0  0  0  0  0  0  0  0  0
   -8.9380   15.4450    2.4670 O   0  0  0  0  0  0  0  0  0  0  0  0
   -9.1750   15.0610    5.3630 C   0  0  0  0  0  0  0  0  0  0  0  0
   -9.2320   15.1730    6.7360 C   0  0  0  0  0  0  0  0  0  0  0  0
  -10.7260   14.9050    4.6800 S   0  0  0  0  0  0  0  0  0  0  0  0
  -11.4890   14.9840    6.2070 C   0  0  0  0  0  0  0  0  0  0  0  0
  -10.5720   15.1290    7.2260 C   0  0  0  0  0  0  0  0  0  0  0  0
  1  2  1  0
  2  3  1  0
  2  4  2  0
  4  5  1  0
  3  6  2  0
  5  6  1  0
  6  7  1  0
  5  8  1  0
  8  9  1  0
  7 10  1  0
  9 11  1  0
 10 12  1  0
 11 13  2  0
 11 14  1  0
 12 15  1  0
 15 16  1  0
 16 17  1  0
 17 18  2  0
 17 19  1  0
 18 20  1  0
 19 21  2  0
 20 22  2  0
 21 22  1  0
 22 23  1  0
 23 24  1  0
 24 25  1  0
 24 26  2  0
 25 27  1  0
 27 28  2  0
 27 29  1  0
 29 30  1  0
 28 31  1  0
 30 31  2  0
M  END
