x0628_0_A-x0626_0_A
     RDKit          3D

 25 26  0  0  0  0  0  0  0  0999 V2000
   -0.7840    9.0160   -7.2840 C   0  0  0  0  0  0  0  0  0  0  0  0
   -0.8130   10.2130   -6.4250 C   0  0  0  0  0  0  0  0  0  0  0  0
   -1.8220   10.4470   -5.5290 N   0  0  0  0  0  0  0  0  0  0  0  0
    0.1360   11.1530   -6.4550 N   0  0  0  0  0  0  0  0  0  0  0  0
   -0.2990   12.0160   -5.5270 N   0  0  0  0  0  0  0  0  0  0  0  0
   -1.4780   11.5930   -4.9700 C   0  0  0  0  0  0  0  0  0  0  0  0
   -2.2210   12.3180   -3.9170 C   0  0  0  0  0  0  0  0  0  0  0  0
    0.4690   13.2160   -5.2380 C   0  0  0  0  0  0  0  0  0  0  0  0
    1.6340   12.9860   -4.2900 C   0  0  0  0  0  0  0  0  0  0  0  0
    1.2110   12.3310   -2.9960 C   0  0  0  0  0  0  0  0  0  0  0  0
    0.4450   11.3740   -2.9130 O   0  0  0  0  0  0  0  0  0  0  0  0
    1.8240   12.9380   -1.9440 O   0  0  0  0  0  0  0  0  0  0  0  0
    1.2150   14.1240   -1.3870 C   0  0  0  0  0  0  0  0  0  0  0  0
    0.2750   13.6830   -0.2660 C   0  0  0  0  0  0  0  0  0  0  0  0
   -0.2420   14.7330    0.6820 C   0  0  0  0  0  0  0  0  0  0  0  0
   -1.6750   14.7970    0.3980 C   0  0  0  0  0  0  0  0  0  0  0  0
   -2.5980   14.7900    1.4130 N   0  0  0  0  0  0  0  0  0  0  0  0
   -2.1740   14.8560   -0.8820 C   0  0  0  0  0  0  0  0  0  0  0  0
   -3.7890   14.8600    0.8580 C   0  0  0  0  0  0  0  0  0  0  0  0
   -3.8680   14.9270   -0.8440 S   0  0  0  0  0  0  0  0  0  0  0  0
   -5.0080   14.8800    1.4450 N   0  0  0  0  0  0  0  0  0  0  0  0
   -6.1930   14.6890    0.8030 C   0  0  0  0  0  0  0  0  0  0  0  0
   -6.2330   14.8200   -0.4240 O   0  0  0  0  0  0  0  0  0  0  0  0
   -7.4230   14.3330    1.6120 C   0  0  0  0  0  0  0  0  0  0  0  0
   -8.7080   14.6700    0.8740 C   0  0  0  0  0  0  0  0  0  0  0  0
  1  2  1  0
  2  3  1  0
  2  4  2  0
  4  5  1  0
  3  6  2  0
  5  6  1  0
  6  7  1  0
  5  8  1  0
  8  9  1  0
  9 10  1  0
 10 11  2  0
 10 12  1  0
 12 13  1  0
 13 14  1  0
 14 15  1  0
 15 16  1  0
 16 17  1  0
 16 18  2  0
 17 19  2  0
 18 20  1  0
 19 20  1  0
 19 21  1  0
 21 22  1  0
 22 23  2  0
 22 24  1  0
 24 25  1  0
M  END
