x0626_0_A-x0592_0_A
     RDKit          3D

 20 21  0  0  0  0  0  0  0  0999 V2000
   -4.7150   15.2660    1.9270 N   0  0  0  0  0  0  0  0  0  0  0  0
   -5.8230   15.0590    1.1740 C   0  0  0  0  0  0  0  0  0  0  0  0
   -5.9570   15.4660    0.0100 O   0  0  0  0  0  0  0  0  0  0  0  0
   -3.4810   15.2380    1.3390 C   0  0  0  0  0  0  0  0  0  0  0  0
   -7.0280   14.2690    1.7700 C   0  0  2  0  0  0  0  0  0  0  0  0
   -2.3330   14.8140    1.8080 N   0  0  0  0  0  0  0  0  0  0  0  0
   -3.4550   15.8540   -0.2450 S   0  0  0  0  0  0  0  0  0  0  0  0
   -7.7950   13.6420    0.6390 C   0  0  0  0  0  0  0  0  0  0  0  0
   -7.8590   15.0860    2.6090 O   0  0  0  0  0  0  0  0  0  0  0  0
   -1.7790   15.5420   -0.3370 C   0  0  0  0  0  0  0  0  0  0  0  0
   -1.3580   14.9820    0.8500 C   0  0  0  0  0  0  0  0  0  0  0  0
   -0.0020   14.5580    1.1850 C   0  0  0  0  0  0  0  0  0  0  0  0
   -6.8040   13.8330   -0.3780 N   0  0  0  0  0  0  0  0  0  0  0  0
   -7.0840   14.3340   -1.5970 N   0  0  0  0  0  0  0  0  0  0  0  0
   -5.4930   13.5520   -0.1760 C   0  0  0  0  0  0  0  0  0  0  0  0
   -4.8280   13.8990   -1.3220 C   0  0  0  0  0  0  0  0  0  0  0  0
   -5.8650   14.3740   -2.1710 C   0  0  0  0  0  0  0  0  0  0  0  0
   -3.3960   13.7670   -1.4850 C   0  0  0  0  0  0  0  0  0  0  0  0
   -2.7210   13.3320   -0.3850 N   0  0  0  0  0  0  0  0  0  0  0  0
   -2.7870   14.0390   -2.5110 O   0  0  0  0  0  0  0  0  0  0  0  0
  1  2  1  0
  2  3  2  0
  1  4  1  0
  2  5  1  0
  4  6  2  0
  4  7  1  0
  5  8  1  0
  5  9  1  6
  7 10  1  0
  6 11  1  0
 10 11  2  0
 11 12  1  0
  8 13  1  0
 13 14  1  0
 13 15  1  0
 15 16  2  0
 14 17  2  0
 16 17  1  0
 16 18  1  0
 18 19  1  0
 18 20  2  0
M  END
