x0628_0_A_α-x0805_0_A_α
     RDKit          3D

 19 20  0  0  0  0  0  0  0  0999 V2000
   -1.3710    9.1390   -6.9400 C   0  0  0  0  0  0  0  0  0  0  0  0
   -1.2160   10.3780   -6.1410 C   0  0  0  0  0  0  0  0  0  0  0  0
   -2.1410   10.8060   -5.2120 N   0  0  0  0  0  0  0  0  0  0  0  0
   -0.1530   11.1660   -6.2760 N   0  0  0  0  0  0  0  0  0  0  0  0
   -0.4200   12.1440   -5.3770 N   0  0  0  0  0  0  0  0  0  0  0  0
   -1.6340   11.9400   -4.7170 C   0  0  0  0  0  0  0  0  0  0  0  0
    0.5420   13.2230   -5.2240 C   0  0  0  0  0  0  0  0  0  0  0  0
   -2.2170   12.8370   -3.6580 C   0  0  0  0  0  0  0  0  0  0  0  0
    1.6710   12.9620   -4.2250 C   0  0  0  0  0  0  0  0  0  0  0  0
   -1.3550   13.7710   -3.0700 C   0  0  0  0  0  0  0  0  0  0  0  0
   -3.5570   12.8300   -3.1930 C   0  0  0  0  0  0  0  0  0  0  0  0
    1.1910   12.2720   -2.9690 C   0  0  0  0  0  0  0  0  0  0  0  0
   -3.9810   13.7400   -2.1830 C   0  0  0  0  0  0  0  0  0  0  0  0
   -1.7740   14.6590   -2.0780 C   0  0  0  0  0  0  0  0  0  0  0  0
    0.7170   11.1460   -2.9430 O   0  0  0  0  0  0  0  0  0  0  0  0
    1.3330   13.0070   -1.8520 O   0  0  0  0  0  0  0  0  0  0  0  0
   -3.0860   14.6640   -1.6220 C   0  0  0  0  0  0  0  0  0  0  0  0
   -3.5740   15.5210   -0.6580 O   0  0  0  0  0  0  0  0  0  0  0  0
   -4.1710   15.0020    0.5260 C   0  0  0  0  0  0  0  0  0  0  0  0
  1  2  1  0
  2  3  1  0
  2  4  2  0
  4  5  1  0
  3  6  2  0
  5  6  1  0
  5  7  1  0
  6  8  1  0
  7  9  1  0
  8 10  2  0
  8 11  1  0
  9 12  1  0
 11 13  2  0
 10 14  1  0
 12 15  2  0
 12 16  1  0
 13 17  1  0
 14 17  2  0
 17 18  1  0
 18 19  1  0
M  END
