x0626_0_A-x0681_0_A
     RDKit          3D

 23 25  0  0  0  0  0  0  0  0999 V2000
   -4.8950   15.4100    1.9330 N   0  0  0  0  0  0  0  0  0  0  0  0
   -6.0930   14.6390    1.5360 C   0  0  2  0  0  0  0  0  0  0  0  0
   -6.4560   15.1390    0.2360 O   0  0  0  0  0  0  0  0  0  0  0  0
   -3.7200   15.2180    1.2800 C   0  0  0  0  0  0  0  0  0  0  0  0
   -7.3260   14.8110    2.4600 C   0  0  0  0  0  0  0  0  0  0  0  0
   -2.5500   14.8740    1.8280 N   0  0  0  0  0  0  0  0  0  0  0  0
   -3.6660   15.3940   -0.4330 S   0  0  0  0  0  0  0  0  0  0  0  0
   -5.7010   13.1610    1.3920 C   0  0  1  0  0  0  0  0  0  0  0  0
   -8.6620   15.1710    1.8140 C   0  0  0  0  0  0  0  0  0  0  0  0
   -1.9990   14.9500   -0.4230 C   0  0  0  0  0  0  0  0  0  0  0  0
   -1.5710   14.7190    0.8680 C   0  0  0  0  0  0  0  0  0  0  0  0
   -6.1700   12.5080    0.1730 N   0  0  0  0  0  0  0  0  0  0  0  0
   -4.2060   13.0490    1.4840 C   0  0  0  0  0  0  0  0  0  0  0  0
   -0.2060   14.3280    1.2780 C   0  0  0  0  0  0  0  0  0  0  0  0
   -5.4200   12.2810   -0.9570 C   0  0  0  0  0  0  0  0  0  0  0  0
   -3.4480   13.3210    0.1840 C   0  0  0  0  0  0  0  0  0  0  0  0
   -7.4170   12.0140   -0.0440 C   0  0  0  0  0  0  0  0  0  0  0  0
   -3.9910   12.6830   -1.0880 C   0  0  2  0  0  0  0  0  0  0  0  0
   -6.1400   11.6680   -1.8690 N   0  0  0  0  0  0  0  0  0  0  0  0
   -7.3770   11.4980   -1.3140 C   0  0  0  0  0  0  0  0  0  0  0  0
   -3.7460   13.6310   -2.2750 C   0  0  0  0  0  0  0  0  0  0  0  0
   -4.8030   14.3240   -2.8060 N   0  0  0  0  0  0  0  0  0  0  0  0
   -2.6260   13.7880   -2.7670 O   0  0  0  0  0  0  0  0  0  0  0  0
  1  2  1  0
  2  3  1  6
  1  4  1  0
  2  5  1  0
  4  6  2  0
  4  7  1  0
  2  8  1  0
  5  9  1  0
  7 10  1  0
  6 11  1  0
 10 11  2  0
  8 12  1  0
  8 13  1  6
 11 14  1  0
 12 15  1  0
 13 16  1  0
 12 17  1  0
 15 18  1  0
 16 18  1  0
 15 19  2  0
 17 20  2  0
 19 20  1  0
 18 21  1  6
 21 22  1  0
 21 23  2  0
M  END
