x0626_0_A-x0711_0_A
     RDKit          3D

 16 16  0  0  0  0  0  0  0  0999 V2000
   -4.9310   14.6630    1.2260 N   0  0  0  0  0  0  0  0  0  0  0  0
   -6.2030   14.6110    0.7730 C   0  0  0  0  0  0  0  0  0  0  0  0
   -6.3650   14.7840   -0.4450 O   0  0  0  0  0  0  0  0  0  0  0  0
   -3.7330   14.6940    0.5780 C   0  0  0  0  0  0  0  0  0  0  0  0
   -7.3850   14.3600    1.6820 C   0  0  0  0  0  0  0  0  0  0  0  0
   -2.6050   14.5280    1.2200 N   0  0  0  0  0  0  0  0  0  0  0  0
   -3.5980   14.9440   -1.0890 S   0  0  0  0  0  0  0  0  0  0  0  0
   -8.7050   14.6040    0.9620 C   0  0  0  0  0  0  0  0  0  0  0  0
   -1.9120   14.8330   -0.9790 C   0  0  0  0  0  0  0  0  0  0  0  0
   -1.5290   14.6050    0.3430 C   0  0  0  0  0  0  0  0  0  0  0  0
   -0.1700   14.4470    0.9190 C   0  0  0  0  0  0  0  0  0  0  0  0
   -1.0730   15.0020   -2.1900 N   0  0  0  0  0  0  0  0  0  0  0  0
   -0.3090   13.6650   -2.8850 S   0  0  0  0  0  0  0  0  0  0  0  0
   -1.6660   12.8710   -3.7150 C   0  0  0  0  0  0  0  0  0  0  0  0
    0.5400   14.2440   -3.9030 O   0  0  0  0  0  0  0  0  0  0  0  0
    0.2010   12.7970   -1.8570 O   0  0  0  0  0  0  0  0  0  0  0  0
  1  2  1  0
  2  3  2  0
  1  4  1  0
  2  5  1  0
  4  6  2  0
  4  7  1  0
  5  8  1  0
  7  9  1  0
  6 10  1  0
  9 10  2  0
 10 11  1  0
  9 12  1  0
 13 12  1  0
 13 14  1  0
 13 15  2  0
 13 16  2  0
M  END
