x0626_0_A_α-x0962_2_B_α
     RDKit          3D

 19 20  0  0  0  0  0  0  0  0999 V2000
   -4.8470   14.9000    1.3550 N   0  0  0  0  0  0  0  0  0  0  0  0
   -5.9890   14.7300    0.6370 C   0  0  0  0  0  0  0  0  0  0  0  0
   -5.9530   14.8740   -0.5920 O   0  0  0  0  0  0  0  0  0  0  0  0
   -3.5870   14.8030    0.8720 C   0  0  0  0  0  0  0  0  0  0  0  0
   -7.2680   14.3740    1.3600 C   0  0  0  0  0  0  0  0  0  0  0  0
   -2.4620   14.6670    1.5340 N   0  0  0  0  0  0  0  0  0  0  0  0
   -3.4820   14.8600   -0.8310 S   0  0  0  0  0  0  0  0  0  0  0  0
   -8.5230   14.3360    0.4730 C   0  0  0  0  0  0  0  0  0  0  0  0
   -1.7850   14.6790   -0.6950 C   0  0  0  0  0  0  0  0  0  0  0  0
   -1.4270   14.5950    0.6350 C   0  0  0  0  0  0  0  0  0  0  0  0
   -0.0680   14.4350    1.1550 C   0  0  0  0  0  0  0  0  0  0  0  0
   -9.3010   15.6610    0.3590 C   0  0  0  0  0  0  0  0  0  0  0  0
   -9.9580   16.1550    1.6580 C   0  0  1  0  0  0  0  0  0  0  0  0
  -11.3500   15.7400    1.6320 N   0  0  0  0  0  0  0  0  0  0  0  0
   -9.2670   15.6220    2.8710 C   0  0  0  0  0  0  0  0  0  0  0  0
   -8.8680   16.4240    3.9200 N   0  0  0  0  0  0  0  0  0  0  0  0
   -8.8680   14.3560    3.2570 C   0  0  0  0  0  0  0  0  0  0  0  0
   -8.2630   15.6310    4.8530 C   0  0  0  0  0  0  0  0  0  0  0  0
   -8.2500   14.3730    4.4810 N   0  0  0  0  0  0  0  0  0  0  0  0
  1  2  1  0
  2  3  2  0
  1  4  1  0
  2  5  1  0
  4  6  2  0
  4  7  1  0
  5  8  1  0
  7  9  1  0
  6 10  1  0
  9 10  2  0
 10 11  1  0
  8 12  1  0
 12 13  1  0
 13 14  1  6
 13 15  1  0
 15 16  1  0
 15 17  2  0
 16 18  1  0
 17 19  1  0
 18 19  2  0
M  END
