x0628_0_A_α-x0766_0_A_α
     RDKit          3D

 22 24  0  0  0  0  0  0  0  0999 V2000
   -1.2020    8.8570   -7.5430 C   0  0  0  0  0  0  0  0  0  0  0  0
   -1.1510   10.0420   -6.6750 C   0  0  0  0  0  0  0  0  0  0  0  0
   -2.1560   10.3780   -5.8040 N   0  0  0  0  0  0  0  0  0  0  0  0
   -0.1110   10.8670   -6.6830 N   0  0  0  0  0  0  0  0  0  0  0  0
   -0.4850   11.7580   -5.7620 N   0  0  0  0  0  0  0  0  0  0  0  0
   -1.7090   11.4760   -5.2300 C   0  0  0  0  0  0  0  0  0  0  0  0
   -2.3730   12.2870   -4.1860 C   0  0  0  0  0  0  0  0  0  0  0  0
    0.3960   12.8310   -5.4430 C   0  0  0  0  0  0  0  0  0  0  0  0
    1.2730   12.2030   -4.3890 C   0  0  0  0  0  0  0  0  0  0  0  0
    1.0140   12.7060   -3.0020 C   0  0  0  0  0  0  0  0  0  0  0  0
   -0.1410   12.0460   -2.5010 O   0  0  0  0  0  0  0  0  0  0  0  0
    2.0620   12.3410   -2.1720 O   0  0  0  0  0  0  0  0  0  0  0  0
    1.0340   14.2060   -2.9610 C   0  0  1  0  0  0  0  0  0  0  0  0
    1.9760   14.7660   -4.0140 C   0  0  0  0  0  0  0  0  0  0  0  0
   -0.1660   15.1380   -3.0010 C   0  0  1  0  0  0  0  0  0  0  0  0
    1.0750   15.3800   -5.0680 C   0  0  0  0  0  0  0  0  0  0  0  0
   -0.3380   15.4160   -4.4880 C   0  0  0  0  0  0  0  0  0  0  0  0
   -1.4080   14.8510   -2.2040 C   0  0  0  0  0  0  0  0  0  0  0  0
   -2.7000   14.8250   -2.7110 C   0  0  0  0  0  0  0  0  0  0  0  0
   -1.4210   14.5860   -0.7930 C   0  0  0  0  0  0  0  0  0  0  0  0
   -2.6840   14.3830   -0.2980 C   0  0  0  0  0  0  0  0  0  0  0  0
   -3.8740   14.5020   -1.5130 S   0  0  0  0  0  0  0  0  0  0  0  0
  1  2  1  0
  2  3  1  0
  2  4  2  0
  4  5  1  0
  3  6  2  0
  5  6  1  0
  6  7  1  0
  5  8  1  0
  8  9  1  0
  9 10  1  0
 10 11  1  0
 10 12  1  0
 13 10  1  6
 13 14  1  0
 13 15  1  0
 14 16  1  0
 15 17  1  0
 16 17  1  0
 15 18  1  6
 18 19  2  0
 18 20  1  0
 20 21  2  0
 19 22  1  0
 21 22  1  0
M  END
