x0628_0_A_α-x0421_0_A_α
     RDKit          3D

 25 27  0  0  0  0  0  0  0  0999 V2000
   -0.8570    8.9420   -7.2800 C   0  0  0  0  0  0  0  0  0  0  0  0
   -0.8310   10.1660   -6.4600 C   0  0  0  0  0  0  0  0  0  0  0  0
   -1.8320   10.4870   -5.5800 N   0  0  0  0  0  0  0  0  0  0  0  0
    0.1680   11.0470   -6.5160 N   0  0  0  0  0  0  0  0  0  0  0  0
   -0.2190   11.9700   -5.6200 N   0  0  0  0  0  0  0  0  0  0  0  0
   -1.4250   11.6320   -5.0580 C   0  0  0  0  0  0  0  0  0  0  0  0
   -2.1470   12.4360   -4.0290 C   0  0  0  0  0  0  0  0  0  0  0  0
    0.6350   13.1230   -5.3900 C   0  0  0  0  0  0  0  0  0  0  0  0
    1.6730   12.9220   -4.2910 C   0  0  0  0  0  0  0  0  0  0  0  0
   -2.1340   13.9300   -4.3580 C   0  0  0  0  0  0  0  0  0  0  0  0
    1.0980   12.2500   -3.0750 C   0  0  0  0  0  0  0  0  0  0  0  0
   -1.2720   14.7710   -3.4120 C   0  0  0  0  0  0  0  0  0  0  0  0
    0.5700   11.1530   -2.9960 O   0  0  0  0  0  0  0  0  0  0  0  0
    1.2290   13.0210   -1.9810 O   0  0  0  0  0  0  0  0  0  0  0  0
   -1.8080   14.7100   -2.0550 N   0  0  0  0  0  0  0  0  0  0  0  0
   -3.0420   14.9940   -1.8840 C   0  0  0  0  0  0  0  0  0  0  0  0
   -3.9970   15.3580   -2.7890 N   0  0  0  0  0  0  0  0  0  0  0  0
   -3.5910   14.9440   -0.5300 C   0  0  0  0  0  0  0  0  0  0  0  0
   -2.9160   15.0380    0.6740 C   0  0  0  0  0  0  0  0  0  0  0  0
   -4.9500   14.7820   -0.3000 N   0  0  0  0  0  0  0  0  0  0  0  0
   -3.8760   14.9310    1.6340 N   0  0  0  0  0  0  0  0  0  0  0  0
   -5.0730   14.7780    1.0050 C   0  0  0  0  0  0  0  0  0  0  0  0
   -6.4160   14.6170    1.7550 C   0  0  0  0  0  0  0  0  0  0  0  0
   -7.7040   14.6610    0.9760 C   0  0  0  0  0  0  0  0  0  0  0  0
   -7.2190   13.3620    1.5540 C   0  0  0  0  0  0  0  0  0  0  0  0
  1  2  1  0
  2  3  1  0
  2  4  2  0
  4  5  1  0
  3  6  2  0
  5  6  1  0
  6  7  1  0
  5  8  1  0
  8  9  1  0
  7 10  1  0
  9 11  1  0
 10 12  1  0
 11 13  2  0
 11 14  1  0
 12 15  1  0
 15 16  2  3
 16 17  1  0
 16 18  1  0
 18 19  2  0
 18 20  1  0
 19 21  1  0
 20 22  2  0
 21 22  1  0
 22 23  1  0
 23 24  1  0
 23 25  1  0
 24 25  1  0
M  END
