x0628_0_A_α-x0524_0_A_α
     RDKit          3D

 28 30  0  0  0  0  0  0  0  0999 V2000
   -1.1060    9.3880   -7.4680 C   0  0  2  0  0  0  0  0  0  0  0  0
    0.0040    8.4680   -7.7230 N   0  0  0  0  0  0  0  0  0  0  0  0
    0.8500    8.5760   -8.8380 C   0  0  0  0  0  0  0  0  0  0  0  0
   -2.3180    8.5580   -7.0200 C   0  0  0  0  0  0  0  0  0  0  0  0
   -1.4800    9.9950   -8.6940 O   0  0  0  0  0  0  0  0  0  0  0  0
   -0.9480   10.5030   -6.4610 C   0  0  0  0  0  0  0  0  0  0  0  0
   -1.8510   10.7020   -5.4480 N   0  0  0  0  0  0  0  0  0  0  0  0
    0.0700   11.3700   -6.5120 N   0  0  0  0  0  0  0  0  0  0  0  0
   -0.2260   12.1650   -5.4720 N   0  0  0  0  0  0  0  0  0  0  0  0
   -1.3770   11.7590   -4.8370 C   0  0  0  0  0  0  0  0  0  0  0  0
    1.9600    7.7350   -8.8550 C   0  0  0  0  0  0  0  0  0  0  0  0
    0.6940    9.4370   -9.9330 C   0  0  0  0  0  0  0  0  0  0  0  0
   -1.9820   12.4170   -3.6600 C   0  0  0  0  0  0  0  0  0  0  0  0
    0.6510   13.2840   -5.1810 C   0  0  0  0  0  0  0  0  0  0  0  0
    2.8820    7.7450   -9.9020 C   0  0  0  0  0  0  0  0  0  0  0  0
    1.6210    9.4500  -10.9920 C   0  0  0  0  0  0  0  0  0  0  0  0
    1.6920   12.9730   -4.1200 C   0  0  0  0  0  0  0  0  0  0  0  0
    2.7320    8.5990  -10.9850 C   0  0  0  0  0  0  0  0  0  0  0  0
    1.0580   12.3130   -2.9290 C   0  0  0  0  0  0  0  0  0  0  0  0
    3.6560    8.6150  -12.0420 N   0  0  0  0  0  0  0  0  0  0  0  0
    0.5690   11.1960   -2.8850 O   0  0  0  0  0  0  0  0  0  0  0  0
    1.0700   13.1030   -1.8460 O   0  0  0  0  0  0  0  0  0  0  0  0
    3.9490    9.5130  -13.0790 C   0  0  0  0  0  0  0  0  0  0  0  0
    3.1780   10.6720  -13.2600 C   0  0  0  0  0  0  0  0  0  0  0  0
    5.0080    9.2870  -13.9620 C   0  0  0  0  0  0  0  0  0  0  0  0
    3.4590   11.5680  -14.2880 C   0  0  0  0  0  0  0  0  0  0  0  0
    5.2920   10.1800  -14.9930 C   0  0  0  0  0  0  0  0  0  0  0  0
    4.5160   11.3230  -15.1580 C   0  0  0  0  0  0  0  0  0  0  0  0
  1  2  1  0
  2  3  1  0
  1  4  1  1
  1  5  1  0
  1  6  1  0
  6  7  1  0
  6  8  2  0
  8  9  1  0
  7 10  2  0
  9 10  1  0
  3 11  2  0
  3 12  1  0
 10 13  1  0
  9 14  1  0
 11 15  1  0
 12 16  2  0
 14 17  1  0
 15 18  2  0
 16 18  1  0
 17 19  1  0
 18 20  1  0
 19 21  2  0
 19 22  1  0
 20 23  1  0
 23 24  2  0
 23 25  1  0
 24 26  1  0
 25 27  2  0
 26 28  2  0
 27 28  1  0
M  END
