x0628_0_A_α-5cb5_O_0_O_β
     RDKit          3D

 23 23  0  0  0  0  0  0  0  0999 V2000
   -0.7370    9.0750   -7.3150 C   0  0  0  0  0  0  0  0  0  0  0  0
   -0.7990   10.2860   -6.4730 C   0  0  0  0  0  0  0  0  0  0  0  0
   -1.8240   10.5240   -5.5970 N   0  0  0  0  0  0  0  0  0  0  0  0
    0.1420   11.2370   -6.5010 N   0  0  0  0  0  0  0  0  0  0  0  0
   -0.3170   12.1180   -5.5880 N   0  0  0  0  0  0  0  0  0  0  0  0
   -1.5040   11.6780   -5.0490 C   0  0  0  0  0  0  0  0  0  0  0  0
   -2.2900   12.3960   -4.0180 C   0  0  0  0  0  0  0  0  0  0  0  0
    0.4430   13.3450   -5.2970 C   0  0  2  0  0  0  0  0  0  0  0  0
    1.5670   13.0370   -4.2890 C   0  0  0  0  0  0  0  0  0  0  0  0
   -0.5160   14.5150   -4.9160 C   0  0  0  0  0  0  0  0  0  0  0  0
    1.0920   12.3460   -3.0380 C   0  0  0  0  0  0  0  0  0  0  0  0
   -0.0380   15.9750   -5.0820 C   0  0  0  0  0  0  0  0  0  0  0  0
    0.6590   11.2080   -2.9500 O   0  0  0  0  0  0  0  0  0  0  0  0
    1.1790   13.1130   -1.9410 O   0  0  0  0  0  0  0  0  0  0  0  0
   -1.1430   16.8810   -4.9480 O   0  0  0  0  0  0  0  0  0  0  0  0
   -1.5630   18.0640   -5.9550 P   0  0  1  0  0  0  0  0  0  0  0  0
   -0.2730   18.8470   -6.4160 O   0  0  0  0  0  0  0  0  0  0  0  0
   -2.5390   17.6940   -7.0060 O   0  0  0  0  0  0  0  0  0  0  0  0
   -2.2370   19.1520   -5.0010 O   0  0  0  0  0  0  0  0  0  0  0  0
   -0.1530   19.7020   -7.7310 P   0  0  0  0  0  0  0  0  0  0  0  0
   -1.6120   20.1910   -8.1350 O   0  0  0  0  0  0  0  0  0  0  0  0
    0.8690   20.7720   -7.7740 O   0  0  0  0  0  0  0  0  0  0  0  0
    0.0960   18.5840   -8.8430 O   0  0  0  0  0  0  0  0  0  0  0  0
  1  2  1  0
  2  3  1  0
  2  4  2  0
  4  5  1  0
  3  6  2  0
  5  6  1  0
  6  7  1  0
  5  8  1  0
  8  9  1  1
  8 10  1  0
  9 11  1  0
 10 12  1  0
 11 13  2  0
 11 14  1  0
 12 15  1  0
 15 16  1  0
 16 17  1  0
 16 18  2  0
 16 19  1  1
 17 20  1  0
 20 21  1  0
 20 22  2  0
 20 23  1  0
M  END
