x0628_0_A-x0524_0_A
     RDKit          3D

 28 30  0  0  0  0  0  0  0  0999 V2000
   -1.0960    9.3910   -7.4660 C   0  0  2  0  0  0  0  0  0  0  0  0
    0.0080    8.4680   -7.7250 N   0  0  0  0  0  0  0  0  0  0  0  0
    0.8490    8.5720   -8.8420 C   0  0  0  0  0  0  0  0  0  0  0  0
   -2.3140    8.5610   -7.0180 C   0  0  0  0  0  0  0  0  0  0  0  0
   -1.4750   10.0000   -8.6890 O   0  0  0  0  0  0  0  0  0  0  0  0
   -0.9400   10.5050   -6.4540 C   0  0  0  0  0  0  0  0  0  0  0  0
   -1.8400   10.7040   -5.4470 N   0  0  0  0  0  0  0  0  0  0  0  0
    0.0790   11.3750   -6.4970 N   0  0  0  0  0  0  0  0  0  0  0  0
   -0.2190   12.1680   -5.4570 N   0  0  0  0  0  0  0  0  0  0  0  0
   -1.3740   11.7590   -4.8280 C   0  0  0  0  0  0  0  0  0  0  0  0
    1.9580    7.7280   -8.8590 C   0  0  0  0  0  0  0  0  0  0  0  0
    0.6930    9.4340   -9.9370 C   0  0  0  0  0  0  0  0  0  0  0  0
   -1.9820   12.4130   -3.6510 C   0  0  0  0  0  0  0  0  0  0  0  0
    0.6550   13.2850   -5.1540 C   0  0  0  0  0  0  0  0  0  0  0  0
    2.8760    7.7360   -9.9090 C   0  0  0  0  0  0  0  0  0  0  0  0
    1.6150    9.4430  -10.9990 C   0  0  0  0  0  0  0  0  0  0  0  0
    1.7010   12.9700   -4.0990 C   0  0  0  0  0  0  0  0  0  0  0  0
    2.7260    8.5900  -10.9970 C   0  0  0  0  0  0  0  0  0  0  0  0
    1.0800   12.2820   -2.9150 C   0  0  0  0  0  0  0  0  0  0  0  0
    3.6480    8.6030  -12.0550 N   0  0  0  0  0  0  0  0  0  0  0  0
    0.5350   11.1910   -2.9050 O   0  0  0  0  0  0  0  0  0  0  0  0
    1.1850   13.0070   -1.7950 O   0  0  0  0  0  0  0  0  0  0  0  0
    3.9450    9.5060  -13.0890 C   0  0  0  0  0  0  0  0  0  0  0  0
    3.1770   10.6660  -13.2640 C   0  0  0  0  0  0  0  0  0  0  0  0
    5.0060    9.2800  -13.9690 C   0  0  0  0  0  0  0  0  0  0  0  0
    3.4630   11.5700  -14.2890 C   0  0  0  0  0  0  0  0  0  0  0  0
    5.2950   10.1810  -14.9960 C   0  0  0  0  0  0  0  0  0  0  0  0
    4.5230   11.3260  -15.1550 C   0  0  0  0  0  0  0  0  0  0  0  0
  1  2  1  0
  2  3  1  0
  1  4  1  1
  1  5  1  0
  1  6  1  0
  6  7  1  0
  6  8  2  0
  8  9  1  0
  7 10  2  0
  9 10  1  0
  3 11  2  0
  3 12  1  0
 10 13  1  0
  9 14  1  0
 11 15  1  0
 12 16  2  0
 14 17  1  0
 15 18  2  0
 16 18  1  0
 17 19  1  0
 18 20  1  0
 19 21  2  0
 19 22  1  0
 20 23  1  0
 23 24  2  0
 23 25  1  0
 24 26  1  0
 25 27  2  0
 26 28  2  0
 27 28  1  0
M  END
