x0628_0_A-x0933_0_A
     RDKit          3D

 21 22  0  0  0  0  0  0  0  0999 V2000
   -1.1350    9.0200   -6.9310 C   0  0  0  0  0  0  0  0  0  0  0  0
   -1.0360   10.2970   -6.1900 C   0  0  0  0  0  0  0  0  0  0  0  0
   -2.0180   10.7680   -5.3450 N   0  0  0  0  0  0  0  0  0  0  0  0
    0.0300   11.0860   -6.2960 N   0  0  0  0  0  0  0  0  0  0  0  0
   -0.2910   12.1050   -5.4760 N   0  0  0  0  0  0  0  0  0  0  0  0
   -1.5280   11.9230   -4.8980 C   0  0  0  0  0  0  0  0  0  0  0  0
   -2.1340   12.9290   -3.9400 C   0  0  0  0  0  0  0  0  0  0  0  0
    0.6520   13.1960   -5.3260 C   0  0  0  0  0  0  0  0  0  0  0  0
    1.7000   12.9750   -4.2370 C   0  0  0  0  0  0  0  0  0  0  0  0
   -2.9910   12.4250   -2.7620 C   0  0  0  0  0  0  0  0  0  0  0  0
    1.1100   12.3190   -3.0170 C   0  0  0  0  0  0  0  0  0  0  0  0
   -2.6850   12.9750   -1.3350 C   0  0  0  0  0  0  0  0  0  0  0  0
    0.6260   11.2030   -2.9510 O   0  0  0  0  0  0  0  0  0  0  0  0
    1.1640   13.1070   -1.9340 O   0  0  0  0  0  0  0  0  0  0  0  0
   -2.8900   14.4810   -0.9730 C   0  0  1  0  0  0  0  0  0  0  0  0
   -4.2780   15.0040   -1.4300 C   0  0  0  0  0  0  0  0  0  0  0  0
   -2.7730   14.7310    0.5550 C   0  0  0  0  0  0  0  0  0  0  0  0
   -5.3890   14.7610   -0.4860 N   0  0  0  0  0  0  0  0  0  0  0  0
   -3.9730   14.2810    1.2310 N   0  0  0  0  0  0  0  0  0  0  0  0
   -5.0490   15.0930    0.8540 C   0  0  2  0  0  0  0  0  0  0  0  0
   -6.1230   14.6360    1.6620 N   0  0  0  0  0  0  0  0  0  0  0  0
  1  2  1  0
  2  3  1  0
  2  4  2  0
  4  5  1  0
  3  6  2  0
  5  6  1  0
  6  7  1  0
  5  8  1  0
  8  9  1  0
  7 10  1  0
  9 11  1  0
 10 12  1  0
 11 13  2  0
 11 14  1  0
 15 12  1  1
 15 16  1  0
 15 17  1  0
 16 18  1  0
 17 19  1  0
 18 20  1  0
 19 20  1  0
 20 21  1  1
M  END
