x0628_0_A_α-x0962_0_A_α
     RDKit          3D

 21 22  0  0  0  0  0  0  0  0999 V2000
   -1.0210    8.8660   -7.2210 C   0  0  0  0  0  0  0  0  0  0  0  0
   -0.8840   10.1250   -6.4660 C   0  0  0  0  0  0  0  0  0  0  0  0
   -1.8610   10.6040   -5.6360 N   0  0  0  0  0  0  0  0  0  0  0  0
    0.2110   10.8870   -6.5410 N   0  0  0  0  0  0  0  0  0  0  0  0
   -0.0930   11.9020   -5.7050 N   0  0  0  0  0  0  0  0  0  0  0  0
   -1.3460   11.7270   -5.1660 C   0  0  0  0  0  0  0  0  0  0  0  0
   -1.9820   12.6780   -4.2140 C   0  0  0  0  0  0  0  0  0  0  0  0
    0.8550   12.9860   -5.4860 C   0  0  0  0  0  0  0  0  0  0  0  0
    1.7370   12.9440   -4.2280 C   0  0  0  0  0  0  0  0  0  0  0  0
   -1.4800   14.1070   -4.4920 C   0  0  0  0  0  0  0  0  0  0  0  0
    1.0690   12.2450   -3.0640 C   0  0  0  0  0  0  0  0  0  0  0  0
   -2.4200   15.2330   -4.0930 C   0  0  0  0  0  0  0  0  0  0  0  0
    0.5150   11.1580   -3.0990 O   0  0  0  0  0  0  0  0  0  0  0  0
    1.1570   12.9590   -1.9210 O   0  0  0  0  0  0  0  0  0  0  0  0
   -2.8690   15.1180   -2.7100 C   0  0  0  0  0  0  0  0  0  0  0  0
   -3.3200   15.0900   -1.6110 C   0  0  0  0  0  0  0  0  0  0  0  0
   -4.0130   15.1370   -0.3950 C   0  0  0  0  0  0  0  0  0  0  0  0
   -3.4880   15.4390    0.8250 N   0  0  0  0  0  0  0  0  0  0  0  0
   -5.3450   14.8960   -0.1810 C   0  0  0  0  0  0  0  0  0  0  0  0
   -4.5100   15.3820    1.7200 C   0  0  0  0  0  0  0  0  0  0  0  0
   -5.6460   15.0480    1.1410 N   0  0  0  0  0  0  0  0  0  0  0  0
  1  2  1  0
  2  3  1  0
  2  4  2  0
  4  5  1  0
  3  6  2  0
  5  6  1  0
  6  7  1  0
  5  8  1  0
  8  9  1  0
  7 10  1  0
  9 11  1  0
 10 12  1  0
 11 13  2  0
 11 14  1  0
 12 15  1  0
 15 16  3  0
 16 17  1  0
 17 18  1  0
 17 19  2  0
 18 20  1  0
 19 21  1  0
 20 21  2  0
M  END
