x0628_0_A-x0844_0_A
     RDKit          3D

 22 23  0  0  0  0  0  0  0  0999 V2000
   -0.8640    9.0650   -7.2620 C   0  0  0  0  0  0  0  0  0  0  0  0
   -0.8750   10.2720   -6.4140 C   0  0  0  0  0  0  0  0  0  0  0  0
   -1.8970   10.5700   -5.5470 N   0  0  0  0  0  0  0  0  0  0  0  0
    0.1200   11.1620   -6.4310 N   0  0  0  0  0  0  0  0  0  0  0  0
   -0.2990   12.0650   -5.5190 N   0  0  0  0  0  0  0  0  0  0  0  0
   -1.5210   11.7050   -4.9860 C   0  0  0  0  0  0  0  0  0  0  0  0
   -2.2990   12.4570   -3.9500 C   0  0  0  0  0  0  0  0  0  0  0  0
    0.5390   13.2150   -5.2470 C   0  0  0  0  0  0  0  0  0  0  0  0
    1.6450   12.9300   -4.2360 C   0  0  0  0  0  0  0  0  0  0  0  0
   -2.2240   13.9850   -4.0760 C   0  0  0  0  0  0  0  0  0  0  0  0
    1.0990   12.2450   -3.0160 C   0  0  0  0  0  0  0  0  0  0  0  0
   -3.4680   14.7140   -3.5420 C   0  0  0  0  0  0  0  0  0  0  0  0
    0.5740   11.1440   -2.9600 O   0  0  0  0  0  0  0  0  0  0  0  0
    1.2450   12.9800   -1.9000 O   0  0  0  0  0  0  0  0  0  0  0  0
   -3.2130   15.2230   -2.2240 O   0  0  0  0  0  0  0  0  0  0  0  0
   -4.0780   14.6950   -1.2020 C   0  0  1  0  0  0  0  0  0  0  0  0
   -3.5280   15.0810    0.1300 C   0  0  0  0  0  0  0  0  0  0  0  0
   -5.5250   15.1670   -1.3500 C   0  0  0  0  0  0  0  0  0  0  0  0
   -4.3240   15.1340    1.2000 C   0  0  0  0  0  0  0  0  0  0  0  0
   -6.3430   14.9000   -0.1070 C   0  0  0  0  0  0  0  0  0  0  0  0
   -7.5670   14.7570   -0.1300 O   0  0  0  0  0  0  0  0  0  0  0  0
   -5.6500   14.8290    1.0770 N   0  0  0  0  0  0  0  0  0  0  0  0
  1  2  1  0
  2  3  1  0
  2  4  2  0
  4  5  1  0
  3  6  2  0
  5  6  1  0
  6  7  1  0
  5  8  1  0
  8  9  1  0
  7 10  1  0
  9 11  1  0
 10 12  1  0
 11 13  2  0
 11 14  1  0
 12 15  1  0
 16 15  1  6
 16 17  1  0
 16 18  1  0
 17 19  2  0
 18 20  1  0
 20 21  2  0
 19 22  1  0
 20 22  1  0
M  END
