x0628_0_A_α-x0895_1_A_α
     RDKit          3D

 22 23  0  0  0  0  0  0  0  0999 V2000
   -0.7910    9.0750   -7.3420 C   0  0  0  0  0  0  0  0  0  0  0  0
   -0.8090   10.2420   -6.4380 C   0  0  0  0  0  0  0  0  0  0  0  0
   -1.8390   10.4920   -5.5710 N   0  0  0  0  0  0  0  0  0  0  0  0
    0.1860   11.1380   -6.4010 N   0  0  0  0  0  0  0  0  0  0  0  0
   -0.2470   11.9870   -5.4540 N   0  0  0  0  0  0  0  0  0  0  0  0
   -1.4660   11.6000   -4.9560 C   0  0  0  0  0  0  0  0  0  0  0  0
   -2.2160   12.3240   -3.9030 C   0  0  0  0  0  0  0  0  0  0  0  0
    0.5650   13.1410   -5.0910 C   0  0  0  0  0  0  0  0  0  0  0  0
    1.5200   12.8740   -3.9280 C   0  0  0  0  0  0  0  0  0  0  0  0
    0.8600   12.0410   -2.8530 C   0  0  0  0  0  0  0  0  0  0  0  0
    0.2660   11.0000   -3.0740 O   0  0  0  0  0  0  0  0  0  0  0  0
    1.0270   12.5670   -1.6020 O   0  0  0  0  0  0  0  0  0  0  0  0
    0.3850   13.8130   -1.2960 C   0  0  0  0  0  0  0  0  0  0  0  0
   -0.1970   13.6660    0.1040 C   0  0  0  0  0  0  0  0  0  0  0  0
   -0.4300   14.9370    0.8750 C   0  0  0  0  0  0  0  0  0  0  0  0
   -1.7040   14.7940    1.5750 N   0  0  0  0  0  0  0  0  0  0  0  0
   -2.7670   14.7050    0.8520 C   0  0  0  0  0  0  0  0  0  0  0  0
   -2.9610   14.6750   -0.6540 C   0  0  0  0  0  0  0  0  0  0  0  0
   -3.9840   14.6090    1.4240 N   0  0  0  0  0  0  0  0  0  0  0  0
   -4.3340   15.0880   -0.6960 N   0  0  0  0  0  0  0  0  0  0  0  0
   -4.9500   14.8260    0.5040 C   0  0  0  0  0  0  0  0  0  0  0  0
   -6.1540   14.7950    0.6860 O   0  0  0  0  0  0  0  0  0  0  0  0
  1  2  1  0
  2  3  1  0
  2  4  2  0
  4  5  1  0
  3  6  2  0
  5  6  1  0
  6  7  1  0
  5  8  1  0
  8  9  1  0
  9 10  1  0
 10 11  2  0
 10 12  1  0
 12 13  1  0
 13 14  1  0
 14 15  1  0
 15 16  1  0
 16 17  2  3
 17 18  1  0
 17 19  1  0
 18 20  1  0
 19 21  1  0
 20 21  1  0
 21 22  2  0
M  END
