x0626_0_A-x0592_0_A
     RDKit          3D

 20 21  0  0  0  0  0  0  0  0999 V2000
   -4.7150   15.2650    1.9310 N   0  0  0  0  0  0  0  0  0  0  0  0
   -5.8210   15.0590    1.1780 C   0  0  0  0  0  0  0  0  0  0  0  0
   -5.9580   15.4650    0.0170 O   0  0  0  0  0  0  0  0  0  0  0  0
   -3.4830   15.2360    1.3420 C   0  0  0  0  0  0  0  0  0  0  0  0
   -7.0210   14.2610    1.7700 C   0  0  2  0  0  0  0  0  0  0  0  0
   -2.3370   14.8100    1.8100 N   0  0  0  0  0  0  0  0  0  0  0  0
   -3.4630   15.8530   -0.2430 S   0  0  0  0  0  0  0  0  0  0  0  0
   -7.7870   13.6360    0.6350 C   0  0  0  0  0  0  0  0  0  0  0  0
   -7.8550   15.0740    2.6160 O   0  0  0  0  0  0  0  0  0  0  0  0
   -1.7890   15.5330   -0.3370 C   0  0  0  0  0  0  0  0  0  0  0  0
   -1.3660   14.9750    0.8480 C   0  0  0  0  0  0  0  0  0  0  0  0
   -0.0110   14.5460    1.1800 C   0  0  0  0  0  0  0  0  0  0  0  0
   -6.8010   13.8320   -0.3850 N   0  0  0  0  0  0  0  0  0  0  0  0
   -7.0820   14.3370   -1.6040 N   0  0  0  0  0  0  0  0  0  0  0  0
   -5.4930   13.5520   -0.1860 C   0  0  0  0  0  0  0  0  0  0  0  0
   -4.8280   13.9020   -1.3290 C   0  0  0  0  0  0  0  0  0  0  0  0
   -5.8630   14.3800   -2.1780 C   0  0  0  0  0  0  0  0  0  0  0  0
   -3.3990   13.7690   -1.4890 C   0  0  0  0  0  0  0  0  0  0  0  0
   -2.7250   13.3340   -0.3840 N   0  0  0  0  0  0  0  0  0  0  0  0
   -2.7900   14.0360   -2.5160 O   0  0  0  0  0  0  0  0  0  0  0  0
  1  2  1  0
  2  3  2  0
  1  4  1  0
  2  5  1  0
  4  6  2  0
  4  7  1  0
  5  8  1  0
  5  9  1  6
  7 10  1  0
  6 11  1  0
 10 11  2  0
 11 12  1  0
  8 13  1  0
 13 14  1  0
 13 15  1  0
 15 16  2  0
 14 17  2  0
 16 17  1  0
 16 18  1  0
 18 19  1  0
 18 20  2  0
M  END
