x0628_0_A-x0910_0_A
     RDKit          3D

 20 21  0  0  0  0  0  0  0  0999 V2000
   -0.9180    9.0450   -7.2860 C   0  0  0  0  0  0  0  0  0  0  0  0
   -0.9120   10.2340   -6.4180 C   0  0  0  0  0  0  0  0  0  0  0  0
   -1.8760   10.4800   -5.4760 N   0  0  0  0  0  0  0  0  0  0  0  0
    0.0410   11.1590   -6.4900 N   0  0  0  0  0  0  0  0  0  0  0  0
   -0.3390   12.0340   -5.5380 N   0  0  0  0  0  0  0  0  0  0  0  0
   -1.4960   11.6250   -4.9230 C   0  0  0  0  0  0  0  0  0  0  0  0
   -2.2160   12.3380   -3.8150 C   0  0  0  0  0  0  0  0  0  0  0  0
    0.4810   13.2100   -5.3140 C   0  0  0  0  0  0  0  0  0  0  0  0
    1.6540   12.9640   -4.3740 C   0  0  0  0  0  0  0  0  0  0  0  0
   -2.6330   13.7780   -4.1660 C   0  0  0  0  0  0  0  0  0  0  0  0
    1.2450   12.2420   -3.1180 C   0  0  0  0  0  0  0  0  0  0  0  0
   -2.2610   14.8380   -3.1160 C   0  0  0  0  0  0  0  0  0  0  0  0
    0.5700   11.2270   -3.0170 O   0  0  0  0  0  0  0  0  0  0  0  0
    1.7250   12.8570   -2.0300 O   0  0  0  0  0  0  0  0  0  0  0  0
   -2.6560   14.4530   -1.7640 N   0  0  0  0  0  0  0  0  0  0  0  0
   -1.8220   14.6500   -0.7190 C   0  0  0  0  0  0  0  0  0  0  0  0
   -2.2830   14.7090    0.5730 N   0  0  0  0  0  0  0  0  0  0  0  0
   -0.5200   14.8180   -0.7050 N   0  0  0  0  0  0  0  0  0  0  0  0
   -1.2770   14.9150    1.4400 N   0  0  0  0  0  0  0  0  0  0  0  0
   -0.2320   14.9780    0.6190 C   0  0  0  0  0  0  0  0  0  0  0  0
  1  2  1  0
  2  3  1  0
  2  4  2  0
  4  5  1  0
  3  6  2  0
  5  6  1  0
  6  7  1  0
  5  8  1  0
  8  9  1  0
  7 10  1  0
  9 11  1  0
 10 12  1  0
 11 13  2  0
 11 14  1  0
 12 15  1  0
 15 16  1  0
 16 17  1  0
 16 18  2  0
 17 19  1  0
 18 20  1  0
 19 20  2  0
M  END
