x0628_0_A-x0722_0_A
     RDKit          3D

 26 27  0  0  0  0  0  0  0  0999 V2000
   -0.8470    9.0020   -7.3870 C   0  0  0  0  0  0  0  0  0  0  0  0
   -0.8430   10.1950   -6.5200 C   0  0  0  0  0  0  0  0  0  0  0  0
   -1.8490   10.4630   -5.6330 N   0  0  0  0  0  0  0  0  0  0  0  0
    0.1460   11.0960   -6.5390 N   0  0  0  0  0  0  0  0  0  0  0  0
   -0.2690   11.9820   -5.5980 N   0  0  0  0  0  0  0  0  0  0  0  0
   -1.4770   11.5890   -5.0570 C   0  0  0  0  0  0  0  0  0  0  0  0
   -2.2460   12.3040   -3.9950 C   0  0  0  0  0  0  0  0  0  0  0  0
    0.5580   13.1420   -5.3070 C   0  0  0  0  0  0  0  0  0  0  0  0
    1.6440   12.9220   -4.2620 C   0  0  0  0  0  0  0  0  0  0  0  0
   -2.3660   13.8100   -4.2330 C   0  0  0  0  0  0  0  0  0  0  0  0
    1.1040   12.2240   -3.0380 C   0  0  0  0  0  0  0  0  0  0  0  0
   -2.7750   14.5130   -2.9320 C   0  0  0  0  0  0  0  0  0  0  0  0
    0.5710   11.1240   -3.0530 O   0  0  0  0  0  0  0  0  0  0  0  0
    1.2640   12.9200   -1.8990 O   0  0  0  0  0  0  0  0  0  0  0  0
   -1.7840   14.2880   -1.7820 C   0  0  0  0  0  0  0  0  0  0  0  0
   -2.3150   14.6680   -0.4380 C   0  0  0  0  0  0  0  0  0  0  0  0
   -3.5530   15.1890   -0.0620 C   0  0  0  0  0  0  0  0  0  0  0  0
   -1.5870   14.5560    0.7260 N   0  0  0  0  0  0  0  0  0  0  0  0
   -0.2440   14.0930    0.9570 C   0  0  0  0  0  0  0  0  0  0  0  0
   -4.7580   15.5410   -0.8880 C   0  0  0  0  0  0  0  0  0  0  0  0
   -2.2510   14.9520    1.7920 N   0  0  0  0  0  0  0  0  0  0  0  0
   -3.4210   15.3420    1.3340 C   0  0  0  0  0  0  0  0  0  0  0  0
   -4.3740   15.8710    2.2910 C   0  0  0  0  0  0  0  0  0  0  0  0
   -5.9930   14.7040   -0.5860 C   0  0  0  0  0  0  0  0  0  0  0  0
   -7.1450   15.0840   -0.7720 O   0  0  0  0  0  0  0  0  0  0  0  0
   -5.7660   13.4600   -0.0690 N   0  0  0  0  0  0  0  0  0  0  0  0
  1  2  1  0
  2  3  1  0
  2  4  2  0
  4  5  1  0
  3  6  2  0
  5  6  1  0
  6  7  1  0
  5  8  1  0
  8  9  1  0
  7 10  1  0
  9 11  1  0
 10 12  1  0
 11 13  2  0
 11 14  1  0
 12 15  1  0
 15 16  1  0
 16 17  2  0
 16 18  1  0
 18 19  1  0
 17 20  1  0
 18 21  1  0
 17 22  1  0
 21 22  2  0
 22 23  1  0
 20 24  1  0
 24 25  2  0
 24 26  1  0
M  END
