x0628_0_A-x0910_1_A
     RDKit          3D

 21 22  0  0  0  0  0  0  0  0999 V2000
   -1.1550    9.0180   -6.9980 C   0  0  0  0  0  0  0  0  0  0  0  0
   -1.0700   10.2950   -6.2600 C   0  0  0  0  0  0  0  0  0  0  0  0
   -2.0740   10.7700   -5.4430 N   0  0  0  0  0  0  0  0  0  0  0  0
    0.0010   11.0810   -6.3380 N   0  0  0  0  0  0  0  0  0  0  0  0
   -0.3380   12.0990   -5.5310 N   0  0  0  0  0  0  0  0  0  0  0  0
   -1.5910   11.9230   -4.9860 C   0  0  0  0  0  0  0  0  0  0  0  0
   -2.2440   12.9060   -4.0450 C   0  0  0  0  0  0  0  0  0  0  0  0
    0.6060   13.1840   -5.3550 C   0  0  0  0  0  0  0  0  0  0  0  0
    1.6290   12.9640   -4.2400 C   0  0  0  0  0  0  0  0  0  0  0  0
   -3.5920   12.4970   -3.4140 C   0  0  0  0  0  0  0  0  0  0  0  0
    1.0720   12.3120   -3.0010 C   0  0  0  0  0  0  0  0  0  0  0  0
   -4.6940   13.5950   -3.3050 C   0  0  0  0  0  0  0  0  0  0  0  0
    0.6350   11.1770   -2.9020 O   0  0  0  0  0  0  0  0  0  0  0  0
    1.0900   13.1150   -1.9270 O   0  0  0  0  0  0  0  0  0  0  0  0
   -4.4220   14.8210   -2.4030 C   0  0  0  0  0  0  0  0  0  0  0  0
   -5.0650   14.8510   -1.0970 N   0  0  0  0  0  0  0  0  0  0  0  0
   -6.3460   14.4500   -0.9240 N   0  0  0  0  0  0  0  0  0  0  0  0
   -4.5220   15.2510    0.0830 C   0  0  0  0  0  0  0  0  0  0  0  0
   -6.5010   14.6230    0.3890 C   0  0  0  0  0  0  0  0  0  0  0  0
   -5.4110   15.1100    1.0340 N   0  0  0  0  0  0  0  0  0  0  0  0
   -7.5940   14.3670    1.0990 N   0  0  0  0  0  0  0  0  0  0  0  0
  1  2  1  0
  2  3  1  0
  2  4  2  0
  4  5  1  0
  3  6  2  0
  5  6  1  0
  6  7  1  0
  5  8  1  0
  8  9  1  0
  7 10  1  0
  9 11  1  0
 10 12  1  0
 11 13  2  0
 11 14  1  0
 12 15  1  0
 15 16  1  0
 16 17  1  0
 16 18  1  0
 17 19  2  0
 18 20  2  0
 19 20  1  0
 19 21  1  0
M  END
