x0628_0_A_α-x0591_0_A_α
     RDKit          3D

 25 26  0  0  0  0  0  0  0  0999 V2000
   -0.8180    9.0160   -7.4020 C   0  0  0  0  0  0  0  0  0  0  0  0
   -0.7200   10.2640   -6.6270 C   0  0  0  0  0  0  0  0  0  0  0  0
   -1.7430   10.7420   -5.8660 N   0  0  0  0  0  0  0  0  0  0  0  0
    0.3790   11.0180   -6.6090 N   0  0  0  0  0  0  0  0  0  0  0  0
    0.0260   12.0220   -5.7840 N   0  0  0  0  0  0  0  0  0  0  0  0
   -1.2500   11.8550   -5.3450 C   0  0  0  0  0  0  0  0  0  0  0  0
   -2.0630   12.6200   -4.4840 C   0  0  0  0  0  0  0  0  0  0  0  0
    0.9710   13.0790   -5.4900 C   0  0  0  0  0  0  0  0  0  0  0  0
    1.8370   12.9470   -4.2260 C   0  0  0  0  0  0  0  0  0  0  0  0
   -2.5540   14.2550   -4.6750 S   0  0  1  0  0  0  0  0  0  0  0  0
    1.1360   12.2430   -3.0880 C   0  0  0  0  0  0  0  0  0  0  0  0
   -1.2920   15.3330   -4.4320 N   0  0  0  0  0  0  0  0  0  0  0  0
   -2.9270   14.6500   -6.2220 O   0  0  0  0  0  0  0  0  0  0  0  0
   -3.6520   14.5190   -3.4070 C   0  0  0  0  0  0  0  0  0  0  0  0
    0.5570   11.1690   -3.1040 O   0  0  0  0  0  0  0  0  0  0  0  0
    1.2140   12.9470   -1.9460 O   0  0  0  0  0  0  0  0  0  0  0  0
   -3.2080   14.3970   -2.0980 C   0  0  0  0  0  0  0  0  0  0  0  0
   -4.9610   14.8130   -3.7100 C   0  0  0  0  0  0  0  0  0  0  0  0
   -4.1190   14.5610   -1.0660 C   0  0  0  0  0  0  0  0  0  0  0  0
   -5.8730   14.9800   -2.6820 C   0  0  0  0  0  0  0  0  0  0  0  0
   -5.4530   14.8440   -1.3630 C   0  0  0  0  0  0  0  0  0  0  0  0
   -6.4090   14.9810   -0.2510 C   0  0  0  0  0  0  0  0  0  0  0  0
   -5.9290   14.7210    1.0070 N   0  0  0  0  0  0  0  0  0  0  0  0
   -7.5710   15.2890   -0.4880 O   0  0  0  0  0  0  0  0  0  0  0  0
   -6.8510   14.5280    2.0980 C   0  0  0  0  0  0  0  0  0  0  0  0
  1  2  1  0
  2  3  1  0
  2  4  2  0
  4  5  1  0
  3  6  2  0
  5  6  1  0
  6  7  1  0
  5  8  1  0
  8  9  1  0
  7 10  2  0
  9 11  1  0
 10 12  1  1
 10 13  2  0
 10 14  1  0
 11 15  2  0
 11 16  1  0
 14 17  2  0
 14 18  1  0
 17 19  1  0
 18 20  2  0
 19 21  2  0
 20 21  1  0
 21 22  1  0
 22 23  1  0
 22 24  2  0
 23 25  1  0
M  END
