x0626_0_A-x0685_1_A
     RDKit          3D

 26 27  0  0  0  0  0  0  0  0999 V2000
   -4.9660   14.9370    1.4530 N   0  0  0  0  0  0  0  0  0  0  0  0
   -6.1370   14.7140    0.7940 C   0  0  0  0  0  0  0  0  0  0  0  0
   -6.1690   14.8350   -0.4350 O   0  0  0  0  0  0  0  0  0  0  0  0
   -3.7350   14.8100    0.9050 C   0  0  0  0  0  0  0  0  0  0  0  0
   -7.3680   14.3340    1.5900 C   0  0  0  0  0  0  0  0  0  0  0  0
   -2.5700   14.6300    1.4970 N   0  0  0  0  0  0  0  0  0  0  0  0
   -3.7480   14.8940   -0.7990 S   0  0  0  0  0  0  0  0  0  0  0  0
   -8.6540   14.6520    0.8450 C   0  0  0  0  0  0  0  0  0  0  0  0
   -2.0620   14.6530   -0.7800 C   0  0  0  0  0  0  0  0  0  0  0  0
   -1.6140   14.5350    0.5190 C   0  0  0  0  0  0  0  0  0  0  0  0
   -0.2060   14.3240    0.8850 C   0  0  0  0  0  0  0  0  0  0  0  0
    0.6460   14.9900   -0.1710 C   0  0  0  0  0  0  0  0  0  0  0  0
    1.1840   14.0780   -1.2580 C   0  0  0  0  0  0  0  0  0  0  0  0
    0.3820   12.9070   -1.3840 O   0  0  0  0  0  0  0  0  0  0  0  0
    0.7000   12.0260   -2.6870 S   0  0  0  0  0  0  0  0  0  0  0  0
   -0.2060   12.7090   -4.0730 C   0  0  0  0  0  0  0  0  0  0  0  0
    2.2380   12.1780   -3.1160 O   0  0  0  0  0  0  0  0  0  0  0  0
    0.2760   10.4770   -2.5180 O   0  0  0  0  0  0  0  0  0  0  0  0
   -1.5000   11.9570   -4.3810 C   0  0  0  0  0  0  0  0  0  0  0  0
   -1.3470   10.5580   -4.8400 N   0  0  0  0  0  0  0  0  0  0  0  0
   -0.7340   10.3890   -6.1730 C   0  0  0  0  0  0  0  0  0  0  0  0
   -0.5320    8.8880   -6.4140 C   0  0  0  0  0  0  0  0  0  0  0  0
   -1.5760   10.9960   -7.3160 C   0  0  0  0  0  0  0  0  0  0  0  0
    0.0960    8.6330   -7.7850 C   0  0  0  0  0  0  0  0  0  0  0  0
   -1.0250   10.6980   -8.7170 C   0  0  0  0  0  0  0  0  0  0  0  0
   -0.7340    9.2160   -8.9300 C   0  0  0  0  0  0  0  0  0  0  0  0
  1  2  1  0
  2  3  2  0
  1  4  1  0
  2  5  1  0
  4  6  2  0
  4  7  1  0
  5  8  1  0
  7  9  1  0
  6 10  1  0
  9 10  2  0
 10 11  1  0
 11 12  1  0
 12 13  1  0
 13 14  1  0
 15 14  1  0
 15 16  1  0
 15 17  1  0
 15 18  1  0
 16 19  1  0
 19 20  1  0
 20 21  1  0
 21 22  1  0
 21 23  1  0
 22 24  1  0
 23 25  1  0
 24 26  1  0
 25 26  1  0
M  END
