x0628_0_A-x0524_0_A
     RDKit          3D

 28 30  0  0  0  0  0  0  0  0999 V2000
   -1.1010    9.3870   -7.4640 C   0  0  2  0  0  0  0  0  0  0  0  0
    0.0050    8.4650   -7.7250 N   0  0  0  0  0  0  0  0  0  0  0  0
    0.8470    8.5700   -8.8420 C   0  0  0  0  0  0  0  0  0  0  0  0
   -2.3160    8.5560   -7.0160 C   0  0  0  0  0  0  0  0  0  0  0  0
   -1.4820    9.9910   -8.6910 O   0  0  0  0  0  0  0  0  0  0  0  0
   -0.9440   10.5040   -6.4600 C   0  0  0  0  0  0  0  0  0  0  0  0
   -1.8440   10.7060   -5.4490 N   0  0  0  0  0  0  0  0  0  0  0  0
    0.0720   11.3740   -6.5070 N   0  0  0  0  0  0  0  0  0  0  0  0
   -0.2230   12.1700   -5.4680 N   0  0  0  0  0  0  0  0  0  0  0  0
   -1.3740   11.7620   -4.8360 C   0  0  0  0  0  0  0  0  0  0  0  0
    1.9580    7.7300   -8.8590 C   0  0  0  0  0  0  0  0  0  0  0  0
    0.6890    9.4310   -9.9400 C   0  0  0  0  0  0  0  0  0  0  0  0
   -1.9810   12.4200   -3.6580 C   0  0  0  0  0  0  0  0  0  0  0  0
    0.6550   13.2870   -5.1760 C   0  0  0  0  0  0  0  0  0  0  0  0
    2.8770    7.7380   -9.9070 C   0  0  0  0  0  0  0  0  0  0  0  0
    1.6130    9.4410  -10.9990 C   0  0  0  0  0  0  0  0  0  0  0  0
    1.6940   12.9730   -4.1170 C   0  0  0  0  0  0  0  0  0  0  0  0
    2.7250    8.5910  -10.9970 C   0  0  0  0  0  0  0  0  0  0  0  0
    1.0590   12.3150   -2.9260 C   0  0  0  0  0  0  0  0  0  0  0  0
    3.6470    8.6020  -12.0550 N   0  0  0  0  0  0  0  0  0  0  0  0
    0.5680   11.1990   -2.8810 O   0  0  0  0  0  0  0  0  0  0  0  0
    1.0770   13.1060   -1.8440 O   0  0  0  0  0  0  0  0  0  0  0  0
    3.9450    9.5060  -13.0900 C   0  0  0  0  0  0  0  0  0  0  0  0
    3.1760   10.6660  -13.2640 C   0  0  0  0  0  0  0  0  0  0  0  0
    5.0040    9.2810  -13.9710 C   0  0  0  0  0  0  0  0  0  0  0  0
    3.4630   11.5690  -14.2890 C   0  0  0  0  0  0  0  0  0  0  0  0
    5.2940   10.1800  -14.9960 C   0  0  0  0  0  0  0  0  0  0  0  0
    4.5220   11.3260  -15.1560 C   0  0  0  0  0  0  0  0  0  0  0  0
  1  2  1  0
  2  3  1  0
  1  4  1  1
  1  5  1  0
  1  6  1  0
  6  7  1  0
  6  8  2  0
  8  9  1  0
  7 10  2  0
  9 10  1  0
  3 11  2  0
  3 12  1  0
 10 13  1  0
  9 14  1  0
 11 15  1  0
 12 16  2  0
 14 17  1  0
 15 18  2  0
 16 18  1  0
 17 19  1  0
 18 20  1  0
 19 21  2  0
 19 22  1  0
 20 23  1  0
 23 24  2  0
 23 25  1  0
 24 26  1  0
 25 27  2  0
 26 28  2  0
 27 28  1  0
M  END
