x0626_0_A-x0681_0_A
     RDKit          3D

 23 25  0  0  0  0  0  0  0  0999 V2000
   -4.8970   15.4140    1.9340 N   0  0  0  0  0  0  0  0  0  0  0  0
   -6.0910   14.6400    1.5370 C   0  0  2  0  0  0  0  0  0  0  0  0
   -6.4550   15.1410    0.2400 O   0  0  0  0  0  0  0  0  0  0  0  0
   -3.7210   15.2210    1.2790 C   0  0  0  0  0  0  0  0  0  0  0  0
   -7.3290   14.8130    2.4640 C   0  0  0  0  0  0  0  0  0  0  0  0
   -2.5550   14.8750    1.8280 N   0  0  0  0  0  0  0  0  0  0  0  0
   -3.6670   15.3980   -0.4350 S   0  0  0  0  0  0  0  0  0  0  0  0
   -5.6990   13.1630    1.3910 C   0  0  1  0  0  0  0  0  0  0  0  0
   -8.6610   15.1710    1.8140 C   0  0  0  0  0  0  0  0  0  0  0  0
   -2.0030   14.9500   -0.4240 C   0  0  0  0  0  0  0  0  0  0  0  0
   -1.5740   14.7170    0.8670 C   0  0  0  0  0  0  0  0  0  0  0  0
   -6.1700   12.5060    0.1720 N   0  0  0  0  0  0  0  0  0  0  0  0
   -4.2050   13.0500    1.4850 C   0  0  0  0  0  0  0  0  0  0  0  0
   -0.2150   14.3250    1.2800 C   0  0  0  0  0  0  0  0  0  0  0  0
   -5.4210   12.2790   -0.9600 C   0  0  0  0  0  0  0  0  0  0  0  0
   -3.4460   13.3200    0.1820 C   0  0  0  0  0  0  0  0  0  0  0  0
   -7.4140   12.0110   -0.0420 C   0  0  0  0  0  0  0  0  0  0  0  0
   -3.9900   12.6830   -1.0900 C   0  0  2  0  0  0  0  0  0  0  0  0
   -6.1420   11.6660   -1.8720 N   0  0  0  0  0  0  0  0  0  0  0  0
   -7.3800   11.4960   -1.3110 C   0  0  0  0  0  0  0  0  0  0  0  0
   -3.7430   13.6320   -2.2760 C   0  0  0  0  0  0  0  0  0  0  0  0
   -4.7990   14.3240   -2.8070 N   0  0  0  0  0  0  0  0  0  0  0  0
   -2.6220   13.7910   -2.7670 O   0  0  0  0  0  0  0  0  0  0  0  0
  1  2  1  0
  2  3  1  6
  1  4  1  0
  2  5  1  0
  4  6  2  0
  4  7  1  0
  2  8  1  0
  5  9  1  0
  7 10  1  0
  6 11  1  0
 10 11  2  0
  8 12  1  0
  8 13  1  6
 11 14  1  0
 12 15  1  0
 13 16  1  0
 12 17  1  0
 15 18  1  0
 16 18  1  0
 15 19  2  0
 17 20  2  0
 19 20  1  0
 18 21  1  6
 21 22  1  0
 21 23  2  0
M  END
