x0626_0_A-x0910_1_A
     RDKit          3D

 16 17  0  0  0  0  0  0  0  0999 V2000
   -4.8650   14.3300    1.6070 N   0  0  0  0  0  0  0  0  0  0  0  0
   -5.8670   13.6220    1.0110 C   0  0  0  0  0  0  0  0  0  0  0  0
   -5.4890   12.6700    0.3420 O   0  0  0  0  0  0  0  0  0  0  0  0
   -3.6060   14.4450    1.0800 C   0  0  0  0  0  0  0  0  0  0  0  0
   -7.3230   14.0230    0.9750 C   0  0  1  0  0  0  0  0  0  0  0  0
   -2.4360   14.4890    1.6860 N   0  0  0  0  0  0  0  0  0  0  0  0
   -3.5590   14.5300   -0.6300 S   0  0  0  0  0  0  0  0  0  0  0  0
   -7.9010   14.6900    2.2120 C   0  0  0  0  0  0  0  0  0  0  0  0
   -1.8640   14.6200   -0.5780 C   0  0  0  0  0  0  0  0  0  0  0  0
   -1.4440   14.5820    0.7280 C   0  0  0  0  0  0  0  0  0  0  0  0
   -6.9870   14.8920   -0.1090 C   0  0  0  0  0  0  0  0  0  0  0  0
   -0.0480   14.6230    1.1520 C   0  0  0  0  0  0  0  0  0  0  0  0
   -7.7000   15.3110   -1.1330 N   0  0  0  0  0  0  0  0  0  0  0  0
   -5.6980   15.3220   -0.0510 N   0  0  0  0  0  0  0  0  0  0  0  0
   -6.7790   16.0550   -1.7680 N   0  0  0  0  0  0  0  0  0  0  0  0
   -5.5920   16.0400   -1.1000 C   0  0  0  0  0  0  0  0  0  0  0  0
  1  2  1  0
  2  3  2  0
  1  4  1  0
  2  5  1  0
  4  6  2  0
  4  7  1  0
  5  8  1  1
  7  9  1  0
  6 10  1  0
  9 10  2  0
  5 11  1  0
 10 12  1  0
 11 13  2  0
 11 14  1  0
 13 15  1  0
 14 16  2  0
 15 16  1  0
M  END
