x0628_0_A-x0689_0_A
     RDKit          3D

 21 22  0  0  0  0  0  0  0  0999 V2000
   -0.8660    8.9080   -7.2590 C   0  0  0  0  0  0  0  0  0  0  0  0
   -0.8590   10.1450   -6.4580 C   0  0  0  0  0  0  0  0  0  0  0  0
   -1.8350   10.4390   -5.5470 N   0  0  0  0  0  0  0  0  0  0  0  0
    0.1010   11.0660   -6.5650 N   0  0  0  0  0  0  0  0  0  0  0  0
   -0.2950   11.9830   -5.6700 N   0  0  0  0  0  0  0  0  0  0  0  0
   -1.4630   11.6060   -5.0540 C   0  0  0  0  0  0  0  0  0  0  0  0
   -2.1760   12.3840   -4.0160 C   0  0  0  0  0  0  0  0  0  0  0  0
    0.5150   13.1720   -5.4870 C   0  0  0  0  0  0  0  0  0  0  0  0
    1.6150   12.9710   -4.4630 C   0  0  0  0  0  0  0  0  0  0  0  0
    0.9770   12.5680   -3.1710 C   0  0  0  0  0  0  0  0  0  0  0  0
    0.8030   11.4070   -2.7980 O   0  0  0  0  0  0  0  0  0  0  0  0
    0.6190   13.6840   -2.4930 O   0  0  0  0  0  0  0  0  0  0  0  0
    0.8240   13.5790   -1.1060 C   0  0  0  0  0  0  0  0  0  0  0  0
   -0.3520   14.0800   -0.3600 C   0  0  0  0  0  0  0  0  0  0  0  0
   -1.4900   14.4860   -0.9960 C   0  0  0  0  0  0  0  0  0  0  0  0
   -0.3990   14.1650    1.0180 C   0  0  0  0  0  0  0  0  0  0  0  0
   -2.5750   14.9320   -0.3520 N   0  0  0  0  0  0  0  0  0  0  0  0
   -1.4560   14.6040    1.7130 N   0  0  0  0  0  0  0  0  0  0  0  0
   -2.5140   14.9770    0.9840 C   0  0  0  0  0  0  0  0  0  0  0  0
   -3.5950   15.4350    1.7000 N   0  0  0  0  0  0  0  0  0  0  0  0
   -4.8620   15.0170    1.1610 C   0  0  0  0  0  0  0  0  0  0  0  0
  1  2  1  0
  2  3  1  0
  2  4  2  0
  4  5  1  0
  3  6  2  0
  5  6  1  0
  6  7  1  0
  5  8  1  0
  8  9  1  0
  9 10  1  0
 10 11  2  0
 10 12  1  0
 12 13  1  0
 13 14  1  0
 14 15  2  0
 14 16  1  0
 15 17  1  0
 16 18  2  0
 17 19  2  0
 18 19  1  0
 19 20  1  0
 20 21  1  0
M  END
