x0626_0_A-x1012_0_A
     RDKit          3D

 25 26  0  0  0  0  0  0  0  0999 V2000
   -5.1500   14.8780    1.4660 N   0  0  0  0  0  0  0  0  0  0  0  0
   -6.3030   14.6650    0.7900 C   0  0  0  0  0  0  0  0  0  0  0  0
   -6.3040   14.7810   -0.4400 O   0  0  0  0  0  0  0  0  0  0  0  0
   -3.9210   14.8930    0.9220 C   0  0  0  0  0  0  0  0  0  0  0  0
   -7.5520   14.3030    1.5650 C   0  0  0  0  0  0  0  0  0  0  0  0
   -2.7730   14.8520    1.5380 N   0  0  0  0  0  0  0  0  0  0  0  0
   -3.9070   14.9640   -0.7830 S   0  0  0  0  0  0  0  0  0  0  0  0
   -8.8130   14.7080    0.8260 C   0  0  0  0  0  0  0  0  0  0  0  0
   -2.2100   14.9330   -0.7140 C   0  0  0  0  0  0  0  0  0  0  0  0
   -1.7970   14.8830    0.5990 C   0  0  0  0  0  0  0  0  0  0  0  0
   -0.4170   14.8410    1.0250 C   0  0  0  0  0  0  0  0  0  0  0  0
    0.0880   13.6150    0.4040 C   0  0  0  0  0  0  0  0  0  0  0  0
    0.7770   13.8090   -0.9260 C   0  0  0  0  0  0  0  0  0  0  0  0
    0.6820   12.4870   -1.4950 N   0  0  0  0  0  0  0  0  0  0  0  0
    0.4120   12.3280   -2.7180 C   0  0  0  0  0  0  0  0  0  0  0  0
    0.3520   11.0470   -3.0880 O   0  0  0  0  0  0  0  0  0  0  0  0
    0.1370   13.3410   -3.8080 C   0  0  0  0  0  0  0  0  0  0  0  0
   -1.3450   13.7150   -3.7350 C   0  0  0  0  0  0  0  0  0  0  0  0
    1.0520   14.5830   -3.7490 C   0  0  0  0  0  0  0  0  0  0  0  0
   -1.7120   14.7640   -4.7750 C   0  0  0  0  0  0  0  0  0  0  0  0
    0.6530   15.6290   -4.7920 C   0  0  0  0  0  0  0  0  0  0  0  0
   -0.7890   15.9020   -4.7890 N   0  0  0  0  0  0  0  0  0  0  0  0
   -1.2210   17.2070   -4.7170 C   0  0  0  0  0  0  0  0  0  0  0  0
   -0.2760   18.1700   -4.6830 N   0  0  0  0  0  0  0  0  0  0  0  0
   -2.3920   17.5410   -4.6810 O   0  0  0  0  0  0  0  0  0  0  0  0
  1  2  1  0
  2  3  2  0
  1  4  1  0
  2  5  1  0
  4  6  2  0
  4  7  1  0
  5  8  1  0
  7  9  1  0
  6 10  1  0
  9 10  2  0
 10 11  1  0
 11 12  1  0
 12 13  1  0
 13 14  1  0
 14 15  2  3
 15 16  1  0
 15 17  1  0
 17 18  1  0
 17 19  1  0
 18 20  1  0
 19 21  1  0
 20 22  1  0
 21 22  1  0
 22 23  1  0
 23 24  1  0
 23 25  2  0
M  END
