x0626_0_A_α-x0805_0_A_α
     RDKit          3D

 18 19  0  0  0  0  0  0  0  0999 V2000
   -4.6140   15.2910    0.5110 N   0  0  0  0  0  0  0  0  0  0  0  0
   -5.8600   14.6720    0.4670 C   0  0  0  0  0  0  0  0  0  0  0  0
   -6.3520   14.3150   -0.6090 O   0  0  0  0  0  0  0  0  0  0  0  0
   -4.3940   15.9240   -0.7490 O   0  0  0  0  0  0  0  0  0  0  0  0
   -3.3870   14.7250    0.5940 C   0  0  0  0  0  0  0  0  0  0  0  0
   -6.7300   14.4270    1.6900 C   0  0  0  0  0  0  0  0  0  0  0  0
   -2.3920   14.8580    1.4510 N   0  0  0  0  0  0  0  0  0  0  0  0
   -3.1020   13.6950   -0.7330 S   0  0  0  0  0  0  0  0  0  0  0  0
   -3.9270   15.0140   -1.7310 C   0  0  0  0  0  0  0  0  0  0  0  0
   -8.2040   14.5380    1.3220 C   0  0  0  0  0  0  0  0  0  0  0  0
   -1.5410   13.4440   -0.1950 C   0  0  0  0  0  0  0  0  0  0  0  0
   -1.3370   14.1220    0.9670 C   0  0  0  0  0  0  0  0  0  0  0  0
   -4.7540   14.1880   -2.4910 C   0  0  0  0  0  0  0  0  0  0  0  0
   -2.5290   14.9170   -1.9640 C   0  0  0  0  0  0  0  0  0  0  0  0
   -0.0750   14.0820    1.6670 C   0  0  0  0  0  0  0  0  0  0  0  0
   -1.9940   14.0420   -2.9210 C   0  0  0  0  0  0  0  0  0  0  0  0
   -4.2170   13.3090   -3.4430 C   0  0  0  0  0  0  0  0  0  0  0  0
   -2.8430   13.2390   -3.6570 C   0  0  0  0  0  0  0  0  0  0  0  0
  1  2  1  0
  2  3  2  0
  1  4  1  0
  1  5  1  0
  2  6  1  0
  5  7  2  0
  5  8  1  0
  4  9  1  0
  6 10  1  0
  8 11  1  0
  7 12  1  0
 11 12  2  0
  9 13  2  0
  9 14  1  0
 12 15  1  0
 14 16  2  0
 13 17  1  0
 16 18  1  0
 17 18  2  0
M  END
