x0628_0_A-x0962_1_A
     RDKit          3D

 21 22  0  0  0  0  0  0  0  0999 V2000
   -1.0040    9.1030   -7.2710 C   0  0  0  0  0  0  0  0  0  0  0  0
   -0.9490   10.2960   -6.4020 C   0  0  0  0  0  0  0  0  0  0  0  0
   -1.9250   10.5930   -5.4870 N   0  0  0  0  0  0  0  0  0  0  0  0
    0.0590   11.1710   -6.4470 N   0  0  0  0  0  0  0  0  0  0  0  0
   -0.3060   12.0640   -5.4980 N   0  0  0  0  0  0  0  0  0  0  0  0
   -1.5070   11.7130   -4.9190 C   0  0  0  0  0  0  0  0  0  0  0  0
   -2.2220   12.4680   -3.8220 C   0  0  0  0  0  0  0  0  0  0  0  0
    0.5330   13.2110   -5.2030 C   0  0  0  0  0  0  0  0  0  0  0  0
    1.6510   12.9610   -4.1920 C   0  0  0  0  0  0  0  0  0  0  0  0
   -2.8030   13.8430   -4.2210 C   0  0  0  0  0  0  0  0  0  0  0  0
    1.1050   12.2690   -2.9680 C   0  0  0  0  0  0  0  0  0  0  0  0
   -2.5930   14.9840   -3.1970 C   0  0  0  0  0  0  0  0  0  0  0  0
    0.5950   11.1600   -2.9490 O   0  0  0  0  0  0  0  0  0  0  0  0
    1.2330   13.0110   -1.8490 O   0  0  0  0  0  0  0  0  0  0  0  0
   -3.5710   15.0210   -2.0900 C   0  0  0  0  0  0  0  0  0  0  0  0
   -4.4000   14.9980   -1.2150 C   0  0  0  0  0  0  0  0  0  0  0  0
   -5.4190   14.8370   -0.2430 C   0  0  0  0  0  0  0  0  0  0  0  0
   -5.2290   14.8390    1.1080 N   0  0  0  0  0  0  0  0  0  0  0  0
   -6.7730   14.6460   -0.4100 C   0  0  0  0  0  0  0  0  0  0  0  0
   -6.4480   14.6470    1.7020 C   0  0  0  0  0  0  0  0  0  0  0  0
   -7.4080   14.5280    0.8040 N   0  0  0  0  0  0  0  0  0  0  0  0
  1  2  1  0
  2  3  1  0
  2  4  2  0
  4  5  1  0
  3  6  2  0
  5  6  1  0
  6  7  1  0
  5  8  1  0
  8  9  1  0
  7 10  1  0
  9 11  1  0
 10 12  1  0
 11 13  2  0
 11 14  1  0
 12 15  1  0
 15 16  3  0
 16 17  1  0
 17 18  1  0
 17 19  2  0
 18 20  1  0
 19 21  1  0
 20 21  2  0
M  END
