x0628_0_A_α-x0574_0_A_α
     RDKit          3D

 26 28  0  0  0  0  0  0  0  0999 V2000
   -0.8140    9.0670   -7.3280 C   0  0  0  0  0  0  0  0  0  0  0  0
   -0.8210   10.2420   -6.4440 C   0  0  0  0  0  0  0  0  0  0  0  0
   -1.8410   10.5140   -5.5690 N   0  0  0  0  0  0  0  0  0  0  0  0
    0.1780   11.1350   -6.4280 N   0  0  0  0  0  0  0  0  0  0  0  0
   -0.2390   12.0040   -5.4910 N   0  0  0  0  0  0  0  0  0  0  0  0
   -1.4580   11.6280   -4.9770 C   0  0  0  0  0  0  0  0  0  0  0  0
   -2.1990   12.3670   -3.9290 C   0  0  0  0  0  0  0  0  0  0  0  0
    0.5930   13.1520   -5.1640 C   0  0  0  0  0  0  0  0  0  0  0  0
    1.4960   12.9640   -3.9460 C   0  0  0  0  0  0  0  0  0  0  0  0
    0.8700   12.0870   -2.8800 C   0  0  0  0  0  0  0  0  0  0  0  0
    0.1590   11.1190   -3.1130 O   0  0  0  0  0  0  0  0  0  0  0  0
    1.2100   12.4650   -1.6110 O   0  0  0  0  0  0  0  0  0  0  0  0
    0.9410   13.7920   -1.0960 C   0  0  0  0  0  0  0  0  0  0  0  0
    0.2850   13.6320    0.2970 C   0  0  0  0  0  0  0  0  0  0  0  0
    0.0180   14.8250    1.0300 N   0  0  0  0  0  0  0  0  0  0  0  0
   -1.2230   14.8740    0.7550 C   0  0  0  0  0  0  0  0  0  0  0  0
   -2.1630   15.0240    1.6220 N   0  0  0  0  0  0  0  0  0  0  0  0
   -1.6130   14.6760   -0.8930 S   0  0  0  0  0  0  0  0  0  0  0  0
   -3.3390   14.9640    0.9080 C   0  0  0  0  0  0  0  0  0  0  0  0
   -3.2320   14.7790   -0.4690 C   0  0  0  0  0  0  0  0  0  0  0  0
   -4.6080   15.0650    1.4440 C   0  0  0  0  0  0  0  0  0  0  0  0
   -4.3250   14.6950   -1.3160 C   0  0  0  0  0  0  0  0  0  0  0  0
   -5.7180   14.9540    0.6310 C   0  0  0  0  0  0  0  0  0  0  0  0
   -5.5800   14.7800   -0.7360 C   0  0  0  0  0  0  0  0  0  0  0  0
   -7.0030   15.0000    1.0840 O   0  0  0  0  0  0  0  0  0  0  0  0
   -7.1650   14.6130    2.4490 C   0  0  0  0  0  0  0  0  0  0  0  0
  1  2  1  0
  2  3  1  0
  2  4  2  0
  4  5  1  0
  3  6  2  0
  5  6  1  0
  6  7  1  0
  5  8  1  0
  8  9  1  0
  9 10  1  0
 10 11  2  0
 10 12  1  0
 12 13  1  0
 13 14  1  0
 14 15  1  0
 15 16  1  0
 16 17  2  0
 16 18  1  0
 17 19  1  0
 18 20  1  0
 19 20  2  0
 19 21  1  0
 20 22  1  0
 21 23  2  0
 22 24  2  0
 23 24  1  0
 23 25  1  0
 25 26  1  0
M  END
