x0628_0_A-x0969_0_A
     RDKit          3D

 24 26  0  0  0  0  0  0  0  0999 V2000
   -0.9200    9.0590   -7.1080 C   0  0  0  0  0  0  0  0  0  0  0  0
   -0.9310   10.3000   -6.3140 C   0  0  0  0  0  0  0  0  0  0  0  0
   -1.9850   10.6810   -5.5240 N   0  0  0  0  0  0  0  0  0  0  0  0
    0.0940   11.1510   -6.3060 N   0  0  0  0  0  0  0  0  0  0  0  0
   -0.3320   12.1110   -5.4660 N   0  0  0  0  0  0  0  0  0  0  0  0
   -1.5990   11.8300   -4.9910 C   0  0  0  0  0  0  0  0  0  0  0  0
   -2.4200   12.6630   -4.0410 C   0  0  0  0  0  0  0  0  0  0  0  0
    0.5540   13.2280   -5.2060 C   0  0  0  0  0  0  0  0  0  0  0  0
    1.6630   12.9430   -4.2080 C   0  0  0  0  0  0  0  0  0  0  0  0
   -1.6920   13.2920   -2.8340 C   0  0  0  0  0  0  0  0  0  0  0  0
    1.1550   12.2450   -2.9720 C   0  0  0  0  0  0  0  0  0  0  0  0
   -2.1590   14.7060   -2.3690 C   0  0  0  0  0  0  0  0  0  0  0  0
    0.6420   11.1410   -2.9120 O   0  0  0  0  0  0  0  0  0  0  0  0
    1.3330   13.0020   -1.8810 O   0  0  0  0  0  0  0  0  0  0  0  0
   -3.3000   14.7690   -1.3640 C   0  0  0  0  0  0  0  0  0  0  0  0
   -4.5950   14.7060   -1.7460 C   0  0  0  0  0  0  0  0  0  0  0  0
   -2.9710   14.8940    0.0700 C   0  0  0  0  0  0  0  0  0  0  0  0
   -5.6360   14.7180   -0.7820 C   0  0  0  0  0  0  0  0  0  0  0  0
   -3.9600   14.9150    0.9870 C   0  0  0  0  0  0  0  0  0  0  0  0
   -6.9430   14.6390   -0.8960 N   0  0  0  0  0  0  0  0  0  0  0  0
   -5.2820   14.8120    0.5550 N   0  0  0  0  0  0  0  0  0  0  0  0
   -6.4930   14.7760    1.2350 C   0  0  0  0  0  0  0  0  0  0  0  0
   -7.4770   14.6730    0.3690 N   0  0  0  0  0  0  0  0  0  0  0  0
   -6.6180   14.8450    2.5790 N   0  0  0  0  0  0  0  0  0  0  0  0
  1  2  1  0
  2  3  1  0
  2  4  2  0
  4  5  1  0
  3  6  2  0
  5  6  1  0
  6  7  1  0
  5  8  1  0
  8  9  1  0
  7 10  1  0
  9 11  1  0
 10 12  1  0
 11 13  2  0
 11 14  1  0
 12 15  1  0
 15 16  2  0
 15 17  1  0
 16 18  1  0
 17 19  2  0
 18 20  2  0
 18 21  1  0
 19 21  1  0
 21 22  1  0
 20 23  1  0
 22 23  2  0
 22 24  1  0
M  END
