x0626_0_A-x0900_0_A
     RDKit          3D

 15 16  0  0  0  0  0  0  0  0999 V2000
   -4.6070   13.8690    1.9090 N   0  0  0  0  0  0  0  0  0  0  0  0
   -5.8360   14.4820    1.4240 C   0  0  2  0  0  0  0  0  0  0  0  0
   -7.1720   13.7470    1.6200 C   0  0  0  0  0  0  0  0  0  0  0  0
   -3.4610   13.9720    1.1700 C   0  0  0  0  0  0  0  0  0  0  0  0
   -2.3430   14.5080    1.6460 N   0  0  0  0  0  0  0  0  0  0  0  0
   -3.3280   13.4230   -0.4630 S   0  0  0  0  0  0  0  0  0  0  0  0
   -5.4580   14.7910    0.0280 C   0  0  1  0  0  0  0  0  0  0  0  0
   -8.3710   14.4640    0.9960 C   0  0  0  0  0  0  0  0  0  0  0  0
   -1.7110   13.9390   -0.5290 C   0  0  0  0  0  0  0  0  0  0  0  0
   -1.3540   14.4830    0.6740 C   0  0  0  0  0  0  0  0  0  0  0  0
   -6.3630   15.3220   -1.0330 C   0  0  0  0  0  0  0  0  0  0  0  0
   -4.2860   15.6960   -0.1080 C   0  0  0  0  0  0  0  0  0  0  0  0
   -0.0290   15.0210    0.9800 C   0  0  0  0  0  0  0  0  0  0  0  0
   -5.4000   15.2000   -2.1380 N   0  0  0  0  0  0  0  0  0  0  0  0
   -4.0600   15.5160   -1.5930 C   0  0  0  0  0  0  0  0  0  0  0  0
  1  2  1  0
  2  3  1  6
  1  4  1  0
  4  5  2  0
  4  6  1  0
  2  7  1  0
  3  8  1  0
  6  9  1  0
  5 10  1  0
  9 10  2  0
  7 11  1  1
  7 12  1  0
 10 13  1  0
 11 14  1  0
 12 15  1  0
 14 15  1  0
M  END
