x0626_0_A-x1018_0_A
     RDKit          3D

 20 22  0  0  0  0  0  0  0  0999 V2000
   -4.3610   13.2140    1.4350 N   0  0  0  0  0  0  0  0  0  0  0  0
   -5.4710   12.6530    0.8900 C   0  0  0  0  0  0  0  0  0  0  0  0
   -5.4030   12.3750   -0.3140 O   0  0  0  0  0  0  0  0  0  0  0  0
   -3.2150   13.6650    0.8410 C   0  0  0  0  0  0  0  0  0  0  0  0
   -6.7470   12.3720    1.6450 C   0  0  0  0  0  0  0  0  0  0  0  0
   -2.1940   14.2190    1.4900 N   0  0  0  0  0  0  0  0  0  0  0  0
   -3.0380   13.5110   -0.8400 S   0  0  0  0  0  0  0  0  0  0  0  0
   -7.8840   13.2420    1.1140 C   0  0  0  0  0  0  0  0  0  0  0  0
   -1.5080   14.2230   -0.7550 C   0  0  0  0  0  0  0  0  0  0  0  0
   -1.2140   14.5340    0.5460 C   0  0  0  0  0  0  0  0  0  0  0  0
    0.0400   15.1550    0.9540 C   0  0  0  0  0  0  0  0  0  0  0  0
   -7.3690   14.5910    0.6130 C   0  0  2  0  0  0  0  0  0  0  0  0
   -7.2630   14.5990   -0.8550 N   0  0  0  0  0  0  0  0  0  0  0  0
   -6.0360   14.9530    1.2770 C   0  0  0  0  0  0  0  0  0  0  0  0
   -6.1060   14.9820   -1.4870 C   0  0  0  0  0  0  0  0  0  0  0  0
   -4.9250   15.3130    0.5970 C   0  0  0  0  0  0  0  0  0  0  0  0
   -5.8700   15.0650   -2.8520 N   0  0  0  0  0  0  0  0  0  0  0  0
   -4.9840   15.3300   -0.8320 C   0  0  0  0  0  0  0  0  0  0  0  0
   -3.9820   15.6600   -1.7230 N   0  0  0  0  0  0  0  0  0  0  0  0
   -4.4380   15.2600   -3.0210 N   0  0  0  0  0  0  0  0  0  0  0  0
  1  2  1  0
  2  3  2  0
  1  4  1  0
  2  5  1  0
  4  6  2  0
  4  7  1  0
  5  8  1  0
  7  9  1  0
  6 10  1  0
  9 10  2  0
 10 11  1  0
 12  8  1  1
 12 13  1  0
 12 14  1  0
 13 15  1  0
 14 16  2  0
 15 17  1  0
 15 18  2  0
 16 18  1  0
 18 19  1  0
 17 20  1  0
 19 20  1  0
M  END
