x0628_0_A-x0766_0_A
     RDKit          3D

 22 24  0  0  0  0  0  0  0  0999 V2000
   -1.2120    8.8590   -7.5530 C   0  0  0  0  0  0  0  0  0  0  0  0
   -1.1490   10.0430   -6.6880 C   0  0  0  0  0  0  0  0  0  0  0  0
   -2.1530   10.3780   -5.8190 N   0  0  0  0  0  0  0  0  0  0  0  0
   -0.1040   10.8660   -6.6900 N   0  0  0  0  0  0  0  0  0  0  0  0
   -0.4800   11.7550   -5.7670 N   0  0  0  0  0  0  0  0  0  0  0  0
   -1.7070   11.4720   -5.2400 C   0  0  0  0  0  0  0  0  0  0  0  0
   -2.3860   12.2690   -4.1980 C   0  0  0  0  0  0  0  0  0  0  0  0
    0.4040   12.8280   -5.4410 C   0  0  0  0  0  0  0  0  0  0  0  0
    1.2770   12.2000   -4.3840 C   0  0  0  0  0  0  0  0  0  0  0  0
    1.0070   12.7080   -2.9990 C   0  0  0  0  0  0  0  0  0  0  0  0
   -0.1590   12.0570   -2.5080 O   0  0  0  0  0  0  0  0  0  0  0  0
    2.0450   12.3420   -2.1580 O   0  0  0  0  0  0  0  0  0  0  0  0
    1.0270   14.2070   -2.9640 C   0  0  1  0  0  0  0  0  0  0  0  0
    1.9630   14.7650   -4.0230 C   0  0  0  0  0  0  0  0  0  0  0  0
   -0.1760   15.1400   -2.9980 C   0  0  1  0  0  0  0  0  0  0  0  0
    1.0580   15.3790   -5.0740 C   0  0  0  0  0  0  0  0  0  0  0  0
   -0.3510   15.4270   -4.4830 C   0  0  0  0  0  0  0  0  0  0  0  0
   -1.4180   14.8470   -2.2020 C   0  0  0  0  0  0  0  0  0  0  0  0
   -2.7120   14.8240   -2.7080 C   0  0  0  0  0  0  0  0  0  0  0  0
   -1.4320   14.5710   -0.7940 C   0  0  0  0  0  0  0  0  0  0  0  0
   -2.6930   14.3640   -0.2970 C   0  0  0  0  0  0  0  0  0  0  0  0
   -3.8850   14.4940   -1.5120 S   0  0  0  0  0  0  0  0  0  0  0  0
  1  2  1  0
  2  3  1  0
  2  4  2  0
  4  5  1  0
  3  6  2  0
  5  6  1  0
  6  7  1  0
  5  8  1  0
  8  9  1  0
  9 10  1  0
 10 11  1  0
 10 12  1  0
 13 10  1  6
 13 14  1  0
 13 15  1  0
 14 16  1  0
 15 17  1  0
 16 17  1  0
 15 18  1  6
 18 19  2  0
 18 20  1  0
 20 21  2  0
 19 22  1  0
 21 22  1  0
M  END
