x0628_0_A-x0681_0_A
     RDKit          3D

 25 27  0  0  0  0  0  0  0  0999 V2000
   -0.7520    9.0110   -7.1470 C   0  0  0  0  0  0  0  0  0  0  0  0
   -0.8180   10.2970   -6.4260 C   0  0  0  0  0  0  0  0  0  0  0  0
   -1.9440   10.7230   -5.7850 N   0  0  0  0  0  0  0  0  0  0  0  0
    0.2130   11.1370   -6.3470 N   0  0  0  0  0  0  0  0  0  0  0  0
   -0.2940   12.1460   -5.6090 N   0  0  0  0  0  0  0  0  0  0  0  0
   -1.6050   11.8970   -5.2700 C   0  0  0  0  0  0  0  0  0  0  0  0
   -2.5480   12.7550   -4.4690 C   0  0  0  0  0  0  0  0  0  0  0  0
    0.5710   13.2680   -5.3120 C   0  0  0  0  0  0  0  0  0  0  0  0
    1.6740   12.9320   -4.3120 C   0  0  0  0  0  0  0  0  0  0  0  0
   -2.0690   14.0700   -3.8240 C   0  0  0  0  0  0  0  0  0  0  0  0
    1.1180   12.2790   -3.0770 C   0  0  0  0  0  0  0  0  0  0  0  0
   -2.3830   13.9690   -2.4120 N   0  0  0  0  0  0  0  0  0  0  0  0
    0.6370   11.1600   -2.9780 O   0  0  0  0  0  0  0  0  0  0  0  0
    1.1990   13.0760   -2.0000 O   0  0  0  0  0  0  0  0  0  0  0  0
   -3.2960   14.6260   -1.7700 C   0  0  0  0  0  0  0  0  0  0  0  0
   -4.0480   15.5480   -2.4510 N   0  0  0  0  0  0  0  0  0  0  0  0
   -3.5760   14.3500   -0.2930 C   0  0  2  0  0  0  0  0  0  0  0  0
   -4.6920   13.3450   -0.2730 C   0  0  0  0  0  0  0  0  0  0  0  0
   -3.9530   15.6070    0.5090 C   0  0  0  0  0  0  0  0  0  0  0  0
   -5.7150   13.4110    0.6220 N   0  0  0  0  0  0  0  0  0  0  0  0
   -4.5110   15.1560    1.8440 C   0  0  0  0  0  0  0  0  0  0  0  0
   -4.8550   12.3080   -1.0720 N   0  0  0  0  0  0  0  0  0  0  0  0
   -5.8370   14.4330    1.6260 C   0  0  0  0  0  0  0  0  0  0  0  0
   -6.5680   12.3780    0.3980 C   0  0  0  0  0  0  0  0  0  0  0  0
   -6.0150   11.7030   -0.6640 C   0  0  0  0  0  0  0  0  0  0  0  0
  1  2  1  0
  2  3  1  0
  2  4  2  0
  4  5  1  0
  3  6  2  0
  5  6  1  0
  6  7  1  0
  5  8  1  0
  8  9  1  0
  7 10  1  0
  9 11  1  0
 10 12  1  0
 11 13  2  0
 11 14  1  0
 12 15  2  3
 15 16  1  0
 17 15  1  6
 17 18  1  0
 17 19  1  0
 18 20  1  0
 19 21  1  0
 18 22  2  0
 20 23  1  0
 21 23  1  0
 20 24  1  0
 22 25  1  0
 24 25  2  0
M  END
