x0626_0_A_α-x0900_0_A_α
     RDKit          3D

 15 16  0  0  0  0  0  0  0  0999 V2000
   -4.6090   13.8700    1.9100 N   0  0  0  0  0  0  0  0  0  0  0  0
   -5.8390   14.4790    1.4200 C   0  0  2  0  0  0  0  0  0  0  0  0
   -7.1770   13.7410    1.6160 C   0  0  0  0  0  0  0  0  0  0  0  0
   -3.4590   13.9750    1.1750 C   0  0  0  0  0  0  0  0  0  0  0  0
   -2.3430   14.5120    1.6550 N   0  0  0  0  0  0  0  0  0  0  0  0
   -3.3230   13.4290   -0.4590 S   0  0  0  0  0  0  0  0  0  0  0  0
   -5.4660   14.7880    0.0250 C   0  0  1  0  0  0  0  0  0  0  0  0
   -8.3700   14.4570    0.9800 C   0  0  0  0  0  0  0  0  0  0  0  0
   -1.7070   13.9500   -0.5210 C   0  0  0  0  0  0  0  0  0  0  0  0
   -1.3520   14.4930    0.6820 C   0  0  0  0  0  0  0  0  0  0  0  0
   -6.3680   15.3290   -1.0350 C   0  0  0  0  0  0  0  0  0  0  0  0
   -4.2860   15.6890   -0.1170 C   0  0  0  0  0  0  0  0  0  0  0  0
   -0.0250   15.0290    0.9860 C   0  0  0  0  0  0  0  0  0  0  0  0
   -5.4090   15.1990   -2.1430 N   0  0  0  0  0  0  0  0  0  0  0  0
   -4.0660   15.5100   -1.5990 C   0  0  0  0  0  0  0  0  0  0  0  0
  1  2  1  0
  2  3  1  6
  1  4  1  0
  4  5  2  0
  4  6  1  0
  2  7  1  0
  3  8  1  0
  6  9  1  0
  5 10  1  0
  9 10  2  0
  7 11  1  1
  7 12  1  0
 10 13  1  0
 11 14  1  0
 12 15  1  0
 14 15  1  0
M  END
