x0628_0_A-x0895_1_A
     RDKit          3D

 22 23  0  0  0  0  0  0  0  0999 V2000
   -0.8010    9.0780   -7.3470 C   0  0  0  0  0  0  0  0  0  0  0  0
   -0.8100   10.2460   -6.4450 C   0  0  0  0  0  0  0  0  0  0  0  0
   -1.8390   10.4950   -5.5730 N   0  0  0  0  0  0  0  0  0  0  0  0
    0.1820   11.1450   -6.4140 N   0  0  0  0  0  0  0  0  0  0  0  0
   -0.2480   11.9970   -5.4640 N   0  0  0  0  0  0  0  0  0  0  0  0
   -1.4650   11.6010   -4.9640 C   0  0  0  0  0  0  0  0  0  0  0  0
   -2.2140   12.3240   -3.9070 C   0  0  0  0  0  0  0  0  0  0  0  0
    0.5590   13.1500   -5.1060 C   0  0  0  0  0  0  0  0  0  0  0  0
    1.5150   12.8950   -3.9390 C   0  0  0  0  0  0  0  0  0  0  0  0
    0.8610   12.0570   -2.8650 C   0  0  0  0  0  0  0  0  0  0  0  0
    0.2600   11.0200   -3.0890 O   0  0  0  0  0  0  0  0  0  0  0  0
    1.0370   12.5760   -1.6120 O   0  0  0  0  0  0  0  0  0  0  0  0
    0.3920   13.8220   -1.3010 C   0  0  0  0  0  0  0  0  0  0  0  0
   -0.1830   13.6710    0.1040 C   0  0  0  0  0  0  0  0  0  0  0  0
   -0.4240   14.9410    0.8770 C   0  0  0  0  0  0  0  0  0  0  0  0
   -1.7060   14.7980    1.5670 N   0  0  0  0  0  0  0  0  0  0  0  0
   -2.7710   14.7120    0.8440 C   0  0  0  0  0  0  0  0  0  0  0  0
   -2.9680   14.6910   -0.6620 C   0  0  0  0  0  0  0  0  0  0  0  0
   -3.9880   14.6160    1.4190 N   0  0  0  0  0  0  0  0  0  0  0  0
   -4.3490   15.0860   -0.7020 N   0  0  0  0  0  0  0  0  0  0  0  0
   -4.9560   14.8320    0.5020 C   0  0  0  0  0  0  0  0  0  0  0  0
   -6.1610   14.8060    0.6910 O   0  0  0  0  0  0  0  0  0  0  0  0
  1  2  1  0
  2  3  1  0
  2  4  2  0
  4  5  1  0
  3  6  2  0
  5  6  1  0
  6  7  1  0
  5  8  1  0
  8  9  1  0
  9 10  1  0
 10 11  2  0
 10 12  1  0
 12 13  1  0
 13 14  1  0
 14 15  1  0
 15 16  1  0
 16 17  2  3
 17 18  1  0
 17 19  1  0
 18 20  1  0
 19 21  1  0
 20 21  1  0
 21 22  2  0
M  END
