x0628_0_A-x0681_0_A
     RDKit          3D

 25 27  0  0  0  0  0  0  0  0999 V2000
   -0.7620    9.0130   -7.1510 C   0  0  0  0  0  0  0  0  0  0  0  0
   -0.8270   10.3010   -6.4260 C   0  0  0  0  0  0  0  0  0  0  0  0
   -1.9500   10.7240   -5.7800 N   0  0  0  0  0  0  0  0  0  0  0  0
    0.2070   11.1400   -6.3500 N   0  0  0  0  0  0  0  0  0  0  0  0
   -0.3040   12.1480   -5.6100 N   0  0  0  0  0  0  0  0  0  0  0  0
   -1.6110   11.9010   -5.2670 C   0  0  0  0  0  0  0  0  0  0  0  0
   -2.5530   12.7550   -4.4640 C   0  0  0  0  0  0  0  0  0  0  0  0
    0.5610   13.2760   -5.3140 C   0  0  0  0  0  0  0  0  0  0  0  0
    1.6630   12.9510   -4.3070 C   0  0  0  0  0  0  0  0  0  0  0  0
   -2.0700   14.0700   -3.8140 C   0  0  0  0  0  0  0  0  0  0  0  0
    1.1110   12.2920   -3.0720 C   0  0  0  0  0  0  0  0  0  0  0  0
   -2.3850   13.9660   -2.4020 N   0  0  0  0  0  0  0  0  0  0  0  0
    0.6290   11.1730   -2.9760 O   0  0  0  0  0  0  0  0  0  0  0  0
    1.2000   13.0850   -1.9900 O   0  0  0  0  0  0  0  0  0  0  0  0
   -3.2960   14.6240   -1.7600 C   0  0  0  0  0  0  0  0  0  0  0  0
   -4.0470   15.5490   -2.4410 N   0  0  0  0  0  0  0  0  0  0  0  0
   -3.5740   14.3500   -0.2850 C   0  0  2  0  0  0  0  0  0  0  0  0
   -4.6880   13.3420   -0.2670 C   0  0  0  0  0  0  0  0  0  0  0  0
   -3.9460   15.6080    0.5130 C   0  0  0  0  0  0  0  0  0  0  0  0
   -5.7110   13.4090    0.6290 N   0  0  0  0  0  0  0  0  0  0  0  0
   -4.5110   15.1670    1.8480 C   0  0  0  0  0  0  0  0  0  0  0  0
   -4.8460   12.3050   -1.0660 N   0  0  0  0  0  0  0  0  0  0  0  0
   -5.8320   14.4330    1.6310 C   0  0  0  0  0  0  0  0  0  0  0  0
   -6.5590   12.3730    0.4020 C   0  0  0  0  0  0  0  0  0  0  0  0
   -6.0070   11.6970   -0.6580 C   0  0  0  0  0  0  0  0  0  0  0  0
  1  2  1  0
  2  3  1  0
  2  4  2  0
  4  5  1  0
  3  6  2  0
  5  6  1  0
  6  7  1  0
  5  8  1  0
  8  9  1  0
  7 10  1  0
  9 11  1  0
 10 12  1  0
 11 13  2  0
 11 14  1  0
 12 15  2  3
 15 16  1  0
 17 15  1  6
 17 18  1  0
 17 19  1  0
 18 20  1  0
 19 21  1  0
 18 22  2  0
 20 23  1  0
 21 23  1  0
 20 24  1  0
 22 25  1  0
 24 25  2  0
M  END
