x0628_0_A_α-5cb5_M_1_M_γ
     RDKit          3D

 18 20  0  0  0  0  0  0  0  0999 V2000
   -0.8300    9.1300   -7.3190 C   0  0  0  0  0  0  0  0  0  0  0  0
   -0.8230   10.3660   -6.5100 C   0  0  0  0  0  0  0  0  0  0  0  0
   -1.8870   10.7540   -5.7370 N   0  0  0  0  0  0  0  0  0  0  0  0
    0.2290   11.1990   -6.4720 N   0  0  0  0  0  0  0  0  0  0  0  0
   -0.2110   12.1530   -5.6210 N   0  0  0  0  0  0  0  0  0  0  0  0
   -1.4700   11.8800   -5.1930 C   0  0  0  0  0  0  0  0  0  0  0  0
   -2.1720   12.7750   -4.2570 C   0  0  0  0  0  0  0  0  0  0  0  0
    0.6230   13.3010   -5.2470 C   0  0  2  0  0  0  0  0  0  0  0  0
    1.8470   12.8510   -4.4850 C   0  0  0  0  0  0  0  0  0  0  0  0
   -0.0410   14.3250   -4.3030 C   0  0  2  0  0  0  0  0  0  0  0  0
   -1.2130   13.7170   -3.5360 C   0  0  1  0  0  0  0  0  0  0  0  0
    1.4330   12.2630   -3.1480 C   0  0  0  0  0  0  0  0  0  0  0  0
   -1.8340   14.9660   -2.9760 C   0  0  0  0  0  0  0  0  0  0  0  0
   -0.6990   15.5220   -4.9540 C   0  0  2  0  0  0  0  0  0  0  0  0
    0.6850   11.2980   -3.0250 O   0  0  0  0  0  0  0  0  0  0  0  0
    1.9360   12.9110   -2.0790 O   0  0  0  0  0  0  0  0  0  0  0  0
    0.2420   16.6420   -5.4160 C   0  0  0  0  0  0  0  0  0  0  0  0
   -1.5150   16.0300   -3.9020 O   0  0  0  0  0  0  0  0  0  0  0  0
  1  2  1  0
  2  3  1  0
  2  4  2  0
  4  5  1  0
  3  6  2  0
  5  6  1  0
  6  7  1  0
  5  8  1  0
  8  9  1  1
 10  8  1  6
 11  7  1  6
 10 11  1  0
  9 12  1  0
 11 13  1  0
 10 14  1  0
 12 15  2  0
 12 16  1  0
 14 17  1  1
 13 18  1  0
 14 18  1  0
M  END
