x0626_0_A_α-x0962_0_A_α
     RDKit          3D

 18 19  0  0  0  0  0  0  0  0999 V2000
   -4.7620   13.7540    1.9470 N   0  0  0  0  0  0  0  0  0  0  0  0
   -6.0770   13.7120    1.5940 C   0  0  0  0  0  0  0  0  0  0  0  0
   -6.3460   13.1500    0.5260 O   0  0  0  0  0  0  0  0  0  0  0  0
   -3.6540   14.0590    1.2350 C   0  0  0  0  0  0  0  0  0  0  0  0
   -7.1870   14.3100    2.4350 C   0  0  0  0  0  0  0  0  0  0  0  0
   -2.4400   14.3520    1.7160 N   0  0  0  0  0  0  0  0  0  0  0  0
   -3.8140   14.0760   -0.4010 S   0  0  0  0  0  0  0  0  0  0  0  0
   -8.3530   14.7920    1.5780 C   0  0  0  0  0  0  0  0  0  0  0  0
   -2.1840   14.5170   -0.6070 C   0  0  0  0  0  0  0  0  0  0  0  0
   -1.5740   14.6150    0.6360 C   0  0  0  0  0  0  0  0  0  0  0  0
   -0.1640   14.9580    0.9250 C   0  0  0  0  0  0  0  0  0  0  0  0
   -1.8600   14.6770   -2.0510 C   0  0  2  0  0  0  0  0  0  0  0  0
   -1.1660   15.9050   -2.4120 N   0  0  0  0  0  0  0  0  0  0  0  0
   -3.2170   14.6340   -2.6580 C   0  0  0  0  0  0  0  0  0  0  0  0
   -4.2520   15.3640   -2.1180 N   0  0  0  0  0  0  0  0  0  0  0  0
   -3.7900   13.9800   -3.7220 C   0  0  0  0  0  0  0  0  0  0  0  0
   -5.3700   15.1210   -2.8440 C   0  0  0  0  0  0  0  0  0  0  0  0
   -5.1220   14.2880   -3.8260 N   0  0  0  0  0  0  0  0  0  0  0  0
  1  2  1  0
  2  3  2  0
  1  4  1  0
  2  5  1  0
  4  6  2  0
  4  7  1  0
  5  8  1  0
  7  9  1  0
  6 10  1  0
  9 10  2  0
 10 11  1  0
  9 12  1  0
 12 13  1  1
 12 14  1  0
 14 15  1  0
 14 16  2  0
 15 17  1  0
 16 18  1  0
 17 18  2  0
M  END
