x0626_0_A-x0950_1_A
     RDKit          3D

 19 19  0  0  0  0  0  0  0  0999 V2000
   -4.8750   14.8800    1.4290 N   0  0  0  0  0  0  0  0  0  0  0  0
   -6.0730   14.7070    0.7960 C   0  0  0  0  0  0  0  0  0  0  0  0
   -6.1310   14.8480   -0.4300 O   0  0  0  0  0  0  0  0  0  0  0  0
   -3.6580   14.8020    0.8350 C   0  0  0  0  0  0  0  0  0  0  0  0
   -7.3010   14.3540    1.6150 C   0  0  0  0  0  0  0  0  0  0  0  0
   -2.4550   14.6470    1.3700 N   0  0  0  0  0  0  0  0  0  0  0  0
   -3.7530   14.9250   -0.8590 S   0  0  0  0  0  0  0  0  0  0  0  0
   -8.5980   14.6580    0.8750 C   0  0  0  0  0  0  0  0  0  0  0  0
   -2.0640   14.7530   -0.9320 C   0  0  0  0  0  0  0  0  0  0  0  0
   -1.5350   14.6160    0.3350 C   0  0  0  0  0  0  0  0  0  0  0  0
   -0.0820   14.4470    0.5910 C   0  0  0  0  0  0  0  0  0  0  0  0
    0.7140   14.8000   -0.6740 C   0  0  0  0  0  0  0  0  0  0  0  0
    0.3820   13.9920   -1.9200 C   0  0  0  0  0  0  0  0  0  0  0  0
    1.3260   12.9290   -2.0930 O   0  0  0  0  0  0  0  0  0  0  0  0
    0.9550   12.0420   -3.0520 C   0  0  0  0  0  0  0  0  0  0  0  0
    1.3510   12.5040   -4.4660 C   0  0  2  0  0  0  0  0  0  0  0  0
    0.3700   10.9870   -2.8300 O   0  0  0  0  0  0  0  0  0  0  0  0
    1.0270   13.9570   -4.7590 C   0  0  0  0  0  0  0  0  0  0  0  0
    0.6840   11.7130   -5.4530 O   0  0  0  0  0  0  0  0  0  0  0  0
  1  2  1  0
  2  3  2  0
  1  4  1  0
  2  5  1  0
  4  6  2  0
  4  7  1  0
  5  8  1  0
  7  9  1  0
  6 10  1  0
  9 10  2  0
 10 11  1  0
 11 12  1  0
 12 13  1  0
 13 14  1  0
 14 15  1  0
 15 16  1  0
 15 17  2  0
 16 18  1  6
 16 19  1  0
M  END
