x0626_0_A-x0933_0_A
     RDKit          3D

 11 11  0  0  0  0  0  0  0  0999 V2000
   -4.8940   14.8850    1.4030 N   0  0  0  0  0  0  0  0  0  0  0  0
   -6.0190   14.7180    0.6250 C   0  0  0  0  0  0  0  0  0  0  0  0
   -6.1180   14.8380   -0.5890 O   0  0  0  0  0  0  0  0  0  0  0  0
   -3.6300   14.8010    0.8870 C   0  0  0  0  0  0  0  0  0  0  0  0
   -7.2110   14.3480    1.5000 C   0  0  0  0  0  0  0  0  0  0  0  0
   -2.4840   14.6720    1.5170 N   0  0  0  0  0  0  0  0  0  0  0  0
   -3.5630   14.8770   -0.8200 S   0  0  0  0  0  0  0  0  0  0  0  0
   -8.5470   14.6570    0.8470 C   0  0  0  0  0  0  0  0  0  0  0  0
   -1.8620   14.7130   -0.7270 C   0  0  0  0  0  0  0  0  0  0  0  0
   -1.4670   14.6180    0.5960 C   0  0  0  0  0  0  0  0  0  0  0  0
   -0.0980   14.4660    1.1040 C   0  0  0  0  0  0  0  0  0  0  0  0
  1  2  1  0
  2  3  2  0
  1  4  1  0
  2  5  1  0
  4  6  2  0
  4  7  1  0
  5  8  1  0
  7  9  1  0
  6 10  1  0
  9 10  2  0
 10 11  1  0
M  END
