x0626_0_A-x0962_0_A
     RDKit          3D

 18 19  0  0  0  0  0  0  0  0999 V2000
   -4.8010   13.7500    1.9450 N   0  0  0  0  0  0  0  0  0  0  0  0
   -6.1130   13.7580    1.5720 C   0  0  0  0  0  0  0  0  0  0  0  0
   -6.3860   13.2650    0.4710 O   0  0  0  0  0  0  0  0  0  0  0  0
   -3.6810   14.0300    1.2480 C   0  0  0  0  0  0  0  0  0  0  0  0
   -7.2110   14.3370    2.4340 C   0  0  0  0  0  0  0  0  0  0  0  0
   -2.4730   14.3100    1.7460 N   0  0  0  0  0  0  0  0  0  0  0  0
   -3.8130   14.0330   -0.3920 S   0  0  0  0  0  0  0  0  0  0  0  0
   -8.3910   14.8260    1.6020 C   0  0  0  0  0  0  0  0  0  0  0  0
   -2.1720   14.4470   -0.5690 C   0  0  0  0  0  0  0  0  0  0  0  0
   -1.5850   14.5470    0.6840 C   0  0  0  0  0  0  0  0  0  0  0  0
   -0.1770   14.8690    0.9980 C   0  0  0  0  0  0  0  0  0  0  0  0
   -1.8110   14.5920   -2.0030 C   0  0  2  0  0  0  0  0  0  0  0  0
   -1.0740   15.7980   -2.3510 N   0  0  0  0  0  0  0  0  0  0  0  0
   -3.1580   14.5750   -2.6390 C   0  0  0  0  0  0  0  0  0  0  0  0
   -4.1850   15.3360   -2.1260 N   0  0  0  0  0  0  0  0  0  0  0  0
   -3.7270   13.9190   -3.7070 C   0  0  0  0  0  0  0  0  0  0  0  0
   -5.2960   15.1070   -2.8710 C   0  0  0  0  0  0  0  0  0  0  0  0
   -5.0510   14.2550   -3.8390 N   0  0  0  0  0  0  0  0  0  0  0  0
  1  2  1  0
  2  3  2  0
  1  4  1  0
  2  5  1  0
  4  6  2  0
  4  7  1  0
  5  8  1  0
  7  9  1  0
  6 10  1  0
  9 10  2  0
 10 11  1  0
  9 12  1  0
 12 13  1  1
 12 14  1  0
 14 15  1  0
 14 16  2  0
 15 17  1  0
 16 18  1  0
 17 18  2  0
M  END
