x0626_0_A_α-x1015_0_A_α
     RDKit          3D

 28 30  0  0  0  0  0  0  0  0999 V2000
   -5.0840   14.8770    1.4790 N   0  0  0  0  0  0  0  0  0  0  0  0
   -6.2040   14.6890    0.7070 C   0  0  0  0  0  0  0  0  0  0  0  0
   -6.2800   14.7880   -0.5160 O   0  0  0  0  0  0  0  0  0  0  0  0
   -3.8490   14.8530    0.9300 C   0  0  0  0  0  0  0  0  0  0  0  0
   -7.3960   14.3320    1.5680 C   0  0  0  0  0  0  0  0  0  0  0  0
   -2.6880   14.7860    1.5380 N   0  0  0  0  0  0  0  0  0  0  0  0
   -3.8490   14.9150   -0.7760 S   0  0  0  0  0  0  0  0  0  0  0  0
   -8.7110   14.6540    0.8820 C   0  0  0  0  0  0  0  0  0  0  0  0
   -2.1500   14.8410   -0.7250 C   0  0  0  0  0  0  0  0  0  0  0  0
   -1.7160   14.7870    0.5840 C   0  0  0  0  0  0  0  0  0  0  0  0
   -0.3160   14.7230    0.9840 C   0  0  0  0  0  0  0  0  0  0  0  0
    0.3270   13.8360   -0.0320 C   0  0  0  0  0  0  0  0  0  0  0  0
    1.3540   14.5530   -0.8870 C   0  0  0  0  0  0  0  0  0  0  0  0
    0.7380   14.8340   -2.1600 N   0  0  0  0  0  0  0  0  0  0  0  0
    0.5880   13.7400   -2.7570 C   0  0  0  0  0  0  0  0  0  0  0  0
   -0.0320   13.5510   -4.1180 C   0  0  2  0  0  0  0  0  0  0  0  0
    0.9640   12.5490   -2.2600 N   0  0  0  0  0  0  0  0  0  0  0  0
   -1.3130   14.3800   -4.2090 C   0  0  0  0  0  0  0  0  0  0  0  0
   -0.2670   12.1100   -4.0370 N   0  0  0  0  0  0  0  0  0  0  0  0
    0.2550   11.5710   -2.8440 C   0  0  0  0  0  0  0  0  0  0  0  0
    0.1320   10.4370   -2.3770 O   0  0  0  0  0  0  0  0  0  0  0  0
   -0.6080   11.3430   -5.1600 C   0  0  0  0  0  0  0  0  0  0  0  0
   -0.0200   11.5590   -6.4120 C   0  0  0  0  0  0  0  0  0  0  0  0
   -1.5610   10.3250   -5.0380 C   0  0  0  0  0  0  0  0  0  0  0  0
   -0.3760   10.7770   -7.5130 C   0  0  0  0  0  0  0  0  0  0  0  0
   -1.9220    9.5420   -6.1320 C   0  0  0  0  0  0  0  0  0  0  0  0
   -1.3270    9.7710   -7.3660 C   0  0  0  0  0  0  0  0  0  0  0  0
   -1.7750    8.8050   -8.7120 Cl  0  0  0  0  0  0  0  0  0  0  0  0
  1  2  1  0
  2  3  2  0
  1  4  1  0
  2  5  1  0
  4  6  2  0
  4  7  1  0
  5  8  1  0
  7  9  1  0
  6 10  1  0
  9 10  2  0
 10 11  1  0
 11 12  1  0
 12 13  1  0
 13 14  1  0
 14 15  2  3
 15 16  1  0
 15 17  1  0
 16 18  1  1
 16 19  1  0
 17 20  1  0
 19 20  1  0
 20 21  2  0
 19 22  1  0
 22 23  2  0
 22 24  1  0
 23 25  1  0
 24 26  2  0
 25 27  2  0
 26 27  1  0
 27 28  1  0
M  END
