x0626_0_A_α-x1012_0_A_α
     RDKit          3D

 25 26  0  0  0  0  0  0  0  0999 V2000
   -5.1480   14.8800    1.4650 N   0  0  0  0  0  0  0  0  0  0  0  0
   -6.3030   14.6650    0.7900 C   0  0  0  0  0  0  0  0  0  0  0  0
   -6.3050   14.7800   -0.4420 O   0  0  0  0  0  0  0  0  0  0  0  0
   -3.9200   14.8940    0.9230 C   0  0  0  0  0  0  0  0  0  0  0  0
   -7.5490   14.3030    1.5650 C   0  0  0  0  0  0  0  0  0  0  0  0
   -2.7720   14.8510    1.5390 N   0  0  0  0  0  0  0  0  0  0  0  0
   -3.9040   14.9660   -0.7830 S   0  0  0  0  0  0  0  0  0  0  0  0
   -8.8110   14.7080    0.8260 C   0  0  0  0  0  0  0  0  0  0  0  0
   -2.2060   14.9330   -0.7120 C   0  0  0  0  0  0  0  0  0  0  0  0
   -1.7950   14.8820    0.6010 C   0  0  0  0  0  0  0  0  0  0  0  0
   -0.4130   14.8410    1.0260 C   0  0  0  0  0  0  0  0  0  0  0  0
    0.0880   13.6160    0.4030 C   0  0  0  0  0  0  0  0  0  0  0  0
    0.7760   13.8090   -0.9270 C   0  0  0  0  0  0  0  0  0  0  0  0
    0.6830   12.4870   -1.4950 N   0  0  0  0  0  0  0  0  0  0  0  0
    0.4140   12.3280   -2.7180 C   0  0  0  0  0  0  0  0  0  0  0  0
    0.3560   11.0450   -3.0850 O   0  0  0  0  0  0  0  0  0  0  0  0
    0.1370   13.3400   -3.8070 C   0  0  0  0  0  0  0  0  0  0  0  0
   -1.3460   13.7150   -3.7350 C   0  0  0  0  0  0  0  0  0  0  0  0
    1.0500   14.5830   -3.7490 C   0  0  0  0  0  0  0  0  0  0  0  0
   -1.7100   14.7610   -4.7730 C   0  0  0  0  0  0  0  0  0  0  0  0
    0.6550   15.6280   -4.7900 C   0  0  0  0  0  0  0  0  0  0  0  0
   -0.7920   15.9010   -4.7900 N   0  0  0  0  0  0  0  0  0  0  0  0
   -1.2190   17.2060   -4.7160 C   0  0  0  0  0  0  0  0  0  0  0  0
   -0.2760   18.1700   -4.6850 N   0  0  0  0  0  0  0  0  0  0  0  0
   -2.3940   17.5400   -4.6800 O   0  0  0  0  0  0  0  0  0  0  0  0
  1  2  1  0
  2  3  2  0
  1  4  1  0
  2  5  1  0
  4  6  2  0
  4  7  1  0
  5  8  1  0
  7  9  1  0
  6 10  1  0
  9 10  2  0
 10 11  1  0
 11 12  1  0
 12 13  1  0
 13 14  1  0
 14 15  2  3
 15 16  1  0
 15 17  1  0
 17 18  1  0
 17 19  1  0
 18 20  1  0
 19 21  1  0
 20 22  1  0
 21 22  1  0
 22 23  1  0
 23 24  1  0
 23 25  2  0
M  END
