x0626_0_A-x0895_0_A
     RDKit          3D

 12 12  0  0  0  0  0  0  0  0999 V2000
   -5.0910   14.5440    1.3870 N   0  0  0  0  0  0  0  0  0  0  0  0
   -6.2600   14.5960    0.6760 C   0  0  0  0  0  0  0  0  0  0  0  0
   -6.3310   14.8020   -0.5260 O   0  0  0  0  0  0  0  0  0  0  0  0
   -3.9540   15.2740    1.0080 C   0  0  1  0  0  0  0  0  0  0  0  0
   -7.4620   14.3720    1.5700 C   0  0  0  0  0  0  0  0  0  0  0  0
   -2.8290   14.4840    1.4690 N   0  0  0  0  0  0  0  0  0  0  0  0
   -3.9320   15.3790   -0.7830 S   0  0  0  0  0  0  0  0  0  0  0  0
   -8.7740   14.6660    0.8620 C   0  0  0  0  0  0  0  0  0  0  0  0
   -2.3070   14.7650   -0.7910 C   0  0  0  0  0  0  0  0  0  0  0  0
   -1.7100   14.8690    0.6170 C   0  0  2  0  0  0  0  0  0  0  0  0
   -0.4510   14.0570    0.8570 C   0  0  0  0  0  0  0  0  0  0  0  0
   -1.8260   14.3410   -1.8090 O   0  0  0  0  0  0  0  0  0  0  0  0
  1  2  1  0
  2  3  2  0
  4  1  1  6
  2  5  1  0
  4  6  1  0
  4  7  1  0
  5  8  1  0
  7  9  1  0
  6 10  1  0
  9 10  1  0
 10 11  1  6
  9 12  2  0
M  END
