x0628_0_A-x0967_0_A
     RDKit          3D

 24 26  0  0  0  0  0  0  0  0999 V2000
   -1.1060    9.1430   -7.2580 C   0  0  0  0  0  0  0  0  0  0  0  0
   -1.0290   10.3190   -6.3720 C   0  0  0  0  0  0  0  0  0  0  0  0
   -1.9610   10.5930   -5.4040 N   0  0  0  0  0  0  0  0  0  0  0  0
   -0.0380   11.2000   -6.4540 N   0  0  0  0  0  0  0  0  0  0  0  0
   -0.3550   12.0760   -5.4800 N   0  0  0  0  0  0  0  0  0  0  0  0
   -1.5210   11.7110   -4.8380 C   0  0  0  0  0  0  0  0  0  0  0  0
   -2.1740   12.4450   -3.6900 C   0  0  0  0  0  0  0  0  0  0  0  0
    0.5270   13.2010   -5.2600 C   0  0  0  0  0  0  0  0  0  0  0  0
    1.6610   12.9540   -4.2800 C   0  0  0  0  0  0  0  0  0  0  0  0
   -3.0570   13.6700   -4.0350 C   0  0  0  0  0  0  0  0  0  0  0  0
    1.2010   12.2740   -3.0210 C   0  0  0  0  0  0  0  0  0  0  0  0
   -2.9210   14.8990   -3.0910 C   0  0  0  0  0  0  0  0  0  0  0  0
    0.5140   11.2690   -2.9200 O   0  0  0  0  0  0  0  0  0  0  0  0
    1.6520   12.9440   -1.9490 O   0  0  0  0  0  0  0  0  0  0  0  0
   -3.6720   14.8790   -1.7630 C   0  0  0  0  0  0  0  0  0  0  0  0
   -5.0250   14.7650   -1.8070 N   0  0  0  0  0  0  0  0  0  0  0  0
   -2.9830   14.9770   -0.5560 C   0  0  0  0  0  0  0  0  0  0  0  0
   -5.7250   14.7390   -0.6660 C   0  0  0  0  0  0  0  0  0  0  0  0
   -3.7010   14.9550    0.6330 C   0  0  0  0  0  0  0  0  0  0  0  0
   -7.0580   14.6200   -0.7580 N   0  0  0  0  0  0  0  0  0  0  0  0
   -5.0900   14.8320    0.5860 C   0  0  0  0  0  0  0  0  0  0  0  0
   -5.8700   14.7930    1.7490 C   0  0  0  0  0  0  0  0  0  0  0  0
   -7.7890   14.5840    0.3830 C   0  0  0  0  0  0  0  0  0  0  0  0
   -7.2480   14.6670    1.6500 C   0  0  0  0  0  0  0  0  0  0  0  0
  1  2  1  0
  2  3  1  0
  2  4  2  0
  4  5  1  0
  3  6  2  0
  5  6  1  0
  6  7  1  0
  5  8  1  0
  8  9  1  0
  7 10  1  0
  9 11  1  0
 10 12  1  0
 11 13  2  0
 11 14  1  0
 12 15  1  0
 15 16  2  0
 15 17  1  0
 16 18  1  0
 17 19  2  0
 18 20  2  0
 18 21  1  0
 19 21  1  0
 21 22  2  0
 20 23  1  0
 22 24  1  0
 23 24  2  0
M  END
