x0628_0_A_α-x0689_0_A_α
     RDKit          3D

 21 22  0  0  0  0  0  0  0  0999 V2000
   -0.8580    8.9910   -7.2970 C   0  0  0  0  0  0  0  0  0  0  0  0
   -0.8240   10.2000   -6.4550 C   0  0  0  0  0  0  0  0  0  0  0  0
   -1.8120   10.5050   -5.5580 N   0  0  0  0  0  0  0  0  0  0  0  0
    0.1750   11.0830   -6.5060 N   0  0  0  0  0  0  0  0  0  0  0  0
   -0.2020   11.9890   -5.5890 N   0  0  0  0  0  0  0  0  0  0  0  0
   -1.4040   11.6380   -5.0180 C   0  0  0  0  0  0  0  0  0  0  0  0
   -2.1120   12.4120   -3.9720 C   0  0  0  0  0  0  0  0  0  0  0  0
    0.6570   13.1410   -5.3460 C   0  0  0  0  0  0  0  0  0  0  0  0
    1.6640   12.9350   -4.2150 C   0  0  0  0  0  0  0  0  0  0  0  0
    0.9390   12.4280   -2.9990 C   0  0  0  0  0  0  0  0  0  0  0  0
    0.9070   11.2610   -2.6300 O   0  0  0  0  0  0  0  0  0  0  0  0
    0.3000   13.4500   -2.3980 O   0  0  0  0  0  0  0  0  0  0  0  0
    0.8650   14.1080   -1.2590 C   0  0  0  0  0  0  0  0  0  0  0  0
   -0.3110   14.3600   -0.3880 C   0  0  0  0  0  0  0  0  0  0  0  0
   -1.5100   14.6170   -0.9790 C   0  0  0  0  0  0  0  0  0  0  0  0
   -0.3460   14.3640    0.9980 C   0  0  0  0  0  0  0  0  0  0  0  0
   -2.6340   14.8620   -0.3080 N   0  0  0  0  0  0  0  0  0  0  0  0
   -1.4540   14.6030    1.7210 N   0  0  0  0  0  0  0  0  0  0  0  0
   -2.5630   14.8530    1.0220 C   0  0  0  0  0  0  0  0  0  0  0  0
   -3.7040   15.1280    1.7350 N   0  0  0  0  0  0  0  0  0  0  0  0
   -4.8590   15.2540    0.8900 C   0  0  0  0  0  0  0  0  0  0  0  0
  1  2  1  0
  2  3  1  0
  2  4  2  0
  4  5  1  0
  3  6  2  0
  5  6  1  0
  6  7  1  0
  5  8  1  0
  8  9  1  0
  9 10  1  0
 10 11  2  0
 10 12  1  0
 12 13  1  0
 13 14  1  0
 14 15  2  0
 14 16  1  0
 15 17  1  0
 16 18  2  0
 17 19  2  0
 18 19  1  0
 19 20  1  0
 20 21  1  0
M  END
