x0626_0_A-x0895_1_A
     RDKit          3D

 11 11  0  0  0  0  0  0  0  0999 V2000
   -4.8960   14.9130    1.4340 N   0  0  0  0  0  0  0  0  0  0  0  0
   -6.0190   14.7290    0.6580 C   0  0  0  0  0  0  0  0  0  0  0  0
   -6.1260   14.8410   -0.5580 O   0  0  0  0  0  0  0  0  0  0  0  0
   -3.6320   14.8140    0.9250 C   0  0  0  0  0  0  0  0  0  0  0  0
   -7.2040   14.3470    1.5320 C   0  0  0  0  0  0  0  0  0  0  0  0
   -2.4840   14.6710    1.5580 N   0  0  0  0  0  0  0  0  0  0  0  0
   -3.5540   14.8830   -0.7850 S   0  0  0  0  0  0  0  0  0  0  0  0
   -8.5390   14.6580    0.8760 C   0  0  0  0  0  0  0  0  0  0  0  0
   -1.8520   14.6950   -0.6830 C   0  0  0  0  0  0  0  0  0  0  0  0
   -1.4650   14.6020    0.6400 C   0  0  0  0  0  0  0  0  0  0  0  0
   -0.0950   14.4360    1.1490 C   0  0  0  0  0  0  0  0  0  0  0  0
  1  2  1  0
  2  3  2  0
  1  4  1  0
  2  5  1  0
  4  6  2  0
  4  7  1  0
  5  8  1  0
  7  9  1  0
  6 10  1  0
  9 10  2  0
 10 11  1  0
M  END
