x0628_0_A-x0926_0_A
     RDKit          3D

 21 22  0  0  0  0  0  0  0  0999 V2000
   -0.7420    8.9970   -7.1520 C   0  0  0  0  0  0  0  0  0  0  0  0
   -0.8650   10.2360   -6.3590 C   0  0  0  0  0  0  0  0  0  0  0  0
   -1.9690   10.5340   -5.6130 N   0  0  0  0  0  0  0  0  0  0  0  0
    0.0990   11.1550   -6.3130 N   0  0  0  0  0  0  0  0  0  0  0  0
   -0.4310   12.0820   -5.4880 N   0  0  0  0  0  0  0  0  0  0  0  0
   -1.6890   11.7060   -5.0640 C   0  0  0  0  0  0  0  0  0  0  0  0
   -2.6030   12.4820   -4.1470 C   0  0  0  0  0  0  0  0  0  0  0  0
    0.3470   13.2650   -5.1860 C   0  0  0  0  0  0  0  0  0  0  0  0
    1.5600   12.9430   -4.3310 C   0  0  0  0  0  0  0  0  0  0  0  0
   -1.9470   13.2020   -2.9570 C   0  0  0  0  0  0  0  0  0  0  0  0
    1.1370   12.2170   -3.0870 C   0  0  0  0  0  0  0  0  0  0  0  0
   -2.4690   14.6400   -2.7790 C   0  0  0  0  0  0  0  0  0  0  0  0
    0.4880   11.1900   -3.0050 O   0  0  0  0  0  0  0  0  0  0  0  0
    1.5560   12.8420   -1.9740 O   0  0  0  0  0  0  0  0  0  0  0  0
   -3.1670   14.8760   -1.4970 N   0  0  0  0  0  0  0  0  0  0  0  0
   -2.5700   14.7470   -0.2590 C   0  0  0  0  0  0  0  0  0  0  0  0
   -4.5360   15.1860   -1.5770 N   0  0  0  0  0  0  0  0  0  0  0  0
   -3.2060   14.9500    0.8960 C   0  0  0  0  0  0  0  0  0  0  0  0
   -5.3300   15.1830   -0.4560 C   0  0  0  0  0  0  0  0  0  0  0  0
   -6.5560   15.0400   -0.5540 O   0  0  0  0  0  0  0  0  0  0  0  0
   -4.6340   15.3440    0.8950 C   0  0  0  0  0  0  0  0  0  0  0  0
  1  2  1  0
  2  3  1  0
  2  4  2  0
  4  5  1  0
  3  6  2  0
  5  6  1  0
  6  7  1  0
  5  8  1  0
  8  9  1  0
  7 10  1  0
  9 11  1  0
 10 12  1  0
 11 13  2  0
 11 14  1  0
 12 15  1  0
 15 16  1  0
 15 17  1  0
 16 18  2  0
 17 19  1  0
 19 20  2  0
 18 21  1  0
 19 21  1  0
M  END
