x0628_0_A-x0837_0_A
     RDKit          3D

 21 22  0  0  0  0  0  0  0  0999 V2000
   -0.8580    8.9540   -7.4340 C   0  0  0  0  0  0  0  0  0  0  0  0
   -0.8740   10.1240   -6.5230 C   0  0  0  0  0  0  0  0  0  0  0  0
   -1.7580   10.4180   -5.5510 N   0  0  0  0  0  0  0  0  0  0  0  0
    0.0210   11.1250   -6.5090 N   0  0  0  0  0  0  0  0  0  0  0  0
   -0.2980   11.9930   -5.5650 N   0  0  0  0  0  0  0  0  0  0  0  0
   -1.4400   11.5630   -4.9290 C   0  0  0  0  0  0  0  0  0  0  0  0
   -2.1480   12.2300   -3.8030 C   0  0  0  0  0  0  0  0  0  0  0  0
    0.4080   13.2100   -5.2170 C   0  0  0  0  0  0  0  0  0  0  0  0
    1.5880   12.9610   -4.2850 C   0  0  0  0  0  0  0  0  0  0  0  0
   -3.0540   13.3570   -4.2050 C   0  0  0  0  0  0  0  0  0  0  0  0
    1.1460   12.3600   -3.0070 C   0  0  0  0  0  0  0  0  0  0  0  0
   -3.2010   14.9200   -2.8360 I   0  0  0  0  0  0  0  0  0  0  0  0
    0.6670   11.2120   -2.9700 O   0  0  0  0  0  0  0  0  0  0  0  0
    1.2420   13.0390   -1.7960 O   0  0  0  0  0  0  0  0  0  0  0  0
   -4.2170   14.5120   -1.0300 C   0  0  1  0  0  0  0  0  0  0  0  0
   -3.5790   15.0290    0.1960 C   0  0  0  0  0  0  0  0  0  0  0  0
   -5.6220   14.9810   -1.1330 C   0  0  0  0  0  0  0  0  0  0  0  0
   -4.2510   15.1840    1.3100 C   0  0  0  0  0  0  0  0  0  0  0  0
   -6.3310   14.8390    0.1440 C   0  0  0  0  0  0  0  0  0  0  0  0
   -7.5780   14.7070    0.1550 O   0  0  0  0  0  0  0  0  0  0  0  0
   -5.6290   14.8530    1.3790 N   0  0  0  0  0  0  0  0  0  0  0  0
  1  2  1  0
  2  3  1  0
  2  4  2  0
  4  5  1  0
  3  6  2  0
  5  6  1  0
  6  7  1  0
  5  8  1  0
  8  9  1  0
  7 10  1  0
  9 11  1  0
 10 12  1  0
 11 13  2  0
 11 14  1  0
 15 12  1  6
 15 16  1  0
 15 17  1  0
 16 18  2  0
 17 19  1  0
 19 20  2  0
 18 21  1  0
 19 21  1  0
M  END
