x0628_0_A-x0104_0_A
     RDKit          3D

 31 33  0  0  0  0  0  0  0  0999 V2000
   -0.7780    8.9370   -7.1780 C   0  0  0  0  0  0  0  0  0  0  0  0
   -0.8390   10.1890   -6.4030 C   0  0  0  0  0  0  0  0  0  0  0  0
   -1.9260   10.5400   -5.6490 N   0  0  0  0  0  0  0  0  0  0  0  0
    0.1630   11.0700   -6.3800 N   0  0  0  0  0  0  0  0  0  0  0  0
   -0.3200   12.0220   -5.5650 N   0  0  0  0  0  0  0  0  0  0  0  0
   -1.5820   11.7030   -5.1270 C   0  0  0  0  0  0  0  0  0  0  0  0
   -2.4180   12.5460   -4.2190 C   0  0  0  0  0  0  0  0  0  0  0  0
    0.4940   13.1880   -5.2740 C   0  0  0  0  0  0  0  0  0  0  0  0
    1.5960   12.9270   -4.2540 C   0  0  0  0  0  0  0  0  0  0  0  0
   -2.1480   12.2930   -2.7350 C   0  0  0  0  0  0  0  0  0  0  0  0
    1.0970   12.2510   -3.0030 C   0  0  0  0  0  0  0  0  0  0  0  0
   -2.9220   13.2340   -1.7920 C   0  0  0  0  0  0  0  0  0  0  0  0
    0.5840   11.1480   -2.9220 O   0  0  0  0  0  0  0  0  0  0  0  0
    1.2710   12.9950   -1.9000 O   0  0  0  0  0  0  0  0  0  0  0  0
   -3.1910   14.6440   -2.3420 C   0  0  0  0  0  0  0  0  0  0  0  0
   -4.5940   14.8990   -2.3070 O   0  0  0  0  0  0  0  0  0  0  0  0
   -5.1190   14.8240   -1.0350 C   0  0  0  0  0  0  0  0  0  0  0  0
   -4.3020   14.8090    0.0410 N   0  0  0  0  0  0  0  0  0  0  0  0
   -6.4970   14.7640   -0.9500 C   0  0  0  0  0  0  0  0  0  0  0  0
   -4.9050   14.7350    1.2540 C   0  0  0  0  0  0  0  0  0  0  0  0
   -7.0850   14.6840    0.3090 C   0  0  0  0  0  0  0  0  0  0  0  0
   -6.2880   14.6700    1.4510 C   0  0  0  0  0  0  0  0  0  0  0  0
   -6.8100   14.6010    2.7630 N   0  0  0  0  0  0  0  0  0  0  0  0
   -8.0300   15.0880    3.2030 C   0  0  0  0  0  0  0  0  0  0  0  0
   -8.0340   15.0790    4.5890 N   0  0  0  0  0  0  0  0  0  0  0  0
   -8.9400   15.4550    2.4730 O   0  0  0  0  0  0  0  0  0  0  0  0
   -9.1800   15.0670    5.3700 C   0  0  0  0  0  0  0  0  0  0  0  0
   -9.2350   15.1760    6.7440 C   0  0  0  0  0  0  0  0  0  0  0  0
  -10.7300   14.9130    4.6870 S   0  0  0  0  0  0  0  0  0  0  0  0
  -11.4930   14.9870    6.2150 C   0  0  0  0  0  0  0  0  0  0  0  0
  -10.5780   15.1290    7.2350 C   0  0  0  0  0  0  0  0  0  0  0  0
  1  2  1  0
  2  3  1  0
  2  4  2  0
  4  5  1  0
  3  6  2  0
  5  6  1  0
  6  7  1  0
  5  8  1  0
  8  9  1  0
  7 10  1  0
  9 11  1  0
 10 12  1  0
 11 13  2  0
 11 14  1  0
 12 15  1  0
 15 16  1  0
 16 17  1  0
 17 18  2  0
 17 19  1  0
 18 20  1  0
 19 21  2  0
 20 22  2  0
 21 22  1  0
 22 23  1  0
 23 24  1  0
 24 25  1  0
 24 26  2  0
 25 27  1  0
 27 28  2  0
 27 29  1  0
 29 30  1  0
 28 31  1  0
 30 31  2  0
M  END
