x0628_0_A_α-x0685_1_A_α
     RDKit          3D

 19 20  0  0  0  0  0  0  0  0999 V2000
    0.9140   10.1440   -8.3140 C   0  0  0  0  0  0  0  0  0  0  0  0
    0.4640   10.9290   -7.1530 C   0  0  0  0  0  0  0  0  0  0  0  0
   -0.6650   10.6400   -6.4710 N   0  0  0  0  0  0  0  0  0  0  0  0
    1.1360   11.9770   -6.6870 N   0  0  0  0  0  0  0  0  0  0  0  0
    0.3700   12.3590   -5.6540 N   0  0  0  0  0  0  0  0  0  0  0  0
   -0.7160   11.5470   -5.5270 C   0  0  0  0  0  0  0  0  0  0  0  0
   -1.7980   11.6220   -4.5220 C   0  0  0  0  0  0  0  0  0  0  0  0
    0.7790   13.5000   -4.8720 C   0  0  0  0  0  0  0  0  0  0  0  0
    1.7950   13.1140   -3.8140 C   0  0  0  0  0  0  0  0  0  0  0  0
   -2.6460   10.4430   -4.6890 N   0  0  0  0  0  0  0  0  0  0  0  0
    1.1040   12.3980   -2.6890 C   0  0  0  0  0  0  0  0  0  0  0  0
   -2.4930    9.6720   -5.9440 C   0  0  0  0  0  0  0  0  0  0  0  0
    0.6850   11.2540   -2.7080 O   0  0  0  0  0  0  0  0  0  0  0  0
    0.9630   13.1590   -1.5940 O   0  0  0  0  0  0  0  0  0  0  0  0
   -1.2960    8.6660   -5.9310 C   0  0  0  0  0  0  0  0  0  0  0  0
   -2.6750   10.5590   -7.2060 C   0  0  0  0  0  0  0  0  0  0  0  0
   -0.7170    8.2300   -7.2880 C   0  0  0  0  0  0  0  0  0  0  0  0
   -1.9670   10.0850   -8.4840 C   0  0  0  0  0  0  0  0  0  0  0  0
   -1.5750    8.6090   -8.4820 C   0  0  0  0  0  0  0  0  0  0  0  0
  1  2  1  0
  2  3  1  0
  2  4  2  0
  4  5  1  0
  3  6  2  0
  5  6  1  0
  6  7  1  0
  5  8  1  0
  8  9  1  0
  7 10  1  0
  9 11  1  0
 10 12  1  0
 11 13  2  0
 11 14  1  0
 12 15  1  0
 12 16  1  0
 15 17  1  0
 16 18  1  0
 17 19  1  0
 18 19  1  0
M  END
