x0628_0_A_α-x1012_0_A_α
     RDKit          3D

 21 22  0  0  0  0  0  0  0  0999 V2000
   -0.9500    8.8810   -7.5480 C   0  0  0  0  0  0  0  0  0  0  0  0
   -0.7870   10.0410   -6.6550 C   0  0  0  0  0  0  0  0  0  0  0  0
   -1.7410   10.4080   -5.7610 N   0  0  0  0  0  0  0  0  0  0  0  0
    0.3020   10.8010   -6.6690 N   0  0  0  0  0  0  0  0  0  0  0  0
    0.0410   11.7130   -5.7120 N   0  0  0  0  0  0  0  0  0  0  0  0
   -1.2220   11.4620   -5.1660 C   0  0  0  0  0  0  0  0  0  0  0  0
   -1.9240   12.2080   -4.1040 C   0  0  0  0  0  0  0  0  0  0  0  0
    1.0990   12.7150   -5.4830 C   0  0  0  0  0  0  0  0  0  0  0  0
    1.8270   12.7100   -4.1050 C   0  0  0  0  0  0  0  0  0  0  0  0
    0.8280   12.7010   -2.9670 C   0  0  0  0  0  0  0  0  0  0  0  0
    0.2640   11.4160   -2.8100 O   0  0  0  0  0  0  0  0  0  0  0  0
    1.5180   13.0550   -1.7840 O   0  0  0  0  0  0  0  0  0  0  0  0
   -0.0210   13.8610   -3.5220 C   0  0  0  0  0  0  0  0  0  0  0  0
   -1.3290   14.3770   -2.9650 C   0  0  0  0  0  0  0  0  0  0  0  0
    0.8540   15.1070   -3.6680 C   0  0  0  0  0  0  0  0  0  0  0  0
   -1.9630   15.1930   -4.1100 C   0  0  0  0  0  0  0  0  0  0  0  0
    0.3960   15.8540   -4.8940 C   0  0  0  0  0  0  0  0  0  0  0  0
   -1.0320   16.1570   -4.7760 N   0  0  0  0  0  0  0  0  0  0  0  0
   -1.3340   17.4830   -4.8190 C   0  0  0  0  0  0  0  0  0  0  0  0
   -0.3010   18.3320   -4.6860 N   0  0  0  0  0  0  0  0  0  0  0  0
   -2.4400   17.9240   -4.9440 O   0  0  0  0  0  0  0  0  0  0  0  0
  1  2  1  0
  2  3  1  0
  2  4  2  0
  4  5  1  0
  3  6  2  0
  5  6  1  0
  6  7  1  0
  5  8  1  0
  8  9  1  0
  9 10  1  0
 10 11  1  0
 10 12  1  0
 10 13  1  0
 13 14  1  0
 13 15  1  0
 14 16  1  0
 15 17  1  0
 16 18  1  0
 17 18  1  0
 18 19  1  0
 19 20  1  0
 19 21  2  0
M  END
