x0628_0_A-x0864_0_A
     RDKit          3D

 13 13  0  0  0  0  0  0  0  0999 V2000
   -0.7660    9.0030   -7.3390 C   0  0  0  0  0  0  0  0  0  0  0  0
   -0.8140   10.1920   -6.4890 C   0  0  0  0  0  0  0  0  0  0  0  0
   -1.8740   10.5130   -5.6200 N   0  0  0  0  0  0  0  0  0  0  0  0
    0.1800   11.0930   -6.4730 N   0  0  0  0  0  0  0  0  0  0  0  0
    1.2790   11.2210   -7.0550 O   0  0  0  0  0  0  0  0  0  0  0  0
   -0.2820   12.0710   -5.5090 N   0  0  0  0  0  0  0  0  0  0  0  0
   -1.5240   11.6680   -5.0290 C   0  0  0  0  0  0  0  0  0  0  0  0
   -2.3210   12.4100   -4.0230 C   0  0  0  0  0  0  0  0  0  0  0  0
    0.4970   13.2420   -5.1730 C   0  0  0  0  0  0  0  0  0  0  0  0
    1.6110   12.9420   -4.1750 C   0  0  0  0  0  0  0  0  0  0  0  0
    1.0690   12.2670   -2.9390 C   0  0  0  0  0  0  0  0  0  0  0  0
    0.5750   11.1520   -2.8950 O   0  0  0  0  0  0  0  0  0  0  0  0
    1.1780   13.0320   -1.8330 O   0  0  0  0  0  0  0  0  0  0  0  0
  1  2  1  0
  2  3  1  0
  2  4  2  0
  4  5  1  0
  4  6  1  0
  3  7  2  0
  6  7  1  0
  7  8  1  0
  6  9  1  0
  9 10  1  0
 10 11  1  0
 11 12  2  0
 11 13  1  0
M  CHG  2   4   1   5  -1
M  END
