x0631_0_A_β-x0253_0_A_α
     RDKit          3D

 15 15  0  0  0  0  0  0  0  0999 V2000
   -0.0990    8.6730   -6.8230 C   0  0  0  0  0  0  0  0  0  0  0  0
   -1.3840    8.2110   -7.5110 C   0  0  0  0  0  0  0  0  0  0  0  0
   -2.4860    9.2580   -7.5130 C   0  0  0  0  0  0  0  0  0  0  0  0
    0.7800    9.5820   -7.6000 N   0  0  0  0  0  0  0  0  0  0  0  0
    0.7350    9.2350   -9.0140 N   0  0  0  0  0  0  0  0  0  0  0  0
    0.4440   10.9350   -7.5000 N   0  0  0  0  0  0  0  0  0  0  0  0
    1.1060   11.7300   -6.5420 C   0  0  0  0  0  0  0  0  0  0  0  0
    0.8540   10.5210   -9.6850 C   0  0  0  0  0  0  0  0  0  0  0  0
    0.2080   11.4730   -8.7850 N   0  0  0  0  0  0  0  0  0  0  0  0
    0.3520   12.0140   -5.4390 N   0  0  0  0  0  0  0  0  0  0  0  0
    2.2440   12.1700   -6.5780 O   0  0  0  0  0  0  0  0  0  0  0  0
    0.9480   12.8000   -4.3760 C   0  0  0  0  0  0  0  0  0  0  0  0
    0.8330   12.2570   -2.9530 C   0  0  0  0  0  0  0  0  0  0  0  0
    1.1720   12.8980   -1.9700 O   0  0  0  0  0  0  0  0  0  0  0  0
    0.3260   11.0140   -2.8400 O   0  0  0  0  0  0  0  0  0  0  0  0
  1  2  1  0
  2  3  1  0
  1  4  1  0
  4  5  1  0
  4  6  1  0
  6  7  1  0
  5  8  1  0
  6  9  1  0
  8  9  1  0
  7 10  1  0
  7 11  2  0
 10 12  1  0
 12 13  1  0
 13 14  2  0
 13 15  1  0
M  END
