x0631_0_A_β-x0722_0_A_α
     RDKit          3D

 26 27  0  0  0  0  0  0  0  0999 V2000
   -0.1180    8.4880   -6.8220 C   0  0  0  0  0  0  0  0  0  0  0  0
   -1.5560    7.9790   -6.8440 C   0  0  0  0  0  0  0  0  0  0  0  0
   -2.5890    9.1030   -7.0040 C   0  0  0  0  0  0  0  0  0  0  0  0
    0.0730    9.5430   -7.8270 N   0  0  0  0  0  0  0  0  0  0  0  0
    0.9220    9.1810   -8.9120 N   0  0  0  0  0  0  0  0  0  0  0  0
    0.6160   10.7510   -7.3410 N   0  0  0  0  0  0  0  0  0  0  0  0
   -2.3570   10.3270   -6.0960 C   0  0  0  0  0  0  0  0  0  0  0  0
    1.0110   10.4660   -9.5920 C   0  0  0  0  0  0  0  0  0  0  0  0
    0.7320   11.4840   -8.5690 N   0  0  0  0  0  0  0  0  0  0  0  0
   -2.0250    9.9770   -4.6350 C   0  0  0  0  0  0  0  0  0  0  0  0
   -0.5870   10.2740   -4.1860 C   0  0  0  0  0  0  0  0  0  0  0  0
   -0.4540   10.8650   -2.7750 C   0  0  0  0  0  0  0  0  0  0  0  0
   -0.1260   12.3660   -2.8330 C   0  0  0  0  0  0  0  0  0  0  0  0
   -0.4750   13.1110   -1.5400 C   0  0  0  0  0  0  0  0  0  0  0  0
   -1.5860   14.1630   -1.7050 C   0  0  0  0  0  0  0  0  0  0  0  0
   -2.2020   14.5680   -0.4000 C   0  0  0  0  0  0  0  0  0  0  0  0
   -3.4750   15.0620   -0.1040 C   0  0  0  0  0  0  0  0  0  0  0  0
   -1.5390   14.5160    0.8080 N   0  0  0  0  0  0  0  0  0  0  0  0
   -0.2010   14.1070    1.1350 C   0  0  0  0  0  0  0  0  0  0  0  0
   -4.6360   15.3460   -1.0120 C   0  0  0  0  0  0  0  0  0  0  0  0
   -2.2770   14.9210    1.8210 N   0  0  0  0  0  0  0  0  0  0  0  0
   -3.4270   15.2550    1.2970 C   0  0  0  0  0  0  0  0  0  0  0  0
   -4.4420   15.7690    2.1960 C   0  0  0  0  0  0  0  0  0  0  0  0
   -5.9460   14.6640   -0.6340 C   0  0  0  0  0  0  0  0  0  0  0  0
   -7.0430   15.1970   -0.7820 O   0  0  0  0  0  0  0  0  0  0  0  0
   -5.8850   13.4000   -0.1130 N   0  0  0  0  0  0  0  0  0  0  0  0
  1  2  1  0
  2  3  1  0
  1  4  1  0
  4  5  1  0
  4  6  1  0
  3  7  1  0
  5  8  1  0
  6  9  1  0
  8  9  1  0
  7 10  1  0
 10 11  1  0
 11 12  1  0
 12 13  1  0
 13 14  1  0
 14 15  1  0
 15 16  1  0
 16 17  2  0
 16 18  1  0
 18 19  1  0
 17 20  1  0
 18 21  1  0
 17 22  1  0
 21 22  2  0
 22 23  1  0
 20 24  1  0
 24 25  2  0
 24 26  1  0
M  END
