x0631_0_A_β-x0104_0_A_β
     RDKit          3D

 22 23  0  0  0  0  0  0  0  0999 V2000
   -0.2550    8.4750   -6.7830 C   0  0  0  0  0  0  0  0  0  0  0  0
   -1.6840    7.9610   -6.6840 C   0  0  0  0  0  0  0  0  0  0  0  0
   -2.6920    9.1210   -6.6940 C   0  0  0  0  0  0  0  0  0  0  0  0
   -0.1560    9.5130   -7.8160 N   0  0  0  0  0  0  0  0  0  0  0  0
    0.7600    9.1960   -8.8660 N   0  0  0  0  0  0  0  0  0  0  0  0
    0.2440   10.7680   -7.2640 N   0  0  0  0  0  0  0  0  0  0  0  0
   -2.3330   10.2390   -5.6930 C   0  0  0  0  0  0  0  0  0  0  0  0
    1.0280   10.5060   -9.3980 C   0  0  0  0  0  0  0  0  0  0  0  0
    1.1860   11.2940   -8.1930 N   0  0  0  0  0  0  0  0  0  0  0  0
   -2.9760   10.1270   -4.2950 C   0  0  0  0  0  0  0  0  0  0  0  0
   -2.2470   10.9080   -3.1890 C   0  0  0  0  0  0  0  0  0  0  0  0
   -3.0370   12.1100   -2.6300 C   0  0  0  0  0  0  0  0  0  0  0  0
   -2.9310   13.4270   -3.4160 C   0  0  0  0  0  0  0  0  0  0  0  0
   -3.2630   14.6920   -2.6070 C   0  0  0  0  0  0  0  0  0  0  0  0
   -4.6760   14.8750   -2.4930 O   0  0  0  0  0  0  0  0  0  0  0  0
   -5.1750   14.8380   -1.2060 C   0  0  0  0  0  0  0  0  0  0  0  0
   -4.3420   14.8960   -0.1480 N   0  0  0  0  0  0  0  0  0  0  0  0
   -6.5510   14.7350   -1.0990 C   0  0  0  0  0  0  0  0  0  0  0  0
   -4.9250   14.8540    1.0710 C   0  0  0  0  0  0  0  0  0  0  0  0
   -7.1190   14.6880    0.1720 C   0  0  0  0  0  0  0  0  0  0  0  0
   -6.2970   14.7500    1.2910 C   0  0  0  0  0  0  0  0  0  0  0  0
   -6.8370   14.7130    2.5750 N   0  0  0  0  0  0  0  0  0  0  0  0
  1  2  1  0
  2  3  1  0
  1  4  1  0
  4  5  1  0
  4  6  1  0
  3  7  1  0
  5  8  1  0
  6  9  1  0
  8  9  1  0
  7 10  1  0
 10 11  1  0
 11 12  1  0
 12 13  1  0
 13 14  1  0
 14 15  1  0
 15 16  1  0
 16 17  2  0
 16 18  1  0
 17 19  1  0
 18 20  2  0
 19 21  2  0
 20 21  1  0
 21 22  1  0
M  END
