x0631_0_A_β-x0962_3_A_α
     RDKit          3D

 14 15  0  0  0  0  0  0  0  0999 V2000
    0.7030    7.9620   -7.4200 C   0  0  0  0  0  0  0  0  0  0  0  0
   -0.5720    7.3350   -7.9860 C   0  0  0  0  0  0  0  0  0  0  0  0
   -1.6400    7.1650   -6.9170 C   0  0  0  0  0  0  0  0  0  0  0  0
    1.3510    9.0400   -8.2130 N   0  0  0  0  0  0  0  0  0  0  0  0
    0.8440    9.3280   -9.5420 N   0  0  0  0  0  0  0  0  0  0  0  0
    1.3570   10.2650   -7.4750 N   0  0  0  0  0  0  0  0  0  0  0  0
    0.6910   10.8110   -9.5120 C   0  0  0  0  0  0  0  0  0  0  0  0
    0.2830   10.9570   -8.0490 C   0  0  1  0  0  0  0  0  0  0  0  0
   -0.9590   10.2530   -7.7780 C   0  0  0  0  0  0  0  0  0  0  0  0
    0.3390   12.2080   -7.3470 N   0  0  0  0  0  0  0  0  0  0  0  0
   -1.5480    9.4730   -8.7320 N   0  0  0  0  0  0  0  0  0  0  0  0
   -1.7830   10.1630   -6.6830 C   0  0  0  0  0  0  0  0  0  0  0  0
   -2.6810    8.9540   -8.1950 C   0  0  0  0  0  0  0  0  0  0  0  0
   -2.8510    9.3530   -6.9540 N   0  0  0  0  0  0  0  0  0  0  0  0
  1  2  1  0
  2  3  1  0
  1  4  1  0
  4  5  1  0
  4  6  1  0
  5  7  1  0
  6  8  1  0
  7  8  1  0
  8  9  1  0
  8 10  1  1
  9 11  1  0
  9 12  2  0
 11 13  1  0
 12 14  1  0
 13 14  2  0
M  END
