x0631_0_A-x0855_0_A
     RDKit          3D

 25 27  0  0  0  0  0  0  0  0999 V2000
   -2.3250    9.2070   -6.9770 C   0  0  0  0  0  0  0  0  0  0  0  0
   -1.2620    8.2730   -7.5690 C   0  0  0  0  0  0  0  0  0  0  0  0
    0.1520    8.4310   -7.0030 C   0  0  0  0  0  0  0  0  0  0  0  0
   -1.8070   10.3110   -6.1110 C   0  0  0  0  0  0  0  0  0  0  0  0
   -0.5120   10.7550   -5.9250 C   0  0  0  0  0  0  0  0  0  0  0  0
   -2.5630   11.1660   -5.2720 C   0  0  0  0  0  0  0  0  0  0  0  0
    0.9970    9.4220   -7.7230 N   0  0  0  0  0  0  0  0  0  0  0  0
   -0.5620   11.7880   -5.0470 N   0  0  0  0  0  0  0  0  0  0  0  0
   -1.8110   12.0620   -4.6270 N   0  0  0  0  0  0  0  0  0  0  0  0
    0.5580   12.5610   -4.5660 C   0  0  0  0  0  0  0  0  0  0  0  0
    0.4640   10.7380   -7.5760 N   0  0  0  0  0  0  0  0  0  0  0  0
    1.0680    9.1290   -9.1270 N   0  0  0  0  0  0  0  0  0  0  0  0
    0.9020   12.1820   -3.1660 C   0  0  0  0  0  0  0  0  0  0  0  0
    0.5830   11.3980   -8.8490 N   0  0  0  0  0  0  0  0  0  0  0  0
    0.7110   10.3440   -9.8400 C   0  0  1  0  0  0  0  0  0  0  0  0
    1.7590   10.6590  -10.7450 N   0  0  0  0  0  0  0  0  0  0  0  0
    1.4860   13.1720   -2.4640 O   0  0  0  0  0  0  0  0  0  0  0  0
    0.6950   11.0990   -2.6410 O   0  0  0  0  0  0  0  0  0  0  0  0
    2.3800    9.6030  -11.5240 C   0  0  1  0  0  0  0  0  0  0  0  0
    1.5370    8.4800  -11.4440 O   0  0  0  0  0  0  0  0  0  0  0  0
    2.6680    9.9610  -13.0000 C   0  0  2  0  0  0  0  0  0  0  0  0
    4.0020    9.5680  -13.3630 O   0  0  0  0  0  0  0  0  0  0  0  0
    2.5870   11.4510  -13.3280 C   0  0  0  0  0  0  0  0  0  0  0  0
    3.5490   11.6210  -14.4850 C   0  0  0  0  0  0  0  0  0  0  0  0
    4.3730   10.3450  -14.5010 C   0  0  0  0  0  0  0  0  0  0  0  0
  1  2  1  0
  2  3  1  0
  1  4  1  0
  4  5  2  0
  4  6  1  0
  3  7  1  0
  5  8  1  0
  6  9  2  0
  8  9  1  0
  8 10  1  0
  7 11  1  0
  7 12  1  0
 10 13  1  0
 11 14  1  0
 12 15  1  0
 14 15  1  0
 15 16  1  6
 13 17  1  0
 13 18  2  0
 16 19  1  0
 19 20  1  6
 19 21  1  0
 21 22  1  0
 21 23  1  1
 23 24  1  0
 22 25  1  0
 24 25  1  0
M  END
