x0631_0_A_β-x1015_0_A_α
     RDKit          3D

 22 24  0  0  0  0  0  0  0  0999 V2000
   -0.0010    8.1660   -7.2000 C   0  0  0  0  0  0  0  0  0  0  0  0
   -1.3670    7.8680   -7.8590 C   0  0  0  0  0  0  0  0  0  0  0  0
   -2.2640    9.0990   -7.9360 C   0  0  0  0  0  0  0  0  0  0  0  0
    0.9190    9.1230   -7.8450 N   0  0  0  0  0  0  0  0  0  0  0  0
    0.9250    9.0830   -9.2680 N   0  0  0  0  0  0  0  0  0  0  0  0
    0.7100   10.4540   -7.4380 N   0  0  0  0  0  0  0  0  0  0  0  0
    0.9430   10.4720   -9.7050 C   0  0  0  0  0  0  0  0  0  0  0  0
    1.1610   11.2630   -8.5150 N   0  0  0  0  0  0  0  0  0  0  0  0
   -1.7160   10.0020   -6.8890 C   0  0  0  0  0  0  0  0  0  0  0  0
   -1.0250   11.1740   -7.2070 C   0  0  0  0  0  0  0  0  0  0  0  0
   -1.8930    9.6440   -5.5670 C   0  0  0  0  0  0  0  0  0  0  0  0
   -0.5050   11.9730   -6.1810 C   0  0  0  0  0  0  0  0  0  0  0  0
   -1.3800   10.4380   -4.5570 C   0  0  0  0  0  0  0  0  0  0  0  0
   -0.6760   11.6090   -4.8450 C   0  0  0  0  0  0  0  0  0  0  0  0
   -0.1630   12.3730   -3.7860 N   0  0  0  0  0  0  0  0  0  0  0  0
    0.0160   13.8120   -3.8480 C   0  0  1  0  0  0  0  0  0  0  0  0
    0.2720   11.8490   -2.5580 C   0  0  0  0  0  0  0  0  0  0  0  0
   -1.2700   14.5710   -4.1690 C   0  0  0  0  0  0  0  0  0  0  0  0
    0.3170   10.6730   -2.1810 O   0  0  0  0  0  0  0  0  0  0  0  0
    0.6630   12.8990   -1.7920 N   0  0  0  0  0  0  0  0  0  0  0  0
    0.4070   14.0800   -2.4030 C   0  0  0  0  0  0  0  0  0  0  0  0
    0.4880   15.1710   -1.8680 O   0  0  0  0  0  0  0  0  0  0  0  0
  1  2  1  0
  2  3  1  0
  1  4  1  0
  4  5  1  0
  4  6  1  0
  5  7  1  0
  6  8  1  0
  7  8  1  0
  3  9  1  0
  9 10  2  0
  9 11  1  0
 10 12  1  0
 11 13  2  0
 12 14  2  0
 13 14  1  0
 14 15  1  0
 15 16  1  0
 15 17  1  0
 16 18  1  1
 17 19  2  0
 17 20  1  0
 16 21  1  0
 20 21  1  0
 21 22  2  0
M  END
