x0631_0_A_α-x0805_0_A_α
     RDKit          3D

 23 24  0  0  0  0  0  0  0  0999 V2000
    1.7900   10.9910  -10.5640 N   0  0  0  0  0  0  0  0  0  0  0  0
    1.8520    9.7800  -11.3430 C   0  0  1  0  0  0  0  0  0  0  0  0
    2.7970    8.9200  -10.7430 O   0  0  0  0  0  0  0  0  0  0  0  0
    0.4450    9.1580  -11.1980 C   0  0  0  0  0  0  0  0  0  0  0  0
    2.3130   10.0890  -12.8310 C   0  0  2  0  0  0  0  0  0  0  0  0
   -0.3890    9.6410   -9.9760 C   0  0  0  0  0  0  0  0  0  0  0  0
    3.6430    9.5660  -13.0810 O   0  0  0  0  0  0  0  0  0  0  0  0
    2.4400   11.5590  -13.2370 C   0  0  0  0  0  0  0  0  0  0  0  0
    0.2930    9.7550   -8.5860 C   0  0  0  0  0  0  0  0  0  0  0  0
    4.1770   10.2400  -14.2280 C   0  0  0  0  0  0  0  0  0  0  0  0
    3.4440   11.5600  -14.3700 C   0  0  0  0  0  0  0  0  0  0  0  0
   -0.0280   11.0520   -7.8100 C   0  0  0  0  0  0  0  0  0  0  0  0
   -0.7850   10.8490   -6.4740 C   0  0  0  0  0  0  0  0  0  0  0  0
   -1.1740   12.1100   -5.6690 C   0  0  0  0  0  0  0  0  0  0  0  0
   -2.4850   12.0040   -4.8450 C   0  0  0  0  0  0  0  0  0  0  0  0
   -2.6260   12.9310   -3.6430 C   0  0  0  0  0  0  0  0  0  0  0  0
   -1.5930   13.7860   -3.2480 C   0  0  0  0  0  0  0  0  0  0  0  0
   -3.8190   12.9480   -2.8880 C   0  0  0  0  0  0  0  0  0  0  0  0
   -3.9600   13.7960   -1.7780 C   0  0  0  0  0  0  0  0  0  0  0  0
   -1.7370   14.6280   -2.1400 C   0  0  0  0  0  0  0  0  0  0  0  0
   -2.9200   14.6430   -1.3950 C   0  0  0  0  0  0  0  0  0  0  0  0
   -3.1450   15.4360   -0.2960 O   0  0  0  0  0  0  0  0  0  0  0  0
   -4.3420   15.2810    0.4540 C   0  0  0  0  0  0  0  0  0  0  0  0
  2  1  1  1
  2  3  1  0
  2  4  1  0
  2  5  1  0
  4  6  1  0
  5  7  1  0
  5  8  1  1
  6  9  1  0
  7 10  1  0
  8 11  1  0
 10 11  1  0
  9 12  1  0
 12 13  1  0
 13 14  1  0
 14 15  1  0
 15 16  1  0
 16 17  2  0
 16 18  1  0
 18 19  2  0
 17 20  1  0
 19 21  1  0
 20 21  2  0
 21 22  1  0
 22 23  1  0
M  END
