x0631_0_A_α-x0253_0_A_α
     RDKit          3D

 23 24  0  0  0  0  0  0  0  0999 V2000
    1.8520   11.3160  -10.9400 N   0  0  0  0  0  0  0  0  0  0  0  0
    1.9200   10.0150  -11.5640 C   0  0  1  0  0  0  0  0  0  0  0  0
    2.8490    9.1870  -10.8540 O   0  0  0  0  0  0  0  0  0  0  0  0
    0.5290    9.4530  -11.2270 C   0  0  0  0  0  0  0  0  0  0  0  0
    2.4390   10.1630  -13.0280 C   0  0  2  0  0  0  0  0  0  0  0  0
    3.7290    9.5740  -13.2490 O   0  0  0  0  0  0  0  0  0  0  0  0
    2.5650   11.6050  -13.5080 C   0  0  0  0  0  0  0  0  0  0  0  0
    0.1310    9.6000   -9.7680 C   0  0  0  0  0  0  0  0  0  0  0  0
    4.3250   10.2180  -14.3770 C   0  0  0  0  0  0  0  0  0  0  0  0
    3.6380   11.5560  -14.5720 C   0  0  0  0  0  0  0  0  0  0  0  0
    0.7540   10.5440   -8.9000 C   0  0  0  0  0  0  0  0  0  0  0  0
   -0.8680    8.7930   -9.2380 C   0  0  0  0  0  0  0  0  0  0  0  0
   -1.2580    8.8910   -7.8970 C   0  0  0  0  0  0  0  0  0  0  0  0
    0.3630   10.6420   -7.5490 C   0  0  0  0  0  0  0  0  0  0  0  0
   -2.3370    7.9980   -7.3770 C   0  0  0  0  0  0  0  0  0  0  0  0
    0.9940   11.6080   -6.6100 C   0  0  0  0  0  0  0  0  0  0  0  0
   -0.6390    9.8170   -7.0530 C   0  0  0  0  0  0  0  0  0  0  0  0
    0.3330   12.0060   -5.4830 N   0  0  0  0  0  0  0  0  0  0  0  0
    2.1050   12.0440   -6.7940 O   0  0  0  0  0  0  0  0  0  0  0  0
    0.9280   12.8520   -4.4650 C   0  0  0  0  0  0  0  0  0  0  0  0
    0.8290   12.2800   -3.0500 C   0  0  0  0  0  0  0  0  0  0  0  0
    1.2100   12.8380   -2.0370 O   0  0  0  0  0  0  0  0  0  0  0  0
    0.2600   11.0540   -3.0160 O   0  0  0  0  0  0  0  0  0  0  0  0
  2  1  1  1
  2  3  1  0
  2  4  1  0
  2  5  1  0
  5  6  1  0
  5  7  1  1
  4  8  1  0
  6  9  1  0
  7 10  1  0
  9 10  1  0
  8 11  2  0
  8 12  1  0
 12 13  2  0
 11 14  1  0
 13 15  1  0
 14 16  1  0
 13 17  1  0
 14 17  2  0
 16 18  1  0
 16 19  2  0
 18 20  1  0
 20 21  1  0
 21 22  2  0
 21 23  1  0
M  END
