x0631_0_A_β-x0421_0_A_α
     RDKit          3D

 24 26  0  0  0  0  0  0  0  0999 V2000
   -0.3200    8.4910   -6.7470 C   0  0  0  0  0  0  0  0  0  0  0  0
   -1.7590    7.9850   -6.7070 C   0  0  0  0  0  0  0  0  0  0  0  0
   -2.7130    9.1390   -7.0300 C   0  0  0  0  0  0  0  0  0  0  0  0
   -0.1190    9.5370   -7.7620 N   0  0  0  0  0  0  0  0  0  0  0  0
    0.7970    9.1590   -8.8030 N   0  0  0  0  0  0  0  0  0  0  0  0
    0.2990   10.7900   -7.2420 N   0  0  0  0  0  0  0  0  0  0  0  0
   -2.9140   10.1260   -5.8670 C   0  0  0  0  0  0  0  0  0  0  0  0
    1.0290   10.4660   -9.3860 C   0  0  0  0  0  0  0  0  0  0  0  0
    1.1830   11.3020   -8.2180 N   0  0  0  0  0  0  0  0  0  0  0  0
   -2.2800   11.5220   -6.0060 C   0  0  0  0  0  0  0  0  0  0  0  0
   -3.1400   12.7520   -5.6480 C   0  0  0  0  0  0  0  0  0  0  0  0
   -2.3820   13.8850   -4.9300 C   0  0  0  0  0  0  0  0  0  0  0  0
   -3.2920   15.0250   -4.4490 C   0  0  0  0  0  0  0  0  0  0  0  0
   -3.7410   14.8980   -3.0770 N   0  0  0  0  0  0  0  0  0  0  0  0
   -2.8690   14.8330   -2.0060 C   0  0  0  0  0  0  0  0  0  0  0  0
   -1.6510   14.7720   -2.1490 O   0  0  0  0  0  0  0  0  0  0  0  0
   -3.5010   14.8320   -0.6770 C   0  0  0  0  0  0  0  0  0  0  0  0
   -2.8580   14.9240    0.5450 C   0  0  0  0  0  0  0  0  0  0  0  0
   -4.8730   14.7290   -0.4690 N   0  0  0  0  0  0  0  0  0  0  0  0
   -3.8440   14.8720    1.4750 N   0  0  0  0  0  0  0  0  0  0  0  0
   -5.0360   14.7540    0.8360 C   0  0  0  0  0  0  0  0  0  0  0  0
   -6.3970   14.6540    1.5830 C   0  0  0  0  0  0  0  0  0  0  0  0
   -7.6940   14.6630    0.8150 C   0  0  0  0  0  0  0  0  0  0  0  0
   -7.1980   13.3920    1.4420 C   0  0  0  0  0  0  0  0  0  0  0  0
  1  2  1  0
  2  3  1  0
  1  4  1  0
  4  5  1  0
  4  6  1  0
  3  7  1  0
  5  8  1  0
  6  9  1  0
  8  9  1  0
  7 10  1  0
 10 11  1  0
 11 12  1  0
 12 13  1  0
 13 14  1  0
 14 15  1  0
 15 16  2  0
 15 17  1  0
 17 18  2  0
 17 19  1  0
 18 20  1  0
 19 21  2  0
 20 21  1  0
 21 22  1  0
 22 23  1  0
 22 24  1  0
 23 24  1  0
M  END
