x0631_0_A_β-x0844_0_A_α
     RDKit          3D

 21 22  0  0  0  0  0  0  0  0999 V2000
   -0.2200    8.5700   -6.7390 C   0  0  0  0  0  0  0  0  0  0  0  0
   -1.6800    8.1250   -6.7710 C   0  0  0  0  0  0  0  0  0  0  0  0
   -2.7020    9.2550   -6.9810 C   0  0  0  0  0  0  0  0  0  0  0  0
    0.0100    9.5750   -7.7860 N   0  0  0  0  0  0  0  0  0  0  0  0
    0.8990    9.1460   -8.8280 N   0  0  0  0  0  0  0  0  0  0  0  0
    0.5750   10.7910   -7.3440 N   0  0  0  0  0  0  0  0  0  0  0  0
   -2.2550   10.6050   -6.4000 C   0  0  0  0  0  0  0  0  0  0  0  0
    1.0240   10.3920   -9.5740 C   0  0  0  0  0  0  0  0  0  0  0  0
    0.8180   11.4510   -8.5880 N   0  0  0  0  0  0  0  0  0  0  0  0
   -3.1900   11.2190   -5.3410 C   0  0  0  0  0  0  0  0  0  0  0  0
   -3.1030   12.7490   -5.1650 C   0  0  0  0  0  0  0  0  0  0  0  0
   -3.1270   13.2770   -3.7190 C   0  0  0  0  0  0  0  0  0  0  0  0
   -3.6460   14.7110   -3.5340 C   0  0  0  0  0  0  0  0  0  0  0  0
   -3.2800   15.2000   -2.2420 O   0  0  0  0  0  0  0  0  0  0  0  0
   -4.0890   14.6760   -1.1720 C   0  0  1  0  0  0  0  0  0  0  0  0
   -3.5380   15.0980    0.1570 C   0  0  0  0  0  0  0  0  0  0  0  0
   -5.5170   15.1850   -1.3290 C   0  0  0  0  0  0  0  0  0  0  0  0
   -4.3410   15.1560    1.2180 C   0  0  0  0  0  0  0  0  0  0  0  0
   -6.3490   14.9030   -0.1010 C   0  0  0  0  0  0  0  0  0  0  0  0
   -7.5710   14.7590   -0.1380 O   0  0  0  0  0  0  0  0  0  0  0  0
   -5.6580   14.8270    1.0850 N   0  0  0  0  0  0  0  0  0  0  0  0
  1  2  1  0
  2  3  1  0
  1  4  1  0
  4  5  1  0
  4  6  1  0
  3  7  1  0
  5  8  1  0
  6  9  1  0
  8  9  1  0
  7 10  1  0
 10 11  1  0
 11 12  1  0
 12 13  1  0
 13 14  1  0
 15 14  1  6
 15 16  1  0
 15 17  1  0
 16 18  2  0
 17 19  1  0
 19 20  2  0
 18 21  1  0
 19 21  1  0
M  END
