x0631_0_A-x0805_0_A
     RDKit          3D

 36 39  0  0  0  0  0  0  0  0999 V2000
   -2.7770    9.0190   -7.9250 C   0  0  0  0  0  0  0  0  0  0  0  0
   -1.6100    8.0650   -7.7240 C   0  0  0  0  0  0  0  0  0  0  0  0
   -0.5270    8.6270   -6.7870 C   0  0  2  0  0  0  0  0  0  0  0  0
   -1.2620    9.4610   -5.6840 C   0  0  0  0  0  0  0  0  0  0  0  0
    0.4950    9.4420   -7.5050 N   0  0  0  0  0  0  0  0  0  0  0  0
   -0.2970   10.0410   -4.6610 C   0  0  0  0  0  0  0  0  0  0  0  0
    0.2350   10.8340   -7.4250 N   0  0  0  0  0  0  0  0  0  0  0  0
    0.7530    9.1350   -8.9270 N   0  0  0  0  0  0  0  0  0  0  0  0
   -0.8890   10.7330   -3.4540 C   0  0  0  0  0  0  0  0  0  0  0  0
    1.0320   11.3330   -8.5020 N   0  0  0  0  0  0  0  0  0  0  0  0
    0.7460   10.4410   -9.6000 C   0  0  1  0  0  0  0  0  0  0  0  0
    1.7940   10.5900  -10.5960 N   0  0  0  0  0  0  0  0  0  0  0  0
    0.1980   10.8640   -2.5230 O   0  0  0  0  0  0  0  0  0  0  0  0
    2.0390    9.5940  -11.6270 C   0  0  2  0  0  0  0  0  0  0  0  0
    0.4000   12.1410   -2.0850 C   0  0  0  0  0  0  0  0  0  0  0  0
    2.6800    8.5120  -10.9630 O   0  0  0  0  0  0  0  0  0  0  0  0
    0.2690   12.4450   -0.9240 O   0  0  0  0  0  0  0  0  0  0  0  0
    3.0090   10.1230  -12.7300 C   0  0  1  0  0  0  0  0  0  0  0  0
    0.8120   13.2380   -3.0590 C   0  0  1  0  0  0  0  0  0  0  0  0
    3.1490    9.3090  -13.8910 O   0  0  0  0  0  0  0  0  0  0  0  0
    2.6370   11.4780  -13.3200 C   0  0  0  0  0  0  0  0  0  0  0  0
    1.4430   12.8940   -4.4050 C   0  0  0  0  0  0  0  0  0  0  0  0
   -0.2340   14.3410   -3.2720 C   0  0  2  0  0  0  0  0  0  0  0  0
    3.5380   11.5440  -14.5350 C   0  0  0  0  0  0  0  0  0  0  0  0
    4.0230   10.1090  -14.6970 C   0  0  0  0  0  0  0  0  0  0  0  0
   -1.6600   14.1340   -2.8110 C   0  0  0  0  0  0  0  0  0  0  0  0
    2.2260   14.0160   -4.8380 O   0  0  0  0  0  0  0  0  0  0  0  0
    0.0650   15.0720   -4.5670 C   0  0  0  0  0  0  0  0  0  0  0  0
   -2.6220   13.3610   -3.4770 C   0  0  0  0  0  0  0  0  0  0  0  0
   -2.0340   14.7630   -1.6410 C   0  0  0  0  0  0  0  0  0  0  0  0
    1.5630   15.2790   -4.6560 C   0  0  0  0  0  0  0  0  0  0  0  0
   -3.3020   14.6800   -1.1060 C   0  0  0  0  0  0  0  0  0  0  0  0
   -3.9180   13.2500   -2.9510 C   0  0  0  0  0  0  0  0  0  0  0  0
   -3.4220   15.4070    0.0520 O   0  0  0  0  0  0  0  0  0  0  0  0
   -4.2610   13.9130   -1.7620 C   0  0  0  0  0  0  0  0  0  0  0  0
   -4.5400   15.1820    0.8910 C   0  0  0  0  0  0  0  0  0  0  0  0
  1  2  1  0
  3  2  1  6
  3  4  1  0
  3  5  1  0
  4  6  1  0
  5  7  1  0
  5  8  1  0
  6  9  1  0
  7 10  1  0
  8 11  1  0
 10 11  1  0
 11 12  1  6
  9 13  1  0
 12 14  1  0
 13 15  1  0
 14 16  1  1
 15 17  2  0
 14 18  1  0
 19 15  1  6
 18 20  1  0
 18 21  1  6
 19 22  1  0
 19 23  1  0
 21 24  1  0
 20 25  1  0
 24 25  1  0
 23 26  1  6
 22 27  1  0
 23 28  1  0
 26 29  2  0
 26 30  1  0
 27 31  1  0
 28 31  1  0
 30 32  2  0
 29 33  1  0
 32 34  1  0
 32 35  1  0
 33 35  2  0
 34 36  1  0
M  END
