x0631_0_A_α-x0950_1_A_α
     RDKit          3D

 18 18  0  0  0  0  0  0  0  0999 V2000
    0.4220    9.9920  -12.1580 N   0  0  0  0  0  0  0  0  0  0  0  0
    1.6790    9.4270  -11.7630 C   0  0  2  0  0  0  0  0  0  0  0  0
    1.7050    8.0580  -12.1260 O   0  0  0  0  0  0  0  0  0  0  0  0
    1.6630    9.3490  -10.2200 C   0  0  0  0  0  0  0  0  0  0  0  0
    2.8410   10.0520  -12.6140 C   0  0  1  0  0  0  0  0  0  0  0  0
    1.0700   10.5480   -9.4370 C   0  0  0  0  0  0  0  0  0  0  0  0
    3.1800    9.2670  -13.7670 O   0  0  0  0  0  0  0  0  0  0  0  0
    2.6580   11.4550  -13.1770 C   0  0  0  0  0  0  0  0  0  0  0  0
    0.9500   10.3510   -7.8990 C   0  0  0  0  0  0  0  0  0  0  0  0
    4.1270   10.0930  -14.4640 C   0  0  0  0  0  0  0  0  0  0  0  0
    3.5540   11.4960  -14.4000 C   0  0  0  0  0  0  0  0  0  0  0  0
    0.9390   11.6390   -7.0360 C   0  0  0  0  0  0  0  0  0  0  0  0
    0.5670   11.4270   -5.6660 O   0  0  0  0  0  0  0  0  0  0  0  0
    1.1910   12.3330   -4.7330 C   0  0  1  0  0  0  0  0  0  0  0  0
    0.7400   13.7520   -5.0670 C   0  0  0  0  0  0  0  0  0  0  0  0
    0.8880   12.0410   -3.2460 C   0  0  0  0  0  0  0  0  0  0  0  0
    0.2470   11.0860   -2.8470 O   0  0  0  0  0  0  0  0  0  0  0  0
    1.4130   12.9480   -2.3870 O   0  0  0  0  0  0  0  0  0  0  0  0
  2  1  1  6
  2  3  1  0
  2  4  1  0
  2  5  1  0
  4  6  1  0
  5  7  1  0
  5  8  1  6
  6  9  1  0
  7 10  1  0
  8 11  1  0
 10 11  1  0
  9 12  1  0
 12 13  1  0
 13 14  1  0
 14 15  1  6
 14 16  1  0
 16 17  2  0
 16 18  1  0
M  END
