x0631_0_A_α-x0662_0_A_α
     RDKit          3D

  9  9  0  0  0  0  0  0  0  0999 V2000
    1.4090   10.3800  -11.0480 N   0  0  0  0  0  0  0  0  0  0  0  0
    2.4400    9.4840  -11.5470 C   0  0  1  0  0  0  0  0  0  0  0  0
    1.8440    8.2630  -11.8490 O   0  0  0  0  0  0  0  0  0  0  0  0
    3.2170   10.0570  -12.7600 C   0  0  1  0  0  0  0  0  0  0  0  0
    3.2180    9.2290  -13.9080 O   0  0  0  0  0  0  0  0  0  0  0  0
    2.7190   11.3890  -13.2880 C   0  0  0  0  0  0  0  0  0  0  0  0
    3.8510   10.0480  -14.9060 C   0  0  1  0  0  0  0  0  0  0  0  0
    3.5410   11.5110  -14.5530 C   0  0  0  0  0  0  0  0  0  0  0  0
    5.3290    9.7230  -14.9480 C   0  0  0  0  0  0  0  0  0  0  0  0
  2  1  1  6
  2  3  1  0
  2  4  1  0
  4  5  1  0
  4  6  1  6
  5  7  1  0
  6  8  1  0
  7  8  1  0
  7  9  1  1
M  END
