x0631_0_A_β-x0895_1_A_α
     RDKit          3D

 21 22  0  0  0  0  0  0  0  0999 V2000
   -0.0910    8.5120   -6.7450 C   0  0  0  0  0  0  0  0  0  0  0  0
   -1.5040    7.9450   -6.8510 C   0  0  0  0  0  0  0  0  0  0  0  0
   -2.5150    9.0980   -6.8000 C   0  0  0  0  0  0  0  0  0  0  0  0
    0.0960    9.5190   -7.7980 N   0  0  0  0  0  0  0  0  0  0  0  0
    1.0550    9.2320   -8.8120 N   0  0  0  0  0  0  0  0  0  0  0  0
    0.4330   10.8190   -7.3740 N   0  0  0  0  0  0  0  0  0  0  0  0
   -2.7060    9.6480   -5.3740 C   0  0  0  0  0  0  0  0  0  0  0  0
    0.9360   10.4690   -9.5910 C   0  0  0  0  0  0  0  0  0  0  0  0
    0.4070   11.4690   -8.6550 N   0  0  0  0  0  0  0  0  0  0  0  0
   -1.4730   10.3300   -4.7460 C   0  0  0  0  0  0  0  0  0  0  0  0
   -1.7770   11.5780   -3.8930 C   0  0  0  0  0  0  0  0  0  0  0  0
   -1.5280   11.4160   -2.3930 C   0  0  0  0  0  0  0  0  0  0  0  0
   -1.5420   12.7530   -1.6150 C   0  0  0  0  0  0  0  0  0  0  0  0
   -2.9380   13.1850   -1.1250 C   0  0  0  0  0  0  0  0  0  0  0  0
   -2.9610   14.5900   -0.5250 C   0  0  1  0  0  0  0  0  0  0  0  0
   -4.3170   15.0960   -0.4950 N   0  0  0  0  0  0  0  0  0  0  0  0
   -2.6700   14.6690    0.9950 C   0  0  0  0  0  0  0  0  0  0  0  0
   -1.5770   14.6050    1.5510 O   0  0  0  0  0  0  0  0  0  0  0  0
   -3.8560   14.8330    1.6400 N   0  0  0  0  0  0  0  0  0  0  0  0
   -4.8690   14.8990    0.7460 C   0  0  0  0  0  0  0  0  0  0  0  0
   -6.0630   14.8030    0.9700 O   0  0  0  0  0  0  0  0  0  0  0  0
  1  2  1  0
  2  3  1  0
  1  4  1  0
  4  5  1  0
  4  6  1  0
  3  7  1  0
  5  8  1  0
  6  9  1  0
  8  9  1  0
  7 10  1  0
 10 11  1  0
 11 12  1  0
 12 13  1  0
 13 14  1  0
 15 14  1  1
 15 16  1  0
 15 17  1  0
 17 18  2  0
 17 19  1  0
 16 20  1  0
 19 20  1  0
 20 21  2  0
M  END
