x0631_0_A_β-x0631_0_A_α
     RDKit          3D

 16 17  0  0  0  0  0  0  0  0999 V2000
   -0.2820    8.7130   -6.6660 C   0  0  0  0  0  0  0  0  0  0  0  0
   -1.5720    7.9060   -6.7390 C   0  0  0  0  0  0  0  0  0  0  0  0
   -2.7150    8.7260   -7.3180 C   0  0  0  0  0  0  0  0  0  0  0  0
   -0.3190    9.8020   -7.6460 N   0  0  0  0  0  0  0  0  0  0  0  0
   -0.0750    9.3570   -9.0130 N   0  0  0  0  0  0  0  0  0  0  0  0
    0.5950   10.8600   -7.3520 N   0  0  0  0  0  0  0  0  0  0  0  0
    1.1070   10.0890   -9.3840 C   0  0  2  0  0  0  0  0  0  0  0  0
    0.9060   11.3370   -8.6770 N   0  0  0  0  0  0  0  0  0  0  0  0
    1.2430   10.3560  -10.7810 N   0  0  0  0  0  0  0  0  0  0  0  0
    2.2430    9.6100  -11.5130 C   0  0  1  0  0  0  0  0  0  0  0  0
    1.7760    8.2710  -11.5680 O   0  0  0  0  0  0  0  0  0  0  0  0
    2.5900   10.0350  -12.9790 C   0  0  2  0  0  0  0  0  0  0  0  0
    3.9450    9.6180  -13.2670 O   0  0  0  0  0  0  0  0  0  0  0  0
    2.5980   11.5170  -13.3070 C   0  0  0  0  0  0  0  0  0  0  0  0
    4.3660   10.3470  -14.4210 C   0  0  0  0  0  0  0  0  0  0  0  0
    3.5480   11.6230  -14.4810 C   0  0  0  0  0  0  0  0  0  0  0  0
  1  2  1  0
  2  3  1  0
  1  4  1  0
  4  5  1  0
  4  6  1  0
  5  7  1  0
  6  8  1  0
  7  8  1  0
  7  9  1  6
  9 10  1  0
 10 11  1  6
 10 12  1  0
 12 13  1  0
 12 14  1  1
 13 15  1  0
 14 16  1  0
 15 16  1  0
M  END
