x0631_0_A-x0950_1_A
     RDKit          3D

 24 25  0  0  0  0  0  0  0  0999 V2000
   -2.6070    9.1750   -7.6500 C   0  0  0  0  0  0  0  0  0  0  0  0
   -1.5340    8.1870   -7.2370 C   0  0  0  0  0  0  0  0  0  0  0  0
   -0.2360    8.8290   -6.6950 C   0  0  2  0  0  0  0  0  0  0  0  0
   -0.6010    9.5900   -5.3680 C   0  0  0  0  0  0  0  0  0  0  0  0
    0.5390    9.6740   -7.6350 N   0  0  0  0  0  0  0  0  0  0  0  0
   -0.4830   11.1250   -5.3590 C   0  0  0  0  0  0  0  0  0  0  0  0
    0.1930   11.0490   -7.6890 N   0  0  0  0  0  0  0  0  0  0  0  0
    0.6430    9.1730   -8.9830 N   0  0  0  0  0  0  0  0  0  0  0  0
    0.8660   11.5910   -5.4960 O   0  0  0  0  0  0  0  0  0  0  0  0
    0.2820   11.4330   -9.0760 N   0  0  0  0  0  0  0  0  0  0  0  0
    1.0500   10.3700   -9.6850 C   0  0  2  0  0  0  0  0  0  0  0  0
    1.0220   10.3350  -11.1310 N   0  0  0  0  0  0  0  0  0  0  0  0
    1.3710   12.5110   -4.4970 C   0  0  1  0  0  0  0  0  0  0  0  0
    1.9610    9.4200  -11.8000 C   0  0  2  0  0  0  0  0  0  0  0  0
    0.9210   13.9180   -4.8400 C   0  0  0  0  0  0  0  0  0  0  0  0
    0.8440   12.0930   -3.1160 C   0  0  0  0  0  0  0  0  0  0  0  0
    2.7190    8.7300  -10.8070 O   0  0  0  0  0  0  0  0  0  0  0  0
    0.1640   11.1050   -2.8860 O   0  0  0  0  0  0  0  0  0  0  0  0
    1.2300   12.9570   -2.1460 O   0  0  0  0  0  0  0  0  0  0  0  0
    2.9740   10.1220  -12.7470 C   0  0  1  0  0  0  0  0  0  0  0  0
    3.2490    9.3650  -13.9240 O   0  0  0  0  0  0  0  0  0  0  0  0
    2.5890   11.4950  -13.2740 C   0  0  0  0  0  0  0  0  0  0  0  0
    3.4870   11.6380  -14.4900 C   0  0  0  0  0  0  0  0  0  0  0  0
    4.1000   10.2560  -14.6550 C   0  0  0  0  0  0  0  0  0  0  0  0
  1  2  1  0
  3  2  1  6
  3  4  1  0
  3  5  1  0
  4  6  1  0
  5  7  1  0
  5  8  1  0
  6  9  1  0
  7 10  1  0
  8 11  1  0
 10 11  1  0
 11 12  1  6
  9 13  1  0
 12 14  1  0
 13 15  1  6
 13 16  1  0
 14 17  1  1
 16 18  2  0
 16 19  1  0
 14 20  1  0
 20 21  1  0
 20 22  1  6
 22 23  1  0
 21 24  1  0
 23 24  1  0
M  END
