x0631_0_A_β-x0592_0_A_α
     RDKit          3D

 25 26  0  0  0  0  0  0  0  0999 V2000
   -0.0780    8.5460   -6.8070 C   0  0  0  0  0  0  0  0  0  0  0  0
   -1.5210    8.3560   -7.2800 C   0  0  0  0  0  0  0  0  0  0  0  0
   -2.2470    9.7040   -7.3930 C   0  0  0  0  0  0  0  0  0  0  0  0
    0.8030    9.4240   -7.6140 N   0  0  0  0  0  0  0  0  0  0  0  0
    0.7180    9.1900   -9.0260 N   0  0  0  0  0  0  0  0  0  0  0  0
    0.6140   10.8040   -7.3460 N   0  0  0  0  0  0  0  0  0  0  0  0
   -2.0550   10.5710   -6.1340 C   0  0  0  0  0  0  0  0  0  0  0  0
    0.8360   10.5200   -9.6090 C   0  0  0  0  0  0  0  0  0  0  0  0
    0.3380   11.4330   -8.5990 N   0  0  0  0  0  0  0  0  0  0  0  0
   -2.0950   12.0700   -6.4690 C   0  0  0  0  0  0  0  0  0  0  0  0
   -1.3880   12.9590   -5.4320 C   0  0  0  0  0  0  0  0  0  0  0  0
   -2.2670   14.0900   -4.8860 C   0  0  0  0  0  0  0  0  0  0  0  0
   -1.7960   14.5620   -3.4990 C   0  0  0  0  0  0  0  0  0  0  0  0
   -2.9730   14.7950   -2.5470 C   0  0  0  0  0  0  0  0  0  0  0  0
   -2.4770   14.7900   -1.1720 N   0  0  0  0  0  0  0  0  0  0  0  0
   -3.2890   14.8250   -0.1750 C   0  0  0  0  0  0  0  0  0  0  0  0
   -2.8190   14.8230    1.1120 N   0  0  0  0  0  0  0  0  0  0  0  0
   -4.7300   14.8640   -0.2650 C   0  0  0  0  0  0  0  0  0  0  0  0
   -5.5730   15.2130   -1.3490 C   0  0  0  0  0  0  0  0  0  0  0  0
   -5.6250   14.5470    0.7400 C   0  0  0  0  0  0  0  0  0  0  0  0
   -6.8720   15.1230   -1.0550 N   0  0  0  0  0  0  0  0  0  0  0  0
   -6.8750   14.7160    0.2260 N   0  0  0  0  0  0  0  0  0  0  0  0
   -8.1250   14.5040    0.9200 C   0  0  0  0  0  0  0  0  0  0  0  0
   -7.9060   14.0590    2.3600 C   0  0  0  0  0  0  0  0  0  0  0  0
   -7.1510   15.0400    3.0670 O   0  0  0  0  0  0  0  0  0  0  0  0
  1  2  1  0
  2  3  1  0
  1  4  1  0
  4  5  1  0
  4  6  1  0
  3  7  1  0
  5  8  1  0
  6  9  1  0
  8  9  1  0
  7 10  1  0
 10 11  1  0
 11 12  1  0
 12 13  1  0
 13 14  1  0
 14 15  1  0
 15 16  2  3
 16 17  1  0
 16 18  1  0
 18 19  1  0
 18 20  2  0
 19 21  2  0
 20 22  1  0
 21 22  1  0
 22 23  1  0
 23 24  1  0
 24 25  1  0
M  END
