x0631_0_A-x0685_1_A
     RDKit          3D

 28 30  0  0  0  0  0  0  0  0999 V2000
   -2.3680    7.5030   -6.1250 C   0  0  0  0  0  0  0  0  0  0  0  0
   -0.8970    7.8580   -6.2520 C   0  0  0  0  0  0  0  0  0  0  0  0
   -0.6750    9.0780   -7.1600 C   0  0  2  0  0  0  0  0  0  0  0  0
    0.6960    9.5750   -7.4110 N   0  0  0  0  0  0  0  0  0  0  0  0
   -1.5260   10.2620   -6.4860 C   0  0  1  0  0  0  0  0  0  0  0  0
   -1.2460    8.7090   -8.5380 C   0  0  0  0  0  0  0  0  0  0  0  0
   -0.9460   10.6470   -5.1640 N   0  0  0  0  0  0  0  0  0  0  0  0
    0.7570   10.9840   -7.3160 N   0  0  0  0  0  0  0  0  0  0  0  0
    1.1570    9.2270   -8.7250 N   0  0  0  0  0  0  0  0  0  0  0  0
   -1.3960    9.8710   -9.4940 C   0  0  0  0  0  0  0  0  0  0  0  0
   -1.7100   11.4560   -7.4450 C   0  0  0  0  0  0  0  0  0  0  0  0
   -1.4530   11.8650   -4.5310 C   0  0  0  0  0  0  0  0  0  0  0  0
    0.6140   11.4020   -8.6870 N   0  0  0  0  0  0  0  0  0  0  0  0
    1.5510   10.4960   -9.2810 C   0  0  2  0  0  0  0  0  0  0  0  0
   -2.0810   11.0950   -8.8870 C   0  0  0  0  0  0  0  0  0  0  0  0
    1.3900   10.5610  -10.7130 N   0  0  0  0  0  0  0  0  0  0  0  0
   -0.2910   12.7280   -4.0340 C   0  0  0  0  0  0  0  0  0  0  0  0
    2.2420    9.6680  -11.4880 C   0  0  1  0  0  0  0  0  0  0  0  0
    0.5980   12.0320   -2.6340 S   0  0  0  0  0  0  0  0  0  0  0  0
    1.7710    8.3350  -11.4320 O   0  0  0  0  0  0  0  0  0  0  0  0
    2.1500   12.3290   -2.8860 O   0  0  0  0  0  0  0  0  0  0  0  0
    0.2860   10.4590   -2.5430 O   0  0  0  0  0  0  0  0  0  0  0  0
    0.1070   12.7480   -1.2880 O   0  0  0  0  0  0  0  0  0  0  0  0
    2.5860   10.0480  -12.9470 C   0  0  2  0  0  0  0  0  0  0  0  0
    3.9030    9.5550  -13.2710 O   0  0  0  0  0  0  0  0  0  0  0  0
    2.6530   11.5350  -13.2350 C   0  0  0  0  0  0  0  0  0  0  0  0
    3.5600   11.6030  -14.4460 C   0  0  0  0  0  0  0  0  0  0  0  0
    4.3430   10.3030  -14.4100 C   0  0  0  0  0  0  0  0  0  0  0  0
  1  2  1  0
  3  2  1  1
  3  4  1  0
  3  5  1  0
  3  6  1  0
  5  7  1  1
  4  8  1  0
  4  9  1  0
  6 10  1  0
  5 11  1  0
  7 12  1  0
  8 13  1  0
  9 14  1  0
 13 14  1  0
 10 15  1  0
 11 15  1  0
 14 16  1  6
 12 17  1  0
 16 18  1  0
 17 19  1  0
 18 20  1  6
 19 21  1  0
 19 22  1  0
 19 23  1  0
 18 24  1  0
 24 25  1  0
 24 26  1  1
 26 27  1  0
 25 28  1  0
 27 28  1  0
M  END
