x0631_0_A_β-x0290_0_A_α
     RDKit          3D

 25 26  0  0  0  0  0  0  0  0999 V2000
   -0.3130    8.6240   -6.5870 C   0  0  0  0  0  0  0  0  0  0  0  0
   -1.6290    8.1140   -7.1720 C   0  0  0  0  0  0  0  0  0  0  0  0
   -2.5460    9.2770   -7.5170 C   0  0  0  0  0  0  0  0  0  0  0  0
    0.5560    9.4540   -7.4490 N   0  0  0  0  0  0  0  0  0  0  0  0
    0.4580    9.1860   -8.8670 N   0  0  0  0  0  0  0  0  0  0  0  0
    0.6840   10.8490   -7.2570 N   0  0  0  0  0  0  0  0  0  0  0  0
   -0.2590   11.6520   -6.4770 C   0  0  0  0  0  0  0  0  0  0  0  0
    0.7580   10.4650   -9.5120 C   0  0  0  0  0  0  0  0  0  0  0  0
    1.1440   11.4060   -8.4710 N   0  0  0  0  0  0  0  0  0  0  0  0
    0.4680   12.5840   -5.4790 C   0  0  0  0  0  0  0  0  0  0  0  0
   -0.3750   12.7000   -4.2010 C   0  0  0  0  0  0  0  0  0  0  0  0
    0.0970   13.6870   -3.1130 C   0  0  0  0  0  0  0  0  0  0  0  0
   -0.9740   14.6820   -2.5950 C   0  0  0  0  0  0  0  0  0  0  0  0
   -1.2340   14.6660   -1.0920 C   0  0  0  0  0  0  0  0  0  0  0  0
   -0.1730   14.6020   -0.1870 C   0  0  0  0  0  0  0  0  0  0  0  0
   -2.5470   14.7080   -0.5570 C   0  0  0  0  0  0  0  0  0  0  0  0
   -0.4550   14.5770    1.1680 C   0  0  0  0  0  0  0  0  0  0  0  0
   -2.7360   14.6760    0.8350 C   0  0  0  0  0  0  0  0  0  0  0  0
   -4.0440   14.7100    1.3350 N   0  0  0  0  0  0  0  0  0  0  0  0
   -1.7000   14.6090    1.6890 N   0  0  0  0  0  0  0  0  0  0  0  0
   -5.2330   14.4340    0.7190 C   0  0  0  0  0  0  0  0  0  0  0  0
   -5.2460   14.4410   -0.5160 O   0  0  0  0  0  0  0  0  0  0  0  0
   -6.4710   14.1240    1.5830 C   0  0  0  0  0  0  0  0  0  0  0  0
   -7.6960   13.8180    0.8080 N   0  0  0  0  0  0  0  0  0  0  0  0
   -8.6050   14.9520    0.7280 C   0  0  0  0  0  0  0  0  0  0  0  0
  1  2  1  0
  2  3  1  0
  1  4  1  0
  4  5  1  0
  4  6  1  0
  6  7  1  0
  5  8  1  0
  6  9  1  0
  8  9  1  0
  7 10  1  0
 10 11  1  0
 11 12  1  0
 12 13  1  0
 13 14  1  0
 14 15  2  0
 14 16  1  0
 15 17  1  0
 16 18  2  0
 18 19  1  0
 17 20  2  0
 18 20  1  0
 19 21  1  0
 21 22  2  0
 21 23  1  0
 23 24  1  0
 24 25  1  0
M  END
