x0631_0_A-x0727_0_A
     RDKit          3D

 28 30  0  0  0  0  0  0  0  0999 V2000
   -2.7610    8.2940   -5.8630 C   0  0  0  0  0  0  0  0  0  0  0  0
   -1.5170    7.7820   -6.5620 C   0  0  0  0  0  0  0  0  0  0  0  0
   -1.3450    8.5320   -7.8660 C   0  0  1  0  0  0  0  0  0  0  0  0
   -2.4690    9.5670   -8.0750 C   0  0  0  0  0  0  0  0  0  0  0  0
   -0.2210    9.5640   -7.8870 C   0  0  2  0  0  0  0  0  0  0  0  0
    1.1530    9.1990   -7.9600 N   0  0  0  0  0  0  0  0  0  0  0  0
   -0.6290   10.3940   -6.7430 C   0  0  2  0  0  0  0  0  0  0  0  0
   -1.9680   10.8340   -7.3410 C   0  0  0  0  0  0  0  0  0  0  0  0
    0.3680   11.4720   -6.4160 C   0  0  0  0  0  0  0  0  0  0  0  0
    1.1750    8.4550   -9.1080 N   0  0  0  0  0  0  0  0  0  0  0  0
    1.8160   10.3460   -8.4920 N   0  0  0  0  0  0  0  0  0  0  0  0
    0.0590   12.1660   -5.3090 N   0  0  0  0  0  0  0  0  0  0  0  0
    1.3760   11.7020   -7.0680 O   0  0  0  0  0  0  0  0  0  0  0  0
    0.4480    9.3670   -9.9660 N   0  0  0  0  0  0  0  0  0  0  0  0
    1.0230   10.6400   -9.6690 C   0  0  2  0  0  0  0  0  0  0  0  0
    1.8100   10.9110  -10.8350 N   0  0  0  0  0  0  0  0  0  0  0  0
    1.1160   12.6880   -4.4830 C   0  0  1  0  0  0  0  0  0  0  0  0
    2.3490    9.7830  -11.5830 C   0  0  1  0  0  0  0  0  0  0  0  0
    1.0700   14.2040   -4.5150 C   0  0  0  0  0  0  0  0  0  0  0  0
    0.8840   12.1140   -3.0920 C   0  0  0  0  0  0  0  0  0  0  0  0
    1.5350    8.6440  -11.4160 O   0  0  0  0  0  0  0  0  0  0  0  0
    0.2920   11.0680   -2.8400 O   0  0  0  0  0  0  0  0  0  0  0  0
    1.4010   12.8630   -2.1110 O   0  0  0  0  0  0  0  0  0  0  0  0
    2.6700   10.0440  -13.0830 C   0  0  2  0  0  0  0  0  0  0  0  0
    4.0020    9.5850  -13.3800 O   0  0  0  0  0  0  0  0  0  0  0  0
    2.6940   11.5180  -13.4530 C   0  0  0  0  0  0  0  0  0  0  0  0
    3.6560   11.5930  -14.6150 C   0  0  0  0  0  0  0  0  0  0  0  0
    4.4590   10.3090  -14.5240 C   0  0  0  0  0  0  0  0  0  0  0  0
  1  2  1  0
  3  2  1  1
  3  4  1  0
  3  5  1  0
  5  6  1  1
  5  7  1  0
  4  8  1  0
  7  8  1  0
  7  9  1  6
  6 10  1  0
  6 11  1  0
  9 12  1  0
  9 13  2  0
 10 14  1  0
 11 15  1  0
 14 15  1  0
 15 16  1  6
 12 17  1  0
 16 18  1  0
 17 19  1  1
 17 20  1  0
 18 21  1  6
 20 22  2  0
 20 23  1  0
 18 24  1  0
 24 25  1  0
 24 26  1  1
 26 27  1  0
 25 28  1  0
 27 28  1  0
M  END
