x0631_0_A_β-x0681_0_A_α
     RDKit          3D

 25 27  0  0  0  0  0  0  0  0999 V2000
   -0.2220    8.7080   -6.6670 C   0  0  0  0  0  0  0  0  0  0  0  0
   -1.6560    8.1890   -6.6680 C   0  0  0  0  0  0  0  0  0  0  0  0
   -2.6460    9.1170   -7.3970 C   0  0  0  0  0  0  0  0  0  0  0  0
    0.0080    9.6110   -7.8000 N   0  0  0  0  0  0  0  0  0  0  0  0
    0.8940    9.1060   -8.8070 N   0  0  0  0  0  0  0  0  0  0  0  0
    0.5860   10.8410   -7.4210 N   0  0  0  0  0  0  0  0  0  0  0  0
   -2.3660   10.6330   -7.2980 C   0  0  0  0  0  0  0  0  0  0  0  0
    1.0680   10.3100   -9.6140 C   0  0  0  0  0  0  0  0  0  0  0  0
    0.8460   11.4270   -8.6960 N   0  0  0  0  0  0  0  0  0  0  0  0
   -2.0380   11.1770   -5.9020 C   0  0  0  0  0  0  0  0  0  0  0  0
   -2.3910   12.6710   -5.7290 C   0  0  0  0  0  0  0  0  0  0  0  0
   -1.4880   13.4370   -4.7470 C   0  0  0  0  0  0  0  0  0  0  0  0
   -2.1530   14.6670   -4.1020 C   0  0  0  0  0  0  0  0  0  0  0  0
   -2.3700   14.3960   -2.6830 N   0  0  0  0  0  0  0  0  0  0  0  0
   -3.4120   14.8070   -2.0500 C   0  0  0  0  0  0  0  0  0  0  0  0
   -4.4650   15.5360   -2.5450 N   0  0  0  0  0  0  0  0  0  0  0  0
   -3.5670   14.4660   -0.5550 C   0  0  2  0  0  0  0  0  0  0  0  0
   -4.6370   13.4050   -0.4790 C   0  0  0  0  0  0  0  0  0  0  0  0
   -3.9000   15.6770    0.3290 C   0  0  0  0  0  0  0  0  0  0  0  0
   -5.6540   13.4610    0.4340 N   0  0  0  0  0  0  0  0  0  0  0  0
   -4.4760   15.2340    1.6380 C   0  0  0  0  0  0  0  0  0  0  0  0
   -4.7600   12.3310   -1.2320 N   0  0  0  0  0  0  0  0  0  0  0  0
   -5.8020   14.5150    1.3930 C   0  0  0  0  0  0  0  0  0  0  0  0
   -6.4590   12.3750    0.2600 C   0  0  0  0  0  0  0  0  0  0  0  0
   -5.8890   11.6890   -0.7780 C   0  0  0  0  0  0  0  0  0  0  0  0
  1  2  1  0
  2  3  1  0
  1  4  1  0
  4  5  1  0
  4  6  1  0
  3  7  1  0
  5  8  1  0
  6  9  1  0
  8  9  1  0
  7 10  1  0
 10 11  1  0
 11 12  1  0
 12 13  1  0
 13 14  1  0
 14 15  2  3
 15 16  1  0
 17 15  1  6
 17 18  1  0
 17 19  1  0
 18 20  1  0
 19 21  1  0
 18 22  2  0
 20 23  1  0
 21 23  1  0
 20 24  1  0
 22 25  1  0
 24 25  2  0
M  END
