x0631_0_A_α-x0631_0_A_β
     RDKit          3D

 17 18  0  0  0  0  0  0  0  0999 V2000
    0.7670    9.5590  -12.0390 N   0  0  0  0  0  0  0  0  0  0  0  0
    1.9960    9.9840  -11.4510 C   0  0  2  0  0  0  0  0  0  0  0  0
    2.6970    8.8040  -11.0690 O   0  0  0  0  0  0  0  0  0  0  0  0
    1.6550   10.8280  -10.1910 C   0  0  0  0  0  0  0  0  0  0  0  0
    2.8580   10.7710  -12.5140 C   0  0  1  0  0  0  0  0  0  0  0  0
    3.8760    9.8870  -13.0530 O   0  0  0  0  0  0  0  0  0  0  0  0
    2.1960   11.3410  -13.7490 C   0  0  0  0  0  0  0  0  0  0  0  0
    0.3130   10.5810   -9.5480 C   0  0  1  0  0  0  0  0  0  0  0  0
    4.2270   10.3390  -14.3690 C   0  0  0  0  0  0  0  0  0  0  0  0
    3.4020   11.5840  -14.6220 C   0  0  0  0  0  0  0  0  0  0  0  0
    0.2330    9.2680   -8.9230 N   0  0  0  0  0  0  0  0  0  0  0  0
    0.0950   11.5090   -8.4370 N   0  0  0  0  0  0  0  0  0  0  0  0
    0.7080    9.4410   -7.5830 N   0  0  0  0  0  0  0  0  0  0  0  0
    0.6500   10.8420   -7.2830 N   0  0  0  0  0  0  0  0  0  0  0  0
   -0.1450    8.6790   -6.6430 C   0  0  0  0  0  0  0  0  0  0  0  0
   -1.4550    8.1630   -7.2500 C   0  0  0  0  0  0  0  0  0  0  0  0
   -2.4980    9.2350   -7.5090 C   0  0  0  0  0  0  0  0  0  0  0  0
  2  1  1  6
  2  3  1  0
  2  4  1  0
  2  5  1  0
  5  6  1  0
  5  7  1  6
  8  4  1  1
  6  9  1  0
  7 10  1  0
  9 10  1  0
  8 11  1  0
  8 12  1  0
 11 13  1  0
 12 14  1  0
 13 14  1  0
 13 15  1  0
 15 16  1  0
 16 17  1  0
M  END
