x0631_0_A_β-x0685_1_A_α
     RDKit          3D

 21 22  0  0  0  0  0  0  0  0999 V2000
    0.1610    8.1800   -7.2940 C   0  0  0  0  0  0  0  0  0  0  0  0
   -1.2800    7.7110   -7.5180 C   0  0  0  0  0  0  0  0  0  0  0  0
   -2.3040    8.3250   -6.5410 C   0  0  0  0  0  0  0  0  0  0  0  0
    0.4980    9.2780   -8.2210 N   0  0  0  0  0  0  0  0  0  0  0  0
    1.0300    8.8640   -9.4830 N   0  0  0  0  0  0  0  0  0  0  0  0
    1.4140   10.2510   -7.7380 N   0  0  0  0  0  0  0  0  0  0  0  0
    1.3320   10.1830  -10.0390 C   0  0  0  0  0  0  0  0  0  0  0  0
    1.8940   10.9200   -8.9110 N   0  0  0  0  0  0  0  0  0  0  0  0
   -2.8400    9.7490   -6.8700 C   0  0  1  0  0  0  0  0  0  0  0  0
   -2.0710   10.9270   -6.1690 C   0  0  1  0  0  0  0  0  0  0  0  0
   -2.9950    9.9780   -8.3960 C   0  0  0  0  0  0  0  0  0  0  0  0
   -2.0200   10.7310   -4.7100 N   0  0  0  0  0  0  0  0  0  0  0  0
   -0.6960   11.1360   -6.8020 C   0  0  0  0  0  0  0  0  0  0  0  0
   -2.1710   11.1470   -8.8940 C   0  0  0  0  0  0  0  0  0  0  0  0
   -1.8180   11.9600   -3.9150 C   0  0  0  0  0  0  0  0  0  0  0  0
   -0.7670   11.0420   -8.3330 C   0  0  0  0  0  0  0  0  0  0  0  0
   -0.3950   12.4990   -3.8620 C   0  0  0  0  0  0  0  0  0  0  0  0
    0.5310   11.8950   -2.4590 S   0  0  0  0  0  0  0  0  0  0  0  0
    2.0440   12.3710   -2.6700 O   0  0  0  0  0  0  0  0  0  0  0  0
    0.4280   10.2920   -2.4200 O   0  0  0  0  0  0  0  0  0  0  0  0
   -0.0840   12.5510   -1.1380 O   0  0  0  0  0  0  0  0  0  0  0  0
  1  2  1  0
  2  3  1  0
  1  4  1  0
  4  5  1  0
  4  6  1  0
  5  7  1  0
  6  8  1  0
  7  8  1  0
  9  3  1  6
  9 10  1  0
  9 11  1  0
 10 12  1  1
 10 13  1  0
 11 14  1  0
 12 15  1  0
 13 16  1  0
 14 16  1  0
 15 17  1  0
 17 18  1  0
 18 19  1  0
 18 20  1  0
 18 21  1  0
M  END
