x0631_0_A-x0628_0_A
     RDKit          3D

 27 29  0  0  0  0  0  0  0  0999 V2000
   -2.5540    8.3200   -6.5400 C   0  0  0  0  0  0  0  0  0  0  0  0
   -1.3910    9.1560   -7.0530 C   0  0  2  0  0  0  0  0  0  0  0  0
   -0.0620    8.4010   -7.1610 C   0  0  0  0  0  0  0  0  0  0  0  0
   -1.2600   10.4810   -6.3690 C   0  0  0  0  0  0  0  0  0  0  0  0
    0.9940    9.2100   -7.8210 N   0  0  0  0  0  0  0  0  0  0  0  0
   -2.3460   11.1500   -5.8700 N   0  0  0  0  0  0  0  0  0  0  0  0
   -0.0970   11.1320   -6.1940 N   0  0  0  0  0  0  0  0  0  0  0  0
    0.7870   10.5970   -7.5300 N   0  0  0  0  0  0  0  0  0  0  0  0
    0.9120    9.0700   -9.2510 N   0  0  0  0  0  0  0  0  0  0  0  0
   -0.4840   12.2590   -5.5750 N   0  0  0  0  0  0  0  0  0  0  0  0
   -1.8290   12.2620   -5.3860 C   0  0  0  0  0  0  0  0  0  0  0  0
   -2.5410   13.3840   -4.7390 C   0  0  0  0  0  0  0  0  0  0  0  0
    0.4850   13.2870   -5.2100 C   0  0  0  0  0  0  0  0  0  0  0  0
    1.1540   11.2890   -8.7370 N   0  0  0  0  0  0  0  0  0  0  0  0
    0.7310   10.4050   -9.7950 C   0  0  1  0  0  0  0  0  0  0  0  0
    1.6580   10.6940  -10.8680 N   0  0  0  0  0  0  0  0  0  0  0  0
    1.6050   12.8570   -4.2620 C   0  0  0  0  0  0  0  0  0  0  0  0
    2.1040    9.5880  -11.6850 C   0  0  2  0  0  0  0  0  0  0  0  0
    1.0980   12.2120   -2.9920 C   0  0  0  0  0  0  0  0  0  0  0  0
    2.9870    8.7030  -10.9830 O   0  0  0  0  0  0  0  0  0  0  0  0
    0.5860   11.1130   -2.8710 O   0  0  0  0  0  0  0  0  0  0  0  0
    1.2720   12.9950   -1.9200 O   0  0  0  0  0  0  0  0  0  0  0  0
    2.6370   10.0000  -13.0910 C   0  0  2  0  0  0  0  0  0  0  0  0
    4.0120    9.6440  -13.2760 O   0  0  0  0  0  0  0  0  0  0  0  0
    2.6190   11.5010  -13.3660 C   0  0  0  0  0  0  0  0  0  0  0  0
    3.6150   11.6350  -14.5010 C   0  0  0  0  0  0  0  0  0  0  0  0
    4.4270   10.3510  -14.4420 C   0  0  0  0  0  0  0  0  0  0  0  0
  2  1  1  1
  2  3  1  0
  2  4  1  0
  3  5  1  0
  4  6  1  0
  4  7  2  0
  5  8  1  0
  5  9  1  0
  7 10  1  0
  6 11  2  0
 10 11  1  0
 11 12  1  0
 10 13  1  0
  8 14  1  0
  9 15  1  0
 14 15  1  0
 15 16  1  6
 13 17  1  0
 16 18  1  0
 17 19  1  0
 18 20  1  1
 19 21  2  0
 19 22  1  0
 18 23  1  0
 23 24  1  0
 23 25  1  1
 25 26  1  0
 24 27  1  0
 26 27  1  0
M  END
