x0631_0_A-x0685_1_A
     RDKit          3D

 28 30  0  0  0  0  0  0  0  0999 V2000
   -2.3510    7.5380   -6.0710 C   0  0  0  0  0  0  0  0  0  0  0  0
   -0.8860    7.9130   -6.1970 C   0  0  0  0  0  0  0  0  0  0  0  0
   -0.6810    9.1010   -7.1450 C   0  0  2  0  0  0  0  0  0  0  0  0
    0.6800    9.6250   -7.3900 N   0  0  0  0  0  0  0  0  0  0  0  0
   -1.6170   10.2720   -6.5580 C   0  0  1  0  0  0  0  0  0  0  0  0
   -1.2060    8.6580   -8.5250 C   0  0  0  0  0  0  0  0  0  0  0  0
   -1.2050   10.7340   -5.1960 N   0  0  0  0  0  0  0  0  0  0  0  0
    0.7190   11.0350   -7.3300 N   0  0  0  0  0  0  0  0  0  0  0  0
    1.1680    9.2540   -8.6890 N   0  0  0  0  0  0  0  0  0  0  0  0
   -1.3690    9.7740   -9.5320 C   0  0  0  0  0  0  0  0  0  0  0  0
   -1.7740   11.4300   -7.5620 C   0  0  0  0  0  0  0  0  0  0  0  0
   -0.5620   12.0510   -5.1490 C   0  0  0  0  0  0  0  0  0  0  0  0
    0.5850   11.4130   -8.7120 N   0  0  0  0  0  0  0  0  0  0  0  0
    1.5490   10.5150   -9.2730 C   0  0  2  0  0  0  0  0  0  0  0  0
   -2.0970   11.0100   -8.9980 C   0  0  0  0  0  0  0  0  0  0  0  0
    1.3910   10.5540  -10.7070 N   0  0  0  0  0  0  0  0  0  0  0  0
   -0.6290   12.6780   -3.7620 C   0  0  0  0  0  0  0  0  0  0  0  0
    2.2490    9.6630  -11.4760 C   0  0  1  0  0  0  0  0  0  0  0  0
    0.5530   12.0140   -2.5880 S   0  0  0  0  0  0  0  0  0  0  0  0
    1.7880    8.3300  -11.4170 O   0  0  0  0  0  0  0  0  0  0  0  0
    2.0360   12.3500   -3.0980 O   0  0  0  0  0  0  0  0  0  0  0  0
    0.3010   10.4330   -2.4730 O   0  0  0  0  0  0  0  0  0  0  0  0
    0.2720   12.7170   -1.1790 O   0  0  0  0  0  0  0  0  0  0  0  0
    2.5880   10.0430  -12.9360 C   0  0  2  0  0  0  0  0  0  0  0  0
    3.9040    9.5500  -13.2640 O   0  0  0  0  0  0  0  0  0  0  0  0
    2.6480   11.5270  -13.2290 C   0  0  0  0  0  0  0  0  0  0  0  0
    3.5560   11.6000  -14.4390 C   0  0  0  0  0  0  0  0  0  0  0  0
    4.3400   10.2980  -14.4060 C   0  0  0  0  0  0  0  0  0  0  0  0
  1  2  1  0
  3  2  1  1
  3  4  1  0
  3  5  1  0
  3  6  1  0
  5  7  1  1
  4  8  1  0
  4  9  1  0
  6 10  1  0
  5 11  1  0
  7 12  1  0
  8 13  1  0
  9 14  1  0
 13 14  1  0
 10 15  1  0
 11 15  1  0
 14 16  1  6
 12 17  1  0
 16 18  1  0
 17 19  1  0
 18 20  1  6
 19 21  1  0
 19 22  1  0
 19 23  1  0
 18 24  1  0
 24 25  1  0
 24 26  1  1
 26 27  1  0
 25 28  1  0
 27 28  1  0
M  END
