x0631_0_A_α-x0524_0_A_α
     RDKit          3D

 17 18  0  0  0  0  0  0  0  0999 V2000
    0.8790    9.9740  -13.0200 N   0  0  0  0  0  0  0  0  0  0  0  0
    2.1460    9.4530  -12.5290 C   0  0  1  0  0  0  0  0  0  0  0  0
    3.1510   10.5540  -12.8580 C   0  0  1  0  0  0  0  0  0  0  0  0
    1.7900    9.0740  -11.1310 C   0  0  0  0  0  0  0  0  0  0  0  0
    4.3780    9.9670  -13.3130 O   0  0  0  0  0  0  0  0  0  0  0  0
    2.6970   11.5750  -13.8850 C   0  0  0  0  0  0  0  0  0  0  0  0
    2.4140    8.1130  -10.3150 C   0  0  0  0  0  0  0  0  0  0  0  0
    0.7030    9.7660  -10.6520 C   0  0  0  0  0  0  0  0  0  0  0  0
    4.5650   10.3610  -14.6700 C   0  0  0  0  0  0  0  0  0  0  0  0
    3.8580   11.6840  -14.8330 C   0  0  0  0  0  0  0  0  0  0  0  0
    1.8990    7.8710   -9.0280 C   0  0  0  0  0  0  0  0  0  0  0  0
    0.2060    9.5320   -9.4060 C   0  0  0  0  0  0  0  0  0  0  0  0
    0.7830    8.5900   -8.5810 C   0  0  0  0  0  0  0  0  0  0  0  0
    0.1350    8.4780   -7.3480 N   0  0  0  0  0  0  0  0  0  0  0  0
   -0.7020    9.4510   -6.8370 C   0  0  0  0  0  0  0  0  0  0  0  0
   -1.9570    8.8930   -6.2130 C   0  0  0  0  0  0  0  0  0  0  0  0
   -0.5020   10.6610   -6.8600 O   0  0  0  0  0  0  0  0  0  0  0  0
  2  1  1  6
  2  3  1  0
  2  4  1  0
  3  5  1  0
  3  6  1  6
  4  7  2  0
  4  8  1  0
  5  9  1  0
  6 10  1  0
  9 10  1  0
  7 11  1  0
  8 12  2  0
 11 13  2  0
 12 13  1  0
 13 14  1  0
 14 15  1  0
 15 16  1  0
 15 17  2  0
M  END
