x0631_0_A_α-x0676_0_B_α
     RDKit          3D

 12 13  0  0  0  0  0  0  0  0999 V2000
    1.5090   11.3590  -11.0720 N   0  0  0  0  0  0  0  0  0  0  0  0
    2.0170   10.0300  -11.3650 C   0  0  0  0  0  0  0  0  0  0  0  0
    3.0540    9.9680  -12.5060 C   0  0  1  0  0  0  0  0  0  0  0  0
    3.6370    8.5620  -12.7120 C   0  0  1  0  0  0  0  0  0  0  0  0
    2.4330   10.3600  -13.8330 C   0  0  0  0  0  0  0  0  0  0  0  0
    4.0300    8.6250  -14.2190 C   0  0  0  0  0  0  0  0  0  0  0  0
    3.5860   10.0140  -14.7390 C   0  0  0  0  0  0  0  0  0  0  0  0
    4.8720    8.3240  -11.8710 N   0  0  0  0  0  0  0  0  0  0  0  0
    2.7210    7.5190  -12.1170 C   0  0  0  0  0  0  0  0  0  0  0  0
    4.5790    7.4170  -10.9700 C   0  0  0  0  0  0  0  0  0  0  0  0
    3.2440    6.8560  -11.0590 C   0  0  0  0  0  0  0  0  0  0  0  0
    5.5600    6.9520   -9.9170 C   0  0  0  0  0  0  0  0  0  0  0  0
  1  2  1  0
  3  2  1  1
  3  4  1  0
  3  5  1  0
  4  6  1  6
  5  7  1  0
  6  7  1  0
  4  8  1  0
  4  9  1  0
  8 10  2  0
  9 11  2  0
 10 11  1  0
 10 12  1  0
M  END
