x0631_0_A_α-x0591_0_A_α
     RDKit          3D

 28 29  0  0  0  0  0  0  0  0999 V2000
    1.8370   11.1150  -10.5900 N   0  0  0  0  0  0  0  0  0  0  0  0
    1.7870    9.8940  -11.3400 C   0  0  1  0  0  0  0  0  0  0  0  0
    2.6760    8.9790  -10.7150 O   0  0  0  0  0  0  0  0  0  0  0  0
    0.3270    9.4330  -11.1130 C   0  0  0  0  0  0  0  0  0  0  0  0
    2.2920   10.1210  -12.8180 C   0  0  2  0  0  0  0  0  0  0  0  0
   -0.2740    9.6170   -9.6750 C   0  0  0  0  0  0  0  0  0  0  0  0
    3.6130    9.5520  -13.0210 O   0  0  0  0  0  0  0  0  0  0  0  0
    2.4210   11.5660  -13.2740 C   0  0  0  0  0  0  0  0  0  0  0  0
    0.0800   10.9250   -8.9100 C   0  0  0  0  0  0  0  0  0  0  0  0
    4.1660   10.1770  -14.1870 C   0  0  0  0  0  0  0  0  0  0  0  0
    3.4780   11.5200  -14.3640 C   0  0  0  0  0  0  0  0  0  0  0  0
   -0.8860   11.2540   -7.7370 C   0  0  0  0  0  0  0  0  0  0  0  0
   -0.1770   11.5180   -6.3820 C   0  0  0  0  0  0  0  0  0  0  0  0
   -0.3760   12.9160   -5.7430 C   0  0  0  0  0  0  0  0  0  0  0  0
   -1.7700   13.1270   -5.2650 N   0  0  0  0  0  0  0  0  0  0  0  0
   -2.3290   14.5550   -5.0710 S   0  0  1  0  0  0  0  0  0  0  0  0
   -0.9220   15.3850   -4.7020 N   0  0  0  0  0  0  0  0  0  0  0  0
   -2.9160   15.3760   -6.1010 O   0  0  0  0  0  0  0  0  0  0  0  0
   -3.4130   14.6310   -3.6670 C   0  0  0  0  0  0  0  0  0  0  0  0
   -2.9260   14.5660   -2.3560 C   0  0  0  0  0  0  0  0  0  0  0  0
   -4.7790   14.7590   -3.8970 C   0  0  0  0  0  0  0  0  0  0  0  0
   -3.8200   14.6230   -1.2760 C   0  0  0  0  0  0  0  0  0  0  0  0
   -5.6640   14.8200   -2.8240 C   0  0  0  0  0  0  0  0  0  0  0  0
   -5.1980   14.7500   -1.5110 C   0  0  0  0  0  0  0  0  0  0  0  0
   -6.2130   14.8110   -0.4200 C   0  0  0  0  0  0  0  0  0  0  0  0
   -5.7680   14.6110    0.8690 N   0  0  0  0  0  0  0  0  0  0  0  0
   -7.3880   15.0230   -0.6940 O   0  0  0  0  0  0  0  0  0  0  0  0
   -6.7210   14.5120    1.9480 C   0  0  0  0  0  0  0  0  0  0  0  0
  2  1  1  1
  2  3  1  0
  2  4  1  0
  2  5  1  0
  4  6  1  0
  5  7  1  0
  5  8  1  1
  6  9  1  0
  7 10  1  0
  8 11  1  0
 10 11  1  0
  9 12  1  0
 12 13  1  0
 13 14  1  0
 14 15  1  0
 15 16  2  0
 16 17  1  1
 16 18  2  0
 16 19  1  0
 19 20  2  0
 19 21  1  0
 20 22  1  0
 21 23  2  0
 22 24  2  0
 23 24  1  0
 24 25  1  0
 25 26  1  0
 25 27  2  0
 26 28  1  0
M  END
