x0631_0_A-x0950_0_A
     RDKit          3D

 23 24  0  0  0  0  0  0  0  0999 V2000
   -2.2920    9.2830   -7.4870 C   0  0  0  0  0  0  0  0  0  0  0  0
   -1.2440    8.1820   -7.4650 C   0  0  0  0  0  0  0  0  0  0  0  0
    0.0530    8.5690   -6.7290 C   0  0  0  0  0  0  0  0  0  0  0  0
    0.9420    9.4890   -7.4790 N   0  0  0  0  0  0  0  0  0  0  0  0
    0.4790   10.8320   -7.3710 N   0  0  0  0  0  0  0  0  0  0  0  0
    1.0380    9.1270   -8.8860 N   0  0  0  0  0  0  0  0  0  0  0  0
    1.3670   11.5750   -6.4300 C   0  0  0  0  0  0  0  0  0  0  0  0
    0.4470   11.3780   -8.7050 N   0  0  0  0  0  0  0  0  0  0  0  0
    0.6700   10.3060   -9.6630 C   0  0  1  0  0  0  0  0  0  0  0  0
    1.7550   10.6310  -10.5700 N   0  0  0  0  0  0  0  0  0  0  0  0
    0.6710   12.3340   -5.4260 O   0  0  0  0  0  0  0  0  0  0  0  0
    2.0470    9.6370  -11.6020 C   0  0  2  0  0  0  0  0  0  0  0  0
    1.4550   12.8020   -4.3140 C   0  0  2  0  0  0  0  0  0  0  0  0
    2.7140    8.5430  -10.9820 O   0  0  0  0  0  0  0  0  0  0  0  0
    2.9350   12.5110   -4.5430 C   0  0  0  0  0  0  0  0  0  0  0  0
    0.9860   12.0900   -3.0450 C   0  0  0  0  0  0  0  0  0  0  0  0
    2.9910   10.1980  -12.7130 C   0  0  1  0  0  0  0  0  0  0  0  0
    0.5790   10.9430   -2.9460 O   0  0  0  0  0  0  0  0  0  0  0  0
    1.0480   12.8710   -1.9430 O   0  0  0  0  0  0  0  0  0  0  0  0
    3.1430    9.3460  -13.8470 O   0  0  0  0  0  0  0  0  0  0  0  0
    2.6080   11.5300  -13.3240 C   0  0  0  0  0  0  0  0  0  0  0  0
    3.5160   11.5800  -14.5380 C   0  0  0  0  0  0  0  0  0  0  0  0
    4.0080   10.1440  -14.6720 C   0  0  0  0  0  0  0  0  0  0  0  0
  1  2  1  0
  2  3  1  0
  3  4  1  0
  4  5  1  0
  4  6  1  0
  5  7  1  0
  5  8  1  0
  6  9  1  0
  8  9  1  0
  9 10  1  6
  7 11  1  0
 10 12  1  0
 11 13  1  0
 12 14  1  1
 13 15  1  6
 13 16  1  0
 12 17  1  0
 16 18  2  0
 16 19  1  0
 17 20  1  0
 17 21  1  6
 21 22  1  0
 20 23  1  0
 22 23  1  0
M  END
