x0631_0_A_α-x0628_0_A_α
     RDKit          3D

 23 24  0  0  0  0  0  0  0  0999 V2000
    1.4380   10.6410  -11.0030 N   0  0  0  0  0  0  0  0  0  0  0  0
    2.1050    9.5580  -11.7220 C   0  0  2  0  0  0  0  0  0  0  0  0
    2.7200    8.7910  -10.6900 O   0  0  0  0  0  0  0  0  0  0  0  0
    3.1110   10.1030  -12.7800 C   0  0  1  0  0  0  0  0  0  0  0  0
    1.8100    8.0470   -9.8620 C   0  0  0  0  0  0  0  0  0  0  0  0
    3.2800    9.3090  -13.9490 O   0  0  0  0  0  0  0  0  0  0  0  0
    2.7460   11.4640  -13.3570 C   0  0  0  0  0  0  0  0  0  0  0  0
    0.9580    8.9700   -8.9720 C   0  0  0  0  0  0  0  0  0  0  0  0
    4.1340   10.1330  -14.7530 C   0  0  0  0  0  0  0  0  0  0  0  0
    3.6170   11.5530  -14.5900 C   0  0  0  0  0  0  0  0  0  0  0  0
    0.3130    8.2630   -7.7610 C   0  0  0  0  0  0  0  0  0  0  0  0
   -0.9620    8.8850   -7.1510 C   0  0  0  0  0  0  0  0  0  0  0  0
   -0.8830   10.2400   -6.5130 C   0  0  0  0  0  0  0  0  0  0  0  0
   -1.9850   10.8750   -5.9970 N   0  0  0  0  0  0  0  0  0  0  0  0
    0.2520   10.9470   -6.3940 N   0  0  0  0  0  0  0  0  0  0  0  0
   -0.1690   12.0690   -5.7780 N   0  0  0  0  0  0  0  0  0  0  0  0
   -1.5100   12.0250   -5.5510 C   0  0  0  0  0  0  0  0  0  0  0  0
   -2.2620   13.1280   -4.9120 C   0  0  0  0  0  0  0  0  0  0  0  0
    0.7680   13.1340   -5.4560 C   0  0  0  0  0  0  0  0  0  0  0  0
    1.6930   12.9100   -4.2580 C   0  0  0  0  0  0  0  0  0  0  0  0
    1.0740   12.2350   -3.0560 C   0  0  0  0  0  0  0  0  0  0  0  0
    0.5850   11.1200   -3.0000 O   0  0  0  0  0  0  0  0  0  0  0  0
    1.1000   12.9950   -1.9460 O   0  0  0  0  0  0  0  0  0  0  0  0
  2  1  1  1
  2  3  1  0
  2  4  1  0
  3  5  1  0
  4  6  1  0
  4  7  1  6
  5  8  1  0
  6  9  1  0
  7 10  1  0
  9 10  1  0
  8 11  1  0
 11 12  1  0
 12 13  1  0
 13 14  1  0
 13 15  2  0
 15 16  1  0
 14 17  2  0
 16 17  1  0
 17 18  1  0
 16 19  1  0
 19 20  1  0
 20 21  1  0
 21 22  2  0
 21 23  1  0
M  END
