x0631_0_A-x1012_0_A
     RDKit          3D

 31 33  0  0  0  0  0  0  0  0999 V2000
   -2.9760    8.5060   -7.9840 C   0  0  0  0  0  0  0  0  0  0  0  0
   -1.6020    8.0750   -7.5310 C   0  0  0  0  0  0  0  0  0  0  0  0
   -0.8090    9.2370   -6.9160 C   0  0  1  0  0  0  0  0  0  0  0  0
   -0.8370    9.0620   -5.3690 C   0  0  0  0  0  0  0  0  0  0  0  0
    0.5310    9.5520   -7.4470 N   0  0  0  0  0  0  0  0  0  0  0  0
   -0.2710   10.2080   -4.5000 C   0  0  0  0  0  0  0  0  0  0  0  0
    0.8040   10.9360   -7.3140 N   0  0  0  0  0  0  0  0  0  0  0  0
    0.8220    9.1500   -8.8060 N   0  0  0  0  0  0  0  0  0  0  0  0
   -1.2230   10.9510   -3.5820 C   0  0  0  0  0  0  0  0  0  0  0  0
    1.1410   11.3920   -8.6330 N   0  0  0  0  0  0  0  0  0  0  0  0
    0.7090   10.3880   -9.5590 C   0  0  1  0  0  0  0  0  0  0  0  0
    1.3670   10.5530  -10.8430 N   0  0  0  0  0  0  0  0  0  0  0  0
   -0.5070   11.3860   -2.3990 O   0  0  0  0  0  0  0  0  0  0  0  0
    2.1320    9.5820  -11.6220 C   0  0  2  0  0  0  0  0  0  0  0  0
    0.3220   12.4760   -2.4950 C   0  0  0  0  0  0  0  0  0  0  0  0
    2.8190    8.6430  -10.7920 O   0  0  0  0  0  0  0  0  0  0  0  0
    1.2330   12.7090   -1.7240 O   0  0  0  0  0  0  0  0  0  0  0  0
    3.0890   10.1230  -12.7250 C   0  0  1  0  0  0  0  0  0  0  0  0
    0.0250   13.4200   -3.6470 C   0  0  0  0  0  0  0  0  0  0  0  0
    3.2020    9.2770  -13.8740 O   0  0  0  0  0  0  0  0  0  0  0  0
    2.7050   11.4640  -13.3330 C   0  0  0  0  0  0  0  0  0  0  0  0
   -1.3980   13.9590   -3.5230 C   0  0  0  0  0  0  0  0  0  0  0  0
    1.0510   14.5570   -3.8020 C   0  0  0  0  0  0  0  0  0  0  0  0
    3.5820   11.5080  -14.5670 C   0  0  0  0  0  0  0  0  0  0  0  0
    4.0600   10.0690  -14.7090 C   0  0  0  0  0  0  0  0  0  0  0  0
   -1.7520   14.8310   -4.7170 C   0  0  0  0  0  0  0  0  0  0  0  0
    0.6540   15.5710   -4.8720 C   0  0  0  0  0  0  0  0  0  0  0  0
   -0.7740   15.9120   -4.8900 N   0  0  0  0  0  0  0  0  0  0  0  0
   -1.2410   17.2020   -4.7970 C   0  0  0  0  0  0  0  0  0  0  0  0
   -0.3090   18.1750   -4.7000 N   0  0  0  0  0  0  0  0  0  0  0  0
   -2.4220   17.5070   -4.7790 O   0  0  0  0  0  0  0  0  0  0  0  0
  1  2  1  0
  3  2  1  6
  3  4  1  0
  3  5  1  0
  4  6  1  0
  5  7  1  0
  5  8  1  0
  6  9  1  0
  7 10  1  0
  8 11  1  0
 10 11  1  0
 11 12  1  6
  9 13  1  0
 12 14  1  0
 13 15  1  0
 14 16  1  1
 15 17  2  0
 14 18  1  0
 15 19  1  0
 18 20  1  0
 18 21  1  6
 19 22  1  0
 19 23  1  0
 21 24  1  0
 20 25  1  0
 24 25  1  0
 22 26  1  0
 23 27  1  0
 26 28  1  0
 27 28  1  0
 28 29  1  0
 29 30  1  0
 29 31  2  0
M  END
