x0631_0_A-x0465_0_A
     RDKit          3D

 28 30  0  0  0  0  0  0  0  0999 V2000
   -2.0780    7.2560   -7.5240 C   0  0  0  0  0  0  0  0  0  0  0  0
   -0.6400    7.6440   -7.2150 C   0  0  0  0  0  0  0  0  0  0  0  0
   -0.4430    9.1480   -7.4300 C   0  0  2  0  0  0  0  0  0  0  0  0
    0.8480    9.7460   -7.6970 N   0  0  0  0  0  0  0  0  0  0  0  0
   -1.2490    9.8550   -6.3750 C   0  0  0  0  0  0  0  0  0  0  0  0
    0.7120   11.1550   -7.7120 N   0  0  0  0  0  0  0  0  0  0  0  0
    1.3220    9.3860   -9.0070 N   0  0  0  0  0  0  0  0  0  0  0  0
   -0.8380   10.8600   -5.4750 C   0  0  0  0  0  0  0  0  0  0  0  0
   -2.5740    9.4070   -6.3400 C   0  0  0  0  0  0  0  0  0  0  0  0
    0.4560   11.3260   -5.4810 O   0  0  0  0  0  0  0  0  0  0  0  0
    0.2780   11.4400   -9.0640 N   0  0  0  0  0  0  0  0  0  0  0  0
    1.2070   10.6170   -9.7900 C   0  0  2  0  0  0  0  0  0  0  0  0
   -3.4910    9.9140   -5.4530 C   0  0  0  0  0  0  0  0  0  0  0  0
   -1.7830   11.3700   -4.5780 C   0  0  0  0  0  0  0  0  0  0  0  0
    0.9100   10.2200  -11.1240 N   0  0  0  0  0  0  0  0  0  0  0  0
    0.7490   12.4640   -4.6480 C   0  0  2  0  0  0  0  0  0  0  0  0
   -3.0950   10.9000   -4.5700 C   0  0  0  0  0  0  0  0  0  0  0  0
    2.1090    9.6160  -11.6540 C   0  0  1  0  0  0  0  0  0  0  0  0
    2.1040   13.0930   -4.9660 C   0  0  0  0  0  0  0  0  0  0  0  0
    0.7720   12.0870   -3.1650 C   0  0  0  0  0  0  0  0  0  0  0  0
    1.9100    8.2170  -11.6240 O   0  0  0  0  0  0  0  0  0  0  0  0
    1.0890   12.8340   -2.2490 O   0  0  0  0  0  0  0  0  0  0  0  0
    0.4020   10.8190   -2.8900 O   0  0  0  0  0  0  0  0  0  0  0  0
    2.5280   10.0400  -13.0890 C   0  0  2  0  0  0  0  0  0  0  0  0
    3.8690    9.5930  -13.3690 O   0  0  0  0  0  0  0  0  0  0  0  0
    2.5910   11.5440  -13.3350 C   0  0  0  0  0  0  0  0  0  0  0  0
    3.5590   11.6670  -14.4900 C   0  0  0  0  0  0  0  0  0  0  0  0
    4.3570   10.3760  -14.4620 C   0  0  0  0  0  0  0  0  0  0  0  0
  1  2  1  0
  3  2  1  1
  3  4  1  0
  3  5  1  0
  4  6  1  0
  4  7  1  0
  5  8  2  0
  5  9  1  0
  8 10  1  0
  6 11  1  0
  7 12  1  0
 11 12  1  0
  9 13  2  0
  8 14  1  0
 12 15  1  6
 10 16  1  0
 13 17  1  0
 14 17  2  0
 15 18  1  0
 16 19  1  6
 16 20  1  0
 18 21  1  6
 20 22  2  0
 20 23  1  0
 18 24  1  0
 24 25  1  0
 24 26  1  1
 26 27  1  0
 25 28  1  0
 27 28  1  0
M  END
