x0631_0_A-x0950_0_A
     RDKit          3D

 23 24  0  0  0  0  0  0  0  0999 V2000
   -2.2920    9.2830   -7.4850 C   0  0  0  0  0  0  0  0  0  0  0  0
   -1.2430    8.1840   -7.4640 C   0  0  0  0  0  0  0  0  0  0  0  0
    0.0520    8.5690   -6.7290 C   0  0  0  0  0  0  0  0  0  0  0  0
    0.9430    9.4900   -7.4800 N   0  0  0  0  0  0  0  0  0  0  0  0
    0.4810   10.8340   -7.3710 N   0  0  0  0  0  0  0  0  0  0  0  0
    1.0380    9.1280   -8.8870 N   0  0  0  0  0  0  0  0  0  0  0  0
    1.3670   11.5740   -6.4290 C   0  0  0  0  0  0  0  0  0  0  0  0
    0.4480   11.3790   -8.7060 N   0  0  0  0  0  0  0  0  0  0  0  0
    0.6690   10.3090   -9.6630 C   0  0  1  0  0  0  0  0  0  0  0  0
    1.7530   10.6300  -10.5720 N   0  0  0  0  0  0  0  0  0  0  0  0
    0.6690   12.3290   -5.4240 O   0  0  0  0  0  0  0  0  0  0  0  0
    2.0460    9.6400  -11.6040 C   0  0  2  0  0  0  0  0  0  0  0  0
    1.4550   12.8000   -4.3150 C   0  0  2  0  0  0  0  0  0  0  0  0
    2.7120    8.5440  -10.9830 O   0  0  0  0  0  0  0  0  0  0  0  0
    2.9350   12.5100   -4.5430 C   0  0  0  0  0  0  0  0  0  0  0  0
    0.9870   12.0890   -3.0450 C   0  0  0  0  0  0  0  0  0  0  0  0
    2.9910   10.1980  -12.7120 C   0  0  1  0  0  0  0  0  0  0  0  0
    0.5840   10.9410   -2.9440 O   0  0  0  0  0  0  0  0  0  0  0  0
    1.0480   12.8700   -1.9430 O   0  0  0  0  0  0  0  0  0  0  0  0
    3.1470    9.3490  -13.8460 O   0  0  0  0  0  0  0  0  0  0  0  0
    2.6060   11.5330  -13.3250 C   0  0  0  0  0  0  0  0  0  0  0  0
    3.5160   11.5820  -14.5370 C   0  0  0  0  0  0  0  0  0  0  0  0
    4.0120   10.1480  -14.6700 C   0  0  0  0  0  0  0  0  0  0  0  0
  1  2  1  0
  2  3  1  0
  3  4  1  0
  4  5  1  0
  4  6  1  0
  5  7  1  0
  5  8  1  0
  6  9  1  0
  8  9  1  0
  9 10  1  6
  7 11  1  0
 10 12  1  0
 11 13  1  0
 12 14  1  1
 13 15  1  6
 13 16  1  0
 12 17  1  0
 16 18  2  0
 16 19  1  0
 17 20  1  0
 17 21  1  6
 21 22  1  0
 20 23  1  0
 22 23  1  0
M  END
