x0631_0_A_β-x0950_0_A_α
     RDKit          3D

 15 15  0  0  0  0  0  0  0  0999 V2000
   -0.0700    8.7370   -6.7100 C   0  0  0  0  0  0  0  0  0  0  0  0
   -1.3410    8.2300   -7.3990 C   0  0  0  0  0  0  0  0  0  0  0  0
   -2.4530    9.2600   -7.4840 C   0  0  0  0  0  0  0  0  0  0  0  0
    0.7630    9.6880   -7.4970 N   0  0  0  0  0  0  0  0  0  0  0  0
    0.8060    9.2530   -8.8850 N   0  0  0  0  0  0  0  0  0  0  0  0
    0.1980   11.0090   -7.4860 N   0  0  0  0  0  0  0  0  0  0  0  0
    0.9750   11.9400   -6.6280 C   0  0  0  0  0  0  0  0  0  0  0  0
    0.8580   10.4890   -9.6590 C   0  0  0  0  0  0  0  0  0  0  0  0
    0.2240   11.5030   -8.8430 N   0  0  0  0  0  0  0  0  0  0  0  0
    0.7850   11.6260   -5.2570 O   0  0  0  0  0  0  0  0  0  0  0  0
    1.1350   12.6400   -4.3260 C   0  0  2  0  0  0  0  0  0  0  0  0
    2.6150   12.9920   -4.4750 C   0  0  0  0  0  0  0  0  0  0  0  0
    0.8840   12.1680   -2.9000 C   0  0  0  0  0  0  0  0  0  0  0  0
    0.3680   11.1010   -2.6260 O   0  0  0  0  0  0  0  0  0  0  0  0
    1.2620   13.0140   -1.9320 O   0  0  0  0  0  0  0  0  0  0  0  0
  1  2  1  0
  2  3  1  0
  1  4  1  0
  4  5  1  0
  4  6  1  0
  6  7  1  0
  5  8  1  0
  6  9  1  0
  8  9  1  0
  7 10  1  0
 10 11  1  0
 11 12  1  1
 11 13  1  0
 13 14  2  0
 13 15  1  0
M  END
