x0631_0_A_α-x0727_0_A_α
     RDKit          3D

 24 25  0  0  0  0  0  0  0  0999 V2000
    0.4610    9.9490  -12.2680 N   0  0  0  0  0  0  0  0  0  0  0  0
    1.7920    9.6820  -11.7950 C   0  0  2  0  0  0  0  0  0  0  0  0
    2.1610    8.3780  -12.1760 O   0  0  0  0  0  0  0  0  0  0  0  0
    1.6730    9.6350  -10.2590 C   0  0  0  0  0  0  0  0  0  0  0  0
    2.7720   10.6730  -12.5220 C   0  0  1  0  0  0  0  0  0  0  0  0
    1.1990   10.9040   -9.5480 C   0  0  0  0  0  0  0  0  0  0  0  0
    3.9480    9.9480  -12.9690 O   0  0  0  0  0  0  0  0  0  0  0  0
    2.2500   11.4120  -13.7510 C   0  0  0  0  0  0  0  0  0  0  0  0
    2.0110   11.0690   -8.2720 C   0  0  0  0  0  0  0  0  0  0  0  0
    4.2580   10.3340  -14.3160 C   0  0  0  0  0  0  0  0  0  0  0  0
    3.4960   11.6150  -14.5700 C   0  0  0  0  0  0  0  0  0  0  0  0
    1.3580   11.5970   -7.1190 N   0  0  0  0  0  0  0  0  0  0  0  0
    0.3750   10.9840   -6.6730 C   0  0  0  0  0  0  0  0  0  0  0  0
   -0.1550   11.5110   -5.5440 N   0  0  0  0  0  0  0  0  0  0  0  0
   -0.1580    9.7160   -7.3400 C   0  0  0  0  0  0  0  0  0  0  0  0
    0.6540   12.3480   -4.6490 C   0  0  1  0  0  0  0  0  0  0  0  0
   -1.4620   10.0130   -8.0800 C   0  0  0  0  0  0  0  0  0  0  0  0
   -0.4360    8.5570   -6.3700 C   0  0  0  0  0  0  0  0  0  0  0  0
    0.4090   13.8370   -4.8550 C   0  0  0  0  0  0  0  0  0  0  0  0
    0.5970   11.9210   -3.1860 C   0  0  0  0  0  0  0  0  0  0  0  0
   -2.3570    8.8230   -7.7870 C   0  0  0  0  0  0  0  0  0  0  0  0
   -1.9410    8.3780   -6.3930 C   0  0  0  0  0  0  0  0  0  0  0  0
    0.0080   10.9050   -2.8310 O   0  0  0  0  0  0  0  0  0  0  0  0
    1.2380   12.7270   -2.3080 O   0  0  0  0  0  0  0  0  0  0  0  0
  2  1  1  6
  2  3  1  0
  2  4  1  0
  2  5  1  0
  4  6  1  0
  5  7  1  0
  5  8  1  6
  6  9  1  0
  7 10  1  0
  8 11  1  0
 10 11  1  0
  9 12  1  0
 12 13  2  3
 13 14  1  0
 13 15  1  0
 14 16  1  0
 15 17  1  0
 15 18  1  0
 16 19  1  1
 16 20  1  0
 17 21  1  0
 18 22  1  0
 21 22  1  0
 20 23  2  0
 20 24  1  0
M  END
