x0631_0_A_α-x0855_0_A_α
     RDKit          3D

 22 23  0  0  0  0  0  0  0  0999 V2000
    1.4530   10.6060  -10.9680 N   0  0  0  0  0  0  0  0  0  0  0  0
    2.1480    9.5630  -11.7140 C   0  0  2  0  0  0  0  0  0  0  0  0
    2.8820    8.7730  -10.7780 O   0  0  0  0  0  0  0  0  0  0  0  0
    3.1100   10.1340  -12.7960 C   0  0  1  0  0  0  0  0  0  0  0  0
    2.0690    7.9840   -9.9030 C   0  0  0  0  0  0  0  0  0  0  0  0
    3.3490    9.3330  -13.9360 O   0  0  0  0  0  0  0  0  0  0  0  0
    2.7680   11.5060  -13.3550 C   0  0  0  0  0  0  0  0  0  0  0  0
    1.3210    8.8390   -8.8670 C   0  0  0  0  0  0  0  0  0  0  0  0
    4.2130   10.1760  -14.7090 C   0  0  0  0  0  0  0  0  0  0  0  0
    3.6630   11.5880  -14.5770 C   0  0  0  0  0  0  0  0  0  0  0  0
   -0.1850    8.5630   -8.7990 C   0  0  0  0  0  0  0  0  0  0  0  0
   -0.7110    8.2160   -7.4000 C   0  0  0  0  0  0  0  0  0  0  0  0
   -1.8210    9.0760   -7.0980 O   0  0  0  0  0  0  0  0  0  0  0  0
   -1.5020   10.1080   -6.2890 C   0  0  0  0  0  0  0  0  0  0  0  0
   -0.2800   10.7080   -6.1540 C   0  0  0  0  0  0  0  0  0  0  0  0
   -2.3470   10.7940   -5.3960 C   0  0  0  0  0  0  0  0  0  0  0  0
   -0.4410   11.6810   -5.2140 N   0  0  0  0  0  0  0  0  0  0  0  0
   -1.7000   11.7620   -4.7350 N   0  0  0  0  0  0  0  0  0  0  0  0
    0.5780   12.5790   -4.7240 C   0  0  0  0  0  0  0  0  0  0  0  0
    0.9580   12.1800   -3.3280 C   0  0  0  0  0  0  0  0  0  0  0  0
    1.5750   13.1310   -2.6060 O   0  0  0  0  0  0  0  0  0  0  0  0
    0.7510   11.0920   -2.8180 O   0  0  0  0  0  0  0  0  0  0  0  0
  2  1  1  1
  2  3  1  0
  2  4  1  0
  3  5  1  0
  4  6  1  0
  4  7  1  6
  5  8  1  0
  6  9  1  0
  7 10  1  0
  9 10  1  0
  8 11  1  0
 11 12  1  0
 12 13  1  0
 13 14  1  0
 14 15  2  0
 14 16  1  0
 15 17  1  0
 16 18  2  0
 17 18  1  0
 17 19  1  0
 19 20  1  0
 20 21  1  0
 20 22  2  0
M  END
