x0631_0_A_β-x0591_0_A_α
     RDKit          3D

 25 26  0  0  0  0  0  0  0  0999 V2000
   -0.1590    8.4370   -6.8540 C   0  0  0  0  0  0  0  0  0  0  0  0
   -1.5740    7.8730   -6.9380 C   0  0  0  0  0  0  0  0  0  0  0  0
   -2.6300    8.9760   -7.0580 C   0  0  0  0  0  0  0  0  0  0  0  0
    0.0230    9.5000   -7.8420 N   0  0  0  0  0  0  0  0  0  0  0  0
    0.9500    9.1860   -8.8850 N   0  0  0  0  0  0  0  0  0  0  0  0
    0.4220   10.7480   -7.2960 N   0  0  0  0  0  0  0  0  0  0  0  0
   -2.8640    9.7940   -5.7850 C   0  0  0  0  0  0  0  0  0  0  0  0
    1.0330   10.4890   -9.5070 C   0  0  0  0  0  0  0  0  0  0  0  0
    1.1560   11.3730   -8.3580 N   0  0  0  0  0  0  0  0  0  0  0  0
   -1.7850   10.8570   -5.5080 C   0  0  0  0  0  0  0  0  0  0  0  0
   -2.2030   12.2580   -5.9690 C   0  0  0  0  0  0  0  0  0  0  0  0
   -1.7000   13.2700   -5.0260 N   0  0  0  0  0  0  0  0  0  0  0  0
   -2.3760   14.6340   -4.9830 S   0  0  1  0  0  0  0  0  0  0  0  0
   -1.0350   15.5770   -4.6400 N   0  0  0  0  0  0  0  0  0  0  0  0
   -2.9890   15.3230   -6.0950 O   0  0  0  0  0  0  0  0  0  0  0  0
   -3.4720   14.6840   -3.6000 C   0  0  0  0  0  0  0  0  0  0  0  0
   -2.9800   14.6070   -2.2950 C   0  0  0  0  0  0  0  0  0  0  0  0
   -4.8270   14.7980   -3.8400 C   0  0  0  0  0  0  0  0  0  0  0  0
   -3.8780   14.6460   -1.2170 C   0  0  0  0  0  0  0  0  0  0  0  0
   -5.7170   14.8410   -2.7700 C   0  0  0  0  0  0  0  0  0  0  0  0
   -5.2510   14.7620   -1.4570 C   0  0  0  0  0  0  0  0  0  0  0  0
   -6.2690   14.8060   -0.3760 C   0  0  0  0  0  0  0  0  0  0  0  0
   -5.8300   14.6100    0.9140 N   0  0  0  0  0  0  0  0  0  0  0  0
   -7.4480   15.0010   -0.6510 O   0  0  0  0  0  0  0  0  0  0  0  0
   -6.7830   14.5150    1.9900 C   0  0  0  0  0  0  0  0  0  0  0  0
  1  2  1  0
  2  3  1  0
  1  4  1  0
  4  5  1  0
  4  6  1  0
  3  7  1  0
  5  8  1  0
  6  9  1  0
  8  9  1  0
  7 10  1  0
 10 11  1  0
 11 12  1  0
 12 13  2  0
 13 14  1  1
 13 15  2  0
 13 16  1  0
 16 17  2  0
 16 18  1  0
 17 19  1  0
 18 20  2  0
 19 21  2  0
 20 21  1  0
 21 22  1  0
 22 23  1  0
 22 24  2  0
 23 25  1  0
M  END
