x0631_0_A_α-x1012_0_A_α
     RDKit          3D

 26 27  0  0  0  0  0  0  0  0999 V2000
    0.6470   10.1820  -11.2750 N   0  0  0  0  0  0  0  0  0  0  0  0
    2.0830   10.2930  -11.3310 C   0  0  1  0  0  0  0  0  0  0  0  0
    2.6240    9.2400  -10.5330 O   0  0  0  0  0  0  0  0  0  0  0  0
    2.5870   10.2790  -12.8110 C   0  0  2  0  0  0  0  0  0  0  0  0
    1.8390    9.0370   -9.3430 C   0  0  0  0  0  0  0  0  0  0  0  0
    3.8960    9.7050  -12.9720 O   0  0  0  0  0  0  0  0  0  0  0  0
    2.6820   11.6740  -13.4120 C   0  0  0  0  0  0  0  0  0  0  0  0
    1.5840   10.3720   -8.6150 C   0  0  0  0  0  0  0  0  0  0  0  0
    4.4420   10.2440  -14.1860 C   0  0  0  0  0  0  0  0  0  0  0  0
    3.7470   11.5620  -14.4750 C   0  0  0  0  0  0  0  0  0  0  0  0
    0.4350   10.3490   -7.6030 C   0  0  0  0  0  0  0  0  0  0  0  0
    0.4540   11.5280   -6.6190 C   0  0  0  0  0  0  0  0  0  0  0  0
   -0.4640   11.2680   -5.4180 C   0  0  0  0  0  0  0  0  0  0  0  0
    0.3250   11.0750   -4.1260 C   0  0  0  0  0  0  0  0  0  0  0  0
   -0.2340   11.6760   -2.9660 O   0  0  0  0  0  0  0  0  0  0  0  0
    0.4700   12.7200   -2.4670 C   0  0  0  0  0  0  0  0  0  0  0  0
    1.3350   12.6370   -1.6200 O   0  0  0  0  0  0  0  0  0  0  0  0
    0.0370   14.0210   -3.1050 C   0  0  0  0  0  0  0  0  0  0  0  0
   -1.3510   13.8380   -3.7120 C   0  0  0  0  0  0  0  0  0  0  0  0
    1.1000   14.5320   -4.0850 C   0  0  0  0  0  0  0  0  0  0  0  0
   -1.5930   14.7720   -4.8850 C   0  0  0  0  0  0  0  0  0  0  0  0
    0.6830   15.8200   -4.7820 C   0  0  0  0  0  0  0  0  0  0  0  0
   -0.7700   15.9770   -4.8420 N   0  0  0  0  0  0  0  0  0  0  0  0
   -1.3000   17.2400   -4.7460 C   0  0  0  0  0  0  0  0  0  0  0  0
   -0.4120   18.2610   -4.6890 N   0  0  0  0  0  0  0  0  0  0  0  0
   -2.4910   17.4930   -4.7110 O   0  0  0  0  0  0  0  0  0  0  0  0
  2  1  1  6
  2  3  1  0
  2  4  1  0
  3  5  1  0
  4  6  1  0
  4  7  1  1
  5  8  1  0
  6  9  1  0
  7 10  1  0
  9 10  1  0
  8 11  1  0
 11 12  1  0
 12 13  1  0
 13 14  1  0
 14 15  1  0
 15 16  1  0
 16 17  2  0
 16 18  1  0
 18 19  1  0
 18 20  1  0
 19 21  1  0
 20 22  1  0
 21 23  1  0
 22 23  1  0
 23 24  1  0
 24 25  1  0
 24 26  2  0
M  END
