x0631_0_A-x0805_0_A
     RDKit          3D

 36 39  0  0  0  0  0  0  0  0999 V2000
   -2.4550    9.0820   -7.7180 C   0  0  0  0  0  0  0  0  0  0  0  0
   -1.3120    8.0730   -7.7460 C   0  0  0  0  0  0  0  0  0  0  0  0
   -0.0950    8.4670   -6.8720 C   0  0  2  0  0  0  0  0  0  0  0  0
   -0.6680    9.0910   -5.5740 C   0  0  0  0  0  0  0  0  0  0  0  0
    0.8340    9.4010   -7.5530 N   0  0  0  0  0  0  0  0  0  0  0  0
    0.3250    9.8750   -4.7130 C   0  0  0  0  0  0  0  0  0  0  0  0
    0.4220   10.7580   -7.4460 N   0  0  0  0  0  0  0  0  0  0  0  0
    1.0680    9.1340   -8.9840 N   0  0  0  0  0  0  0  0  0  0  0  0
   -0.4100   10.6630   -3.6460 C   0  0  0  0  0  0  0  0  0  0  0  0
    1.0090   11.3610   -8.6110 N   0  0  0  0  0  0  0  0  0  0  0  0
    0.7590   10.3950   -9.6540 C   0  0  1  0  0  0  0  0  0  0  0  0
    1.6270   10.6670  -10.7940 N   0  0  0  0  0  0  0  0  0  0  0  0
    0.4530   10.8230   -2.5250 O   0  0  0  0  0  0  0  0  0  0  0  0
    2.0890    9.5890  -11.6570 C   0  0  2  0  0  0  0  0  0  0  0  0
    0.4940   12.1060   -2.0820 C   0  0  0  0  0  0  0  0  0  0  0  0
    2.7960    8.6660  -10.8390 O   0  0  0  0  0  0  0  0  0  0  0  0
    0.2370   12.4130   -0.9420 O   0  0  0  0  0  0  0  0  0  0  0  0
    3.0700   10.1140  -12.7590 C   0  0  1  0  0  0  0  0  0  0  0  0
    0.8920   13.2070   -3.0500 C   0  0  1  0  0  0  0  0  0  0  0  0
    3.2130    9.3000  -13.9190 O   0  0  0  0  0  0  0  0  0  0  0  0
    2.6850   11.4660  -13.3420 C   0  0  0  0  0  0  0  0  0  0  0  0
    1.4890   12.8460   -4.4080 C   0  0  0  0  0  0  0  0  0  0  0  0
   -0.1710   14.2970   -3.2470 C   0  0  2  0  0  0  0  0  0  0  0  0
    3.5780   11.5430  -14.5670 C   0  0  0  0  0  0  0  0  0  0  0  0
    4.0730   10.1140  -14.7290 C   0  0  0  0  0  0  0  0  0  0  0  0
   -1.6050   14.0800   -2.7980 C   0  0  0  0  0  0  0  0  0  0  0  0
    2.2680   13.9690   -4.8480 O   0  0  0  0  0  0  0  0  0  0  0  0
    0.1230   15.0510   -4.5280 C   0  0  0  0  0  0  0  0  0  0  0  0
   -2.5460   13.2660   -3.4490 C   0  0  0  0  0  0  0  0  0  0  0  0
   -2.0070   14.7450   -1.6580 C   0  0  0  0  0  0  0  0  0  0  0  0
    1.6220   15.2390   -4.6310 C   0  0  0  0  0  0  0  0  0  0  0  0
   -3.2820   14.6610   -1.1330 C   0  0  0  0  0  0  0  0  0  0  0  0
   -3.8500   13.1540   -2.9320 C   0  0  0  0  0  0  0  0  0  0  0  0
   -3.4270   15.4300   -0.0040 O   0  0  0  0  0  0  0  0  0  0  0  0
   -4.2210   13.8540   -1.7730 C   0  0  0  0  0  0  0  0  0  0  0  0
   -4.5130   15.1770    0.8690 C   0  0  0  0  0  0  0  0  0  0  0  0
  1  2  1  0
  3  2  1  6
  3  4  1  0
  3  5  1  0
  4  6  1  0
  5  7  1  0
  5  8  1  0
  6  9  1  0
  7 10  1  0
  8 11  1  0
 10 11  1  0
 11 12  1  6
  9 13  1  0
 12 14  1  0
 13 15  1  0
 14 16  1  1
 15 17  2  0
 14 18  1  0
 19 15  1  6
 18 20  1  0
 18 21  1  6
 19 22  1  0
 19 23  1  0
 21 24  1  0
 20 25  1  0
 24 25  1  0
 23 26  1  6
 22 27  1  0
 23 28  1  0
 26 29  2  0
 26 30  1  0
 27 31  1  0
 28 31  1  0
 30 32  2  0
 29 33  1  0
 32 34  1  0
 32 35  1  0
 33 35  2  0
 34 36  1  0
M  END
