x0631_0_A-x0676_0_B
     RDKit          3D

 20 22  0  0  0  0  0  0  0  0999 V2000
   -2.6060    9.2430   -7.5000 C   0  0  0  0  0  0  0  0  0  0  0  0
   -1.5620    8.1470   -7.4090 C   0  0  0  0  0  0  0  0  0  0  0  0
   -0.3060    8.6520   -6.7020 C   0  0  0  0  0  0  0  0  0  0  0  0
    0.4720    9.5850   -7.5430 N   0  0  0  0  0  0  0  0  0  0  0  0
    0.0160   10.9440   -7.4250 N   0  0  0  0  0  0  0  0  0  0  0  0
    0.4350    9.2940   -8.9560 N   0  0  0  0  0  0  0  0  0  0  0  0
    0.0980   11.4910   -8.7640 N   0  0  0  0  0  0  0  0  0  0  0  0
    0.9880   10.5480   -9.3590 C   0  0  2  0  0  0  0  0  0  0  0  0
    1.1210   10.7090  -10.7840 N   0  0  0  0  0  0  0  0  0  0  0  0
    1.9540    9.6400  -11.3250 C   0  0  0  0  0  0  0  0  0  0  0  0
    2.9580    9.8940  -12.4830 C   0  0  1  0  0  0  0  0  0  0  0  0
    3.6710    8.5590  -12.7620 C   0  0  1  0  0  0  0  0  0  0  0  0
    2.3690   10.3420  -13.8060 C   0  0  0  0  0  0  0  0  0  0  0  0
    3.5740   10.1180  -14.6930 C   0  0  0  0  0  0  0  0  0  0  0  0
    4.0880    8.7290  -14.2520 C   0  0  0  0  0  0  0  0  0  0  0  0
    4.8900    8.3540  -11.8970 N   0  0  0  0  0  0  0  0  0  0  0  0
    2.8000    7.4450  -12.2330 C   0  0  0  0  0  0  0  0  0  0  0  0
    4.6220    7.4130  -11.0230 C   0  0  0  0  0  0  0  0  0  0  0  0
    3.3210    6.7870  -11.1760 C   0  0  0  0  0  0  0  0  0  0  0  0
    5.5900    6.9740   -9.9510 C   0  0  0  0  0  0  0  0  0  0  0  0
  1  2  1  0
  2  3  1  0
  3  4  1  0
  4  5  1  0
  4  6  1  0
  5  7  1  0
  6  8  1  0
  7  8  1  0
  8  9  1  6
  9 10  1  0
 11 10  1  1
 11 12  1  0
 11 13  1  0
 13 14  1  0
 12 15  1  6
 14 15  1  0
 12 16  1  0
 12 17  1  0
 16 18  2  0
 17 19  2  0
 18 19  1  0
 18 20  1  0
M  END
