x0631_0_A-x0864_0_A
     RDKit          3D

 27 29  0  0  0  0  0  0  0  0999 V2000
   -2.5270    7.9610   -6.4800 C   0  0  0  0  0  0  0  0  0  0  0  0
   -1.4380    8.8320   -7.0960 C   0  0  2  0  0  0  0  0  0  0  0  0
   -0.0990    8.1240   -7.4070 C   0  0  0  0  0  0  0  0  0  0  0  0
   -1.1730   10.1080   -6.3300 C   0  0  0  0  0  0  0  0  0  0  0  0
    0.8780    8.9770   -8.1210 N   0  0  0  0  0  0  0  0  0  0  0  0
   -2.1230   10.6380   -5.3830 C   0  0  0  0  0  0  0  0  0  0  0  0
   -0.0260   10.7670   -6.5280 C   0  0  0  0  0  0  0  0  0  0  0  0
    0.5620   10.3670   -7.9310 N   0  0  0  0  0  0  0  0  0  0  0  0
    0.7790    8.7830   -9.5370 N   0  0  0  0  0  0  0  0  0  0  0  0
   -1.8210   11.7410   -4.6850 C   0  0  0  0  0  0  0  0  0  0  0  0
    0.3040   12.0100   -5.8180 C   0  0  0  0  0  0  0  0  0  0  0  0
    1.3380   12.6120   -6.0940 O   0  0  0  0  0  0  0  0  0  0  0  0
    0.4040   10.9870   -9.2270 N   0  0  0  0  0  0  0  0  0  0  0  0
    1.1930   10.0750  -10.0090 C   0  0  2  0  0  0  0  0  0  0  0  0
   -0.6090   12.3950   -4.8500 N   0  0  0  0  0  0  0  0  0  0  0  0
    0.9660   10.1610  -11.3880 N   0  0  0  0  0  0  0  0  0  0  0  0
   -0.0720   13.1950   -3.7630 C   0  0  0  0  0  0  0  0  0  0  0  0
    2.1190    9.6810  -12.1040 C   0  0  1  0  0  0  0  0  0  0  0  0
    0.7850   12.4040   -2.7870 C   0  0  0  0  0  0  0  0  0  0  0  0
    1.9700    8.2650  -12.1810 O   0  0  0  0  0  0  0  0  0  0  0  0
    0.4370   11.1170   -2.6060 O   0  0  0  0  0  0  0  0  0  0  0  0
    1.7330   12.8670   -2.1780 O   0  0  0  0  0  0  0  0  0  0  0  0
    2.4390   10.2040  -13.5270 C   0  0  2  0  0  0  0  0  0  0  0  0
    3.6330    9.5060  -13.9720 O   0  0  0  0  0  0  0  0  0  0  0  0
    2.7660   11.6800  -13.6300 C   0  0  0  0  0  0  0  0  0  0  0  0
    3.7270   11.7340  -14.7910 C   0  0  0  0  0  0  0  0  0  0  0  0
    4.4580   10.4120  -14.7110 C   0  0  0  0  0  0  0  0  0  0  0  0
  2  1  1  1
  2  3  1  0
  2  4  1  0
  3  5  1  0
  4  6  1  0
  4  7  2  0
  5  8  1  0
  5  9  1  0
  6 10  2  0
  7 11  1  0
 11 12  2  0
  8 13  1  0
  9 14  1  0
 13 14  1  0
 10 15  1  0
 11 15  1  0
 14 16  1  6
 15 17  1  0
 16 18  1  0
 17 19  1  0
 18 20  1  6
 19 21  1  0
 19 22  2  0
 18 23  1  0
 23 24  1  0
 23 25  1  1
 25 26  1  0
 24 27  1  0
 26 27  1  0
M  END
