x0631_0_A_β-x0524_0_A_α
     RDKit          3D

 22 24  0  0  0  0  0  0  0  0999 V2000
   -0.6280    9.4250   -7.1810 C   0  0  0  0  0  0  0  0  0  0  0  0
   -0.9750    8.4850   -8.3190 C   0  0  2  0  0  0  0  0  0  0  0  0
   -1.4660    7.1650   -7.7630 C   0  0  0  0  0  0  0  0  0  0  0  0
   -1.3540    9.6990   -6.2360 O   0  0  0  0  0  0  0  0  0  0  0  0
    0.5980    9.9900   -7.3370 N   0  0  0  0  0  0  0  0  0  0  0  0
    1.2270    9.7390   -8.5350 N   0  0  0  0  0  0  0  0  0  0  0  0
    0.7860   11.3100   -7.0750 N   0  0  0  0  0  0  0  0  0  0  0  0
    0.2570    8.4320   -9.2530 C   0  0  0  0  0  0  0  0  0  0  0  0
    0.8880   10.9080   -9.3150 C   0  0  0  0  0  0  0  0  0  0  0  0
    0.3180   11.8110   -8.3260 N   0  0  0  0  0  0  0  0  0  0  0  0
    1.4710    7.7880   -8.9200 C   0  0  0  0  0  0  0  0  0  0  0  0
    0.1930    9.0780  -10.5040 C   0  0  0  0  0  0  0  0  0  0  0  0
    2.5690    7.8150   -9.8060 C   0  0  0  0  0  0  0  0  0  0  0  0
    1.2920    9.0980  -11.3720 C   0  0  0  0  0  0  0  0  0  0  0  0
    2.5000    8.4760  -11.0440 C   0  0  0  0  0  0  0  0  0  0  0  0
    3.5710    8.5490  -11.9640 N   0  0  0  0  0  0  0  0  0  0  0  0
    3.8770    9.4640  -12.9970 C   0  0  0  0  0  0  0  0  0  0  0  0
    3.1560   10.6480  -13.2240 C   0  0  0  0  0  0  0  0  0  0  0  0
    4.9570    9.1890  -13.8470 C   0  0  0  0  0  0  0  0  0  0  0  0
    3.5010   11.5190  -14.2600 C   0  0  0  0  0  0  0  0  0  0  0  0
    5.3050   10.0580  -14.8860 C   0  0  0  0  0  0  0  0  0  0  0  0
    4.5730   11.2270  -15.0920 C   0  0  0  0  0  0  0  0  0  0  0  0
  1  2  1  0
  2  3  1  1
  1  4  2  0
  1  5  1  0
  5  6  1  0
  5  7  1  0
  2  8  1  0
  6  9  1  0
  7 10  1  0
  9 10  1  0
  8 11  2  0
  8 12  1  0
 11 13  1  0
 12 14  2  0
 13 15  2  0
 14 15  1  0
 15 16  1  0
 16 17  1  0
 17 18  2  0
 17 19  1  0
 18 20  1  0
 19 21  2  0
 20 22  2  0
 21 22  1  0
M  END
