x0662_0_A_α-x0864_0_A_α
     RDKit          3D

 24 25  0  0  0  0  0  0  0  0999 V2000
    2.1360    9.3900  -11.5880 C   0  0  0  0  0  0  0  0  0  0  0  0
    1.9270    8.1420  -11.3470 N   0  0  0  0  0  0  0  0  0  0  0  0
    1.1260    7.6130  -10.2580 C   0  0  0  0  0  0  0  0  0  0  0  0
    2.8970    9.9980  -12.6720 C   0  0  0  0  0  0  0  0  0  0  0  0
    3.8430    9.2480  -13.2620 N   0  0  0  0  0  0  0  0  0  0  0  0
    2.8470   11.2860  -13.2700 C   0  0  0  0  0  0  0  0  0  0  0  0
    1.6330    8.1440   -8.9310 C   0  0  0  0  0  0  0  0  0  0  0  0
    4.3700   10.0370  -14.2060 N   0  0  0  0  0  0  0  0  0  0  0  0
    3.8090   11.2760  -14.2570 C   0  0  0  0  0  0  0  0  0  0  0  0
    5.4340    9.5240  -15.0340 C   0  0  0  0  0  0  0  0  0  0  0  0
    0.8140    9.3360   -8.4270 C   0  0  0  0  0  0  0  0  0  0  0  0
    1.4560   10.7400   -8.5110 C   0  0  0  0  0  0  0  0  0  0  0  0
    1.3280   11.3840   -7.2160 N   0  0  0  0  0  0  0  0  0  0  0  0
    0.2050   11.1940   -6.6600 C   0  0  0  0  0  0  0  0  0  0  0  0
   -0.1400   11.6620   -5.3920 N   0  0  0  0  0  0  0  0  0  0  0  0
   -0.8180   10.3760   -7.3690 C   0  0  0  0  0  0  0  0  0  0  0  0
    0.7610   12.6180   -4.7140 C   0  0  0  0  0  0  0  0  0  0  0  0
   -0.8170   10.7210   -4.6440 C   0  0  0  0  0  0  0  0  0  0  0  0
   -1.6460    9.6660   -6.6240 C   0  0  0  0  0  0  0  0  0  0  0  0
    0.8530   12.3400   -3.2130 C   0  0  0  0  0  0  0  0  0  0  0  0
   -2.9320    8.5530   -7.3850 Br  0  0  0  0  0  0  0  0  0  0  0  0
   -1.5560    9.7390   -5.1920 C   0  0  0  0  0  0  0  0  0  0  0  0
    0.6180   11.0470   -2.9000 O   0  0  0  0  0  0  0  0  0  0  0  0
    1.1020   13.1200   -2.3110 O   0  0  0  0  0  0  0  0  0  0  0  0
  1  2  2  3
  2  3  1  0
  1  4  1  0
  4  5  2  0
  4  6  1  0
  3  7  1  0
  5  8  1  0
  6  9  2  0
  8  9  1  0
  8 10  1  0
  7 11  1  0
 11 12  1  0
 12 13  1  0
 13 14  2  3
 14 15  1  0
 14 16  1  0
 15 17  1  0
 15 18  1  0
 16 19  2  0
 17 20  1  0
 19 21  1  0
 18 22  2  0
 19 22  1  0
 20 23  1  0
 20 24  2  0
M  END
