x0662_0_A_β-x0159_0_B_α
     RDKit          3D

 18 19  0  0  0  0  0  0  0  0999 V2000
    1.6020   10.5820  -10.2590 N   0  0  0  0  0  0  0  0  0  0  0  0
    0.9430   10.0740   -9.1200 C   0  0  0  0  0  0  0  0  0  0  0  0
    0.6260    8.7320   -8.9780 C   0  0  0  0  0  0  0  0  0  0  0  0
    0.5970   10.9340   -8.0890 C   0  0  0  0  0  0  0  0  0  0  0  0
    0.9980    7.7120  -10.0040 C   0  0  0  0  0  0  0  0  0  0  0  0
   -0.0550   10.5370   -6.9340 C   0  0  0  0  0  0  0  0  0  0  0  0
   -0.0610    8.3070   -7.8250 C   0  0  0  0  0  0  0  0  0  0  0  0
   -0.3480   11.5630   -5.8650 C   0  0  0  0  0  0  0  0  0  0  0  0
    0.3350    6.3640   -9.7480 C   0  0  0  0  0  0  0  0  0  0  0  0
   -0.4010    9.1980   -6.8140 C   0  0  0  0  0  0  0  0  0  0  0  0
   -1.4780   11.5260   -5.2930 O   0  0  0  0  0  0  0  0  0  0  0  0
    0.5880   12.3890   -5.6040 O   0  0  0  0  0  0  0  0  0  0  0  0
    1.0180    5.4400   -8.7650 C   0  0  0  0  0  0  0  0  0  0  0  0
    0.6020    5.3830   -7.4280 C   0  0  0  0  0  0  0  0  0  0  0  0
    2.0670    4.6210   -9.1820 C   0  0  0  0  0  0  0  0  0  0  0  0
    1.2250    4.5190   -6.5440 C   0  0  0  0  0  0  0  0  0  0  0  0
    2.6900    3.7550   -8.2890 C   0  0  0  0  0  0  0  0  0  0  0  0
    2.2690    3.7050   -6.9710 C   0  0  0  0  0  0  0  0  0  0  0  0
  1  2  1  0
  2  3  2  0
  2  4  1  0
  3  5  1  0
  4  6  2  0
  3  7  1  0
  6  8  1  0
  5  9  1  0
  6 10  1  0
  7 10  2  0
  8 11  2  0
  8 12  1  0
  9 13  1  0
 13 14  2  0
 13 15  1  0
 14 16  1  0
 15 17  2  0
 16 18  2  0
 17 18  1  0
M  CHG  1  12  -1
M  END
