x0662_0_A_α-x0685_1_A_α
     RDKit          3D

 23 24  0  0  0  0  0  0  0  0999 V2000
    1.9410    9.0610  -11.6330 C   0  0  0  0  0  0  0  0  0  0  0  0
    2.1940    8.1470  -10.7480 N   0  0  0  0  0  0  0  0  0  0  0  0
    1.1470    7.5810   -9.8790 C   0  0  0  0  0  0  0  0  0  0  0  0
    2.8020    9.7110  -12.6340 C   0  0  0  0  0  0  0  0  0  0  0  0
    3.8280    9.0990  -13.2420 N   0  0  0  0  0  0  0  0  0  0  0  0
    2.6800   11.0520  -13.1170 C   0  0  0  0  0  0  0  0  0  0  0  0
    1.3040    7.9550   -8.4000 C   0  0  0  0  0  0  0  0  0  0  0  0
    4.3380   10.0100  -14.0830 N   0  0  0  0  0  0  0  0  0  0  0  0
    3.6810   11.2070  -14.0470 C   0  0  0  0  0  0  0  0  0  0  0  0
    5.4710    9.6510  -14.8980 C   0  0  0  0  0  0  0  0  0  0  0  0
    0.4140    9.1490   -8.0060 C   0  0  2  0  0  0  0  0  0  0  0  0
   -0.3010    9.0400   -6.6510 C   0  0  0  0  0  0  0  0  0  0  0  0
   -0.6410    9.5250   -9.0520 C   0  0  0  0  0  0  0  0  0  0  0  0
   -0.7340   10.4640   -6.2600 C   0  0  2  0  0  0  0  0  0  0  0  0
   -1.2980   10.8790   -8.7570 C   0  0  0  0  0  0  0  0  0  0  0  0
   -1.2590   10.4760   -4.8800 N   0  0  0  0  0  0  0  0  0  0  0  0
   -1.7450   11.0170   -7.2920 C   0  0  0  0  0  0  0  0  0  0  0  0
   -1.5430   11.8360   -4.3900 C   0  0  0  0  0  0  0  0  0  0  0  0
   -0.2560   12.6060   -4.1020 C   0  0  0  0  0  0  0  0  0  0  0  0
    0.5920   12.0020   -2.6410 S   0  0  0  0  0  0  0  0  0  0  0  0
    2.1430   12.2960   -2.8760 O   0  0  0  0  0  0  0  0  0  0  0  0
    0.2980   10.4300   -2.5210 O   0  0  0  0  0  0  0  0  0  0  0  0
    0.0660   12.7460   -1.3270 O   0  0  0  0  0  0  0  0  0  0  0  0
  1  2  2  3
  2  3  1  0
  1  4  1  0
  4  5  2  0
  4  6  1  0
  3  7  1  0
  5  8  1  0
  6  9  2  0
  8  9  1  0
  8 10  1  0
 11  7  1  6
 11 12  1  0
 11 13  1  0
 12 14  1  0
 13 15  1  0
 14 16  1  1
 14 17  1  0
 15 17  1  0
 16 18  1  0
 18 19  1  0
 19 20  1  0
 20 21  1  0
 20 22  1  0
 20 23  1  0
M  END
