x0662_0_A_β-x0104_0_A_β
     RDKit          3D

 22 23  0  0  0  0  0  0  0  0999 V2000
    1.5880   10.4680  -10.4080 N   0  0  0  0  0  0  0  0  0  0  0  0
    0.7480   10.1340   -9.3340 C   0  0  0  0  0  0  0  0  0  0  0  0
   -0.1430    9.0660   -9.4340 C   0  0  0  0  0  0  0  0  0  0  0  0
    0.7840   10.8700   -8.1430 C   0  0  0  0  0  0  0  0  0  0  0  0
   -0.0370   10.5820   -7.0530 C   0  0  0  0  0  0  0  0  0  0  0  0
   -0.9750    8.7480   -8.3630 C   0  0  0  0  0  0  0  0  0  0  0  0
    0.0760   11.4620   -5.8060 C   0  0  0  0  0  0  0  0  0  0  0  0
   -0.9230    9.5000   -7.1830 C   0  0  0  0  0  0  0  0  0  0  0  0
   -0.9340   11.4430   -4.9990 N   0  0  0  0  0  0  0  0  0  0  0  0
    1.1600   12.0800   -5.7760 O   0  0  0  0  0  0  0  0  0  0  0  0
   -0.9200   12.2690   -3.7920 C   0  0  0  0  0  0  0  0  0  0  0  0
   -2.1680   13.1600   -3.7610 C   0  0  0  0  0  0  0  0  0  0  0  0
   -2.3870   13.9650   -2.4720 C   0  0  0  0  0  0  0  0  0  0  0  0
   -3.3550   15.1450   -2.6040 C   0  0  0  0  0  0  0  0  0  0  0  0
   -4.7190   14.7200   -2.4730 O   0  0  0  0  0  0  0  0  0  0  0  0
   -5.1990   14.7380   -1.1840 C   0  0  0  0  0  0  0  0  0  0  0  0
   -4.3530   14.8130   -0.1410 N   0  0  0  0  0  0  0  0  0  0  0  0
   -6.5770   14.6730   -1.0480 C   0  0  0  0  0  0  0  0  0  0  0  0
   -4.9110   14.8260    1.0860 C   0  0  0  0  0  0  0  0  0  0  0  0
   -7.1230   14.6820    0.2320 C   0  0  0  0  0  0  0  0  0  0  0  0
   -6.2830   14.7620    1.3370 C   0  0  0  0  0  0  0  0  0  0  0  0
   -6.8010   14.7810    2.6300 N   0  0  0  0  0  0  0  0  0  0  0  0
  1  2  1  0
  2  3  2  0
  2  4  1  0
  4  5  2  0
  3  6  1  0
  5  7  1  0
  5  8  1  0
  6  8  2  0
  7  9  2  3
  7 10  1  0
  9 11  1  0
 11 12  1  0
 12 13  1  0
 13 14  1  0
 14 15  1  0
 15 16  1  0
 16 17  2  0
 16 18  1  0
 17 19  1  0
 18 20  2  0
 19 21  2  0
 20 21  1  0
 21 22  1  0
M  CHG  1  10  -1
M  END
