x0662_0_A-x1012_0_A
     RDKit          3D

 31 33  0  0  0  0  0  0  0  0999 V2000
    5.3230    9.5550  -15.0150 C   0  0  0  0  0  0  0  0  0  0  0  0
    4.2740   10.0330  -14.1440 N   0  0  0  0  0  0  0  0  0  0  0  0
    3.6250   11.2320  -14.2100 C   0  0  0  0  0  0  0  0  0  0  0  0
    3.8550    9.2490  -13.1370 N   0  0  0  0  0  0  0  0  0  0  0  0
    2.7220   11.2310  -13.1750 C   0  0  0  0  0  0  0  0  0  0  0  0
    2.8940    9.9760  -12.5240 C   0  0  0  0  0  0  0  0  0  0  0  0
    2.1810    9.4510  -11.3330 C   0  0  0  0  0  0  0  0  0  0  0  0
    2.3390    8.2810  -10.9990 O   0  0  0  0  0  0  0  0  0  0  0  0
    1.3860   10.3890  -10.6900 N   0  0  0  0  0  0  0  0  0  0  0  0
    0.5950   10.2110   -9.5320 C   0  0  0  0  0  0  0  0  0  0  0  0
   -0.4880    9.3300   -9.6620 C   0  0  0  0  0  0  0  0  0  0  0  0
    0.8100   10.8280   -8.2950 C   0  0  0  0  0  0  0  0  0  0  0  0
   -1.3400    9.0670   -8.5850 C   0  0  0  0  0  0  0  0  0  0  0  0
   -0.0370   10.5630   -7.2130 C   0  0  0  0  0  0  0  0  0  0  0  0
    0.2260   11.1980   -5.8870 C   0  0  0  0  0  0  0  0  0  0  0  0
   -1.1130    9.6840   -7.3580 C   0  0  0  0  0  0  0  0  0  0  0  0
   -0.1000   10.6020   -4.8020 N   0  0  0  0  0  0  0  0  0  0  0  0
    0.8320   12.2710   -6.0540 O   0  0  0  0  0  0  0  0  0  0  0  0
    0.2600   11.0740   -3.4830 C   0  0  0  0  0  0  0  0  0  0  0  0
   -0.4670   12.1600   -3.0290 O   0  0  0  0  0  0  0  0  0  0  0  0
    0.1970   13.0330   -2.2850 C   0  0  0  0  0  0  0  0  0  0  0  0
    0.8280   12.8020   -1.2610 O   0  0  0  0  0  0  0  0  0  0  0  0
   -0.0150   14.3960   -2.8730 C   0  0  0  0  0  0  0  0  0  0  0  0
   -1.4490   14.5310   -3.4190 C   0  0  0  0  0  0  0  0  0  0  0  0
    1.0850   14.6980   -3.9050 C   0  0  0  0  0  0  0  0  0  0  0  0
   -1.4660   14.8900   -4.8860 C   0  0  0  0  0  0  0  0  0  0  0  0
    0.7600   15.9410   -4.7330 C   0  0  0  0  0  0  0  0  0  0  0  0
   -0.6610   16.0760   -5.0650 N   0  0  0  0  0  0  0  0  0  0  0  0
   -1.3190   17.2630   -4.9230 C   0  0  0  0  0  0  0  0  0  0  0  0
   -0.5490   18.3620   -4.7750 N   0  0  0  0  0  0  0  0  0  0  0  0
   -2.5310   17.3870   -4.9070 O   0  0  0  0  0  0  0  0  0  0  0  0
  1  2  1  0
  2  3  1  0
  2  4  1  0
  3  5  2  0
  4  6  2  0
  5  6  1  0
  6  7  1  0
  7  8  2  0
  7  9  1  0
  9 10  1  0
 10 11  2  0
 10 12  1  0
 11 13  1  0
 12 14  2  0
 14 15  1  0
 13 16  2  0
 14 16  1  0
 15 17  2  3
 15 18  1  0
 17 19  1  0
 19 20  1  0
 20 21  1  0
 21 22  2  0
 21 23  1  0
 23 24  1  0
 23 25  1  0
 24 26  1  0
 25 27  1  0
 26 28  1  0
 27 28  1  0
 28 29  1  0
 29 30  1  0
 29 31  2  0
M  CHG  1  18  -1
M  END
