x0662_0_A_β-x0855_0_A_α
     RDKit          3D

 19 20  0  0  0  0  0  0  0  0999 V2000
    1.8150   10.1210  -10.6640 N   0  0  0  0  0  0  0  0  0  0  0  0
    1.0320   10.0880   -9.5120 C   0  0  0  0  0  0  0  0  0  0  0  0
   -0.0790    9.2520   -9.4560 C   0  0  0  0  0  0  0  0  0  0  0  0
    1.3490   10.8890   -8.4130 C   0  0  0  0  0  0  0  0  0  0  0  0
    0.5660   10.8760   -7.2590 C   0  0  0  0  0  0  0  0  0  0  0  0
   -0.8690    9.2160   -8.3160 C   0  0  0  0  0  0  0  0  0  0  0  0
    0.9830   11.7890   -6.1160 C   0  0  0  0  0  0  0  0  0  0  0  0
   -0.5540   10.0230   -7.2210 C   0  0  0  0  0  0  0  0  0  0  0  0
    2.0830   12.2410   -6.1850 O   0  0  0  0  0  0  0  0  0  0  0  0
    0.1670   12.0650   -5.0540 N   0  0  0  0  0  0  0  0  0  0  0  0
    0.6080   11.9700   -3.7360 C   0  0  0  0  0  0  0  0  0  0  0  0
   -0.9910   11.5200   -5.3100 N   0  0  0  0  0  0  0  0  0  0  0  0
    1.1610   13.0890   -3.2040 O   0  0  0  0  0  0  0  0  0  0  0  0
    0.5580   11.0020   -2.9940 O   0  0  0  0  0  0  0  0  0  0  0  0
   -1.0130   10.1860   -5.5530 C   0  0  0  0  0  0  0  0  0  0  0  0
   -2.1790   12.1300   -5.3860 N   0  0  0  0  0  0  0  0  0  0  0  0
   -2.3080    9.9060   -5.8240 C   0  0  0  0  0  0  0  0  0  0  0  0
   -2.9960   11.1170   -5.7070 C   0  0  0  0  0  0  0  0  0  0  0  0
   -3.0220    8.2520   -6.2720 Br  0  0  0  0  0  0  0  0  0  0  0  0
  1  2  1  0
  2  3  2  0
  2  4  1  0
  4  5  2  0
  3  6  1  0
  5  7  1  0
  5  8  1  0
  6  8  2  0
  7  9  2  0
  7 10  1  0
 10 11  1  0
 10 12  1  0
 11 13  1  0
 11 14  2  0
 12 15  1  0
 12 16  1  0
 15 17  2  0
 16 18  2  0
 17 18  1  0
 17 19  1  0
M  END
