x0662_0_A-x0465_0_A
     RDKit          3D

 29 31  0  0  0  0  0  0  0  0999 V2000
    5.4580    9.5070  -15.1940 C   0  0  0  0  0  0  0  0  0  0  0  0
    4.4230    9.9630  -14.3020 N   0  0  0  0  0  0  0  0  0  0  0  0
    3.7630   11.1590  -14.3560 C   0  0  0  0  0  0  0  0  0  0  0  0
    4.0310    9.1670  -13.2950 N   0  0  0  0  0  0  0  0  0  0  0  0
    2.8840   11.1380  -13.3060 C   0  0  0  0  0  0  0  0  0  0  0  0
    3.0820    9.8780  -12.6630 C   0  0  0  0  0  0  0  0  0  0  0  0
    2.3620    9.4170  -11.4710 C   0  0  0  0  0  0  0  0  0  0  0  0
    2.2980    8.2200  -11.1780 O   0  0  0  0  0  0  0  0  0  0  0  0
    1.7630   10.3160  -10.6300 N   0  0  0  0  0  0  0  0  0  0  0  0
    0.8750   10.1880   -9.5740 C   0  0  0  0  0  0  0  0  0  0  0  0
   -0.1110    9.2190   -9.7250 C   0  0  0  0  0  0  0  0  0  0  0  0
    0.9170   10.9650   -8.4130 C   0  0  0  0  0  0  0  0  0  0  0  0
   -1.0470    9.0370   -8.7320 C   0  0  0  0  0  0  0  0  0  0  0  0
    0.0040   10.8260   -7.4070 C   0  0  0  0  0  0  0  0  0  0  0  0
   -0.1350   11.6080   -6.0760 C   0  0  2  0  0  0  0  0  0  0  0  0
   -0.9870    9.8310   -7.6010 C   0  0  0  0  0  0  0  0  0  0  0  0
   -0.7200   12.8630   -6.3300 O   0  0  0  0  0  0  0  0  0  0  0  0
    0.9550   11.8460   -5.0750 N   0  0  0  0  0  0  0  0  0  0  0  0
   -1.3120   10.7320   -5.8610 C   0  0  0  0  0  0  0  0  0  0  0  0
    2.0150   12.7480   -5.5050 C   0  0  0  0  0  0  0  0  0  0  0  0
    0.7340   11.9780   -3.6960 C   0  0  0  0  0  0  0  0  0  0  0  0
   -1.1360    9.3430   -5.9790 C   0  0  0  0  0  0  0  0  0  0  0  0
   -2.5780   11.2280   -5.6140 C   0  0  0  0  0  0  0  0  0  0  0  0
    0.7480   13.0150   -3.0340 O   0  0  0  0  0  0  0  0  0  0  0  0
    0.5170   10.8320   -3.0310 O   0  0  0  0  0  0  0  0  0  0  0  0
    0.0640    8.8060   -6.2400 F   0  0  0  0  0  0  0  0  0  0  0  0
   -2.1930    8.4700   -5.8520 C   0  0  0  0  0  0  0  0  0  0  0  0
   -3.6430   10.3550   -5.4980 C   0  0  0  0  0  0  0  0  0  0  0  0
   -3.4560    8.9800   -5.6140 C   0  0  0  0  0  0  0  0  0  0  0  0
  1  2  1  0
  2  3  1  0
  2  4  1  0
  3  5  2  0
  4  6  2  0
  5  6  1  0
  6  7  1  0
  7  8  2  0
  7  9  1  0
  9 10  1  0
 10 11  2  0
 10 12  1  0
 11 13  1  0
 12 14  2  0
 14 15  1  0
 13 16  2  0
 14 16  1  0
 15 17  1  6
 15 18  1  0
 15 19  1  0
 18 20  1  0
 18 21  1  0
 19 22  2  0
 19 23  1  0
 21 24  2  0
 21 25  1  0
 22 26  1  0
 22 27  1  0
 23 28  2  0
 27 29  2  0
 28 29  1  0
M  END
