x0662_0_A_β-x0711_0_A_α
     RDKit          3D

 25 26  0  0  0  0  0  0  0  0999 V2000
    1.5550   10.5320  -10.5550 N   0  0  0  0  0  0  0  0  0  0  0  0
    0.7320   10.1570   -9.4730 C   0  0  0  0  0  0  0  0  0  0  0  0
   -0.1730    9.1110   -9.6200 C   0  0  0  0  0  0  0  0  0  0  0  0
    0.8080   10.8230   -8.2460 C   0  0  0  0  0  0  0  0  0  0  0  0
   -0.0020   10.4710   -7.1720 C   0  0  0  0  0  0  0  0  0  0  0  0
   -0.9920    8.7380   -8.5590 C   0  0  0  0  0  0  0  0  0  0  0  0
    0.0170   11.1450   -5.8190 C   0  0  0  0  0  0  0  0  0  0  0  0
   -0.9060    9.4170   -7.3420 C   0  0  0  0  0  0  0  0  0  0  0  0
   -0.8380   10.6940   -4.9700 N   0  0  0  0  0  0  0  0  0  0  0  0
    0.8800   12.0400   -5.7500 O   0  0  0  0  0  0  0  0  0  0  0  0
   -0.8850   11.2780   -3.6370 C   0  0  0  0  0  0  0  0  0  0  0  0
   -1.5100   12.6470   -3.7370 C   0  0  0  0  0  0  0  0  0  0  0  0
   -0.5300   13.8820   -2.9300 S   0  0  0  0  0  0  0  0  0  0  0  0
   -1.6210   15.1040   -2.5940 N   0  0  0  0  0  0  0  0  0  0  0  0
    0.4110   14.4050   -3.9060 O   0  0  0  0  0  0  0  0  0  0  0  0
   -0.0070   13.3450   -1.6910 O   0  0  0  0  0  0  0  0  0  0  0  0
   -2.8090   14.9460   -1.8100 C   0  0  0  0  0  0  0  0  0  0  0  0
   -4.0340   15.1800   -2.4310 C   0  0  0  0  0  0  0  0  0  0  0  0
   -2.7780   14.5830   -0.4580 C   0  0  0  0  0  0  0  0  0  0  0  0
   -5.2240   15.0660   -1.7200 C   0  0  0  0  0  0  0  0  0  0  0  0
   -3.9740   14.4650    0.2650 C   0  0  0  0  0  0  0  0  0  0  0  0
   -5.2040   14.7090   -0.3670 C   0  0  0  0  0  0  0  0  0  0  0  0
   -6.4740   14.5860    0.4040 C   0  0  0  0  0  0  0  0  0  0  0  0
   -6.4310   14.6970    1.7740 N   0  0  0  0  0  0  0  0  0  0  0  0
   -7.5480   14.4070   -0.1550 O   0  0  0  0  0  0  0  0  0  0  0  0
  1  2  1  0
  2  3  2  0
  2  4  1  0
  4  5  2  0
  3  6  1  0
  5  7  1  0
  5  8  1  0
  6  8  2  0
  7  9  2  3
  7 10  1  0
  9 11  1  0
 11 12  1  0
 12 13  1  0
 13 14  1  0
 13 15  2  0
 13 16  2  0
 14 17  1  0
 17 18  2  0
 17 19  1  0
 18 20  1  0
 19 21  2  0
 20 22  2  0
 21 22  1  0
 22 23  1  0
 23 24  1  0
 23 25  2  0
M  CHG  1  10  -1
M  END
