x0662_0_A_β-x0837_0_A_α
     RDKit          3D

 21 22  0  0  0  0  0  0  0  0999 V2000
    1.5210   10.5100  -10.4700 N   0  0  0  0  0  0  0  0  0  0  0  0
    0.7100   10.2070   -9.3550 C   0  0  0  0  0  0  0  0  0  0  0  0
   -0.2210    9.2000   -9.4520 C   0  0  0  0  0  0  0  0  0  0  0  0
    0.7960   10.8710   -8.1600 C   0  0  0  0  0  0  0  0  0  0  0  0
    0.0140   10.5940   -7.0710 C   0  0  0  0  0  0  0  0  0  0  0  0
   -1.0370    8.8860   -8.3570 C   0  0  0  0  0  0  0  0  0  0  0  0
    0.1460   11.3390   -5.8140 C   0  0  0  0  0  0  0  0  0  0  0  0
   -0.9140    9.5840   -7.1770 C   0  0  0  0  0  0  0  0  0  0  0  0
   -0.6560   11.1440   -4.8260 N   0  0  0  0  0  0  0  0  0  0  0  0
    1.1940   12.2660   -5.7260 O   0  0  0  0  0  0  0  0  0  0  0  0
   -0.4620   11.8880   -3.6010 C   0  0  0  0  0  0  0  0  0  0  0  0
   -0.5930   13.3770   -3.7680 C   0  0  0  0  0  0  0  0  0  0  0  0
   -1.1080   14.0520   -2.5150 C   0  0  0  0  0  0  0  0  0  0  0  0
   -3.0790   14.7710   -2.7400 I   0  0  0  0  0  0  0  0  0  0  0  0
   -4.1660   14.4640   -0.9410 C   0  0  1  0  0  0  0  0  0  0  0  0
   -3.5680   15.0420    0.2660 C   0  0  0  0  0  0  0  0  0  0  0  0
   -5.5550   15.0190   -1.1020 C   0  0  0  0  0  0  0  0  0  0  0  0
   -4.2820   15.2260    1.3580 C   0  0  0  0  0  0  0  0  0  0  0  0
   -6.3500   14.8410    0.1330 C   0  0  0  0  0  0  0  0  0  0  0  0
   -7.5890   14.6830    0.0650 O   0  0  0  0  0  0  0  0  0  0  0  0
   -5.6540   14.8600    1.3760 N   0  0  0  0  0  0  0  0  0  0  0  0
  1  2  1  0
  2  3  2  0
  2  4  1  0
  4  5  2  0
  3  6  1  0
  5  7  1  0
  5  8  1  0
  6  8  2  0
  7  9  2  3
  7 10  1  0
  9 11  1  0
 11 12  1  0
 12 13  1  0
 13 14  1  0
 15 14  1  6
 15 16  1  0
 15 17  1  0
 16 18  2  0
 17 19  1  0
 19 20  2  0
 18 21  1  0
 19 21  1  0
M  CHG  1  10  -1
M  END
