x0662_0_A_β-x0967_0_A_α
     RDKit          3D

 24 26  0  0  0  0  0  0  0  0999 V2000
    1.5420   10.3940  -10.4420 N   0  0  0  0  0  0  0  0  0  0  0  0
    0.7110   10.1080   -9.3420 C   0  0  0  0  0  0  0  0  0  0  0  0
   -0.2220    9.0770   -9.3980 C   0  0  0  0  0  0  0  0  0  0  0  0
    0.8110   10.8630   -8.1700 C   0  0  0  0  0  0  0  0  0  0  0  0
    0.0080   10.6330   -7.0500 C   0  0  0  0  0  0  0  0  0  0  0  0
   -1.0380    8.8140   -8.2940 C   0  0  0  0  0  0  0  0  0  0  0  0
    0.1040   11.4630   -5.7660 C   0  0  0  0  0  0  0  0  0  0  0  0
   -0.9220    9.5890   -7.1320 C   0  0  0  0  0  0  0  0  0  0  0  0
   -0.8740   11.3930   -4.9150 N   0  0  0  0  0  0  0  0  0  0  0  0
    1.1680   12.1140   -5.7420 O   0  0  0  0  0  0  0  0  0  0  0  0
   -0.7230   12.2150   -3.7030 C   0  0  0  0  0  0  0  0  0  0  0  0
   -2.1090   12.4670   -3.0900 C   0  0  0  0  0  0  0  0  0  0  0  0
   -2.8450   13.6460   -3.7540 C   0  0  0  0  0  0  0  0  0  0  0  0
   -2.8740   14.9310   -2.9090 C   0  0  0  0  0  0  0  0  0  0  0  0
   -3.6490   14.8980   -1.6060 C   0  0  0  0  0  0  0  0  0  0  0  0
   -4.9980   14.7800   -1.7160 N   0  0  0  0  0  0  0  0  0  0  0  0
   -3.0170   14.9790   -0.3710 C   0  0  0  0  0  0  0  0  0  0  0  0
   -5.7520   14.7350   -0.6170 C   0  0  0  0  0  0  0  0  0  0  0  0
   -3.7840   14.9370    0.7770 C   0  0  0  0  0  0  0  0  0  0  0  0
   -7.0770   14.6120   -0.7490 N   0  0  0  0  0  0  0  0  0  0  0  0
   -5.1680   14.8110    0.6620 C   0  0  0  0  0  0  0  0  0  0  0  0
   -5.9900   14.7550    1.7890 C   0  0  0  0  0  0  0  0  0  0  0  0
   -7.8520   14.5560    0.3560 C   0  0  0  0  0  0  0  0  0  0  0  0
   -7.3590   14.6230    1.6420 C   0  0  0  0  0  0  0  0  0  0  0  0
  1  2  1  0
  2  3  2  0
  2  4  1  0
  4  5  2  0
  3  6  1  0
  5  7  1  0
  5  8  1  0
  6  8  2  0
  7  9  2  3
  7 10  1  0
  9 11  1  0
 11 12  1  0
 12 13  1  0
 13 14  1  0
 14 15  1  0
 15 16  2  0
 15 17  1  0
 16 18  1  0
 17 19  2  0
 18 20  2  0
 18 21  1  0
 19 21  1  0
 21 22  2  0
 20 23  1  0
 22 24  1  0
 23 24  2  0
M  CHG  1  10  -1
M  END
