x0662_0_A_β-x0962_3_A_α
     RDKit          3D

 11 11  0  0  0  0  0  0  0  0999 V2000
    1.6150   10.4080  -10.0860 N   0  0  0  0  0  0  0  0  0  0  0  0
    0.6040   10.0920   -9.1330 C   0  0  0  0  0  0  0  0  0  0  0  0
   -0.3980    9.1900   -9.4670 C   0  0  0  0  0  0  0  0  0  0  0  0
    0.5970   10.6860   -7.8390 C   0  0  0  0  0  0  0  0  0  0  0  0
   -0.3680   10.4180   -6.9200 C   0  0  0  0  0  0  0  0  0  0  0  0
   -1.3870    8.8940   -8.5270 C   0  0  0  0  0  0  0  0  0  0  0  0
    1.5640   11.5900   -7.3830 N   0  0  0  0  0  0  0  0  0  0  0  0
   -0.2860   11.1350   -5.5900 C   0  0  0  0  0  0  0  0  0  0  0  0
   -1.3720    9.5070   -7.2630 C   0  0  0  0  0  0  0  0  0  0  0  0
   -1.2730   11.0150   -4.8140 O   0  0  0  0  0  0  0  0  0  0  0  0
    0.7610   11.8240   -5.3520 O   0  0  0  0  0  0  0  0  0  0  0  0
  1  2  1  0
  2  3  2  0
  2  4  1  0
  4  5  2  0
  3  6  1  0
  4  7  1  0
  5  8  1  0
  5  9  1  0
  6  9  2  0
  8 10  2  0
  8 11  1  0
M  CHG  1  11  -1
M  END
