x0662_0_A-x0685_1_A
     RDKit          3D

 24 25  0  0  0  0  0  0  0  0999 V2000
    5.3460    9.5960  -15.0820 C   0  0  0  0  0  0  0  0  0  0  0  0
    4.3020   10.0330  -14.1870 N   0  0  0  0  0  0  0  0  0  0  0  0
    3.6200   11.2150  -14.2170 C   0  0  0  0  0  0  0  0  0  0  0  0
    3.9260    9.2150  -13.1940 N   0  0  0  0  0  0  0  0  0  0  0  0
    2.7380   11.1650  -13.1630 C   0  0  0  0  0  0  0  0  0  0  0  0
    2.9610    9.8990  -12.5480 C   0  0  0  0  0  0  0  0  0  0  0  0
    2.2950    9.3170  -11.3630 C   0  0  0  0  0  0  0  0  0  0  0  0
    2.4260    8.1270  -11.1050 O   0  0  0  0  0  0  0  0  0  0  0  0
    1.5670   10.2280  -10.6250 N   0  0  0  0  0  0  0  0  0  0  0  0
    0.7150    9.9460   -9.5490 C   0  0  0  0  0  0  0  0  0  0  0  0
   -0.1850    8.8880   -9.5650 C   0  0  0  0  0  0  0  0  0  0  0  0
    0.7780   10.7660   -8.4150 C   0  0  0  0  0  0  0  0  0  0  0  0
   -1.0100    8.6530   -8.4650 C   0  0  0  0  0  0  0  0  0  0  0  0
   -0.0430   10.5550   -7.3000 C   0  0  0  0  0  0  0  0  0  0  0  0
   -0.0580   11.3960   -6.0400 C   0  0  0  0  0  0  0  0  0  0  0  0
   -0.9360    9.4820   -7.3470 C   0  0  0  0  0  0  0  0  0  0  0  0
   -1.1910   11.3540   -5.4060 N   0  0  0  0  0  0  0  0  0  0  0  0
    1.0220   11.9820   -5.8470 O   0  0  0  0  0  0  0  0  0  0  0  0
   -1.4140   12.1200   -4.1740 C   0  0  0  0  0  0  0  0  0  0  0  0
   -0.1770   12.9180   -3.8170 C   0  0  0  0  0  0  0  0  0  0  0  0
    0.7130   12.1090   -2.4970 S   0  0  0  0  0  0  0  0  0  0  0  0
    2.2550   12.3710   -2.8330 O   0  0  0  0  0  0  0  0  0  0  0  0
    0.3510   10.5360   -2.4990 O   0  0  0  0  0  0  0  0  0  0  0  0
    0.2920   12.8090   -1.1230 O   0  0  0  0  0  0  0  0  0  0  0  0
  1  2  1  0
  2  3  1  0
  2  4  1  0
  3  5  2  0
  4  6  2  0
  5  6  1  0
  6  7  1  0
  7  8  2  0
  7  9  1  0
  9 10  1  0
 10 11  2  0
 10 12  1  0
 11 13  1  0
 12 14  2  0
 14 15  1  0
 13 16  2  0
 14 16  1  0
 15 17  2  3
 15 18  1  0
 17 19  1  0
 19 20  1  0
 20 21  1  0
 21 22  1  0
 21 23  1  0
 21 24  1  0
M  CHG  1  18  -1
M  END
