x0662_0_A_β-x0969_0_A_α
     RDKit          3D

 24 26  0  0  0  0  0  0  0  0999 V2000
    1.5190   10.5930  -10.4840 N   0  0  0  0  0  0  0  0  0  0  0  0
    0.6940   10.2350   -9.4040 C   0  0  0  0  0  0  0  0  0  0  0  0
   -0.2610    9.2260   -9.5450 C   0  0  0  0  0  0  0  0  0  0  0  0
    0.8140   10.8820   -8.1730 C   0  0  0  0  0  0  0  0  0  0  0  0
   -0.0010   10.5370   -7.1030 C   0  0  0  0  0  0  0  0  0  0  0  0
   -1.0840    8.8710   -8.4710 C   0  0  0  0  0  0  0  0  0  0  0  0
    0.1510   11.2440   -5.7930 C   0  0  0  0  0  0  0  0  0  0  0  0
   -0.9550    9.5290   -7.2470 C   0  0  0  0  0  0  0  0  0  0  0  0
   -0.4810   10.8820   -4.7340 N   0  0  0  0  0  0  0  0  0  0  0  0
    0.9700   12.1700   -5.9430 O   0  0  0  0  0  0  0  0  0  0  0  0
   -0.2930   11.5480   -3.4590 C   0  0  0  0  0  0  0  0  0  0  0  0
   -0.9440   12.9240   -3.5080 C   0  0  0  0  0  0  0  0  0  0  0  0
   -1.4510   13.2990   -2.1230 C   0  0  0  0  0  0  0  0  0  0  0  0
   -1.9980   14.7230   -2.0200 C   0  0  0  0  0  0  0  0  0  0  0  0
   -3.2160   14.8190   -1.1460 C   0  0  0  0  0  0  0  0  0  0  0  0
   -4.4710   14.7330   -1.6470 C   0  0  0  0  0  0  0  0  0  0  0  0
   -2.9920   14.9800    0.2890 C   0  0  0  0  0  0  0  0  0  0  0  0
   -5.5820   14.7410   -0.7650 C   0  0  0  0  0  0  0  0  0  0  0  0
   -4.0370   14.9960    1.1150 C   0  0  0  0  0  0  0  0  0  0  0  0
   -6.8820   14.6360   -0.9570 N   0  0  0  0  0  0  0  0  0  0  0  0
   -5.3240   14.8560    0.5890 N   0  0  0  0  0  0  0  0  0  0  0  0
   -6.5660   14.7930    1.1950 C   0  0  0  0  0  0  0  0  0  0  0  0
   -7.4970   14.6670    0.2760 N   0  0  0  0  0  0  0  0  0  0  0  0
   -6.7570   14.8650    2.5330 N   0  0  0  0  0  0  0  0  0  0  0  0
  1  2  1  0
  2  3  2  0
  2  4  1  0
  4  5  2  0
  3  6  1  0
  5  7  1  0
  5  8  1  0
  6  8  2  0
  7  9  2  3
  7 10  1  0
  9 11  1  0
 11 12  1  0
 12 13  1  0
 13 14  1  0
 14 15  1  0
 15 16  2  0
 15 17  1  0
 16 18  1  0
 17 19  2  0
 18 20  2  0
 18 21  1  0
 19 21  1  0
 21 22  1  0
 20 23  1  0
 22 23  2  0
 22 24  1  0
M  CHG  1  10  -1
M  END
