x0662_0_A-x0837_0_A
     RDKit          3D

 29 31  0  0  0  0  0  0  0  0999 V2000
    5.3800    9.5100  -15.0860 C   0  0  0  0  0  0  0  0  0  0  0  0
    4.3400    9.9500  -14.1870 N   0  0  0  0  0  0  0  0  0  0  0  0
    3.6780   11.1220  -14.2280 C   0  0  0  0  0  0  0  0  0  0  0  0
    3.8870    9.2410  -13.1700 N   0  0  0  0  0  0  0  0  0  0  0  0
    2.7730   11.1400  -13.1840 C   0  0  0  0  0  0  0  0  0  0  0  0
    2.9220    9.9410  -12.5250 C   0  0  0  0  0  0  0  0  0  0  0  0
    2.1770    9.5000  -11.3270 C   0  0  0  0  0  0  0  0  0  0  0  0
    2.2520    8.3000  -11.0390 O   0  0  0  0  0  0  0  0  0  0  0  0
    1.4570   10.4380  -10.5750 N   0  0  0  0  0  0  0  0  0  0  0  0
    0.6990   10.1680   -9.4160 C   0  0  0  0  0  0  0  0  0  0  0  0
   -0.2190    9.1190   -9.5030 C   0  0  0  0  0  0  0  0  0  0  0  0
    0.7890   10.8460   -8.2400 C   0  0  0  0  0  0  0  0  0  0  0  0
   -0.9870    8.8110   -8.4220 C   0  0  0  0  0  0  0  0  0  0  0  0
    0.0080   10.5580   -7.1050 C   0  0  0  0  0  0  0  0  0  0  0  0
    0.1430   11.3230   -5.8730 C   0  0  0  0  0  0  0  0  0  0  0  0
   -0.8770    9.5280   -7.2260 C   0  0  0  0  0  0  0  0  0  0  0  0
   -0.5090   11.3090   -4.8250 N   0  0  0  0  0  0  0  0  0  0  0  0
    1.2320   12.2730   -5.8290 O   0  0  0  0  0  0  0  0  0  0  0  0
   -0.5920   11.8880   -3.5660 C   0  0  0  0  0  0  0  0  0  0  0  0
   -0.5010   13.4160   -3.5780 C   0  0  0  0  0  0  0  0  0  0  0  0
   -1.1270   13.9210   -2.3100 C   0  0  0  0  0  0  0  0  0  0  0  0
   -3.0560   14.7500   -2.6470 I   0  0  0  0  0  0  0  0  0  0  0  0
   -4.2050   14.4210   -0.8570 C   0  0  1  0  0  0  0  0  0  0  0  0
   -3.5610   15.0280    0.2990 C   0  0  0  0  0  0  0  0  0  0  0  0
   -5.6040   14.8780   -1.0270 C   0  0  0  0  0  0  0  0  0  0  0  0
   -4.2020   15.2220    1.4060 C   0  0  0  0  0  0  0  0  0  0  0  0
   -6.3020   14.7870    0.2870 C   0  0  0  0  0  0  0  0  0  0  0  0
   -7.5410   14.6730    0.2900 O   0  0  0  0  0  0  0  0  0  0  0  0
   -5.5520   14.8350    1.5070 N   0  0  0  0  0  0  0  0  0  0  0  0
  1  2  1  0
  2  3  1  0
  2  4  1  0
  3  5  2  0
  4  6  2  0
  5  6  1  0
  6  7  1  0
  7  8  2  0
  7  9  1  0
  9 10  1  0
 10 11  2  0
 10 12  1  0
 11 13  1  0
 12 14  2  0
 14 15  1  0
 13 16  2  0
 14 16  1  0
 15 17  2  3
 15 18  1  0
 17 19  1  0
 19 20  1  0
 20 21  1  0
 21 22  1  0
 23 22  1  6
 23 24  1  0
 23 25  1  0
 24 26  2  0
 25 27  1  0
 27 28  2  0
 26 29  1  0
 27 29  1  0
M  CHG  1  18  -1
M  END
