x0662_0_A_β-x0282_0_A_α
     RDKit          3D

 27 29  0  0  0  0  0  0  0  0999 V2000
    1.5030   10.5510  -10.3780 N   0  0  0  0  0  0  0  0  0  0  0  0
    0.6830   10.2430   -9.2800 C   0  0  0  0  0  0  0  0  0  0  0  0
   -0.2890    9.2460   -9.3760 C   0  0  0  0  0  0  0  0  0  0  0  0
    0.8200   10.9300   -8.0680 C   0  0  0  0  0  0  0  0  0  0  0  0
    0.0110   10.6420   -6.9740 C   0  0  0  0  0  0  0  0  0  0  0  0
   -1.1070    8.9440   -8.2830 C   0  0  0  0  0  0  0  0  0  0  0  0
    0.2160   11.4250   -5.6980 C   0  0  0  0  0  0  0  0  0  0  0  0
   -0.9590    9.6420   -7.0790 C   0  0  0  0  0  0  0  0  0  0  0  0
   -0.5410   11.3370   -4.6540 N   0  0  0  0  0  0  0  0  0  0  0  0
    1.2310   12.1260   -5.8470 O   0  0  0  0  0  0  0  0  0  0  0  0
   -0.2360   12.1020   -3.4330 C   0  0  0  0  0  0  0  0  0  0  0  0
   -0.5300   13.6000   -3.6120 C   0  0  0  0  0  0  0  0  0  0  0  0
    0.2090   14.5300   -2.6210 C   0  0  0  0  0  0  0  0  0  0  0  0
   -0.3360   14.5400   -1.2050 C   0  0  0  0  0  0  0  0  0  0  0  0
   -1.6540   14.4250   -1.0310 N   0  0  0  0  0  0  0  0  0  0  0  0
    0.5070   14.6670   -0.1420 C   0  0  0  0  0  0  0  0  0  0  0  0
   -0.0720   14.6580    1.1130 C   0  0  0  0  0  0  0  0  0  0  0  0
   -2.1390   14.4330    0.2230 C   0  0  0  0  0  0  0  0  0  0  0  0
   -3.4900   14.3160    0.3420 N   0  0  0  0  0  0  0  0  0  0  0  0
   -1.3820   14.5440    1.3320 N   0  0  0  0  0  0  0  0  0  0  0  0
   -3.9610   14.2100    1.7120 C   0  0  0  0  0  0  0  0  0  0  0  0
   -4.3310   14.5720   -0.8480 C   0  0  0  0  0  0  0  0  0  0  0  0
   -5.2510   14.9620    1.8330 C   0  0  0  0  0  0  0  0  0  0  0  0
   -5.7950   14.9160   -0.5390 C   0  0  0  0  0  0  0  0  0  0  0  0
   -6.1950   14.3430    0.8200 C   0  0  0  0  0  0  0  0  0  0  0  0
   -7.6900   14.4350    1.1560 C   0  0  0  0  0  0  0  0  0  0  0  0
   -8.4920   14.6230   -0.0010 O   0  0  0  0  0  0  0  0  0  0  0  0
  1  2  1  0
  2  3  2  0
  2  4  1  0
  4  5  2  0
  3  6  1  0
  5  7  1  0
  5  8  1  0
  6  8  2  0
  7  9  2  3
  7 10  1  0
  9 11  1  0
 11 12  1  0
 12 13  1  0
 13 14  1  0
 14 15  2  0
 14 16  1  0
 16 17  2  0
 15 18  1  0
 18 19  1  0
 17 20  1  0
 18 20  2  0
 19 21  1  0
 19 22  1  0
 21 23  1  0
 22 24  1  0
 23 25  1  0
 24 25  1  0
 25 26  1  0
 26 27  1  0
M  CHG  1  10  -1
M  END
