x0662_0_A-x0681_0_A
     RDKit          3D

 33 36  0  0  0  0  0  0  0  0999 V2000
    5.2690    9.5420  -15.0510 C   0  0  0  0  0  0  0  0  0  0  0  0
    4.2390   10.0200  -14.1580 N   0  0  0  0  0  0  0  0  0  0  0  0
    3.5950   11.2240  -14.2070 C   0  0  0  0  0  0  0  0  0  0  0  0
    3.8350    9.2350  -13.1510 N   0  0  0  0  0  0  0  0  0  0  0  0
    2.7140   11.2130  -13.1520 C   0  0  0  0  0  0  0  0  0  0  0  0
    2.8900    9.9480  -12.5050 C   0  0  0  0  0  0  0  0  0  0  0  0
    2.2050    9.4000  -11.2990 C   0  0  0  0  0  0  0  0  0  0  0  0
    2.3510    8.2270  -10.9810 O   0  0  0  0  0  0  0  0  0  0  0  0
    1.4360   10.3310  -10.6030 N   0  0  0  0  0  0  0  0  0  0  0  0
    0.6730   10.1350   -9.4190 C   0  0  0  0  0  0  0  0  0  0  0  0
   -0.3050    9.1350   -9.4730 C   0  0  0  0  0  0  0  0  0  0  0  0
    0.8200   10.8520   -8.2240 C   0  0  0  0  0  0  0  0  0  0  0  0
   -1.1130    8.8610   -8.3660 C   0  0  0  0  0  0  0  0  0  0  0  0
    0.0200   10.5950   -7.0990 C   0  0  0  0  0  0  0  0  0  0  0  0
    0.2590   11.4260   -5.8480 C   0  0  0  0  0  0  0  0  0  0  0  0
   -0.9510    9.5880   -7.1850 C   0  0  0  0  0  0  0  0  0  0  0  0
   -0.5180   11.2570   -4.8280 N   0  0  0  0  0  0  0  0  0  0  0  0
    1.2390   12.1750   -6.0110 O   0  0  0  0  0  0  0  0  0  0  0  0
   -0.1690   12.0900   -3.6650 C   0  0  0  0  0  0  0  0  0  0  0  0
   -1.2750   12.0640   -2.6020 C   0  0  0  0  0  0  0  0  0  0  0  0
   -1.4080   13.3820   -1.8190 C   0  0  0  0  0  0  0  0  0  0  0  0
   -2.3270   14.3240   -2.4850 N   0  0  0  0  0  0  0  0  0  0  0  0
   -3.3620   14.7750   -1.8530 C   0  0  0  0  0  0  0  0  0  0  0  0
   -4.2980   15.6430   -2.3610 N   0  0  0  0  0  0  0  0  0  0  0  0
   -3.6150   14.3220   -0.4110 C   0  0  2  0  0  0  0  0  0  0  0  0
   -4.7140   13.3140   -0.3770 C   0  0  0  0  0  0  0  0  0  0  0  0
   -3.9470   15.5290    0.4730 C   0  0  0  0  0  0  0  0  0  0  0  0
   -5.6250   13.2830    0.6430 N   0  0  0  0  0  0  0  0  0  0  0  0
   -4.3790   15.0580    1.8430 C   0  0  0  0  0  0  0  0  0  0  0  0
   -4.9710   12.3630   -1.2560 N   0  0  0  0  0  0  0  0  0  0  0  0
   -5.6310   14.1880    1.7680 C   0  0  0  0  0  0  0  0  0  0  0  0
   -6.5010   12.2690    0.4080 C   0  0  0  0  0  0  0  0  0  0  0  0
   -6.0740   11.7130   -0.7750 C   0  0  0  0  0  0  0  0  0  0  0  0
  1  2  1  0
  2  3  1  0
  2  4  1  0
  3  5  2  0
  4  6  2  0
  5  6  1  0
  6  7  1  0
  7  8  2  0
  7  9  1  0
  9 10  1  0
 10 11  2  0
 10 12  1  0
 11 13  1  0
 12 14  2  0
 14 15  1  0
 13 16  2  0
 14 16  1  0
 15 17  2  3
 15 18  1  0
 17 19  1  0
 19 20  1  0
 20 21  1  0
 21 22  1  0
 22 23  2  3
 23 24  1  0
 25 23  1  6
 25 26  1  0
 25 27  1  0
 26 28  1  0
 27 29  1  0
 26 30  2  0
 28 31  1  0
 29 31  1  0
 28 32  1  0
 30 33  1  0
 32 33  2  0
M  CHG  1  18  -1
M  END
