x0662_0_A-x0524_0_A
     RDKit          3D

 26 28  0  0  0  0  0  0  0  0999 V2000
    5.0430    9.6400  -14.7310 C   0  0  0  0  0  0  0  0  0  0  0  0
    3.9450    9.9890  -13.8530 N   0  0  0  0  0  0  0  0  0  0  0  0
    3.1230   11.0660  -13.9410 C   0  0  0  0  0  0  0  0  0  0  0  0
    3.6580    9.1960  -12.8120 N   0  0  0  0  0  0  0  0  0  0  0  0
    2.2420   10.9560  -12.8730 C   0  0  0  0  0  0  0  0  0  0  0  0
    2.6020    9.7590  -12.1570 C   0  0  0  0  0  0  0  0  0  0  0  0
    2.0950    9.0600  -10.9050 C   0  0  0  0  0  0  0  0  0  0  0  0
    2.8820    8.0090  -10.5000 C   0  0  0  0  0  0  0  0  0  0  0  0
    0.9400    9.3190  -10.0600 C   0  0  0  0  0  0  0  0  0  0  0  0
    0.6370    8.5310   -8.8620 C   0  0  0  0  0  0  0  0  0  0  0  0
    2.6170    7.2510   -9.3800 C   0  0  0  0  0  0  0  0  0  0  0  0
    3.9760    7.6840  -11.2200 O   0  0  0  0  0  0  0  0  0  0  0  0
   -0.5060    8.7740   -8.0100 N   0  0  0  0  0  0  0  0  0  0  0  0
    1.5180    7.5100   -8.5810 C   0  0  0  0  0  0  0  0  0  0  0  0
   -0.6390    9.1400   -6.4910 C   0  0  1  0  0  0  0  0  0  0  0  0
   -0.4500   10.7140   -6.3440 C   0  0  2  0  0  0  0  0  0  0  0  0
   -1.8920    8.5640   -5.8400 C   0  0  0  0  0  0  0  0  0  0  0  0
    0.6920   11.2090   -5.6930 O   0  0  0  0  0  0  0  0  0  0  0  0
   -1.3620   11.4960   -5.8380 O   0  0  0  0  0  0  0  0  0  0  0  0
   -0.3830   10.7060   -7.7980 C   0  0  0  0  0  0  0  0  0  0  0  0
   -1.4990   10.1420   -8.4070 C   0  0  0  0  0  0  0  0  0  0  0  0
    0.6600   11.1540   -8.5510 C   0  0  0  0  0  0  0  0  0  0  0  0
   -1.5780   10.0160   -9.7750 C   0  0  0  0  0  0  0  0  0  0  0  0
    0.6070   11.0480   -9.9350 C   0  0  0  0  0  0  0  0  0  0  0  0
    1.6770   11.5210  -10.6870 N   0  0  0  0  0  0  0  0  0  0  0  0
   -0.5140   10.4740  -10.5420 C   0  0  0  0  0  0  0  0  0  0  0  0
  1  2  1  0
  2  3  1  0
  2  4  1  0
  3  5  2  0
  4  6  2  0
  5  6  1  0
  6  7  1  0
  7  8  2  0
  7  9  1  0
  9 10  2  0
  8 11  1  0
  8 12  1  0
 10 13  1  0
 10 14  1  0
 11 14  2  0
 13 15  1  0
 15 16  1  0
 15 17  1  6
 16 18  1  1
 16 19  1  0
 16 20  1  0
 20 21  2  0
 20 22  1  0
 21 23  1  0
 22 24  2  0
 24 25  1  0
 23 26  2  0
 24 26  1  0
M  CHG  1  19  -1
M  END
