x0662_0_A_β-x0805_0_A_α
     RDKit          3D

 20 21  0  0  0  0  0  0  0  0999 V2000
    1.6280   10.5960  -10.5930 N   0  0  0  0  0  0  0  0  0  0  0  0
    0.8080   10.1790   -9.5370 C   0  0  0  0  0  0  0  0  0  0  0  0
   -0.0680    9.1030   -9.7160 C   0  0  0  0  0  0  0  0  0  0  0  0
    0.8440   10.8260   -8.2990 C   0  0  0  0  0  0  0  0  0  0  0  0
    0.0170   10.4030   -7.2700 C   0  0  0  0  0  0  0  0  0  0  0  0
   -0.8970    8.6790   -8.6740 C   0  0  0  0  0  0  0  0  0  0  0  0
    0.0060   11.0610   -5.9470 C   0  0  0  0  0  0  0  0  0  0  0  0
   -0.8530    9.3320   -7.4520 C   0  0  0  0  0  0  0  0  0  0  0  0
   -0.7650   10.5720   -5.0590 N   0  0  0  0  0  0  0  0  0  0  0  0
    0.7840   12.0370   -5.9240 O   0  0  0  0  0  0  0  0  0  0  0  0
   -0.9310   11.1030   -3.7370 C   0  0  0  0  0  0  0  0  0  0  0  0
   -2.4060   11.5020   -3.6980 C   0  0  0  0  0  0  0  0  0  0  0  0
   -2.6950   12.6820   -2.8340 C   0  0  0  0  0  0  0  0  0  0  0  0
   -1.6940   13.6100   -2.5580 C   0  0  0  0  0  0  0  0  0  0  0  0
   -3.9650   12.8590   -2.2910 C   0  0  0  0  0  0  0  0  0  0  0  0
   -4.2260   13.9490   -1.4700 C   0  0  0  0  0  0  0  0  0  0  0  0
   -1.9540   14.6920   -1.7370 C   0  0  0  0  0  0  0  0  0  0  0  0
   -3.2210   14.8690   -1.1850 C   0  0  0  0  0  0  0  0  0  0  0  0
   -3.6100   15.8830   -0.3590 O   0  0  0  0  0  0  0  0  0  0  0  0
   -4.2340   15.5070    0.8610 C   0  0  0  0  0  0  0  0  0  0  0  0
  1  2  1  0
  2  3  2  0
  2  4  1  0
  4  5  2  0
  3  6  1  0
  5  7  1  0
  5  8  1  0
  6  8  2  0
  7  9  2  3
  7 10  1  0
  9 11  1  0
 11 12  1  0
 12 13  1  0
 13 14  2  0
 13 15  1  0
 15 16  2  0
 14 17  1  0
 16 18  1  0
 17 18  2  0
 18 19  1  0
 19 20  1  0
M  CHG  1  10  -1
M  END
