x0662_0_A_β-x0905_0_A_α
     RDKit          3D

 21 22  0  0  0  0  0  0  0  0999 V2000
    1.5430   10.4870  -10.4110 N   0  0  0  0  0  0  0  0  0  0  0  0
    0.7160   10.1730   -9.3190 C   0  0  0  0  0  0  0  0  0  0  0  0
   -0.2250    9.1420   -9.4040 C   0  0  0  0  0  0  0  0  0  0  0  0
    0.8160   10.8900   -8.1270 C   0  0  0  0  0  0  0  0  0  0  0  0
    0.0040   10.6070   -7.0370 C   0  0  0  0  0  0  0  0  0  0  0  0
   -1.0470    8.8440   -8.3100 C   0  0  0  0  0  0  0  0  0  0  0  0
    0.1480   11.4170   -5.7800 C   0  0  0  0  0  0  0  0  0  0  0  0
   -0.9350    9.5760   -7.1240 C   0  0  0  0  0  0  0  0  0  0  0  0
   -0.6650   11.3970   -4.7860 N   0  0  0  0  0  0  0  0  0  0  0  0
    1.1880   12.0880   -5.8990 O   0  0  0  0  0  0  0  0  0  0  0  0
   -0.4270   12.2220   -3.6020 C   0  0  0  0  0  0  0  0  0  0  0  0
   -1.7330   12.8740   -3.1320 C   0  0  0  0  0  0  0  0  0  0  0  0
   -1.6280   14.4030   -2.9790 C   0  0  0  0  0  0  0  0  0  0  0  0
   -3.0040   15.0790   -2.9370 C   0  0  0  0  0  0  0  0  0  0  0  0
   -3.7500   15.0680   -1.6200 C   0  0  0  0  0  0  0  0  0  0  0  0
   -3.1460   15.0310   -0.3530 C   0  0  0  0  0  0  0  0  0  0  0  0
   -5.1410   15.0910   -1.6710 C   0  0  0  0  0  0  0  0  0  0  0  0
   -3.9550   15.0140    0.7760 C   0  0  0  0  0  0  0  0  0  0  0  0
   -5.8540   15.0680   -0.4880 C   0  0  0  0  0  0  0  0  0  0  0  0
   -7.2160   15.0820   -0.5000 O   0  0  0  0  0  0  0  0  0  0  0  0
   -5.3040   15.0260    0.7320 N   0  0  0  0  0  0  0  0  0  0  0  0
  1  2  1  0
  2  3  2  0
  2  4  1  0
  4  5  2  0
  3  6  1  0
  5  7  1  0
  5  8  1  0
  6  8  2  0
  7  9  2  3
  7 10  1  0
  9 11  1  0
 11 12  1  0
 12 13  1  0
 13 14  1  0
 14 15  1  0
 15 16  2  0
 15 17  1  0
 16 18  1  0
 17 19  2  0
 19 20  1  0
 18 21  2  0
 19 21  1  0
M  CHG  1  10  -1
M  END
