x0662_0_A_β-x0742_0_A_α
     RDKit          3D

 30 33  0  0  0  0  0  0  0  0999 V2000
    1.6220   10.2700  -10.5630 N   0  0  0  0  0  0  0  0  0  0  0  0
    0.7810   10.0010   -9.4600 C   0  0  0  0  0  0  0  0  0  0  0  0
   -0.1010    8.9260   -9.4890 C   0  0  0  0  0  0  0  0  0  0  0  0
    0.8240   10.8070   -8.3320 C   0  0  0  0  0  0  0  0  0  0  0  0
    0.0110   10.5870   -7.2260 C   0  0  0  0  0  0  0  0  0  0  0  0
   -0.9280    8.6730   -8.3920 C   0  0  0  0  0  0  0  0  0  0  0  0
    0.1390   11.5480   -6.0680 C   0  0  0  0  0  0  0  0  0  0  0  0
   -0.8710    9.5020   -7.2670 C   0  0  0  0  0  0  0  0  0  0  0  0
   -0.9630   11.8230   -5.4860 N   0  0  0  0  0  0  0  0  0  0  0  0
    1.3100   11.9270   -5.8750 O   0  0  0  0  0  0  0  0  0  0  0  0
   -0.9080   12.7400   -4.3760 C   0  0  0  0  0  0  0  0  0  0  0  0
   -1.5130   11.9770   -3.2190 C   0  0  0  0  0  0  0  0  0  0  0  0
   -3.0450   11.9770   -3.2080 C   0  0  0  0  0  0  0  0  0  0  0  0
   -3.4450   11.5710   -1.8120 C   0  0  0  0  0  0  0  0  0  0  0  0
   -4.8680   11.4130   -1.5460 N   0  0  0  0  0  0  0  0  0  0  0  0
   -5.5630   12.2470   -0.8580 C   0  0  0  0  0  0  0  0  0  0  0  0
   -7.0220   12.0240   -0.5310 C   0  0  0  0  0  0  0  0  0  0  0  0
   -4.9260   13.5440   -0.3050 C   0  0  2  0  0  0  0  0  0  0  0  0
   -4.6000   13.3320    1.1810 C   0  0  0  0  0  0  0  0  0  0  0  0
   -5.9960   14.6580   -0.3820 C   0  0  0  0  0  0  0  0  0  0  0  0
   -3.7110   14.1110   -1.1620 C   0  0  1  0  0  0  0  0  0  0  0  0
   -4.2470   15.4290   -1.7400 C   0  0  0  0  0  0  0  0  0  0  0  0
   -2.4020   14.2530   -0.4010 C   0  0  0  0  0  0  0  0  0  0  0  0
   -3.7010   14.4380    1.6920 C   0  0  0  0  0  0  0  0  0  0  0  0
   -5.2300   15.9140   -0.7060 C   0  0  0  0  0  0  0  0  0  0  0  0
   -1.1370   14.2410   -1.0110 C   0  0  0  0  0  0  0  0  0  0  0  0
   -2.4250   14.4030    0.9710 C   0  0  0  0  0  0  0  0  0  0  0  0
   -1.3400   14.5270    1.7410 N   0  0  0  0  0  0  0  0  0  0  0  0
    0.0080   14.3800   -0.2270 C   0  0  0  0  0  0  0  0  0  0  0  0
   -0.1660   14.5190    1.1350 C   0  0  0  0  0  0  0  0  0  0  0  0
  1  2  1  0
  2  3  2  0
  2  4  1  0
  4  5  2  0
  3  6  1  0
  5  7  1  0
  5  8  1  0
  6  8  2  0
  7  9  2  3
  7 10  1  0
  9 11  1  0
 11 12  1  0
 12 13  1  0
 13 14  1  0
 14 15  1  0
 15 16  2  3
 16 17  1  0
 18 16  1  6
 18 19  1  0
 18 20  1  0
 18 21  1  0
 21 22  1  1
 21 23  1  0
 19 24  1  0
 20 25  1  0
 22 25  1  0
 23 26  1  0
 23 27  2  0
 24 27  1  0
 27 28  1  0
 26 29  2  0
 28 30  2  0
 29 30  1  0
M  CHG  1  10  -1
M  END
