x0662_0_A-x0727_0_A
     RDKit          3D

 24 25  0  0  0  0  0  0  0  0999 V2000
    5.3270    9.4940  -14.9630 C   0  0  0  0  0  0  0  0  0  0  0  0
    4.2710   10.0100  -14.1220 N   0  0  0  0  0  0  0  0  0  0  0  0
    3.6500   11.2210  -14.2270 C   0  0  0  0  0  0  0  0  0  0  0  0
    3.8150    9.2620  -13.1100 N   0  0  0  0  0  0  0  0  0  0  0  0
    2.7280   11.2550  -13.2040 C   0  0  0  0  0  0  0  0  0  0  0  0
    2.8570   10.0080  -12.5200 C   0  0  0  0  0  0  0  0  0  0  0  0
    2.1180    9.4990  -11.3240 C   0  0  0  0  0  0  0  0  0  0  0  0
    2.2780    8.3470  -10.9320 O   0  0  0  0  0  0  0  0  0  0  0  0
    1.2710   10.4340  -10.7130 N   0  0  0  0  0  0  0  0  0  0  0  0
    0.3590   10.2220   -9.6400 C   0  0  0  0  0  0  0  0  0  0  0  0
   -0.7800    9.4310   -9.7200 C   0  0  0  0  0  0  0  0  0  0  0  0
    0.6210   10.8460   -8.4110 C   0  0  0  0  0  0  0  0  0  0  0  0
   -1.6240    9.2760   -8.6080 C   0  0  0  0  0  0  0  0  0  0  0  0
   -0.2100   10.7020   -7.2680 C   0  0  0  0  0  0  0  0  0  0  0  0
    0.2490   11.4110   -5.9830 C   0  0  2  0  0  0  0  0  0  0  0  0
   -1.3460    9.9040   -7.3890 C   0  0  0  0  0  0  0  0  0  0  0  0
    0.2110   10.4450   -4.9540 O   0  0  0  0  0  0  0  0  0  0  0  0
   -0.2920   12.5050   -5.1850 N   0  0  0  0  0  0  0  0  0  0  0  0
    1.6720   11.6990   -6.4390 C   0  0  0  0  0  0  0  0  0  0  0  0
    0.1470   13.8390   -5.5520 C   0  0  0  0  0  0  0  0  0  0  0  0
    2.3300   12.6780   -6.1620 O   0  0  0  0  0  0  0  0  0  0  0  0
   -0.0460   12.1720   -3.8370 C   0  0  0  0  0  0  0  0  0  0  0  0
   -0.4140   11.1330   -3.3060 O   0  0  0  0  0  0  0  0  0  0  0  0
    0.6690   13.0750   -3.1270 O   0  0  0  0  0  0  0  0  0  0  0  0
  1  2  1  0
  2  3  1  0
  2  4  1  0
  3  5  2  0
  4  6  2  0
  5  6  1  0
  6  7  1  0
  7  8  2  0
  7  9  1  0
  9 10  1  0
 10 11  2  0
 10 12  1  0
 11 13  1  0
 12 14  2  0
 14 15  1  0
 13 16  2  0
 14 16  1  0
 15 17  1  1
 15 18  1  0
 15 19  1  0
 18 20  1  0
 19 21  2  0
 18 22  1  0
 22 23  2  0
 22 24  1  0
M  END
