x0662_0_A_β-x0685_0_A_α
     RDKit          3D

 24 25  0  0  0  0  0  0  0  0999 V2000
    1.6390   10.2070  -10.4980 N   0  0  0  0  0  0  0  0  0  0  0  0
    0.8260    9.9220   -9.3880 C   0  0  0  0  0  0  0  0  0  0  0  0
    0.0270    8.7830   -9.3640 C   0  0  0  0  0  0  0  0  0  0  0  0
    0.7990   10.7780   -8.2890 C   0  0  0  0  0  0  0  0  0  0  0  0
    0.0010   10.5480   -7.1700 C   0  0  0  0  0  0  0  0  0  0  0  0
   -0.7800    8.5180   -8.2560 C   0  0  0  0  0  0  0  0  0  0  0  0
    0.0370   11.5770   -6.0510 C   0  0  0  0  0  0  0  0  0  0  0  0
   -0.7940    9.3930   -7.1670 C   0  0  0  0  0  0  0  0  0  0  0  0
   -1.1220   11.8310   -5.5450 N   0  0  0  0  0  0  0  0  0  0  0  0
    1.1780   12.0280   -5.8330 O   0  0  0  0  0  0  0  0  0  0  0  0
   -1.2330   12.8710   -4.5340 C   0  0  0  0  0  0  0  0  0  0  0  0
   -2.1930   13.8880   -5.1660 C   0  0  0  0  0  0  0  0  0  0  0  0
   -2.1760   15.2750   -4.5380 C   0  0  0  0  0  0  0  0  0  0  0  0
   -2.9250   15.2580   -3.2860 C   0  0  0  0  0  0  0  0  0  0  0  0
   -3.5060   15.2020   -2.2500 C   0  0  0  0  0  0  0  0  0  0  0  0
   -4.1520   15.1130   -0.9980 C   0  0  0  0  0  0  0  0  0  0  0  0
   -3.4140   15.1370    0.1750 C   0  0  0  0  0  0  0  0  0  0  0  0
   -5.5260   15.0000   -0.9150 C   0  0  0  0  0  0  0  0  0  0  0  0
   -4.0810   15.0530    1.3830 C   0  0  0  0  0  0  0  0  0  0  0  0
   -6.1970   14.9130    0.2520 N   0  0  0  0  0  0  0  0  0  0  0  0
   -5.4640   14.9450    1.3780 C   0  0  0  0  0  0  0  0  0  0  0  0
   -6.1830   14.8670    2.5560 N   0  0  0  0  0  0  0  0  0  0  0  0
   -7.6370   14.8260    2.5460 C   0  0  0  0  0  0  0  0  0  0  0  0
   -8.1430   13.4630    2.9850 C   0  0  0  0  0  0  0  0  0  0  0  0
  1  2  1  0
  2  3  2  0
  2  4  1  0
  4  5  2  0
  3  6  1  0
  5  7  1  0
  5  8  1  0
  6  8  2  0
  7  9  2  3
  7 10  1  0
  9 11  1  0
 11 12  1  0
 12 13  1  0
 13 14  1  0
 14 15  3  0
 15 16  1  0
 16 17  2  0
 16 18  1  0
 17 19  1  0
 18 20  2  0
 19 21  2  0
 20 21  1  0
 21 22  1  0
 22 23  1  0
 23 24  1  0
M  CHG  1  10  -1
M  END
