x0662_0_A-x0628_0_A
     RDKit          3D

 29 31  0  0  0  0  0  0  0  0999 V2000
    5.4380    9.5070  -15.1060 C   0  0  0  0  0  0  0  0  0  0  0  0
    4.3900    9.9070  -14.1990 N   0  0  0  0  0  0  0  0  0  0  0  0
    3.7110   11.0890  -14.2210 C   0  0  0  0  0  0  0  0  0  0  0  0
    4.0060    9.0750  -13.2100 N   0  0  0  0  0  0  0  0  0  0  0  0
    2.8230   11.0260  -13.1760 C   0  0  0  0  0  0  0  0  0  0  0  0
    3.0380    9.7550  -12.5700 C   0  0  0  0  0  0  0  0  0  0  0  0
    2.3390    9.1970  -11.3920 C   0  0  0  0  0  0  0  0  0  0  0  0
    2.5200    8.0560  -10.9880 O   0  0  0  0  0  0  0  0  0  0  0  0
    1.5050   10.1450  -10.8640 N   0  0  0  0  0  0  0  0  0  0  0  0
    0.6260   10.1300   -9.7750 C   0  0  0  0  0  0  0  0  0  0  0  0
   -0.4370    9.2390   -9.7420 C   0  0  0  0  0  0  0  0  0  0  0  0
    0.7990   11.0120   -8.7360 C   0  0  0  0  0  0  0  0  0  0  0  0
   -1.3210    9.2660   -8.6640 C   0  0  0  0  0  0  0  0  0  0  0  0
   -0.0560   11.0870   -7.6550 C   0  0  0  0  0  0  0  0  0  0  0  0
    0.1180   12.0820   -6.5240 C   0  0  0  0  0  0  0  0  0  0  0  0
   -1.1370   10.1910   -7.6280 C   0  0  0  0  0  0  0  0  0  0  0  0
   -0.3730   13.1680   -6.6220 O   0  0  0  0  0  0  0  0  0  0  0  0
    0.6630   11.7200   -5.3640 N   0  0  0  0  0  0  0  0  0  0  0  0
    1.1560   12.6180   -4.3130 C   0  0  0  0  0  0  0  0  0  0  0  0
   -0.3570   10.9000   -5.2050 N   0  0  0  0  0  0  0  0  0  0  0  0
    0.9270   12.0790   -2.9150 C   0  0  0  0  0  0  0  0  0  0  0  0
   -0.3190    9.7630   -5.8510 N   0  0  0  0  0  0  0  0  0  0  0  0
   -1.5220   11.0510   -4.4920 C   0  0  0  0  0  0  0  0  0  0  0  0
    0.4210   11.0190   -2.6060 O   0  0  0  0  0  0  0  0  0  0  0  0
    1.3650   12.9420   -1.9740 O   0  0  0  0  0  0  0  0  0  0  0  0
   -1.8920   12.2220   -3.6670 C   0  0  0  0  0  0  0  0  0  0  0  0
   -2.2490    9.9640   -4.7030 N   0  0  0  0  0  0  0  0  0  0  0  0
   -1.4570    9.2220   -5.5470 C   0  0  0  0  0  0  0  0  0  0  0  0
   -1.8080    7.9160   -6.1090 C   0  0  0  0  0  0  0  0  0  0  0  0
  1  2  1  0
  2  3  1  0
  2  4  1  0
  3  5  2  0
  4  6  2  0
  5  6  1  0
  6  7  1  0
  7  8  2  0
  7  9  1  0
  9 10  1  0
 10 11  2  0
 10 12  1  0
 11 13  1  0
 12 14  2  0
 14 15  1  0
 13 16  2  0
 14 16  1  0
 15 17  2  0
 15 18  1  0
 18 19  1  0
 18 20  1  0
 19 21  1  0
 20 22  1  0
 20 23  1  0
 21 24  2  0
 21 25  1  0
 23 26  1  0
 23 27  2  0
 22 28  2  0
 27 28  1  0
 28 29  1  0
M  END
