x0662_0_A-x0253_0_A
     RDKit          3D

 24 25  0  0  0  0  0  0  0  0999 V2000
    5.3830    9.5490  -14.9490 C   0  0  0  0  0  0  0  0  0  0  0  0
    4.3100   10.0130  -14.1030 N   0  0  0  0  0  0  0  0  0  0  0  0
    3.6340   11.1930  -14.2060 C   0  0  0  0  0  0  0  0  0  0  0  0
    3.8910    9.2410  -13.0860 N   0  0  0  0  0  0  0  0  0  0  0  0
    2.7150   11.1910  -13.1840 C   0  0  0  0  0  0  0  0  0  0  0  0
    2.9040    9.9510  -12.4980 C   0  0  0  0  0  0  0  0  0  0  0  0
    2.1880    9.4300  -11.3110 C   0  0  0  0  0  0  0  0  0  0  0  0
    2.2230    8.2330  -11.0120 O   0  0  0  0  0  0  0  0  0  0  0  0
    1.4670   10.2680  -10.4690 N   0  0  0  0  0  0  0  0  0  0  0  0
    0.6840    9.9940   -9.3170 C   0  0  0  0  0  0  0  0  0  0  0  0
   -0.2530    8.9690   -9.2500 C   0  0  0  0  0  0  0  0  0  0  0  0
    0.8580   10.8030   -8.1730 C   0  0  0  0  0  0  0  0  0  0  0  0
   -0.9940    8.7580   -8.0730 C   0  0  0  0  0  0  0  0  0  0  0  0
    0.1310   10.6220   -6.9730 C   0  0  0  0  0  0  0  0  0  0  0  0
    0.3380   11.5450   -5.7330 C   0  0  2  0  0  0  0  0  0  0  0  0
   -2.0060    7.6610   -7.9910 C   0  0  0  0  0  0  0  0  0  0  0  0
   -0.7960    9.5770   -6.9580 C   0  0  0  0  0  0  0  0  0  0  0  0
   -0.9480   11.8260   -5.1610 O   0  0  0  0  0  0  0  0  0  0  0  0
    1.0830   12.7580   -6.2250 N   0  0  0  0  0  0  0  0  0  0  0  0
    1.2320   11.0680   -4.5730 C   0  0  0  0  0  0  0  0  0  0  0  0
    2.2720   12.4600   -6.3890 O   0  0  0  0  0  0  0  0  0  0  0  0
    0.8510   11.6730   -3.2510 C   0  0  0  0  0  0  0  0  0  0  0  0
    1.4150   12.5980   -2.6730 O   0  0  0  0  0  0  0  0  0  0  0  0
   -0.2180   11.0910   -2.6990 O   0  0  0  0  0  0  0  0  0  0  0  0
  1  2  1  0
  2  3  1  0
  2  4  1  0
  3  5  2  0
  4  6  2  0
  5  6  1  0
  6  7  1  0
  7  8  2  0
  7  9  1  0
  9 10  1  0
 10 11  2  0
 10 12  1  0
 11 13  1  0
 12 14  2  0
 14 15  1  0
 13 16  1  0
 13 17  2  0
 14 17  1  0
 15 18  1  1
 15 19  1  0
 15 20  1  0
 19 21  2  0
 20 22  1  0
 22 23  2  0
 22 24  1  0
M  END
