x0662_0_A-x0591_0_A
     RDKit          3D

 33 35  0  0  0  0  0  0  0  0999 V2000
    5.3740    9.5590  -15.0510 C   0  0  0  0  0  0  0  0  0  0  0  0
    4.3200   10.0000  -14.1700 N   0  0  0  0  0  0  0  0  0  0  0  0
    3.6560   11.1910  -14.2010 C   0  0  0  0  0  0  0  0  0  0  0  0
    3.9140    9.1820  -13.1910 N   0  0  0  0  0  0  0  0  0  0  0  0
    2.7540   11.1390  -13.1620 C   0  0  0  0  0  0  0  0  0  0  0  0
    2.9460    9.8600  -12.5490 C   0  0  0  0  0  0  0  0  0  0  0  0
    2.2500    9.2670  -11.3750 C   0  0  0  0  0  0  0  0  0  0  0  0
    2.5960    8.1820  -10.9240 O   0  0  0  0  0  0  0  0  0  0  0  0
    1.2270   10.0460  -10.8750 N   0  0  0  0  0  0  0  0  0  0  0  0
    0.5970    9.9620   -9.6110 C   0  0  0  0  0  0  0  0  0  0  0  0
   -0.3380    8.9430   -9.4020 C   0  0  0  0  0  0  0  0  0  0  0  0
    0.8600   10.8400   -8.5800 C   0  0  0  0  0  0  0  0  0  0  0  0
   -0.9860    8.8280   -8.1700 C   0  0  0  0  0  0  0  0  0  0  0  0
    0.2330   10.7660   -7.3360 C   0  0  0  0  0  0  0  0  0  0  0  0
    0.6100   11.8070   -6.2850 C   0  0  0  0  0  0  0  0  0  0  0  0
   -0.7050    9.7320   -7.1400 C   0  0  0  0  0  0  0  0  0  0  0  0
   -0.2750   12.5430   -5.7410 N   0  0  0  0  0  0  0  0  0  0  0  0
    1.8280   11.8150   -6.0910 O   0  0  0  0  0  0  0  0  0  0  0  0
   -1.6260   12.3680   -6.1780 C   0  0  0  0  0  0  0  0  0  0  0  0
   -2.4160   12.9520   -5.1110 N   0  0  0  0  0  0  0  0  0  0  0  0
   -2.6590   14.4460   -5.0190 S   0  0  1  0  0  0  0  0  0  0  0  0
   -1.1040   15.0030   -4.6270 N   0  0  0  0  0  0  0  0  0  0  0  0
   -3.0570   15.3740   -6.0550 O   0  0  0  0  0  0  0  0  0  0  0  0
   -3.6690   14.5920   -3.6040 C   0  0  0  0  0  0  0  0  0  0  0  0
   -3.1270   14.4940   -2.3180 C   0  0  0  0  0  0  0  0  0  0  0  0
   -5.0200   14.7870   -3.8020 C   0  0  0  0  0  0  0  0  0  0  0  0
   -3.9740   14.5900   -1.2140 C   0  0  0  0  0  0  0  0  0  0  0  0
   -5.8610   14.8870   -2.7100 C   0  0  0  0  0  0  0  0  0  0  0  0
   -5.3500   14.7850   -1.4210 C   0  0  0  0  0  0  0  0  0  0  0  0
   -6.3300   14.8860   -0.3180 C   0  0  0  0  0  0  0  0  0  0  0  0
   -5.8820   14.6280    0.9490 N   0  0  0  0  0  0  0  0  0  0  0  0
   -7.4940   15.1760   -0.5710 O   0  0  0  0  0  0  0  0  0  0  0  0
   -6.7910   14.5000    2.0550 C   0  0  0  0  0  0  0  0  0  0  0  0
  1  2  1  0
  2  3  1  0
  2  4  1  0
  3  5  2  0
  4  6  2  0
  5  6  1  0
  6  7  1  0
  7  8  2  0
  7  9  1  0
  9 10  1  0
 10 11  2  0
 10 12  1  0
 11 13  1  0
 12 14  2  0
 14 15  1  0
 13 16  2  0
 14 16  1  0
 15 17  2  3
 15 18  1  0
 17 19  1  0
 19 20  1  0
 20 21  2  0
 21 22  1  1
 21 23  2  0
 21 24  1  0
 24 25  2  0
 24 26  1  0
 25 27  1  0
 26 28  2  0
 27 29  2  0
 28 29  1  0
 29 30  1  0
 30 31  1  0
 30 32  2  0
 31 33  1  0
M  CHG  1  18  -1
M  END
