x0662_0_A_α-x0662_0_A_β
     RDKit          3D

 17 18  0  0  0  0  0  0  0  0999 V2000
    1.9770    9.2270  -10.7670 C   0  0  0  0  0  0  0  0  0  0  0  0
    2.5340    9.9250  -11.9890 C   0  0  0  0  0  0  0  0  0  0  0  0
    3.5300    9.3150  -12.6980 N   0  0  0  0  0  0  0  0  0  0  0  0
    2.5020    8.1340  -10.5550 O   0  0  0  0  0  0  0  0  0  0  0  0
    0.8840    9.5540   -9.7030 C   0  0  0  0  0  0  0  0  0  0  0  0
    2.2430   11.1800  -12.6180 C   0  0  0  0  0  0  0  0  0  0  0  0
    0.9880   10.3730   -8.5280 C   0  0  0  0  0  0  0  0  0  0  0  0
   -0.3580    8.9360   -9.8980 C   0  0  0  0  0  0  0  0  0  0  0  0
    3.8540   10.1390  -13.7060 N   0  0  0  0  0  0  0  0  0  0  0  0
    3.1060   11.2800  -13.7070 C   0  0  0  0  0  0  0  0  0  0  0  0
   -0.0590   10.5600   -7.5950 C   0  0  0  0  0  0  0  0  0  0  0  0
   -1.4120    9.1100   -8.9900 C   0  0  0  0  0  0  0  0  0  0  0  0
    4.9060    9.7500  -14.6300 C   0  0  0  0  0  0  0  0  0  0  0  0
    0.0960   11.4300   -6.3360 C   0  0  0  0  0  0  0  0  0  0  0  0
   -1.2640    9.9080   -7.8530 C   0  0  0  0  0  0  0  0  0  0  0  0
   -0.9110   11.5350   -5.5600 O   0  0  0  0  0  0  0  0  0  0  0  0
    1.2230   11.9780   -6.1210 O   0  0  0  0  0  0  0  0  0  0  0  0
  1  2  1  0
  2  3  2  0
  1  4  2  0
  1  5  1  0
  2  6  1  0
  5  7  2  0
  5  8  1  0
  3  9  1  0
  6 10  2  0
  9 10  1  0
  7 11  1  0
  8 12  2  0
  9 13  1  0
 11 14  1  0
 11 15  2  0
 12 15  1  0
 14 16  2  0
 14 17  1  0
M  CHG  1  17  -1
M  END
