x0662_0_A-x0722_0_A
     RDKit          3D

 33 35  0  0  0  0  0  0  0  0999 V2000
    5.3080    9.5600  -15.0910 C   0  0  0  0  0  0  0  0  0  0  0  0
    4.2780   10.0350  -14.1960 N   0  0  0  0  0  0  0  0  0  0  0  0
    3.6340   11.2380  -14.2370 C   0  0  0  0  0  0  0  0  0  0  0  0
    3.8730    9.2430  -13.1900 N   0  0  0  0  0  0  0  0  0  0  0  0
    2.7530   11.2220  -13.1820 C   0  0  0  0  0  0  0  0  0  0  0  0
    2.9290    9.9520  -12.5430 C   0  0  0  0  0  0  0  0  0  0  0  0
    2.2420    9.4000  -11.3400 C   0  0  0  0  0  0  0  0  0  0  0  0
    2.3940    8.2290  -11.0190 O   0  0  0  0  0  0  0  0  0  0  0  0
    1.4650   10.3270  -10.6530 N   0  0  0  0  0  0  0  0  0  0  0  0
    0.7020   10.1240   -9.4770 C   0  0  0  0  0  0  0  0  0  0  0  0
   -0.2740    9.1170   -9.5470 C   0  0  0  0  0  0  0  0  0  0  0  0
    0.8410   10.8320   -8.2780 C   0  0  0  0  0  0  0  0  0  0  0  0
   -1.0860    8.8280   -8.4490 C   0  0  0  0  0  0  0  0  0  0  0  0
    0.0330   10.5540   -7.1700 C   0  0  0  0  0  0  0  0  0  0  0  0
    0.2160   11.3370   -5.9000 C   0  0  0  0  0  0  0  0  0  0  0  0
   -0.9330    9.5420   -7.2660 C   0  0  0  0  0  0  0  0  0  0  0  0
   -0.5150   10.9790   -4.9120 N   0  0  0  0  0  0  0  0  0  0  0  0
    1.0890   12.2210   -6.0440 O   0  0  0  0  0  0  0  0  0  0  0  0
   -0.3470   11.6920   -3.6630 C   0  0  0  0  0  0  0  0  0  0  0  0
   -1.7100   12.1480   -3.1750 C   0  0  0  0  0  0  0  0  0  0  0  0
   -1.7080   12.6930   -1.7590 C   0  0  0  0  0  0  0  0  0  0  0  0
   -1.7420   14.2170   -1.6910 C   0  0  0  0  0  0  0  0  0  0  0  0
   -2.2950   14.6180   -0.3790 C   0  0  0  0  0  0  0  0  0  0  0  0
   -3.5470   15.1210   -0.0460 C   0  0  0  0  0  0  0  0  0  0  0  0
   -1.5850   14.5420    0.7950 N   0  0  0  0  0  0  0  0  0  0  0  0
   -0.2350   14.1050    1.0420 C   0  0  0  0  0  0  0  0  0  0  0  0
   -4.7180   15.4160   -0.9400 C   0  0  0  0  0  0  0  0  0  0  0  0
   -2.2770   14.9410    1.8420 N   0  0  0  0  0  0  0  0  0  0  0  0
   -3.4520   15.2940    1.3460 C   0  0  0  0  0  0  0  0  0  0  0  0
   -4.4440   15.8050    2.2710 C   0  0  0  0  0  0  0  0  0  0  0  0
   -5.9920   14.6790   -0.5710 C   0  0  0  0  0  0  0  0  0  0  0  0
   -7.1230   15.1370   -0.7270 O   0  0  0  0  0  0  0  0  0  0  0  0
   -5.8160   13.4370   -0.0430 N   0  0  0  0  0  0  0  0  0  0  0  0
  1  2  1  0
  2  3  1  0
  2  4  1  0
  3  5  2  0
  4  6  2  0
  5  6  1  0
  6  7  1  0
  7  8  2  0
  7  9  1  0
  9 10  1  0
 10 11  2  0
 10 12  1  0
 11 13  1  0
 12 14  2  0
 14 15  1  0
 13 16  2  0
 14 16  1  0
 15 17  2  3
 15 18  1  0
 17 19  1  0
 19 20  1  0
 20 21  1  0
 21 22  1  0
 22 23  1  0
 23 24  2  0
 23 25  1  0
 25 26  1  0
 24 27  1  0
 25 28  1  0
 24 29  1  0
 28 29  2  0
 29 30  1  0
 27 31  1  0
 31 32  2  0
 31 33  1  0
M  CHG  1  18  -1
M  END
