x0662_0_A_β-x0685_1_A_α
     RDKit          3D

 16 16  0  0  0  0  0  0  0  0999 V2000
    1.6370   10.2880  -10.5800 N   0  0  0  0  0  0  0  0  0  0  0  0
    0.7860    9.9900   -9.5040 C   0  0  0  0  0  0  0  0  0  0  0  0
   -0.0840    8.9050   -9.5630 C   0  0  0  0  0  0  0  0  0  0  0  0
    0.8010   10.7810   -8.3600 C   0  0  0  0  0  0  0  0  0  0  0  0
   -0.0300   10.5290   -7.2720 C   0  0  0  0  0  0  0  0  0  0  0  0
   -0.9250    8.6250   -8.4830 C   0  0  0  0  0  0  0  0  0  0  0  0
   -0.0700   11.3670   -6.0120 C   0  0  0  0  0  0  0  0  0  0  0  0
   -0.8960    9.4340   -7.3500 C   0  0  0  0  0  0  0  0  0  0  0  0
   -1.1990   11.3430   -5.3910 N   0  0  0  0  0  0  0  0  0  0  0  0
    1.0140   11.9480   -5.8060 O   0  0  0  0  0  0  0  0  0  0  0  0
   -1.4480   12.1010   -4.1680 C   0  0  0  0  0  0  0  0  0  0  0  0
   -0.2570   12.9310   -3.7440 C   0  0  0  0  0  0  0  0  0  0  0  0
    0.7150   12.1380   -2.4760 S   0  0  0  0  0  0  0  0  0  0  0  0
    2.2560   12.3700   -2.8520 O   0  0  0  0  0  0  0  0  0  0  0  0
    0.3500   10.5650   -2.4680 O   0  0  0  0  0  0  0  0  0  0  0  0
    0.3140   12.7980   -1.0760 O   0  0  0  0  0  0  0  0  0  0  0  0
  1  2  1  0
  2  3  2  0
  2  4  1  0
  4  5  2  0
  3  6  1  0
  5  7  1  0
  5  8  1  0
  6  8  2  0
  7  9  2  3
  7 10  1  0
  9 11  1  0
 11 12  1  0
 12 13  1  0
 13 14  1  0
 13 15  1  0
 13 16  1  0
M  CHG  1  10  -1
M  END
