x0662_0_A_α-x0676_0_B_α
     RDKit          3D

 12 13  0  0  0  0  0  0  0  0999 V2000
    1.2140    9.3370  -11.9930 C   0  0  0  0  0  0  0  0  0  0  0  0
    2.6870    9.6500  -12.0110 C   0  0  1  0  0  0  0  0  0  0  0  0
    3.6220    8.4580  -12.4510 C   0  0  1  0  0  0  0  0  0  0  0  0
    2.9880   10.7650  -12.9880 C   0  0  0  0  0  0  0  0  0  0  0  0
    3.9800    8.9090  -13.8430 N   0  0  0  0  0  0  0  0  0  0  0  0
    3.7090   10.2700  -13.9850 C   0  0  0  0  0  0  0  0  0  0  0  0
    4.7270    8.2150  -11.4910 N   0  0  0  0  0  0  0  0  0  0  0  0
    2.8180    7.2070  -12.2410 C   0  0  0  0  0  0  0  0  0  0  0  0
    5.2280    8.4340  -14.4150 C   0  0  0  0  0  0  0  0  0  0  0  0
    4.4810    7.1390  -10.8280 C   0  0  0  0  0  0  0  0  0  0  0  0
    3.2890    6.4270  -11.2360 C   0  0  0  0  0  0  0  0  0  0  0  0
    5.3930    6.6460   -9.7320 C   0  0  0  0  0  0  0  0  0  0  0  0
  2  1  1  6
  2  3  1  0
  2  4  1  0
  3  5  1  0
  4  6  2  0
  5  6  1  0
  3  7  1  0
  3  8  1  6
  5  9  1  0
  7 10  2  0
  8 11  2  0
 10 11  1  0
 10 12  1  0
M  END
