x0662_0_A-x0724_0_A
     RDKit          3D

 35 38  0  0  0  0  0  0  0  0999 V2000
    5.2510    9.5750  -15.0430 C   0  0  0  0  0  0  0  0  0  0  0  0
    4.2190   10.0330  -14.1440 N   0  0  0  0  0  0  0  0  0  0  0  0
    3.5630   11.2270  -14.1760 C   0  0  0  0  0  0  0  0  0  0  0  0
    3.8240    9.2280  -13.1390 N   0  0  0  0  0  0  0  0  0  0  0  0
    2.6790   11.2020  -13.1190 C   0  0  0  0  0  0  0  0  0  0  0  0
    2.8720    9.9360  -12.4910 C   0  0  0  0  0  0  0  0  0  0  0  0
    2.1880    9.3790  -11.2920 C   0  0  0  0  0  0  0  0  0  0  0  0
    2.3020    8.1890  -11.0230 O   0  0  0  0  0  0  0  0  0  0  0  0
    1.4760   10.3240  -10.5680 N   0  0  0  0  0  0  0  0  0  0  0  0
    0.7040   10.1380   -9.3920 C   0  0  0  0  0  0  0  0  0  0  0  0
   -0.2660    9.1290   -9.4410 C   0  0  0  0  0  0  0  0  0  0  0  0
    0.8380   10.8770   -8.2080 C   0  0  0  0  0  0  0  0  0  0  0  0
   -1.0840    8.8650   -8.3310 C   0  0  0  0  0  0  0  0  0  0  0  0
    0.0210   10.6230   -7.0930 C   0  0  0  0  0  0  0  0  0  0  0  0
    0.1710   11.4330   -5.8280 C   0  0  0  0  0  0  0  0  0  0  0  0
   -0.9410    9.6110   -7.1590 C   0  0  0  0  0  0  0  0  0  0  0  0
   -0.7110   11.4960   -4.8800 N   0  0  0  0  0  0  0  0  0  0  0  0
    1.2750   12.0040   -5.8860 O   0  0  0  0  0  0  0  0  0  0  0  0
   -0.4900   12.3070   -3.6750 C   0  0  0  0  0  0  0  0  0  0  0  0
   -1.5250   13.4460   -3.6280 C   0  0  0  0  0  0  0  0  0  0  0  0
   -1.3740   14.4160   -2.4310 C   0  0  0  0  0  0  0  0  0  0  0  0
   -2.6370   14.5080   -1.5830 C   0  0  0  0  0  0  0  0  0  0  0  0
   -2.5860   14.6280   -0.1810 C   0  0  0  0  0  0  0  0  0  0  0  0
   -3.8880   14.4630   -2.2040 C   0  0  0  0  0  0  0  0  0  0  0  0
   -3.7650   14.6890    0.5780 C   0  0  0  0  0  0  0  0  0  0  0  0
   -5.0640   14.5230   -1.4560 C   0  0  0  0  0  0  0  0  0  0  0  0
   -5.0130   14.6290   -0.0620 C   0  0  0  0  0  0  0  0  0  0  0  0
   -6.2270   14.6680    0.6800 N   0  0  0  0  0  0  0  0  0  0  0  0
   -7.4390   14.4130    0.1110 N   0  0  0  0  0  0  0  0  0  0  0  0
   -6.3760   14.9470    2.0120 C   0  0  0  0  0  0  0  0  0  0  0  0
   -7.7120   14.8770    2.3370 C   0  0  0  0  0  0  0  0  0  0  0  0
   -8.3190   14.5410    1.1120 C   0  0  0  0  0  0  0  0  0  0  0  0
   -8.3560   15.1090    3.6620 C   0  0  0  0  0  0  0  0  0  0  0  0
   -8.6500   13.8280    4.3030 N   0  0  0  0  0  0  0  0  0  0  0  0
   -8.4600   13.9270    5.7430 C   0  0  0  0  0  0  0  0  0  0  0  0
  1  2  1  0
  2  3  1  0
  2  4  1  0
  3  5  2  0
  4  6  2  0
  5  6  1  0
  6  7  1  0
  7  8  2  0
  7  9  1  0
  9 10  1  0
 10 11  2  0
 10 12  1  0
 11 13  1  0
 12 14  2  0
 14 15  1  0
 13 16  2  0
 14 16  1  0
 15 17  2  3
 15 18  1  0
 17 19  1  0
 19 20  1  0
 20 21  1  0
 21 22  1  0
 22 23  2  0
 22 24  1  0
 23 25  1  0
 24 26  2  0
 25 27  2  0
 26 27  1  0
 27 28  1  0
 28 29  1  0
 28 30  1  0
 30 31  2  0
 29 32  2  0
 31 32  1  0
 31 33  1  0
 33 34  1  0
 34 35  1  0
M  CHG  1  18  -1
M  END
