x0662_0_A-x0676_0_B
     RDKit          3D

 22 24  0  0  0  0  0  0  0  0999 V2000
    5.1910    8.2440  -14.4180 C   0  0  0  0  0  0  0  0  0  0  0  0
    3.9920    8.9460  -14.0000 N   0  0  0  0  0  0  0  0  0  0  0  0
    4.0450   10.3430  -14.1210 C   0  0  0  0  0  0  0  0  0  0  0  0
    3.4030    8.6340  -12.6450 C   0  0  2  0  0  0  0  0  0  0  0  0
    3.1670   10.9520  -13.3380 C   0  0  0  0  0  0  0  0  0  0  0  0
    2.4060    9.8870  -12.6060 C   0  0  2  0  0  0  0  0  0  0  0  0
    4.4500    8.4730  -11.6120 N   0  0  0  0  0  0  0  0  0  0  0  0
    2.6550    7.3410  -12.4000 C   0  0  0  0  0  0  0  0  0  0  0  0
    1.7330   10.4460  -11.3440 C   0  0  0  0  0  0  0  0  0  0  0  0
    4.2590    7.3890  -10.9270 C   0  0  0  0  0  0  0  0  0  0  0  0
    3.1270    6.6070  -11.3580 C   0  0  0  0  0  0  0  0  0  0  0  0
    1.7870    9.6040  -10.1750 N   0  0  0  0  0  0  0  0  0  0  0  0
    5.1610    6.9550   -9.7890 C   0  0  0  0  0  0  0  0  0  0  0  0
    0.8420    9.6920   -9.1510 C   0  0  0  0  0  0  0  0  0  0  0  0
   -0.2440    8.8180   -9.2190 C   0  0  0  0  0  0  0  0  0  0  0  0
    0.8910   10.5750   -8.0590 C   0  0  0  0  0  0  0  0  0  0  0  0
   -1.2340    8.8140   -8.2410 C   0  0  0  0  0  0  0  0  0  0  0  0
   -0.0890   10.5920   -7.0580 C   0  0  0  0  0  0  0  0  0  0  0  0
    0.0190   11.5610   -5.8910 C   0  0  0  0  0  0  0  0  0  0  0  0
   -1.1550    9.6970   -7.1630 C   0  0  0  0  0  0  0  0  0  0  0  0
   -0.9930   11.6900   -5.1320 O   0  0  0  0  0  0  0  0  0  0  0  0
    1.1280   12.1660   -5.7430 O   0  0  0  0  0  0  0  0  0  0  0  0
  1  2  1  0
  2  3  1  0
  2  4  1  0
  3  5  2  0
  4  6  1  0
  5  6  1  0
  4  7  1  0
  4  8  1  6
  6  9  1  1
  7 10  2  0
  8 11  2  0
 10 11  1  0
  9 12  1  0
 10 13  1  0
 12 14  1  0
 14 15  2  0
 14 16  1  0
 15 17  1  0
 16 18  2  0
 18 19  1  0
 17 20  2  0
 18 20  1  0
 19 21  2  0
 19 22  1  0
M  CHG  1  22  -1
M  END
