x0662_0_A-x0805_0_A
     RDKit          3D

 35 38  0  0  0  0  0  0  0  0999 V2000
    5.3350    9.5300  -15.0310 C   0  0  0  0  0  0  0  0  0  0  0  0
    4.2920   10.0130  -14.1590 N   0  0  0  0  0  0  0  0  0  0  0  0
    3.6380   11.2070  -14.2340 C   0  0  0  0  0  0  0  0  0  0  0  0
    3.8840    9.2440  -13.1440 N   0  0  0  0  0  0  0  0  0  0  0  0
    2.7440   11.2080  -13.1900 C   0  0  0  0  0  0  0  0  0  0  0  0
    2.9260    9.9580  -12.5230 C   0  0  0  0  0  0  0  0  0  0  0  0
    2.2380    9.4160  -11.3190 C   0  0  0  0  0  0  0  0  0  0  0  0
    2.3050    8.2290  -11.0320 O   0  0  0  0  0  0  0  0  0  0  0  0
    1.5490   10.3620  -10.5610 N   0  0  0  0  0  0  0  0  0  0  0  0
    0.7770   10.1220   -9.4010 C   0  0  0  0  0  0  0  0  0  0  0  0
   -0.1360    9.0680   -9.4980 C   0  0  0  0  0  0  0  0  0  0  0  0
    0.8510   10.8390   -8.1910 C   0  0  0  0  0  0  0  0  0  0  0  0
   -0.9570    8.7300   -8.4260 C   0  0  0  0  0  0  0  0  0  0  0  0
    0.0260   10.5040   -7.1120 C   0  0  0  0  0  0  0  0  0  0  0  0
    0.0830   11.2560   -5.8220 C   0  0  0  0  0  0  0  0  0  0  0  0
   -0.8750    9.4460   -7.2390 C   0  0  0  0  0  0  0  0  0  0  0  0
   -0.8790   11.3110   -5.0830 O   0  0  0  0  0  0  0  0  0  0  0  0
    1.2790   11.8570   -5.5590 O   0  0  0  0  0  0  0  0  0  0  0  0
    1.0690   13.1550   -4.9990 C   0  0  2  0  0  0  0  0  0  0  0  0
    2.1350   14.0710   -4.9100 O   0  0  0  0  0  0  0  0  0  0  0  0
    0.5410   13.2260   -3.6000 C   0  0  2  0  0  0  0  0  0  0  0  0
    0.2920   12.0250   -2.7290 C   0  0  0  0  0  0  0  0  0  0  0  0
   -0.5720   14.1680   -3.8740 C   0  0  1  0  0  0  0  0  0  0  0  0
    1.6590   15.3810   -4.4550 C   0  0  0  0  0  0  0  0  0  0  0  0
    0.0440   10.8590   -3.3440 O   0  0  0  0  0  0  0  0  0  0  0  0
    0.3250   12.1080   -1.5070 O   0  0  0  0  0  0  0  0  0  0  0  0
   -1.8120   14.0940   -3.0080 C   0  0  0  0  0  0  0  0  0  0  0  0
    0.1920   15.5010   -3.9270 C   0  0  0  0  0  0  0  0  0  0  0  0
   -2.9320   13.3560   -3.4190 C   0  0  0  0  0  0  0  0  0  0  0  0
   -1.8560   14.7610   -1.7890 C   0  0  0  0  0  0  0  0  0  0  0  0
   -2.9910   14.7140   -0.9850 C   0  0  0  0  0  0  0  0  0  0  0  0
   -4.0720   13.2970   -2.6210 C   0  0  0  0  0  0  0  0  0  0  0  0
   -3.1070   15.3480    0.2210 O   0  0  0  0  0  0  0  0  0  0  0  0
   -4.1020   13.9780   -1.4060 C   0  0  0  0  0  0  0  0  0  0  0  0
   -4.3940   15.4310    0.8160 C   0  0  0  0  0  0  0  0  0  0  0  0
  1  2  1  0
  2  3  1  0
  2  4  1  0
  3  5  2  0
  4  6  2  0
  5  6  1  0
  6  7  1  0
  7  8  2  0
  7  9  1  0
  9 10  1  0
 10 11  2  0
 10 12  1  0
 11 13  1  0
 12 14  2  0
 14 15  1  0
 13 16  2  0
 14 16  1  0
 15 17  2  0
 15 18  1  0
 19 18  1  1
 19 20  1  0
 19 21  1  0
 21 22  1  6
 21 23  1  0
 20 24  1  0
 22 25  1  0
 22 26  2  0
 23 27  1  1
 23 28  1  0
 24 28  1  0
 27 29  2  0
 27 30  1  0
 30 31  2  0
 29 32  1  0
 31 33  1  0
 31 34  1  0
 32 34  2  0
 33 35  1  0
M  END
