x0662_0_A-x0805_0_A
     RDKit          3D

 35 38  0  0  0  0  0  0  0  0999 V2000
    5.3470    9.5330  -15.0390 C   0  0  0  0  0  0  0  0  0  0  0  0
    4.3000   10.0170  -14.1710 N   0  0  0  0  0  0  0  0  0  0  0  0
    3.6490   11.2130  -14.2490 C   0  0  0  0  0  0  0  0  0  0  0  0
    3.8840    9.2480  -13.1580 N   0  0  0  0  0  0  0  0  0  0  0  0
    2.7490   11.2160  -13.2070 C   0  0  0  0  0  0  0  0  0  0  0  0
    2.9240    9.9620  -12.5380 C   0  0  0  0  0  0  0  0  0  0  0  0
    2.2310    9.4180  -11.3360 C   0  0  0  0  0  0  0  0  0  0  0  0
    2.2760    8.2240  -11.0670 O   0  0  0  0  0  0  0  0  0  0  0  0
    1.5650   10.3630  -10.5560 N   0  0  0  0  0  0  0  0  0  0  0  0
    0.7890   10.1250   -9.3980 C   0  0  0  0  0  0  0  0  0  0  0  0
   -0.1290    9.0720   -9.4980 C   0  0  0  0  0  0  0  0  0  0  0  0
    0.8590   10.8380   -8.1870 C   0  0  0  0  0  0  0  0  0  0  0  0
   -0.9520    8.7390   -8.4290 C   0  0  0  0  0  0  0  0  0  0  0  0
    0.0320   10.5110   -7.1090 C   0  0  0  0  0  0  0  0  0  0  0  0
    0.0870   11.2690   -5.8200 C   0  0  0  0  0  0  0  0  0  0  0  0
   -0.8730    9.4520   -7.2400 C   0  0  0  0  0  0  0  0  0  0  0  0
   -0.8810   11.3420   -5.0900 O   0  0  0  0  0  0  0  0  0  0  0  0
    1.2880   11.8580   -5.5440 O   0  0  0  0  0  0  0  0  0  0  0  0
    1.0810   13.1540   -4.9770 C   0  0  2  0  0  0  0  0  0  0  0  0
    2.1480   14.0720   -4.8910 O   0  0  0  0  0  0  0  0  0  0  0  0
    0.5520   13.2300   -3.5810 C   0  0  2  0  0  0  0  0  0  0  0  0
    0.2980   12.0330   -2.7080 C   0  0  0  0  0  0  0  0  0  0  0  0
   -0.5600   14.1700   -3.8700 C   0  0  1  0  0  0  0  0  0  0  0  0
    1.6680   15.3880   -4.4550 C   0  0  0  0  0  0  0  0  0  0  0  0
    0.0580   10.8680   -3.3250 O   0  0  0  0  0  0  0  0  0  0  0  0
    0.3190   12.1190   -1.4870 O   0  0  0  0  0  0  0  0  0  0  0  0
   -1.8020   14.0960   -3.0120 C   0  0  0  0  0  0  0  0  0  0  0  0
    0.2030   15.5060   -3.9210 C   0  0  0  0  0  0  0  0  0  0  0  0
   -2.9230   13.3580   -3.4220 C   0  0  0  0  0  0  0  0  0  0  0  0
   -1.8460   14.7660   -1.7980 C   0  0  0  0  0  0  0  0  0  0  0  0
   -2.9780   14.7250   -0.9930 C   0  0  0  0  0  0  0  0  0  0  0  0
   -4.0630   13.3030   -2.6260 C   0  0  0  0  0  0  0  0  0  0  0  0
   -3.0910   15.3660    0.2090 O   0  0  0  0  0  0  0  0  0  0  0  0
   -4.0910   13.9890   -1.4100 C   0  0  0  0  0  0  0  0  0  0  0  0
   -4.3740   15.4590    0.8050 C   0  0  0  0  0  0  0  0  0  0  0  0
  1  2  1  0
  2  3  1  0
  2  4  1  0
  3  5  2  0
  4  6  2  0
  5  6  1  0
  6  7  1  0
  7  8  2  0
  7  9  1  0
  9 10  1  0
 10 11  2  0
 10 12  1  0
 11 13  1  0
 12 14  2  0
 14 15  1  0
 13 16  2  0
 14 16  1  0
 15 17  2  0
 15 18  1  0
 19 18  1  1
 19 20  1  0
 19 21  1  0
 21 22  1  6
 21 23  1  0
 20 24  1  0
 22 25  1  0
 22 26  2  0
 23 27  1  1
 23 28  1  0
 24 28  1  0
 27 29  2  0
 27 30  1  0
 30 31  2  0
 29 32  1  0
 31 33  1  0
 31 34  1  0
 32 34  2  0
 33 35  1  0
M  END
