x0662_0_A-x0290_0_A
     RDKit          3D

 33 35  0  0  0  0  0  0  0  0999 V2000
    5.3330    9.5160  -14.9890 C   0  0  0  0  0  0  0  0  0  0  0  0
    4.2860    9.9810  -14.1130 N   0  0  0  0  0  0  0  0  0  0  0  0
    3.6320   11.1780  -14.1660 C   0  0  0  0  0  0  0  0  0  0  0  0
    3.8730    9.1880  -13.1140 N   0  0  0  0  0  0  0  0  0  0  0  0
    2.7300   11.1570  -13.1270 C   0  0  0  0  0  0  0  0  0  0  0  0
    2.9080    9.8890  -12.4820 C   0  0  0  0  0  0  0  0  0  0  0  0
    2.1990    9.3400  -11.2890 C   0  0  0  0  0  0  0  0  0  0  0  0
    2.3480    8.1700  -10.9630 O   0  0  0  0  0  0  0  0  0  0  0  0
    1.4070   10.2710  -10.6250 N   0  0  0  0  0  0  0  0  0  0  0  0
    0.6650   10.1090   -9.4260 C   0  0  0  0  0  0  0  0  0  0  0  0
   -0.3150    9.1090   -9.4250 C   0  0  0  0  0  0  0  0  0  0  0  0
    0.8380   10.8650   -8.2660 C   0  0  0  0  0  0  0  0  0  0  0  0
   -1.0960    8.8830   -8.2880 C   0  0  0  0  0  0  0  0  0  0  0  0
    0.0700   10.6640   -7.1070 C   0  0  0  0  0  0  0  0  0  0  0  0
    0.2530   11.4860   -5.8250 C   0  0  0  0  0  0  0  0  0  0  0  0
   -0.9030    9.6550   -7.1390 C   0  0  0  0  0  0  0  0  0  0  0  0
   -0.6240   11.4150   -4.8660 N   0  0  0  0  0  0  0  0  0  0  0  0
    1.3110   12.1470   -5.8970 O   0  0  0  0  0  0  0  0  0  0  0  0
   -0.2920   12.2410   -3.6850 C   0  0  0  0  0  0  0  0  0  0  0  0
   -1.4940   13.0530   -3.1680 C   0  0  0  0  0  0  0  0  0  0  0  0
   -1.0560   14.4000   -2.5490 C   0  0  0  0  0  0  0  0  0  0  0  0
   -1.2860   14.4620   -1.0490 C   0  0  0  0  0  0  0  0  0  0  0  0
   -0.2380   14.4200   -0.1310 C   0  0  0  0  0  0  0  0  0  0  0  0
   -2.5960   14.5660   -0.5720 C   0  0  0  0  0  0  0  0  0  0  0  0
   -0.5610   14.4760    1.2170 C   0  0  0  0  0  0  0  0  0  0  0  0
   -2.8350   14.6180    0.7860 C   0  0  0  0  0  0  0  0  0  0  0  0
   -4.1060   14.7140    1.3340 N   0  0  0  0  0  0  0  0  0  0  0  0
   -1.8230   14.5690    1.6970 N   0  0  0  0  0  0  0  0  0  0  0  0
   -5.3500   14.4040    0.8610 C   0  0  0  0  0  0  0  0  0  0  0  0
   -5.4770   14.3890   -0.3760 O   0  0  0  0  0  0  0  0  0  0  0  0
   -6.5470   14.0820    1.7700 C   0  0  0  0  0  0  0  0  0  0  0  0
   -7.7380   13.7440    0.9520 N   0  0  0  0  0  0  0  0  0  0  0  0
   -8.5670   14.9280    0.7530 C   0  0  0  0  0  0  0  0  0  0  0  0
  1  2  1  0
  2  3  1  0
  2  4  1  0
  3  5  2  0
  4  6  2  0
  5  6  1  0
  6  7  1  0
  7  8  2  0
  7  9  1  0
  9 10  1  0
 10 11  2  0
 10 12  1  0
 11 13  1  0
 12 14  2  0
 14 15  1  0
 13 16  2  0
 14 16  1  0
 15 17  2  3
 15 18  1  0
 17 19  1  0
 19 20  1  0
 20 21  1  0
 21 22  1  0
 22 23  2  0
 22 24  1  0
 23 25  1  0
 24 26  2  0
 26 27  1  0
 25 28  2  0
 26 28  1  0
 27 29  1  0
 29 30  2  0
 29 31  1  0
 31 32  1  0
 32 33  1  0
M  CHG  1  18  -1
M  END
