x0662_0_A_α-x0766_0_A_α
     RDKit          3D

 27 29  0  0  0  0  0  0  0  0999 V2000
    1.7610    9.5610  -11.5080 C   0  0  0  0  0  0  0  0  0  0  0  0
    2.0450    8.7280  -10.5560 N   0  0  0  0  0  0  0  0  0  0  0  0
    0.9030    8.4590   -9.6510 C   0  0  0  0  0  0  0  0  0  0  0  0
    2.6810    9.9770  -12.5760 C   0  0  0  0  0  0  0  0  0  0  0  0
    3.6120    9.1770  -13.1330 N   0  0  0  0  0  0  0  0  0  0  0  0
    2.7130   11.2680  -13.1780 C   0  0  0  0  0  0  0  0  0  0  0  0
    0.8910    9.2870   -8.3430 C   0  0  0  0  0  0  0  0  0  0  0  0
    4.2080    9.9460  -14.0630 N   0  0  0  0  0  0  0  0  0  0  0  0
    3.7040   11.2130  -14.1300 C   0  0  0  0  0  0  0  0  0  0  0  0
    5.2720    9.4030  -14.8730 C   0  0  0  0  0  0  0  0  0  0  0  0
    0.2920   10.7080   -8.4520 C   0  0  0  0  0  0  0  0  0  0  0  0
   -0.6080   11.1720   -7.2710 C   0  0  0  0  0  0  0  0  0  0  0  0
   -0.0220   10.9720   -5.8680 C   0  0  0  0  0  0  0  0  0  0  0  0
   -0.7520   11.5620   -4.6480 C   0  0  0  0  0  0  0  0  0  0  0  0
   -0.0210   11.2250   -3.4480 O   0  0  0  0  0  0  0  0  0  0  0  0
    0.3510   12.2250   -2.5900 C   0  0  0  0  0  0  0  0  0  0  0  0
    0.2930   12.1780   -1.3690 O   0  0  0  0  0  0  0  0  0  0  0  0
    0.8920   13.4510   -3.2690 C   0  0  1  0  0  0  0  0  0  0  0  0
    1.0910   13.5170   -4.7790 C   0  0  0  0  0  0  0  0  0  0  0  0
    0.1860   14.7630   -2.8570 C   0  0  1  0  0  0  0  0  0  0  0  0
    1.3330   15.0070   -4.9380 C   0  0  0  0  0  0  0  0  0  0  0  0
    0.2510   15.6450   -4.0940 C   0  0  0  0  0  0  0  0  0  0  0  0
   -1.1720   14.7050   -2.1750 C   0  0  0  0  0  0  0  0  0  0  0  0
   -2.4130   14.7420   -2.8060 C   0  0  0  0  0  0  0  0  0  0  0  0
   -1.3510   14.6180   -0.7550 C   0  0  0  0  0  0  0  0  0  0  0  0
   -2.6670   14.5990   -0.3680 C   0  0  0  0  0  0  0  0  0  0  0  0
   -3.7220   14.6840   -1.7040 S   0  0  0  0  0  0  0  0  0  0  0  0
  1  2  2  3
  2  3  1  0
  1  4  1  0
  4  5  2  0
  4  6  1  0
  3  7  1  0
  5  8  1  0
  6  9  2  0
  8  9  1  0
  8 10  1  0
  7 11  1  0
 11 12  1  0
 12 13  1  0
 13 14  1  0
 14 15  1  0
 15 16  1  0
 16 17  2  0
 18 16  1  6
 18 19  1  0
 18 20  1  0
 19 21  1  0
 20 22  1  0
 21 22  1  0
 20 23  1  6
 23 24  2  0
 23 25  1  0
 25 26  2  0
 24 27  1  0
 26 27  1  0
M  END
