x0662_0_A_α-x0805_0_A_β
     RDKit          3D

 23 24  0  0  0  0  0  0  0  0999 V2000
    2.0740    9.7350  -11.5010 C   0  0  0  0  0  0  0  0  0  0  0  0
    2.1110    8.7830  -10.6330 N   0  0  0  0  0  0  0  0  0  0  0  0
    1.1230    8.7860   -9.5520 C   0  0  0  0  0  0  0  0  0  0  0  0
    2.9180   10.0300  -12.6550 C   0  0  0  0  0  0  0  0  0  0  0  0
    3.8530    9.2190  -13.1800 N   0  0  0  0  0  0  0  0  0  0  0  0
    2.8570   11.2540  -13.3770 C   0  0  0  0  0  0  0  0  0  0  0  0
    0.5810   10.2220   -9.3800 C   0  0  0  0  0  0  0  0  0  0  0  0
    4.3680    9.9230  -14.2060 N   0  0  0  0  0  0  0  0  0  0  0  0
    3.7990   11.1540  -14.3660 C   0  0  0  0  0  0  0  0  0  0  0  0
    5.4220    9.3470  -15.0030 C   0  0  0  0  0  0  0  0  0  0  0  0
    0.0260   10.6020   -7.9930 C   0  0  0  0  0  0  0  0  0  0  0  0
    0.8580   10.1080   -6.8090 C   0  0  0  0  0  0  0  0  0  0  0  0
    0.8850   10.9530   -5.5370 C   0  0  0  0  0  0  0  0  0  0  0  0
    0.4550   10.2140   -4.2660 C   0  0  0  0  0  0  0  0  0  0  0  0
   -0.3400   11.1040   -3.4620 O   0  0  0  0  0  0  0  0  0  0  0  0
    0.3140   11.9970   -2.6630 C   0  0  0  0  0  0  0  0  0  0  0  0
    0.5760   11.8490   -1.4810 O   0  0  0  0  0  0  0  0  0  0  0  0
    0.6670   13.2710   -3.3680 C   0  0  2  0  0  0  0  0  0  0  0  0
   -0.4450   14.0390   -4.0290 C   0  0  0  0  0  0  0  0  0  0  0  0
    1.8310   13.1690   -4.3160 C   0  0  0  0  0  0  0  0  0  0  0  0
    2.4500   14.4360   -4.2330 O   0  0  0  0  0  0  0  0  0  0  0  0
    0.0700   15.4610   -4.0830 C   0  0  0  0  0  0  0  0  0  0  0  0
    1.5650   15.5700   -4.4410 C   0  0  0  0  0  0  0  0  0  0  0  0
  1  2  2  3
  2  3  1  0
  1  4  1  0
  4  5  2  0
  4  6  1  0
  3  7  1  0
  5  8  1  0
  6  9  2  0
  8  9  1  0
  8 10  1  0
  7 11  1  0
 11 12  1  0
 12 13  1  0
 13 14  1  0
 14 15  1  0
 15 16  1  0
 16 17  2  0
 18 16  1  6
 18 19  1  0
 18 20  1  0
 20 21  1  0
 19 22  1  0
 21 23  1  0
 22 23  1  0
M  END
