x0662_0_A_β-x0900_1_A_α
     RDKit          3D

 11 11  0  0  0  0  0  0  0  0999 V2000
    1.5980   10.1030  -10.3590 N   0  0  0  0  0  0  0  0  0  0  0  0
    0.5230   10.5700   -9.4580 C   0  0  1  0  0  0  0  0  0  0  0  0
   -0.6400    9.5670   -9.5080 C   0  0  0  0  0  0  0  0  0  0  0  0
    0.9880   10.7550   -8.0160 C   0  0  0  0  0  0  0  0  0  0  0  0
   -1.2260    9.3090  -10.5470 O   0  0  0  0  0  0  0  0  0  0  0  0
   -0.2250   10.9070   -7.1240 C   0  0  2  0  0  0  0  0  0  0  0  0
   -1.0900    8.9100   -8.2500 C   0  0  0  0  0  0  0  0  0  0  0  0
    0.0630   11.4630   -5.7080 C   0  0  0  0  0  0  0  0  0  0  0  0
   -0.8910    9.5650   -7.1070 C   0  0  0  0  0  0  0  0  0  0  0  0
   -0.7810   11.1700   -4.8230 O   0  0  0  0  0  0  0  0  0  0  0  0
    1.1130   12.1590   -5.6070 O   0  0  0  0  0  0  0  0  0  0  0  0
  2  1  1  6
  2  3  1  0
  2  4  1  0
  3  5  2  0
  4  6  1  0
  3  7  1  0
  6  8  1  1
  6  9  1  0
  7  9  2  0
  8 10  2  0
  8 11  1  0
M  CHG  1  11  -1
M  END
