x0662_0_A_β-x0681_0_A_α
     RDKit          3D

 25 27  0  0  0  0  0  0  0  0999 V2000
    1.4980   10.5670  -10.4390 N   0  0  0  0  0  0  0  0  0  0  0  0
    0.6720   10.2290   -9.3500 C   0  0  0  0  0  0  0  0  0  0  0  0
   -0.2920    9.2310   -9.4680 C   0  0  0  0  0  0  0  0  0  0  0  0
    0.8090   10.8900   -8.1320 C   0  0  0  0  0  0  0  0  0  0  0  0
    0.0120   10.5920   -7.0250 C   0  0  0  0  0  0  0  0  0  0  0  0
   -1.1040    8.9090   -8.3760 C   0  0  0  0  0  0  0  0  0  0  0  0
    0.2650   11.3870   -5.7490 C   0  0  0  0  0  0  0  0  0  0  0  0
   -0.9520    9.5870   -7.1630 C   0  0  0  0  0  0  0  0  0  0  0  0
   -0.4300   11.0760   -4.7030 N   0  0  0  0  0  0  0  0  0  0  0  0
    1.1600   12.2360   -5.9180 O   0  0  0  0  0  0  0  0  0  0  0  0
   -0.1420   11.7980   -3.4590 C   0  0  0  0  0  0  0  0  0  0  0  0
   -1.4360   12.1980   -2.7510 C   0  0  0  0  0  0  0  0  0  0  0  0
   -1.3130   13.5610   -2.0620 C   0  0  0  0  0  0  0  0  0  0  0  0
   -2.3600   14.4620   -2.5710 N   0  0  0  0  0  0  0  0  0  0  0  0
   -3.3550   14.7900   -1.8100 C   0  0  0  0  0  0  0  0  0  0  0  0
   -4.2910   15.6190   -2.3740 N   0  0  0  0  0  0  0  0  0  0  0  0
   -3.5970   14.3380   -0.3690 C   0  0  2  0  0  0  0  0  0  0  0  0
   -4.7060   13.3180   -0.3540 C   0  0  0  0  0  0  0  0  0  0  0  0
   -4.0010   15.5570    0.4800 C   0  0  0  0  0  0  0  0  0  0  0  0
   -5.6180   13.2840    0.6660 N   0  0  0  0  0  0  0  0  0  0  0  0
   -4.3740   15.0580    1.8530 C   0  0  0  0  0  0  0  0  0  0  0  0
   -4.9640   12.3760   -1.2380 N   0  0  0  0  0  0  0  0  0  0  0  0
   -5.6190   14.1780    1.7970 C   0  0  0  0  0  0  0  0  0  0  0  0
   -6.4950   12.2760    0.4230 C   0  0  0  0  0  0  0  0  0  0  0  0
   -6.0740   11.7280   -0.7630 C   0  0  0  0  0  0  0  0  0  0  0  0
  1  2  1  0
  2  3  2  0
  2  4  1  0
  4  5  2  0
  3  6  1  0
  5  7  1  0
  5  8  1  0
  6  8  2  0
  7  9  2  3
  7 10  1  0
  9 11  1  0
 11 12  1  0
 12 13  1  0
 13 14  1  0
 14 15  2  3
 15 16  1  0
 17 15  1  6
 17 18  1  0
 17 19  1  0
 18 20  1  0
 19 21  1  0
 18 22  2  0
 20 23  1  0
 21 23  1  0
 20 24  1  0
 22 25  1  0
 24 25  2  0
M  CHG  1  10  -1
M  END
