x0662_0_A-x1018_0_A
     RDKit          3D

 31 34  0  0  0  0  0  0  0  0999 V2000
    5.3310    9.5800  -15.0350 C   0  0  0  0  0  0  0  0  0  0  0  0
    4.2850   10.0190  -14.1430 N   0  0  0  0  0  0  0  0  0  0  0  0
    3.6120   11.2050  -14.1830 C   0  0  0  0  0  0  0  0  0  0  0  0
    3.8970    9.2080  -13.1450 N   0  0  0  0  0  0  0  0  0  0  0  0
    2.7220   11.1660  -13.1350 C   0  0  0  0  0  0  0  0  0  0  0  0
    2.9280    9.9040  -12.5070 C   0  0  0  0  0  0  0  0  0  0  0  0
    2.2420    9.3410  -11.3140 C   0  0  0  0  0  0  0  0  0  0  0  0
    2.4170    8.1680  -11.0150 O   0  0  0  0  0  0  0  0  0  0  0  0
    1.4550   10.2590  -10.6400 N   0  0  0  0  0  0  0  0  0  0  0  0
    0.7030   10.0820   -9.4600 C   0  0  0  0  0  0  0  0  0  0  0  0
   -0.2560    9.0610   -9.4750 C   0  0  0  0  0  0  0  0  0  0  0  0
    0.8400   10.8430   -8.2910 C   0  0  0  0  0  0  0  0  0  0  0  0
   -1.0500    8.8130   -8.3550 C   0  0  0  0  0  0  0  0  0  0  0  0
    0.0520   10.6160   -7.1560 C   0  0  0  0  0  0  0  0  0  0  0  0
    0.1640   11.4260   -5.8710 C   0  0  0  0  0  0  0  0  0  0  0  0
   -0.8970    9.5850   -7.2010 C   0  0  0  0  0  0  0  0  0  0  0  0
   -0.7690   11.2810   -4.9930 N   0  0  0  0  0  0  0  0  0  0  0  0
    1.1930   12.1300   -5.8880 O   0  0  0  0  0  0  0  0  0  0  0  0
   -0.6520   12.0710   -3.7630 C   0  0  0  0  0  0  0  0  0  0  0  0
   -2.0700   12.2790   -3.2260 C   0  0  0  0  0  0  0  0  0  0  0  0
   -2.4710   13.7470   -2.9720 C   0  0  0  0  0  0  0  0  0  0  0  0
   -3.4880   14.0300   -1.9340 N   0  0  0  0  0  0  0  0  0  0  0  0
   -2.9390   14.6340   -0.7570 N   0  0  0  0  0  0  0  0  0  0  0  0
   -4.6220   14.7910   -2.3610 N   0  0  0  0  0  0  0  0  0  0  0  0
   -5.1100   15.3450   -1.1870 N   0  0  0  0  0  0  0  0  0  0  0  0
   -4.0640   15.3570   -0.1630 C   0  0  1  0  0  0  0  0  0  0  0  0
   -6.4450   15.1110   -0.9490 N   0  0  0  0  0  0  0  0  0  0  0  0
   -4.5350   14.8090    1.1250 C   0  0  0  0  0  0  0  0  0  0  0  0
   -6.7630   14.7210    0.2470 C   0  0  0  0  0  0  0  0  0  0  0  0
   -5.8210   14.5010    1.3480 C   0  0  0  0  0  0  0  0  0  0  0  0
   -8.4500   14.4600    0.5400 Cl  0  0  0  0  0  0  0  0  0  0  0  0
  1  2  1  0
  2  3  1  0
  2  4  1  0
  3  5  2  0
  4  6  2  0
  5  6  1  0
  6  7  1  0
  7  8  2  0
  7  9  1  0
  9 10  1  0
 10 11  2  0
 10 12  1  0
 11 13  1  0
 12 14  2  0
 14 15  1  0
 13 16  2  0
 14 16  1  0
 15 17  2  3
 15 18  1  0
 17 19  1  0
 19 20  1  0
 20 21  1  0
 21 22  1  0
 22 23  1  0
 22 24  1  0
 24 25  1  0
 23 26  1  0
 25 26  1  0
 25 27  1  0
 26 28  1  1
 27 29  2  0
 28 30  2  0
 29 30  1  0
 29 31  1  0
M  CHG  1  18  -1
M  END
