x0662_0_A-x0685_1_A
     RDKit          3D

 24 25  0  0  0  0  0  0  0  0999 V2000
    5.3610    9.6040  -15.0900 C   0  0  0  0  0  0  0  0  0  0  0  0
    4.3180   10.0390  -14.1940 N   0  0  0  0  0  0  0  0  0  0  0  0
    3.6390   11.2220  -14.2250 C   0  0  0  0  0  0  0  0  0  0  0  0
    3.9400    9.2230  -13.2000 N   0  0  0  0  0  0  0  0  0  0  0  0
    2.7540   11.1710  -13.1710 C   0  0  0  0  0  0  0  0  0  0  0  0
    2.9730    9.9070  -12.5540 C   0  0  0  0  0  0  0  0  0  0  0  0
    2.3050    9.3240  -11.3680 C   0  0  0  0  0  0  0  0  0  0  0  0
    2.4370    8.1330  -11.1150 O   0  0  0  0  0  0  0  0  0  0  0  0
    1.5790   10.2310  -10.6220 N   0  0  0  0  0  0  0  0  0  0  0  0
    0.7230    9.9480   -9.5450 C   0  0  0  0  0  0  0  0  0  0  0  0
   -0.1820    8.8910   -9.5610 C   0  0  0  0  0  0  0  0  0  0  0  0
    0.7840   10.7690   -8.4070 C   0  0  0  0  0  0  0  0  0  0  0  0
   -1.0070    8.6590   -8.4630 C   0  0  0  0  0  0  0  0  0  0  0  0
   -0.0410   10.5570   -7.2950 C   0  0  0  0  0  0  0  0  0  0  0  0
   -0.0610   11.3970   -6.0310 C   0  0  0  0  0  0  0  0  0  0  0  0
   -0.9370    9.4850   -7.3440 C   0  0  0  0  0  0  0  0  0  0  0  0
   -1.1960   11.3610   -5.3960 N   0  0  0  0  0  0  0  0  0  0  0  0
    1.0210   11.9780   -5.8350 O   0  0  0  0  0  0  0  0  0  0  0  0
   -1.4110   12.1220   -4.1600 C   0  0  0  0  0  0  0  0  0  0  0  0
   -0.1760   12.9200   -3.8040 C   0  0  0  0  0  0  0  0  0  0  0  0
    0.7210   12.1070   -2.4910 S   0  0  0  0  0  0  0  0  0  0  0  0
    2.2610   12.3650   -2.8340 O   0  0  0  0  0  0  0  0  0  0  0  0
    0.3510   10.5340   -2.4910 O   0  0  0  0  0  0  0  0  0  0  0  0
    0.3030   12.8090   -1.1160 O   0  0  0  0  0  0  0  0  0  0  0  0
  1  2  1  0
  2  3  1  0
  2  4  1  0
  3  5  2  0
  4  6  2  0
  5  6  1  0
  6  7  1  0
  7  8  2  0
  7  9  1  0
  9 10  1  0
 10 11  2  0
 10 12  1  0
 11 13  1  0
 12 14  2  0
 14 15  1  0
 13 16  2  0
 14 16  1  0
 15 17  2  3
 15 18  1  0
 17 19  1  0
 19 20  1  0
 20 21  1  0
 21 22  1  0
 21 23  1  0
 21 24  1  0
M  CHG  1  18  -1
M  END
