x0662_0_A-x0591_0_A
     RDKit          3D

 33 35  0  0  0  0  0  0  0  0999 V2000
    5.3760    9.5620  -15.0550 C   0  0  0  0  0  0  0  0  0  0  0  0
    4.3190    9.9990  -14.1720 N   0  0  0  0  0  0  0  0  0  0  0  0
    3.6550   11.1900  -14.2030 C   0  0  0  0  0  0  0  0  0  0  0  0
    3.9090    9.1800  -13.1940 N   0  0  0  0  0  0  0  0  0  0  0  0
    2.7500   11.1370  -13.1670 C   0  0  0  0  0  0  0  0  0  0  0  0
    2.9380    9.8590  -12.5530 C   0  0  0  0  0  0  0  0  0  0  0  0
    2.2340    9.2690  -11.3790 C   0  0  0  0  0  0  0  0  0  0  0  0
    2.5710    8.1800  -10.9310 O   0  0  0  0  0  0  0  0  0  0  0  0
    1.2160   10.0560  -10.8780 N   0  0  0  0  0  0  0  0  0  0  0  0
    0.5890    9.9650   -9.6120 C   0  0  0  0  0  0  0  0  0  0  0  0
   -0.3460    8.9440   -9.4030 C   0  0  0  0  0  0  0  0  0  0  0  0
    0.8560   10.8390   -8.5820 C   0  0  0  0  0  0  0  0  0  0  0  0
   -0.9900    8.8250   -8.1640 C   0  0  0  0  0  0  0  0  0  0  0  0
    0.2330   10.7630   -7.3350 C   0  0  0  0  0  0  0  0  0  0  0  0
    0.6170   11.8060   -6.2890 C   0  0  0  0  0  0  0  0  0  0  0  0
   -0.7050    9.7280   -7.1370 C   0  0  0  0  0  0  0  0  0  0  0  0
   -0.2650   12.5460   -5.7410 N   0  0  0  0  0  0  0  0  0  0  0  0
    1.8360   11.8130   -6.1050 O   0  0  0  0  0  0  0  0  0  0  0  0
   -1.6160   12.3690   -6.1740 C   0  0  0  0  0  0  0  0  0  0  0  0
   -2.4050   12.9530   -5.1070 N   0  0  0  0  0  0  0  0  0  0  0  0
   -2.6560   14.4450   -5.0210 S   0  0  1  0  0  0  0  0  0  0  0  0
   -1.1020   15.0040   -4.6350 N   0  0  0  0  0  0  0  0  0  0  0  0
   -3.0500   15.3740   -6.0580 O   0  0  0  0  0  0  0  0  0  0  0  0
   -3.6680   14.5910   -3.6040 C   0  0  0  0  0  0  0  0  0  0  0  0
   -3.1240   14.4840   -2.3210 C   0  0  0  0  0  0  0  0  0  0  0  0
   -5.0130   14.7930   -3.8000 C   0  0  0  0  0  0  0  0  0  0  0  0
   -3.9740   14.5780   -1.2170 C   0  0  0  0  0  0  0  0  0  0  0  0
   -5.8570   14.8920   -2.7070 C   0  0  0  0  0  0  0  0  0  0  0  0
   -5.3450   14.7790   -1.4200 C   0  0  0  0  0  0  0  0  0  0  0  0
   -6.3280   14.8790   -0.3140 C   0  0  0  0  0  0  0  0  0  0  0  0
   -5.8730   14.6350    0.9540 N   0  0  0  0  0  0  0  0  0  0  0  0
   -7.4940   15.1530   -0.5660 O   0  0  0  0  0  0  0  0  0  0  0  0
   -6.7850   14.5050    2.0590 C   0  0  0  0  0  0  0  0  0  0  0  0
  1  2  1  0
  2  3  1  0
  2  4  1  0
  3  5  2  0
  4  6  2  0
  5  6  1  0
  6  7  1  0
  7  8  2  0
  7  9  1  0
  9 10  1  0
 10 11  2  0
 10 12  1  0
 11 13  1  0
 12 14  2  0
 14 15  1  0
 13 16  2  0
 14 16  1  0
 15 17  2  3
 15 18  1  0
 17 19  1  0
 19 20  1  0
 20 21  2  0
 21 22  1  1
 21 23  2  0
 21 24  1  0
 24 25  2  0
 24 26  1  0
 25 27  1  0
 26 28  2  0
 27 29  2  0
 28 29  1  0
 29 30  1  0
 30 31  1  0
 30 32  2  0
 31 33  1  0
M  CHG  1  18  -1
M  END
