x0662_0_A_β-x0631_0_A_α
     RDKit          3D

 17 18  0  0  0  0  0  0  0  0999 V2000
    1.6260   10.4420  -10.5180 N   0  0  0  0  0  0  0  0  0  0  0  0
    2.3330    9.5090  -11.3910 C   0  0  1  0  0  0  0  0  0  0  0  0
    1.6850    8.2670  -11.3120 O   0  0  0  0  0  0  0  0  0  0  0  0
    0.7620   10.0800   -9.4650 C   0  0  0  0  0  0  0  0  0  0  0  0
    0.8170   10.8190   -8.2670 C   0  0  0  0  0  0  0  0  0  0  0  0
   -0.1570    9.0350   -9.5220 C   0  0  0  0  0  0  0  0  0  0  0  0
    2.5970    9.9520  -12.8650 C   0  0  2  0  0  0  0  0  0  0  0  0
    0.0030   10.5570   -7.1560 C   0  0  0  0  0  0  0  0  0  0  0  0
   -0.9830    8.7440   -8.4260 C   0  0  0  0  0  0  0  0  0  0  0  0
    3.9480    9.5880  -13.2370 O   0  0  0  0  0  0  0  0  0  0  0  0
    2.5340   11.4480  -13.1680 C   0  0  0  0  0  0  0  0  0  0  0  0
    0.1120   11.4040   -5.8980 C   0  0  0  0  0  0  0  0  0  0  0  0
   -0.9020    9.4990   -7.2560 C   0  0  0  0  0  0  0  0  0  0  0  0
    4.2940   10.3640  -14.3850 C   0  0  0  0  0  0  0  0  0  0  0  0
    3.4420   11.6170  -14.3720 C   0  0  0  0  0  0  0  0  0  0  0  0
   -0.8950   11.4170   -5.1200 O   0  0  0  0  0  0  0  0  0  0  0  0
    1.2020   12.0260   -5.7040 O   0  0  0  0  0  0  0  0  0  0  0  0
  1  2  1  0
  2  3  1  6
  1  4  1  0
  4  5  2  0
  4  6  1  0
  2  7  1  0
  5  8  1  0
  6  9  2  0
  7 10  1  0
  7 11  1  1
  8 12  1  0
  8 13  2  0
  9 13  1  0
 10 14  1  0
 11 15  1  0
 14 15  1  0
 12 16  2  0
 12 17  1  0
M  CHG  1  17  -1
M  END
