x0662_0_A_β-x0290_0_A_α
     RDKit          3D

 25 26  0  0  0  0  0  0  0  0999 V2000
    1.4900   10.4400  -10.4180 N   0  0  0  0  0  0  0  0  0  0  0  0
    0.6720   10.1650   -9.2990 C   0  0  0  0  0  0  0  0  0  0  0  0
   -0.2900    9.1660   -9.3530 C   0  0  0  0  0  0  0  0  0  0  0  0
    0.8180   10.9000   -8.1200 C   0  0  0  0  0  0  0  0  0  0  0  0
    0.0350   10.6800   -6.9860 C   0  0  0  0  0  0  0  0  0  0  0  0
   -1.0920    8.9110   -8.2380 C   0  0  0  0  0  0  0  0  0  0  0  0
    0.2100   11.5010   -5.6990 C   0  0  0  0  0  0  0  0  0  0  0  0
   -0.9310    9.6650   -7.0610 C   0  0  0  0  0  0  0  0  0  0  0  0
   -0.6550   11.4020   -4.7400 N   0  0  0  0  0  0  0  0  0  0  0  0
    1.2490   12.1840   -5.7790 O   0  0  0  0  0  0  0  0  0  0  0  0
   -0.3840   12.2070   -3.5330 C   0  0  0  0  0  0  0  0  0  0  0  0
   -1.6010   13.0630   -3.1440 C   0  0  0  0  0  0  0  0  0  0  0  0
   -1.2750   14.4340   -2.5030 C   0  0  0  0  0  0  0  0  0  0  0  0
   -1.4040   14.4780   -0.9940 C   0  0  0  0  0  0  0  0  0  0  0  0
   -0.2980   14.3820   -0.1510 C   0  0  0  0  0  0  0  0  0  0  0  0
   -2.6670   14.6220   -0.4030 C   0  0  0  0  0  0  0  0  0  0  0  0
   -0.5140   14.4250    1.2170 C   0  0  0  0  0  0  0  0  0  0  0  0
   -2.7940   14.6580    0.9830 C   0  0  0  0  0  0  0  0  0  0  0  0
   -4.0810   14.8030    1.5110 N   0  0  0  0  0  0  0  0  0  0  0  0
   -1.7260   14.5540    1.7940 N   0  0  0  0  0  0  0  0  0  0  0  0
   -5.2690   14.4460    0.9320 C   0  0  0  0  0  0  0  0  0  0  0  0
   -5.3630   14.4560   -0.3050 O   0  0  0  0  0  0  0  0  0  0  0  0
   -6.4710   14.0340    1.7950 C   0  0  0  0  0  0  0  0  0  0  0  0
   -7.6540   13.7570    0.9380 N   0  0  0  0  0  0  0  0  0  0  0  0
   -8.5300   14.9080    0.8180 C   0  0  0  0  0  0  0  0  0  0  0  0
  1  2  1  0
  2  3  2  0
  2  4  1  0
  4  5  2  0
  3  6  1  0
  5  7  1  0
  5  8  1  0
  6  8  2  0
  7  9  2  3
  7 10  1  0
  9 11  1  0
 11 12  1  0
 12 13  1  0
 13 14  1  0
 14 15  2  0
 14 16  1  0
 15 17  1  0
 16 18  2  0
 18 19  1  0
 17 20  2  0
 18 20  1  0
 19 21  1  0
 21 22  2  0
 21 23  1  0
 23 24  1  0
 24 25  1  0
M  CHG  1  10  -1
M  END
