x0662_0_A_β-x0910_1_A_α
     RDKit          3D

 21 22  0  0  0  0  0  0  0  0999 V2000
    1.5760   10.4830  -10.3840 N   0  0  0  0  0  0  0  0  0  0  0  0
    0.7390   10.1660   -9.3010 C   0  0  0  0  0  0  0  0  0  0  0  0
   -0.1740    9.1150   -9.3950 C   0  0  0  0  0  0  0  0  0  0  0  0
    0.8010   10.8980   -8.1140 C   0  0  0  0  0  0  0  0  0  0  0  0
   -0.0300   10.6010   -7.0400 C   0  0  0  0  0  0  0  0  0  0  0  0
   -1.0120    8.8020   -8.3180 C   0  0  0  0  0  0  0  0  0  0  0  0
    0.0580   11.4190   -5.7880 C   0  0  0  0  0  0  0  0  0  0  0  0
   -0.9420    9.5470   -7.1380 C   0  0  0  0  0  0  0  0  0  0  0  0
   -0.8540   11.4350   -4.8760 N   0  0  0  0  0  0  0  0  0  0  0  0
    1.1330   12.0450   -5.8090 O   0  0  0  0  0  0  0  0  0  0  0  0
   -0.6950   12.2580   -3.6900 C   0  0  0  0  0  0  0  0  0  0  0  0
   -2.0520   12.3890   -2.9850 C   0  0  0  0  0  0  0  0  0  0  0  0
   -2.5680   13.8290   -2.8140 C   0  0  0  0  0  0  0  0  0  0  0  0
   -4.0980   13.9930   -2.8730 C   0  0  0  0  0  0  0  0  0  0  0  0
   -4.7170   15.2610   -2.2750 C   0  0  0  0  0  0  0  0  0  0  0  0
   -5.2520   15.0990   -0.9480 N   0  0  0  0  0  0  0  0  0  0  0  0
   -6.5050   14.6120   -0.7550 N   0  0  0  0  0  0  0  0  0  0  0  0
   -4.6510   15.3760    0.2320 C   0  0  0  0  0  0  0  0  0  0  0  0
   -6.5720   14.6170    0.5690 C   0  0  0  0  0  0  0  0  0  0  0  0
   -5.4690   15.0740    1.2130 N   0  0  0  0  0  0  0  0  0  0  0  0
   -7.6110   14.2180    1.3070 N   0  0  0  0  0  0  0  0  0  0  0  0
  1  2  1  0
  2  3  2  0
  2  4  1  0
  4  5  2  0
  3  6  1  0
  5  7  1  0
  5  8  1  0
  6  8  2  0
  7  9  2  3
  7 10  1  0
  9 11  1  0
 11 12  1  0
 12 13  1  0
 13 14  1  0
 14 15  1  0
 15 16  1  0
 16 17  1  0
 16 18  1  0
 17 19  2  0
 18 20  2  0
 19 20  1  0
 19 21  1  0
M  CHG  1  10  -1
M  END
