x0662_0_A-x0727_0_A
     RDKit          3D

 24 25  0  0  0  0  0  0  0  0999 V2000
    5.3250    9.4940  -14.9630 C   0  0  0  0  0  0  0  0  0  0  0  0
    4.2700   10.0120  -14.1240 N   0  0  0  0  0  0  0  0  0  0  0  0
    3.6480   11.2200  -14.2250 C   0  0  0  0  0  0  0  0  0  0  0  0
    3.8130    9.2610  -13.1090 N   0  0  0  0  0  0  0  0  0  0  0  0
    2.7250   11.2560  -13.2030 C   0  0  0  0  0  0  0  0  0  0  0  0
    2.8560   10.0040  -12.5180 C   0  0  0  0  0  0  0  0  0  0  0  0
    2.1160    9.5000  -11.3230 C   0  0  0  0  0  0  0  0  0  0  0  0
    2.2770    8.3450  -10.9310 O   0  0  0  0  0  0  0  0  0  0  0  0
    1.2690   10.4330  -10.7120 N   0  0  0  0  0  0  0  0  0  0  0  0
    0.3570   10.2210   -9.6390 C   0  0  0  0  0  0  0  0  0  0  0  0
   -0.7830    9.4310   -9.7200 C   0  0  0  0  0  0  0  0  0  0  0  0
    0.6220   10.8460   -8.4110 C   0  0  0  0  0  0  0  0  0  0  0  0
   -1.6260    9.2760   -8.6090 C   0  0  0  0  0  0  0  0  0  0  0  0
   -0.2110   10.7030   -7.2680 C   0  0  0  0  0  0  0  0  0  0  0  0
    0.2500   11.4100   -5.9810 C   0  0  2  0  0  0  0  0  0  0  0  0
   -1.3470    9.9050   -7.3890 C   0  0  0  0  0  0  0  0  0  0  0  0
    0.2120   10.4460   -4.9530 O   0  0  0  0  0  0  0  0  0  0  0  0
   -0.2920   12.5050   -5.1850 N   0  0  0  0  0  0  0  0  0  0  0  0
    1.6730   11.7000   -6.4400 C   0  0  0  0  0  0  0  0  0  0  0  0
    0.1460   13.8380   -5.5520 C   0  0  0  0  0  0  0  0  0  0  0  0
    2.3280   12.6800   -6.1630 O   0  0  0  0  0  0  0  0  0  0  0  0
   -0.0460   12.1720   -3.8350 C   0  0  0  0  0  0  0  0  0  0  0  0
   -0.4170   11.1300   -3.3040 O   0  0  0  0  0  0  0  0  0  0  0  0
    0.6670   13.0750   -3.1260 O   0  0  0  0  0  0  0  0  0  0  0  0
  1  2  1  0
  2  3  1  0
  2  4  1  0
  3  5  2  0
  4  6  2  0
  5  6  1  0
  6  7  1  0
  7  8  2  0
  7  9  1  0
  9 10  1  0
 10 11  2  0
 10 12  1  0
 11 13  1  0
 12 14  2  0
 14 15  1  0
 13 16  2  0
 14 16  1  0
 15 17  1  1
 15 18  1  0
 15 19  1  0
 18 20  1  0
 19 21  2  0
 18 22  1  0
 22 23  2  0
 22 24  1  0
M  END
