x0662_0_A-x0766_0_A
     RDKit          3D

 32 35  0  0  0  0  0  0  0  0999 V2000
    5.3450    9.5400  -15.0530 C   0  0  0  0  0  0  0  0  0  0  0  0
    4.3030    9.9830  -14.1620 N   0  0  0  0  0  0  0  0  0  0  0  0
    3.6250   11.1660  -14.2030 C   0  0  0  0  0  0  0  0  0  0  0  0
    3.9230    9.1790  -13.1640 N   0  0  0  0  0  0  0  0  0  0  0  0
    2.7420   11.1230  -13.1490 C   0  0  0  0  0  0  0  0  0  0  0  0
    2.9600    9.8600  -12.5170 C   0  0  0  0  0  0  0  0  0  0  0  0
    2.2650    9.3360  -11.3230 C   0  0  0  0  0  0  0  0  0  0  0  0
    2.3880    8.1540  -11.0100 O   0  0  0  0  0  0  0  0  0  0  0  0
    1.4860   10.1430  -10.5230 N   0  0  0  0  0  0  0  0  0  0  0  0
    0.6800    9.8680   -9.3940 C   0  0  0  0  0  0  0  0  0  0  0  0
   -0.1330    8.7500   -9.2520 C   0  0  0  0  0  0  0  0  0  0  0  0
    0.7020   10.7940   -8.3540 C   0  0  0  0  0  0  0  0  0  0  0  0
   -0.9010    8.5760   -8.0900 C   0  0  0  0  0  0  0  0  0  0  0  0
   -0.0580   10.6630   -7.1780 C   0  0  0  0  0  0  0  0  0  0  0  0
   -0.0240   11.7240   -6.0800 C   0  0  0  0  0  0  0  0  0  0  0  0
   -0.8650    9.5270   -7.0610 C   0  0  0  0  0  0  0  0  0  0  0  0
   -0.1520   11.5310   -4.8180 N   0  0  0  0  0  0  0  0  0  0  0  0
    0.1440   12.8170   -6.6150 O   0  0  0  0  0  0  0  0  0  0  0  0
   -0.3350   10.3150   -4.0650 C   0  0  0  0  0  0  0  0  0  0  0  0
    0.1950   10.6160   -2.7430 O   0  0  0  0  0  0  0  0  0  0  0  0
    0.4450   11.9480   -2.4320 C   0  0  0  0  0  0  0  0  0  0  0  0
    0.7720   12.3440   -1.3350 O   0  0  0  0  0  0  0  0  0  0  0  0
    0.2260   12.9800   -3.5480 C   0  0  2  0  0  0  0  0  0  0  0  0
    1.5250   13.2490   -4.3320 C   0  0  0  0  0  0  0  0  0  0  0  0
   -0.0140   14.3470   -2.8800 C   0  0  1  0  0  0  0  0  0  0  0  0
    1.5000   14.7410   -4.6940 C   0  0  0  0  0  0  0  0  0  0  0  0
    0.3390   15.3720   -3.9470 C   0  0  0  0  0  0  0  0  0  0  0  0
   -1.3490   14.5590   -2.1930 C   0  0  0  0  0  0  0  0  0  0  0  0
   -2.5950   14.6550   -2.7950 C   0  0  0  0  0  0  0  0  0  0  0  0
   -1.4740   14.6940   -0.7710 C   0  0  0  0  0  0  0  0  0  0  0  0
   -2.7710   14.8800   -0.3550 C   0  0  0  0  0  0  0  0  0  0  0  0
   -3.8590   14.8990   -1.6680 S   0  0  0  0  0  0  0  0  0  0  0  0
  1  2  1  0
  2  3  1  0
  2  4  1  0
  3  5  2  0
  4  6  2  0
  5  6  1  0
  6  7  1  0
  7  8  2  0
  7  9  1  0
  9 10  1  0
 10 11  2  0
 10 12  1  0
 11 13  1  0
 12 14  2  0
 14 15  1  0
 13 16  2  0
 14 16  1  0
 15 17  2  3
 15 18  1  0
 17 19  1  0
 19 20  1  0
 20 21  1  0
 21 22  2  0
 23 21  1  1
 23 24  1  0
 23 25  1  0
 24 26  1  0
 25 27  1  0
 26 27  1  0
 25 28  1  6
 28 29  2  0
 28 30  1  0
 30 31  2  0
 29 32  1  0
 31 32  1  0
M  CHG  1  18  -1
M  END
