x0662_0_A-x0282_0_A
     RDKit          3D

 35 38  0  0  0  0  0  0  0  0999 V2000
    5.3020    9.5800  -15.0030 C   0  0  0  0  0  0  0  0  0  0  0  0
    4.2560   10.0350  -14.1180 N   0  0  0  0  0  0  0  0  0  0  0  0
    3.5830   11.2200  -14.1690 C   0  0  0  0  0  0  0  0  0  0  0  0
    3.8650    9.2380  -13.1090 N   0  0  0  0  0  0  0  0  0  0  0  0
    2.6900   11.1940  -13.1180 C   0  0  0  0  0  0  0  0  0  0  0  0
    2.8970    9.9390  -12.4740 C   0  0  0  0  0  0  0  0  0  0  0  0
    2.2160    9.3780  -11.2720 C   0  0  0  0  0  0  0  0  0  0  0  0
    2.3020    8.1780  -11.0400 O   0  0  0  0  0  0  0  0  0  0  0  0
    1.5390   10.3090  -10.4940 N   0  0  0  0  0  0  0  0  0  0  0  0
    0.7010   10.0550   -9.3770 C   0  0  0  0  0  0  0  0  0  0  0  0
   -0.2550    9.0490   -9.3730 C   0  0  0  0  0  0  0  0  0  0  0  0
    0.8360   10.8510   -8.2160 C   0  0  0  0  0  0  0  0  0  0  0  0
   -1.0550    8.8400   -8.2460 C   0  0  0  0  0  0  0  0  0  0  0  0
    0.0420   10.6680   -7.0630 C   0  0  0  0  0  0  0  0  0  0  0  0
    0.1430   11.5090   -5.7750 C   0  0  0  0  0  0  0  0  0  0  0  0
   -0.9080    9.6400   -7.1070 C   0  0  0  0  0  0  0  0  0  0  0  0
   -0.7880   11.3090   -4.8820 N   0  0  0  0  0  0  0  0  0  0  0  0
    1.1340   12.2630   -5.8160 O   0  0  0  0  0  0  0  0  0  0  0  0
   -0.8980   12.0110   -3.5740 C   0  0  0  0  0  0  0  0  0  0  0  0
    0.3710   12.7720   -3.1450 C   0  0  0  0  0  0  0  0  0  0  0  0
    0.0710   14.2130   -2.6460 C   0  0  0  0  0  0  0  0  0  0  0  0
   -0.4200   14.3280   -1.2110 C   0  0  0  0  0  0  0  0  0  0  0  0
   -1.7310   14.4500   -1.0140 N   0  0  0  0  0  0  0  0  0  0  0  0
    0.4330   14.3100   -0.1590 C   0  0  0  0  0  0  0  0  0  0  0  0
   -0.1270   14.4140    1.1110 C   0  0  0  0  0  0  0  0  0  0  0  0
   -2.2090   14.5510    0.2370 C   0  0  0  0  0  0  0  0  0  0  0  0
   -3.5780   14.6890    0.3780 N   0  0  0  0  0  0  0  0  0  0  0  0
   -1.4350   14.5290    1.3400 N   0  0  0  0  0  0  0  0  0  0  0  0
   -4.1490   14.0630    1.5620 C   0  0  0  0  0  0  0  0  0  0  0  0
   -4.3250   14.5230   -0.8640 C   0  0  0  0  0  0  0  0  0  0  0  0
   -5.4810   14.7570    1.8170 C   0  0  0  0  0  0  0  0  0  0  0  0
   -5.7180   15.1310   -0.7170 C   0  0  0  0  0  0  0  0  0  0  0  0
   -6.4090   14.6790    0.5910 C   0  0  0  0  0  0  0  0  0  0  0  0
   -7.1430   13.3550    0.4600 C   0  0  0  0  0  0  0  0  0  0  0  0
   -8.5160   13.6110    0.2060 O   0  0  0  0  0  0  0  0  0  0  0  0
  1  2  1  0
  2  3  1  0
  2  4  1  0
  3  5  2  0
  4  6  2  0
  5  6  1  0
  6  7  1  0
  7  8  2  0
  7  9  1  0
  9 10  1  0
 10 11  2  0
 10 12  1  0
 11 13  1  0
 12 14  2  0
 14 15  1  0
 13 16  2  0
 14 16  1  0
 15 17  2  3
 15 18  1  0
 17 19  1  0
 19 20  1  0
 20 21  1  0
 21 22  1  0
 22 23  2  0
 22 24  1  0
 24 25  2  0
 23 26  1  0
 26 27  1  0
 25 28  1  0
 26 28  2  0
 27 29  1  0
 27 30  1  0
 29 31  1  0
 30 32  1  0
 31 33  1  0
 32 33  1  0
 33 34  1  0
 34 35  1  0
M  CHG  1  18  -1
M  END
