x0662_0_A_α-x0805_0_A_α
     RDKit          3D

 23 24  0  0  0  0  0  0  0  0999 V2000
    2.0440    9.6700  -11.4850 C   0  0  0  0  0  0  0  0  0  0  0  0
    2.3520    8.6620  -10.7420 N   0  0  0  0  0  0  0  0  0  0  0  0
    1.4160    8.4730   -9.6220 C   0  0  0  0  0  0  0  0  0  0  0  0
    2.8610   10.0460  -12.6270 C   0  0  0  0  0  0  0  0  0  0  0  0
    3.7920    9.2180  -13.1360 N   0  0  0  0  0  0  0  0  0  0  0  0
    2.8190   11.2730  -13.3370 C   0  0  0  0  0  0  0  0  0  0  0  0
    0.7800    9.8230   -9.2490 C   0  0  0  0  0  0  0  0  0  0  0  0
    4.3250    9.9260  -14.1520 N   0  0  0  0  0  0  0  0  0  0  0  0
    3.7750   11.1640  -14.3150 C   0  0  0  0  0  0  0  0  0  0  0  0
    5.3850    9.3450  -14.9420 C   0  0  0  0  0  0  0  0  0  0  0  0
    0.2490    9.8600   -7.8100 C   0  0  0  0  0  0  0  0  0  0  0  0
    0.4680   11.2320   -7.1540 C   0  0  0  0  0  0  0  0  0  0  0  0
   -0.1570   11.3150   -5.7510 C   0  0  0  0  0  0  0  0  0  0  0  0
   -1.2440   12.4010   -5.6630 C   0  0  0  0  0  0  0  0  0  0  0  0
   -2.4110   12.0330   -4.7190 C   0  0  0  0  0  0  0  0  0  0  0  0
   -2.6140   12.9670   -3.5400 C   0  0  0  0  0  0  0  0  0  0  0  0
   -1.5820   13.8010   -3.1020 C   0  0  0  0  0  0  0  0  0  0  0  0
   -3.8430   13.0160   -2.8570 C   0  0  0  0  0  0  0  0  0  0  0  0
   -4.0240   13.8810   -1.7650 C   0  0  0  0  0  0  0  0  0  0  0  0
   -1.7660   14.6590   -2.0160 C   0  0  0  0  0  0  0  0  0  0  0  0
   -2.9840   14.7100   -1.3390 C   0  0  0  0  0  0  0  0  0  0  0  0
   -3.2510   15.5250   -0.2660 O   0  0  0  0  0  0  0  0  0  0  0  0
   -4.3570   15.2460    0.5830 C   0  0  0  0  0  0  0  0  0  0  0  0
  1  2  2  3
  2  3  1  0
  1  4  1  0
  4  5  2  0
  4  6  1  0
  3  7  1  0
  5  8  1  0
  6  9  2  0
  8  9  1  0
  8 10  1  0
  7 11  1  0
 11 12  1  0
 12 13  1  0
 13 14  1  0
 14 15  1  0
 15 16  1  0
 16 17  2  0
 16 18  1  0
 18 19  2  0
 17 20  1  0
 19 21  1  0
 20 21  2  0
 21 22  1  0
 22 23  1  0
M  END
