x0662_0_A-x0962_0_A
     RDKit          3D

 28 30  0  0  0  0  0  0  0  0999 V2000
    5.3380    9.5870  -15.0560 C   0  0  0  0  0  0  0  0  0  0  0  0
    4.2950   10.0200  -14.1560 N   0  0  0  0  0  0  0  0  0  0  0  0
    3.6210   11.2070  -14.1940 C   0  0  0  0  0  0  0  0  0  0  0  0
    3.9130    9.2070  -13.1590 N   0  0  0  0  0  0  0  0  0  0  0  0
    2.7360   11.1640  -13.1400 C   0  0  0  0  0  0  0  0  0  0  0  0
    2.9480    9.9000  -12.5150 C   0  0  0  0  0  0  0  0  0  0  0  0
    2.2690    9.3300  -11.3200 C   0  0  0  0  0  0  0  0  0  0  0  0
    2.4100    8.1460  -11.0520 O   0  0  0  0  0  0  0  0  0  0  0  0
    1.5310   10.2560  -10.6050 N   0  0  0  0  0  0  0  0  0  0  0  0
    0.7530   10.0560   -9.4440 C   0  0  0  0  0  0  0  0  0  0  0  0
   -0.1610    8.9910   -9.4760 C   0  0  0  0  0  0  0  0  0  0  0  0
    0.8240   10.8320   -8.2820 C   0  0  0  0  0  0  0  0  0  0  0  0
   -0.9830    8.7090   -8.3810 C   0  0  0  0  0  0  0  0  0  0  0  0
    0.0020   10.5570   -7.1910 C   0  0  0  0  0  0  0  0  0  0  0  0
    0.0680   11.4010   -5.9580 C   0  0  0  0  0  0  0  0  0  0  0  0
   -0.9030    9.4960   -7.2330 C   0  0  0  0  0  0  0  0  0  0  0  0
   -0.8550   11.4190   -5.0720 N   0  0  0  0  0  0  0  0  0  0  0  0
    1.1310   12.0510   -5.9880 O   0  0  0  0  0  0  0  0  0  0  0  0
   -0.7760   12.2820   -3.9130 C   0  0  0  0  0  0  0  0  0  0  0  0
   -1.3720   13.6280   -4.3340 C   0  0  0  0  0  0  0  0  0  0  0  0
   -1.0900   14.7410   -3.3350 C   0  0  0  0  0  0  0  0  0  0  0  0
   -2.1380   14.8030   -2.3050 C   0  0  0  0  0  0  0  0  0  0  0  0
   -2.9520   14.8820   -1.4360 C   0  0  0  0  0  0  0  0  0  0  0  0
   -3.8490   14.9990   -0.3590 C   0  0  0  0  0  0  0  0  0  0  0  0
   -3.4820   15.3770    0.8950 N   0  0  0  0  0  0  0  0  0  0  0  0
   -5.1990   14.7840   -0.3000 C   0  0  0  0  0  0  0  0  0  0  0  0
   -4.6070   15.3760    1.6620 C   0  0  0  0  0  0  0  0  0  0  0  0
   -5.6640   15.0170    0.9690 N   0  0  0  0  0  0  0  0  0  0  0  0
  1  2  1  0
  2  3  1  0
  2  4  1  0
  3  5  2  0
  4  6  2  0
  5  6  1  0
  6  7  1  0
  7  8  2  0
  7  9  1  0
  9 10  1  0
 10 11  2  0
 10 12  1  0
 11 13  1  0
 12 14  2  0
 14 15  1  0
 13 16  2  0
 14 16  1  0
 15 17  2  3
 15 18  1  0
 17 19  1  0
 19 20  1  0
 20 21  1  0
 21 22  1  0
 22 23  3  0
 23 24  1  0
 24 25  1  0
 24 26  2  0
 25 27  1  0
 26 28  1  0
 27 28  2  0
M  CHG  1  18  -1
M  END
