x0662_0_A-x0685_0_A
     RDKit          3D

 32 34  0  0  0  0  0  0  0  0999 V2000
    5.3440    9.6120  -15.0780 C   0  0  0  0  0  0  0  0  0  0  0  0
    4.2980   10.0380  -14.1790 N   0  0  0  0  0  0  0  0  0  0  0  0
    3.6130   11.2160  -14.1990 C   0  0  0  0  0  0  0  0  0  0  0  0
    3.9260    9.2140  -13.1890 N   0  0  0  0  0  0  0  0  0  0  0  0
    2.7300   11.1560  -13.1450 C   0  0  0  0  0  0  0  0  0  0  0  0
    2.9580    9.8860  -12.5360 C   0  0  0  0  0  0  0  0  0  0  0  0
    2.2950    9.2900  -11.3490 C   0  0  0  0  0  0  0  0  0  0  0  0
    2.4190    8.0930  -11.1250 O   0  0  0  0  0  0  0  0  0  0  0  0
    1.5890   10.1850  -10.5730 N   0  0  0  0  0  0  0  0  0  0  0  0
    0.7710    9.8910   -9.4630 C   0  0  0  0  0  0  0  0  0  0  0  0
   -0.0600    8.7780   -9.4060 C   0  0  0  0  0  0  0  0  0  0  0  0
    0.7950   10.7630   -8.3690 C   0  0  0  0  0  0  0  0  0  0  0  0
   -0.8490    8.5470   -8.2740 C   0  0  0  0  0  0  0  0  0  0  0  0
    0.0100   10.5600   -7.2270 C   0  0  0  0  0  0  0  0  0  0  0  0
    0.0860   11.5800   -6.1090 C   0  0  0  0  0  0  0  0  0  0  0  0
   -0.8150    9.4300   -7.1940 C   0  0  0  0  0  0  0  0  0  0  0  0
   -1.0600   11.8340   -5.5820 N   0  0  0  0  0  0  0  0  0  0  0  0
    1.2370   12.0190   -5.9190 O   0  0  0  0  0  0  0  0  0  0  0  0
   -1.1800   12.8580   -4.5590 C   0  0  0  0  0  0  0  0  0  0  0  0
   -2.1600   13.8810   -5.1410 C   0  0  0  0  0  0  0  0  0  0  0  0
   -2.1140   15.2330   -4.4590 C   0  0  0  0  0  0  0  0  0  0  0  0
   -2.8740   15.2050   -3.2150 C   0  0  0  0  0  0  0  0  0  0  0  0
   -3.4630   15.1480   -2.1850 C   0  0  0  0  0  0  0  0  0  0  0  0
   -4.1500   15.0920   -0.9470 C   0  0  0  0  0  0  0  0  0  0  0  0
   -3.4610   15.1680    0.2510 C   0  0  0  0  0  0  0  0  0  0  0  0
   -5.5200   14.9630   -0.9140 C   0  0  0  0  0  0  0  0  0  0  0  0
   -4.1820   15.1210    1.4390 C   0  0  0  0  0  0  0  0  0  0  0  0
   -6.2370   14.9110    0.2290 N   0  0  0  0  0  0  0  0  0  0  0  0
   -5.5710   14.9980    1.3890 C   0  0  0  0  0  0  0  0  0  0  0  0
   -6.2810   14.9810    2.6000 N   0  0  0  0  0  0  0  0  0  0  0  0
   -7.7190   14.7720    2.5450 C   0  0  0  0  0  0  0  0  0  0  0  0
   -8.0740   13.3640    2.9820 C   0  0  0  0  0  0  0  0  0  0  0  0
  1  2  1  0
  2  3  1  0
  2  4  1  0
  3  5  2  0
  4  6  2  0
  5  6  1  0
  6  7  1  0
  7  8  2  0
  7  9  1  0
  9 10  1  0
 10 11  2  0
 10 12  1  0
 11 13  1  0
 12 14  2  0
 14 15  1  0
 13 16  2  0
 14 16  1  0
 15 17  2  3
 15 18  1  0
 17 19  1  0
 19 20  1  0
 20 21  1  0
 21 22  1  0
 22 23  3  0
 23 24  1  0
 24 25  2  0
 24 26  1  0
 25 27  1  0
 26 28  2  0
 27 29  2  0
 28 29  1  0
 29 30  1  0
 30 31  1  0
 31 32  1  0
M  CHG  1  18  -1
M  END
