x0662_0_A_β-x0524_0_A_α
     RDKit          3D

 26 28  0  0  0  0  0  0  0  0999 V2000
    1.5280   11.4900  -10.7620 N   0  0  0  0  0  0  0  0  0  0  0  0
    0.5010   11.0000   -9.9440 C   0  0  0  0  0  0  0  0  0  0  0  0
   -0.6570   10.4430  -10.4950 C   0  0  0  0  0  0  0  0  0  0  0  0
    0.6360   11.0670   -8.5700 C   0  0  0  0  0  0  0  0  0  0  0  0
   -0.3630   10.5910   -7.7530 C   0  0  0  0  0  0  0  0  0  0  0  0
   -1.6700    9.9620   -9.6670 C   0  0  0  0  0  0  0  0  0  0  0  0
   -0.2610   10.6010   -6.2990 C   0  0  2  0  0  0  0  0  0  0  0  0
   -1.5140   10.0420   -8.3040 C   0  0  0  0  0  0  0  0  0  0  0  0
   -1.3070   11.2990   -5.6510 O   0  0  0  0  0  0  0  0  0  0  0  0
    0.8150   11.2370   -5.8400 O   0  0  0  0  0  0  0  0  0  0  0  0
   -0.4150    9.0040   -6.1990 C   0  0  2  0  0  0  0  0  0  0  0  0
   -0.1970    8.2680   -7.5340 N   0  0  0  0  0  0  0  0  0  0  0  0
   -1.8790    8.7140   -5.8230 C   0  0  0  0  0  0  0  0  0  0  0  0
    0.6980    8.3620   -8.6370 C   0  0  0  0  0  0  0  0  0  0  0  0
    1.9510    7.7650   -8.5700 C   0  0  0  0  0  0  0  0  0  0  0  0
    0.4230    9.0140   -9.8530 C   0  0  0  0  0  0  0  0  0  0  0  0
    2.8840    7.8200   -9.6380 C   0  0  0  0  0  0  0  0  0  0  0  0
    1.3460    9.0780  -10.9270 C   0  0  0  0  0  0  0  0  0  0  0  0
    2.5940    8.4870  -10.8400 C   0  0  0  0  0  0  0  0  0  0  0  0
    3.5590    8.5250  -11.8850 N   0  0  0  0  0  0  0  0  0  0  0  0
    3.8420    9.4480  -12.9280 C   0  0  0  0  0  0  0  0  0  0  0  0
    3.1040   10.6140  -13.1710 C   0  0  0  0  0  0  0  0  0  0  0  0
    4.9330    9.1870  -13.7750 C   0  0  0  0  0  0  0  0  0  0  0  0
    3.4380   11.4850  -14.2130 C   0  0  0  0  0  0  0  0  0  0  0  0
    5.2700   10.0550  -14.8200 C   0  0  0  0  0  0  0  0  0  0  0  0
    4.5190   11.2070  -15.0370 C   0  0  0  0  0  0  0  0  0  0  0  0
  1  2  1  0
  2  3  2  0
  2  4  1  0
  4  5  2  0
  3  6  1  0
  5  7  1  0
  5  8  1  0
  6  8  2  0
  7  9  1  1
  7 10  1  0
  7 11  1  0
 11 12  1  0
 11 13  1  6
 12 14  1  0
 14 15  2  0
 14 16  1  0
 15 17  1  0
 16 18  2  0
 17 19  2  0
 18 19  1  0
 19 20  1  0
 20 21  1  0
 21 22  2  0
 21 23  1  0
 22 24  1  0
 23 25  2  0
 24 26  2  0
 25 26  1  0
M  CHG  1  10  -1
M  END
