x0662_0_A_β-x0628_0_A_α
     RDKit          3D

 21 22  0  0  0  0  0  0  0  0999 V2000
    1.5150    9.8800  -10.6130 N   0  0  0  0  0  0  0  0  0  0  0  0
    0.5590   10.0580   -9.6060 C   0  0  0  0  0  0  0  0  0  0  0  0
   -0.6420    9.3590   -9.6320 C   0  0  0  0  0  0  0  0  0  0  0  0
    0.7940   10.9400   -8.5620 C   0  0  0  0  0  0  0  0  0  0  0  0
   -0.1180   11.1550   -7.5450 C   0  0  0  0  0  0  0  0  0  0  0  0
   -1.5880    9.5570   -8.6190 C   0  0  0  0  0  0  0  0  0  0  0  0
    0.2260   12.1240   -6.4430 C   0  0  0  0  0  0  0  0  0  0  0  0
   -1.3290   10.4550   -7.5760 C   0  0  0  0  0  0  0  0  0  0  0  0
    0.2920   13.3110   -6.6250 O   0  0  0  0  0  0  0  0  0  0  0  0
    0.4050   11.6480   -5.2050 N   0  0  0  0  0  0  0  0  0  0  0  0
    0.8770   12.5860   -4.1900 C   0  0  0  0  0  0  0  0  0  0  0  0
   -0.5760   10.7820   -5.0520 N   0  0  0  0  0  0  0  0  0  0  0  0
    0.8300   12.1180   -2.7540 C   0  0  0  0  0  0  0  0  0  0  0  0
   -0.5020    9.6450   -5.7180 N   0  0  0  0  0  0  0  0  0  0  0  0
   -1.7240   10.8810   -4.3130 C   0  0  0  0  0  0  0  0  0  0  0  0
    0.2840   11.1000   -2.3590 O   0  0  0  0  0  0  0  0  0  0  0  0
    1.4540   12.9270   -1.8770 O   0  0  0  0  0  0  0  0  0  0  0  0
   -2.1160   12.0230   -3.4630 C   0  0  0  0  0  0  0  0  0  0  0  0
   -2.4170    9.7680   -4.5170 N   0  0  0  0  0  0  0  0  0  0  0  0
   -1.6230    9.0590   -5.3850 C   0  0  0  0  0  0  0  0  0  0  0  0
   -1.9590    7.7380   -5.9370 C   0  0  0  0  0  0  0  0  0  0  0  0
  1  2  1  0
  2  3  2  0
  2  4  1  0
  4  5  2  0
  3  6  1  0
  5  7  1  0
  5  8  1  0
  6  8  2  0
  7  9  2  0
  7 10  1  0
 10 11  1  0
 10 12  1  0
 11 13  1  0
 12 14  1  0
 12 15  1  0
 13 16  2  0
 13 17  1  0
 15 18  1  0
 15 19  2  0
 14 20  2  0
 19 20  1  0
 20 21  1  0
M  END
