x0662_0_A-x0628_0_A
     RDKit          3D

 29 31  0  0  0  0  0  0  0  0999 V2000
    5.4380    9.5070  -15.1070 C   0  0  0  0  0  0  0  0  0  0  0  0
    4.3900    9.9080  -14.1980 N   0  0  0  0  0  0  0  0  0  0  0  0
    3.7120   11.0900  -14.2200 C   0  0  0  0  0  0  0  0  0  0  0  0
    4.0060    9.0740  -13.2110 N   0  0  0  0  0  0  0  0  0  0  0  0
    2.8230   11.0270  -13.1740 C   0  0  0  0  0  0  0  0  0  0  0  0
    3.0390    9.7560  -12.5690 C   0  0  0  0  0  0  0  0  0  0  0  0
    2.3410    9.1970  -11.3910 C   0  0  0  0  0  0  0  0  0  0  0  0
    2.5260    8.0580  -10.9830 O   0  0  0  0  0  0  0  0  0  0  0  0
    1.5040   10.1440  -10.8640 N   0  0  0  0  0  0  0  0  0  0  0  0
    0.6260   10.1290   -9.7760 C   0  0  0  0  0  0  0  0  0  0  0  0
   -0.4400    9.2370   -9.7430 C   0  0  0  0  0  0  0  0  0  0  0  0
    0.7990   11.0100   -8.7350 C   0  0  0  0  0  0  0  0  0  0  0  0
   -1.3210    9.2670   -8.6640 C   0  0  0  0  0  0  0  0  0  0  0  0
   -0.0520   11.0870   -7.6550 C   0  0  0  0  0  0  0  0  0  0  0  0
    0.1190   12.0800   -6.5230 C   0  0  0  0  0  0  0  0  0  0  0  0
   -1.1380   10.1900   -7.6260 C   0  0  0  0  0  0  0  0  0  0  0  0
   -0.3690   13.1670   -6.6250 O   0  0  0  0  0  0  0  0  0  0  0  0
    0.6630   11.7200   -5.3640 N   0  0  0  0  0  0  0  0  0  0  0  0
    1.1540   12.6190   -4.3120 C   0  0  0  0  0  0  0  0  0  0  0  0
   -0.3580   10.8990   -5.2050 N   0  0  0  0  0  0  0  0  0  0  0  0
    0.9250   12.0810   -2.9140 C   0  0  0  0  0  0  0  0  0  0  0  0
   -0.3200    9.7620   -5.8520 N   0  0  0  0  0  0  0  0  0  0  0  0
   -1.5220   11.0510   -4.4920 C   0  0  0  0  0  0  0  0  0  0  0  0
    0.4160   11.0200   -2.6060 O   0  0  0  0  0  0  0  0  0  0  0  0
    1.3630   12.9450   -1.9730 O   0  0  0  0  0  0  0  0  0  0  0  0
   -1.8910   12.2210   -3.6650 C   0  0  0  0  0  0  0  0  0  0  0  0
   -2.2510    9.9630   -4.7040 N   0  0  0  0  0  0  0  0  0  0  0  0
   -1.4600    9.2220   -5.5480 C   0  0  0  0  0  0  0  0  0  0  0  0
   -1.8110    7.9170   -6.1090 C   0  0  0  0  0  0  0  0  0  0  0  0
  1  2  1  0
  2  3  1  0
  2  4  1  0
  3  5  2  0
  4  6  2  0
  5  6  1  0
  6  7  1  0
  7  8  2  0
  7  9  1  0
  9 10  1  0
 10 11  2  0
 10 12  1  0
 11 13  1  0
 12 14  2  0
 14 15  1  0
 13 16  2  0
 14 16  1  0
 15 17  2  0
 15 18  1  0
 18 19  1  0
 18 20  1  0
 19 21  1  0
 20 22  1  0
 20 23  1  0
 21 24  2  0
 21 25  1  0
 23 26  1  0
 23 27  2  0
 22 28  2  0
 27 28  1  0
 28 29  1  0
M  END
