x0662_0_A_β-x0592_0_A_α
     RDKit          3D

 25 26  0  0  0  0  0  0  0  0999 V2000
    1.5280   10.5630  -10.4340 N   0  0  0  0  0  0  0  0  0  0  0  0
    0.7000   10.2200   -9.3480 C   0  0  0  0  0  0  0  0  0  0  0  0
   -0.2440    9.1970   -9.4690 C   0  0  0  0  0  0  0  0  0  0  0  0
    0.8050   10.8950   -8.1330 C   0  0  0  0  0  0  0  0  0  0  0  0
   -0.0100   10.5730   -7.0540 C   0  0  0  0  0  0  0  0  0  0  0  0
   -1.0670    8.8610   -8.3870 C   0  0  0  0  0  0  0  0  0  0  0  0
    0.1360   11.3290   -5.7660 C   0  0  0  0  0  0  0  0  0  0  0  0
   -0.9530    9.5490   -7.1780 C   0  0  0  0  0  0  0  0  0  0  0  0
   -0.5900   11.1360   -4.7260 N   0  0  0  0  0  0  0  0  0  0  0  0
    1.0720   12.1370   -5.9080 O   0  0  0  0  0  0  0  0  0  0  0  0
   -0.3890   11.8860   -3.4910 C   0  0  0  0  0  0  0  0  0  0  0  0
   -1.6930   12.4990   -2.9930 C   0  0  0  0  0  0  0  0  0  0  0  0
   -1.7000   14.0300   -3.0830 C   0  0  0  0  0  0  0  0  0  0  0  0
   -2.8470   14.6180   -2.2760 C   0  0  0  0  0  0  0  0  0  0  0  0
   -2.4510   14.6910   -0.8720 N   0  0  0  0  0  0  0  0  0  0  0  0
   -3.3310   14.7880    0.0560 C   0  0  0  0  0  0  0  0  0  0  0  0
   -2.9490   14.8500    1.3720 N   0  0  0  0  0  0  0  0  0  0  0  0
   -4.7560   14.8410   -0.1380 C   0  0  0  0  0  0  0  0  0  0  0  0
   -5.5360   15.1930   -1.2730 C   0  0  0  0  0  0  0  0  0  0  0  0
   -5.6930   14.5310    0.8180 C   0  0  0  0  0  0  0  0  0  0  0  0
   -6.8520   15.1070   -1.0360 N   0  0  0  0  0  0  0  0  0  0  0  0
   -6.9110   14.7040    0.2420 N   0  0  0  0  0  0  0  0  0  0  0  0
   -8.1830   14.4900    0.8990 C   0  0  0  0  0  0  0  0  0  0  0  0
   -7.9790   14.0890    2.3600 C   0  0  0  0  0  0  0  0  0  0  0  0
   -7.1980   15.0510    3.0640 O   0  0  0  0  0  0  0  0  0  0  0  0
  1  2  1  0
  2  3  2  0
  2  4  1  0
  4  5  2  0
  3  6  1  0
  5  7  1  0
  5  8  1  0
  6  8  2  0
  7  9  2  3
  7 10  1  0
  9 11  1  0
 11 12  1  0
 12 13  1  0
 13 14  1  0
 14 15  1  0
 15 16  2  3
 16 17  1  0
 16 18  1  0
 18 19  1  0
 18 20  2  0
 19 21  2  0
 20 22  1  0
 21 22  1  0
 22 23  1  0
 23 24  1  0
 24 25  1  0
M  CHG  1  10  -1
M  END
