x0662_0_A_α-x0727_0_A_α
     RDKit          3D

 23 24  0  0  0  0  0  0  0  0999 V2000
    2.1490    9.6850  -11.6120 C   0  0  0  0  0  0  0  0  0  0  0  0
    2.0720    8.5630  -11.0120 N   0  0  0  0  0  0  0  0  0  0  0  0
    1.2120    8.2830   -9.8860 C   0  0  0  0  0  0  0  0  0  0  0  0
    2.9710   10.0800  -12.7370 C   0  0  0  0  0  0  0  0  0  0  0  0
    3.9110    9.3060  -13.2940 N   0  0  0  0  0  0  0  0  0  0  0  0
    2.9000   11.3370  -13.4000 C   0  0  0  0  0  0  0  0  0  0  0  0
    0.1620    9.3870   -9.6600 C   0  0  0  0  0  0  0  0  0  0  0  0
    4.4250   10.0530  -14.2790 N   0  0  0  0  0  0  0  0  0  0  0  0
    3.8480   11.2860  -14.3880 C   0  0  0  0  0  0  0  0  0  0  0  0
    5.4840    9.5080  -15.0900 C   0  0  0  0  0  0  0  0  0  0  0  0
   -0.5880    9.0330   -8.3740 C   0  0  1  0  0  0  0  0  0  0  0  0
    0.2560    9.3590   -7.1540 C   0  0  1  0  0  0  0  0  0  0  0  0
   -1.9020    9.6820   -7.9900 C   0  0  0  0  0  0  0  0  0  0  0  0
    0.6110   10.8350   -6.9150 C   0  0  0  0  0  0  0  0  0  0  0  0
   -2.0660    9.1450   -6.5600 C   0  0  0  0  0  0  0  0  0  0  0  0
   -0.6480    8.8060   -6.0680 C   0  0  0  0  0  0  0  0  0  0  0  0
    0.0740   11.4020   -5.7700 N   0  0  0  0  0  0  0  0  0  0  0  0
    1.3330   11.4600   -7.6510 O   0  0  0  0  0  0  0  0  0  0  0  0
    0.8750   12.2940   -4.9230 C   0  0  1  0  0  0  0  0  0  0  0  0
    0.4540   13.7400   -5.1230 C   0  0  0  0  0  0  0  0  0  0  0  0
    0.6890   11.8850   -3.4540 C   0  0  0  0  0  0  0  0  0  0  0  0
    0.0500   10.9240   -3.0500 O   0  0  0  0  0  0  0  0  0  0  0  0
    1.3100   12.6980   -2.5720 O   0  0  0  0  0  0  0  0  0  0  0  0
  1  2  2  3
  2  3  1  0
  1  4  1  0
  4  5  2  0
  4  6  1  0
  3  7  1  0
  5  8  1  0
  6  9  2  0
  8  9  1  0
  8 10  1  0
 11  7  1  6
 11 12  1  0
 11 13  1  0
 12 14  1  1
 13 15  1  0
 12 16  1  0
 15 16  1  0
 14 17  1  0
 14 18  2  0
 17 19  1  0
 19 20  1  1
 19 21  1  0
 21 22  2  0
 21 23  1  0
M  END
