x0662_0_A-x0421_0_A
     RDKit          3D

 32 35  0  0  0  0  0  0  0  0999 V2000
    5.2570    9.5990  -15.0800 C   0  0  0  0  0  0  0  0  0  0  0  0
    4.2300   10.0440  -14.1700 N   0  0  0  0  0  0  0  0  0  0  0  0
    3.5610   11.2360  -14.1870 C   0  0  0  0  0  0  0  0  0  0  0  0
    3.8560    9.2290  -13.1690 N   0  0  0  0  0  0  0  0  0  0  0  0
    2.6920   11.1940  -13.1220 C   0  0  0  0  0  0  0  0  0  0  0  0
    2.9070    9.9260  -12.5100 C   0  0  0  0  0  0  0  0  0  0  0  0
    2.2450    9.3580  -11.3160 C   0  0  0  0  0  0  0  0  0  0  0  0
    2.3730    8.1670  -11.0530 O   0  0  0  0  0  0  0  0  0  0  0  0
    1.5290   10.2770  -10.5720 N   0  0  0  0  0  0  0  0  0  0  0  0
    0.6960    9.9990   -9.4730 C   0  0  0  0  0  0  0  0  0  0  0  0
   -0.2370    8.9660   -9.4860 C   0  0  0  0  0  0  0  0  0  0  0  0
    0.8070   10.7910   -8.3180 C   0  0  0  0  0  0  0  0  0  0  0  0
   -1.0400    8.7290   -8.3690 C   0  0  0  0  0  0  0  0  0  0  0  0
    0.0060   10.5670   -7.1970 C   0  0  0  0  0  0  0  0  0  0  0  0
    0.1640   11.4580   -5.9940 C   0  0  0  0  0  0  0  0  0  0  0  0
   -0.9230    9.5250   -7.2290 C   0  0  0  0  0  0  0  0  0  0  0  0
   -0.7950   11.4000   -5.1380 N   0  0  0  0  0  0  0  0  0  0  0  0
    1.2220   12.1110   -6.0570 O   0  0  0  0  0  0  0  0  0  0  0  0
   -0.7140   12.2570   -3.9640 C   0  0  0  0  0  0  0  0  0  0  0  0
   -1.5360   13.5340   -4.1760 C   0  0  0  0  0  0  0  0  0  0  0  0
   -1.0730   14.7550   -3.3790 C   0  0  0  0  0  0  0  0  0  0  0  0
   -1.6160   14.6800   -2.0310 N   0  0  0  0  0  0  0  0  0  0  0  0
   -2.8620   14.9190   -1.7950 C   0  0  0  0  0  0  0  0  0  0  0  0
   -3.6850   15.2390   -2.8480 N   0  0  0  0  0  0  0  0  0  0  0  0
   -3.5240   14.8900   -0.4910 C   0  0  0  0  0  0  0  0  0  0  0  0
   -2.8980   15.0070    0.7420 C   0  0  0  0  0  0  0  0  0  0  0  0
   -4.8930   14.7390   -0.2970 N   0  0  0  0  0  0  0  0  0  0  0  0
   -3.8910   14.9240    1.6650 N   0  0  0  0  0  0  0  0  0  0  0  0
   -5.0650   14.7620    1.0030 C   0  0  0  0  0  0  0  0  0  0  0  0
   -6.4370   14.6210    1.7030 C   0  0  0  0  0  0  0  0  0  0  0  0
   -7.7250   14.6280    0.9200 C   0  0  0  0  0  0  0  0  0  0  0  0
   -7.1970   13.3400    1.4870 C   0  0  0  0  0  0  0  0  0  0  0  0
  1  2  1  0
  2  3  1  0
  2  4  1  0
  3  5  2  0
  4  6  2  0
  5  6  1  0
  6  7  1  0
  7  8  2  0
  7  9  1  0
  9 10  1  0
 10 11  2  0
 10 12  1  0
 11 13  1  0
 12 14  2  0
 14 15  1  0
 13 16  2  0
 14 16  1  0
 15 17  2  3
 15 18  1  0
 17 19  1  0
 19 20  1  0
 20 21  1  0
 21 22  1  0
 22 23  2  3
 23 24  1  0
 23 25  1  0
 25 26  2  0
 25 27  1  0
 26 28  1  0
 27 29  2  0
 28 29  1  0
 29 30  1  0
 30 31  1  0
 30 32  1  0
 31 32  1  0
M  CHG  1  18  -1
M  END
