x0662_0_A_α-x0631_0_A_α
     RDKit          3D

  9  9  0  0  0  0  0  0  0  0999 V2000
    2.2010    9.5490  -11.4190 C   0  0  0  0  0  0  0  0  0  0  0  0
    1.4690   10.5080  -10.7670 N   0  0  0  0  0  0  0  0  0  0  0  0
    2.2210    8.3970  -10.9820 O   0  0  0  0  0  0  0  0  0  0  0  0
    2.9400   10.0080  -12.6100 C   0  0  0  0  0  0  0  0  0  0  0  0
    3.8840    9.2460  -13.1850 N   0  0  0  0  0  0  0  0  0  0  0  0
    2.8100   11.2480  -13.3090 C   0  0  0  0  0  0  0  0  0  0  0  0
    4.3390    9.9800  -14.2110 N   0  0  0  0  0  0  0  0  0  0  0  0
    3.7260   11.1920  -14.3310 C   0  0  0  0  0  0  0  0  0  0  0  0
    5.3840    9.4480  -15.0450 C   0  0  0  0  0  0  0  0  0  0  0  0
  1  2  1  0
  1  3  2  0
  1  4  1  0
  4  5  2  0
  4  6  1  0
  5  7  1  0
  6  8  2  0
  7  8  1  0
  7  9  1  0
M  END
