x0662_0_A-x0681_0_A
     RDKit          3D

 33 36  0  0  0  0  0  0  0  0999 V2000
    5.2760    9.5430  -15.0500 C   0  0  0  0  0  0  0  0  0  0  0  0
    4.2440   10.0240  -14.1590 N   0  0  0  0  0  0  0  0  0  0  0  0
    3.6030   11.2270  -14.2080 C   0  0  0  0  0  0  0  0  0  0  0  0
    3.8400    9.2390  -13.1520 N   0  0  0  0  0  0  0  0  0  0  0  0
    2.7210   11.2180  -13.1540 C   0  0  0  0  0  0  0  0  0  0  0  0
    2.8960    9.9510  -12.5070 C   0  0  0  0  0  0  0  0  0  0  0  0
    2.2100    9.4030  -11.3020 C   0  0  0  0  0  0  0  0  0  0  0  0
    2.3570    8.2290  -10.9890 O   0  0  0  0  0  0  0  0  0  0  0  0
    1.4430   10.3310  -10.6010 N   0  0  0  0  0  0  0  0  0  0  0  0
    0.6820   10.1390   -9.4190 C   0  0  0  0  0  0  0  0  0  0  0  0
   -0.3030    9.1410   -9.4700 C   0  0  0  0  0  0  0  0  0  0  0  0
    0.8280   10.8530   -8.2180 C   0  0  0  0  0  0  0  0  0  0  0  0
   -1.1090    8.8670   -8.3630 C   0  0  0  0  0  0  0  0  0  0  0  0
    0.0280   10.5970   -7.0960 C   0  0  0  0  0  0  0  0  0  0  0  0
    0.2640   11.4250   -5.8400 C   0  0  0  0  0  0  0  0  0  0  0  0
   -0.9470    9.5910   -7.1780 C   0  0  0  0  0  0  0  0  0  0  0  0
   -0.5160   11.2590   -4.8250 N   0  0  0  0  0  0  0  0  0  0  0  0
    1.2440   12.1740   -6.0020 O   0  0  0  0  0  0  0  0  0  0  0  0
   -0.1660   12.0940   -3.6640 C   0  0  0  0  0  0  0  0  0  0  0  0
   -1.2710   12.0630   -2.6030 C   0  0  0  0  0  0  0  0  0  0  0  0
   -1.4130   13.3800   -1.8160 C   0  0  0  0  0  0  0  0  0  0  0  0
   -2.3260   14.3220   -2.4830 N   0  0  0  0  0  0  0  0  0  0  0  0
   -3.3580   14.7740   -1.8470 C   0  0  0  0  0  0  0  0  0  0  0  0
   -4.2910   15.6450   -2.3560 N   0  0  0  0  0  0  0  0  0  0  0  0
   -3.6080   14.3230   -0.4040 C   0  0  2  0  0  0  0  0  0  0  0  0
   -4.7090   13.3140   -0.3710 C   0  0  0  0  0  0  0  0  0  0  0  0
   -3.9430   15.5320    0.4780 C   0  0  0  0  0  0  0  0  0  0  0  0
   -5.6210   13.2840    0.6490 N   0  0  0  0  0  0  0  0  0  0  0  0
   -4.3750   15.0580    1.8460 C   0  0  0  0  0  0  0  0  0  0  0  0
   -4.9690   12.3650   -1.2500 N   0  0  0  0  0  0  0  0  0  0  0  0
   -5.6260   14.1880    1.7740 C   0  0  0  0  0  0  0  0  0  0  0  0
   -6.4970   12.2720    0.4150 C   0  0  0  0  0  0  0  0  0  0  0  0
   -6.0730   11.7180   -0.7710 C   0  0  0  0  0  0  0  0  0  0  0  0
  1  2  1  0
  2  3  1  0
  2  4  1  0
  3  5  2  0
  4  6  2  0
  5  6  1  0
  6  7  1  0
  7  8  2  0
  7  9  1  0
  9 10  1  0
 10 11  2  0
 10 12  1  0
 11 13  1  0
 12 14  2  0
 14 15  1  0
 13 16  2  0
 14 16  1  0
 15 17  2  3
 15 18  1  0
 17 19  1  0
 19 20  1  0
 20 21  1  0
 21 22  1  0
 22 23  2  3
 23 24  1  0
 25 23  1  6
 25 26  1  0
 25 27  1  0
 26 28  1  0
 27 29  1  0
 26 30  2  0
 28 31  1  0
 29 31  1  0
 28 32  1  0
 30 33  1  0
 32 33  2  0
M  CHG  1  18  -1
M  END
