x0662_0_A_β-6MEA_0_B_β
     RDKit          3D

 22 22  0  0  0  0  0  0  0  0999 V2000
    1.6470   10.3320  -10.4120 N   0  0  0  0  0  0  0  0  0  0  0  0
    0.7700   10.1240   -9.3260 C   0  0  0  0  0  0  0  0  0  0  0  0
   -0.1800    9.1140   -9.3730 C   0  0  0  0  0  0  0  0  0  0  0  0
    0.7870   10.8880   -8.1670 C   0  0  0  0  0  0  0  0  0  0  0  0
   -0.0510   10.7280   -7.0990 C   0  0  0  0  0  0  0  0  0  0  0  0
   -1.0350    8.9190   -8.3130 C   0  0  0  0  0  0  0  0  0  0  0  0
    0.0290   11.5940   -5.9140 C   0  0  0  0  0  0  0  0  0  0  0  0
   -0.9840    9.7090   -7.1830 C   0  0  0  0  0  0  0  0  0  0  0  0
   -0.5060   11.1650   -4.8700 O   0  0  0  0  0  0  0  0  0  0  0  0
    0.6180   12.8540   -5.8450 O   0  0  0  0  0  0  0  0  0  0  0  0
    0.4330   13.7200   -4.7190 C   0  0  0  0  0  0  0  0  0  0  0  0
    0.4930   15.2150   -5.0160 C   0  0  0  0  0  0  0  0  0  0  0  0
   -0.8780   15.8360   -4.7210 C   0  0  0  0  0  0  0  0  0  0  0  0
   -0.7680   17.2060   -4.6130 O   0  0  0  0  0  0  0  0  0  0  0  0
   -1.6610   18.1470   -5.6680 P   0  0  0  0  0  0  0  0  0  0  0  0
   -1.1720   19.5720   -6.2040 O   0  0  0  0  0  0  0  0  0  0  0  0
   -2.9420   17.4230   -6.4530 O   0  0  0  0  0  0  0  0  0  0  0  0
   -0.8810   17.5940   -6.7730 O   0  0  0  0  0  0  0  0  0  0  0  0
   -0.6140   19.4770   -7.6220 P   0  0  0  0  0  0  0  0  0  0  0  0
   -1.5970   20.6210   -8.2300 O   0  0  0  0  0  0  0  0  0  0  0  0
    0.8850   19.8960   -7.0540 O   0  0  0  0  0  0  0  0  0  0  0  0
    0.1140   19.0320   -8.8730 O   0  0  0  0  0  0  0  0  0  0  0  0
  1  2  1  0
  2  3  2  0
  2  4  1  0
  4  5  2  0
  3  6  1  0
  5  7  1  0
  5  8  1  0
  6  8  2  0
  7  9  2  0
  7 10  1  0
 10 11  1  0
 11 12  1  0
 12 13  1  0
 13 14  1  0
 14 15  1  0
 15 16  1  0
 15 17  1  0
 15 18  1  0
 16 19  1  0
 19 20  1  0
 19 21  1  0
 19 22  1  0
M  CHG  2  17  -1  21  -1
M  END
