x0662_0_A-x0950_1_A
     RDKit          3D

 22 23  0  0  0  0  0  0  0  0999 V2000
    5.2740    9.5530  -14.9700 C   0  0  0  0  0  0  0  0  0  0  0  0
    4.2270   10.0150  -14.0840 N   0  0  0  0  0  0  0  0  0  0  0  0
    3.5520   11.1980  -14.1530 C   0  0  0  0  0  0  0  0  0  0  0  0
    3.8390    9.2320  -13.0630 N   0  0  0  0  0  0  0  0  0  0  0  0
    2.6630   11.1870  -13.1010 C   0  0  0  0  0  0  0  0  0  0  0  0
    2.8710    9.9450  -12.4390 C   0  0  0  0  0  0  0  0  0  0  0  0
    2.1950    9.4060  -11.2300 C   0  0  0  0  0  0  0  0  0  0  0  0
    2.1880    8.1980  -11.0150 O   0  0  0  0  0  0  0  0  0  0  0  0
    1.6230   10.3740  -10.4070 N   0  0  0  0  0  0  0  0  0  0  0  0
    0.8080   10.1690   -9.2660 C   0  0  0  0  0  0  0  0  0  0  0  0
   -0.0830    9.0940   -9.3670 C   0  0  0  0  0  0  0  0  0  0  0  0
    0.8110   10.9330   -8.0720 C   0  0  0  0  0  0  0  0  0  0  0  0
   -0.9500    8.7820   -8.3230 C   0  0  0  0  0  0  0  0  0  0  0  0
   -0.0720   10.6220   -7.0220 C   0  0  0  0  0  0  0  0  0  0  0  0
   -0.1550   11.3940   -5.7360 C   0  0  0  0  0  0  0  0  0  0  0  0
   -0.9460    9.5410   -7.1580 C   0  0  0  0  0  0  0  0  0  0  0  0
   -1.2860   11.4680   -5.2680 O   0  0  0  0  0  0  0  0  0  0  0  0
    0.8960   12.0050   -5.0320 N   0  0  0  0  0  0  0  0  0  0  0  0
    1.4710   13.2530   -5.4960 C   0  0  0  0  0  0  0  0  0  0  0  0
    0.8500   11.9550   -3.6150 C   0  0  0  0  0  0  0  0  0  0  0  0
    0.2620   11.0940   -2.9710 O   0  0  0  0  0  0  0  0  0  0  0  0
    1.5000   12.9310   -2.9380 O   0  0  0  0  0  0  0  0  0  0  0  0
  1  2  1  0
  2  3  1  0
  2  4  1  0
  3  5  2  0
  4  6  2  0
  5  6  1  0
  6  7  1  0
  7  8  2  0
  7  9  1  0
  9 10  1  0
 10 11  2  0
 10 12  1  0
 11 13  1  0
 12 14  2  0
 14 15  1  0
 13 16  2  0
 14 16  1  0
 15 17  2  0
 15 18  1  0
 18 19  1  0
 18 20  1  0
 20 21  2  0
 20 22  1  0
M  END
