x0662_0_A_α-x0962_3_A_α
     RDKit          3D

 17 18  0  0  0  0  0  0  0  0999 V2000
    2.1330    9.5310  -11.7110 C   0  0  0  0  0  0  0  0  0  0  0  0
    1.5310    8.4160  -11.5110 N   0  0  0  0  0  0  0  0  0  0  0  0
    0.7610    8.2690  -10.2930 C   0  0  0  0  0  0  0  0  0  0  0  0
    2.9720    9.9770  -12.8030 C   0  0  0  0  0  0  0  0  0  0  0  0
    3.9090    9.2280  -13.3820 N   0  0  0  0  0  0  0  0  0  0  0  0
    2.9140   11.2690  -13.4000 C   0  0  0  0  0  0  0  0  0  0  0  0
    1.6440    8.8310   -9.1960 C   0  0  0  0  0  0  0  0  0  0  0  0
    4.4340   10.0210  -14.3200 N   0  0  0  0  0  0  0  0  0  0  0  0
    3.8720   11.2600  -14.3780 C   0  0  0  0  0  0  0  0  0  0  0  0
    5.5000    9.5080  -15.1410 C   0  0  0  0  0  0  0  0  0  0  0  0
    1.1070   10.0460   -8.4020 C   0  0  1  0  0  0  0  0  0  0  0  0
    0.8330   11.1880   -9.2650 N   0  0  0  0  0  0  0  0  0  0  0  0
   -0.1190    9.5790   -7.7810 C   0  0  0  0  0  0  0  0  0  0  0  0
   -0.4170    8.2570   -7.9370 N   0  0  0  0  0  0  0  0  0  0  0  0
   -1.1380   10.0980   -7.0360 C   0  0  0  0  0  0  0  0  0  0  0  0
   -1.5810    8.0190   -7.2980 C   0  0  0  0  0  0  0  0  0  0  0  0
   -2.0480    9.1120   -6.7430 N   0  0  0  0  0  0  0  0  0  0  0  0
  1  2  2  3
  2  3  1  0
  1  4  1  0
  4  5  2  0
  4  6  1  0
  3  7  1  0
  5  8  1  0
  6  9  2  0
  8  9  1  0
  8 10  1  0
  7 11  1  0
 11 12  1  6
 11 13  1  0
 13 14  1  0
 13 15  2  0
 14 16  1  0
 15 17  1  0
 16 17  2  0
M  END
