x0662_0_A_α-x0465_0_A_α
     RDKit          3D

 24 25  0  0  0  0  0  0  0  0999 V2000
    2.3000    9.2740  -11.5130 C   0  0  0  0  0  0  0  0  0  0  0  0
    2.6000    8.1400  -10.9750 N   0  0  0  0  0  0  0  0  0  0  0  0
    1.9600    7.5030   -9.8370 C   0  0  0  0  0  0  0  0  0  0  0  0
    2.9340    9.9350  -12.6500 C   0  0  0  0  0  0  0  0  0  0  0  0
    3.8830    9.2380  -13.2970 N   0  0  0  0  0  0  0  0  0  0  0  0
    2.7670   11.2160  -13.2470 C   0  0  0  0  0  0  0  0  0  0  0  0
    0.7480    8.3080   -9.3600 C   0  0  0  0  0  0  0  0  0  0  0  0
    4.3030   10.0540  -14.2720 N   0  0  0  0  0  0  0  0  0  0  0  0
    3.6640   11.2570  -14.2870 C   0  0  0  0  0  0  0  0  0  0  0  0
    5.3450    9.6020  -15.1630 C   0  0  0  0  0  0  0  0  0  0  0  0
    0.4770    8.0860   -7.8830 C   0  0  0  0  0  0  0  0  0  0  0  0
    0.4290    9.3330   -7.2040 O   0  0  0  0  0  0  0  0  0  0  0  0
   -0.7100    9.6860   -6.5380 C   0  0  0  0  0  0  0  0  0  0  0  0
   -0.5900   10.7840   -5.6660 C   0  0  0  0  0  0  0  0  0  0  0  0
   -1.9430    9.0490   -6.6600 C   0  0  0  0  0  0  0  0  0  0  0  0
    0.6320   11.4130   -5.5450 O   0  0  0  0  0  0  0  0  0  0  0  0
   -3.0430    9.5020   -5.9240 C   0  0  0  0  0  0  0  0  0  0  0  0
   -1.6840   11.2410   -4.9270 C   0  0  0  0  0  0  0  0  0  0  0  0
    0.6790   12.5220   -4.6370 C   0  0  2  0  0  0  0  0  0  0  0  0
   -2.9130   10.5940   -5.0610 C   0  0  0  0  0  0  0  0  0  0  0  0
    1.9800   13.2460   -4.9490 C   0  0  0  0  0  0  0  0  0  0  0  0
    0.7120   12.0910   -3.1560 C   0  0  0  0  0  0  0  0  0  0  0  0
    0.9890   12.8260   -2.2170 O   0  0  0  0  0  0  0  0  0  0  0  0
    0.4130   10.7810   -2.9500 O   0  0  0  0  0  0  0  0  0  0  0  0
  1  2  2  3
  2  3  1  0
  1  4  1  0
  4  5  2  0
  4  6  1  0
  3  7  1  0
  5  8  1  0
  6  9  2  0
  8  9  1  0
  8 10  1  0
  7 11  1  0
 11 12  1  0
 12 13  1  0
 13 14  2  0
 13 15  1  0
 14 16  1  0
 15 17  2  0
 14 18  1  0
 16 19  1  0
 17 20  1  0
 18 20  2  0
 19 21  1  6
 19 22  1  0
 22 23  2  0
 22 24  1  0
M  END
