x0662_0_A_β-x0253_0_A_α
     RDKit          3D

 16 16  0  0  0  0  0  0  0  0999 V2000
    1.5810   10.2180  -10.1190 N   0  0  0  0  0  0  0  0  0  0  0  0
    0.7600   10.0350   -8.9970 C   0  0  0  0  0  0  0  0  0  0  0  0
   -0.1210    8.9670   -8.9390 C   0  0  0  0  0  0  0  0  0  0  0  0
    0.8010   10.9290   -7.9140 C   0  0  0  0  0  0  0  0  0  0  0  0
   -0.0120   10.8160   -6.7620 C   0  0  0  0  0  0  0  0  0  0  0  0
   -0.9460    8.7990   -7.8160 C   0  0  0  0  0  0  0  0  0  0  0  0
    0.0880   11.9090   -5.6440 C   0  0  2  0  0  0  0  0  0  0  0  0
   -1.9060    7.6520   -7.7390 C   0  0  0  0  0  0  0  0  0  0  0  0
   -0.8860    9.7150   -6.7470 C   0  0  0  0  0  0  0  0  0  0  0  0
   -1.2360   11.9770   -5.0780 O   0  0  0  0  0  0  0  0  0  0  0  0
    0.5880   13.0820   -6.3890 N   0  0  0  0  0  0  0  0  0  0  0  0
    1.0610   12.1880   -4.4740 C   0  0  0  0  0  0  0  0  0  0  0  0
    1.8240   12.9760   -6.3880 O   0  0  0  0  0  0  0  0  0  0  0  0
    0.7070   11.8160   -3.0660 C   0  0  0  0  0  0  0  0  0  0  0  0
    1.1250   12.3340   -2.0470 O   0  0  0  0  0  0  0  0  0  0  0  0
   -0.1790   10.8040   -2.9950 O   0  0  0  0  0  0  0  0  0  0  0  0
  1  2  1  0
  2  3  2  0
  2  4  1  0
  4  5  2  0
  3  6  1  0
  5  7  1  0
  6  8  1  0
  5  9  1  0
  6  9  2  0
  7 10  1  1
  7 11  1  0
  7 12  1  0
 11 13  2  0
 12 14  1  0
 14 15  2  0
 14 16  1  0
M  END
