x0662_0_A-x0962_0_A
     RDKit          3D

 28 30  0  0  0  0  0  0  0  0999 V2000
    5.3290    9.5830  -15.0480 C   0  0  0  0  0  0  0  0  0  0  0  0
    4.2860   10.0190  -14.1500 N   0  0  0  0  0  0  0  0  0  0  0  0
    3.6120   11.2060  -14.1860 C   0  0  0  0  0  0  0  0  0  0  0  0
    3.9060    9.2040  -13.1560 N   0  0  0  0  0  0  0  0  0  0  0  0
    2.7280   11.1630  -13.1340 C   0  0  0  0  0  0  0  0  0  0  0  0
    2.9430    9.8950  -12.5110 C   0  0  0  0  0  0  0  0  0  0  0  0
    2.2660    9.3270  -11.3180 C   0  0  0  0  0  0  0  0  0  0  0  0
    2.4130    8.1430  -11.0390 O   0  0  0  0  0  0  0  0  0  0  0  0
    1.5240   10.2530  -10.6120 N   0  0  0  0  0  0  0  0  0  0  0  0
    0.7500   10.0570   -9.4490 C   0  0  0  0  0  0  0  0  0  0  0  0
   -0.1630    8.9900   -9.4830 C   0  0  0  0  0  0  0  0  0  0  0  0
    0.8220   10.8290   -8.2910 C   0  0  0  0  0  0  0  0  0  0  0  0
   -0.9820    8.7070   -8.3860 C   0  0  0  0  0  0  0  0  0  0  0  0
    0.0000   10.5550   -7.1940 C   0  0  0  0  0  0  0  0  0  0  0  0
    0.0700   11.4010   -5.9650 C   0  0  0  0  0  0  0  0  0  0  0  0
   -0.9040    9.4890   -7.2400 C   0  0  0  0  0  0  0  0  0  0  0  0
   -0.8490   11.4200   -5.0740 N   0  0  0  0  0  0  0  0  0  0  0  0
    1.1330   12.0530   -6.0000 O   0  0  0  0  0  0  0  0  0  0  0  0
   -0.7690   12.2810   -3.9160 C   0  0  0  0  0  0  0  0  0  0  0  0
   -1.3630   13.6270   -4.3390 C   0  0  0  0  0  0  0  0  0  0  0  0
   -1.0890   14.7430   -3.3400 C   0  0  0  0  0  0  0  0  0  0  0  0
   -2.1380   14.8030   -2.3090 C   0  0  0  0  0  0  0  0  0  0  0  0
   -2.9490   14.8810   -1.4380 C   0  0  0  0  0  0  0  0  0  0  0  0
   -3.8470   14.9990   -0.3590 C   0  0  0  0  0  0  0  0  0  0  0  0
   -3.4840   15.3860    0.8940 N   0  0  0  0  0  0  0  0  0  0  0  0
   -5.1990   14.7740   -0.3020 C   0  0  0  0  0  0  0  0  0  0  0  0
   -4.6110   15.3800    1.6570 C   0  0  0  0  0  0  0  0  0  0  0  0
   -5.6660   15.0120    0.9640 N   0  0  0  0  0  0  0  0  0  0  0  0
  1  2  1  0
  2  3  1  0
  2  4  1  0
  3  5  2  0
  4  6  2  0
  5  6  1  0
  6  7  1  0
  7  8  2  0
  7  9  1  0
  9 10  1  0
 10 11  2  0
 10 12  1  0
 11 13  1  0
 12 14  2  0
 14 15  1  0
 13 16  2  0
 14 16  1  0
 15 17  2  3
 15 18  1  0
 17 19  1  0
 19 20  1  0
 20 21  1  0
 21 22  1  0
 22 23  3  0
 23 24  1  0
 24 25  1  0
 24 26  2  0
 25 27  1  0
 26 28  1  0
 27 28  2  0
M  CHG  1  18  -1
M  END
