x0662_0_A-x0855_0_A
     RDKit          3D

 27 29  0  0  0  0  0  0  0  0999 V2000
    5.4130    9.6290  -15.0080 C   0  0  0  0  0  0  0  0  0  0  0  0
    4.3320   10.0640  -14.1510 N   0  0  0  0  0  0  0  0  0  0  0  0
    3.6510   11.2480  -14.2140 C   0  0  0  0  0  0  0  0  0  0  0  0
    3.9150    9.2550  -13.1630 N   0  0  0  0  0  0  0  0  0  0  0  0
    2.7250   11.2050  -13.1920 C   0  0  0  0  0  0  0  0  0  0  0  0
    2.9220    9.9470  -12.5610 C   0  0  0  0  0  0  0  0  0  0  0  0
    2.2150    9.3650  -11.3980 C   0  0  0  0  0  0  0  0  0  0  0  0
    2.4560    8.2180  -11.0420 O   0  0  0  0  0  0  0  0  0  0  0  0
    1.3100   10.2180  -10.7860 N   0  0  0  0  0  0  0  0  0  0  0  0
    0.6650    9.9800   -9.5600 C   0  0  0  0  0  0  0  0  0  0  0  0
   -0.2380    8.9550   -9.3480 C   0  0  0  0  0  0  0  0  0  0  0  0
    0.9670   10.8290   -8.5010 C   0  0  0  0  0  0  0  0  0  0  0  0
   -0.8160    8.7920   -8.0920 C   0  0  0  0  0  0  0  0  0  0  0  0
    0.4170   10.7010   -7.2320 C   0  0  0  0  0  0  0  0  0  0  0  0
    0.8540   11.6980   -6.1550 C   0  0  0  0  0  0  0  0  0  0  0  0
   -0.4960    9.6520   -7.0310 C   0  0  0  0  0  0  0  0  0  0  0  0
    1.9260   12.1870   -6.3110 O   0  0  0  0  0  0  0  0  0  0  0  0
    0.0990   12.0010   -5.0460 N   0  0  0  0  0  0  0  0  0  0  0  0
    0.6220   11.9590   -3.7460 C   0  0  0  0  0  0  0  0  0  0  0  0
   -1.0670   11.4470   -5.1770 N   0  0  0  0  0  0  0  0  0  0  0  0
    1.2000   13.1000   -3.2730 O   0  0  0  0  0  0  0  0  0  0  0  0
    0.5910   10.9830   -3.0080 O   0  0  0  0  0  0  0  0  0  0  0  0
   -1.1140   10.2430   -5.7720 C   0  0  0  0  0  0  0  0  0  0  0  0
   -2.2560   11.9440   -4.7920 N   0  0  0  0  0  0  0  0  0  0  0  0
   -2.4190    9.9110   -5.8010 C   0  0  0  0  0  0  0  0  0  0  0  0
   -3.0960   10.9760   -5.1880 C   0  0  0  0  0  0  0  0  0  0  0  0
   -3.1610    8.3610   -6.5100 Br  0  0  0  0  0  0  0  0  0  0  0  0
  1  2  1  0
  2  3  1  0
  2  4  1  0
  3  5  2  0
  4  6  2  0
  5  6  1  0
  6  7  1  0
  7  8  2  0
  7  9  1  0
  9 10  1  0
 10 11  2  0
 10 12  1  0
 11 13  1  0
 12 14  2  0
 14 15  1  0
 13 16  2  0
 14 16  1  0
 15 17  2  0
 15 18  1  0
 18 19  1  0
 18 20  1  0
 19 21  1  0
 19 22  2  0
 20 23  1  0
 20 24  1  0
 23 25  2  0
 24 26  2  0
 25 26  1  0
 25 27  1  0
M  END
