x0662_0_A_β-x0631_0_A_β
     RDKit          3D

 13 13  0  0  0  0  0  0  0  0999 V2000
    1.4530   10.6560  -10.6090 N   0  0  0  0  0  0  0  0  0  0  0  0
    0.8300   10.1250   -9.4710 C   0  0  0  0  0  0  0  0  0  0  0  0
    0.2470    8.8750   -9.4830 C   0  0  0  0  0  0  0  0  0  0  0  0
    0.7840   10.8560   -8.2900 C   0  0  0  0  0  0  0  0  0  0  0  0
    0.1920   10.4250   -7.1110 C   0  0  0  0  0  0  0  0  0  0  0  0
   -0.3500    8.3950   -8.3220 C   0  0  0  0  0  0  0  0  0  0  0  0
    0.2360   11.3890   -5.9230 C   0  0  0  0  0  0  0  0  0  0  0  0
   -0.3770    9.1580   -7.1370 C   0  0  0  0  0  0  0  0  0  0  0  0
   -0.7830   11.4510   -5.1600 O   0  0  0  0  0  0  0  0  0  0  0  0
    1.2930   12.0690   -5.7530 O   0  0  0  0  0  0  0  0  0  0  0  0
   -1.0360    8.5310   -5.9630 C   0  0  0  0  0  0  0  0  0  0  0  0
   -2.3810    7.9800   -6.3800 C   0  0  0  0  0  0  0  0  0  0  0  0
   -2.9920    8.8110   -7.5010 C   0  0  0  0  0  0  0  0  0  0  0  0
  1  2  1  0
  2  3  2  0
  2  4  1  0
  4  5  2  0
  3  6  1  0
  5  7  1  0
  5  8  1  0
  6  8  2  0
  7  9  2  0
  7 10  1  0
  8 11  1  0
 11 12  1  0
 12 13  1  0
M  CHG  1  10  -1
M  END
