x0676_0_B_α-x0805_0_A_α
     RDKit          3D

 28 30  0  0  0  0  0  0  0  0999 V2000
    5.6320    6.5370   -9.2390 C   0  0  0  0  0  0  0  0  0  0  0  0
    4.5810    7.1260  -10.1140 C   0  0  0  0  0  0  0  0  0  0  0  0
    4.8530    7.7680  -11.2050 N   0  0  0  0  0  0  0  0  0  0  0  0
    3.1090    7.0380   -9.8140 C   0  0  0  0  0  0  0  0  0  0  0  0
    2.6020    8.1090  -10.7530 C   0  0  0  0  0  0  0  0  0  0  0  0
    3.6250    8.2090  -11.7060 N   0  0  0  0  0  0  0  0  0  0  0  0
    1.4550    8.6480  -10.5020 N   0  0  0  0  0  0  0  0  0  0  0  0
    3.7770    9.2170  -12.6990 C   0  0  0  0  0  0  0  0  0  0  0  0
    0.5480    8.3150   -9.3930 C   0  0  0  0  0  0  0  0  0  0  0  0
    2.8780   10.3010  -12.7590 C   0  0  0  0  0  0  0  0  0  0  0  0
    4.8060    9.1890  -13.6440 C   0  0  0  0  0  0  0  0  0  0  0  0
    0.9920    8.9710   -8.0750 C   0  0  0  0  0  0  0  0  0  0  0  0
    3.0070   11.3090  -13.7190 C   0  0  0  0  0  0  0  0  0  0  0  0
    4.9400   10.1900  -14.6090 C   0  0  0  0  0  0  0  0  0  0  0  0
    0.4460   10.3830   -7.7940 C   0  0  0  0  0  0  0  0  0  0  0  0
    4.0400   11.2530  -14.6460 C   0  0  0  0  0  0  0  0  0  0  0  0
   -0.6350   10.4450   -6.6880 C   0  0  0  0  0  0  0  0  0  0  0  0
   -0.4560   11.4680   -5.5430 C   0  0  0  0  0  0  0  0  0  0  0  0
   -0.8960   12.9300   -5.7570 C   0  0  0  0  0  0  0  0  0  0  0  0
   -2.3660   13.3050   -5.4210 C   0  0  0  0  0  0  0  0  0  0  0  0
   -2.6230   13.8190   -4.0150 C   0  0  0  0  0  0  0  0  0  0  0  0
   -1.5580   14.2610   -3.2230 C   0  0  0  0  0  0  0  0  0  0  0  0
   -3.9170   13.8610   -3.4580 C   0  0  0  0  0  0  0  0  0  0  0  0
   -4.1350   14.3280   -2.1530 C   0  0  0  0  0  0  0  0  0  0  0  0
   -1.7800   14.7240   -1.9290 C   0  0  0  0  0  0  0  0  0  0  0  0
   -3.0580   14.7640   -1.3830 C   0  0  0  0  0  0  0  0  0  0  0  0
   -3.1170   15.2470   -0.1060 O   0  0  0  0  0  0  0  0  0  0  0  0
   -4.3840   15.6870    0.3590 C   0  0  0  0  0  0  0  0  0  0  0  0
  1  2  1  0
  2  3  2  0
  2  4  1  0
  4  5  1  0
  3  6  1  0
  5  6  1  0
  5  7  2  3
  6  8  1  0
  7  9  1  0
  8 10  2  0
  8 11  1  0
  9 12  1  0
 10 13  1  0
 11 14  2  0
 12 15  1  0
 13 16  2  0
 14 16  1  0
 15 17  1  0
 17 18  1  0
 18 19  1  0
 19 20  1  0
 20 21  1  0
 21 22  2  0
 21 23  1  0
 23 24  2  0
 22 25  1  0
 24 26  1  0
 25 26  2  0
 26 27  1  0
 27 28  1  0
M  END
