x0676_0_B-x0727_0_A
     RDKit          3D

 28 30  0  0  0  0  0  0  0  0999 V2000
    5.6530    6.6760   -9.1220 C   0  0  0  0  0  0  0  0  0  0  0  0
    4.6570    7.2140  -10.0950 C   0  0  0  0  0  0  0  0  0  0  0  0
    4.9830    7.7130  -11.2530 N   0  0  0  0  0  0  0  0  0  0  0  0
    3.1740    7.2330   -9.8040 C   0  0  0  0  0  0  0  0  0  0  0  0
    2.6820    7.9890  -11.0250 C   0  0  0  0  0  0  0  0  0  0  0  0
    3.7830    8.1270  -11.8420 N   0  0  0  0  0  0  0  0  0  0  0  0
    1.4550    8.3560  -11.1360 N   0  0  0  0  0  0  0  0  0  0  0  0
    3.8880    9.1900  -12.7870 C   0  0  0  0  0  0  0  0  0  0  0  0
    0.4970    8.0450  -10.0980 C   0  0  0  0  0  0  0  0  0  0  0  0
    2.9760   10.2670  -12.8010 C   0  0  0  0  0  0  0  0  0  0  0  0
    4.9100    9.1900  -13.7400 C   0  0  0  0  0  0  0  0  0  0  0  0
   -0.2850    9.2910   -9.6760 C   0  0  0  0  0  0  0  0  0  0  0  0
    3.0870   11.3030  -13.7300 C   0  0  0  0  0  0  0  0  0  0  0  0
    5.0210   10.2230  -14.6730 C   0  0  0  0  0  0  0  0  0  0  0  0
    4.1120   11.2800  -14.6700 C   0  0  0  0  0  0  0  0  0  0  0  0
   -0.7300    9.0780   -8.2400 C   0  0  1  0  0  0  0  0  0  0  0  0
    0.2460    9.4110   -7.1290 C   0  0  1  0  0  0  0  0  0  0  0  0
   -2.0250    9.6740   -7.7360 C   0  0  0  0  0  0  0  0  0  0  0  0
    0.6080   10.8850   -6.8720 C   0  0  0  0  0  0  0  0  0  0  0  0
   -2.0220    9.1280   -6.3020 C   0  0  0  0  0  0  0  0  0  0  0  0
   -0.5490    8.8500   -5.9550 C   0  0  0  0  0  0  0  0  0  0  0  0
    0.0640   11.4420   -5.7310 N   0  0  0  0  0  0  0  0  0  0  0  0
    1.3450   11.5080   -7.5900 O   0  0  0  0  0  0  0  0  0  0  0  0
    0.8820   12.3340   -4.8960 C   0  0  1  0  0  0  0  0  0  0  0  0
    0.4470   13.7780   -5.0670 C   0  0  0  0  0  0  0  0  0  0  0  0
    0.7430   11.9140   -3.4290 C   0  0  0  0  0  0  0  0  0  0  0  0
    0.1950   10.9020   -3.0270 O   0  0  0  0  0  0  0  0  0  0  0  0
    1.3010   12.7820   -2.5600 O   0  0  0  0  0  0  0  0  0  0  0  0
  1  2  1  0
  2  3  2  0
  2  4  1  0
  4  5  1  0
  3  6  1  0
  5  6  1  0
  5  7  2  3
  6  8  1  0
  7  9  1  0
  8 10  2  0
  8 11  1  0
  9 12  1  0
 10 13  1  0
 11 14  2  0
 13 15  2  0
 14 15  1  0
 16 12  1  6
 16 17  1  0
 16 18  1  0
 17 19  1  1
 18 20  1  0
 17 21  1  0
 20 21  1  0
 19 22  1  0
 19 23  2  0
 22 24  1  0
 24 25  1  1
 24 26  1  0
 26 27  2  0
 26 28  1  0
M  END
