x0676_0_B-x0662_0_A
     RDKit          3D

 24 27  0  0  0  0  0  0  0  0999 V2000
    6.0480    6.2790   -9.4310 C   0  0  0  0  0  0  0  0  0  0  0  0
    4.9820    6.7920  -10.3180 C   0  0  0  0  0  0  0  0  0  0  0  0
    5.2350    7.4590  -11.4320 N   0  0  0  0  0  0  0  0  0  0  0  0
    3.5210    6.6220   -9.9950 C   0  0  0  0  0  0  0  0  0  0  0  0
    3.3080    7.9350  -10.6400 C   0  0  1  0  0  0  0  0  0  0  0  0
    3.9900    7.8130  -11.8750 N   0  0  0  0  0  0  0  0  0  0  0  0
    2.1250    8.6520  -10.4190 N   0  0  0  0  0  0  0  0  0  0  0  0
    3.8710    8.9730  -12.6650 C   0  0  0  0  0  0  0  0  0  0  0  0
    1.9380    9.6330  -11.2170 C   0  0  0  0  0  0  0  0  0  0  0  0
    2.8670    9.9340  -12.4030 C   0  0  0  0  0  0  0  0  0  0  0  0
    4.7580    9.1860  -13.7300 C   0  0  0  0  0  0  0  0  0  0  0  0
    0.8720   10.3930  -10.8790 N   0  0  0  0  0  0  0  0  0  0  0  0
    2.7780   11.0860  -13.2220 C   0  0  0  0  0  0  0  0  0  0  0  0
    4.6680   10.3220  -14.5340 C   0  0  0  0  0  0  0  0  0  0  0  0
    3.6790   11.2720  -14.2830 C   0  0  0  0  0  0  0  0  0  0  0  0
    0.2030   10.1300   -9.6560 C   0  0  0  0  0  0  0  0  0  0  0  0
   -0.7580    9.1380   -9.5410 C   0  0  0  0  0  0  0  0  0  0  0  0
    0.5060   10.8730   -8.4920 C   0  0  0  0  0  0  0  0  0  0  0  0
   -1.3990    8.8880   -8.3250 C   0  0  0  0  0  0  0  0  0  0  0  0
   -0.1320   10.6520   -7.2500 C   0  0  0  0  0  0  0  0  0  0  0  0
    0.1900   11.4730   -6.0070 C   0  0  0  0  0  0  0  0  0  0  0  0
   -1.0900    9.6390   -7.1940 C   0  0  0  0  0  0  0  0  0  0  0  0
   -0.7360   11.5680   -5.1350 O   0  0  0  0  0  0  0  0  0  0  0  0
    1.3420   11.9950   -5.9050 O   0  0  0  0  0  0  0  0  0  0  0  0
  1  2  1  0
  2  3  2  0
  2  4  1  0
  5  4  1  6
  3  6  1  0
  5  6  1  0
  5  7  1  0
  6  8  1  0
  7  9  2  0
  8 10  2  0
  9 10  1  0
  8 11  1  0
  9 12  1  0
 10 13  1  0
 11 14  2  0
 13 15  2  0
 14 15  1  0
 12 16  1  0
 16 17  2  0
 16 18  1  0
 17 19  1  0
 18 20  2  0
 20 21  1  0
 19 22  2  0
 20 22  1  0
 21 23  2  0
 21 24  1  0
M  CHG  1  24  -1
M  END
