x0676_0_B_α-x1015_0_A_α
     RDKit          3D

 30 33  0  0  0  0  0  0  0  0999 V2000
    5.7740    6.5940   -9.1860 C   0  0  0  0  0  0  0  0  0  0  0  0
    4.7240    7.1550  -10.0810 C   0  0  0  0  0  0  0  0  0  0  0  0
    4.9680    7.7070  -11.2290 N   0  0  0  0  0  0  0  0  0  0  0  0
    3.2730    7.1320   -9.7150 C   0  0  0  0  0  0  0  0  0  0  0  0
    2.7330    8.0690  -10.7660 C   0  0  0  0  0  0  0  0  0  0  0  0
    3.7440    8.1480  -11.7280 N   0  0  0  0  0  0  0  0  0  0  0  0
    1.5750    8.6280  -10.7030 N   0  0  0  0  0  0  0  0  0  0  0  0
    3.8520    9.1680  -12.7220 C   0  0  0  0  0  0  0  0  0  0  0  0
    0.7280    8.3480   -9.5440 C   0  0  0  0  0  0  0  0  0  0  0  0
    2.9210   10.2350  -12.7810 C   0  0  0  0  0  0  0  0  0  0  0  0
    4.8730    9.1790  -13.6830 C   0  0  0  0  0  0  0  0  0  0  0  0
   -0.5810    9.1350   -9.6710 C   0  0  0  0  0  0  0  0  0  0  0  0
    3.0120   11.2500  -13.7420 C   0  0  0  0  0  0  0  0  0  0  0  0
    4.9670   10.1890  -14.6500 C   0  0  0  0  0  0  0  0  0  0  0  0
   -1.5370    8.9790   -8.4780 C   0  0  0  0  0  0  0  0  0  0  0  0
    4.0390   11.2230  -14.6790 C   0  0  0  0  0  0  0  0  0  0  0  0
   -1.1790    9.8360   -7.2850 C   0  0  0  0  0  0  0  0  0  0  0  0
   -0.2390   10.8650   -7.3930 C   0  0  0  0  0  0  0  0  0  0  0  0
   -1.7860    9.6130   -6.0460 C   0  0  0  0  0  0  0  0  0  0  0  0
    0.0880   11.6540   -6.2850 C   0  0  0  0  0  0  0  0  0  0  0  0
   -1.4550   10.4050   -4.9400 C   0  0  0  0  0  0  0  0  0  0  0  0
   -0.5110   11.4410   -5.0400 C   0  0  0  0  0  0  0  0  0  0  0  0
   -0.1860   12.2310   -3.9040 N   0  0  0  0  0  0  0  0  0  0  0  0
   -0.0220   13.6810   -3.9620 C   0  0  1  0  0  0  0  0  0  0  0  0
    0.2470   11.7280   -2.6660 C   0  0  0  0  0  0  0  0  0  0  0  0
   -1.3120   14.4420   -4.2550 C   0  0  0  0  0  0  0  0  0  0  0  0
    0.2700   10.5630   -2.2620 O   0  0  0  0  0  0  0  0  0  0  0  0
    0.6750   12.7820   -1.9170 N   0  0  0  0  0  0  0  0  0  0  0  0
    0.3970   13.9580   -2.5240 C   0  0  0  0  0  0  0  0  0  0  0  0
    0.4830   15.0530   -1.9900 O   0  0  0  0  0  0  0  0  0  0  0  0
  1  2  1  0
  2  3  2  0
  2  4  1  0
  4  5  1  0
  3  6  1  0
  5  6  1  0
  5  7  2  3
  6  8  1  0
  7  9  1  0
  8 10  2  0
  8 11  1  0
  9 12  1  0
 10 13  1  0
 11 14  2  0
 12 15  1  0
 13 16  2  0
 14 16  1  0
 15 17  1  0
 17 18  2  0
 17 19  1  0
 18 20  1  0
 19 21  2  0
 20 22  2  0
 21 22  1  0
 22 23  1  0
 23 24  1  0
 23 25  1  0
 24 26  1  1
 25 27  2  0
 25 28  1  0
 24 29  1  0
 28 29  1  0
 29 30  2  0
M  END
