x0676_0_B-x0465_0_A
     RDKit          3D

 28 30  0  0  0  0  0  0  0  0999 V2000
    5.7760    6.6020   -9.2600 C   0  0  0  0  0  0  0  0  0  0  0  0
    4.7290    7.1480  -10.1680 C   0  0  0  0  0  0  0  0  0  0  0  0
    4.9780    7.7230  -11.3070 N   0  0  0  0  0  0  0  0  0  0  0  0
    3.2720    7.0810   -9.8310 C   0  0  0  0  0  0  0  0  0  0  0  0
    2.7420    8.0560  -10.8490 C   0  0  0  0  0  0  0  0  0  0  0  0
    3.7350    8.1240  -11.8140 N   0  0  0  0  0  0  0  0  0  0  0  0
    1.5950    8.5880  -10.6490 N   0  0  0  0  0  0  0  0  0  0  0  0
    3.8340    9.1820  -12.7620 C   0  0  0  0  0  0  0  0  0  0  0  0
    0.8350    8.2510   -9.4500 C   0  0  0  0  0  0  0  0  0  0  0  0
    2.9280   10.2620  -12.7840 C   0  0  0  0  0  0  0  0  0  0  0  0
    4.8580    9.1800  -13.7160 C   0  0  0  0  0  0  0  0  0  0  0  0
    0.5650    9.5360   -8.6560 C   0  0  0  0  0  0  0  0  0  0  0  0
    3.0460   11.2920  -13.7200 C   0  0  0  0  0  0  0  0  0  0  0  0
    4.9790   10.2060  -14.6550 C   0  0  0  0  0  0  0  0  0  0  0  0
    0.4440    9.2590   -7.2640 O   0  0  0  0  0  0  0  0  0  0  0  0
    4.0720   11.2670  -14.6580 C   0  0  0  0  0  0  0  0  0  0  0  0
   -0.6690    9.6500   -6.5780 C   0  0  0  0  0  0  0  0  0  0  0  0
   -0.5310   10.7620   -5.7220 C   0  0  0  0  0  0  0  0  0  0  0  0
   -1.9080    9.0190   -6.6780 C   0  0  0  0  0  0  0  0  0  0  0  0
    0.6520   11.4480   -5.5540 O   0  0  0  0  0  0  0  0  0  0  0  0
   -3.0020    9.4790   -5.9410 C   0  0  0  0  0  0  0  0  0  0  0  0
   -1.6310   11.2200   -4.9860 C   0  0  0  0  0  0  0  0  0  0  0  0
    0.6970   12.5580   -4.6470 C   0  0  2  0  0  0  0  0  0  0  0  0
   -2.8650   10.5780   -5.0960 C   0  0  0  0  0  0  0  0  0  0  0  0
    2.0220   13.2570   -4.9180 C   0  0  0  0  0  0  0  0  0  0  0  0
    0.7110   12.1290   -3.1800 C   0  0  0  0  0  0  0  0  0  0  0  0
    1.0670   12.7850   -2.2150 O   0  0  0  0  0  0  0  0  0  0  0  0
    0.2660   10.8670   -2.9930 O   0  0  0  0  0  0  0  0  0  0  0  0
  1  2  1  0
  2  3  2  0
  2  4  1  0
  4  5  1  0
  3  6  1  0
  5  6  1  0
  5  7  2  3
  6  8  1  0
  7  9  1  0
  8 10  2  0
  8 11  1  0
  9 12  1  0
 10 13  1  0
 11 14  2  0
 12 15  1  0
 13 16  2  0
 14 16  1  0
 15 17  1  0
 17 18  2  0
 17 19  1  0
 18 20  1  0
 19 21  2  0
 18 22  1  0
 20 23  1  0
 21 24  1  0
 22 24  2  0
 23 25  1  6
 23 26  1  0
 26 27  2  0
 26 28  1  0
M  END
