x0676_0_B_α-x0727_0_A_α
     RDKit          3D

 28 30  0  0  0  0  0  0  0  0999 V2000
    5.6500    6.6830   -9.1250 C   0  0  0  0  0  0  0  0  0  0  0  0
    4.6490    7.2230  -10.0920 C   0  0  0  0  0  0  0  0  0  0  0  0
    4.9730    7.7340  -11.2450 N   0  0  0  0  0  0  0  0  0  0  0  0
    3.1660    7.2250   -9.8040 C   0  0  0  0  0  0  0  0  0  0  0  0
    2.6720    7.9950  -11.0170 C   0  0  0  0  0  0  0  0  0  0  0  0
    3.7710    8.1440  -11.8300 N   0  0  0  0  0  0  0  0  0  0  0  0
    1.4490    8.3660  -11.1320 N   0  0  0  0  0  0  0  0  0  0  0  0
    3.8700    9.2040  -12.7850 C   0  0  0  0  0  0  0  0  0  0  0  0
    0.4780    8.0470  -10.1110 C   0  0  0  0  0  0  0  0  0  0  0  0
    2.9570   10.2800  -12.8060 C   0  0  0  0  0  0  0  0  0  0  0  0
    4.8910    9.1910  -13.7320 C   0  0  0  0  0  0  0  0  0  0  0  0
   -0.3030    9.2940   -9.6880 C   0  0  0  0  0  0  0  0  0  0  0  0
    3.0710   11.3080  -13.7490 C   0  0  0  0  0  0  0  0  0  0  0  0
    5.0060   10.2170  -14.6780 C   0  0  0  0  0  0  0  0  0  0  0  0
    4.0970   11.2720  -14.6830 C   0  0  0  0  0  0  0  0  0  0  0  0
   -0.7400    9.0740   -8.2530 C   0  0  1  0  0  0  0  0  0  0  0  0
    0.2360    9.4020   -7.1370 C   0  0  1  0  0  0  0  0  0  0  0  0
   -2.0370    9.6660   -7.7530 C   0  0  0  0  0  0  0  0  0  0  0  0
    0.6070   10.8710   -6.8690 C   0  0  0  0  0  0  0  0  0  0  0  0
   -2.0350    9.1190   -6.3210 C   0  0  0  0  0  0  0  0  0  0  0  0
   -0.5630    8.8390   -5.9680 C   0  0  0  0  0  0  0  0  0  0  0  0
    0.0560   11.4360   -5.7320 N   0  0  0  0  0  0  0  0  0  0  0  0
    1.3590   11.4910   -7.5820 O   0  0  0  0  0  0  0  0  0  0  0  0
    0.8740   12.3240   -4.8930 C   0  0  1  0  0  0  0  0  0  0  0  0
    0.4420   13.7700   -5.0630 C   0  0  0  0  0  0  0  0  0  0  0  0
    0.7370   11.9080   -3.4240 C   0  0  0  0  0  0  0  0  0  0  0  0
    0.1980   10.8950   -3.0180 O   0  0  0  0  0  0  0  0  0  0  0  0
    1.2920   12.7850   -2.5570 O   0  0  0  0  0  0  0  0  0  0  0  0
  1  2  1  0
  2  3  2  0
  2  4  1  0
  4  5  1  0
  3  6  1  0
  5  6  1  0
  5  7  2  3
  6  8  1  0
  7  9  1  0
  8 10  2  0
  8 11  1  0
  9 12  1  0
 10 13  1  0
 11 14  2  0
 13 15  2  0
 14 15  1  0
 16 12  1  6
 16 17  1  0
 16 18  1  0
 17 19  1  1
 18 20  1  0
 17 21  1  0
 20 21  1  0
 19 22  1  0
 19 23  2  0
 22 24  1  0
 24 25  1  1
 24 26  1  0
 26 27  2  0
 26 28  1  0
M  END
