x0676_0_B_α-x0685_1_A_α
     RDKit          3D

 28 30  0  0  0  0  0  0  0  0999 V2000
    5.7440    6.6570   -9.1090 C   0  0  0  0  0  0  0  0  0  0  0  0
    4.7410    7.1930  -10.0720 C   0  0  0  0  0  0  0  0  0  0  0  0
    5.0480    7.7010  -11.2300 N   0  0  0  0  0  0  0  0  0  0  0  0
    3.2660    7.1860   -9.7620 C   0  0  0  0  0  0  0  0  0  0  0  0
    2.7350    7.8370  -11.0250 C   0  0  0  0  0  0  0  0  0  0  0  0
    3.8380    8.1090  -11.8020 N   0  0  0  0  0  0  0  0  0  0  0  0
    1.4820    8.0070  -11.1520 N   0  0  0  0  0  0  0  0  0  0  0  0
    3.9260    9.1580  -12.7650 C   0  0  0  0  0  0  0  0  0  0  0  0
    0.5420    7.5960  -10.1400 C   0  0  0  0  0  0  0  0  0  0  0  0
    2.9820   10.2060  -12.7530 C   0  0  0  0  0  0  0  0  0  0  0  0
    4.9250    9.1980  -13.7390 C   0  0  0  0  0  0  0  0  0  0  0  0
   -0.6490    8.5450  -10.0610 C   0  0  0  0  0  0  0  0  0  0  0  0
    3.0420   11.2530  -13.6790 C   0  0  0  0  0  0  0  0  0  0  0  0
    4.9860   10.2410  -14.6680 C   0  0  0  0  0  0  0  0  0  0  0  0
    4.0460   11.2700  -14.6390 C   0  0  0  0  0  0  0  0  0  0  0  0
   -0.9850    9.0760   -8.6650 C   0  0  1  0  0  0  0  0  0  0  0  0
   -0.0520    8.5380   -7.5830 C   0  0  0  0  0  0  0  0  0  0  0  0
   -1.1100   10.6080   -8.5730 C   0  0  0  0  0  0  0  0  0  0  0  0
   -0.5840    8.9240   -6.2120 C   0  0  0  0  0  0  0  0  0  0  0  0
   -1.5470   11.0840   -7.1800 C   0  0  0  0  0  0  0  0  0  0  0  0
   -0.7560   10.4440   -6.0180 C   0  0  1  0  0  0  0  0  0  0  0  0
   -1.4540   10.7070   -4.7390 N   0  0  0  0  0  0  0  0  0  0  0  0
   -1.5190   12.1460   -4.3980 C   0  0  0  0  0  0  0  0  0  0  0  0
   -0.1390   12.7340   -4.1040 C   0  0  0  0  0  0  0  0  0  0  0  0
    0.6450   12.0420   -2.6410 S   0  0  0  0  0  0  0  0  0  0  0  0
    2.2070   12.3170   -2.8450 O   0  0  0  0  0  0  0  0  0  0  0  0
    0.3140   10.4690   -2.5600 O   0  0  0  0  0  0  0  0  0  0  0  0
    0.0790   12.7670   -1.3270 O   0  0  0  0  0  0  0  0  0  0  0  0
  1  2  1  0
  2  3  2  0
  2  4  1  0
  4  5  1  0
  3  6  1  0
  5  6  1  0
  5  7  2  3
  6  8  1  0
  7  9  1  0
  8 10  2  0
  8 11  1  0
  9 12  1  0
 10 13  1  0
 11 14  2  0
 13 15  2  0
 14 15  1  0
 16 12  1  6
 16 17  1  0
 16 18  1  0
 17 19  1  0
 18 20  1  0
 19 21  1  0
 20 21  1  0
 21 22  1  1
 22 23  1  0
 23 24  1  0
 24 25  1  0
 25 26  1  0
 25 27  1  0
 25 28  1  0
M  END
