x0676_0_B_α-x0631_0_A_β
     RDKit          3D

 22 24  0  0  0  0  0  0  0  0999 V2000
    5.7020    6.6060   -9.1510 C   0  0  0  0  0  0  0  0  0  0  0  0
    4.6760    7.1760  -10.0670 C   0  0  0  0  0  0  0  0  0  0  0  0
    4.9490    7.6940  -11.2220 N   0  0  0  0  0  0  0  0  0  0  0  0
    3.2180    7.2030   -9.7120 C   0  0  0  0  0  0  0  0  0  0  0  0
    2.6960    8.0800  -10.8250 C   0  0  0  0  0  0  0  0  0  0  0  0
    3.7400    8.1580  -11.7480 N   0  0  0  0  0  0  0  0  0  0  0  0
    1.5320    8.6250  -10.8760 N   0  0  0  0  0  0  0  0  0  0  0  0
    3.8620    9.1780  -12.7390 C   0  0  0  0  0  0  0  0  0  0  0  0
    0.5260    8.4650   -9.8320 C   0  0  0  0  0  0  0  0  0  0  0  0
    2.9500   10.2580  -12.7830 C   0  0  0  0  0  0  0  0  0  0  0  0
    4.8730    9.1830  -13.7080 C   0  0  0  0  0  0  0  0  0  0  0  0
    3.0450   11.2830  -13.7330 C   0  0  0  0  0  0  0  0  0  0  0  0
    4.9730   10.2030  -14.6640 C   0  0  0  0  0  0  0  0  0  0  0  0
    0.8190    9.2090   -8.5990 N   0  0  0  0  0  0  0  0  0  0  0  0
    4.0610   11.2530  -14.6770 C   0  0  0  0  0  0  0  0  0  0  0  0
    1.1850   10.5980   -8.8370 C   0  0  0  0  0  0  0  0  0  0  0  0
   -0.3830    9.3990   -7.7980 N   0  0  0  0  0  0  0  0  0  0  0  0
   -0.3280    8.5840   -6.5730 C   0  0  0  0  0  0  0  0  0  0  0  0
   -0.4090   10.7830   -7.4350 N   0  0  0  0  0  0  0  0  0  0  0  0
    0.0210   11.4160   -8.6270 N   0  0  0  0  0  0  0  0  0  0  0  0
   -1.6830    7.9350   -6.3600 C   0  0  0  0  0  0  0  0  0  0  0  0
   -2.7560    8.6760   -7.1450 C   0  0  0  0  0  0  0  0  0  0  0  0
  1  2  1  0
  2  3  2  0
  2  4  1  0
  4  5  1  0
  3  6  1  0
  5  6  1  0
  5  7  2  3
  6  8  1  0
  7  9  1  0
  8 10  2  0
  8 11  1  0
 10 12  1  0
 11 13  2  0
  9 14  1  0
 12 15  2  0
 13 15  1  0
 14 16  1  0
 14 17  1  0
 17 18  1  0
 17 19  1  0
 16 20  1  0
 19 20  1  0
 18 21  1  0
 21 22  1  0
M  END
