x0676_0_B_α-x0628_0_A_α
     RDKit          3D

 28 30  0  0  0  0  0  0  0  0999 V2000
    5.7870    6.6760   -9.2010 C   0  0  0  0  0  0  0  0  0  0  0  0
    4.7510    7.2020  -10.1300 C   0  0  0  0  0  0  0  0  0  0  0  0
    5.0170    7.7180  -11.2970 N   0  0  0  0  0  0  0  0  0  0  0  0
    3.2900    7.1740   -9.7870 C   0  0  0  0  0  0  0  0  0  0  0  0
    2.7050    7.8350  -11.0170 C   0  0  0  0  0  0  0  0  0  0  0  0
    3.7820    8.1040  -11.8400 N   0  0  0  0  0  0  0  0  0  0  0  0
    1.4430    8.0060  -11.0590 N   0  0  0  0  0  0  0  0  0  0  0  0
    3.8490    9.1840  -12.7730 C   0  0  0  0  0  0  0  0  0  0  0  0
    0.5800    7.5830   -9.9820 C   0  0  0  0  0  0  0  0  0  0  0  0
    2.9320   10.2530  -12.7820 C   0  0  0  0  0  0  0  0  0  0  0  0
    4.8680    9.2000  -13.7330 C   0  0  0  0  0  0  0  0  0  0  0  0
    0.0650    8.8130   -9.2460 C   0  0  0  0  0  0  0  0  0  0  0  0
    3.0350   11.2970  -13.7160 C   0  0  0  0  0  0  0  0  0  0  0  0
    4.9720   10.2370  -14.6690 C   0  0  0  0  0  0  0  0  0  0  0  0
    0.4220    8.7350   -7.7680 C   0  0  0  0  0  0  0  0  0  0  0  0
    4.0570   11.2830  -14.6580 C   0  0  0  0  0  0  0  0  0  0  0  0
   -0.7990    8.9510   -6.8750 C   0  0  0  0  0  0  0  0  0  0  0  0
   -0.8680   10.3170   -6.3050 C   0  0  0  0  0  0  0  0  0  0  0  0
   -2.0360   10.8990   -5.8990 N   0  0  0  0  0  0  0  0  0  0  0  0
    0.2140   11.0840   -6.1440 N   0  0  0  0  0  0  0  0  0  0  0  0
   -0.3030   12.1940   -5.6090 N   0  0  0  0  0  0  0  0  0  0  0  0
   -1.6490   12.0880   -5.4680 C   0  0  0  0  0  0  0  0  0  0  0  0
   -2.4990   13.1670   -4.9200 C   0  0  0  0  0  0  0  0  0  0  0  0
    0.5740   13.2980   -5.2760 C   0  0  0  0  0  0  0  0  0  0  0  0
    1.6680   12.9560   -4.2680 C   0  0  0  0  0  0  0  0  0  0  0  0
    1.0950   12.2860   -3.0480 C   0  0  0  0  0  0  0  0  0  0  0  0
    0.6360   11.1550   -3.0310 O   0  0  0  0  0  0  0  0  0  0  0  0
    1.1280   13.0490   -1.9370 O   0  0  0  0  0  0  0  0  0  0  0  0
  1  2  1  0
  2  3  2  0
  2  4  1  0
  4  5  1  0
  3  6  1  0
  5  6  1  0
  5  7  2  3
  6  8  1  0
  7  9  1  0
  8 10  2  0
  8 11  1  0
  9 12  1  0
 10 13  1  0
 11 14  2  0
 12 15  1  0
 13 16  2  0
 14 16  1  0
 15 17  1  0
 17 18  1  0
 18 19  1  0
 18 20  2  0
 20 21  1  0
 19 22  2  0
 21 22  1  0
 22 23  1  0
 21 24  1  0
 24 25  1  0
 25 26  1  0
 26 27  2  0
 26 28  1  0
M  END
