x0676_0_B_α-x0962_3_A_α
     RDKit          3D

 22 24  0  0  0  0  0  0  0  0999 V2000
    5.8170    6.4770   -9.3690 C   0  0  0  0  0  0  0  0  0  0  0  0
    4.7440    7.0590  -10.2150 C   0  0  0  0  0  0  0  0  0  0  0  0
    4.9610    7.7670  -11.2800 N   0  0  0  0  0  0  0  0  0  0  0  0
    3.2880    6.8800   -9.9040 C   0  0  0  0  0  0  0  0  0  0  0  0
    2.7630    8.0450  -10.6970 C   0  0  0  0  0  0  0  0  0  0  0  0
    3.6980    8.1690  -11.7350 N   0  0  0  0  0  0  0  0  0  0  0  0
    1.6870    8.5920  -10.2490 N   0  0  0  0  0  0  0  0  0  0  0  0
    3.7880    9.2130  -12.7040 C   0  0  0  0  0  0  0  0  0  0  0  0
    1.0140    9.7500  -10.8200 C   0  0  0  0  0  0  0  0  0  0  0  0
    2.9010   10.3040  -12.7650 C   0  0  0  0  0  0  0  0  0  0  0  0
    4.8170    9.1730  -13.6590 C   0  0  0  0  0  0  0  0  0  0  0  0
    0.9080   10.9140   -9.8200 C   0  0  0  0  0  0  0  0  0  0  0  0
    3.0360   11.3060  -13.7290 C   0  0  0  0  0  0  0  0  0  0  0  0
    4.9550   10.1710  -14.6250 C   0  0  0  0  0  0  0  0  0  0  0  0
    1.0160   10.4750   -8.3410 C   0  0  1  0  0  0  0  0  0  0  0  0
    4.0640   11.2400  -14.6610 C   0  0  0  0  0  0  0  0  0  0  0  0
    1.1960   11.5920   -7.4240 N   0  0  0  0  0  0  0  0  0  0  0  0
   -0.1140    9.6870   -7.8740 C   0  0  0  0  0  0  0  0  0  0  0  0
   -0.2470    8.3860   -8.2540 N   0  0  0  0  0  0  0  0  0  0  0  0
   -1.1910    9.9460   -7.0640 C   0  0  0  0  0  0  0  0  0  0  0  0
   -1.3780    7.9080   -7.6740 C   0  0  0  0  0  0  0  0  0  0  0  0
   -1.9730    8.8290   -6.9490 N   0  0  0  0  0  0  0  0  0  0  0  0
  1  2  1  0
  2  3  2  0
  2  4  1  0
  4  5  1  0
  3  6  1  0
  5  6  1  0
  5  7  2  3
  6  8  1  0
  7  9  1  0
  8 10  2  0
  8 11  1  0
  9 12  1  0
 10 13  1  0
 11 14  2  0
 12 15  1  0
 13 16  2  0
 14 16  1  0
 15 17  1  1
 15 18  1  0
 18 19  1  0
 18 20  2  0
 19 21  1  0
 20 22  1  0
 21 22  2  0
M  END
