x0676_0_B_α-x0805_0_A_β
     RDKit          3D

 28 30  0  0  0  0  0  0  0  0999 V2000
    5.8490    6.5610   -9.3310 C   0  0  0  0  0  0  0  0  0  0  0  0
    4.7460    7.1620  -10.1320 C   0  0  0  0  0  0  0  0  0  0  0  0
    4.9060    7.6660  -11.3170 N   0  0  0  0  0  0  0  0  0  0  0  0
    3.3410    7.2350   -9.6180 C   0  0  0  0  0  0  0  0  0  0  0  0
    2.7290    8.1190  -10.6840 C   0  0  0  0  0  0  0  0  0  0  0  0
    3.6630    8.1610  -11.7220 N   0  0  0  0  0  0  0  0  0  0  0  0
    1.5860    8.6910  -10.5860 N   0  0  0  0  0  0  0  0  0  0  0  0
    3.7360    9.2040  -12.7010 C   0  0  0  0  0  0  0  0  0  0  0  0
    0.7540    8.5430   -9.4020 C   0  0  0  0  0  0  0  0  0  0  0  0
    2.8620   10.3100  -12.7230 C   0  0  0  0  0  0  0  0  0  0  0  0
    4.7170    9.1700  -13.7070 C   0  0  0  0  0  0  0  0  0  0  0  0
    0.5050    9.8720   -8.6850 C   0  0  0  0  0  0  0  0  0  0  0  0
    2.9700   11.3230  -13.6880 C   0  0  0  0  0  0  0  0  0  0  0  0
    4.8300   10.1740  -14.6750 C   0  0  0  0  0  0  0  0  0  0  0  0
    0.8100    9.8530   -7.1820 C   0  0  0  0  0  0  0  0  0  0  0  0
    3.9550   11.2560  -14.6640 C   0  0  0  0  0  0  0  0  0  0  0  0
   -0.1610   10.6080   -6.2600 C   0  0  0  0  0  0  0  0  0  0  0  0
   -0.4030    9.9040   -4.9110 C   0  0  0  0  0  0  0  0  0  0  0  0
    0.7160   10.1440   -3.8950 C   0  0  0  0  0  0  0  0  0  0  0  0
    0.2700   10.6600   -2.6300 O   0  0  0  0  0  0  0  0  0  0  0  0
    0.4050   12.0200   -2.4980 C   0  0  0  0  0  0  0  0  0  0  0  0
    0.5230   12.5660   -1.4040 O   0  0  0  0  0  0  0  0  0  0  0  0
    0.3700   12.7130   -3.8740 C   0  0  1  0  0  0  0  0  0  0  0  0
   -0.4430   14.0260   -3.8830 C   0  0  0  0  0  0  0  0  0  0  0  0
    1.7790   12.9260   -4.4420 C   0  0  0  0  0  0  0  0  0  0  0  0
    2.4380   14.0960   -3.9660 O   0  0  0  0  0  0  0  0  0  0  0  0
    0.3490   15.2490   -3.4320 C   0  0  0  0  0  0  0  0  0  0  0  0
    1.6970   15.3030   -4.1080 C   0  0  0  0  0  0  0  0  0  0  0  0
  1  2  1  0
  2  3  2  0
  2  4  1  0
  4  5  1  0
  3  6  1  0
  5  6  1  0
  5  7  2  3
  6  8  1  0
  7  9  1  0
  8 10  2  0
  8 11  1  0
  9 12  1  0
 10 13  1  0
 11 14  2  0
 12 15  1  0
 13 16  2  0
 14 16  1  0
 15 17  1  0
 17 18  1  0
 18 19  1  0
 19 20  1  0
 20 21  1  0
 21 22  2  0
 23 21  1  1
 23 24  1  0
 23 25  1  0
 25 26  1  0
 24 27  1  0
 26 28  1  0
 27 28  1  0
M  END
