x0676_0_B-x0524_0_A
     RDKit          3D

 24 26  0  0  0  0  0  0  0  0999 V2000
    5.9460    6.7210   -9.1000 C   0  0  0  0  0  0  0  0  0  0  0  0
    5.0720    6.9680  -10.2710 C   0  0  0  0  0  0  0  0  0  0  0  0
    5.4410    7.5860  -11.3580 N   0  0  0  0  0  0  0  0  0  0  0  0
    3.6780    6.4960  -10.2820 C   0  0  0  0  0  0  0  0  0  0  0  0
    3.1790    7.2080  -11.5000 C   0  0  0  0  0  0  0  0  0  0  0  0
    4.3440    7.6280  -12.2180 N   0  0  0  0  0  0  0  0  0  0  0  0
    1.9870    7.3510  -11.7330 O   0  0  0  0  0  0  0  0  0  0  0  0
    4.2670    8.7390  -13.1490 C   0  0  0  0  0  0  0  0  0  0  0  0
    3.4890    9.7540  -12.7050 C   0  0  0  0  0  0  0  0  0  0  0  0
    4.8720    8.8780  -14.3910 C   0  0  0  0  0  0  0  0  0  0  0  0
    3.0700    9.3630  -11.4590 N   0  0  0  0  0  0  0  0  0  0  0  0
    3.2420   10.9370  -13.4250 C   0  0  0  0  0  0  0  0  0  0  0  0
    4.6620   10.0490  -15.1500 C   0  0  0  0  0  0  0  0  0  0  0  0
    3.8440   11.0810  -14.6720 C   0  0  0  0  0  0  0  0  0  0  0  0
    2.0050    9.1930  -10.6490 C   0  0  0  0  0  0  0  0  0  0  0  0
    2.1580    8.3700   -9.5420 C   0  0  0  0  0  0  0  0  0  0  0  0
    0.8130    9.8190  -10.9010 C   0  0  0  0  0  0  0  0  0  0  0  0
    1.1310    8.1730   -8.6640 C   0  0  0  0  0  0  0  0  0  0  0  0
   -0.2380    9.6260  -10.0190 C   0  0  0  0  0  0  0  0  0  0  0  0
   -0.0740    8.8070   -8.9000 C   0  0  0  0  0  0  0  0  0  0  0  0
   -1.0610    8.5820   -7.9580 N   0  0  0  0  0  0  0  0  0  0  0  0
   -1.2660    9.4580   -6.9220 C   0  0  0  0  0  0  0  0  0  0  0  0
   -2.2990    8.9680   -5.9450 C   0  0  0  0  0  0  0  0  0  0  0  0
   -0.6920   10.5300   -6.7630 O   0  0  0  0  0  0  0  0  0  0  0  0
  1  2  1  0
  2  3  2  0
  2  4  1  0
  4  5  1  0
  3  6  1  0
  5  6  1  0
  5  7  2  0
  6  8  1  0
  8  9  1  0
  8 10  2  0
  9 11  1  0
  9 12  2  0
 10 13  1  0
 12 14  1  0
 13 14  2  0
 11 15  1  0
 15 16  2  0
 15 17  1  0
 16 18  1  0
 17 19  2  0
 18 20  2  0
 19 20  1  0
 20 21  1  0
 21 22  1  0
 22 23  1  0
 22 24  2  0
M  END
