x0676_0_B_α-x0950_1_A_α
     RDKit          3D

 23 24  0  0  0  0  0  0  0  0999 V2000
    5.6990    6.5530   -9.2820 C   0  0  0  0  0  0  0  0  0  0  0  0
    4.6450    7.1410  -10.1550 C   0  0  0  0  0  0  0  0  0  0  0  0
    4.8780    7.7320  -11.2890 N   0  0  0  0  0  0  0  0  0  0  0  0
    3.1860    7.1100   -9.8060 C   0  0  0  0  0  0  0  0  0  0  0  0
    2.7370    8.2430  -10.6800 C   0  0  0  0  0  0  0  0  0  0  0  0
    3.6290    8.1800  -11.7520 N   0  0  0  0  0  0  0  0  0  0  0  0
    1.7440    8.9560  -10.2870 N   0  0  0  0  0  0  0  0  0  0  0  0
    3.7820    9.2000  -12.7340 C   0  0  0  0  0  0  0  0  0  0  0  0
    1.0340    8.7560   -9.0250 C   0  0  0  0  0  0  0  0  0  0  0  0
    2.8800   10.2910  -12.7750 C   0  0  0  0  0  0  0  0  0  0  0  0
    4.8110    9.1790  -13.6840 C   0  0  0  0  0  0  0  0  0  0  0  0
    0.1790    9.9940   -8.6880 C   0  0  0  0  0  0  0  0  0  0  0  0
    3.0060   11.3150  -13.7200 C   0  0  0  0  0  0  0  0  0  0  0  0
    4.9420   10.2000  -14.6360 C   0  0  0  0  0  0  0  0  0  0  0  0
    0.6320   10.8640   -7.4940 C   0  0  0  0  0  0  0  0  0  0  0  0
    4.0390   11.2690  -14.6520 C   0  0  0  0  0  0  0  0  0  0  0  0
   -0.2610   10.8310   -6.2400 C   0  0  0  0  0  0  0  0  0  0  0  0
   -0.2020   12.0740   -5.5160 O   0  0  0  0  0  0  0  0  0  0  0  0
    0.9920   12.4380   -4.8040 C   0  0  1  0  0  0  0  0  0  0  0  0
    1.2330   13.9380   -4.8400 C   0  0  0  0  0  0  0  0  0  0  0  0
    0.8300   11.9780   -3.3430 C   0  0  0  0  0  0  0  0  0  0  0  0
    0.2560   10.9540   -3.0070 O   0  0  0  0  0  0  0  0  0  0  0  0
    1.3890   12.8150   -2.4280 O   0  0  0  0  0  0  0  0  0  0  0  0
  1  2  1  0
  2  3  2  0
  2  4  1  0
  4  5  1  0
  3  6  1  0
  5  6  1  0
  5  7  2  3
  6  8  1  0
  7  9  1  0
  8 10  2  0
  8 11  1  0
  9 12  1  0
 10 13  1  0
 11 14  2  0
 12 15  1  0
 13 16  2  0
 14 16  1  0
 15 17  1  0
 17 18  1  0
 18 19  1  0
 19 20  1  1
 19 21  1  0
 21 22  2  0
 21 23  1  0
M  END
