x0676_0_B-x0631_0_A
     RDKit          3D

 23 26  0  0  0  0  0  0  0  0999 V2000
    5.8920    6.3970   -9.2380 C   0  0  0  0  0  0  0  0  0  0  0  0
    4.9030    6.9470  -10.1960 C   0  0  0  0  0  0  0  0  0  0  0  0
    5.2230    7.7400  -11.1820 N   0  0  0  0  0  0  0  0  0  0  0  0
    3.4190    6.6390  -10.1060 C   0  0  0  0  0  0  0  0  0  0  0  0
    3.0030    7.8700  -10.8150 C   0  0  0  0  0  0  0  0  0  0  0  0
    4.0070    8.0630  -11.7290 N   0  0  0  0  0  0  0  0  0  0  0  0
    1.9610    8.5320  -10.5420 N   0  0  0  0  0  0  0  0  0  0  0  0
    3.8570    9.0680  -12.7170 C   0  0  0  0  0  0  0  0  0  0  0  0
    1.9160    9.7660  -11.3220 C   0  0  1  0  0  0  0  0  0  0  0  0
    2.7880    9.9820  -12.5570 C   0  0  0  0  0  0  0  0  0  0  0  0
    4.7060    9.1890  -13.8110 C   0  0  0  0  0  0  0  0  0  0  0  0
    0.7620   10.5420  -10.9420 N   0  0  0  0  0  0  0  0  0  0  0  0
    2.5980   11.0110  -13.4990 C   0  0  0  0  0  0  0  0  0  0  0  0
    4.5060   10.2070  -14.7420 C   0  0  0  0  0  0  0  0  0  0  0  0
    3.4620   11.1170  -14.5880 C   0  0  0  0  0  0  0  0  0  0  0  0
    0.7880   10.5840   -9.4990 C   0  0  1  0  0  0  0  0  0  0  0  0
    0.0260   11.5510   -8.7770 N   0  0  0  0  0  0  0  0  0  0  0  0
    0.5190    9.3220   -8.8630 N   0  0  0  0  0  0  0  0  0  0  0  0
    0.5100    9.6760   -7.4820 N   0  0  0  0  0  0  0  0  0  0  0  0
   -0.0070   11.0160   -7.4290 N   0  0  0  0  0  0  0  0  0  0  0  0
   -0.2720    8.7420   -6.6370 C   0  0  0  0  0  0  0  0  0  0  0  0
   -1.5210    8.1720   -7.3170 C   0  0  0  0  0  0  0  0  0  0  0  0
   -2.6040    9.1920   -7.6190 C   0  0  0  0  0  0  0  0  0  0  0  0
  1  2  1  0
  2  3  2  0
  2  4  1  0
  4  5  1  0
  3  6  1  0
  5  6  1  0
  5  7  2  0
  6  8  1  0
  7  9  1  0
  8 10  2  0
  9 10  1  0
  8 11  1  0
  9 12  1  6
 10 13  1  0
 11 14  2  0
 13 15  2  0
 14 15  1  0
 16 12  1  6
 16 17  1  0
 16 18  1  0
 18 19  1  0
 17 20  1  0
 19 20  1  0
 19 21  1  0
 21 22  1  0
 22 23  1  0
M  END
