x0676_0_B-x0524_0_A
     RDKit          3D

 24 26  0  0  0  0  0  0  0  0999 V2000
    5.9680    6.7390   -9.1000 C   0  0  0  0  0  0  0  0  0  0  0  0
    5.0880    6.9840  -10.2660 C   0  0  0  0  0  0  0  0  0  0  0  0
    5.4520    7.5990  -11.3560 N   0  0  0  0  0  0  0  0  0  0  0  0
    3.6900    6.5200  -10.2690 C   0  0  0  0  0  0  0  0  0  0  0  0
    3.1880    7.2190  -11.4900 C   0  0  0  0  0  0  0  0  0  0  0  0
    4.3520    7.6400  -12.2120 N   0  0  0  0  0  0  0  0  0  0  0  0
    1.9940    7.3570  -11.7240 O   0  0  0  0  0  0  0  0  0  0  0  0
    4.2730    8.7430  -13.1440 C   0  0  0  0  0  0  0  0  0  0  0  0
    3.4880    9.7550  -12.7050 C   0  0  0  0  0  0  0  0  0  0  0  0
    4.8810    8.8830  -14.3850 C   0  0  0  0  0  0  0  0  0  0  0  0
    3.0680    9.3650  -11.4620 N   0  0  0  0  0  0  0  0  0  0  0  0
    3.2380   10.9350  -13.4280 C   0  0  0  0  0  0  0  0  0  0  0  0
    4.6680   10.0490  -15.1470 C   0  0  0  0  0  0  0  0  0  0  0  0
    3.8430   11.0790  -14.6730 C   0  0  0  0  0  0  0  0  0  0  0  0
    2.0000    9.1960  -10.6570 C   0  0  0  0  0  0  0  0  0  0  0  0
    2.1500    8.3680   -9.5550 C   0  0  0  0  0  0  0  0  0  0  0  0
    0.8100    9.8280  -10.9060 C   0  0  0  0  0  0  0  0  0  0  0  0
    1.1230    8.1700   -8.6790 C   0  0  0  0  0  0  0  0  0  0  0  0
   -0.2400    9.6350  -10.0260 C   0  0  0  0  0  0  0  0  0  0  0  0
   -0.0780    8.8110   -8.9120 C   0  0  0  0  0  0  0  0  0  0  0  0
   -1.0690    8.5890   -7.9720 N   0  0  0  0  0  0  0  0  0  0  0  0
   -1.2710    9.4630   -6.9330 C   0  0  0  0  0  0  0  0  0  0  0  0
   -2.3380    9.0000   -5.9830 C   0  0  0  0  0  0  0  0  0  0  0  0
   -0.6730   10.5190   -6.7540 O   0  0  0  0  0  0  0  0  0  0  0  0
  1  2  1  0
  2  3  2  0
  2  4  1  0
  4  5  1  0
  3  6  1  0
  5  6  1  0
  5  7  2  0
  6  8  1  0
  8  9  1  0
  8 10  2  0
  9 11  1  0
  9 12  2  0
 10 13  1  0
 12 14  1  0
 13 14  2  0
 11 15  1  0
 15 16  2  0
 15 17  1  0
 16 18  1  0
 17 19  2  0
 18 20  2  0
 19 20  1  0
 20 21  1  0
 21 22  1  0
 22 23  1  0
 22 24  2  0
M  END
