x0676_0_B_α-x0950_0_A_α
     RDKit          3D

 23 24  0  0  0  0  0  0  0  0999 V2000
    5.6410    6.6430   -9.1590 C   0  0  0  0  0  0  0  0  0  0  0  0
    4.5930    7.2140  -10.0510 C   0  0  0  0  0  0  0  0  0  0  0  0
    4.8300    7.6940  -11.2360 N   0  0  0  0  0  0  0  0  0  0  0  0
    3.1440    7.2860   -9.6500 C   0  0  0  0  0  0  0  0  0  0  0  0
    2.6360    8.2280  -10.7130 C   0  0  0  0  0  0  0  0  0  0  0  0
    3.6010    8.1610  -11.7250 N   0  0  0  0  0  0  0  0  0  0  0  0
    1.5280    8.8590  -10.5060 N   0  0  0  0  0  0  0  0  0  0  0  0
    3.7750    9.1760  -12.7130 C   0  0  0  0  0  0  0  0  0  0  0  0
    0.7250    8.7520   -9.2790 C   0  0  0  0  0  0  0  0  0  0  0  0
    2.8850   10.2680  -12.7650 C   0  0  0  0  0  0  0  0  0  0  0  0
    4.8130    9.1480  -13.6560 C   0  0  0  0  0  0  0  0  0  0  0  0
    1.1550    9.9070   -8.3590 C   0  0  0  0  0  0  0  0  0  0  0  0
    3.0260   11.2880  -13.7130 C   0  0  0  0  0  0  0  0  0  0  0  0
    4.9550   10.1650  -14.6080 C   0  0  0  0  0  0  0  0  0  0  0  0
    0.1160   10.6390   -7.4920 C   0  0  0  0  0  0  0  0  0  0  0  0
    4.0640   11.2340  -14.6380 C   0  0  0  0  0  0  0  0  0  0  0  0
    0.6990   11.8380   -6.7160 C   0  0  0  0  0  0  0  0  0  0  0  0
    0.6790   11.5720   -5.3110 O   0  0  0  0  0  0  0  0  0  0  0  0
    1.0710   12.6600   -4.4440 C   0  0  2  0  0  0  0  0  0  0  0  0
    2.5490   12.9870   -4.6090 C   0  0  0  0  0  0  0  0  0  0  0  0
    0.8250   12.1310   -3.0350 C   0  0  0  0  0  0  0  0  0  0  0  0
    0.3320   11.0410   -2.8030 O   0  0  0  0  0  0  0  0  0  0  0  0
    1.2160   12.9970   -2.0680 O   0  0  0  0  0  0  0  0  0  0  0  0
  1  2  1  0
  2  3  2  0
  2  4  1  0
  4  5  1  0
  3  6  1  0
  5  6  1  0
  5  7  2  3
  6  8  1  0
  7  9  1  0
  8 10  2  0
  8 11  1  0
  9 12  1  0
 10 13  1  0
 11 14  2  0
 12 15  1  0
 13 16  2  0
 14 16  1  0
 15 17  1  0
 17 18  1  0
 18 19  1  0
 19 20  1  1
 19 21  1  0
 21 22  2  0
 21 23  1  0
M  END
