x0676_0_B_α-x0864_0_A_α
     RDKit          3D

 28 30  0  0  0  0  0  0  0  0999 V2000
    5.7650    6.5540   -9.2170 C   0  0  0  0  0  0  0  0  0  0  0  0
    4.7190    7.1290  -10.1020 C   0  0  0  0  0  0  0  0  0  0  0  0
    4.9820    7.7300  -11.2160 N   0  0  0  0  0  0  0  0  0  0  0  0
    3.2580    7.0570   -9.7710 C   0  0  0  0  0  0  0  0  0  0  0  0
    2.6660    7.7660  -10.9620 C   0  0  0  0  0  0  0  0  0  0  0  0
    3.7620    8.1650  -11.7270 N   0  0  0  0  0  0  0  0  0  0  0  0
    1.4020    7.9170  -11.1500 N   0  0  0  0  0  0  0  0  0  0  0  0
    3.8290    9.2030  -12.7030 C   0  0  0  0  0  0  0  0  0  0  0  0
    0.4480    7.3480  -10.1950 C   0  0  0  0  0  0  0  0  0  0  0  0
    2.8930   10.2590  -12.7290 C   0  0  0  0  0  0  0  0  0  0  0  0
    4.8310    9.2300  -13.6800 C   0  0  0  0  0  0  0  0  0  0  0  0
    0.3940    8.1690   -8.9120 C   0  0  0  0  0  0  0  0  0  0  0  0
    2.9620   11.2860  -13.6800 C   0  0  0  0  0  0  0  0  0  0  0  0
    4.9050   10.2510  -14.6360 C   0  0  0  0  0  0  0  0  0  0  0  0
   -0.5910    7.5640   -7.9000 C   0  0  0  0  0  0  0  0  0  0  0  0
    3.9700   11.2810  -14.6360 C   0  0  0  0  0  0  0  0  0  0  0  0
   -1.5470    8.5390   -7.4530 O   0  0  0  0  0  0  0  0  0  0  0  0
   -1.0420    9.7060   -6.9330 C   0  0  0  0  0  0  0  0  0  0  0  0
   -1.9760   10.4650   -6.1280 C   0  0  0  0  0  0  0  0  0  0  0  0
    0.1980   10.1840   -7.1090 C   0  0  0  0  0  0  0  0  0  0  0  0
   -1.5600   11.5590   -5.4760 C   0  0  0  0  0  0  0  0  0  0  0  0
    0.6190   11.4500   -6.4800 C   0  0  0  0  0  0  0  0  0  0  0  0
    1.6830   11.9640   -6.7830 O   0  0  0  0  0  0  0  0  0  0  0  0
   -0.2420   11.9690   -5.5340 N   0  0  0  0  0  0  0  0  0  0  0  0
    0.3040   12.9250   -4.5600 C   0  0  0  0  0  0  0  0  0  0  0  0
    0.6130   12.3370   -3.1840 C   0  0  0  0  0  0  0  0  0  0  0  0
    0.5640   10.9920   -3.0950 O   0  0  0  0  0  0  0  0  0  0  0  0
    0.8910   13.0320   -2.2170 O   0  0  0  0  0  0  0  0  0  0  0  0
  1  2  1  0
  2  3  2  0
  2  4  1  0
  4  5  1  0
  3  6  1  0
  5  6  1  0
  5  7  2  3
  6  8  1  0
  7  9  1  0
  8 10  2  0
  8 11  1  0
  9 12  1  0
 10 13  1  0
 11 14  2  0
 12 15  1  0
 13 16  2  0
 14 16  1  0
 15 17  1  0
 17 18  1  0
 18 19  1  0
 18 20  2  0
 19 21  2  0
 20 22  1  0
 22 23  2  0
 21 24  1  0
 22 24  1  0
 24 25  1  0
 25 26  1  0
 26 27  1  0
 26 28  2  0
M  END
