x0676_0_B-x0465_0_A
     RDKit          3D

 28 30  0  0  0  0  0  0  0  0999 V2000
    5.8180    6.6560   -9.1670 C   0  0  0  0  0  0  0  0  0  0  0  0
    4.7630    7.1970  -10.0660 C   0  0  0  0  0  0  0  0  0  0  0  0
    4.9930    7.7150  -11.2380 N   0  0  0  0  0  0  0  0  0  0  0  0
    3.3170    7.1870   -9.6830 C   0  0  0  0  0  0  0  0  0  0  0  0
    2.7540    8.0710  -10.7650 C   0  0  0  0  0  0  0  0  0  0  0  0
    3.7510    8.1420  -11.7290 N   0  0  0  0  0  0  0  0  0  0  0  0
    1.5770    8.5460  -10.6040 N   0  0  0  0  0  0  0  0  0  0  0  0
    3.8440    9.1910  -12.6970 C   0  0  0  0  0  0  0  0  0  0  0  0
    0.8300    8.2290   -9.3910 C   0  0  0  0  0  0  0  0  0  0  0  0
    2.9390   10.2700  -12.7350 C   0  0  0  0  0  0  0  0  0  0  0  0
    4.8670    9.1740  -13.6540 C   0  0  0  0  0  0  0  0  0  0  0  0
    0.6440    9.5150   -8.5810 C   0  0  0  0  0  0  0  0  0  0  0  0
    3.0550   11.2880  -13.6890 C   0  0  0  0  0  0  0  0  0  0  0  0
    4.9850   10.1870  -14.6100 C   0  0  0  0  0  0  0  0  0  0  0  0
    0.5000    9.2250   -7.1950 O   0  0  0  0  0  0  0  0  0  0  0  0
    4.0790   11.2460  -14.6270 C   0  0  0  0  0  0  0  0  0  0  0  0
   -0.6220    9.6320   -6.5360 C   0  0  0  0  0  0  0  0  0  0  0  0
   -0.4930   10.7530   -5.6960 C   0  0  0  0  0  0  0  0  0  0  0  0
   -1.8610    9.0030   -6.6450 C   0  0  0  0  0  0  0  0  0  0  0  0
    0.6910   11.4340   -5.5290 O   0  0  0  0  0  0  0  0  0  0  0  0
   -2.9630    9.4820   -5.9360 C   0  0  0  0  0  0  0  0  0  0  0  0
   -1.5990   11.2300   -4.9870 C   0  0  0  0  0  0  0  0  0  0  0  0
    0.7290   12.5610   -4.6510 C   0  0  2  0  0  0  0  0  0  0  0  0
   -2.8350   10.5930   -5.1060 C   0  0  0  0  0  0  0  0  0  0  0  0
    2.0570   13.2510   -4.9320 C   0  0  0  0  0  0  0  0  0  0  0  0
    0.7240   12.1550   -3.1790 C   0  0  0  0  0  0  0  0  0  0  0  0
    1.0730   12.8190   -2.2160 O   0  0  0  0  0  0  0  0  0  0  0  0
    0.2700   10.8970   -2.9860 O   0  0  0  0  0  0  0  0  0  0  0  0
  1  2  1  0
  2  3  2  0
  2  4  1  0
  4  5  1  0
  3  6  1  0
  5  6  1  0
  5  7  2  3
  6  8  1  0
  7  9  1  0
  8 10  2  0
  8 11  1  0
  9 12  1  0
 10 13  1  0
 11 14  2  0
 12 15  1  0
 13 16  2  0
 14 16  1  0
 15 17  1  0
 17 18  2  0
 17 19  1  0
 18 20  1  0
 19 21  2  0
 18 22  1  0
 20 23  1  0
 21 24  1  0
 22 24  2  0
 23 25  1  6
 23 26  1  0
 26 27  2  0
 26 28  1  0
M  END
