x0676_0_B_α-x0524_0_A_α
     RDKit          3D

 24 26  0  0  0  0  0  0  0  0999 V2000
    5.9120    6.5710   -9.0370 C   0  0  0  0  0  0  0  0  0  0  0  0
    4.9680    6.9850  -10.1010 C   0  0  0  0  0  0  0  0  0  0  0  0
    5.3190    7.6380  -11.1560 N   0  0  0  0  0  0  0  0  0  0  0  0
    3.5220    6.6790  -10.0260 C   0  0  0  0  0  0  0  0  0  0  0  0
    3.0140    7.4120  -11.2430 C   0  0  0  0  0  0  0  0  0  0  0  0
    4.1780    7.8870  -11.9030 N   0  0  0  0  0  0  0  0  0  0  0  0
    1.8270    7.5140  -11.5170 O   0  0  0  0  0  0  0  0  0  0  0  0
    4.2620    8.9350  -12.8940 C   0  0  0  0  0  0  0  0  0  0  0  0
    3.3580   10.0110  -12.9750 C   0  0  0  0  0  0  0  0  0  0  0  0
    5.2830    8.9350  -13.8510 C   0  0  0  0  0  0  0  0  0  0  0  0
    2.3060   10.1610  -12.1150 N   0  0  0  0  0  0  0  0  0  0  0  0
    3.4730   11.0160  -13.9480 C   0  0  0  0  0  0  0  0  0  0  0  0
    5.3940    9.9430  -14.8250 C   0  0  0  0  0  0  0  0  0  0  0  0
    4.4870   10.9870  -14.8740 C   0  0  0  0  0  0  0  0  0  0  0  0
    1.7960    9.5860  -10.9690 C   0  0  0  0  0  0  0  0  0  0  0  0
    2.3620    8.6840  -10.0670 C   0  0  0  0  0  0  0  0  0  0  0  0
    0.5230   10.0310  -10.7510 C   0  0  0  0  0  0  0  0  0  0  0  0
    1.6250    8.2600   -8.9510 C   0  0  0  0  0  0  0  0  0  0  0  0
   -0.2030    9.6220   -9.6670 C   0  0  0  0  0  0  0  0  0  0  0  0
    0.3380    8.7430   -8.7570 C   0  0  0  0  0  0  0  0  0  0  0  0
   -0.3880    8.3450   -7.6410 N   0  0  0  0  0  0  0  0  0  0  0  0
   -0.9740    9.2840   -6.8200 C   0  0  0  0  0  0  0  0  0  0  0  0
   -2.1500    8.7540   -6.0420 C   0  0  0  0  0  0  0  0  0  0  0  0
   -0.6210   10.4530   -6.7030 O   0  0  0  0  0  0  0  0  0  0  0  0
  1  2  1  0
  2  3  2  0
  2  4  1  0
  4  5  1  0
  3  6  1  0
  5  6  1  0
  5  7  2  0
  6  8  1  0
  8  9  1  0
  8 10  2  0
  9 11  1  0
  9 12  2  0
 10 13  1  0
 12 14  1  0
 13 14  2  0
 11 15  1  0
 15 16  2  0
 15 17  1  0
 16 18  1  0
 17 19  2  0
 18 20  2  0
 19 20  1  0
 20 21  1  0
 21 22  1  0
 22 23  1  0
 22 24  2  0
M  END
