x0676_0_B_α-x0173_0_B_α
     RDKit          3D

 26 28  0  0  0  0  0  0  0  0999 V2000
    5.7770    6.6130   -9.2500 C   0  0  0  0  0  0  0  0  0  0  0  0
    4.7610    7.1980  -10.1680 C   0  0  0  0  0  0  0  0  0  0  0  0
    5.0410    7.7560  -11.3020 N   0  0  0  0  0  0  0  0  0  0  0  0
    3.3060    7.1890   -9.8500 C   0  0  0  0  0  0  0  0  0  0  0  0
    2.7730    8.0570  -10.9440 C   0  0  0  0  0  0  0  0  0  0  0  0
    3.8430    8.2150  -11.8460 N   0  0  0  0  0  0  0  0  0  0  0  0
    1.6330    8.4930  -10.9620 O   0  0  0  0  0  0  0  0  0  0  0  0
    3.9470    9.2520  -12.8320 C   0  0  0  0  0  0  0  0  0  0  0  0
    3.0180   10.3060  -12.8320 C   0  0  0  0  0  0  0  0  0  0  0  0
    4.9530    9.2770  -13.8250 C   0  0  0  0  0  0  0  0  0  0  0  0
    3.0840   11.3400  -13.7720 C   0  0  0  0  0  0  0  0  0  0  0  0
    5.0340   10.3180  -14.7910 C   0  0  0  0  0  0  0  0  0  0  0  0
    6.1250   10.3290  -15.8600 C   0  0  0  0  0  0  0  0  0  0  0  0
    4.0820   11.3450  -14.7430 C   0  0  0  0  0  0  0  0  0  0  0  0
    6.5400   11.6860  -16.5040 C   0  0  0  0  0  0  0  0  0  0  0  0
    8.0650   11.8770  -16.7490 C   0  0  0  0  0  0  0  0  0  0  0  0
    8.7810   13.1580  -16.2350 C   0  0  0  0  0  0  0  0  0  0  0  0
    9.8890   13.7460  -17.1400 C   0  0  0  0  0  0  0  0  0  0  0  0
   11.0330   14.3830  -16.4320 N   0  0  0  0  0  0  0  0  0  0  0  0
   12.2540   13.5550  -16.4970 C   0  0  0  0  0  0  0  0  0  0  0  0
   11.3320   15.6910  -17.0540 C   0  0  0  0  0  0  0  0  0  0  0  0
   13.4800   14.2020  -15.8200 C   0  0  0  0  0  0  0  0  0  0  0  0
   12.5290   16.4300  -16.4220 C   0  0  0  0  0  0  0  0  0  0  0  0
   13.7030   15.5970  -16.1830 N   0  0  0  0  0  0  0  0  0  0  0  0
   14.9020   16.2120  -15.8840 C   0  0  0  0  0  0  0  0  0  0  0  0
   15.9640   15.6460  -15.6460 O   0  0  0  0  0  0  0  0  0  0  0  0
  1  2  1  0
  2  3  2  0
  2  4  1  0
  4  5  1  0
  3  6  1  0
  5  6  1  0
  5  7  2  0
  6  8  1  0
  8  9  2  0
  8 10  1  0
  9 11  1  0
 10 12  2  0
 12 13  1  0
 11 14  2  0
 12 14  1  0
 13 15  1  0
 15 16  1  0
 16 17  1  0
 17 18  1  0
 18 19  1  0
 19 20  1  0
 19 21  1  0
 20 22  1  0
 21 23  1  0
 22 24  1  0
 23 24  1  0
 24 25  1  0
 25 26  2  0
M  END
