x0685_1_A_α-x0421_0_A_α
     RDKit          3D

 25 27  0  0  0  0  0  0  0  0999 V2000
   -1.2690   10.6040   -4.8130 N   0  0  0  0  0  0  0  0  0  0  0  0
   -1.5450   12.0070   -4.4670 C   0  0  0  0  0  0  0  0  0  0  0  0
   -0.3070   12.7880   -4.0170 C   0  0  0  0  0  0  0  0  0  0  0  0
   -0.7240   10.4070   -6.1710 C   0  0  0  0  0  0  0  0  0  0  0  0
   -0.5930    8.8950   -6.4220 C   0  0  0  0  0  0  0  0  0  0  0  0
   -1.5880   11.0090   -7.2960 C   0  0  0  0  0  0  0  0  0  0  0  0
    0.5640   12.0970   -2.6070 S   0  0  0  0  0  0  0  0  0  0  0  0
    0.0560    8.6090   -7.7730 C   0  0  0  0  0  0  0  0  0  0  0  0
   -1.0260   10.7160   -8.6930 C   0  0  0  0  0  0  0  0  0  0  0  0
    2.1220   12.2870   -2.9610 O   0  0  0  0  0  0  0  0  0  0  0  0
    0.2260   10.5200   -2.5390 O   0  0  0  0  0  0  0  0  0  0  0  0
    0.1630   12.8470   -1.2210 O   0  0  0  0  0  0  0  0  0  0  0  0
   -0.7630    9.2230   -8.9070 C   0  0  0  0  0  0  0  0  0  0  0  0
   -0.9880   13.6880   -0.9880 C   0  0  0  0  0  0  0  0  0  0  0  0
   -1.6760   14.2670   -2.1360 N   0  0  0  0  0  0  0  0  0  0  0  0
   -2.8440   14.8120   -2.0050 C   0  0  0  0  0  0  0  0  0  0  0  0
   -3.6330   15.3860   -2.9600 N   0  0  0  0  0  0  0  0  0  0  0  0
   -3.4490   14.8260   -0.6600 C   0  0  0  0  0  0  0  0  0  0  0  0
   -2.8200   14.9520    0.5680 C   0  0  0  0  0  0  0  0  0  0  0  0
   -4.8210   14.7070   -0.4630 N   0  0  0  0  0  0  0  0  0  0  0  0
   -3.8200   14.9000    1.4900 N   0  0  0  0  0  0  0  0  0  0  0  0
   -5.0000   14.7510    0.8380 C   0  0  0  0  0  0  0  0  0  0  0  0
   -6.3630   14.6460    1.5750 C   0  0  0  0  0  0  0  0  0  0  0  0
   -7.6480   14.6300    0.7860 C   0  0  0  0  0  0  0  0  0  0  0  0
   -7.1560   13.3740    1.4490 C   0  0  0  0  0  0  0  0  0  0  0  0
  1  2  1  0
  2  3  1  0
  1  4  1  0
  4  5  1  0
  4  6  1  0
  3  7  1  0
  5  8  1  0
  6  9  1  0
  7 10  1  0
  7 11  1  0
  7 12  1  0
  8 13  1  0
  9 13  1  0
 12 14  1  0
 14 15  1  0
 15 16  2  3
 16 17  1  0
 16 18  1  0
 18 19  2  0
 18 20  1  0
 19 21  1  0
 20 22  2  0
 21 22  1  0
 22 23  1  0
 23 24  1  0
 23 25  1  0
 24 25  1  0
M  END
