x0685_1_A-x0128_0_A
     RDKit          3D

 32 34  0  0  0  0  0  0  0  0999 V2000
   -1.0930   10.5570   -4.8880 N   0  0  0  0  0  0  0  0  0  0  0  0
   -1.4640   11.9380   -4.5520 C   0  0  0  0  0  0  0  0  0  0  0  0
   -0.2690   12.7450   -4.0420 C   0  0  0  0  0  0  0  0  0  0  0  0
   -1.2520   10.0940   -6.2820 C   0  0  0  0  0  0  0  0  0  0  0  0
   -0.1270    9.1590   -6.7400 C   0  0  0  0  0  0  0  0  0  0  0  0
   -1.5490   11.1960   -7.3190 C   0  0  0  0  0  0  0  0  0  0  0  0
    0.5660   12.0590   -2.6020 S   0  0  0  0  0  0  0  0  0  0  0  0
   -0.5000    8.4110   -8.0020 C   0  0  0  0  0  0  0  0  0  0  0  0
   -1.0950   10.8130   -8.7270 C   0  0  0  0  0  0  0  0  0  0  0  0
    2.1250   12.3240   -2.8790 O   0  0  0  0  0  0  0  0  0  0  0  0
    0.2870   10.4710   -2.5770 O   0  0  0  0  0  0  0  0  0  0  0  0
    0.0570   12.6970   -1.2110 O   0  0  0  0  0  0  0  0  0  0  0  0
   -1.2230    9.3090   -9.0080 C   0  0  0  0  0  0  0  0  0  0  0  0
   -0.2700   14.0820   -1.0650 C   0  0  0  0  0  0  0  0  0  0  0  0
   -1.7790   14.3230   -1.1790 C   0  0  0  0  0  0  0  0  0  0  0  0
   -2.4860   14.6450    0.1470 C   0  0  0  0  0  0  0  0  0  0  0  0
   -3.9920   14.7590    0.0440 C   0  0  0  0  0  0  0  0  0  0  0  0
   -4.6620   15.0210   -1.1640 C   0  0  0  0  0  0  0  0  0  0  0  0
   -4.7570   14.5890    1.2030 C   0  0  0  0  0  0  0  0  0  0  0  0
   -6.0560   15.0990   -1.1970 C   0  0  0  0  0  0  0  0  0  0  0  0
   -6.1540   14.6640    1.1820 C   0  0  0  0  0  0  0  0  0  0  0  0
   -6.8150   14.4720    2.4180 N   0  0  0  0  0  0  0  0  0  0  0  0
   -6.8010   14.9170   -0.0270 C   0  0  0  0  0  0  0  0  0  0  0  0
   -7.8890   15.1740    2.9360 C   0  0  0  0  0  0  0  0  0  0  0  0
   -8.8300   15.6300    2.3010 O   0  0  0  0  0  0  0  0  0  0  0  0
   -7.7240   15.2840    4.3070 N   0  0  0  0  0  0  0  0  0  0  0  0
   -8.4890   16.0760    5.2000 C   0  0  0  0  0  0  0  0  0  0  0  0
   -9.1170   17.2760    4.8750 C   0  0  0  0  0  0  0  0  0  0  0  0
   -8.6370   15.6320    6.5180 C   0  0  0  0  0  0  0  0  0  0  0  0
   -9.8480   18.0240    5.7390 N   0  0  0  0  0  0  0  0  0  0  0  0
   -9.3870   16.3830    7.4280 C   0  0  0  0  0  0  0  0  0  0  0  0
   -9.9680   17.5600    6.9940 C   0  0  0  0  0  0  0  0  0  0  0  0
  1  2  1  0
  2  3  1  0
  1  4  1  0
  4  5  1  0
  4  6  1  0
  3  7  1  0
  5  8  1  0
  6  9  1  0
  7 10  1  0
  7 11  1  0
  7 12  1  0
  8 13  1  0
  9 13  1  0
 12 14  1  0
 14 15  1  0
 15 16  1  0
 16 17  1  0
 17 18  2  0
 17 19  1  0
 18 20  1  0
 19 21  2  0
 21 22  1  0
 20 23  2  0
 21 23  1  0
 22 24  1  0
 24 25  2  0
 24 26  1  0
 26 27  1  0
 27 28  2  0
 27 29  1  0
 28 30  1  0
 29 31  2  0
 30 32  2  0
 31 32  1  0
M  END
