x0685_1_A-x0855_0_A
     RDKit          3D

 19 20  0  0  0  0  0  0  0  0999 V2000
    0.2610   11.1660   -5.8700 N   0  0  0  0  0  0  0  0  0  0  0  0
    0.5150   12.5100   -5.2900 C   0  0  0  0  0  0  0  0  0  0  0  0
   -0.3530   12.5370   -4.0680 C   0  0  2  0  0  0  0  0  0  0  0  0
    0.0540   11.1270   -7.3150 C   0  0  0  0  0  0  0  0  0  0  0  0
    0.7410    9.9070   -7.9650 C   0  0  0  0  0  0  0  0  0  0  0  0
   -1.4410   11.1520   -7.6890 C   0  0  0  0  0  0  0  0  0  0  0  0
    0.5700   11.9850   -2.5920 S   0  0  0  0  0  0  0  0  0  0  0  0
   -0.1290    8.6740   -7.9950 C   0  0  0  0  0  0  0  0  0  0  0  0
   -1.6660   10.4400   -9.0140 C   0  0  0  0  0  0  0  0  0  0  0  0
   -1.3400   11.6180   -4.5680 N   0  0  0  0  0  0  0  0  0  0  0  0
    2.1080   12.3490   -2.8660 O   0  0  0  0  0  0  0  0  0  0  0  0
    0.4000   10.3930   -2.4430 O   0  0  0  0  0  0  0  0  0  0  0  0
    0.0540   12.7250   -1.2660 O   0  0  0  0  0  0  0  0  0  0  0  0
   -1.3000    8.9490   -8.9380 C   0  0  0  0  0  0  0  0  0  0  0  0
   -1.0590   10.3880   -5.1160 C   0  0  0  0  0  0  0  0  0  0  0  0
   -2.6570   11.9190   -4.5590 N   0  0  0  0  0  0  0  0  0  0  0  0
   -2.2600    9.8780   -5.4920 C   0  0  0  0  0  0  0  0  0  0  0  0
   -3.2080   10.8410   -5.1310 C   0  0  0  0  0  0  0  0  0  0  0  0
   -2.6240    8.2490   -6.3240 Br  0  0  0  0  0  0  0  0  0  0  0  0
  1  2  1  0
  3  2  1  6
  1  4  1  0
  4  5  1  0
  4  6  1  0
  3  7  1  0
  5  8  1  0
  6  9  1  0
  3 10  1  0
  7 11  1  0
  7 12  1  0
  7 13  1  0
  8 14  1  0
  9 14  1  0
 10 15  1  0
 10 16  1  0
 15 17  2  0
 16 18  2  0
 17 18  1  0
 17 19  1  0
M  END
