x0681_0_A-x0465_0_A
     RDKit          3D

 27 29  0  0  0  0  0  0  0  0999 V2000
   -4.2220   15.2660   -2.6230 N   0  0  0  0  0  0  0  0  0  0  0  0
   -3.2310   14.8650   -1.7560 C   0  0  0  0  0  0  0  0  0  0  0  0
   -2.0180   14.8930   -2.2160 N   0  0  0  0  0  0  0  0  0  0  0  0
   -3.6000   14.4220   -0.3380 C   0  0  2  0  0  0  0  0  0  0  0  0
   -0.8940   14.5130   -1.3390 C   0  0  0  0  0  0  0  0  0  0  0  0
   -4.6890   13.3930   -0.3600 C   0  0  0  0  0  0  0  0  0  0  0  0
   -4.0300   15.6120    0.5250 C   0  0  0  0  0  0  0  0  0  0  0  0
    0.3500   14.0720   -2.1280 C   0  0  0  0  0  0  0  0  0  0  0  0
   -5.6250   13.3220    0.6370 N   0  0  0  0  0  0  0  0  0  0  0  0
   -4.4440   15.0980    1.8790 C   0  0  0  0  0  0  0  0  0  0  0  0
   -4.9120   12.4620   -1.2650 N   0  0  0  0  0  0  0  0  0  0  0  0
    0.4500   12.6210   -2.0490 N   0  0  0  0  0  0  0  0  0  0  0  0
   -5.6720   14.1980    1.7850 C   0  0  0  0  0  0  0  0  0  0  0  0
   -6.4780   12.3010    0.3570 C   0  0  0  0  0  0  0  0  0  0  0  0
   -6.0210   11.7810   -0.8280 C   0  0  0  0  0  0  0  0  0  0  0  0
    0.5680   11.8980   -3.0930 C   0  0  0  0  0  0  0  0  0  0  0  0
    0.6730   12.4490   -4.5330 C   0  0  1  0  0  0  0  0  0  0  0  0
    0.5910   10.5580   -2.9530 O   0  0  0  0  0  0  0  0  0  0  0  0
    2.0450   13.1050   -4.7120 C   0  0  0  0  0  0  0  0  0  0  0  0
    0.5900   11.4880   -5.5840 O   0  0  0  0  0  0  0  0  0  0  0  0
   -0.5930   10.8140   -5.6980 C   0  0  0  0  0  0  0  0  0  0  0  0
   -0.6570    9.7510   -6.6020 C   0  0  0  0  0  0  0  0  0  0  0  0
   -1.7240   11.1390   -4.9560 C   0  0  0  0  0  0  0  0  0  0  0  0
    0.4080    9.4080   -7.3390 F   0  0  0  0  0  0  0  0  0  0  0  0
   -1.8300    9.0190   -6.7670 C   0  0  0  0  0  0  0  0  0  0  0  0
   -2.9060   10.4080   -5.1170 C   0  0  0  0  0  0  0  0  0  0  0  0
   -2.9590    9.3500   -6.0210 C   0  0  0  0  0  0  0  0  0  0  0  0
  1  2  1  0
  2  3  2  3
  4  2  1  6
  3  5  1  0
  4  6  1  0
  4  7  1  0
  5  8  1  0
  6  9  1  0
  7 10  1  0
  6 11  2  0
  8 12  1  0
  9 13  1  0
 10 13  1  0
  9 14  1  0
 11 15  1  0
 14 15  2  0
 12 16  2  3
 16 17  1  0
 16 18  1  0
 17 19  1  1
 17 20  1  0
 20 21  1  0
 21 22  2  0
 21 23  1  0
 22 24  1  0
 22 25  1  0
 23 26  2  0
 25 27  2  0
 26 27  1  0
M  END
