x0685_1_A_α-x0837_0_A_α
     RDKit          3D

 23 24  0  0  0  0  0  0  0  0999 V2000
   -1.5250   10.5990   -4.8500 N   0  0  0  0  0  0  0  0  0  0  0  0
   -1.5780   11.9680   -4.2350 C   0  0  1  0  0  0  0  0  0  0  0  0
   -0.1990   12.5430   -4.1500 C   0  0  0  0  0  0  0  0  0  0  0  0
   -0.8360   10.4800   -6.1310 C   0  0  0  0  0  0  0  0  0  0  0  0
   -2.4970   12.8480   -5.0810 C   0  0  0  0  0  0  0  0  0  0  0  0
   -0.6460    8.9980   -6.3880 C   0  0  0  0  0  0  0  0  0  0  0  0
   -1.5810   11.0730   -7.2750 C   0  0  0  0  0  0  0  0  0  0  0  0
    0.7370   11.9380   -2.7260 S   0  0  0  0  0  0  0  0  0  0  0  0
   -3.6720   13.3420   -4.2880 C   0  0  0  0  0  0  0  0  0  0  0  0
    0.0550    8.7400   -7.7030 C   0  0  0  0  0  0  0  0  0  0  0  0
   -0.9460   10.7660   -8.6300 C   0  0  0  0  0  0  0  0  0  0  0  0
    2.2190   12.3060   -2.9290 O   0  0  0  0  0  0  0  0  0  0  0  0
    0.3770   10.3820   -2.5700 O   0  0  0  0  0  0  0  0  0  0  0  0
    0.0550   12.7380   -1.3690 O   0  0  0  0  0  0  0  0  0  0  0  0
   -3.0640   14.7830   -2.8080 I   0  0  0  0  0  0  0  0  0  0  0  0
   -0.7520    9.2890   -8.8370 C   0  0  0  0  0  0  0  0  0  0  0  0
   -4.2140   14.5430   -1.0150 C   0  0  1  0  0  0  0  0  0  0  0  0
   -3.5580   15.0350    0.1900 C   0  0  0  0  0  0  0  0  0  0  0  0
   -5.5740   15.1640   -1.1080 C   0  0  0  0  0  0  0  0  0  0  0  0
   -4.2550   15.1600    1.2840 C   0  0  0  0  0  0  0  0  0  0  0  0
   -6.3440   14.8500    0.1210 C   0  0  0  0  0  0  0  0  0  0  0  0
   -7.5590   14.6160    0.0400 O   0  0  0  0  0  0  0  0  0  0  0  0
   -5.6290   14.8410    1.3790 N   0  0  0  0  0  0  0  0  0  0  0  0
  1  2  1  0
  2  3  1  6
  1  4  1  0
  2  5  1  0
  4  6  1  0
  4  7  1  0
  3  8  1  0
  5  9  1  0
  6 10  1  0
  7 11  1  0
  8 12  1  0
  8 13  1  0
  8 14  1  0
  9 15  1  0
 10 16  1  0
 11 16  1  0
 17 15  1  6
 17 18  1  0
 17 19  1  0
 18 20  2  0
 19 21  1  0
 21 22  2  0
 20 23  1  0
 21 23  1  0
M  END
