x0685_1_A_α-x0628_0_A_α
     RDKit          3D

 18 19  0  0  0  0  0  0  0  0999 V2000
    0.3540   11.2540   -6.2300 N   0  0  0  0  0  0  0  0  0  0  0  0
    0.1050   10.4690   -7.4320 C   0  0  2  0  0  0  0  0  0  0  0  0
   -1.0210   11.1620   -8.2100 C   0  0  0  0  0  0  0  0  0  0  0  0
   -0.1620    8.9420   -7.2060 C   0  0  2  0  0  0  0  0  0  0  0  0
   -0.2480    8.2350   -8.5520 C   0  0  0  0  0  0  0  0  0  0  0  0
   -1.8370   10.1900   -9.0310 C   0  0  0  0  0  0  0  0  0  0  0  0
   -1.3910    8.7720   -6.3410 C   0  0  0  0  0  0  0  0  0  0  0  0
   -0.9700    9.0690   -9.6050 C   0  0  0  0  0  0  0  0  0  0  0  0
   -1.5390   10.0600   -5.6460 C   0  0  0  0  0  0  0  0  0  0  0  0
   -2.7260   10.7060   -5.4760 N   0  0  0  0  0  0  0  0  0  0  0  0
   -0.4750   10.6870   -5.1380 N   0  0  0  0  0  0  0  0  0  0  0  0
   -1.0390   11.7960   -4.6190 N   0  0  0  0  0  0  0  0  0  0  0  0
   -2.3720   11.7950   -4.8280 C   0  0  0  0  0  0  0  0  0  0  0  0
   -0.2330   12.7800   -3.9510 C   0  0  0  0  0  0  0  0  0  0  0  0
    0.6630   12.0930   -2.5480 S   0  0  0  0  0  0  0  0  0  0  0  0
    2.2170   12.3980   -2.8020 O   0  0  0  0  0  0  0  0  0  0  0  0
    0.3730   10.5110   -2.4820 O   0  0  0  0  0  0  0  0  0  0  0  0
    0.1610   12.8070   -1.2090 O   0  0  0  0  0  0  0  0  0  0  0  0
  2  1  1  1
  2  3  1  0
  2  4  1  0
  4  5  1  0
  3  6  1  0
  4  7  1  6
  5  8  1  0
  6  8  1  0
  7  9  1  0
  9 10  1  0
  9 11  2  0
 11 12  1  0
 10 13  2  0
 12 13  1  0
 12 14  1  0
 14 15  1  0
 15 16  1  0
 15 17  1  0
 15 18  1  0
M  END
