x0681_0_A-x0742_0_A
     RDKit          3D

 22 24  0  0  0  0  0  0  0  0999 V2000
   -4.1710   15.2810   -2.0880 N   0  0  0  0  0  0  0  0  0  0  0  0
   -2.9530   14.7560   -1.7260 C   0  0  0  0  0  0  0  0  0  0  0  0
   -2.3500   14.1100   -2.5790 O   0  0  0  0  0  0  0  0  0  0  0  0
   -2.4260   15.0390   -0.2960 C   0  0  2  0  0  0  0  0  0  0  0  0
   -3.5580   15.8960    0.4350 C   0  0  0  0  0  0  0  0  0  0  0  0
   -1.0060   15.6950   -0.4620 C   0  0  0  0  0  0  0  0  0  0  0  0
   -2.1400   13.7940    0.5090 C   0  0  1  0  0  0  0  0  0  0  0  0
   -4.5180   15.3890    1.5360 C   0  0  0  0  0  0  0  0  0  0  0  0
   -1.4450   14.1140    1.7030 N   0  0  0  0  0  0  0  0  0  0  0  0
    0.1060   15.1480    0.4160 C   0  0  0  0  0  0  0  0  0  0  0  0
   -3.4510   13.3660    0.8230 C   0  0  0  0  0  0  0  0  0  0  0  0
   -5.5590   14.4830    1.6420 C   0  0  0  0  0  0  0  0  0  0  0  0
   -0.1860   14.3940    1.4710 C   0  0  0  0  0  0  0  0  0  0  0  0
   -4.2350   13.2020   -0.1770 C   0  0  0  0  0  0  0  0  0  0  0  0
   -5.5800   12.8570   -0.2380 C   0  0  2  0  0  0  0  0  0  0  0  0
   -6.2380   13.5660    0.8300 N   0  0  0  0  0  0  0  0  0  0  0  0
   -5.9000   11.3990   -0.4980 C   0  0  0  0  0  0  0  0  0  0  0  0
   -6.1170   13.5370   -1.4190 N   0  0  0  0  0  0  0  0  0  0  0  0
   -7.4970   13.7600    0.2920 C   0  0  0  0  0  0  0  0  0  0  0  0
   -6.5930   10.7330    0.2280 O   0  0  0  0  0  0  0  0  0  0  0  0
   -5.3560   10.7870   -1.7210 C   0  0  0  0  0  0  0  0  0  0  0  0
   -7.4210   13.7350   -1.0510 C   0  0  0  0  0  0  0  0  0  0  0  0
  1  2  1  0
  2  3  2  0
  4  2  1  6
  4  5  1  0
  4  6  1  0
  4  7  1  0
  5  8  1  0
  7  9  1  0
  6 10  1  0
  7 11  1  1
  8 12  2  0
  9 13  1  0
 10 13  2  0
 11 14  2  0
 14 15  1  0
 12 16  1  0
 15 16  1  0
 15 17  1  6
 15 18  1  0
 16 19  1  0
 17 20  2  0
 17 21  1  0
 18 22  1  0
 19 22  2  0
M  END
