x0685_1_A_α-x0950_0_A_α
     RDKit          3D

 14 14  0  0  0  0  0  0  0  0999 V2000
   -1.2230   10.5460   -4.8740 N   0  0  0  0  0  0  0  0  0  0  0  0
   -1.4360   11.9620   -4.5400 C   0  0  0  0  0  0  0  0  0  0  0  0
   -0.1940   12.7410   -4.1230 C   0  0  0  0  0  0  0  0  0  0  0  0
   -1.2900   10.0720   -6.2660 C   0  0  0  0  0  0  0  0  0  0  0  0
   -0.1340    9.1820   -6.7250 C   0  0  0  0  0  0  0  0  0  0  0  0
   -1.5770   11.1720   -7.3100 C   0  0  0  0  0  0  0  0  0  0  0  0
    0.6510   12.0410   -2.6960 S   0  0  0  0  0  0  0  0  0  0  0  0
   -0.4380    8.4580   -8.0260 C   0  0  0  0  0  0  0  0  0  0  0  0
   -1.1050   10.8050   -8.7230 C   0  0  0  0  0  0  0  0  0  0  0  0
    2.2290   12.2780   -2.9360 O   0  0  0  0  0  0  0  0  0  0  0  0
    0.2850   10.4730   -2.5970 O   0  0  0  0  0  0  0  0  0  0  0  0
    0.1140   12.7680   -1.3690 O   0  0  0  0  0  0  0  0  0  0  0  0
   -1.2180    9.3110   -9.0240 C   0  0  0  0  0  0  0  0  0  0  0  0
    2.7010   12.9560   -4.0970 C   0  0  0  0  0  0  0  0  0  0  0  0
  1  2  1  0
  2  3  1  0
  1  4  1  0
  4  5  1  0
  4  6  1  0
  3  7  1  0
  5  8  1  0
  6  9  1  0
  7 10  1  0
  7 11  1  0
  7 12  1  0
  8 13  1  0
  9 13  1  0
 10 14  1  0
M  END
