x0685_0_A-x0910_1_A
     RDKit          3D

 11 11  0  0  0  0  0  0  0  0999 V2000
   -5.9890   14.9730    2.5540 N   0  0  0  0  0  0  0  0  0  0  0  0
   -6.9870   13.9130    2.6180 C   0  0  0  0  0  0  0  0  0  0  0  0
   -8.0690   14.2690    3.6120 C   0  0  0  0  0  0  0  0  0  0  0  0
   -5.2960   14.9970    1.3600 C   0  0  0  0  0  0  0  0  0  0  0  0
   -3.9090   15.0410    1.3050 C   0  0  0  0  0  0  0  0  0  0  0  0
   -6.0650   14.9770    0.2560 N   0  0  0  0  0  0  0  0  0  0  0  0
   -3.2860   15.0730    0.0650 C   0  0  0  0  0  0  0  0  0  0  0  0
   -5.4420   15.0130   -0.9380 C   0  0  0  0  0  0  0  0  0  0  0  0
   -4.0710   15.0620   -1.0880 C   0  0  0  0  0  0  0  0  0  0  0  0
   -3.5000   15.1000   -2.3900 C   0  0  0  0  0  0  0  0  0  0  0  0
   -3.0470   15.1420   -3.4570 N   0  0  0  0  0  0  0  0  0  0  0  0
  1  2  1  0
  2  3  1  0
  1  4  1  0
  4  5  2  0
  4  6  1  0
  5  7  1  0
  6  8  2  0
  7  9  2  0
  8  9  1  0
  9 10  1  0
 10 11  3  0
M  END
