x0689_0_A_α-x0849_0_A_α
     RDKit          3D

 13 14  0  0  0  0  0  0  0  0999 V2000
   -3.5910   13.4360    1.2990 N   0  0  0  0  0  0  0  0  0  0  0  0
   -4.9360   13.9690    1.1920 C   0  0  0  0  0  0  0  0  0  0  0  0
   -2.5710   14.3790    0.9340 C   0  0  2  0  0  0  0  0  0  0  0  0
   -2.2850   14.5770   -0.5080 N   0  0  0  0  0  0  0  0  0  0  0  0
   -1.4520   14.2360    1.8480 N   0  0  0  0  0  0  0  0  0  0  0  0
   -3.1320   15.5000    1.5550 N   0  0  0  0  0  0  0  0  0  0  0  0
   -0.9570   14.6350   -0.9050 C   0  0  0  0  0  0  0  0  0  0  0  0
   -0.3020   14.3060    1.3430 C   0  0  0  0  0  0  0  0  0  0  0  0
   -3.3750   15.0960   -1.1970 C   0  0  0  0  0  0  0  0  0  0  0  0
   -3.8910   16.1300    0.8270 C   0  0  0  0  0  0  0  0  0  0  0  0
   -3.6840   14.7520   -3.0160 Br  0  0  0  0  0  0  0  0  0  0  0  0
    0.0750   14.5130   -0.0680 C   0  0  0  0  0  0  0  0  0  0  0  0
   -4.2460   15.8750   -0.5610 C   0  0  0  0  0  0  0  0  0  0  0  0
  1  2  1  0
  3  1  1  6
  3  4  1  0
  3  5  1  0
  3  6  1  0
  4  7  1  0
  5  8  2  0
  4  9  1  0
  6 10  2  0
  9 11  1  0
  7 12  2  0
  8 12  1  0
  9 13  2  0
 10 13  1  0
M  END
