x0685_1_A-x0631_0_A
     RDKit          3D

 28 30  0  0  0  0  0  0  0  0999 V2000
   -1.4450   10.9970   -5.3060 N   0  0  0  0  0  0  0  0  0  0  0  0
   -1.0730   12.3940   -4.9780 C   0  0  0  0  0  0  0  0  0  0  0  0
    0.3990   12.4790   -4.6040 C   0  0  0  0  0  0  0  0  0  0  0  0
   -1.1590   10.7680   -6.7570 C   0  0  1  0  0  0  0  0  0  0  0  0
   -0.5840    9.3340   -7.1560 C   0  0  1  0  0  0  0  0  0  0  0  0
   -2.3770   11.1250   -7.6060 C   0  0  0  0  0  0  0  0  0  0  0  0
    0.7870   12.1060   -2.8920 S   0  0  0  0  0  0  0  0  0  0  0  0
   -1.2820    8.7370   -8.4050 C   0  0  0  0  0  0  0  0  0  0  0  0
   -2.0900   11.0430   -9.1080 C   0  0  0  0  0  0  0  0  0  0  0  0
    0.8540    9.4910   -7.4400 N   0  0  0  0  0  0  0  0  0  0  0  0
   -0.8420    8.2920   -6.0400 C   0  0  0  0  0  0  0  0  0  0  0  0
    2.3670   12.1910   -2.7940 O   0  0  0  0  0  0  0  0  0  0  0  0
    0.2730   10.6210   -2.5300 O   0  0  0  0  0  0  0  0  0  0  0  0
    0.1130   13.2150   -1.9560 O   0  0  0  0  0  0  0  0  0  0  0  0
   -1.5230    9.7080   -9.5500 C   0  0  0  0  0  0  0  0  0  0  0  0
    1.0690   10.9050   -7.3260 N   0  0  0  0  0  0  0  0  0  0  0  0
    1.1890    9.1890   -8.8060 N   0  0  0  0  0  0  0  0  0  0  0  0
   -2.3370    8.0360   -5.9040 C   0  0  0  0  0  0  0  0  0  0  0  0
    0.6840   11.3540   -8.6390 N   0  0  0  0  0  0  0  0  0  0  0  0
    1.5720   10.4780   -9.3140 C   0  0  2  0  0  0  0  0  0  0  0  0
    1.4190   10.6250  -10.7310 N   0  0  0  0  0  0  0  0  0  0  0  0
    2.0420    9.6190  -11.5960 C   0  0  2  0  0  0  0  0  0  0  0  0
    2.9960    8.8120  -10.9120 O   0  0  0  0  0  0  0  0  0  0  0  0
    2.6010   10.0490  -12.9830 C   0  0  2  0  0  0  0  0  0  0  0  0
    3.9390    9.5970  -13.2260 O   0  0  0  0  0  0  0  0  0  0  0  0
    2.6470   11.5290  -13.2790 C   0  0  0  0  0  0  0  0  0  0  0  0
    3.5920   11.6090  -14.4570 C   0  0  0  0  0  0  0  0  0  0  0  0
    4.3890   10.3100  -14.3880 C   0  0  0  0  0  0  0  0  0  0  0  0
  1  2  1  0
  2  3  1  0
  4  1  1  1
  4  5  1  0
  4  6  1  0
  3  7  1  0
  5  8  1  0
  6  9  1  0
  5 10  1  0
  5 11  1  1
  7 12  1  0
  7 13  1  0
  7 14  1  0
  8 15  1  0
  9 15  1  0
 10 16  1  0
 10 17  1  0
 11 18  1  0
 16 19  1  0
 17 20  1  0
 19 20  1  0
 20 21  1  6
 21 22  1  0
 22 23  1  1
 22 24  1  0
 24 25  1  0
 24 26  1  1
 26 27  1  0
 25 28  1  0
 27 28  1  0
M  END
