x0685_0_A-x0900_0_A
     RDKit          3D

 12 12  0  0  0  0  0  0  0  0999 V2000
   -6.1460   14.9330    2.6650 N   0  0  0  0  0  0  0  0  0  0  0  0
   -7.5920   14.7560    2.5520 C   0  0  0  0  0  0  0  0  0  0  0  0
   -8.0820   13.3740    2.9520 C   0  0  0  0  0  0  0  0  0  0  0  0
   -5.3140   15.0620    1.4970 C   0  0  1  0  0  0  0  0  0  0  0  0
   -3.9980   14.3930    1.3430 C   0  0  0  0  0  0  0  0  0  0  0  0
   -6.1230   14.8050    0.3670 N   0  0  0  0  0  0  0  0  0  0  0  0
   -3.3970   14.4870    0.1470 C   0  0  0  0  0  0  0  0  0  0  0  0
   -5.6260   15.0280   -0.8690 C   0  0  0  0  0  0  0  0  0  0  0  0
   -6.4020   15.0400   -1.8170 O   0  0  0  0  0  0  0  0  0  0  0  0
   -4.1110   15.2560   -0.9450 C   0  0  2  0  0  0  0  0  0  0  0  0
   -3.5850   14.9990   -2.2910 C   0  0  0  0  0  0  0  0  0  0  0  0
   -3.1660   14.8690   -3.3660 N   0  0  0  0  0  0  0  0  0  0  0  0
  1  2  1  0
  2  3  1  0
  4  1  1  1
  4  5  1  0
  4  6  1  0
  5  7  2  0
  6  8  1  0
  8  9  2  0
  7 10  1  0
  8 10  1  0
 10 11  1  6
 11 12  3  0
M  END
