x0685_1_A-x0727_0_A
     RDKit          3D

 16 16  0  0  0  0  0  0  0  0999 V2000
   -0.7080   10.4950   -4.8990 N   0  0  0  0  0  0  0  0  0  0  0  0
   -1.1260   11.8810   -4.6090 C   0  0  0  0  0  0  0  0  0  0  0  0
    0.0120   12.7470   -4.0230 C   0  0  1  0  0  0  0  0  0  0  0  0
   -1.0650   10.0490   -6.2690 C   0  0  2  0  0  0  0  0  0  0  0  0
   -0.9990    8.5170   -6.3980 C   0  0  0  0  0  0  0  0  0  0  0  0
   -0.0940   10.4990   -7.3480 C   0  0  2  0  0  0  0  0  0  0  0  0
    0.6480   12.0400   -2.4960 S   0  0  0  0  0  0  0  0  0  0  0  0
    1.2280   12.9110   -4.9310 C   0  0  0  0  0  0  0  0  0  0  0  0
    0.6620   11.7500   -7.0530 C   0  0  0  0  0  0  0  0  0  0  0  0
   -0.5610    8.0620   -7.8060 C   0  0  0  0  0  0  0  0  0  0  0  0
   -0.7360   10.4110   -8.7230 C   0  0  0  0  0  0  0  0  0  0  0  0
    2.2070   12.3780   -2.5520 O   0  0  0  0  0  0  0  0  0  0  0  0
    0.3810   10.4610   -2.4840 O   0  0  0  0  0  0  0  0  0  0  0  0
   -0.0170   12.7370   -1.2250 O   0  0  0  0  0  0  0  0  0  0  0  0
    0.1650   12.7980   -6.7230 O   0  0  0  0  0  0  0  0  0  0  0  0
   -1.0810    8.9430   -8.9600 C   0  0  0  0  0  0  0  0  0  0  0  0
  1  2  1  0
  2  3  1  0
  4  1  1  1
  4  5  1  0
  4  6  1  0
  3  7  1  0
  3  8  1  6
  6  9  1  1
  5 10  1  0
  6 11  1  0
  7 12  1  0
  7 13  1  0
  7 14  1  0
  9 15  2  0
 10 16  1  0
 11 16  1  0
M  END
