x0685_1_A_α-x0587_0_A_α
     RDKit          3D

 28 29  0  0  0  0  0  0  0  0999 V2000
   -1.3720   10.5990   -4.9070 N   0  0  0  0  0  0  0  0  0  0  0  0
   -1.4970   12.0020   -4.5060 C   0  0  0  0  0  0  0  0  0  0  0  0
   -0.1780   12.6770   -4.1360 C   0  0  0  0  0  0  0  0  0  0  0  0
   -0.7110   10.3610   -6.1920 C   0  0  0  0  0  0  0  0  0  0  0  0
   -0.5130    8.8580   -6.4390 C   0  0  0  0  0  0  0  0  0  0  0  0
   -1.5840   10.9700   -7.3040 C   0  0  0  0  0  0  0  0  0  0  0  0
    0.5750   12.0980   -2.6160 S   0  0  0  0  0  0  0  0  0  0  0  0
    0.1200    8.6140   -7.8040 C   0  0  0  0  0  0  0  0  0  0  0  0
   -1.0120   10.6930   -8.6940 C   0  0  0  0  0  0  0  0  0  0  0  0
    2.1480   12.3530   -2.8030 O   0  0  0  0  0  0  0  0  0  0  0  0
    0.2900   10.5100   -2.5180 O   0  0  0  0  0  0  0  0  0  0  0  0
   -0.0550   12.8450   -1.3300 O   0  0  0  0  0  0  0  0  0  0  0  0
   -0.7440    9.2060   -8.9180 C   0  0  0  0  0  0  0  0  0  0  0  0
   -1.4840   13.0110   -1.2140 C   0  0  0  0  0  0  0  0  0  0  0  0
   -1.9800   14.2970   -1.8840 C   0  0  0  0  0  0  0  0  0  0  0  0
   -3.0560   14.8720   -1.1180 O   0  0  0  0  0  0  0  0  0  0  0  0
   -4.3800   14.5100   -1.5570 C   0  0  0  0  0  0  0  0  0  0  0  0
   -4.3280   13.2710   -2.1290 F   0  0  0  0  0  0  0  0  0  0  0  0
   -4.6780   15.3490   -2.5910 F   0  0  0  0  0  0  0  0  0  0  0  0
   -5.4170   14.5960   -0.4210 C   0  0  0  0  0  0  0  0  0  0  0  0
   -6.7290   14.3330   -0.6810 N   0  0  0  0  0  0  0  0  0  0  0  0
   -4.9620   14.9350    0.8020 N   0  0  0  0  0  0  0  0  0  0  0  0
   -7.6030   14.4230    0.3530 C   0  0  0  0  0  0  0  0  0  0  0  0
   -5.8770   15.0090    1.7830 C   0  0  0  0  0  0  0  0  0  0  0  0
   -7.2180   14.7650    1.6290 C   0  0  0  0  0  0  0  0  0  0  0  0
   -8.1630   14.8740    2.7430 C   0  0  0  0  0  0  0  0  0  0  0  0
   -7.6180   14.8060    3.9900 N   0  0  0  0  0  0  0  0  0  0  0  0
   -9.3680   15.0330    2.5660 O   0  0  0  0  0  0  0  0  0  0  0  0
  1  2  1  0
  2  3  1  0
  1  4  1  0
  4  5  1  0
  4  6  1  0
  3  7  1  0
  5  8  1  0
  6  9  1  0
  7 10  1  0
  7 11  1  0
  7 12  1  0
  8 13  1  0
  9 13  1  0
 12 14  1  0
 14 15  1  0
 15 16  1  0
 16 17  1  0
 17 18  1  0
 17 19  1  0
 17 20  1  0
 20 21  2  0
 20 22  1  0
 21 23  1  0
 22 24  2  0
 23 25  2  0
 24 25  1  0
 25 26  1  0
 26 27  1  0
 26 28  2  0
M  END
