x0689_0_A-x0905_0_A
     RDKit          3D

 14 15  0  0  0  0  0  0  0  0999 V2000
   -3.1260   15.0270    2.1240 N   0  0  0  0  0  0  0  0  0  0  0  0
   -2.0660   15.1330    1.1660 C   0  0  1  0  0  0  0  0  0  0  0  0
   -1.1950   14.2180    1.7640 N   0  0  0  0  0  0  0  0  0  0  0  0
   -2.3310   14.8970   -0.2200 N   0  0  0  0  0  0  0  0  0  0  0  0
   -1.2600   14.6100   -1.0340 C   0  0  0  0  0  0  0  0  0  0  0  0
    0.0220   14.2140    1.0170 C   0  0  0  0  0  0  0  0  0  0  0  0
   -3.6510   14.9650   -0.5540 C   0  0  0  0  0  0  0  0  0  0  0  0
   -0.1000   14.2760   -0.4730 C   0  0  0  0  0  0  0  0  0  0  0  0
   -4.6320   14.8220    0.4260 C   0  0  0  0  0  0  0  0  0  0  0  0
   -4.0860   15.1810   -1.8460 C   0  0  0  0  0  0  0  0  0  0  0  0
   -5.9550   14.8770    0.2270 N   0  0  0  0  0  0  0  0  0  0  0  0
   -5.4450   15.2430   -2.0990 C   0  0  0  0  0  0  0  0  0  0  0  0
   -6.3010   15.0870   -1.0360 C   0  0  0  0  0  0  0  0  0  0  0  0
   -7.6350   15.1410   -1.2170 O   0  0  0  0  0  0  0  0  0  0  0  0
  2  1  1  1
  2  3  1  0
  2  4  1  0
  4  5  1  0
  3  6  1  0
  4  7  1  0
  5  8  2  0
  6  8  1  0
  7  9  2  0
  7 10  1  0
  9 11  1  0
 10 12  2  0
 11 13  2  0
 12 13  1  0
 13 14  1  0
M  END
