x0689_0_A-x0574_0_A
     RDKit          3D

 13 14  0  0  0  0  0  0  0  0999 V2000
   -3.3120   15.5670    1.6070 N   0  0  0  0  0  0  0  0  0  0  0  0
   -2.6820   14.5020    0.8840 C   0  0  2  0  0  0  0  0  0  0  0  0
   -1.5160   14.2980    1.7270 N   0  0  0  0  0  0  0  0  0  0  0  0
   -2.5420   14.7540   -0.5420 N   0  0  0  0  0  0  0  0  0  0  0  0
   -3.7460   13.3980    0.9760 C   0  0  0  0  0  0  0  0  0  0  0  0
   -1.3050   14.6070   -1.1390 C   0  0  0  0  0  0  0  0  0  0  0  0
   -0.2100   14.2680    1.0620 C   0  0  0  0  0  0  0  0  0  0  0  0
   -5.0910   13.9940    0.5510 C   0  0  2  0  0  0  0  0  0  0  0  0
   -3.7020   15.1520   -1.1890 C   0  0  0  0  0  0  0  0  0  0  0  0
   -0.1920   14.3800   -0.4320 C   0  0  0  0  0  0  0  0  0  0  0  0
   -4.9260   14.8310   -0.7190 C   0  0  0  0  0  0  0  0  0  0  0  0
   -5.6570   14.8290    1.6760 C   0  0  0  0  0  0  0  0  0  0  0  0
   -7.1200   14.6080    2.0240 C   0  0  0  0  0  0  0  0  0  0  0  0
  2  1  1  1
  2  3  1  0
  2  4  1  0
  2  5  1  0
  4  6  1  0
  3  7  1  0
  5  8  1  0
  4  9  1  0
  6 10  2  0
  7 10  1  0
  8 11  1  0
  9 11  2  0
  8 12  1  1
 12 13  1  0
M  END
