x0685_0_A-x0766_0_A
     RDKit          3D

 24 26  0  0  0  0  0  0  0  0999 V2000
   -6.4620   14.9570    2.6250 N   0  0  0  0  0  0  0  0  0  0  0  0
   -7.8890   14.7360    2.6390 C   0  0  0  0  0  0  0  0  0  0  0  0
   -8.2020   13.3040    3.0340 C   0  0  0  0  0  0  0  0  0  0  0  0
   -5.7820   14.9900    1.4190 C   0  0  0  0  0  0  0  0  0  0  0  0
   -4.4600   15.3390    1.3570 C   0  0  0  0  0  0  0  0  0  0  0  0
   -6.5030   14.6770    0.3150 N   0  0  0  0  0  0  0  0  0  0  0  0
   -3.8520   15.3700    0.1200 C   0  0  0  0  0  0  0  0  0  0  0  0
   -5.8760   14.7130   -0.8980 C   0  0  0  0  0  0  0  0  0  0  0  0
   -4.5490   15.0500   -1.0610 C   0  0  0  0  0  0  0  0  0  0  0  0
   -3.7180   15.1130   -2.3310 C   0  0  2  0  0  0  0  0  0  0  0  0
   -4.1480   14.2990   -3.4690 N   0  0  0  0  0  0  0  0  0  0  0  0
   -2.4000   14.7140   -1.7720 C   0  0  0  0  0  0  0  0  0  0  0  0
   -1.1160   14.4620   -2.2380 C   0  0  0  0  0  0  0  0  0  0  0  0
   -2.5170   14.5220   -0.0720 S   0  0  0  0  0  0  0  0  0  0  0  0
   -0.5910   14.5090   -3.6560 C   0  0  2  0  0  0  0  0  0  0  0  0
   -0.2720   14.1390   -1.1220 C   0  0  0  0  0  0  0  0  0  0  0  0
   -0.9040   14.1390    0.0890 C   0  0  0  0  0  0  0  0  0  0  0  0
    0.1540   13.2220   -4.0930 C   0  0  2  0  0  0  0  0  0  0  0  0
    0.4410   15.6310   -3.7550 C   0  0  0  0  0  0  0  0  0  0  0  0
    0.5610   12.3110   -2.9530 C   0  0  0  0  0  0  0  0  0  0  0  0
    1.3050   13.6850   -4.9880 C   0  0  0  0  0  0  0  0  0  0  0  0
    1.6140   15.1170   -4.5650 C   0  0  0  0  0  0  0  0  0  0  0  0
    1.4080   12.5570   -2.1160 O   0  0  0  0  0  0  0  0  0  0  0  0
   -0.0920   11.1350   -2.8950 O   0  0  0  0  0  0  0  0  0  0  0  0
  1  2  1  0
  2  3  1  0
  1  4  1  0
  4  5  2  0
  4  6  1  0
  5  7  1  0
  6  8  2  0
  7  9  2  0
  8  9  1  0
  9 10  1  0
 10 11  1  6
 10 12  1  0
 12 13  2  0
 12 14  1  0
 15 13  1  1
 13 16  1  0
 14 17  1  0
 16 17  2  0
 15 18  1  0
 15 19  1  0
 18 20  1  1
 18 21  1  0
 19 22  1  0
 21 22  1  0
 20 23  2  0
 20 24  1  0
M  END
