x0685_0_A_α-x0905_0_A_α
     RDKit          3D

 12 12  0  0  0  0  0  0  0  0999 V2000
   -6.0590   14.9480    2.7270 N   0  0  0  0  0  0  0  0  0  0  0  0
   -7.4950   14.7050    2.7620 C   0  0  0  0  0  0  0  0  0  0  0  0
   -7.7560   13.2180    2.9270 C   0  0  0  0  0  0  0  0  0  0  0  0
   -5.4020   14.9650    1.5060 C   0  0  0  0  0  0  0  0  0  0  0  0
   -4.0180   15.0540    1.3830 C   0  0  0  0  0  0  0  0  0  0  0  0
   -6.2100   14.9000    0.4430 N   0  0  0  0  0  0  0  0  0  0  0  0
   -3.4490   15.0870    0.1140 C   0  0  0  0  0  0  0  0  0  0  0  0
   -5.6400   14.9370   -0.7640 C   0  0  0  0  0  0  0  0  0  0  0  0
   -6.5790   14.8720   -1.7360 O   0  0  0  0  0  0  0  0  0  0  0  0
   -4.2770   15.0310   -1.0040 C   0  0  0  0  0  0  0  0  0  0  0  0
   -3.7230   15.0690   -2.3200 C   0  0  0  0  0  0  0  0  0  0  0  0
   -3.2430   15.1540   -3.3750 N   0  0  0  0  0  0  0  0  0  0  0  0
  1  2  1  0
  2  3  1  0
  1  4  1  0
  4  5  2  0
  4  6  1  0
  5  7  1  0
  6  8  2  0
  8  9  1  0
  7 10  2  0
  8 10  1  0
 10 11  1  0
 11 12  3  0
M  END
