x0681_0_A_α-x0852_0_B_α
     RDKit          3D

 25 27  0  0  0  0  0  0  0  0999 V2000
   -4.4730   15.5500   -2.1790 N   0  0  0  0  0  0  0  0  0  0  0  0
   -3.3530   14.8970   -1.7510 C   0  0  0  0  0  0  0  0  0  0  0  0
   -2.3730   14.8050   -2.4800 O   0  0  0  0  0  0  0  0  0  0  0  0
   -3.4450   14.3080   -0.3420 C   0  0  2  0  0  0  0  0  0  0  0  0
   -4.6430   13.4050   -0.3370 C   0  0  0  0  0  0  0  0  0  0  0  0
   -3.5070   15.3960    0.7480 C   0  0  0  0  0  0  0  0  0  0  0  0
   -5.6140   13.4780    0.6210 N   0  0  0  0  0  0  0  0  0  0  0  0
   -4.1790   14.8910    2.0310 C   0  0  0  0  0  0  0  0  0  0  0  0
   -4.9240   12.4600   -1.2180 N   0  0  0  0  0  0  0  0  0  0  0  0
   -5.6120   14.4240    1.7190 C   0  0  2  0  0  0  0  0  0  0  0  0
   -6.5550   12.5300    0.3460 C   0  0  0  0  0  0  0  0  0  0  0  0
   -6.1090   11.9120   -0.7980 C   0  0  0  0  0  0  0  0  0  0  0  0
   -6.3540   13.9600    2.9800 C   0  0  0  0  0  0  0  0  0  0  0  0
   -6.1660   14.8330    4.2290 C   0  0  0  0  0  0  0  0  0  0  0  0
   -6.6890   14.2100    5.5280 C   0  0  0  0  0  0  0  0  0  0  0  0
   -7.8720   14.9170    5.9270 O   0  0  0  0  0  0  0  0  0  0  0  0
   -8.5500   15.4100    4.8450 C   0  0  0  0  0  0  0  0  0  0  0  0
   -8.4560   14.7470    3.6170 C   0  0  0  0  0  0  0  0  0  0  0  0
   -9.3310   16.5630    4.9590 C   0  0  0  0  0  0  0  0  0  0  0  0
   -9.4660   17.2620    6.2050 C   0  0  0  0  0  0  0  0  0  0  0  0
   -9.1300   15.2310    2.5040 C   0  0  0  0  0  0  0  0  0  0  0  0
  -10.0070   17.0480    3.8350 C   0  0  0  0  0  0  0  0  0  0  0  0
   -9.6360   17.7970    7.2210 N   0  0  0  0  0  0  0  0  0  0  0  0
   -9.9020   16.3770    2.6130 C   0  0  0  0  0  0  0  0  0  0  0  0
  -10.8190   17.0220    1.0900 Br  0  0  0  0  0  0  0  0  0  0  0  0
  1  2  1  0
  2  3  2  0
  4  2  1  6
  4  5  1  0
  4  6  1  0
  5  7  1  0
  6  8  1  0
  5  9  2  0
  7 10  1  0
  8 10  1  0
  7 11  1  0
  9 12  1  0
 11 12  2  0
 10 13  1  1
 13 14  1  0
 14 15  1  0
 15 16  1  0
 16 17  1  0
 17 18  2  0
 17 19  1  0
 19 20  1  0
 18 21  1  0
 19 22  2  0
 20 23  3  0
 21 24  2  0
 22 24  1  0
 24 25  1  0
M  END
