x0681_0_A-x1012_0_A
     RDKit          3D

 24 26  0  0  0  0  0  0  0  0999 V2000
   -3.7860   15.7650   -2.8480 N   0  0  0  0  0  0  0  0  0  0  0  0
   -3.2690   14.9360   -1.9030 C   0  0  0  0  0  0  0  0  0  0  0  0
   -2.1330   14.3090   -1.9540 N   0  0  0  0  0  0  0  0  0  0  0  0
   -4.1880   14.8540   -0.6710 C   0  0  1  0  0  0  0  0  0  0  0  0
   -4.9210   13.5590   -0.5640 C   0  0  0  0  0  0  0  0  0  0  0  0
   -3.5520   15.3350    0.6430 C   0  0  0  0  0  0  0  0  0  0  0  0
   -1.2170   14.5460   -3.0930 C   0  0  2  0  0  0  0  0  0  0  0  0
   -5.6350   13.3350    0.5480 N   0  0  0  0  0  0  0  0  0  0  0  0
   -4.2860   14.8680    1.8910 C   0  0  0  0  0  0  0  0  0  0  0  0
   -5.0170   12.5570   -1.4130 N   0  0  0  0  0  0  0  0  0  0  0  0
   -1.8200   14.9670   -4.4170 C   0  0  0  0  0  0  0  0  0  0  0  0
   -0.1730   13.4960   -3.4360 C   0  0  2  0  0  0  0  0  0  0  0  0
    0.2190   12.5420   -2.3210 C   0  0  0  0  0  0  0  0  0  0  0  0
   -5.6740   14.2870    1.6140 C   0  0  0  0  0  0  0  0  0  0  0  0
   -6.2350   12.1230    0.4530 C   0  0  0  0  0  0  0  0  0  0  0  0
   -5.8420   11.6550   -0.7800 C   0  0  0  0  0  0  0  0  0  0  0  0
    0.9960   14.3380   -3.9800 C   0  0  0  0  0  0  0  0  0  0  0  0
   -0.8500   15.9060   -4.9680 N   0  0  0  0  0  0  0  0  0  0  0  0
   -1.2100   17.2260   -4.8290 C   0  0  0  0  0  0  0  0  0  0  0  0
    0.3280   11.2620   -2.7550 O   0  0  0  0  0  0  0  0  0  0  0  0
    0.4200   12.8350   -1.1550 O   0  0  0  0  0  0  0  0  0  0  0  0
    0.5600   15.4130   -5.0240 C   0  0  0  0  0  0  0  0  0  0  0  0
   -0.2160   18.1360   -4.7290 N   0  0  0  0  0  0  0  0  0  0  0  0
   -2.3630   17.6330   -4.7750 O   0  0  0  0  0  0  0  0  0  0  0  0
  1  2  1  0
  2  3  2  3
  4  2  1  6
  4  5  1  0
  4  6  1  0
  7  3  1  1
  5  8  1  0
  6  9  1  0
  5 10  2  0
  7 11  1  0
  7 12  1  0
 12 13  1  1
  8 14  1  0
  9 14  1  0
  8 15  1  0
 10 16  1  0
 15 16  2  0
 12 17  1  0
 11 18  1  0
 18 19  1  0
 13 20  1  0
 13 21  2  0
 17 22  1  0
 18 22  1  0
 19 23  1  0
 19 24  2  0
M  END
