x0685_0_A_α-x0681_0_A_α
     RDKit          3D

 16 17  0  0  0  0  0  0  0  0999 V2000
   -5.8940   14.1790    2.5060 N   0  0  0  0  0  0  0  0  0  0  0  0
   -7.2500   14.6040    2.8450 C   0  0  0  0  0  0  0  0  0  0  0  0
   -8.1270   13.4160    3.1990 C   0  0  0  0  0  0  0  0  0  0  0  0
   -5.3270   14.7170    1.2910 C   0  0  1  0  0  0  0  0  0  0  0  0
   -3.8320   14.9670    1.2440 C   0  0  0  0  0  0  0  0  0  0  0  0
   -5.7220   13.9650    0.0240 C   0  0  1  0  0  0  0  0  0  0  0  0
   -3.1530   14.8760    0.0720 C   0  0  0  0  0  0  0  0  0  0  0  0
   -5.3570   14.8680   -1.1140 C   0  0  0  0  0  0  0  0  0  0  0  0
   -4.8580   12.7560   -0.2800 C   0  0  0  0  0  0  0  0  0  0  0  0
   -7.0300   13.2490   -0.1410 C   0  0  0  0  0  0  0  0  0  0  0  0
   -3.8840   14.4900   -1.2130 C   0  0  1  0  0  0  0  0  0  0  0  0
   -5.4670   11.6880   -0.6460 N   0  0  0  0  0  0  0  0  0  0  0  0
   -6.7900   11.9930   -0.5390 C   0  0  0  0  0  0  0  0  0  0  0  0
   -3.2510   14.7030   -2.6020 C   0  0  0  0  0  0  0  0  0  0  0  0
   -1.8630   14.9890   -2.7170 N   0  0  0  0  0  0  0  0  0  0  0  0
   -3.8690   15.7460   -3.3030 N   0  0  0  0  0  0  0  0  0  0  0  0
  1  2  1  0
  2  3  1  0
  4  1  1  1
  4  5  1  0
  4  6  1  0
  5  7  2  0
  6  8  1  6
  6  9  1  0
  6 10  1  0
  7 11  1  0
  8 11  1  0
  9 12  2  0
 10 13  2  0
 12 13  1  0
 11 14  1  6
 14 15  1  0
 14 16  1  0
M  END
