x0685_0_A-x0724_0_A
     RDKit          3D

 15 16  0  0  0  0  0  0  0  0999 V2000
   -5.3310   15.1170    3.0250 N   0  0  0  0  0  0  0  0  0  0  0  0
   -5.0320   15.1980    1.5950 C   0  0  2  0  0  0  0  0  0  0  0  0
   -6.0560   14.4100    0.6500 C   0  0  2  0  0  0  0  0  0  0  0  0
   -3.6100   14.7700    1.4130 C   0  0  0  0  0  0  0  0  0  0  0  0
   -3.1490   14.7120    0.1800 C   0  0  0  0  0  0  0  0  0  0  0  0
   -5.3740   14.1710   -0.7310 C   0  0  0  0  0  0  0  0  0  0  0  0
   -7.3790   15.0330    0.3230 N   0  0  0  0  0  0  0  0  0  0  0  0
   -6.5620   13.1740    1.3930 C   0  0  0  0  0  0  0  0  0  0  0  0
   -4.1220   15.0570   -0.9050 C   0  0  2  0  0  0  0  0  0  0  0  0
   -7.7700   13.6450    2.2270 C   0  0  2  0  0  0  0  0  0  0  0  0
   -8.3370   14.7930    1.4140 C   0  0  0  0  0  0  0  0  0  0  0  0
   -3.5430   14.9810   -2.2610 C   0  0  0  0  0  0  0  0  0  0  0  0
   -7.4700   14.0400    3.6830 C   0  0  0  0  0  0  0  0  0  0  0  0
   -3.0970   14.9670   -3.3340 N   0  0  0  0  0  0  0  0  0  0  0  0
   -8.5950   13.7670    4.6900 C   0  0  0  0  0  0  0  0  0  0  0  0
  2  1  1  1
  2  3  1  0
  2  4  1  0
  4  5  2  0
  3  6  1  6
  3  7  1  0
  3  8  1  0
  5  9  1  0
  6  9  1  0
  8 10  1  0
  7 11  1  0
 10 11  1  0
  9 12  1  6
 10 13  1  1
 12 14  3  0
 13 15  1  0
M  END
