x0681_0_A-x0724_0_A
     RDKit          3D

 19 21  0  0  0  0  0  0  0  0999 V2000
   -4.4940   15.4560   -2.3480 N   0  0  0  0  0  0  0  0  0  0  0  0
   -3.4280   14.8130   -1.7870 C   0  0  0  0  0  0  0  0  0  0  0  0
   -2.4020   14.6510   -2.4410 O   0  0  0  0  0  0  0  0  0  0  0  0
   -3.6160   14.3360   -0.3480 C   0  0  2  0  0  0  0  0  0  0  0  0
   -4.6780   13.2440   -0.2820 C   0  0  0  0  0  0  0  0  0  0  0  0
   -3.9080   15.5480    0.5630 C   0  0  0  0  0  0  0  0  0  0  0  0
   -5.7940   13.3230    0.5180 N   0  0  0  0  0  0  0  0  0  0  0  0
   -4.6900   15.1160    1.7910 C   0  0  0  0  0  0  0  0  0  0  0  0
   -4.6980   12.1120   -0.9550 N   0  0  0  0  0  0  0  0  0  0  0  0
   -6.0230   14.4890    1.3270 C   0  0  1  0  0  0  0  0  0  0  0  0
   -6.5370   12.2030    0.3530 C   0  0  0  0  0  0  0  0  0  0  0  0
   -5.8440   11.4680   -0.5710 C   0  0  0  0  0  0  0  0  0  0  0  0
   -6.4540   15.2000    0.1050 N   0  0  0  0  0  0  0  0  0  0  0  0
   -7.3440   14.7320    2.0940 C   0  0  0  0  0  0  0  0  0  0  0  0
   -7.5860   14.8450    3.5690 C   0  0  0  0  0  0  0  0  0  0  0  0
   -7.6230   14.7630   -0.1050 N   0  0  0  0  0  0  0  0  0  0  0  0
   -8.2360   14.8580    1.1010 C   0  0  0  0  0  0  0  0  0  0  0  0
   -8.2430   13.6810    4.1520 N   0  0  0  0  0  0  0  0  0  0  0  0
   -8.5510   13.9050    5.5600 C   0  0  0  0  0  0  0  0  0  0  0  0
  1  2  1  0
  2  3  2  0
  4  2  1  6
  4  5  1  0
  4  6  1  0
  5  7  1  0
  6  8  1  0
  5  9  2  0
  7 10  1  0
 10  8  1  1
  7 11  1  0
  9 12  1  0
 11 12  2  0
 10 13  1  0
 10 14  1  0
 14 15  1  0
 13 16  2  0
 14 17  2  0
 16 17  1  0
 15 18  1  0
 18 19  1  0
M  END
