x0685_1_A-x0574_0_A
     RDKit          3D

 27 29  0  0  0  0  0  0  0  0999 V2000
   -1.3560   10.6130   -4.8540 N   0  0  0  0  0  0  0  0  0  0  0  0
   -1.4520   12.0310   -4.4610 C   0  0  0  0  0  0  0  0  0  0  0  0
   -0.0670   12.6170   -4.2160 C   0  0  0  0  0  0  0  0  0  0  0  0
   -0.7360   10.4100   -6.1740 C   0  0  0  0  0  0  0  0  0  0  0  0
   -0.5800    8.9000   -6.4160 C   0  0  0  0  0  0  0  0  0  0  0  0
   -1.5660   11.0160   -7.3280 C   0  0  0  0  0  0  0  0  0  0  0  0
    0.6860   12.0200   -2.7030 S   0  0  0  0  0  0  0  0  0  0  0  0
    0.0510    8.6040   -7.7790 C   0  0  0  0  0  0  0  0  0  0  0  0
   -1.0290   10.6900   -8.7300 C   0  0  0  0  0  0  0  0  0  0  0  0
    2.2420   12.3670   -2.8520 O   0  0  0  0  0  0  0  0  0  0  0  0
    0.4340   10.4330   -2.5860 O   0  0  0  0  0  0  0  0  0  0  0  0
    0.0200   12.7910   -1.4600 O   0  0  0  0  0  0  0  0  0  0  0  0
   -0.7530    9.2040   -8.9330 C   0  0  0  0  0  0  0  0  0  0  0  0
    0.7090   13.7850   -0.7010 C   0  0  0  0  0  0  0  0  0  0  0  0
    0.2000   13.5510    0.7300 C   0  0  0  0  0  0  0  0  0  0  0  0
   -0.1640   14.6660    1.4490 N   0  0  0  0  0  0  0  0  0  0  0  0
   -1.3540   14.7350    1.0300 C   0  0  0  0  0  0  0  0  0  0  0  0
   -2.3650   14.7280    1.8040 N   0  0  0  0  0  0  0  0  0  0  0  0
   -1.6070   14.7850   -0.6530 S   0  0  0  0  0  0  0  0  0  0  0  0
   -3.4810   14.7910    1.0180 C   0  0  0  0  0  0  0  0  0  0  0  0
   -3.2580   14.8380   -0.3570 C   0  0  0  0  0  0  0  0  0  0  0  0
   -4.7900   14.8080    1.4630 C   0  0  0  0  0  0  0  0  0  0  0  0
   -4.2760   14.9130   -1.2940 C   0  0  0  0  0  0  0  0  0  0  0  0
   -5.8340   14.8720    0.5480 C   0  0  0  0  0  0  0  0  0  0  0  0
   -5.5800   14.9290   -0.8190 C   0  0  0  0  0  0  0  0  0  0  0  0
   -7.0690   14.8720    1.1290 O   0  0  0  0  0  0  0  0  0  0  0  0
   -7.1210   14.5860    2.5230 C   0  0  0  0  0  0  0  0  0  0  0  0
  1  2  1  0
  2  3  1  0
  1  4  1  0
  4  5  1  0
  4  6  1  0
  3  7  1  0
  5  8  1  0
  6  9  1  0
  7 10  1  0
  7 11  1  0
  7 12  1  0
  8 13  1  0
  9 13  1  0
 12 14  1  0
 14 15  1  0
 15 16  1  0
 16 17  1  0
 17 18  2  0
 17 19  1  0
 18 20  1  0
 19 21  1  0
 20 21  2  0
 20 22  1  0
 21 23  1  0
 22 24  2  0
 23 25  2  0
 24 25  1  0
 24 26  1  0
 26 27  1  0
M  END
