x0685_0_A-x0895_0_A
     RDKit          3D

 12 12  0  0  0  0  0  0  0  0999 V2000
   -6.2310   14.9610    2.6290 N   0  0  0  0  0  0  0  0  0  0  0  0
   -7.6680   14.7540    2.4720 C   0  0  0  0  0  0  0  0  0  0  0  0
   -8.0290   13.3550    2.9450 C   0  0  0  0  0  0  0  0  0  0  0  0
   -5.3650   14.5520    1.5450 C   0  0  2  0  0  0  0  0  0  0  0  0
   -4.0320   15.3020    1.5070 C   0  0  0  0  0  0  0  0  0  0  0  0
   -6.1810   14.7510    0.3600 N   0  0  0  0  0  0  0  0  0  0  0  0
   -3.2560   14.8120    0.3180 C   0  0  0  0  0  0  0  0  0  0  0  0
   -5.4250   15.2600   -0.7890 C   0  0  0  0  0  0  0  0  0  0  0  0
   -2.0350   14.6150    0.4270 O   0  0  0  0  0  0  0  0  0  0  0  0
   -4.0710   14.5690   -0.9460 C   0  0  1  0  0  0  0  0  0  0  0  0
   -3.4400   15.0310   -2.1880 C   0  0  0  0  0  0  0  0  0  0  0  0
   -3.0070   15.3480   -3.2190 N   0  0  0  0  0  0  0  0  0  0  0  0
  1  2  1  0
  2  3  1  0
  4  1  1  1
  4  5  1  0
  4  6  1  0
  5  7  1  0
  6  8  1  0
  7  9  2  0
  7 10  1  0
  8 10  1  0
 10 11  1  6
 11 12  3  0
M  END
