x0685_0_A-x1015_0_A
     RDKit          3D

 27 29  0  0  0  0  0  0  0  0999 V2000
   -6.0810   14.6460    2.6090 N   0  0  0  0  0  0  0  0  0  0  0  0
   -7.5250   14.7980    2.7160 C   0  0  0  0  0  0  0  0  0  0  0  0
   -8.1780   13.4660    3.0510 C   0  0  0  0  0  0  0  0  0  0  0  0
   -5.4120   14.8020    1.4100 C   0  0  0  0  0  0  0  0  0  0  0  0
   -4.0290   14.9210    1.3650 C   0  0  0  0  0  0  0  0  0  0  0  0
   -6.1790   14.8300    0.3010 N   0  0  0  0  0  0  0  0  0  0  0  0
   -3.4030   15.0700    0.1440 C   0  0  0  0  0  0  0  0  0  0  0  0
   -5.5440   14.9790   -0.8880 C   0  0  0  0  0  0  0  0  0  0  0  0
   -4.1700   15.0980   -1.0090 C   0  0  0  0  0  0  0  0  0  0  0  0
   -3.5120   15.2440   -2.2560 C   0  0  0  0  0  0  0  0  0  0  0  0
   -2.8410   15.3320   -3.2370 C   0  0  0  0  0  0  0  0  0  0  0  0
   -1.8960   15.4050   -4.3530 C   0  0  0  0  0  0  0  0  0  0  0  0
   -1.3790   14.0010   -4.6550 C   0  0  0  0  0  0  0  0  0  0  0  0
    0.0210   13.6300   -4.1060 C   0  0  2  0  0  0  0  0  0  0  0  0
    0.1260   12.1780   -4.0120 N   0  0  0  0  0  0  0  0  0  0  0  0
    0.2340   14.0040   -2.6390 C   0  0  0  0  0  0  0  0  0  0  0  0
    0.3210   15.1390   -2.1950 O   0  0  0  0  0  0  0  0  0  0  0  0
    0.2250   11.7590   -2.6740 C   0  0  0  0  0  0  0  0  0  0  0  0
    0.3450   12.8740   -1.8970 N   0  0  0  0  0  0  0  0  0  0  0  0
   -0.3480   11.3790   -5.0820 C   0  0  0  0  0  0  0  0  0  0  0  0
    0.2090   10.6140   -2.2110 O   0  0  0  0  0  0  0  0  0  0  0  0
    0.1510   11.5530   -6.3780 C   0  0  0  0  0  0  0  0  0  0  0  0
   -1.3290   10.3940   -4.8820 C   0  0  0  0  0  0  0  0  0  0  0  0
   -0.3100   10.7720   -7.4410 C   0  0  0  0  0  0  0  0  0  0  0  0
   -1.7950    9.6070   -5.9420 C   0  0  0  0  0  0  0  0  0  0  0  0
   -1.2800    9.8020   -7.2200 C   0  0  0  0  0  0  0  0  0  0  0  0
   -1.8470    8.8420   -8.5270 Cl  0  0  0  0  0  0  0  0  0  0  0  0
  1  2  1  0
  2  3  1  0
  1  4  1  0
  4  5  2  0
  4  6  1  0
  5  7  1  0
  6  8  2  0
  7  9  2  0
  8  9  1  0
  9 10  1  0
 10 11  3  0
 11 12  1  0
 12 13  1  0
 14 13  1  1
 14 15  1  0
 14 16  1  0
 16 17  2  0
 15 18  1  0
 16 19  1  0
 18 19  1  0
 15 20  1  0
 18 21  2  0
 20 22  2  0
 20 23  1  0
 22 24  1  0
 23 25  2  0
 24 26  2  0
 25 26  1  0
 26 27  1  0
M  END
