x0685_1_A-x0711_0_A
     RDKit          3D

 24 25  0  0  0  0  0  0  0  0999 V2000
   -1.2030   10.9850   -4.6790 N   0  0  0  0  0  0  0  0  0  0  0  0
   -1.6100   12.4360   -4.4940 C   0  0  0  0  0  0  0  0  0  0  0  0
   -0.6660   13.3600   -3.5900 C   0  0  2  0  0  0  0  0  0  0  0  0
   -0.7160   10.6370   -6.0560 C   0  0  0  0  0  0  0  0  0  0  0  0
   -0.6510    9.1050   -6.2200 C   0  0  0  0  0  0  0  0  0  0  0  0
   -1.5870   11.1900   -7.2030 C   0  0  0  0  0  0  0  0  0  0  0  0
    0.4470   12.2380   -2.5040 S   0  0  0  0  0  0  0  0  0  0  0  0
   -1.4280   14.4180   -2.8110 N   0  0  0  0  0  0  0  0  0  0  0  0
    0.1990   14.0420   -4.4920 O   0  0  0  0  0  0  0  0  0  0  0  0
   -0.0720    8.6920   -7.5760 C   0  0  0  0  0  0  0  0  0  0  0  0
   -1.1240   10.7740   -8.6110 C   0  0  0  0  0  0  0  0  0  0  0  0
    1.9670   12.3910   -3.0190 O   0  0  0  0  0  0  0  0  0  0  0  0
    0.0100   10.6770   -2.5110 O   0  0  0  0  0  0  0  0  0  0  0  0
    0.2990   12.8120   -1.0160 O   0  0  0  0  0  0  0  0  0  0  0  0
   -0.8520    9.2740   -8.7570 C   0  0  0  0  0  0  0  0  0  0  0  0
   -2.5800   14.4630   -1.9860 C   0  0  0  0  0  0  0  0  0  0  0  0
   -3.8160   14.8300   -2.5640 C   0  0  0  0  0  0  0  0  0  0  0  0
   -2.6120   14.1790   -0.6070 C   0  0  0  0  0  0  0  0  0  0  0  0
   -5.0100   14.8990   -1.8170 C   0  0  0  0  0  0  0  0  0  0  0  0
   -3.8020   14.2440    0.1540 C   0  0  0  0  0  0  0  0  0  0  0  0
   -5.0100   14.6010   -0.4480 C   0  0  0  0  0  0  0  0  0  0  0  0
   -6.3040   14.6750    0.3000 C   0  0  0  0  0  0  0  0  0  0  0  0
   -6.2870   14.7660    1.6720 N   0  0  0  0  0  0  0  0  0  0  0  0
   -7.3780   14.6550   -0.2930 O   0  0  0  0  0  0  0  0  0  0  0  0
  1  2  1  0
  2  3  1  0
  1  4  1  0
  4  5  1  0
  4  6  1  0
  3  7  1  0
  3  8  1  0
  3  9  1  6
  5 10  1  0
  6 11  1  0
  7 12  1  0
  7 13  1  0
  7 14  1  0
 10 15  1  0
 11 15  1  0
  8 16  1  0
 16 17  2  0
 16 18  1  0
 17 19  1  0
 18 20  2  0
 19 21  2  0
 20 21  1  0
 21 22  1  0
 22 23  1  0
 22 24  2  0
M  END
