x0681_0_A-x1015_0_A
     RDKit          3D

 26 29  0  0  0  0  0  0  0  0999 V2000
   -4.2880   15.3390   -2.4630 N   0  0  0  0  0  0  0  0  0  0  0  0
   -3.1520   14.5970   -2.2100 C   0  0  0  0  0  0  0  0  0  0  0  0
   -2.2170   14.4480   -3.1770 N   0  0  0  0  0  0  0  0  0  0  0  0
   -3.1570   14.0220   -0.7470 C   0  0  2  0  0  0  0  0  0  0  0  0
   -4.4140   13.1700   -0.5880 C   0  0  0  0  0  0  0  0  0  0  0  0
   -3.1420   15.1450    0.3380 C   0  0  0  0  0  0  0  0  0  0  0  0
   -0.8650   13.7900   -3.3910 C   0  0  2  0  0  0  0  0  0  0  0  0
   -5.3510   13.3600    0.4020 N   0  0  0  0  0  0  0  0  0  0  0  0
   -3.8340   14.7690    1.6500 C   0  0  0  0  0  0  0  0  0  0  0  0
   -4.7860   12.1590   -1.3510 N   0  0  0  0  0  0  0  0  0  0  0  0
   -0.7690   12.3150   -3.5000 N   0  0  0  0  0  0  0  0  0  0  0  0
    0.1070   14.0590   -2.2430 C   0  0  0  0  0  0  0  0  0  0  0  0
    0.3770   15.1540   -1.7690 O   0  0  0  0  0  0  0  0  0  0  0  0
   -5.2770   14.3760    1.4090 C   0  0  0  0  0  0  0  0  0  0  0  0
   -6.3410   12.4390    0.2650 C   0  0  0  0  0  0  0  0  0  0  0  0
   -5.9750   11.7030   -0.8290 C   0  0  0  0  0  0  0  0  0  0  0  0
    0.0610   11.8360   -2.4750 C   0  0  0  0  0  0  0  0  0  0  0  0
    0.6460   12.8870   -1.8410 N   0  0  0  0  0  0  0  0  0  0  0  0
   -0.9140   11.5730   -4.7290 C   0  0  0  0  0  0  0  0  0  0  0  0
    0.2870   10.6690   -2.1370 O   0  0  0  0  0  0  0  0  0  0  0  0
   -0.2120   11.8810   -5.9210 C   0  0  0  0  0  0  0  0  0  0  0  0
   -1.7820   10.4710   -4.7750 C   0  0  0  0  0  0  0  0  0  0  0  0
   -0.3810   11.1180   -7.0930 C   0  0  0  0  0  0  0  0  0  0  0  0
   -1.9520    9.7110   -5.9370 C   0  0  0  0  0  0  0  0  0  0  0  0
   -1.2580   10.0300   -7.0910 C   0  0  0  0  0  0  0  0  0  0  0  0
   -1.4870    9.0800   -8.5070 Cl  0  0  0  0  0  0  0  0  0  0  0  0
  1  2  1  0
  2  3  2  3
  4  2  1  6
  4  5  1  0
  4  6  1  0
  7  3  1  1
  5  8  1  0
  6  9  1  0
  5 10  2  0
  7 11  1  0
  7 12  1  0
 12 13  2  0
  8 14  1  0
  9 14  1  0
  8 15  1  0
 10 16  1  0
 15 16  2  0
 11 17  1  0
 12 18  1  0
 17 18  1  0
 11 19  1  0
 17 20  2  0
 19 21  2  0
 19 22  1  0
 21 23  1  0
 22 24  2  0
 23 25  2  0
 24 25  1  0
 25 26  1  0
M  END
