x0689_0_A_α-x0905_0_A_α
     RDKit          3D

 14 15  0  0  0  0  0  0  0  0999 V2000
   -3.2130   15.0080    2.0500 N   0  0  0  0  0  0  0  0  0  0  0  0
   -2.0900   15.1350    1.1630 C   0  0  1  0  0  0  0  0  0  0  0  0
   -1.2360   14.2140    1.7800 N   0  0  0  0  0  0  0  0  0  0  0  0
   -2.3050   14.9270   -0.2360 N   0  0  0  0  0  0  0  0  0  0  0  0
   -1.2260   14.6030   -1.0210 C   0  0  0  0  0  0  0  0  0  0  0  0
    0.0000   14.2040    1.0620 C   0  0  0  0  0  0  0  0  0  0  0  0
   -3.6210   14.9860   -0.5820 C   0  0  0  0  0  0  0  0  0  0  0  0
   -0.0860   14.2500   -0.4290 C   0  0  0  0  0  0  0  0  0  0  0  0
   -4.6000   14.8740    0.4040 C   0  0  0  0  0  0  0  0  0  0  0  0
   -4.0610   15.1580   -1.8830 C   0  0  0  0  0  0  0  0  0  0  0  0
   -5.9210   14.9180    0.2070 N   0  0  0  0  0  0  0  0  0  0  0  0
   -5.4210   15.2090   -2.1330 C   0  0  0  0  0  0  0  0  0  0  0  0
   -6.2770   15.0870   -1.0610 C   0  0  0  0  0  0  0  0  0  0  0  0
   -7.6120   15.1300   -1.2340 O   0  0  0  0  0  0  0  0  0  0  0  0
  2  1  1  1
  2  3  1  0
  2  4  1  0
  4  5  1  0
  3  6  1  0
  4  7  1  0
  5  8  2  0
  6  8  1  0
  7  9  2  0
  7 10  1  0
  9 11  1  0
 10 12  2  0
 11 13  2  0
 12 13  1  0
 13 14  1  0
M  END
