x0689_0_A-x0371_0_A
     RDKit          3D

 26 29  0  0  0  0  0  0  0  0999 V2000
   -3.5330   14.1880    2.0410 N   0  0  0  0  0  0  0  0  0  0  0  0
   -4.6750   15.1260    2.0220 C   0  0  0  0  0  0  0  0  0  0  0  0
   -5.4920   14.9470    0.8860 N   0  0  0  0  0  0  0  0  0  0  0  0
   -2.4150   14.3410    1.2110 C   0  0  0  0  0  0  0  0  0  0  0  0
   -2.4700   14.2180   -0.1230 N   0  0  0  0  0  0  0  0  0  0  0  0
   -1.2890   14.6040    1.8540 N   0  0  0  0  0  0  0  0  0  0  0  0
   -1.3220   14.3850   -0.8200 C   0  0  0  0  0  0  0  0  0  0  0  0
   -0.1790   14.7660    1.1290 C   0  0  0  0  0  0  0  0  0  0  0  0
   -6.8090   14.5550    0.6400 C   0  0  0  0  0  0  0  0  0  0  0  0
   -4.8600   15.1980   -0.2350 C   0  0  0  0  0  0  0  0  0  0  0  0
   -7.8770   14.1720    1.6350 C   0  0  0  0  0  0  0  0  0  0  0  0
   -0.1210   14.6680   -0.2300 C   0  0  0  0  0  0  0  0  0  0  0  0
   -6.9810   14.5620   -0.6780 N   0  0  0  0  0  0  0  0  0  0  0  0
   -5.7700   14.9520   -1.2140 C   0  0  0  0  0  0  0  0  0  0  0  0
   -3.5520   15.6180   -0.4230 C   0  0  0  0  0  0  0  0  0  0  0  0
   -7.6360   14.7400    2.9390 N   0  0  0  0  0  0  0  0  0  0  0  0
   -3.1390   15.7840   -1.7250 C   0  0  0  0  0  0  0  0  0  0  0  0
   -5.3440   15.1240   -2.5290 C   0  0  0  0  0  0  0  0  0  0  0  0
   -8.5990   15.5240    3.5570 C   0  0  0  0  0  0  0  0  0  0  0  0
   -4.0190   15.5370   -2.7660 C   0  0  0  0  0  0  0  0  0  0  0  0
   -9.4260   16.1600    2.8990 O   0  0  0  0  0  0  0  0  0  0  0  0
   -8.5560   15.5370    5.0080 C   0  0  0  0  0  0  0  0  0  0  0  0
   -8.0500   14.4440    5.6540 O   0  0  0  0  0  0  0  0  0  0  0  0
   -8.9400   16.4700    5.9530 C   0  0  0  0  0  0  0  0  0  0  0  0
   -8.6470   15.9130    7.2250 C   0  0  0  0  0  0  0  0  0  0  0  0
   -8.1040   14.6780    6.9840 C   0  0  0  0  0  0  0  0  0  0  0  0
  1  2  1  0
  2  3  1  0
  1  4  1  0
  4  5  2  0
  4  6  1  0
  5  7  1  0
  6  8  2  0
  3  9  1  0
  3 10  1  0
  9 11  1  0
  7 12  2  0
  8 12  1  0
  9 13  2  0
 10 14  2  0
 13 14  1  0
 10 15  1  0
 11 16  1  0
 15 17  2  0
 14 18  1  0
 16 19  1  0
 17 20  1  0
 18 20  2  0
 19 21  2  0
 19 22  1  0
 22 23  1  0
 22 24  2  0
 24 25  1  0
 23 26  1  0
 25 26  2  0
M  END
