x0685_1_A-x0864_0_A
     RDKit          3D

 15 15  0  0  0  0  0  0  0  0999 V2000
   -0.8770   10.5750   -4.7740 N   0  0  0  0  0  0  0  0  0  0  0  0
   -1.3430   11.9400   -4.5230 C   0  0  0  0  0  0  0  0  0  0  0  0
   -0.2440   12.8330   -3.9640 C   0  0  0  0  0  0  0  0  0  0  0  0
   -1.1760   10.0720   -6.1220 C   0  0  2  0  0  0  0  0  0  0  0  0
   -0.6210    8.6530   -6.2840 C   0  0  0  0  0  0  0  0  0  0  0  0
   -0.5210   10.9530   -7.1880 C   0  0  0  0  0  0  0  0  0  0  0  0
    0.6330   12.0620   -2.6030 S   0  0  0  0  0  0  0  0  0  0  0  0
    0.2880   11.8510   -6.9220 O   0  0  0  0  0  0  0  0  0  0  0  0
    0.0890    8.5060   -7.6350 C   0  0  0  0  0  0  0  0  0  0  0  0
   -0.9050   10.6030   -8.6060 C   0  0  0  0  0  0  0  0  0  0  0  0
    2.1860   12.3270   -2.8720 O   0  0  0  0  0  0  0  0  0  0  0  0
    0.2970   10.4920   -2.5440 O   0  0  0  0  0  0  0  0  0  0  0  0
    0.1670   12.7640   -1.2450 O   0  0  0  0  0  0  0  0  0  0  0  0
   -0.8170    9.0870   -8.7150 C   0  0  2  0  0  0  0  0  0  0  0  0
   -2.5810    8.3060   -8.4110 Br  0  0  0  0  0  0  0  0  0  0  0  0
  1  2  1  0
  2  3  1  0
  4  1  1  1
  4  5  1  0
  4  6  1  0
  3  7  1  0
  6  8  2  0
  5  9  1  0
  6 10  1  0
  7 11  1  0
  7 12  1  0
  7 13  1  0
  9 14  1  0
 10 14  1  0
 14 15  1  1
M  END
