x0685_1_A-x0933_0_A
     RDKit          3D

 22 23  0  0  0  0  0  0  0  0999 V2000
   -1.1930   10.9820   -5.0340 N   0  0  0  0  0  0  0  0  0  0  0  0
   -1.0090   12.4560   -4.9490 C   0  0  0  0  0  0  0  0  0  0  0  0
    0.4510   12.8050   -4.6880 C   0  0  0  0  0  0  0  0  0  0  0  0
   -0.6780   10.4900   -6.3210 C   0  0  0  0  0  0  0  0  0  0  0  0
   -0.5780    8.9590   -6.3870 C   0  0  0  0  0  0  0  0  0  0  0  0
   -1.5680   11.0130   -7.4510 C   0  0  0  0  0  0  0  0  0  0  0  0
    0.9290   12.6610   -2.9640 S   0  0  0  0  0  0  0  0  0  0  0  0
    0.0110    8.4840   -7.7130 C   0  0  0  0  0  0  0  0  0  0  0  0
   -1.0230   10.5620   -8.8040 C   0  0  0  0  0  0  0  0  0  0  0  0
    2.5140   12.4480   -3.0270 O   0  0  0  0  0  0  0  0  0  0  0  0
    0.2450   11.3420   -2.3690 O   0  0  0  0  0  0  0  0  0  0  0  0
    0.5690   14.0910   -2.2770 O   0  0  0  0  0  0  0  0  0  0  0  0
   -0.7630    9.0510   -8.9010 C   0  0  0  0  0  0  0  0  0  0  0  0
   -0.4100   14.3610   -1.2620 C   0  0  0  0  0  0  0  0  0  0  0  0
   -1.8110   14.5300   -1.8980 C   0  0  0  0  0  0  0  0  0  0  0  0
   -2.9620   14.9630   -0.9340 C   0  0  1  0  0  0  0  0  0  0  0  0
   -4.2750   14.2190   -1.1940 C   0  0  0  0  0  0  0  0  0  0  0  0
   -2.6180   14.8420    0.5510 C   0  0  0  0  0  0  0  0  0  0  0  0
   -5.3730   14.8240   -0.4370 N   0  0  0  0  0  0  0  0  0  0  0  0
   -3.8180   14.4380    1.2650 N   0  0  0  0  0  0  0  0  0  0  0  0
   -4.9380   15.2110    0.8670 C   0  0  2  0  0  0  0  0  0  0  0  0
   -5.9860   14.7710    1.7170 N   0  0  0  0  0  0  0  0  0  0  0  0
  1  2  1  0
  2  3  1  0
  1  4  1  0
  4  5  1  0
  4  6  1  0
  3  7  1  0
  5  8  1  0
  6  9  1  0
  7 10  1  0
  7 11  1  0
  7 12  1  0
  8 13  1  0
  9 13  1  0
 12 14  1  0
 14 15  1  0
 16 15  1  6
 16 17  1  0
 16 18  1  0
 17 19  1  0
 18 20  1  0
 19 21  1  0
 20 21  1  0
 21 22  1  1
M  END
