x0685_1_A-x0864_0_A
     RDKit          3D

 15 15  0  0  0  0  0  0  0  0999 V2000
   -0.8620   10.5670   -4.7630 N   0  0  0  0  0  0  0  0  0  0  0  0
   -1.3270   11.9330   -4.5230 C   0  0  0  0  0  0  0  0  0  0  0  0
   -0.2360   12.8330   -3.9570 C   0  0  0  0  0  0  0  0  0  0  0  0
   -1.1650   10.0610   -6.1100 C   0  0  2  0  0  0  0  0  0  0  0  0
   -0.6090    8.6450   -6.2810 C   0  0  0  0  0  0  0  0  0  0  0  0
   -0.5140   10.9450   -7.1760 C   0  0  0  0  0  0  0  0  0  0  0  0
    0.6430   12.0670   -2.5960 S   0  0  0  0  0  0  0  0  0  0  0  0
    0.2990   11.8410   -6.9060 O   0  0  0  0  0  0  0  0  0  0  0  0
    0.0970    8.5110   -7.6330 C   0  0  0  0  0  0  0  0  0  0  0  0
   -0.8980   10.6030   -8.5910 C   0  0  0  0  0  0  0  0  0  0  0  0
    2.1940   12.3410   -2.8640 O   0  0  0  0  0  0  0  0  0  0  0  0
    0.3130   10.4960   -2.5380 O   0  0  0  0  0  0  0  0  0  0  0  0
    0.1690   12.7660   -1.2400 O   0  0  0  0  0  0  0  0  0  0  0  0
   -0.8220    9.0870   -8.7060 C   0  0  2  0  0  0  0  0  0  0  0  0
   -2.5850    8.3170   -8.3790 Br  0  0  0  0  0  0  0  0  0  0  0  0
  1  2  1  0
  2  3  1  0
  4  1  1  1
  4  5  1  0
  4  6  1  0
  3  7  1  0
  6  8  2  0
  5  9  1  0
  6 10  1  0
  7 11  1  0
  7 12  1  0
  7 13  1  0
  9 14  1  0
 10 14  1  0
 14 15  1  1
M  END
