x0681_0_A-x0626_0_A
     RDKit          3D

 22 24  0  0  0  0  0  0  0  0999 V2000
   -4.2560   15.3220   -3.2600 N   0  0  0  0  0  0  0  0  0  0  0  0
   -3.6060   15.1450   -2.0860 C   0  0  0  0  0  0  0  0  0  0  0  0
   -2.3880   15.0190   -2.0880 O   0  0  0  0  0  0  0  0  0  0  0  0
   -4.5440   15.1100   -0.8720 C   0  0  1  0  0  0  0  0  0  0  0  0
   -5.1300   13.7150   -0.7340 C   0  0  0  0  0  0  0  0  0  0  0  0
   -3.9850   15.7740    0.4270 C   0  0  0  0  0  0  0  0  0  0  0  0
   -5.2940   13.1220    0.4700 N   0  0  0  0  0  0  0  0  0  0  0  0
   -4.4930   15.2540    1.7850 C   0  0  0  0  0  0  0  0  0  0  0  0
   -5.5550   12.9090   -1.6930 N   0  0  0  0  0  0  0  0  0  0  0  0
   -4.8950   13.7980    1.6710 C   0  0  2  0  0  0  0  0  0  0  0  0
   -5.8630   11.9040    0.2920 C   0  0  0  0  0  0  0  0  0  0  0  0
   -6.0150   11.7840   -1.0640 C   0  0  0  0  0  0  0  0  0  0  0  0
   -3.4960   13.8840    1.0220 C   0  0  0  0  0  0  0  0  0  0  0  0
   -6.2220   14.5140    1.2570 C   0  0  0  0  0  0  0  0  0  0  0  0
   -2.4010   14.4360    1.5770 N   0  0  0  0  0  0  0  0  0  0  0  0
   -3.2040   13.2640   -0.5710 S   0  0  0  0  0  0  0  0  0  0  0  0
   -6.3230   15.1520    0.1990 O   0  0  0  0  0  0  0  0  0  0  0  0
   -7.4490   14.4080    2.1380 C   0  0  0  0  0  0  0  0  0  0  0  0
   -1.5880   13.7660   -0.5030 C   0  0  0  0  0  0  0  0  0  0  0  0
   -1.3350   14.3620    0.6940 C   0  0  0  0  0  0  0  0  0  0  0  0
   -8.7130   14.6210    1.3200 C   0  0  0  0  0  0  0  0  0  0  0  0
   -0.0360   14.9060    1.0660 C   0  0  0  0  0  0  0  0  0  0  0  0
  1  2  1  0
  2  3  2  0
  4  2  1  6
  4  5  1  0
  4  6  1  0
  5  7  1  0
  6  8  1  0
  5  9  2  0
  7 10  1  0
  8 10  1  0
  7 11  1  0
  9 12  1  0
 11 12  2  0
 10 13  1  0
 10 14  1  1
 13 15  2  0
 13 16  1  0
 14 17  2  0
 14 18  1  0
 16 19  1  0
 15 20  1  0
 19 20  2  0
 18 21  1  0
 20 22  1  0
M  END
