x0689_0_A-x0711_0_A
     RDKit          3D

 21 22  0  0  0  0  0  0  0  0999 V2000
   -3.7340   14.6560    2.0470 N   0  0  0  0  0  0  0  0  0  0  0  0
   -4.9970   15.3170    1.7170 C   0  0  0  0  0  0  0  0  0  0  0  0
   -5.7170   14.7470    0.4910 C   0  0  0  0  0  0  0  0  0  0  0  0
   -2.5450   14.8380    1.3360 C   0  0  0  0  0  0  0  0  0  0  0  0
   -2.5360   15.4260    0.1330 N   0  0  0  0  0  0  0  0  0  0  0  0
   -1.4560   14.3840    1.9270 N   0  0  0  0  0  0  0  0  0  0  0  0
   -6.9020   14.3850    0.3920 O   0  0  0  0  0  0  0  0  0  0  0  0
   -1.3290   15.5340   -0.4810 C   0  0  0  0  0  0  0  0  0  0  0  0
   -0.2990   14.5030    1.2950 C   0  0  0  0  0  0  0  0  0  0  0  0
   -4.7810   14.7250   -0.6120 C   0  0  0  0  0  0  0  0  0  0  0  0
   -0.1550   15.0760    0.0660 C   0  0  0  0  0  0  0  0  0  0  0  0
   -4.9610   15.4310   -1.7820 C   0  0  0  0  0  0  0  0  0  0  0  0
   -3.6400   13.9530   -0.4020 C   0  0  0  0  0  0  0  0  0  0  0  0
   -3.9630   15.3840   -2.7420 C   0  0  0  0  0  0  0  0  0  0  0  0
   -2.6450   13.9100   -1.3670 C   0  0  0  0  0  0  0  0  0  0  0  0
   -2.8160   14.6450   -2.5310 C   0  0  0  0  0  0  0  0  0  0  0  0
   -1.8380   14.6840   -3.5510 N   0  0  0  0  0  0  0  0  0  0  0  0
   -0.3990   13.8110   -3.4210 S   0  0  0  0  0  0  0  0  0  0  0  0
   -0.8800   12.3760   -4.3450 C   0  0  0  0  0  0  0  0  0  0  0  0
    0.5380   14.5660   -4.2200 O   0  0  0  0  0  0  0  0  0  0  0  0
   -0.0910   13.4300   -2.0620 O   0  0  0  0  0  0  0  0  0  0  0  0
  1  2  1  0
  2  3  1  0
  1  4  1  0
  4  5  2  0
  4  6  1  0
  3  7  2  0
  5  8  1  0
  6  9  2  0
  3 10  1  0
  8 11  2  0
  9 11  1  0
 10 12  2  0
 10 13  1  0
 12 14  1  0
 13 15  2  0
 14 16  2  0
 15 16  1  0
 16 17  1  0
 18 17  1  0
 18 19  1  0
 18 20  2  0
 18 21  2  0
M  END
