x0689_0_A-x0722_0_A
     RDKit          3D

 12 12  0  0  0  0  0  0  0  0999 V2000
   -3.6200   14.5010    1.8040 N   0  0  0  0  0  0  0  0  0  0  0  0
   -4.7140   15.4300    1.7990 C   0  0  0  0  0  0  0  0  0  0  0  0
   -2.5910   14.9280    0.9190 C   0  0  2  0  0  0  0  0  0  0  0  0
   -2.7810   14.6590   -0.4920 N   0  0  0  0  0  0  0  0  0  0  0  0
   -1.4240   14.4170    1.5950 N   0  0  0  0  0  0  0  0  0  0  0  0
   -4.0340   15.2600   -1.0830 C   0  0  0  0  0  0  0  0  0  0  0  0
   -1.6070   14.5770   -1.2260 C   0  0  0  0  0  0  0  0  0  0  0  0
   -0.2040   14.4290    0.8210 C   0  0  0  0  0  0  0  0  0  0  0  0
   -5.3930   14.6200   -0.6850 C   0  0  0  0  0  0  0  0  0  0  0  0
   -0.3900   14.4730   -0.6610 C   0  0  0  0  0  0  0  0  0  0  0  0
   -6.4770   15.2000   -0.8050 O   0  0  0  0  0  0  0  0  0  0  0  0
   -5.3720   13.3500   -0.1860 N   0  0  0  0  0  0  0  0  0  0  0  0
  1  2  1  0
  3  1  1  1
  3  4  1  0
  3  5  1  0
  4  6  1  0
  4  7  1  0
  5  8  1  0
  6  9  1  0
  7 10  2  0
  8 10  1  0
  9 11  2  0
  9 12  1  0
M  END
