x0681_0_A-x0855_0_A
     RDKit          3D

 24 26  0  0  0  0  0  0  0  0999 V2000
   -4.2290   15.3970   -3.0350 N   0  0  0  0  0  0  0  0  0  0  0  0
   -3.3680   14.9190   -2.0890 C   0  0  0  0  0  0  0  0  0  0  0  0
   -2.1500   14.5520   -2.3530 N   0  0  0  0  0  0  0  0  0  0  0  0
   -4.0620   14.8840   -0.7080 C   0  0  1  0  0  0  0  0  0  0  0  0
   -1.1370   14.0250   -1.4300 C   0  0  0  0  0  0  0  0  0  0  0  0
   -4.8400   13.6150   -0.5890 C   0  0  0  0  0  0  0  0  0  0  0  0
   -3.3360   15.3030    0.5760 C   0  0  0  0  0  0  0  0  0  0  0  0
    0.2320   14.3080   -2.0870 C   0  0  0  0  0  0  0  0  0  0  0  0
   -5.5420   13.4190    0.5370 N   0  0  0  0  0  0  0  0  0  0  0  0
   -4.0890   14.8830    1.8440 C   0  0  0  0  0  0  0  0  0  0  0  0
   -4.9860   12.6050   -1.4230 N   0  0  0  0  0  0  0  0  0  0  0  0
    1.0670   13.1220   -2.1670 O   0  0  0  0  0  0  0  0  0  0  0  0
   -5.5200   14.3960    1.5760 C   0  0  0  0  0  0  0  0  0  0  0  0
   -6.1940   12.2300    0.4620 C   0  0  0  0  0  0  0  0  0  0  0  0
   -5.8340   11.7350   -0.7710 C   0  0  0  0  0  0  0  0  0  0  0  0
    0.7230   12.1260   -3.0360 C   0  0  0  0  0  0  0  0  0  0  0  0
    0.5640   10.9570   -2.6950 O   0  0  0  0  0  0  0  0  0  0  0  0
    0.5480   12.5830   -4.4630 C   0  0  0  0  0  0  0  0  0  0  0  0
   -0.4390   11.7190   -5.0730 N   0  0  0  0  0  0  0  0  0  0  0  0
   -0.2660   10.8070   -6.0800 C   0  0  0  0  0  0  0  0  0  0  0  0
   -1.7110   11.7710   -4.6210 N   0  0  0  0  0  0  0  0  0  0  0  0
   -1.4990   10.2370   -6.2680 C   0  0  0  0  0  0  0  0  0  0  0  0
   -2.3530   10.8610   -5.3550 C   0  0  0  0  0  0  0  0  0  0  0  0
   -1.9910    8.9050   -7.4670 Br  0  0  0  0  0  0  0  0  0  0  0  0
  1  2  1  0
  2  3  2  3
  4  2  1  6
  3  5  1  0
  4  6  1  0
  4  7  1  0
  5  8  1  0
  6  9  1  0
  7 10  1  0
  6 11  2  0
  8 12  1  0
  9 13  1  0
 10 13  1  0
  9 14  1  0
 11 15  1  0
 14 15  2  0
 12 16  1  0
 16 17  2  0
 16 18  1  0
 18 19  1  0
 19 20  1  0
 19 21  1  0
 20 22  2  0
 21 23  2  0
 22 23  1  0
 22 24  1  0
M  END
