x0689_0_A-x0371_0_A
     RDKit          3D

 26 29  0  0  0  0  0  0  0  0999 V2000
   -3.5330   14.1880    2.0400 N   0  0  0  0  0  0  0  0  0  0  0  0
   -4.6760   15.1260    2.0230 C   0  0  0  0  0  0  0  0  0  0  0  0
   -5.4930   14.9480    0.8860 N   0  0  0  0  0  0  0  0  0  0  0  0
   -2.4140   14.3410    1.2100 C   0  0  0  0  0  0  0  0  0  0  0  0
   -2.4710   14.2190   -0.1250 N   0  0  0  0  0  0  0  0  0  0  0  0
   -1.2890   14.6030    1.8530 N   0  0  0  0  0  0  0  0  0  0  0  0
   -1.3220   14.3850   -0.8180 C   0  0  0  0  0  0  0  0  0  0  0  0
   -0.1770   14.7660    1.1280 C   0  0  0  0  0  0  0  0  0  0  0  0
   -6.8080   14.5560    0.6380 C   0  0  0  0  0  0  0  0  0  0  0  0
   -4.8610   15.2000   -0.2360 C   0  0  0  0  0  0  0  0  0  0  0  0
   -7.8780   14.1710    1.6330 C   0  0  0  0  0  0  0  0  0  0  0  0
   -0.1220   14.6680   -0.2310 C   0  0  0  0  0  0  0  0  0  0  0  0
   -6.9820   14.5630   -0.6800 N   0  0  0  0  0  0  0  0  0  0  0  0
   -5.7690   14.9540   -1.2150 C   0  0  0  0  0  0  0  0  0  0  0  0
   -3.5520   15.6210   -0.4210 C   0  0  0  0  0  0  0  0  0  0  0  0
   -7.6390   14.7400    2.9400 N   0  0  0  0  0  0  0  0  0  0  0  0
   -3.1410   15.7840   -1.7240 C   0  0  0  0  0  0  0  0  0  0  0  0
   -5.3450   15.1240   -2.5290 C   0  0  0  0  0  0  0  0  0  0  0  0
   -8.6000   15.5260    3.5600 C   0  0  0  0  0  0  0  0  0  0  0  0
   -4.0180   15.5370   -2.7660 C   0  0  0  0  0  0  0  0  0  0  0  0
   -9.4280   16.1630    2.9030 O   0  0  0  0  0  0  0  0  0  0  0  0
   -8.5560   15.5420    5.0100 C   0  0  0  0  0  0  0  0  0  0  0  0
   -8.0490   14.4480    5.6570 O   0  0  0  0  0  0  0  0  0  0  0  0
   -8.9380   16.4740    5.9590 C   0  0  0  0  0  0  0  0  0  0  0  0
   -8.6450   15.9170    7.2290 C   0  0  0  0  0  0  0  0  0  0  0  0
   -8.1010   14.6810    6.9870 C   0  0  0  0  0  0  0  0  0  0  0  0
  1  2  1  0
  2  3  1  0
  1  4  1  0
  4  5  2  0
  4  6  1  0
  5  7  1  0
  6  8  2  0
  3  9  1  0
  3 10  1  0
  9 11  1  0
  7 12  2  0
  8 12  1  0
  9 13  2  0
 10 14  2  0
 13 14  1  0
 10 15  1  0
 11 16  1  0
 15 17  2  0
 14 18  1  0
 16 19  1  0
 17 20  1  0
 18 20  2  0
 19 21  2  0
 19 22  1  0
 22 23  1  0
 22 24  2  0
 24 25  1  0
 23 26  1  0
 25 26  2  0
M  END
