x0681_0_A_α-x0962_3_A_α
     RDKit          3D

 24 26  0  0  0  0  0  0  0  0999 V2000
   -4.2180   15.5440   -2.4720 N   0  0  0  0  0  0  0  0  0  0  0  0
   -3.2810   14.7860   -1.8200 C   0  0  0  0  0  0  0  0  0  0  0  0
   -2.1950   14.4710   -2.4720 N   0  0  0  0  0  0  0  0  0  0  0  0
   -3.5870   14.3560   -0.3810 C   0  0  2  0  0  0  0  0  0  0  0  0
   -1.9830   14.9170   -3.8490 C   0  0  0  0  0  0  0  0  0  0  0  0
   -4.6890   13.3380   -0.3740 C   0  0  0  0  0  0  0  0  0  0  0  0
   -3.9930   15.5660    0.4710 C   0  0  0  0  0  0  0  0  0  0  0  0
   -1.5710   13.7170   -4.7170 C   0  0  0  0  0  0  0  0  0  0  0  0
   -5.6150   13.2900    0.6330 N   0  0  0  0  0  0  0  0  0  0  0  0
   -4.3970   15.0600    1.8380 C   0  0  0  0  0  0  0  0  0  0  0  0
   -4.9340   12.3980   -1.2640 N   0  0  0  0  0  0  0  0  0  0  0  0
   -0.0990   13.3110   -4.5090 C   0  0  0  0  0  0  0  0  0  0  0  0
   -5.6400   14.1780    1.7700 C   0  0  0  0  0  0  0  0  0  0  0  0
   -6.4850   12.2780    0.3770 C   0  0  0  0  0  0  0  0  0  0  0  0
   -6.0460   11.7370   -0.8050 C   0  0  0  0  0  0  0  0  0  0  0  0
    0.6830   13.2080   -5.8190 C   0  0  0  0  0  0  0  0  0  0  0  0
    0.9760   11.7930   -6.3340 C   0  0  0  0  0  0  0  0  0  0  0  0
    0.3180   11.2930   -7.6470 C   0  0  1  0  0  0  0  0  0  0  0  0
    1.1980   11.1770   -8.7790 N   0  0  0  0  0  0  0  0  0  0  0  0
   -0.3500    9.9950   -7.5180 C   0  0  0  0  0  0  0  0  0  0  0  0
    0.0490    8.8630   -8.1890 N   0  0  0  0  0  0  0  0  0  0  0  0
   -1.4330    9.6070   -6.7830 C   0  0  0  0  0  0  0  0  0  0  0  0
   -0.8010    7.8600   -7.8340 C   0  0  0  0  0  0  0  0  0  0  0  0
   -1.7090    8.2850   -6.9860 N   0  0  0  0  0  0  0  0  0  0  0  0
  1  2  1  0
  2  3  2  3
  4  2  1  6
  3  5  1  0
  4  6  1  0
  4  7  1  0
  5  8  1  0
  6  9  1  0
  7 10  1  0
  6 11  2  0
  8 12  1  0
  9 13  1  0
 10 13  1  0
  9 14  1  0
 11 15  1  0
 14 15  2  0
 12 16  1  0
 16 17  1  0
 17 18  1  0
 18 19  1  6
 18 20  1  0
 20 21  1  0
 20 22  2  0
 21 23  1  0
 22 24  1  0
 23 24  2  0
M  END
