x0681_0_A-x0900_0_A
     RDKit          3D

 13 14  0  0  0  0  0  0  0  0999 V2000
   -3.8200   15.3970   -3.0790 N   0  0  0  0  0  0  0  0  0  0  0  0
   -3.2520   14.9170   -1.9440 C   0  0  0  0  0  0  0  0  0  0  0  0
   -2.0920   14.5280   -1.9400 O   0  0  0  0  0  0  0  0  0  0  0  0
   -4.2030   14.9210   -0.7670 C   0  0  1  0  0  0  0  0  0  0  0  0
   -4.8980   13.6040   -0.6760 C   0  0  0  0  0  0  0  0  0  0  0  0
   -3.6540   15.3710    0.6050 C   0  0  0  0  0  0  0  0  0  0  0  0
   -5.7490   13.4470    0.3460 N   0  0  0  0  0  0  0  0  0  0  0  0
   -4.5860   14.9430    1.7480 C   0  0  0  0  0  0  0  0  0  0  0  0
   -4.8420   12.5310   -1.4420 N   0  0  0  0  0  0  0  0  0  0  0  0
   -5.9230   14.4700    1.2240 C   0  0  0  0  0  0  0  0  0  0  0  0
   -6.2950   12.1980    0.2660 C   0  0  0  0  0  0  0  0  0  0  0  0
   -5.7210   11.6470   -0.8530 C   0  0  0  0  0  0  0  0  0  0  0  0
   -7.0500   14.8880    1.4190 O   0  0  0  0  0  0  0  0  0  0  0  0
  1  2  1  0
  2  3  2  0
  4  2  1  6
  4  5  1  0
  4  6  1  0
  5  7  1  0
  6  8  1  0
  5  9  2  0
  7 10  1  0
  8 10  1  0
  7 11  1  0
  9 12  1  0
 11 12  2  0
 10 13  2  0
M  END
