x0689_0_A-x0864_0_A
     RDKit          3D

 21 22  0  0  0  0  0  0  0  0999 V2000
   -3.6780   15.2740    1.6780 N   0  0  0  0  0  0  0  0  0  0  0  0
   -4.7750   15.3530    0.7560 C   0  0  0  0  0  0  0  0  0  0  0  0
   -2.5200   14.8500    1.0620 C   0  0  0  0  0  0  0  0  0  0  0  0
   -2.5760   14.8410   -0.2740 N   0  0  0  0  0  0  0  0  0  0  0  0
   -1.4490   14.4860    1.7630 N   0  0  0  0  0  0  0  0  0  0  0  0
   -1.4850   14.4320   -0.9330 C   0  0  0  0  0  0  0  0  0  0  0  0
   -0.3780   14.0810    1.0640 C   0  0  0  0  0  0  0  0  0  0  0  0
   -0.3310   14.0270   -0.3180 C   0  0  0  0  0  0  0  0  0  0  0  0
    0.8410   13.5640   -1.1100 C   0  0  0  0  0  0  0  0  0  0  0  0
    0.7420   13.7530   -2.5310 N   0  0  0  0  0  0  0  0  0  0  0  0
    0.6570   12.7620   -3.3360 C   0  0  0  0  0  0  0  0  0  0  0  0
    0.5430   12.8460   -4.8360 C   0  0  0  0  0  0  0  0  0  0  0  0
    0.6690   11.5120   -2.8220 O   0  0  0  0  0  0  0  0  0  0  0  0
   -0.0800   11.6780   -5.4250 N   0  0  0  0  0  0  0  0  0  0  0  0
   -1.2810   11.1780   -4.9400 C   0  0  0  0  0  0  0  0  0  0  0  0
    0.5020   11.2140   -6.5830 C   0  0  0  0  0  0  0  0  0  0  0  0
    1.5300   11.6720   -7.0550 O   0  0  0  0  0  0  0  0  0  0  0  0
   -1.8950   10.1700   -5.5670 C   0  0  0  0  0  0  0  0  0  0  0  0
   -0.1680   10.0830   -7.2550 C   0  0  0  0  0  0  0  0  0  0  0  0
   -1.3100    9.5960   -6.7550 C   0  0  0  0  0  0  0  0  0  0  0  0
   -2.1860    8.1650   -7.5660 Br  0  0  0  0  0  0  0  0  0  0  0  0
  1  2  1  0
  1  3  1  0
  3  4  2  0
  3  5  1  0
  4  6  1  0
  5  7  2  0
  6  8  2  0
  7  8  1  0
  8  9  1  0
  9 10  1  0
 10 11  2  3
 11 12  1  0
 11 13  1  0
 12 14  1  0
 14 15  1  0
 14 16  1  0
 16 17  2  0
 15 18  2  0
 16 19  1  0
 18 20  1  0
 19 20  2  0
 20 21  1  0
M  END
