x0685_1_A-x0282_0_A
     RDKit          3D

 27 29  0  0  0  0  0  0  0  0999 V2000
   -1.4330   10.5590   -4.9290 N   0  0  0  0  0  0  0  0  0  0  0  0
   -1.3620   11.9740   -4.5120 C   0  0  0  0  0  0  0  0  0  0  0  0
    0.0730   12.4800   -4.4650 C   0  0  0  0  0  0  0  0  0  0  0  0
   -0.7990   10.3360   -6.2430 C   0  0  0  0  0  0  0  0  0  0  0  0
   -0.6020    8.8330   -6.4660 C   0  0  0  0  0  0  0  0  0  0  0  0
   -1.6170   10.9370   -7.4060 C   0  0  0  0  0  0  0  0  0  0  0  0
    0.6900   12.6010   -2.7970 S   0  0  0  0  0  0  0  0  0  0  0  0
    0.0850    8.5850   -7.8140 C   0  0  0  0  0  0  0  0  0  0  0  0
   -1.0090   10.6490   -8.7860 C   0  0  0  0  0  0  0  0  0  0  0  0
    2.2840   12.4650   -2.9590 O   0  0  0  0  0  0  0  0  0  0  0  0
    0.0580   11.3710   -1.9580 O   0  0  0  0  0  0  0  0  0  0  0  0
    0.1880   14.0620   -2.3080 O   0  0  0  0  0  0  0  0  0  0  0  0
   -0.7000    9.1680   -8.9910 C   0  0  0  0  0  0  0  0  0  0  0  0
   -0.4110   14.2360   -1.0740 C   0  0  0  0  0  0  0  0  0  0  0  0
   -1.7330   14.1980   -0.9370 N   0  0  0  0  0  0  0  0  0  0  0  0
    0.4390   14.4350   -0.0590 C   0  0  0  0  0  0  0  0  0  0  0  0
   -0.1340   14.5810    1.1830 C   0  0  0  0  0  0  0  0  0  0  0  0
   -2.2230   14.3550    0.2950 C   0  0  0  0  0  0  0  0  0  0  0  0
   -3.6000   14.3200    0.4380 N   0  0  0  0  0  0  0  0  0  0  0  0
   -1.4530   14.5400    1.3920 N   0  0  0  0  0  0  0  0  0  0  0  0
   -4.0830   15.0310    1.5900 C   0  0  0  0  0  0  0  0  0  0  0  0
   -4.3010   14.5960   -0.8260 C   0  0  0  0  0  0  0  0  0  0  0  0
   -5.4940   14.5360    1.8590 C   0  0  0  0  0  0  0  0  0  0  0  0
   -5.6980   15.1860   -0.5920 C   0  0  0  0  0  0  0  0  0  0  0  0
   -6.4310   14.6380    0.6500 C   0  0  0  0  0  0  0  0  0  0  0  0
   -7.2490   13.3800    0.4050 C   0  0  0  0  0  0  0  0  0  0  0  0
   -8.6150   13.6950    0.1760 O   0  0  0  0  0  0  0  0  0  0  0  0
  1  2  1  0
  2  3  1  0
  1  4  1  0
  4  5  1  0
  4  6  1  0
  3  7  1  0
  5  8  1  0
  6  9  1  0
  7 10  1  0
  7 11  1  0
  7 12  1  0
  8 13  1  0
  9 13  1  0
 12 14  1  0
 14 15  2  0
 14 16  1  0
 16 17  2  0
 15 18  1  0
 18 19  1  0
 17 20  1  0
 18 20  2  0
 19 21  1  0
 19 22  1  0
 21 23  1  0
 22 24  1  0
 23 25  1  0
 24 25  1  0
 25 26  1  0
 26 27  1  0
M  END
