x0685_1_A-x0465_0_A
     RDKit          3D

 16 17  0  0  0  0  0  0  0  0999 V2000
   -1.7850   10.9640   -4.8390 N   0  0  0  0  0  0  0  0  0  0  0  0
   -1.3990   12.3650   -4.5530 C   0  0  0  0  0  0  0  0  0  0  0  0
    0.1240   12.2870   -4.5220 C   0  0  2  0  0  0  0  0  0  0  0  0
   -0.8510   10.6400   -5.9210 C   0  0  1  0  0  0  0  0  0  0  0  0
    0.4070   11.2020   -5.4780 O   0  0  0  0  0  0  0  0  0  0  0  0
   -0.7200    9.1020   -6.1370 C   0  0  0  0  0  0  0  0  0  0  0  0
   -1.3510   11.3680   -7.2000 C   0  0  0  0  0  0  0  0  0  0  0  0
    0.7340   11.9090   -2.8190 S   0  0  0  0  0  0  0  0  0  0  0  0
    0.8950   13.5040   -5.0680 C   0  0  0  0  0  0  0  0  0  0  0  0
   -0.2280    8.6640   -7.5200 C   0  0  2  0  0  0  0  0  0  0  0  0
   -0.9020   10.8040   -8.5560 C   0  0  0  0  0  0  0  0  0  0  0  0
    2.2900   12.2750   -2.8330 O   0  0  0  0  0  0  0  0  0  0  0  0
    0.4800   10.3350   -2.5880 O   0  0  0  0  0  0  0  0  0  0  0  0
    0.0050   12.6910   -1.6220 O   0  0  0  0  0  0  0  0  0  0  0  0
    1.0540    9.0860   -7.6620 F   0  0  0  0  0  0  0  0  0  0  0  0
   -0.9990    9.2840   -8.6560 C   0  0  0  0  0  0  0  0  0  0  0  0
  1  2  1  0
  2  3  1  0
  1  4  1  0
  3  5  1  0
  4  5  1  0
  4  6  1  6
  4  7  1  0
  3  8  1  0
  3  9  1  6
  6 10  1  0
  7 11  1  0
  8 12  1  0
  8 13  1  0
  8 14  1  0
 10 15  1  6
 10 16  1  0
 11 16  1  0
M  END
