x0681_0_A_α-x0855_0_A_α
     RDKit          3D

 24 26  0  0  0  0  0  0  0  0999 V2000
   -4.2320   15.3720   -3.0500 N   0  0  0  0  0  0  0  0  0  0  0  0
   -3.3710   14.9020   -2.1010 C   0  0  0  0  0  0  0  0  0  0  0  0
   -2.1460   14.5420   -2.3590 N   0  0  0  0  0  0  0  0  0  0  0  0
   -4.0750   14.8690   -0.7240 C   0  0  1  0  0  0  0  0  0  0  0  0
   -1.1240   14.0240   -1.4350 C   0  0  0  0  0  0  0  0  0  0  0  0
   -4.8550   13.6020   -0.5960 C   0  0  0  0  0  0  0  0  0  0  0  0
   -3.3570   15.2950    0.5610 C   0  0  0  0  0  0  0  0  0  0  0  0
    0.2430   14.3060   -2.0930 C   0  0  0  0  0  0  0  0  0  0  0  0
   -5.5500   13.4100    0.5330 N   0  0  0  0  0  0  0  0  0  0  0  0
   -4.0980   14.8710    1.8340 C   0  0  0  0  0  0  0  0  0  0  0  0
   -5.0070   12.5910   -1.4280 N   0  0  0  0  0  0  0  0  0  0  0  0
    1.0800   13.1200   -2.1830 O   0  0  0  0  0  0  0  0  0  0  0  0
   -5.5270   14.3830    1.5740 C   0  0  0  0  0  0  0  0  0  0  0  0
   -6.2000   12.2220    0.4630 C   0  0  0  0  0  0  0  0  0  0  0  0
   -5.8520   11.7230   -0.7700 C   0  0  0  0  0  0  0  0  0  0  0  0
    0.7310   12.1230   -3.0510 C   0  0  0  0  0  0  0  0  0  0  0  0
    0.5770   10.9550   -2.7090 O   0  0  0  0  0  0  0  0  0  0  0  0
    0.5520   12.5780   -4.4770 C   0  0  0  0  0  0  0  0  0  0  0  0
   -0.4390   11.7150   -5.0830 N   0  0  0  0  0  0  0  0  0  0  0  0
   -0.2740   10.8060   -6.0930 C   0  0  0  0  0  0  0  0  0  0  0  0
   -1.7050   11.7670   -4.6210 N   0  0  0  0  0  0  0  0  0  0  0  0
   -1.5080   10.2380   -6.2710 C   0  0  0  0  0  0  0  0  0  0  0  0
   -2.3540   10.8590   -5.3520 C   0  0  0  0  0  0  0  0  0  0  0  0
   -2.0120    8.9090   -7.4720 Br  0  0  0  0  0  0  0  0  0  0  0  0
  1  2  1  0
  2  3  2  3
  4  2  1  6
  3  5  1  0
  4  6  1  0
  4  7  1  0
  5  8  1  0
  6  9  1  0
  7 10  1  0
  6 11  2  0
  8 12  1  0
  9 13  1  0
 10 13  1  0
  9 14  1  0
 11 15  1  0
 14 15  2  0
 12 16  1  0
 16 17  2  0
 16 18  1  0
 18 19  1  0
 19 20  1  0
 19 21  1  0
 20 22  2  0
 21 23  2  0
 22 23  1  0
 22 24  1  0
M  END
