x0685_1_A-x1015_0_A
     RDKit          3D

 17 18  0  0  0  0  0  0  0  0999 V2000
   -1.9290   10.5050   -4.4010 N   0  0  0  0  0  0  0  0  0  0  0  0
   -1.5950   10.7920   -3.0960 C   0  0  0  0  0  0  0  0  0  0  0  0
   -0.0510   10.7430   -3.0240 C   0  0  0  0  0  0  0  0  0  0  0  0
   -0.7480   11.6110   -5.5000 S   0  0  0  0  0  0  0  0  0  0  0  0
    0.4100   11.0280   -6.8640 C   0  0  0  0  0  0  0  0  0  0  0  0
   -1.6340   11.4710   -7.1260 C   0  0  0  0  0  0  0  0  0  0  0  0
    0.3240   12.7480   -4.3940 C   0  0  2  0  0  0  0  0  0  0  0  0
   -1.2590   13.2760   -4.9540 C   0  0  0  0  0  0  0  0  0  0  0  0
    0.6640   11.9910   -1.9460 S   0  0  0  0  0  0  0  0  0  0  0  0
   -0.4230   13.4640   -3.3610 C   0  0  0  0  0  0  0  0  0  0  0  0
    0.3040    9.7490   -7.4540 C   0  0  0  0  0  0  0  0  0  0  0  0
   -0.9830   11.1560   -8.3530 C   0  0  0  0  0  0  0  0  0  0  0  0
   -0.4130   14.2500   -5.5960 N   0  0  0  0  0  0  0  0  0  0  0  0
    0.8020   13.7020   -5.3430 C   0  0  0  0  0  0  0  0  0  0  0  0
    2.1760   12.5010   -2.5760 O   0  0  0  0  0  0  0  0  0  0  0  0
   -0.6100    9.7230   -8.6570 C   0  0  0  0  0  0  0  0  0  0  0  0
   -2.0250    8.6940   -8.4390 Cl  0  0  0  0  0  0  0  0  0  0  0  0
  1  2  1  0
  2  3  1  0
  1  4  1  0
  4  5  1  0
  4  6  1  0
  4  7  1  0
  4  8  1  0
  3  9  1  0
  7 10  1  1
  5 11  1  0
  6 12  1  0
  8 13  1  0
  7 14  1  0
 13 14  1  0
  9 15  1  0
 11 16  1  0
 12 16  1  0
 16 17  1  0
M  END
