x0685_1_A_α-x0722_0_A_α
     RDKit          3D

 26 27  0  0  0  0  0  0  0  0999 V2000
   -1.0630   10.5170   -4.8700 N   0  0  0  0  0  0  0  0  0  0  0  0
   -1.3010   11.9520   -4.6850 C   0  0  0  0  0  0  0  0  0  0  0  0
    0.0070   12.6130   -4.2650 C   0  0  0  0  0  0  0  0  0  0  0  0
   -1.3750   10.0260   -6.2260 C   0  0  0  0  0  0  0  0  0  0  0  0
   -0.6400    8.7010   -6.5230 C   0  0  0  0  0  0  0  0  0  0  0  0
   -1.0390   11.0950   -7.2830 C   0  0  0  0  0  0  0  0  0  0  0  0
    0.6720   11.9620   -2.7270 S   0  0  0  0  0  0  0  0  0  0  0  0
    0.1660    8.6980   -7.8230 C   0  0  0  0  0  0  0  0  0  0  0  0
   -1.1910   10.6200   -8.7360 C   0  0  0  0  0  0  0  0  0  0  0  0
    2.2260   12.3390   -2.7710 O   0  0  0  0  0  0  0  0  0  0  0  0
    0.4490   10.3710   -2.6690 O   0  0  0  0  0  0  0  0  0  0  0  0
   -0.1020   12.6460   -1.5120 O   0  0  0  0  0  0  0  0  0  0  0  0
   -0.6670    9.2040   -8.9880 C   0  0  0  0  0  0  0  0  0  0  0  0
   -1.4740   12.9220   -1.7520 C   0  0  0  0  0  0  0  0  0  0  0  0
   -1.7110   14.4090   -1.6860 C   0  0  0  0  0  0  0  0  0  0  0  0
   -2.2890   14.7310   -0.3740 C   0  0  0  0  0  0  0  0  0  0  0  0
   -3.5540   15.1990   -0.0300 C   0  0  0  0  0  0  0  0  0  0  0  0
   -1.5910   14.6070    0.7990 N   0  0  0  0  0  0  0  0  0  0  0  0
   -0.2330   14.1720    1.0230 C   0  0  0  0  0  0  0  0  0  0  0  0
   -4.7210   15.5170   -0.9120 C   0  0  0  0  0  0  0  0  0  0  0  0
   -2.2940   14.9500    1.8500 N   0  0  0  0  0  0  0  0  0  0  0  0
   -3.4630   15.3160    1.3700 C   0  0  0  0  0  0  0  0  0  0  0  0
   -4.4530   15.7850    2.3190 C   0  0  0  0  0  0  0  0  0  0  0  0
   -5.9750   14.7110   -0.5960 C   0  0  0  0  0  0  0  0  0  0  0  0
   -7.1200   15.1160   -0.7580 O   0  0  0  0  0  0  0  0  0  0  0  0
   -5.7720   13.4520   -0.1020 N   0  0  0  0  0  0  0  0  0  0  0  0
  1  2  1  0
  2  3  1  0
  1  4  1  0
  4  5  1  0
  4  6  1  0
  3  7  1  0
  5  8  1  0
  6  9  1  0
  7 10  1  0
  7 11  1  0
  7 12  1  0
  8 13  1  0
  9 13  1  0
 12 14  1  0
 14 15  1  0
 15 16  1  0
 16 17  2  0
 16 18  1  0
 18 19  1  0
 17 20  1  0
 18 21  1  0
 17 22  1  0
 21 22  2  0
 22 23  1  0
 20 24  1  0
 24 25  2  0
 24 26  1  0
M  END
