x0685_1_A_α-x0524_0_A_α
     RDKit          3D

 30 32  0  0  0  0  0  0  0  0999 V2000
   -1.1030   10.8850   -4.7430 N   0  0  0  0  0  0  0  0  0  0  0  0
   -1.3950   12.2460   -4.3240 C   0  0  0  0  0  0  0  0  0  0  0  0
   -0.1480   12.9890   -3.8880 C   0  0  0  0  0  0  0  0  0  0  0  0
   -1.2660   10.5660   -6.1580 C   0  0  2  0  0  0  0  0  0  0  0  0
   -0.4090    9.4160   -6.6970 C   0  0  1  0  0  0  0  0  0  0  0  0
   -1.2950   11.7510   -7.1540 C   0  0  0  0  0  0  0  0  0  0  0  0
    0.7030   12.1310   -2.5690 S   0  0  0  0  0  0  0  0  0  0  0  0
   -1.2850    8.5490   -7.5400 C   0  0  1  0  0  0  0  0  0  0  0  0
    0.6890    9.9760   -7.5930 C   0  0  0  0  0  0  0  0  0  0  0  0
   -1.2160   11.3040   -8.6180 C   0  0  0  0  0  0  0  0  0  0  0  0
    2.2580   12.3420   -2.8580 O   0  0  0  0  0  0  0  0  0  0  0  0
    0.3010   10.5740   -2.5510 O   0  0  0  0  0  0  0  0  0  0  0  0
    0.2810   12.8140   -1.1880 O   0  0  0  0  0  0  0  0  0  0  0  0
   -0.5570    7.6840   -8.4400 N   0  0  0  0  0  0  0  0  0  0  0  0
   -2.2670    7.7560   -6.6650 C   0  0  0  0  0  0  0  0  0  0  0  0
   -2.0960    9.4160   -8.2840 O   0  0  0  0  0  0  0  0  0  0  0  0
    0.0200   10.4530   -8.8810 C   0  0  0  0  0  0  0  0  0  0  0  0
    0.4640    7.9960   -9.3420 C   0  0  0  0  0  0  0  0  0  0  0  0
    1.7340    7.4830   -9.0750 C   0  0  0  0  0  0  0  0  0  0  0  0
    0.3360    8.7750  -10.5000 C   0  0  0  0  0  0  0  0  0  0  0  0
    2.8250    7.7180   -9.9190 C   0  0  0  0  0  0  0  0  0  0  0  0
    1.4300    9.0150  -11.3510 C   0  0  0  0  0  0  0  0  0  0  0  0
    2.6910    8.4830  -11.0750 C   0  0  0  0  0  0  0  0  0  0  0  0
    3.7620    8.7190  -11.9470 N   0  0  0  0  0  0  0  0  0  0  0  0
    3.9680    9.5960  -13.0240 C   0  0  0  0  0  0  0  0  0  0  0  0
    3.1900   10.7360  -13.2570 C   0  0  0  0  0  0  0  0  0  0  0  0
    5.0140    9.3140  -13.9080 C   0  0  0  0  0  0  0  0  0  0  0  0
    3.4550   11.5700  -14.3440 C   0  0  0  0  0  0  0  0  0  0  0  0
    5.2800   10.1450  -14.9980 C   0  0  0  0  0  0  0  0  0  0  0  0
    4.4980   11.2740  -15.2130 C   0  0  0  0  0  0  0  0  0  0  0  0
  1  2  1  0
  2  3  1  0
  4  1  1  1
  4  5  1  0
  4  6  1  0
  3  7  1  0
  5  8  1  0
  5  9  1  6
  6 10  1  0
  7 11  1  0
  7 12  1  0
  7 13  1  0
  8 14  1  0
  8 15  1  1
  8 16  1  0
  9 17  1  0
 10 17  1  0
 14 18  1  0
 18 19  2  0
 18 20  1  0
 19 21  1  0
 20 22  2  0
 21 23  2  0
 22 23  1  0
 23 24  1  0
 24 25  1  0
 25 26  2  0
 25 27  1  0
 26 28  1  0
 27 29  2  0
 28 30  2  0
 29 30  1  0
M  END
