x0685_0_A-x0592_0_A
     RDKit          3D

 13 14  0  0  0  0  0  0  0  0999 V2000
   -6.4070   15.0540    2.8790 N   0  0  0  0  0  0  0  0  0  0  0  0
   -7.8060   14.6690    2.9790 C   0  0  0  0  0  0  0  0  0  0  0  0
   -8.4470   14.2640    1.6980 C   0  0  0  0  0  0  0  0  0  0  0  0
   -5.7320   14.5270    1.6990 C   0  0  2  0  0  0  0  0  0  0  0  0
   -4.2810   15.0530    1.6940 C   0  0  0  0  0  0  0  0  0  0  0  0
   -6.4570   14.6550    0.4450 N   0  0  0  0  0  0  0  0  0  0  0  0
   -7.7840   14.2790    0.5290 C   0  0  0  0  0  0  0  0  0  0  0  0
   -3.6210   15.4600    0.3650 C   0  0  2  0  0  0  0  0  0  0  0  0
   -5.6700   14.4570   -0.7780 C   0  0  0  0  0  0  0  0  0  0  0  0
   -4.5170   15.4500   -0.8910 C   0  0  2  0  0  0  0  0  0  0  0  0
   -2.4150   14.6310    0.1790 N   0  0  0  0  0  0  0  0  0  0  0  0
   -3.7380   15.2240   -2.1270 C   0  0  0  0  0  0  0  0  0  0  0  0
   -3.1440   15.0630   -3.1160 N   0  0  0  0  0  0  0  0  0  0  0  0
  1  2  1  0
  2  3  1  0
  1  4  1  0
  4  5  1  6
  4  6  1  0
  3  7  2  0
  6  7  1  0
  5  8  1  0
  6  9  1  0
  8 10  1  0
  9 10  1  0
  8 11  1  6
 10 12  1  6
 12 13  3  0
M  END
