x0689_0_A-x0933_0_A
     RDKit          3D

 13 14  0  0  0  0  0  0  0  0999 V2000
   -3.2100   13.8770    1.5890 N   0  0  0  0  0  0  0  0  0  0  0  0
   -2.1510   13.9990    0.6310 C   0  0  2  0  0  0  0  0  0  0  0  0
   -1.1680   14.7200    1.3730 N   0  0  0  0  0  0  0  0  0  0  0  0
   -2.4910   14.5090   -0.6590 N   0  0  0  0  0  0  0  0  0  0  0  0
   -1.3760   14.7410   -1.4350 C   0  0  0  0  0  0  0  0  0  0  0  0
    0.0420   14.6530    0.5920 C   0  0  0  0  0  0  0  0  0  0  0  0
   -3.6740   15.3960   -0.5840 C   0  0  0  0  0  0  0  0  0  0  0  0
   -0.1530   14.8160   -0.8810 C   0  0  0  0  0  0  0  0  0  0  0  0
   -4.9860   14.8160   -1.1390 C   0  0  0  0  0  0  0  0  0  0  0  0
   -3.8080   15.9220    0.8750 C   0  0  0  0  0  0  0  0  0  0  0  0
   -6.0750   14.5940   -0.1830 N   0  0  0  0  0  0  0  0  0  0  0  0
   -4.9200   15.4190    1.7110 N   0  0  0  0  0  0  0  0  0  0  0  0
   -5.6040   14.2740    1.1450 C   0  0  0  0  0  0  0  0  0  0  0  0
  2  1  1  1
  2  3  1  0
  2  4  1  0
  4  5  1  0
  3  6  1  0
  4  7  1  0
  5  8  2  0
  6  8  1  0
  7  9  1  0
  7 10  1  0
  9 11  1  0
 10 12  1  0
 11 13  1  0
 12 13  1  0
M  END
