x0685_0_A_α-x0128_0_A_α
     RDKit          3D

 19 20  0  0  0  0  0  0  0  0999 V2000
   -6.0560   15.0620    2.6740 N   0  0  0  0  0  0  0  0  0  0  0  0
   -7.4360   14.8440    3.0490 C   0  0  2  0  0  0  0  0  0  0  0  0
   -7.7390   13.3500    2.9530 C   0  0  0  0  0  0  0  0  0  0  0  0
   -5.3990   15.0330    1.4560 C   0  0  0  0  0  0  0  0  0  0  0  0
   -8.4220   15.5300    2.3170 O   0  0  0  0  0  0  0  0  0  0  0  0
   -7.5480   15.2110    4.4490 N   0  0  0  0  0  0  0  0  0  0  0  0
   -4.0140   15.1040    1.3520 C   0  0  0  0  0  0  0  0  0  0  0  0
   -6.1780   14.9450    0.3540 N   0  0  0  0  0  0  0  0  0  0  0  0
   -3.4080   15.1020    0.1050 C   0  0  0  0  0  0  0  0  0  0  0  0
   -5.5690   14.9490   -0.8570 C   0  0  0  0  0  0  0  0  0  0  0  0
   -8.4020   16.0480    5.1950 C   0  0  0  0  0  0  0  0  0  0  0  0
   -4.1980   15.0280   -1.0330 C   0  0  0  0  0  0  0  0  0  0  0  0
   -9.0880   17.1890    4.7650 C   0  0  0  0  0  0  0  0  0  0  0  0
   -8.6020   15.7170    6.5440 C   0  0  0  0  0  0  0  0  0  0  0  0
   -3.6270   15.0330   -2.3380 C   0  0  0  0  0  0  0  0  0  0  0  0
   -9.8970   17.9590    5.5410 N   0  0  0  0  0  0  0  0  0  0  0  0
   -9.4250   16.4870    7.3690 C   0  0  0  0  0  0  0  0  0  0  0  0
   -3.1640   15.0590   -3.4010 N   0  0  0  0  0  0  0  0  0  0  0  0
  -10.0470   17.5920    6.8250 C   0  0  0  0  0  0  0  0  0  0  0  0
  1  2  1  0
  2  3  1  1
  1  4  1  0
  2  5  1  0
  2  6  1  0
  4  7  2  0
  4  8  1  0
  7  9  1  0
  8 10  2  0
  6 11  1  0
  9 12  2  0
 10 12  1  0
 11 13  2  0
 11 14  1  0
 12 15  1  0
 13 16  1  0
 14 17  2  0
 15 18  3  0
 16 19  2  0
 17 19  1  0
M  END
