x0689_0_A-x0626_0_A
     RDKit          3D

 12 12  0  0  0  0  0  0  0  0999 V2000
   -3.7240   14.3930    1.3250 N   0  0  0  0  0  0  0  0  0  0  0  0
   -4.6830   15.3930    0.9400 C   0  0  0  0  0  0  0  0  0  0  0  0
   -6.0290   14.8100    0.4880 C   0  0  0  0  0  0  0  0  0  0  0  0
   -2.4230   14.5330    0.9090 C   0  0  0  0  0  0  0  0  0  0  0  0
   -2.2550   14.6880   -0.4110 N   0  0  0  0  0  0  0  0  0  0  0  0
   -1.4340   14.4990    1.7890 N   0  0  0  0  0  0  0  0  0  0  0  0
   -6.2990   14.6790   -0.7070 O   0  0  0  0  0  0  0  0  0  0  0  0
   -7.0530   14.3990    1.5330 C   0  0  0  0  0  0  0  0  0  0  0  0
   -0.9860   14.8030   -0.8510 C   0  0  0  0  0  0  0  0  0  0  0  0
   -0.1980   14.6140    1.3080 C   0  0  0  0  0  0  0  0  0  0  0  0
   -8.4680   14.5220    0.9980 C   0  0  0  0  0  0  0  0  0  0  0  0
    0.1000   14.7710   -0.0210 C   0  0  0  0  0  0  0  0  0  0  0  0
  1  2  1  0
  2  3  1  0
  1  4  1  0
  4  5  2  0
  4  6  1  0
  3  7  2  0
  3  8  1  0
  5  9  1  0
  6 10  2  0
  8 11  1  0
  9 12  2  0
 10 12  1  0
M  END
