x0685_0_A-x0290_0_A
     RDKit          3D

 22 23  0  0  0  0  0  0  0  0999 V2000
   -5.8020   14.8520    2.0400 N   0  0  0  0  0  0  0  0  0  0  0  0
   -7.1640   14.6630    2.6030 C   0  0  0  0  0  0  0  0  0  0  0  0
   -8.0400   13.6800    1.8440 C   0  0  0  0  0  0  0  0  0  0  0  0
   -5.0170   13.7350    1.9010 C   0  0  0  0  0  0  0  0  0  0  0  0
   -5.5180   15.0780    0.7300 C   0  0  0  0  0  0  0  0  0  0  0  0
   -5.4850   12.6640    1.5300 O   0  0  0  0  0  0  0  0  0  0  0  0
   -3.6640   13.8340    2.0320 N   0  0  0  0  0  0  0  0  0  0  0  0
   -4.1760   15.3180    0.5730 C   0  0  0  0  0  0  0  0  0  0  0  0
   -6.3870   15.0100   -0.2820 N   0  0  0  0  0  0  0  0  0  0  0  0
   -8.7600   14.3700    0.6960 C   0  0  0  0  0  0  0  0  0  0  0  0
   -3.6670   15.4550   -0.6700 C   0  0  0  0  0  0  0  0  0  0  0  0
   -5.8510   15.1560   -1.5180 C   0  0  0  0  0  0  0  0  0  0  0  0
   -2.5810   14.0890    1.1670 C   0  0  0  0  0  0  0  0  0  0  0  0
   -4.4960   15.3630   -1.7430 C   0  0  0  0  0  0  0  0  0  0  0  0
   -1.4620   14.4220    1.8350 N   0  0  0  0  0  0  0  0  0  0  0  0
   -2.5880   14.0210   -0.2270 C   0  0  0  0  0  0  0  0  0  0  0  0
   -3.9140   15.4760   -3.0270 C   0  0  0  0  0  0  0  0  0  0  0  0
   -0.3470   14.6890    1.1350 C   0  0  0  0  0  0  0  0  0  0  0  0
   -1.4080   14.3080   -0.9450 C   0  0  0  0  0  0  0  0  0  0  0  0
   -3.3920   15.5310   -4.0570 N   0  0  0  0  0  0  0  0  0  0  0  0
   -1.3780   14.2500   -2.4410 C   0  0  0  0  0  0  0  0  0  0  0  0
   -0.2670   14.6490   -0.2330 C   0  0  0  0  0  0  0  0  0  0  0  0
  1  2  1  0
  2  3  1  0
  1  4  1  0
  1  5  1  0
  4  6  2  0
  4  7  1  0
  5  8  2  0
  5  9  1  0
  3 10  1  0
  8 11  1  0
  9 12  2  0
  7 13  1  0
 11 14  2  0
 12 14  1  0
 13 15  2  0
 13 16  1  0
 14 17  1  0
 15 18  1  0
 16 19  2  0
 17 20  3  0
 19 21  1  0
 18 22  2  0
 19 22  1  0
M  END
