x0681_0_A-x0104_0_A
     RDKit          3D

 21 23  0  0  0  0  0  0  0  0999 V2000
   -4.4910   15.4780   -2.3610 N   0  0  0  0  0  0  0  0  0  0  0  0
   -3.4280   14.8520   -1.7790 C   0  0  0  0  0  0  0  0  0  0  0  0
   -2.3870   14.6900   -2.4110 O   0  0  0  0  0  0  0  0  0  0  0  0
   -3.6470   14.3910   -0.3390 C   0  0  2  0  0  0  0  0  0  0  0  0
   -4.7470   13.3540   -0.2940 C   0  0  0  0  0  0  0  0  0  0  0  0
   -3.9440   15.5800    0.5880 C   0  0  0  0  0  0  0  0  0  0  0  0
   -5.8110   13.4270    0.5820 N   0  0  0  0  0  0  0  0  0  0  0  0
   -4.6070   15.0850    1.8620 C   0  0  0  0  0  0  0  0  0  0  0  0
   -4.8550   12.2810   -1.0530 N   0  0  0  0  0  0  0  0  0  0  0  0
   -5.9950   14.5080    1.5450 C   0  0  2  0  0  0  0  0  0  0  0  0
   -6.6150   12.3440    0.3650 C   0  0  0  0  0  0  0  0  0  0  0  0
   -6.0050   11.6520   -0.6510 C   0  0  0  0  0  0  0  0  0  0  0  0
   -6.7670   14.2000    2.7590 N   0  0  0  0  0  0  0  0  0  0  0  0
   -7.8930   14.9180    3.1240 C   0  0  0  0  0  0  0  0  0  0  0  0
   -7.8910   15.0630    4.4950 N   0  0  0  0  0  0  0  0  0  0  0  0
   -8.7280   15.3280    2.3230 O   0  0  0  0  0  0  0  0  0  0  0  0
   -9.0240   15.0850    5.2920 C   0  0  0  0  0  0  0  0  0  0  0  0
   -9.1960   15.1970    6.6550 C   0  0  0  0  0  0  0  0  0  0  0  0
  -10.5100   14.9480    4.4660 S   0  0  0  0  0  0  0  0  0  0  0  0
  -11.4030   15.0360    5.9300 C   0  0  0  0  0  0  0  0  0  0  0  0
  -10.5770   15.1680    7.0240 C   0  0  0  0  0  0  0  0  0  0  0  0
  1  2  1  0
  2  3  2  0
  4  2  1  6
  4  5  1  0
  4  6  1  0
  5  7  1  0
  6  8  1  0
  5  9  2  0
  7 10  1  0
  8 10  1  0
  7 11  1  0
  9 12  1  0
 11 12  2  0
 10 13  1  1
 13 14  1  0
 14 15  1  0
 14 16  2  0
 15 17  1  0
 17 18  2  0
 17 19  1  0
 19 20  1  0
 18 21  1  0
 20 21  2  0
M  END
