x0685_0_A_α-x0962_2_B_α
     RDKit          3D

 18 19  0  0  0  0  0  0  0  0999 V2000
   -5.9230   14.7960    2.5020 N   0  0  0  0  0  0  0  0  0  0  0  0
   -7.3030   14.2870    2.5160 C   0  0  1  0  0  0  0  0  0  0  0  0
   -7.4220   12.7940    2.8060 C   0  0  0  0  0  0  0  0  0  0  0  0
   -5.2500   14.8750    1.3080 C   0  0  0  0  0  0  0  0  0  0  0  0
   -3.8690   14.9370    1.2520 C   0  0  0  0  0  0  0  0  0  0  0  0
   -6.0290   14.8950    0.2130 N   0  0  0  0  0  0  0  0  0  0  0  0
   -8.1990   15.1160    3.3530 C   0  0  0  0  0  0  0  0  0  0  0  0
   -3.2560   15.0260    0.0100 C   0  0  0  0  0  0  0  0  0  0  0  0
   -5.4170   14.9860   -0.9820 C   0  0  0  0  0  0  0  0  0  0  0  0
   -9.3180   15.8600    3.0710 C   0  0  0  0  0  0  0  0  0  0  0  0
   -7.8920   15.2050    4.6870 N   0  0  0  0  0  0  0  0  0  0  0  0
  -10.0080   16.0700    1.8600 C   0  0  0  0  0  0  0  0  0  0  0  0
   -4.0480   15.0530   -1.1330 C   0  0  0  0  0  0  0  0  0  0  0  0
   -9.6730   16.4120    4.2700 N   0  0  0  0  0  0  0  0  0  0  0  0
   -8.7800   15.9880    5.2070 C   0  0  0  0  0  0  0  0  0  0  0  0
   -3.4840   15.1460   -2.4350 C   0  0  0  0  0  0  0  0  0  0  0  0
  -10.6030   16.2690    0.8850 N   0  0  0  0  0  0  0  0  0  0  0  0
   -3.0400   15.2390   -3.5010 N   0  0  0  0  0  0  0  0  0  0  0  0
  1  2  1  0
  2  3  1  1
  1  4  1  0
  4  5  2  0
  4  6  1  0
  2  7  1  0
  5  8  1  0
  6  9  2  0
  7 10  2  0
  7 11  1  0
 10 12  1  0
  8 13  2  0
  9 13  1  0
 10 14  1  0
 11 15  2  0
 14 15  1  0
 13 16  1  0
 12 17  3  0
 16 18  3  0
M  END
