x0685_0_A-x1018_0_A
     RDKit          3D

 15 16  0  0  0  0  0  0  0  0999 V2000
   -6.3470   15.0320    2.6380 N   0  0  0  0  0  0  0  0  0  0  0  0
   -7.7750   14.8270    2.6230 C   0  0  0  0  0  0  0  0  0  0  0  0
   -8.1850   13.3810    2.8470 C   0  0  0  0  0  0  0  0  0  0  0  0
   -5.5330   14.6270    1.5030 C   0  0  2  0  0  0  0  0  0  0  0  0
   -4.1230   15.1860    1.5760 C   0  0  0  0  0  0  0  0  0  0  0  0
   -6.1470   14.8840    0.1630 N   0  0  0  0  0  0  0  0  0  0  0  0
   -7.8700   14.4080    0.0690 Cl  0  0  0  0  0  0  0  0  0  0  0  0
   -3.2920   15.1980    0.5180 C   0  0  0  0  0  0  0  0  0  0  0  0
   -5.2130   14.1230   -0.6980 C   0  0  2  0  0  0  0  0  0  0  0  0
   -3.7890   14.6390   -0.7850 C   0  0  1  0  0  0  0  0  0  0  0  0
   -5.3730   13.9640   -2.1410 N   0  0  0  0  0  0  0  0  0  0  0  0
   -3.5890   15.4340   -2.0150 C   0  0  0  0  0  0  0  0  0  0  0  0
   -3.2330   13.4010   -1.2390 N   0  0  0  0  0  0  0  0  0  0  0  0
   -4.0570   13.3720   -2.4570 N   0  0  0  0  0  0  0  0  0  0  0  0
   -3.4110   15.8770   -3.0720 N   0  0  0  0  0  0  0  0  0  0  0  0
  1  2  1  0
  2  3  1  0
  4  1  1  1
  4  5  1  0
  4  6  1  0
  6  7  1  0
  5  8  2  0
  6  9  1  0
  8 10  1  0
  9 10  1  0
  9 11  1  6
 10 12  1  6
 10 13  1  0
 11 14  1  0
 13 14  1  0
 12 15  3  0
M  END
