x0685_1_A-x1012_0_A
     RDKit          3D

 22 23  0  0  0  0  0  0  0  0999 V2000
   -1.8690   10.4420   -5.2250 N   0  0  0  0  0  0  0  0  0  0  0  0
   -1.4400   11.7500   -5.0530 C   0  0  0  0  0  0  0  0  0  0  0  0
   -0.0380   12.0560   -4.8590 C   0  0  0  0  0  0  0  0  0  0  0  0
   -1.5760    9.8750   -6.5470 C   0  0  0  0  0  0  0  0  0  0  0  0
   -0.6720    8.7090   -6.5120 C   0  0  0  0  0  0  0  0  0  0  0  0
   -1.0830   10.9870   -7.4530 C   0  0  0  0  0  0  0  0  0  0  0  0
    0.4130   12.4800   -3.2200 S   0  0  0  0  0  0  0  0  0  0  0  0
    0.1910    8.7440   -7.7560 C   0  0  0  0  0  0  0  0  0  0  0  0
   -1.1140   10.5500   -8.9020 C   0  0  0  0  0  0  0  0  0  0  0  0
    1.1520   12.1510   -1.5130 O   0  0  0  0  0  0  0  0  0  0  0  0
   -0.4630   10.8270   -2.5310 O   0  0  0  0  0  0  0  0  0  0  0  0
    2.3230   12.9030   -3.2340 O   0  0  0  0  0  0  0  0  0  0  0  0
   -0.6190    9.1280   -8.9750 C   0  0  0  0  0  0  0  0  0  0  0  0
   -0.1750   14.0350   -2.9380 C   0  0  0  0  0  0  0  0  0  0  0  0
   -1.5210   14.3320   -3.4250 C   0  0  0  0  0  0  0  0  0  0  0  0
    0.6580   15.2370   -3.3710 C   0  0  0  0  0  0  0  0  0  0  0  0
   -1.7000   14.8000   -4.8420 C   0  0  0  0  0  0  0  0  0  0  0  0
    0.5570   15.5320   -4.8040 C   0  0  0  0  0  0  0  0  0  0  0  0
   -0.8130   15.9290   -5.0360 N   0  0  0  0  0  0  0  0  0  0  0  0
   -1.2620   17.2340   -4.8510 C   0  0  0  0  0  0  0  0  0  0  0  0
   -0.4360   18.3660   -4.8290 N   0  0  0  0  0  0  0  0  0  0  0  0
   -2.5000   17.4210   -4.6780 O   0  0  0  0  0  0  0  0  0  0  0  0
  1  2  1  0
  2  3  1  0
  1  4  1  0
  4  5  1  0
  4  6  1  0
  3  7  1  0
  5  8  1  0
  6  9  1  0
  7 10  1  0
  7 11  1  0
  7 12  1  0
  8 13  1  0
  9 13  1  0
  7 14  1  0
 14 15  1  0
 14 16  1  0
 15 17  1  0
 16 18  1  0
 17 19  1  0
 18 19  1  0
 19 20  1  0
 20 21  1  0
 20 22  2  0
M  END
