x0689_0_A-x1015_0_A
     RDKit          3D

 24 26  0  0  0  0  0  0  0  0999 V2000
   -3.7970   14.4810    1.4560 N   0  0  0  0  0  0  0  0  0  0  0  0
   -4.5770   15.6400    1.2070 C   0  0  0  0  0  0  0  0  0  0  0  0
   -2.5450   14.5260    0.9280 C   0  0  0  0  0  0  0  0  0  0  0  0
   -2.4510   14.6020   -0.3920 N   0  0  0  0  0  0  0  0  0  0  0  0
   -1.5190   14.4890    1.7770 N   0  0  0  0  0  0  0  0  0  0  0  0
   -1.2240   14.6350   -0.8950 C   0  0  0  0  0  0  0  0  0  0  0  0
   -0.2980   14.5260    1.2190 C   0  0  0  0  0  0  0  0  0  0  0  0
   -0.0860   14.5980   -0.1400 C   0  0  0  0  0  0  0  0  0  0  0  0
    1.2220   14.6340   -0.8360 C   0  0  0  0  0  0  0  0  0  0  0  0
    0.9940   14.8210   -2.2470 N   0  0  0  0  0  0  0  0  0  0  0  0
    0.5080   13.7600   -2.7180 C   0  0  0  0  0  0  0  0  0  0  0  0
    0.1070   13.5350   -4.1520 C   0  0  2  0  0  0  0  0  0  0  0  0
    0.2690   12.6550   -1.9850 N   0  0  0  0  0  0  0  0  0  0  0  0
   -1.2060   14.2750   -4.4100 C   0  0  0  0  0  0  0  0  0  0  0  0
   -0.0280   12.0820   -4.0980 N   0  0  0  0  0  0  0  0  0  0  0  0
    0.1390   11.5870   -2.7970 C   0  0  0  0  0  0  0  0  0  0  0  0
    0.1710   10.4300   -2.3780 O   0  0  0  0  0  0  0  0  0  0  0  0
   -0.4630   11.3220   -5.1920 C   0  0  0  0  0  0  0  0  0  0  0  0
    0.0640   11.5250   -6.4700 C   0  0  0  0  0  0  0  0  0  0  0  0
   -1.4390   10.3340   -5.0190 C   0  0  0  0  0  0  0  0  0  0  0  0
   -0.3730   10.7580   -7.5500 C   0  0  0  0  0  0  0  0  0  0  0  0
   -1.8800    9.5650   -6.0930 C   0  0  0  0  0  0  0  0  0  0  0  0
   -1.3420    9.7820   -7.3570 C   0  0  0  0  0  0  0  0  0  0  0  0
   -1.8850    8.8360   -8.6810 Cl  0  0  0  0  0  0  0  0  0  0  0  0
  1  2  1  0
  1  3  1  0
  3  4  2  0
  3  5  1  0
  4  6  1  0
  5  7  2  0
  6  8  2  0
  7  8  1  0
  8  9  1  0
  9 10  1  0
 10 11  2  3
 11 12  1  0
 11 13  1  0
 12 14  1  1
 12 15  1  0
 13 16  1  0
 15 16  1  0
 16 17  2  0
 15 18  1  0
 18 19  2  0
 18 20  1  0
 19 21  1  0
 20 22  2  0
 21 23  2  0
 22 23  1  0
 23 24  1  0
M  END
