x0689_0_A-x0969_0_A
     RDKit          3D

 17 19  0  0  0  0  0  0  0  0999 V2000
   -3.2050   15.0740    2.0480 N   0  0  0  0  0  0  0  0  0  0  0  0
   -2.0370   15.1330    1.2070 C   0  0  1  0  0  0  0  0  0  0  0  0
   -1.1660   14.2130    1.7790 N   0  0  0  0  0  0  0  0  0  0  0  0
   -2.2570   14.9930   -0.2020 N   0  0  0  0  0  0  0  0  0  0  0  0
   -1.1460   14.7390   -0.9850 C   0  0  0  0  0  0  0  0  0  0  0  0
    0.0570   14.2010    1.0690 C   0  0  0  0  0  0  0  0  0  0  0  0
   -3.5610   14.9610   -0.5220 C   0  0  0  0  0  0  0  0  0  0  0  0
   -0.0110   14.3610   -0.4120 C   0  0  0  0  0  0  0  0  0  0  0  0
   -4.0340   15.0470   -1.8900 C   0  0  0  0  0  0  0  0  0  0  0  0
   -4.4680   14.8480    0.4570 C   0  0  0  0  0  0  0  0  0  0  0  0
   -5.7960   14.8080    0.1740 N   0  0  0  0  0  0  0  0  0  0  0  0
   -5.3380   15.0070   -2.1710 C   0  0  0  0  0  0  0  0  0  0  0  0
   -6.9000   14.6980    0.9950 C   0  0  0  0  0  0  0  0  0  0  0  0
   -6.2780   14.8810   -1.1100 C   0  0  0  0  0  0  0  0  0  0  0  0
   -6.8570   14.6140    2.3480 N   0  0  0  0  0  0  0  0  0  0  0  0
   -7.9720   14.6990    0.2420 N   0  0  0  0  0  0  0  0  0  0  0  0
   -7.5830   14.8140   -1.0780 N   0  0  0  0  0  0  0  0  0  0  0  0
  2  1  1  1
  2  3  1  0
  2  4  1  0
  4  5  1  0
  3  6  1  0
  4  7  1  0
  5  8  2  0
  6  8  1  0
  7  9  1  0
  7 10  2  0
 10 11  1  0
  9 12  2  0
 11 13  1  0
 11 14  1  0
 12 14  1  0
 13 15  1  0
 13 16  2  0
 14 17  2  0
 16 17  1  0
M  END
