x0689_0_A-x0587_0_A
     RDKit          3D

 20 21  0  0  0  0  0  0  0  0999 V2000
   -3.2750   15.3490    1.5610 N   0  0  0  0  0  0  0  0  0  0  0  0
   -2.5270   14.3260    0.8720 C   0  0  2  0  0  0  0  0  0  0  0  0
   -1.3170   14.2880    1.6500 N   0  0  0  0  0  0  0  0  0  0  0  0
   -2.3880   14.4320   -0.5910 N   0  0  0  0  0  0  0  0  0  0  0  0
   -1.1310   14.3060   -1.1470 C   0  0  0  0  0  0  0  0  0  0  0  0
   -0.2640   15.0270    0.9820 C   0  0  0  0  0  0  0  0  0  0  0  0
   -3.3370   15.2670   -1.2160 O   0  0  0  0  0  0  0  0  0  0  0  0
   -0.0500   14.5830   -0.4220 C   0  0  0  0  0  0  0  0  0  0  0  0
   -4.5830   14.5630   -1.4840 C   0  0  0  0  0  0  0  0  0  0  0  0
   -4.2890   13.2980   -1.9180 F   0  0  0  0  0  0  0  0  0  0  0  0
   -5.0860   15.1880   -2.5910 F   0  0  0  0  0  0  0  0  0  0  0  0
   -5.5890   14.6250   -0.3120 C   0  0  0  0  0  0  0  0  0  0  0  0
   -6.9210   14.5760   -0.5970 N   0  0  0  0  0  0  0  0  0  0  0  0
   -5.1210   14.7310    0.9530 N   0  0  0  0  0  0  0  0  0  0  0  0
   -7.7840   14.6490    0.4480 C   0  0  0  0  0  0  0  0  0  0  0  0
   -6.0260   14.7990    1.9580 C   0  0  0  0  0  0  0  0  0  0  0  0
   -7.3880   14.7680    1.7610 C   0  0  0  0  0  0  0  0  0  0  0  0
   -8.3130   14.8730    2.9010 C   0  0  0  0  0  0  0  0  0  0  0  0
   -7.7970   15.0250    4.1620 N   0  0  0  0  0  0  0  0  0  0  0  0
   -9.5230   14.8470    2.7180 O   0  0  0  0  0  0  0  0  0  0  0  0
  2  1  1  1
  2  3  1  0
  2  4  1  0
  4  5  1  0
  3  6  1  0
  4  7  1  0
  5  8  2  0
  6  8  1  0
  7  9  1  0
  9 10  1  0
  9 11  1  0
  9 12  1  0
 12 13  2  0
 12 14  1  0
 13 15  1  0
 14 16  2  0
 15 17  2  0
 16 17  1  0
 17 18  1  0
 18 19  1  0
 18 20  2  0
M  END
