x0681_0_A-x0742_0_A
     RDKit          3D

 22 24  0  0  0  0  0  0  0  0999 V2000
   -4.1720   15.2850   -2.0850 N   0  0  0  0  0  0  0  0  0  0  0  0
   -2.9540   14.7580   -1.7260 C   0  0  0  0  0  0  0  0  0  0  0  0
   -2.3520   14.1120   -2.5750 O   0  0  0  0  0  0  0  0  0  0  0  0
   -2.4260   15.0410   -0.2930 C   0  0  2  0  0  0  0  0  0  0  0  0
   -3.5560   15.8980    0.4340 C   0  0  0  0  0  0  0  0  0  0  0  0
   -1.0040   15.6970   -0.4610 C   0  0  0  0  0  0  0  0  0  0  0  0
   -2.1400   13.7970    0.5090 C   0  0  1  0  0  0  0  0  0  0  0  0
   -4.5140   15.3880    1.5380 C   0  0  0  0  0  0  0  0  0  0  0  0
   -1.4410   14.1110    1.7040 N   0  0  0  0  0  0  0  0  0  0  0  0
    0.1080   15.1480    0.4210 C   0  0  0  0  0  0  0  0  0  0  0  0
   -3.4510   13.3720    0.8320 C   0  0  0  0  0  0  0  0  0  0  0  0
   -5.5540   14.4800    1.6410 C   0  0  0  0  0  0  0  0  0  0  0  0
   -0.1850   14.3930    1.4710 C   0  0  0  0  0  0  0  0  0  0  0  0
   -4.2310   13.2070   -0.1690 C   0  0  0  0  0  0  0  0  0  0  0  0
   -5.5780   12.8600   -0.2350 C   0  0  2  0  0  0  0  0  0  0  0  0
   -6.2360   13.5670    0.8310 N   0  0  0  0  0  0  0  0  0  0  0  0
   -5.8910   11.4020   -0.4950 C   0  0  0  0  0  0  0  0  0  0  0  0
   -6.1150   13.5350   -1.4180 N   0  0  0  0  0  0  0  0  0  0  0  0
   -7.4960   13.7530    0.2940 C   0  0  0  0  0  0  0  0  0  0  0  0
   -6.5840   10.7340    0.2290 O   0  0  0  0  0  0  0  0  0  0  0  0
   -5.3420   10.7930   -1.7170 C   0  0  0  0  0  0  0  0  0  0  0  0
   -7.4210   13.7260   -1.0490 C   0  0  0  0  0  0  0  0  0  0  0  0
  1  2  1  0
  2  3  2  0
  4  2  1  6
  4  5  1  0
  4  6  1  0
  4  7  1  0
  5  8  1  0
  7  9  1  0
  6 10  1  0
  7 11  1  1
  8 12  2  0
  9 13  1  0
 10 13  2  0
 11 14  2  0
 14 15  1  0
 12 16  1  0
 15 16  1  0
 15 17  1  6
 15 18  1  0
 16 19  1  0
 17 20  2  0
 17 21  1  0
 18 22  1  0
 19 22  2  0
M  END
