x0685_0_A_α-x0631_0_A_α
     RDKit          3D

 26 27  0  0  0  0  0  0  0  0999 V2000
   -6.4220   15.0150    2.4110 N   0  0  0  0  0  0  0  0  0  0  0  0
   -7.1690   13.8330    2.8140 C   0  0  0  0  0  0  0  0  0  0  0  0
   -8.6430   13.9310    2.5190 C   0  0  0  0  0  0  0  0  0  0  0  0
   -5.6500   14.9840    1.2350 C   0  0  0  0  0  0  0  0  0  0  0  0
   -4.2590   15.1400    1.3160 C   0  0  0  0  0  0  0  0  0  0  0  0
   -6.2590   14.8180    0.0490 N   0  0  0  0  0  0  0  0  0  0  0  0
   -3.4880   15.1230    0.1520 C   0  0  0  0  0  0  0  0  0  0  0  0
   -5.4970   14.8070   -1.0670 C   0  0  0  0  0  0  0  0  0  0  0  0
   -4.1230   14.9520   -1.0750 C   0  0  0  0  0  0  0  0  0  0  0  0
   -3.3950   14.9210   -2.3100 C   0  0  0  0  0  0  0  0  0  0  0  0
   -2.7700   14.8480   -3.3410 C   0  0  0  0  0  0  0  0  0  0  0  0
   -1.9710   14.7260   -4.5830 C   0  0  0  0  0  0  0  0  0  0  0  0
   -2.2830   13.4540   -5.4060 C   0  0  0  0  0  0  0  0  0  0  0  0
   -1.3590   12.2490   -5.1130 C   0  0  0  0  0  0  0  0  0  0  0  0
   -0.1960   12.0490   -6.1130 C   0  0  0  0  0  0  0  0  0  0  0  0
   -0.3550   10.8900   -7.1220 C   0  0  0  0  0  0  0  0  0  0  0  0
    0.5150   11.1250   -8.3720 C   0  0  0  0  0  0  0  0  0  0  0  0
    0.8300    9.9530   -9.3150 C   0  0  0  0  0  0  0  0  0  0  0  0
    1.4600   10.5000  -10.5410 N   0  0  0  0  0  0  0  0  0  0  0  0
    1.9730    9.4970  -11.4720 C   0  0  2  0  0  0  0  0  0  0  0  0
    3.0040    8.7700  -10.8170 O   0  0  0  0  0  0  0  0  0  0  0  0
    2.4860   10.0010  -12.8560 C   0  0  2  0  0  0  0  0  0  0  0  0
    3.8610    9.6320  -13.0620 O   0  0  0  0  0  0  0  0  0  0  0  0
    2.4650   11.4960  -13.1580 C   0  0  0  0  0  0  0  0  0  0  0  0
    4.2510   10.3160  -14.2590 C   0  0  0  0  0  0  0  0  0  0  0  0
    3.4520   11.6090  -14.3080 C   0  0  0  0  0  0  0  0  0  0  0  0
  1  2  1  0
  2  3  1  0
  1  4  1  0
  4  5  2  0
  4  6  1  0
  5  7  1  0
  6  8  2  0
  7  9  2  0
  8  9  1  0
  9 10  1  0
 10 11  3  0
 11 12  1  0
 12 13  1  0
 13 14  1  0
 14 15  1  0
 15 16  1  0
 16 17  1  0
 17 18  1  0
 18 19  1  0
 19 20  1  0
 20 21  1  1
 20 22  1  0
 22 23  1  0
 22 24  1  1
 23 25  1  0
 24 26  1  0
 25 26  1  0
M  END
