x0681_0_A-x0128_0_A
     RDKit          3D

 22 24  0  0  0  0  0  0  0  0999 V2000
   -4.0480   15.4250   -2.9310 N   0  0  0  0  0  0  0  0  0  0  0  0
   -3.4360   14.9800   -1.8040 C   0  0  0  0  0  0  0  0  0  0  0  0
   -2.2590   14.6410   -1.8340 O   0  0  0  0  0  0  0  0  0  0  0  0
   -4.3550   14.9470   -0.5850 C   0  0  1  0  0  0  0  0  0  0  0  0
   -5.0660   13.6390   -0.5190 C   0  0  0  0  0  0  0  0  0  0  0  0
   -3.6780   15.3460    0.7340 C   0  0  0  0  0  0  0  0  0  0  0  0
   -5.6890   13.2440    0.6120 N   0  0  0  0  0  0  0  0  0  0  0  0
   -4.3260   14.7460    1.9980 C   0  0  0  0  0  0  0  0  0  0  0  0
   -5.2040   12.7300   -1.4690 N   0  0  0  0  0  0  0  0  0  0  0  0
   -5.7020   14.0230    1.8340 C   0  0  1  0  0  0  0  0  0  0  0  0
   -6.2650   12.0320    0.3960 C   0  0  0  0  0  0  0  0  0  0  0  0
   -5.9520   11.7290   -0.9060 C   0  0  0  0  0  0  0  0  0  0  0  0
   -6.7950   14.9940    1.9380 N   0  0  0  0  0  0  0  0  0  0  0  0
   -7.8640   15.0280    2.8510 C   0  0  0  0  0  0  0  0  0  0  0  0
   -9.0040   14.8570    2.4510 O   0  0  0  0  0  0  0  0  0  0  0  0
   -7.5190   15.3110    4.1650 N   0  0  0  0  0  0  0  0  0  0  0  0
   -8.3220   15.9930    5.1420 C   0  0  0  0  0  0  0  0  0  0  0  0
   -9.0390   17.1370    4.7640 C   0  0  0  0  0  0  0  0  0  0  0  0
   -8.4580   15.6080    6.4770 C   0  0  0  0  0  0  0  0  0  0  0  0
   -9.8330   17.8750    5.5800 N   0  0  0  0  0  0  0  0  0  0  0  0
   -9.2720   16.3510    7.3480 C   0  0  0  0  0  0  0  0  0  0  0  0
   -9.9310   17.4660    6.8570 C   0  0  0  0  0  0  0  0  0  0  0  0
  1  2  1  0
  2  3  2  0
  4  2  1  6
  4  5  1  0
  4  6  1  0
  5  7  1  0
  6  8  1  0
  5  9  2  0
  7 10  1  0
  8 10  1  0
  7 11  1  0
  9 12  1  0
 11 12  2  0
 10 13  1  6
 13 14  1  0
 14 15  2  0
 14 16  1  0
 16 17  1  0
 17 18  2  0
 17 19  1  0
 18 20  1  0
 19 21  2  0
 20 22  2  0
 21 22  1  0
M  END
