x0685_0_A_α-x0727_0_A_α
     RDKit          3D

 27 28  0  0  0  0  0  0  0  0999 V2000
   -6.2680   14.9610    2.6030 N   0  0  0  0  0  0  0  0  0  0  0  0
   -7.7120   14.7850    2.5840 C   0  0  0  0  0  0  0  0  0  0  0  0
   -8.0760   13.3630    2.9680 C   0  0  0  0  0  0  0  0  0  0  0  0
   -5.5890   14.9940    1.3810 C   0  0  0  0  0  0  0  0  0  0  0  0
   -4.1980   15.1200    1.3790 C   0  0  0  0  0  0  0  0  0  0  0  0
   -6.2950   14.9200    0.2390 N   0  0  0  0  0  0  0  0  0  0  0  0
   -3.5180   15.1850    0.1660 C   0  0  0  0  0  0  0  0  0  0  0  0
   -5.6200   14.9890   -0.9200 C   0  0  0  0  0  0  0  0  0  0  0  0
   -4.2540   15.1250   -1.0140 C   0  0  0  0  0  0  0  0  0  0  0  0
   -3.6610   15.1990   -2.2960 C   0  0  0  0  0  0  0  0  0  0  0  0
   -3.2220   15.2780   -3.4000 C   0  0  0  0  0  0  0  0  0  0  0  0
   -2.6980   15.3480   -4.7620 C   0  0  0  0  0  0  0  0  0  0  0  0
   -1.7320   14.1920   -4.9890 C   0  0  0  0  0  0  0  0  0  0  0  0
   -0.4420   14.3760   -4.1920 C   0  0  0  0  0  0  0  0  0  0  0  0
    0.7540   13.8430   -4.9770 C   0  0  0  0  0  0  0  0  0  0  0  0
    0.9960   12.3520   -4.7540 C   0  0  2  0  0  0  0  0  0  0  0  0
    0.1410   11.5270   -5.6110 N   0  0  0  0  0  0  0  0  0  0  0  0
    0.7430   11.9360   -3.3040 C   0  0  0  0  0  0  0  0  0  0  0  0
    0.0970   10.9610   -2.9420 O   0  0  0  0  0  0  0  0  0  0  0  0
    0.6780   11.1230   -6.8010 C   0  0  0  0  0  0  0  0  0  0  0  0
    1.3110   12.7570   -2.4020 O   0  0  0  0  0  0  0  0  0  0  0  0
    1.6550   11.6720   -7.2410 O   0  0  0  0  0  0  0  0  0  0  0  0
    0.0420    9.9470   -7.5250 C   0  0  0  0  0  0  0  0  0  0  0  0
   -1.2510   10.3290   -8.2470 C   0  0  0  0  0  0  0  0  0  0  0  0
   -0.3100    8.7710   -6.5980 C   0  0  0  0  0  0  0  0  0  0  0  0
   -2.1610    9.1190   -8.0920 C   0  0  0  0  0  0  0  0  0  0  0  0
   -1.8070    8.5580   -6.7270 C   0  0  0  0  0  0  0  0  0  0  0  0
  1  2  1  0
  2  3  1  0
  1  4  1  0
  4  5  2  0
  4  6  1  0
  5  7  1  0
  6  8  2  0
  7  9  2  0
  8  9  1  0
  9 10  1  0
 10 11  3  0
 11 12  1  0
 12 13  1  0
 13 14  1  0
 14 15  1  0
 16 15  1  1
 16 17  1  0
 16 18  1  0
 18 19  2  0
 17 20  1  0
 18 21  1  0
 20 22  2  0
 20 23  1  0
 23 24  1  0
 23 25  1  0
 24 26  1  0
 25 27  1  0
 26 27  1  0
M  END
