x0681_0_A_α-x0631_0_A_β
     RDKit          3D

 25 27  0  0  0  0  0  0  0  0999 V2000
   -4.4770   15.5900   -2.3520 N   0  0  0  0  0  0  0  0  0  0  0  0
   -3.4460   14.8360   -1.8650 C   0  0  0  0  0  0  0  0  0  0  0  0
   -2.3810   14.5040   -2.5200 N   0  0  0  0  0  0  0  0  0  0  0  0
   -3.5630   14.3180   -0.4210 C   0  0  2  0  0  0  0  0  0  0  0  0
   -2.2290   14.9560   -3.9040 C   0  0  0  0  0  0  0  0  0  0  0  0
   -4.6810   13.3200   -0.3480 C   0  0  0  0  0  0  0  0  0  0  0  0
   -3.8100   15.4990    0.5370 C   0  0  0  0  0  0  0  0  0  0  0  0
   -1.5180   13.8530   -4.6960 C   0  0  0  0  0  0  0  0  0  0  0  0
   -5.5860   13.3070    0.6770 N   0  0  0  0  0  0  0  0  0  0  0  0
   -4.2840   15.0100    1.8910 C   0  0  0  0  0  0  0  0  0  0  0  0
   -4.9530   12.3610   -1.2120 N   0  0  0  0  0  0  0  0  0  0  0  0
   -2.4490   12.7460   -5.2100 C   0  0  0  0  0  0  0  0  0  0  0  0
   -5.5840   14.2220    1.7910 C   0  0  0  0  0  0  0  0  0  0  0  0
   -6.4710   12.3000    0.4610 C   0  0  0  0  0  0  0  0  0  0  0  0
   -6.0620   11.7240   -0.7170 C   0  0  0  0  0  0  0  0  0  0  0  0
   -1.7740   11.6010   -5.9840 C   0  0  0  0  0  0  0  0  0  0  0  0
   -2.5850   10.2940   -6.0140 C   0  0  0  0  0  0  0  0  0  0  0  0
   -2.4520    9.5610   -7.3560 C   0  0  0  0  0  0  0  0  0  0  0  0
   -1.5330    8.3370   -7.2960 C   0  0  0  0  0  0  0  0  0  0  0  0
   -0.0870    8.5790   -6.8390 C   0  0  0  0  0  0  0  0  0  0  0  0
    0.8070    9.4510   -7.6260 N   0  0  0  0  0  0  0  0  0  0  0  0
    0.8170    9.1990   -9.0300 N   0  0  0  0  0  0  0  0  0  0  0  0
    0.6950   10.8370   -7.3730 N   0  0  0  0  0  0  0  0  0  0  0  0
    0.8430   10.5260   -9.6320 C   0  0  0  0  0  0  0  0  0  0  0  0
    0.3210   11.4320   -8.6230 N   0  0  0  0  0  0  0  0  0  0  0  0
  1  2  1  0
  2  3  2  3
  4  2  1  6
  3  5  1  0
  4  6  1  0
  4  7  1  0
  5  8  1  0
  6  9  1  0
  7 10  1  0
  6 11  2  0
  8 12  1  0
  9 13  1  0
 10 13  1  0
  9 14  1  0
 11 15  1  0
 14 15  2  0
 12 16  1  0
 16 17  1  0
 17 18  1  0
 18 19  1  0
 19 20  1  0
 20 21  1  0
 21 22  1  0
 21 23  1  0
 22 24  1  0
 23 25  1  0
 24 25  1  0
M  END
