x0689_0_A-x0104_0_A
     RDKit          3D

 25 27  0  0  0  0  0  0  0  0999 V2000
   -3.3180   15.2100    1.8170 N   0  0  0  0  0  0  0  0  0  0  0  0
   -2.1270   15.1620    1.0460 C   0  0  1  0  0  0  0  0  0  0  0  0
   -1.3900   14.2240    1.7900 N   0  0  0  0  0  0  0  0  0  0  0  0
   -2.1610   14.8130   -0.3330 N   0  0  0  0  0  0  0  0  0  0  0  0
   -0.9440   14.6740   -0.9470 C   0  0  0  0  0  0  0  0  0  0  0  0
   -0.0370   14.1870    1.2750 C   0  0  0  0  0  0  0  0  0  0  0  0
   -3.4020   14.9800   -1.0460 C   0  0  0  0  0  0  0  0  0  0  0  0
    0.1170   14.3700   -0.2100 C   0  0  0  0  0  0  0  0  0  0  0  0
   -4.7120   15.1650   -0.4340 N   0  0  0  0  0  0  0  0  0  0  0  0
   -5.6550   14.6420   -1.3880 C   0  0  2  0  0  0  0  0  0  0  0  0
   -4.9600   14.5510    0.9010 C   0  0  0  0  0  0  0  0  0  0  0  0
   -5.4450   15.2170   -2.6810 O   0  0  0  0  0  0  0  0  0  0  0  0
   -6.4550   14.2750    1.3120 C   0  0  1  0  0  0  0  0  0  0  0  0
   -7.0550   14.9520   -0.9780 C   0  0  0  0  0  0  0  0  0  0  0  0
   -6.7420   14.8700    2.6160 N   0  0  0  0  0  0  0  0  0  0  0  0
   -4.1970   14.8750   -3.2790 C   0  0  0  0  0  0  0  0  0  0  0  0
   -7.4430   14.7830    0.2900 C   0  0  0  0  0  0  0  0  0  0  0  0
   -8.0190   15.0470    3.1370 C   0  0  0  0  0  0  0  0  0  0  0  0
   -7.9940   15.0020    4.5170 N   0  0  0  0  0  0  0  0  0  0  0  0
   -9.0070   15.2250    2.4340 O   0  0  0  0  0  0  0  0  0  0  0  0
   -9.1020   15.0480    5.3410 C   0  0  0  0  0  0  0  0  0  0  0  0
   -9.2420   15.1920    6.7010 C   0  0  0  0  0  0  0  0  0  0  0  0
  -10.6020   14.8950    4.5460 S   0  0  0  0  0  0  0  0  0  0  0  0
  -11.4640   15.0190    6.0230 C   0  0  0  0  0  0  0  0  0  0  0  0
  -10.6160   15.1750    7.0990 C   0  0  0  0  0  0  0  0  0  0  0  0
  2  1  1  1
  2  3  1  0
  2  4  1  0
  4  5  1  0
  3  6  1  0
  4  7  1  0
  5  8  2  0
  6  8  1  0
  7  9  1  0
  9 10  1  0
  9 11  1  0
 10 12  1  6
 11 13  1  0
 10 14  1  0
 13 15  1  1
 12 16  1  0
 13 17  1  0
 14 17  2  0
 15 18  1  0
 18 19  1  0
 18 20  2  0
 19 21  1  0
 21 22  2  0
 21 23  1  0
 23 24  1  0
 22 25  1  0
 24 25  2  0
M  END
