x0681_0_A-x0844_0_A
     RDKit          3D

 13 14  0  0  0  0  0  0  0  0999 V2000
   -3.7980   15.3090   -3.0340 N   0  0  0  0  0  0  0  0  0  0  0  0
   -3.1500   14.7730   -1.9610 C   0  0  0  0  0  0  0  0  0  0  0  0
   -2.0050   14.3640   -2.0520 O   0  0  0  0  0  0  0  0  0  0  0  0
   -4.0090   14.7640   -0.7170 C   0  0  1  0  0  0  0  0  0  0  0  0
   -4.8240   13.5440   -0.6030 C   0  0  0  0  0  0  0  0  0  0  0  0
   -3.3900   14.9520    0.6550 C   0  0  0  0  0  0  0  0  0  0  0  0
   -5.7140   13.5460    0.4120 N   0  0  0  0  0  0  0  0  0  0  0  0
   -4.5340   15.4000    1.5470 C   0  0  0  0  0  0  0  0  0  0  0  0
   -4.8490   12.4370   -1.3120 N   0  0  0  0  0  0  0  0  0  0  0  0
   -5.8470   14.6310    1.2680 C   0  0  0  0  0  0  0  0  0  0  0  0
   -6.3730   12.3440    0.3640 C   0  0  0  0  0  0  0  0  0  0  0  0
   -5.8250   11.6790   -0.7090 C   0  0  0  0  0  0  0  0  0  0  0  0
   -6.9840   14.8980    1.6440 O   0  0  0  0  0  0  0  0  0  0  0  0
  1  2  1  0
  2  3  2  0
  4  2  1  6
  4  5  1  0
  4  6  1  0
  5  7  1  0
  6  8  1  0
  5  9  2  0
  7 10  1  0
  8 10  1  0
  7 11  1  0
  9 12  1  0
 11 12  2  0
 10 13  2  0
M  END
