x0685_0_A-x0926_0_A
     RDKit          3D

 12 12  0  0  0  0  0  0  0  0999 V2000
   -6.1890   14.0880    2.5380 N   0  0  0  0  0  0  0  0  0  0  0  0
   -7.5320   14.5950    2.7670 C   0  0  0  0  0  0  0  0  0  0  0  0
   -8.5110   13.5070    3.1610 C   0  0  0  0  0  0  0  0  0  0  0  0
   -5.3370   14.8190    1.6470 C   0  0  1  0  0  0  0  0  0  0  0  0
   -3.9570   14.3230    1.3720 C   0  0  0  0  0  0  0  0  0  0  0  0
   -6.1090   14.9170    0.4580 N   0  0  0  0  0  0  0  0  0  0  0  0
   -3.3580   14.5490    0.1900 C   0  0  0  0  0  0  0  0  0  0  0  0
   -5.5940   15.0730   -0.7830 C   0  0  0  0  0  0  0  0  0  0  0  0
   -6.3570   15.0120   -1.7340 O   0  0  0  0  0  0  0  0  0  0  0  0
   -4.0900   15.3090   -0.8780 C   0  0  2  0  0  0  0  0  0  0  0  0
   -3.5860   15.0460   -2.2350 C   0  0  0  0  0  0  0  0  0  0  0  0
   -3.1790   14.9080   -3.3150 N   0  0  0  0  0  0  0  0  0  0  0  0
  1  2  1  0
  2  3  1  0
  4  1  1  1
  4  5  1  0
  4  6  1  0
  5  7  2  0
  6  8  1  0
  8  9  2  0
  7 10  1  0
  8 10  1  0
 10 11  1  6
 11 12  3  0
M  END
