x0681_0_A_α-x0910_0_A_α
     RDKit          3D

 17 19  0  0  0  0  0  0  0  0999 V2000
   -3.3960   15.6060   -2.2340 N   0  0  0  0  0  0  0  0  0  0  0  0
   -2.9320   14.4960   -1.4030 C   0  0  2  0  0  0  0  0  0  0  0  0
   -2.8330   13.3870   -2.2910 O   0  0  0  0  0  0  0  0  0  0  0  0
   -3.8630   14.2140   -0.2340 C   0  0  2  0  0  0  0  0  0  0  0  0
   -1.6200   14.7200   -0.6570 C   0  0  0  0  0  0  0  0  0  0  0  0
   -4.9580   13.2400   -0.3540 C   0  0  0  0  0  0  0  0  0  0  0  0
   -4.3350   15.4620    0.5160 C   0  0  0  0  0  0  0  0  0  0  0  0
   -1.6040   14.9100    0.6790 N   0  0  0  0  0  0  0  0  0  0  0  0
   -0.3770   14.7330   -1.2450 N   0  0  0  0  0  0  0  0  0  0  0  0
   -5.8760   13.1670    0.6460 N   0  0  0  0  0  0  0  0  0  0  0  0
   -4.7110   15.0020    1.8940 C   0  0  0  0  0  0  0  0  0  0  0  0
   -5.2000   12.3820   -1.3170 N   0  0  0  0  0  0  0  0  0  0  0  0
   -0.3060   15.0390    0.9230 N   0  0  0  0  0  0  0  0  0  0  0  0
    0.4150   14.9360   -0.2130 C   0  0  0  0  0  0  0  0  0  0  0  0
   -5.8650   13.9950    1.8460 C   0  0  0  0  0  0  0  0  0  0  0  0
   -6.7690   12.2020    0.3140 C   0  0  0  0  0  0  0  0  0  0  0  0
   -6.3340   11.7280   -0.9050 C   0  0  0  0  0  0  0  0  0  0  0  0
  2  1  1  6
  2  3  1  0
  2  4  1  0
  2  5  1  0
  4  6  1  0
  4  7  1  6
  5  8  2  0
  5  9  1  0
  6 10  1  0
  7 11  1  0
  6 12  2  0
  8 13  1  0
  9 14  2  0
 13 14  1  0
 10 15  1  0
 11 15  1  0
 10 16  1  0
 12 17  1  0
 16 17  2  0
M  END
