x0689_0_A_α-x0900_1_A_α
     RDKit          3D

 19 20  0  0  0  0  0  0  0  0999 V2000
   -3.7720   14.4570    1.2610 N   0  0  0  0  0  0  0  0  0  0  0  0
   -4.4350   15.6870    0.9700 C   0  0  0  0  0  0  0  0  0  0  0  0
   -2.4490   14.4060    0.8870 C   0  0  0  0  0  0  0  0  0  0  0  0
   -2.2510   14.2300   -0.4250 N   0  0  0  0  0  0  0  0  0  0  0  0
   -1.4800   14.5200    1.7870 N   0  0  0  0  0  0  0  0  0  0  0  0
   -0.9790   14.1660   -0.8600 C   0  0  0  0  0  0  0  0  0  0  0  0
   -0.2320   14.4690    1.3180 C   0  0  0  0  0  0  0  0  0  0  0  0
   -0.7490   13.9360   -2.3300 C   0  0  0  0  0  0  0  0  0  0  0  0
    0.0850   14.2930   -0.0040 C   0  0  0  0  0  0  0  0  0  0  0  0
   -0.1600   12.5350   -2.6110 C   0  0  0  0  0  0  0  0  0  0  0  0
   -1.1380   11.4690   -3.1530 C   0  0  0  0  0  0  0  0  0  0  0  0
   -0.4630   10.4590   -4.0910 C   0  0  0  0  0  0  0  0  0  0  0  0
   -1.4550    9.7370   -5.0300 C   0  0  0  0  0  0  0  0  0  0  0  0
   -0.8860    9.5890   -6.4420 C   0  0  2  0  0  0  0  0  0  0  0  0
   -1.8570    9.8240   -7.5980 C   0  0  0  0  0  0  0  0  0  0  0  0
   -0.3590    8.2150   -6.8170 C   0  0  0  0  0  0  0  0  0  0  0  0
   -0.1260    8.4120   -8.2180 N   0  0  0  0  0  0  0  0  0  0  0  0
   -0.9750    9.3770   -8.7320 C   0  0  0  0  0  0  0  0  0  0  0  0
   -0.9920    9.7820   -9.8790 O   0  0  0  0  0  0  0  0  0  0  0  0
  1  2  1  0
  1  3  1  0
  3  4  2  0
  3  5  1  0
  4  6  1  0
  5  7  2  0
  6  8  1  0
  6  9  2  0
  7  9  1  0
  8 10  1  0
 10 11  1  0
 11 12  1  0
 12 13  1  0
 14 13  1  1
 14 15  1  0
 14 16  1  0
 16 17  1  0
 15 18  1  0
 17 18  1  0
 18 19  2  0
M  END
