x0681_0_A-x0766_0_A
     RDKit          3D

 24 27  0  0  0  0  0  0  0  0999 V2000
   -5.2310   14.9600   -3.0410 N   0  0  0  0  0  0  0  0  0  0  0  0
   -4.4430   14.5340   -1.8790 C   0  0  2  0  0  0  0  0  0  0  0  0
   -5.1900   14.7260   -0.5990 C   0  0  1  0  0  0  0  0  0  0  0  0
   -3.1830   15.2760   -1.7650 C   0  0  2  0  0  0  0  0  0  0  0  0
   -5.6870   13.4060   -0.2540 C   0  0  0  0  0  0  0  0  0  0  0  0
   -4.3430   15.4360    0.4940 C   0  0  0  0  0  0  0  0  0  0  0  0
   -2.4740   15.1360   -3.0520 C   0  0  0  0  0  0  0  0  0  0  0  0
   -2.1830   14.7450   -0.7660 C   0  0  0  0  0  0  0  0  0  0  0  0
   -6.0520   13.1570    0.9920 N   0  0  0  0  0  0  0  0  0  0  0  0
   -4.6130   14.9060    1.8980 C   0  0  0  0  0  0  0  0  0  0  0  0
   -5.8400   12.3750   -1.0440 N   0  0  0  0  0  0  0  0  0  0  0  0
   -1.2820   14.6310   -2.8330 C   0  0  0  0  0  0  0  0  0  0  0  0
   -1.0900   14.3870   -1.4180 C   0  0  0  0  0  0  0  0  0  0  0  0
   -5.9480   14.1570    2.0050 C   0  0  0  0  0  0  0  0  0  0  0  0
   -6.4890   11.8810    1.0550 C   0  0  0  0  0  0  0  0  0  0  0  0
   -6.3490   11.4090   -0.2330 C   0  0  0  0  0  0  0  0  0  0  0  0
   -0.2370   14.3500   -3.8160 C   0  0  2  0  0  0  0  0  0  0  0  0
    0.4510   12.9750   -3.8960 C   0  0  2  0  0  0  0  0  0  0  0  0
    0.9130   15.2580   -3.4520 C   0  0  0  0  0  0  0  0  0  0  0  0
    0.4360   12.1740   -2.6130 C   0  0  0  0  0  0  0  0  0  0  0  0
    1.8340   13.3070   -4.4780 C   0  0  0  0  0  0  0  0  0  0  0  0
    1.8800   14.8370   -4.4980 C   0  0  0  0  0  0  0  0  0  0  0  0
    0.7230   12.5550   -1.4890 O   0  0  0  0  0  0  0  0  0  0  0  0
    0.0490   10.9000   -2.8120 O   0  0  0  0  0  0  0  0  0  0  0  0
  2  1  1  6
  2  3  1  0
  2  4  1  0
  3  5  1  0
  3  6  1  1
  4  7  1  6
  4  8  1  0
  5  9  1  0
  6 10  1  0
  5 11  2  0
  7 12  2  0
  8 13  2  0
 12 13  1  0
  9 14  1  0
 10 14  1  0
  9 15  1  0
 11 16  1  0
 15 16  2  0
 17 12  1  1
 17 18  1  0
 17 19  1  0
 18 20  1  1
 18 21  1  0
 19 22  1  0
 21 22  1  0
 20 23  2  0
 20 24  1  0
M  END
