x0685_1_A-x0855_0_A
     RDKit          3D

 19 20  0  0  0  0  0  0  0  0999 V2000
    0.4210   11.1730   -5.7450 N   0  0  0  0  0  0  0  0  0  0  0  0
    0.4150   12.5940   -5.3290 C   0  0  0  0  0  0  0  0  0  0  0  0
   -0.4270   12.5720   -4.0810 C   0  0  2  0  0  0  0  0  0  0  0  0
    0.1030   10.7790   -7.1300 C   0  0  0  0  0  0  0  0  0  0  0  0
    0.2230    9.2310   -7.2600 C   0  0  0  0  0  0  0  0  0  0  0  0
   -1.2770   11.2790   -7.5790 C   0  0  0  0  0  0  0  0  0  0  0  0
    0.5320   12.0090   -2.6220 S   0  0  0  0  0  0  0  0  0  0  0  0
   -0.2700    8.6510   -8.5730 C   0  0  0  0  0  0  0  0  0  0  0  0
   -1.5080   10.8670   -9.0170 C   0  0  0  0  0  0  0  0  0  0  0  0
   -1.3850   11.6280   -4.5920 N   0  0  0  0  0  0  0  0  0  0  0  0
    2.0710   12.3470   -2.9230 O   0  0  0  0  0  0  0  0  0  0  0  0
    0.3410   10.4200   -2.4550 O   0  0  0  0  0  0  0  0  0  0  0  0
    0.0560   12.7470   -1.2800 O   0  0  0  0  0  0  0  0  0  0  0  0
   -1.5030    9.3430   -9.1460 C   0  0  0  0  0  0  0  0  0  0  0  0
   -1.0670   10.4070   -5.1280 C   0  0  0  0  0  0  0  0  0  0  0  0
   -2.7050   11.9010   -4.6040 N   0  0  0  0  0  0  0  0  0  0  0  0
   -2.2460    9.8660   -5.5270 C   0  0  0  0  0  0  0  0  0  0  0  0
   -3.2230   10.8090   -5.1820 C   0  0  0  0  0  0  0  0  0  0  0  0
   -2.5470    8.2270   -6.3630 Br  0  0  0  0  0  0  0  0  0  0  0  0
  1  2  1  0
  3  2  1  6
  1  4  1  0
  4  5  1  0
  4  6  1  0
  3  7  1  0
  5  8  1  0
  6  9  1  0
  3 10  1  0
  7 11  1  0
  7 12  1  0
  7 13  1  0
  8 14  1  0
  9 14  1  0
 10 15  1  0
 10 16  1  0
 15 17  2  0
 16 18  2  0
 17 18  1  0
 17 19  1  0
M  END
