x0689_0_A-x0849_0_A
     RDKit          3D

 13 14  0  0  0  0  0  0  0  0999 V2000
   -3.5900   13.4340    1.3020 N   0  0  0  0  0  0  0  0  0  0  0  0
   -4.9340   13.9680    1.1930 C   0  0  0  0  0  0  0  0  0  0  0  0
   -2.5680   14.3770    0.9370 C   0  0  2  0  0  0  0  0  0  0  0  0
   -2.2830   14.5760   -0.5080 N   0  0  0  0  0  0  0  0  0  0  0  0
   -1.4470   14.2370    1.8460 N   0  0  0  0  0  0  0  0  0  0  0  0
   -3.1300   15.5000    1.5530 N   0  0  0  0  0  0  0  0  0  0  0  0
   -0.9550   14.6330   -0.9050 C   0  0  0  0  0  0  0  0  0  0  0  0
   -0.2950   14.3040    1.3400 C   0  0  0  0  0  0  0  0  0  0  0  0
   -3.3710   15.0930   -1.1980 C   0  0  0  0  0  0  0  0  0  0  0  0
   -3.8880   16.1330    0.8250 C   0  0  0  0  0  0  0  0  0  0  0  0
   -3.6760   14.7450   -3.0180 Br  0  0  0  0  0  0  0  0  0  0  0  0
    0.0780   14.5100   -0.0680 C   0  0  0  0  0  0  0  0  0  0  0  0
   -4.2410   15.8740   -0.5680 C   0  0  0  0  0  0  0  0  0  0  0  0
  1  2  1  0
  3  1  1  6
  3  4  1  0
  3  5  1  0
  3  6  1  0
  4  7  1  0
  5  8  2  0
  4  9  1  0
  6 10  2  0
  9 11  1  0
  7 12  2  0
  8 12  1  0
  9 13  2  0
 10 13  1  0
M  END
