x0689_0_A-x0962_0_A
     RDKit          3D

 14 15  0  0  0  0  0  0  0  0999 V2000
   -3.3840   15.3060    1.6090 N   0  0  0  0  0  0  0  0  0  0  0  0
   -2.1340   15.1270    0.9130 C   0  0  1  0  0  0  0  0  0  0  0  0
   -1.5250   14.1230    1.7110 N   0  0  0  0  0  0  0  0  0  0  0  0
   -2.1000   14.8470   -0.5070 N   0  0  0  0  0  0  0  0  0  0  0  0
   -0.8920   14.4060   -1.0090 C   0  0  0  0  0  0  0  0  0  0  0  0
   -0.1260   14.0610    1.3080 C   0  0  0  0  0  0  0  0  0  0  0  0
   -3.2950   15.0210   -1.3220 C   0  0  1  0  0  0  0  0  0  0  0  0
    0.0800   14.0220   -0.1820 C   0  0  0  0  0  0  0  0  0  0  0  0
   -3.3690   14.2970   -2.5790 N   0  0  0  0  0  0  0  0  0  0  0  0
   -4.5430   14.8360   -0.5450 C   0  0  0  0  0  0  0  0  0  0  0  0
   -4.5680   14.1660    0.6500 N   0  0  0  0  0  0  0  0  0  0  0  0
   -5.8440   15.2220   -0.7510 C   0  0  0  0  0  0  0  0  0  0  0  0
   -5.8460   14.1730    1.1110 C   0  0  0  0  0  0  0  0  0  0  0  0
   -6.6440   14.8020    0.2820 N   0  0  0  0  0  0  0  0  0  0  0  0
  2  1  1  1
  2  3  1  0
  2  4  1  0
  4  5  1  0
  3  6  1  0
  4  7  1  0
  5  8  2  0
  6  8  1  0
  7  9  1  6
  7 10  1  0
 10 11  1  0
 10 12  2  0
 11 13  1  0
 12 14  1  0
 13 14  2  0
M  END
