x0689_0_A-x0722_0_A
     RDKit          3D

 12 12  0  0  0  0  0  0  0  0999 V2000
   -3.6110   14.5010    1.7970 N   0  0  0  0  0  0  0  0  0  0  0  0
   -4.7100   15.4300    1.8000 C   0  0  0  0  0  0  0  0  0  0  0  0
   -2.5820   14.9260    0.9120 C   0  0  2  0  0  0  0  0  0  0  0  0
   -2.7720   14.6520   -0.4990 N   0  0  0  0  0  0  0  0  0  0  0  0
   -1.4190   14.4120    1.5930 N   0  0  0  0  0  0  0  0  0  0  0  0
   -4.0390   15.2360   -1.0920 C   0  0  0  0  0  0  0  0  0  0  0  0
   -1.5880   14.5680   -1.2290 C   0  0  0  0  0  0  0  0  0  0  0  0
   -0.1930   14.4240    0.8310 C   0  0  0  0  0  0  0  0  0  0  0  0
   -5.4060   14.6130   -0.6760 C   0  0  0  0  0  0  0  0  0  0  0  0
   -0.3740   14.4660   -0.6520 C   0  0  0  0  0  0  0  0  0  0  0  0
   -6.4880   15.1770   -0.8570 O   0  0  0  0  0  0  0  0  0  0  0  0
   -5.3950   13.3820   -0.0800 N   0  0  0  0  0  0  0  0  0  0  0  0
  1  2  1  0
  3  1  1  1
  3  4  1  0
  3  5  1  0
  4  6  1  0
  4  7  1  0
  5  8  1  0
  6  9  1  0
  7 10  2  0
  8 10  1  0
  9 11  2  0
  9 12  1  0
M  END
