x0685_0_A_α-x0900_1_A_α
     RDKit          3D

 21 22  0  0  0  0  0  0  0  0999 V2000
   -5.9890   14.9670    2.6110 N   0  0  0  0  0  0  0  0  0  0  0  0
   -7.4270   14.7330    2.6710 C   0  0  0  0  0  0  0  0  0  0  0  0
   -7.7620   13.2860    2.9920 C   0  0  0  0  0  0  0  0  0  0  0  0
   -5.3210   14.9390    1.3910 C   0  0  0  0  0  0  0  0  0  0  0  0
   -3.9310   14.9800    1.2970 C   0  0  0  0  0  0  0  0  0  0  0  0
   -6.1110   14.8750    0.3040 N   0  0  0  0  0  0  0  0  0  0  0  0
   -3.3320   14.9600    0.0390 C   0  0  0  0  0  0  0  0  0  0  0  0
   -5.5070   14.8600   -0.9060 C   0  0  0  0  0  0  0  0  0  0  0  0
   -4.1360   14.9010   -1.0910 C   0  0  0  0  0  0  0  0  0  0  0  0
   -3.5840   14.8770   -2.4080 C   0  0  0  0  0  0  0  0  0  0  0  0
   -3.1420   14.8020   -3.5270 C   0  0  0  0  0  0  0  0  0  0  0  0
   -2.6080   14.6460   -4.8950 C   0  0  0  0  0  0  0  0  0  0  0  0
   -3.0790   13.3430   -5.5760 C   0  0  0  0  0  0  0  0  0  0  0  0
   -1.9220   12.4310   -6.0350 C   0  0  0  0  0  0  0  0  0  0  0  0
   -2.3410   11.2050   -6.8800 C   0  0  0  0  0  0  0  0  0  0  0  0
   -1.2430   10.1290   -6.9850 C   0  0  2  0  0  0  0  0  0  0  0  0
   -0.8650    9.6940   -8.3880 C   0  0  0  0  0  0  0  0  0  0  0  0
   -1.5160    8.7540   -6.3750 C   0  0  0  0  0  0  0  0  0  0  0  0
   -1.1540   10.1930   -9.4620 O   0  0  0  0  0  0  0  0  0  0  0  0
   -0.0900    8.5670   -8.2080 N   0  0  0  0  0  0  0  0  0  0  0  0
   -0.3740    7.9260   -6.9500 C   0  0  0  0  0  0  0  0  0  0  0  0
  1  2  1  0
  2  3  1  0
  1  4  1  0
  4  5  2  0
  4  6  1  0
  5  7  1  0
  6  8  2  0
  7  9  2  0
  8  9  1  0
  9 10  1  0
 10 11  3  0
 11 12  1  0
 12 13  1  0
 13 14  1  0
 14 15  1  0
 16 15  1  6
 16 17  1  0
 16 18  1  0
 17 19  2  0
 17 20  1  0
 18 21  1  0
 20 21  1  0
M  END
