x0685_0_A_α-x0895_1_A_α
     RDKit          3D

 12 12  0  0  0  0  0  0  0  0999 V2000
   -6.1530   14.8900    2.6510 N   0  0  0  0  0  0  0  0  0  0  0  0
   -7.5900   14.6770    2.5260 C   0  0  0  0  0  0  0  0  0  0  0  0
   -7.9230   13.2680    2.9940 C   0  0  0  0  0  0  0  0  0  0  0  0
   -5.3090   14.4490    1.5640 C   0  0  2  0  0  0  0  0  0  0  0  0
   -3.9610   15.1740    1.5480 C   0  0  0  0  0  0  0  0  0  0  0  0
   -6.1470   14.6620    0.3950 N   0  0  0  0  0  0  0  0  0  0  0  0
   -3.3150   15.0470    0.2050 C   0  0  0  0  0  0  0  0  0  0  0  0
   -5.4620   14.5190   -0.8930 C   0  0  0  0  0  0  0  0  0  0  0  0
   -2.1220   14.7170    0.1380 O   0  0  0  0  0  0  0  0  0  0  0  0
   -4.1950   15.3540   -0.9920 C   0  0  2  0  0  0  0  0  0  0  0  0
   -3.5320   15.1240   -2.2750 C   0  0  0  0  0  0  0  0  0  0  0  0
   -3.0500   15.0020   -3.3230 N   0  0  0  0  0  0  0  0  0  0  0  0
  1  2  1  0
  2  3  1  0
  4  1  1  1
  4  5  1  0
  4  6  1  0
  5  7  1  0
  6  8  1  0
  7  9  2  0
  7 10  1  0
  8 10  1  0
 10 11  1  6
 11 12  3  0
M  END
