x0689_0_A-x0727_0_A
     RDKit          3D

 22 23  0  0  0  0  0  0  0  0999 V2000
   -3.5910   15.0520    1.6610 N   0  0  0  0  0  0  0  0  0  0  0  0
   -4.7690   15.2900    0.8710 C   0  0  0  0  0  0  0  0  0  0  0  0
   -2.4770   14.7690    0.8990 C   0  0  0  0  0  0  0  0  0  0  0  0
   -2.5640   14.7910   -0.4360 N   0  0  0  0  0  0  0  0  0  0  0  0
   -1.3580   14.4950    1.5600 N   0  0  0  0  0  0  0  0  0  0  0  0
   -1.4510   14.5360   -1.1520 C   0  0  0  0  0  0  0  0  0  0  0  0
   -0.2690   14.2420    0.8000 C   0  0  0  0  0  0  0  0  0  0  0  0
   -0.2280   14.2500   -0.6030 C   0  0  0  0  0  0  0  0  0  0  0  0
    0.9850   13.9970   -1.4940 C   0  0  0  0  0  0  0  0  0  0  0  0
    1.2350   12.6130   -1.8660 O   0  0  0  0  0  0  0  0  0  0  0  0
    0.6260   12.0130   -2.9570 C   0  0  0  0  0  0  0  0  0  0  0  0
    1.0560   12.5360   -4.3580 C   0  0  1  0  0  0  0  0  0  0  0  0
   -0.1770   11.0970   -2.8220 O   0  0  0  0  0  0  0  0  0  0  0  0
    0.1630   11.9030   -5.3370 N   0  0  0  0  0  0  0  0  0  0  0  0
    0.9120   14.0410   -4.4860 C   0  0  0  0  0  0  0  0  0  0  0  0
    0.5650   11.2750   -6.5020 C   0  0  0  0  0  0  0  0  0  0  0  0
    1.5980   11.5210   -7.0990 O   0  0  0  0  0  0  0  0  0  0  0  0
   -0.4770   10.2430   -6.9000 C   0  0  0  0  0  0  0  0  0  0  0  0
   -0.9340   10.2100   -8.3470 C   0  0  0  0  0  0  0  0  0  0  0  0
   -0.1490    8.7830   -6.6460 C   0  0  0  0  0  0  0  0  0  0  0  0
   -1.8500    8.9820   -8.3500 C   0  0  0  0  0  0  0  0  0  0  0  0
   -1.4270    8.1300   -7.1410 C   0  0  0  0  0  0  0  0  0  0  0  0
  1  2  1  0
  1  3  1  0
  3  4  2  0
  3  5  1  0
  4  6  1  0
  5  7  2  0
  6  8  2  0
  7  8  1  0
  8  9  1  0
  9 10  1  0
 10 11  1  0
 11 12  1  0
 11 13  2  0
 12 14  1  0
 12 15  1  1
 14 16  1  0
 16 17  2  0
 16 18  1  0
 18 19  1  0
 18 20  1  0
 19 21  1  0
 20 22  1  0
 21 22  1  0
M  END
