x0685_0_A-x0962_1_A
     RDKit          3D

 12 12  0  0  0  0  0  0  0  0999 V2000
   -6.1720   15.0910    2.8340 N   0  0  0  0  0  0  0  0  0  0  0  0
   -7.6040   14.8310    2.8340 C   0  0  0  0  0  0  0  0  0  0  0  0
   -7.8740   13.3460    3.0140 C   0  0  0  0  0  0  0  0  0  0  0  0
   -5.5060   14.9360    1.6040 C   0  0  0  0  0  0  0  0  0  0  0  0
   -4.1120   15.0610    1.5250 C   0  0  0  0  0  0  0  0  0  0  0  0
   -6.2400   14.6780    0.5180 N   0  0  0  0  0  0  0  0  0  0  0  0
   -3.4670   14.9120    0.3000 C   0  0  0  0  0  0  0  0  0  0  0  0
   -5.6010   14.5400   -0.6490 C   0  0  0  0  0  0  0  0  0  0  0  0
   -4.2380   14.6420   -0.8230 C   0  0  0  0  0  0  0  0  0  0  0  0
   -3.6860   14.4520   -2.1980 C   0  0  2  0  0  0  0  0  0  0  0  0
   -2.4060   15.0750   -2.4650 N   0  0  0  0  0  0  0  0  0  0  0  0
   -4.6940   14.9750   -3.1680 C   0  0  0  0  0  0  0  0  0  0  0  0
  1  2  1  0
  2  3  1  0
  1  4  1  0
  4  5  2  0
  4  6  1  0
  5  7  1  0
  6  8  2  0
  7  9  2  0
  8  9  1  0
  9 10  1  0
 10 11  1  0
 10 12  1  6
M  END
