x0685_0_A-x0844_0_A
     RDKit          3D

 12 12  0  0  0  0  0  0  0  0999 V2000
   -5.9720   15.0650    2.7240 N   0  0  0  0  0  0  0  0  0  0  0  0
   -7.3030   14.5260    2.9830 C   0  0  0  0  0  0  0  0  0  0  0  0
   -7.3940   13.0330    2.7230 C   0  0  0  0  0  0  0  0  0  0  0  0
   -5.3530   15.0240    1.4610 C   0  0  0  0  0  0  0  0  0  0  0  0
   -3.9650   15.1000    1.3360 C   0  0  0  0  0  0  0  0  0  0  0  0
   -6.1550   14.9200    0.2950 N   0  0  0  0  0  0  0  0  0  0  0  0
   -7.4350   14.8410    0.3690 O   0  0  0  0  0  0  0  0  0  0  0  0
   -3.3750   15.0890    0.0850 C   0  0  0  0  0  0  0  0  0  0  0  0
   -5.5460   14.9130   -0.9390 C   0  0  0  0  0  0  0  0  0  0  0  0
   -4.1630   15.0010   -1.0570 C   0  0  0  0  0  0  0  0  0  0  0  0
   -3.5670   15.0040   -2.3550 C   0  0  0  0  0  0  0  0  0  0  0  0
   -3.0880   15.0300   -3.4110 N   0  0  0  0  0  0  0  0  0  0  0  0
  1  2  1  0
  2  3  1  0
  1  4  1  0
  4  5  2  0
  4  6  1  0
  6  7  1  0
  5  8  1  0
  6  9  2  0
  8 10  2  0
  9 10  1  0
 10 11  1  0
 11 12  3  0
M  CHG  2   6   1   7  -1
M  END
