x0681_0_A_α-x0592_0_A_α
     RDKit          3D

 17 18  0  0  0  0  0  0  0  0999 V2000
   -4.0540   15.3550   -3.1340 N   0  0  0  0  0  0  0  0  0  0  0  0
   -3.5130   14.7950   -2.0270 C   0  0  0  0  0  0  0  0  0  0  0  0
   -2.3370   14.4400   -2.0380 O   0  0  0  0  0  0  0  0  0  0  0  0
   -4.4510   14.6580   -0.8430 C   0  0  1  0  0  0  0  0  0  0  0  0
   -5.3410   13.4830   -0.9230 C   0  0  0  0  0  0  0  0  0  0  0  0
   -3.8080   14.4870    0.5120 C   0  0  1  0  0  0  0  0  0  0  0  0
   -2.5170   15.2220    0.6720 C   0  0  0  0  0  0  0  0  0  0  0  0
   -6.0580   13.1130    0.1710 N   0  0  0  0  0  0  0  0  0  0  0  0
   -4.9090   14.8660    1.5040 C   0  0  0  0  0  0  0  0  0  0  0  0
   -5.5760   12.6880   -1.9280 N   0  0  0  0  0  0  0  0  0  0  0  0
   -1.5950   14.6190    1.5900 N   0  0  0  0  0  0  0  0  0  0  0  0
   -6.0550   13.7950    1.4350 C   0  0  1  0  0  0  0  0  0  0  0  0
   -6.7760   12.0160   -0.1440 C   0  0  0  0  0  0  0  0  0  0  0  0
   -6.4680   11.7640   -1.4490 C   0  0  0  0  0  0  0  0  0  0  0  0
   -7.5070   14.3470    1.5290 C   0  0  0  0  0  0  0  0  0  0  0  0
   -8.0380   14.4870    2.9370 C   0  0  0  0  0  0  0  0  0  0  0  0
   -7.1620   15.3030    3.6770 O   0  0  0  0  0  0  0  0  0  0  0  0
  1  2  1  0
  2  3  2  0
  4  2  1  6
  4  5  1  0
  4  6  1  0
  6  7  1  6
  5  8  1  0
  6  9  1  0
  5 10  2  0
  7 11  1  0
  8 12  1  0
  9 12  1  0
  8 13  1  0
 10 14  1  0
 13 14  2  0
 12 15  1  6
 15 16  1  0
 16 17  1  0
M  END
