x0685_1_A-x0685_0_A
     RDKit          3D

 26 27  0  0  0  0  0  0  0  0999 V2000
   -1.3900   10.7290   -4.7860 N   0  0  0  0  0  0  0  0  0  0  0  0
   -1.5260   12.1600   -4.3530 C   0  0  1  0  0  0  0  0  0  0  0  0
   -0.1300   12.7380   -4.0990 C   0  0  0  0  0  0  0  0  0  0  0  0
   -1.4660   10.2910   -6.2020 C   0  0  0  0  0  0  0  0  0  0  0  0
   -2.3380   13.0500   -5.3310 C   0  0  0  0  0  0  0  0  0  0  0  0
   -0.7740    8.9110   -6.3570 C   0  0  0  0  0  0  0  0  0  0  0  0
   -0.9260   11.3250   -7.2120 C   0  0  0  0  0  0  0  0  0  0  0  0
    0.6830   12.0390   -2.6600 S   0  0  0  0  0  0  0  0  0  0  0  0
   -2.4750   14.5330   -4.8950 C   0  0  0  0  0  0  0  0  0  0  0  0
    0.0200    8.7940   -7.6540 C   0  0  0  0  0  0  0  0  0  0  0  0
   -1.0700   10.8640   -8.6630 C   0  0  0  0  0  0  0  0  0  0  0  0
    2.2390   12.3350   -2.8640 O   0  0  0  0  0  0  0  0  0  0  0  0
    0.3730   10.4660   -2.5600 O   0  0  0  0  0  0  0  0  0  0  0  0
    0.1530   12.7680   -1.3380 O   0  0  0  0  0  0  0  0  0  0  0  0
   -3.0540   14.7150   -3.5400 C   0  0  0  0  0  0  0  0  0  0  0  0
   -0.7760    9.3700   -8.8240 C   0  0  0  0  0  0  0  0  0  0  0  0
   -3.5290   14.8300   -2.4350 C   0  0  0  0  0  0  0  0  0  0  0  0
   -4.1070   14.8990   -1.1250 C   0  0  0  0  0  0  0  0  0  0  0  0
   -3.3170   14.9990    0.0140 C   0  0  0  0  0  0  0  0  0  0  0  0
   -5.4800   14.8640   -0.9550 C   0  0  0  0  0  0  0  0  0  0  0  0
   -3.9350   15.0640    1.2590 C   0  0  0  0  0  0  0  0  0  0  0  0
   -6.0990   14.9230    0.2490 N   0  0  0  0  0  0  0  0  0  0  0  0
   -5.3260   15.0270    1.3470 C   0  0  0  0  0  0  0  0  0  0  0  0
   -5.8920   15.1130    2.6250 N   0  0  0  0  0  0  0  0  0  0  0  0
   -7.2610   14.6550    2.8860 C   0  0  0  0  0  0  0  0  0  0  0  0
   -7.3840   13.1440    2.8100 C   0  0  0  0  0  0  0  0  0  0  0  0
  1  2  1  0
  2  3  1  6
  1  4  1  0
  2  5  1  0
  4  6  1  0
  4  7  1  0
  3  8  1  0
  5  9  1  0
  6 10  1  0
  7 11  1  0
  8 12  1  0
  8 13  1  0
  8 14  1  0
  9 15  1  0
 10 16  1  0
 11 16  1  0
 15 17  3  0
 17 18  1  0
 18 19  2  0
 18 20  1  0
 19 21  1  0
 20 22  2  0
 21 23  2  0
 22 23  1  0
 23 24  1  0
 24 25  1  0
 25 26  1  0
M  END
