x0681_0_A-x0855_0_A
     RDKit          3D

 24 26  0  0  0  0  0  0  0  0999 V2000
   -4.2260   15.4070   -3.0330 N   0  0  0  0  0  0  0  0  0  0  0  0
   -3.3680   14.9240   -2.0870 C   0  0  0  0  0  0  0  0  0  0  0  0
   -2.1510   14.5550   -2.3550 N   0  0  0  0  0  0  0  0  0  0  0  0
   -4.0600   14.8870   -0.7070 C   0  0  1  0  0  0  0  0  0  0  0  0
   -1.1390   14.0250   -1.4330 C   0  0  0  0  0  0  0  0  0  0  0  0
   -4.8390   13.6190   -0.5840 C   0  0  0  0  0  0  0  0  0  0  0  0
   -3.3350   15.3030    0.5780 C   0  0  0  0  0  0  0  0  0  0  0  0
    0.2310   14.3080   -2.0860 C   0  0  0  0  0  0  0  0  0  0  0  0
   -5.5410   13.4260    0.5380 N   0  0  0  0  0  0  0  0  0  0  0  0
   -4.0890   14.8840    1.8450 C   0  0  0  0  0  0  0  0  0  0  0  0
   -4.9820   12.6090   -1.4190 N   0  0  0  0  0  0  0  0  0  0  0  0
    1.0670   13.1230   -2.1660 O   0  0  0  0  0  0  0  0  0  0  0  0
   -5.5220   14.4010    1.5770 C   0  0  0  0  0  0  0  0  0  0  0  0
   -6.1910   12.2360    0.4660 C   0  0  0  0  0  0  0  0  0  0  0  0
   -5.8290   11.7400   -0.7690 C   0  0  0  0  0  0  0  0  0  0  0  0
    0.7240   12.1260   -3.0340 C   0  0  0  0  0  0  0  0  0  0  0  0
    0.5690   10.9570   -2.6930 O   0  0  0  0  0  0  0  0  0  0  0  0
    0.5470   12.5810   -4.4600 C   0  0  0  0  0  0  0  0  0  0  0  0
   -0.4410   11.7200   -5.0700 N   0  0  0  0  0  0  0  0  0  0  0  0
   -0.2690   10.8060   -6.0820 C   0  0  0  0  0  0  0  0  0  0  0  0
   -1.7120   11.7700   -4.6210 N   0  0  0  0  0  0  0  0  0  0  0  0
   -1.4990   10.2410   -6.2670 C   0  0  0  0  0  0  0  0  0  0  0  0
   -2.3560   10.8610   -5.3570 C   0  0  0  0  0  0  0  0  0  0  0  0
   -1.9890    8.9090   -7.4730 Br  0  0  0  0  0  0  0  0  0  0  0  0
  1  2  1  0
  2  3  2  3
  4  2  1  6
  3  5  1  0
  4  6  1  0
  4  7  1  0
  5  8  1  0
  6  9  1  0
  7 10  1  0
  6 11  2  0
  8 12  1  0
  9 13  1  0
 10 13  1  0
  9 14  1  0
 11 15  1  0
 14 15  2  0
 12 16  1  0
 16 17  2  0
 16 18  1  0
 18 19  1  0
 19 20  1  0
 19 21  1  0
 20 22  2  0
 21 23  2  0
 22 23  1  0
 22 24  1  0
M  END
