x0685_0_A_α-x0849_0_A_α
     RDKit          3D

 16 17  0  0  0  0  0  0  0  0999 V2000
   -5.9210   15.0520    2.5590 N   0  0  0  0  0  0  0  0  0  0  0  0
   -7.3650   14.7890    2.6330 C   0  0  0  0  0  0  0  0  0  0  0  0
   -7.6760   13.3410    2.9750 C   0  0  0  0  0  0  0  0  0  0  0  0
   -5.2290   14.6830    1.3470 C   0  0  2  0  0  0  0  0  0  0  0  0
   -3.9850   15.5860    1.0890 C   0  0  0  0  0  0  0  0  0  0  0  0
   -6.1680   14.7660    0.2500 N   0  0  0  0  0  0  0  0  0  0  0  0
   -3.1180   14.9280   -0.0140 C   0  0  1  0  0  0  0  0  0  0  0  0
   -5.4910   15.2050   -0.9730 C   0  0  0  0  0  0  0  0  0  0  0  0
   -4.1010   14.5590   -1.1810 C   0  0  1  0  0  0  0  0  0  0  0  0
   -1.8340   15.6830   -0.5560 C   0  0  0  0  0  0  0  0  0  0  0  0
   -2.5590   13.6990    0.6780 C   0  0  0  0  0  0  0  0  0  0  0  0
   -3.5820   14.9810   -2.4960 C   0  0  0  0  0  0  0  0  0  0  0  0
   -1.5730   14.1180    1.6560 N   0  0  0  0  0  0  0  0  0  0  0  0
   -0.4940   15.3560    0.0740 C   0  0  0  0  0  0  0  0  0  0  0  0
   -3.1430   15.3060   -3.5210 N   0  0  0  0  0  0  0  0  0  0  0  0
   -0.4370   14.6010    1.1520 C   0  0  0  0  0  0  0  0  0  0  0  0
  1  2  1  0
  2  3  1  0
  4  1  1  1
  4  5  1  0
  4  6  1  0
  7  5  1  1
  6  8  1  0
  7  9  1  0
  8  9  1  0
  7 10  1  0
  7 11  1  0
  9 12  1  6
 11 13  1  0
 10 14  1  0
 12 15  3  0
 13 16  1  0
 14 16  2  0
M  END
