x0685_0_A_α-5CMS_0_J_δ
     RDKit          3D

 20 22  0  0  0  0  0  0  0  0999 V2000
   -6.9360   14.3810    2.2720 N   0  0  0  0  0  0  0  0  0  0  0  0
   -8.1420   13.5850    2.1190 C   0  0  0  0  0  0  0  0  0  0  0  0
   -8.0650   12.3100    2.9390 C   0  0  0  0  0  0  0  0  0  0  0  0
   -6.0210   14.3640    1.2230 C   0  0  0  0  0  0  0  0  0  0  0  0
   -4.7950   13.7360    1.3220 C   0  0  0  0  0  0  0  0  0  0  0  0
   -6.3980   15.0080    0.1010 N   0  0  0  0  0  0  0  0  0  0  0  0
   -3.9180   13.7820    0.2510 C   0  0  0  0  0  0  0  0  0  0  0  0
   -5.5210   15.0480   -0.9380 C   0  0  0  0  0  0  0  0  0  0  0  0
   -4.2570   14.4600   -0.9280 C   0  0  0  0  0  0  0  0  0  0  0  0
   -3.3020   14.5590   -2.1020 C   0  0  2  0  0  0  0  0  0  0  0  0
   -2.2220   13.6080   -2.0940 N   0  0  0  0  0  0  0  0  0  0  0  0
   -2.6160   15.8150   -1.9660 N   0  0  0  0  0  0  0  0  0  0  0  0
   -3.9080   14.5260   -3.3930 N   0  0  0  0  0  0  0  0  0  0  0  0
   -1.6570   13.9650   -0.8390 C   0  0  2  0  0  0  0  0  0  0  0  0
   -1.6490   15.4780   -0.8870 C   0  0  2  0  0  0  0  0  0  0  0  0
   -0.3690   13.4950   -0.4590 N   0  0  0  0  0  0  0  0  0  0  0  0
   -1.8600   15.7290    0.6100 C   0  0  1  0  0  0  0  0  0  0  0  0
   -3.2260   15.9950    0.9990 N   0  0  0  0  0  0  0  0  0  0  0  0
   -0.1690   14.0430    0.8780 C   0  0  0  0  0  0  0  0  0  0  0  0
   -1.4040   14.6030    1.3960 N   0  0  0  0  0  0  0  0  0  0  0  0
  1  2  1  0
  2  3  1  0
  1  4  1  0
  4  5  2  0
  4  6  1  0
  5  7  1  0
  6  8  2  0
  7  9  2  0
  8  9  1  0
  9 10  1  0
 10 11  1  0
 10 12  1  0
 10 13  1  6
 14 11  1  6
 15 12  1  6
 14 15  1  0
 14 16  1  0
 15 17  1  0
 17 18  1  6
 16 19  1  0
 17 20  1  0
 19 20  1  0
M  END
