x0685_0_A_α-x1018_0_A_α
     RDKit          3D

 15 16  0  0  0  0  0  0  0  0999 V2000
   -6.3460   15.0310    2.6390 N   0  0  0  0  0  0  0  0  0  0  0  0
   -7.7740   14.8270    2.6250 C   0  0  0  0  0  0  0  0  0  0  0  0
   -8.1850   13.3800    2.8470 C   0  0  0  0  0  0  0  0  0  0  0  0
   -5.5350   14.6260    1.5010 C   0  0  2  0  0  0  0  0  0  0  0  0
   -4.1230   15.1850    1.5760 C   0  0  0  0  0  0  0  0  0  0  0  0
   -6.1480   14.8850    0.1630 N   0  0  0  0  0  0  0  0  0  0  0  0
   -7.8730   14.4090    0.0690 Cl  0  0  0  0  0  0  0  0  0  0  0  0
   -3.2930   15.1950    0.5210 C   0  0  0  0  0  0  0  0  0  0  0  0
   -5.2120   14.1220   -0.6960 C   0  0  2  0  0  0  0  0  0  0  0  0
   -3.7890   14.6390   -0.7850 C   0  0  1  0  0  0  0  0  0  0  0  0
   -5.3710   13.9670   -2.1410 N   0  0  0  0  0  0  0  0  0  0  0  0
   -3.5900   15.4330   -2.0130 C   0  0  0  0  0  0  0  0  0  0  0  0
   -3.2310   13.4010   -1.2370 N   0  0  0  0  0  0  0  0  0  0  0  0
   -4.0550   13.3740   -2.4560 N   0  0  0  0  0  0  0  0  0  0  0  0
   -3.4130   15.8780   -3.0700 N   0  0  0  0  0  0  0  0  0  0  0  0
  1  2  1  0
  2  3  1  0
  4  1  1  1
  4  5  1  0
  4  6  1  0
  6  7  1  0
  5  8  2  0
  6  9  1  0
  8 10  1  0
  9 10  1  0
  9 11  1  6
 10 12  1  6
 10 13  1  0
 11 14  1  0
 13 14  1  0
 12 15  3  0
M  END
