x0681_0_A_α-x0662_0_A_β
     RDKit          3D

 25 27  0  0  0  0  0  0  0  0999 V2000
   -4.3470   15.6570   -2.3640 N   0  0  0  0  0  0  0  0  0  0  0  0
   -3.4050   14.8190   -1.8440 C   0  0  0  0  0  0  0  0  0  0  0  0
   -2.4360   14.5060   -2.6490 N   0  0  0  0  0  0  0  0  0  0  0  0
   -3.6080   14.3450   -0.4040 C   0  0  2  0  0  0  0  0  0  0  0  0
   -1.3710   13.5970   -2.2040 C   0  0  0  0  0  0  0  0  0  0  0  0
   -4.7080   13.3210   -0.3750 C   0  0  0  0  0  0  0  0  0  0  0  0
   -3.9840   15.5470    0.4840 C   0  0  0  0  0  0  0  0  0  0  0  0
   -1.5570   12.2080   -2.8210 C   0  0  0  0  0  0  0  0  0  0  0  0
   -5.6100   13.2800    0.6540 N   0  0  0  0  0  0  0  0  0  0  0  0
   -4.3700   15.0390    1.8490 C   0  0  0  0  0  0  0  0  0  0  0  0
   -4.9800   12.3740   -1.2500 N   0  0  0  0  0  0  0  0  0  0  0  0
   -0.2570   11.6640   -3.4140 C   0  0  0  0  0  0  0  0  0  0  0  0
   -5.6150   14.1700    1.7890 C   0  0  0  0  0  0  0  0  0  0  0  0
   -6.4880   12.2650    0.4280 C   0  0  0  0  0  0  0  0  0  0  0  0
   -6.0770   11.7190   -0.7620 C   0  0  0  0  0  0  0  0  0  0  0  0
   -0.4770   10.9860   -4.6980 N   0  0  0  0  0  0  0  0  0  0  0  0
    0.2270   11.3690   -5.7150 C   0  0  0  0  0  0  0  0  0  0  0  0
    1.0860   12.2650   -5.8360 O   0  0  0  0  0  0  0  0  0  0  0  0
    0.0480   10.6200   -7.0330 C   0  0  0  0  0  0  0  0  0  0  0  0
    0.8220   10.8800   -8.1640 C   0  0  0  0  0  0  0  0  0  0  0  0
   -0.9270    9.6170   -7.1350 C   0  0  0  0  0  0  0  0  0  0  0  0
    0.6620   10.1920   -9.3670 C   0  0  0  0  0  0  0  0  0  0  0  0
   -1.1050    8.9110   -8.3310 C   0  0  0  0  0  0  0  0  0  0  0  0
    1.4710   10.4990  -10.4750 N   0  0  0  0  0  0  0  0  0  0  0  0
   -0.3120    9.1980   -9.4440 C   0  0  0  0  0  0  0  0  0  0  0  0
  1  2  1  0
  2  3  2  3
  4  2  1  6
  3  5  1  0
  4  6  1  0
  4  7  1  0
  5  8  1  0
  6  9  1  0
  7 10  1  0
  6 11  2  0
  8 12  1  0
  9 13  1  0
 10 13  1  0
  9 14  1  0
 11 15  1  0
 14 15  2  0
 12 16  1  0
 16 17  2  3
 17 18  1  0
 17 19  1  0
 19 20  2  0
 19 21  1  0
 20 22  1  0
 21 23  2  0
 22 24  1  0
 22 25  2  0
 23 25  1  0
M  CHG  1  18  -1
M  END
