x0689_0_A_α-x0421_0_A_α
     RDKit          3D

 19 21  0  0  0  0  0  0  0  0999 V2000
   -3.0880   14.4920    2.3490 N   0  0  0  0  0  0  0  0  0  0  0  0
   -4.1600   15.3940    2.0800 C   0  0  0  0  0  0  0  0  0  0  0  0
   -4.4040   15.1830    0.7590 N   0  0  0  0  0  0  0  0  0  0  0  0
   -2.1300   14.4190    1.3500 C   0  0  0  0  0  0  0  0  0  0  0  0
   -2.3320   13.9140    0.1200 N   0  0  0  0  0  0  0  0  0  0  0  0
   -0.9980   14.9040    1.7390 N   0  0  0  0  0  0  0  0  0  0  0  0
   -1.2750   13.9380   -0.7250 C   0  0  0  0  0  0  0  0  0  0  0  0
    0.0200   14.9220    0.8800 C   0  0  0  0  0  0  0  0  0  0  0  0
   -3.4550   15.3030   -0.1530 C   0  0  0  0  0  0  0  0  0  0  0  0
   -5.5540   14.8270    0.2280 C   0  0  0  0  0  0  0  0  0  0  0  0
   -0.0500   14.4440   -0.3890 C   0  0  0  0  0  0  0  0  0  0  0  0
   -4.0570   15.0030   -1.3100 C   0  0  0  0  0  0  0  0  0  0  0  0
   -5.4140   14.6980   -1.0810 N   0  0  0  0  0  0  0  0  0  0  0  0
   -6.8120   14.6120    1.1140 C   0  0  0  0  0  0  0  0  0  0  0  0
   -3.3580   15.0030   -2.5780 C   0  0  0  0  0  0  0  0  0  0  0  0
   -8.1740   14.5840    0.5000 C   0  0  0  0  0  0  0  0  0  0  0  0
   -7.5570   13.3170    1.0310 C   0  0  0  0  0  0  0  0  0  0  0  0
   -4.1850   15.0400   -3.6460 N   0  0  0  0  0  0  0  0  0  0  0  0
   -2.1340   14.9600   -2.6920 O   0  0  0  0  0  0  0  0  0  0  0  0
  1  2  1  0
  2  3  1  0
  1  4  1  0
  4  5  2  0
  4  6  1  0
  5  7  1  0
  6  8  2  0
  3  9  1  0
  3 10  1  0
  7 11  2  0
  8 11  1  0
  9 12  2  0
 10 13  2  0
 12 13  1  0
 10 14  1  0
 12 15  1  0
 14 16  1  0
 14 17  1  0
 16 17  1  0
 15 18  1  0
 15 19  2  0
M  END
