x0689_0_A-x0681_0_A
     RDKit          3D

 20 22  0  0  0  0  0  0  0  0999 V2000
   -3.2400   15.3230    2.1250 N   0  0  0  0  0  0  0  0  0  0  0  0
   -4.1920   15.8190    1.2320 C   0  0  0  0  0  0  0  0  0  0  0  0
   -3.9500   14.7120    0.3070 C   0  0  2  0  0  0  0  0  0  0  0  0
   -2.1500   14.9050    1.3720 C   0  0  0  0  0  0  0  0  0  0  0  0
   -2.0990   15.0370    0.0390 N   0  0  0  0  0  0  0  0  0  0  0  0
   -1.1990   14.3900    2.0760 N   0  0  0  0  0  0  0  0  0  0  0  0
   -0.9800   14.6300   -0.5870 C   0  0  0  0  0  0  0  0  0  0  0  0
   -0.1230   13.9860    1.4350 C   0  0  0  0  0  0  0  0  0  0  0  0
   -4.7720   14.6680   -0.9550 C   0  0  1  0  0  0  0  0  0  0  0  0
   -4.1720   13.5440    1.2630 C   0  0  0  0  0  0  0  0  0  0  0  0
   -3.8900   14.7280   -2.2010 C   0  0  0  0  0  0  0  0  0  0  0  0
    0.0650   14.0830    0.0830 C   0  0  0  0  0  0  0  0  0  0  0  0
   -5.6050   13.4210   -0.9560 C   0  0  0  0  0  0  0  0  0  0  0  0
   -5.6490   13.3730    1.4560 C   0  0  0  0  0  0  0  0  0  0  0  0
   -4.5770   14.9100   -3.3520 N   0  0  0  0  0  0  0  0  0  0  0  0
   -2.6670   14.6350   -2.2370 O   0  0  0  0  0  0  0  0  0  0  0  0
   -6.0090   12.8450    0.2050 N   0  0  0  0  0  0  0  0  0  0  0  0
   -6.0510   12.7330   -1.9760 N   0  0  0  0  0  0  0  0  0  0  0  0
   -6.7450   11.7550   -0.0560 C   0  0  0  0  0  0  0  0  0  0  0  0
   -6.7620   11.6960   -1.4250 C   0  0  0  0  0  0  0  0  0  0  0  0
  1  2  1  0
  3  2  1  1
  1  4  1  0
  4  5  2  0
  4  6  1  0
  5  7  1  0
  6  8  2  0
  3  9  1  0
  3 10  1  0
  9 11  1  6
  7 12  2  0
  8 12  1  0
  9 13  1  0
 10 14  1  0
 11 15  1  0
 11 16  2  0
 13 17  1  0
 14 17  1  0
 13 18  2  0
 17 19  1  0
 18 20  1  0
 19 20  2  0
M  END
