x0685_0_A-x0681_0_A
     RDKit          3D

 16 17  0  0  0  0  0  0  0  0999 V2000
   -5.8880   14.1900    2.5120 N   0  0  0  0  0  0  0  0  0  0  0  0
   -7.2460   14.6030    2.8390 C   0  0  0  0  0  0  0  0  0  0  0  0
   -8.1200   13.4120    3.1930 C   0  0  0  0  0  0  0  0  0  0  0  0
   -5.3210   14.7210    1.2930 C   0  0  1  0  0  0  0  0  0  0  0  0
   -3.8250   14.9710    1.2400 C   0  0  0  0  0  0  0  0  0  0  0  0
   -5.7190   13.9640    0.0320 C   0  0  1  0  0  0  0  0  0  0  0  0
   -3.1510   14.8760    0.0640 C   0  0  0  0  0  0  0  0  0  0  0  0
   -5.3610   14.8640   -1.1090 C   0  0  0  0  0  0  0  0  0  0  0  0
   -4.8560   12.7560   -0.2680 C   0  0  0  0  0  0  0  0  0  0  0  0
   -7.0260   13.2460   -0.1340 C   0  0  0  0  0  0  0  0  0  0  0  0
   -3.8870   14.4860   -1.2180 C   0  0  1  0  0  0  0  0  0  0  0  0
   -5.4630   11.6860   -0.6400 N   0  0  0  0  0  0  0  0  0  0  0  0
   -6.7860   11.9930   -0.5330 C   0  0  0  0  0  0  0  0  0  0  0  0
   -3.2680   14.6930   -2.6160 C   0  0  0  0  0  0  0  0  0  0  0  0
   -1.8990   15.0480   -2.7510 N   0  0  0  0  0  0  0  0  0  0  0  0
   -3.9400   15.6910   -3.3410 N   0  0  0  0  0  0  0  0  0  0  0  0
  1  2  1  0
  2  3  1  0
  4  1  1  1
  4  5  1  0
  4  6  1  0
  5  7  2  0
  6  8  1  6
  6  9  1  0
  6 10  1  0
  7 11  1  0
  8 11  1  0
  9 12  2  0
 10 13  2  0
 12 13  1  0
 11 14  1  6
 14 15  1  0
 14 16  1  0
M  END
