x0685_1_A-x0849_0_A
     RDKit          3D

 25 27  0  0  0  0  0  0  0  0999 V2000
   -1.4440   10.6090   -4.9700 N   0  0  0  0  0  0  0  0  0  0  0  0
   -1.2580   11.9990   -4.5390 C   0  0  0  0  0  0  0  0  0  0  0  0
    0.2250   12.3430   -4.5690 C   0  0  0  0  0  0  0  0  0  0  0  0
   -0.7820   10.3250   -6.2490 C   0  0  0  0  0  0  0  0  0  0  0  0
   -0.6010    8.8180   -6.4920 C   0  0  0  0  0  0  0  0  0  0  0  0
   -1.6140   10.9240   -7.3990 C   0  0  0  0  0  0  0  0  0  0  0  0
    0.9670   12.2530   -2.9470 S   0  0  0  0  0  0  0  0  0  0  0  0
    0.0810    8.5490   -7.8290 C   0  0  0  0  0  0  0  0  0  0  0  0
   -1.0080   10.6440   -8.7710 C   0  0  0  0  0  0  0  0  0  0  0  0
    2.5540   12.2770   -3.1290 O   0  0  0  0  0  0  0  0  0  0  0  0
    0.4480   10.8780   -2.2540 O   0  0  0  0  0  0  0  0  0  0  0  0
    0.4120   13.5720   -2.2340 O   0  0  0  0  0  0  0  0  0  0  0  0
   -0.7280    9.1530   -8.9780 C   0  0  0  0  0  0  0  0  0  0  0  0
    0.9930   14.2060   -1.1050 C   0  0  0  0  0  0  0  0  0  0  0  0
   -0.1760   14.4210   -0.2300 C   0  0  0  0  0  0  0  0  0  0  0  0
   -0.2460   14.4000    1.1550 C   0  0  0  0  0  0  0  0  0  0  0  0
   -1.3410   14.6660   -0.8950 C   0  0  0  0  0  0  0  0  0  0  0  0
   -2.5220   14.8850   -0.2070 C   0  0  0  0  0  0  0  0  0  0  0  0
   -1.3690   14.6050    1.8450 N   0  0  0  0  0  0  0  0  0  0  0  0
   -2.4820   14.8440    1.1800 C   0  0  0  0  0  0  0  0  0  0  0  0
   -3.7390   15.1450   -0.8320 C   0  0  0  0  0  0  0  0  0  0  0  0
   -3.8790   15.2070   -2.7240 Br  0  0  0  0  0  0  0  0  0  0  0  0
   -3.5640   15.0470    1.8950 N   0  0  0  0  0  0  0  0  0  0  0  0
   -4.8750   15.3620   -0.0800 C   0  0  0  0  0  0  0  0  0  0  0  0
   -4.7230   15.2970    1.2810 C   0  0  0  0  0  0  0  0  0  0  0  0
  1  2  1  0
  2  3  1  0
  1  4  1  0
  4  5  1  0
  4  6  1  0
  3  7  1  0
  5  8  1  0
  6  9  1  0
  7 10  1  0
  7 11  1  0
  7 12  1  0
  8 13  1  0
  9 13  1  0
 12 14  1  0
 14 15  1  0
 15 16  2  0
 15 17  1  0
 17 18  2  0
 16 19  1  0
 18 20  1  0
 19 20  2  0
 18 21  1  0
 21 22  1  0
 20 23  1  0
 21 24  2  0
 23 25  2  0
 24 25  1  0
M  END
