x0685_0_A_α-x0933_0_A_α
     RDKit          3D

 11 11  0  0  0  0  0  0  0  0999 V2000
   -6.2430   14.9730    2.5720 N   0  0  0  0  0  0  0  0  0  0  0  0
   -7.6730   14.7550    2.4440 C   0  0  0  0  0  0  0  0  0  0  0  0
   -8.0060   13.3580    2.9380 C   0  0  0  0  0  0  0  0  0  0  0  0
   -5.4830   14.9830    1.4040 C   0  0  0  0  0  0  0  0  0  0  0  0
   -4.0930   15.0640    1.4020 C   0  0  0  0  0  0  0  0  0  0  0  0
   -6.1950   14.9240    0.2640 N   0  0  0  0  0  0  0  0  0  0  0  0
   -3.4150   15.0930    0.1870 C   0  0  0  0  0  0  0  0  0  0  0  0
   -5.5230   14.9580   -0.9030 C   0  0  0  0  0  0  0  0  0  0  0  0
   -4.1470   15.0430   -0.9960 C   0  0  0  0  0  0  0  0  0  0  0  0
   -3.5260   15.0790   -2.2800 C   0  0  0  0  0  0  0  0  0  0  0  0
   -3.0380   15.1250   -3.3310 N   0  0  0  0  0  0  0  0  0  0  0  0
  1  2  1  0
  2  3  1  0
  1  4  1  0
  4  5  2  0
  4  6  1  0
  5  7  1  0
  6  8  2  0
  7  9  2  0
  8  9  1  0
  9 10  1  0
 10 11  3  0
M  END
