x0685_0_A_α-x0722_0_A_α
     RDKit          3D

 20 21  0  0  0  0  0  0  0  0999 V2000
   -5.5380   15.0030    2.1690 N   0  0  0  0  0  0  0  0  0  0  0  0
   -6.2640   14.7340    3.4300 C   0  0  0  0  0  0  0  0  0  0  0  0
   -7.7010   14.2440    3.2360 C   0  0  0  0  0  0  0  0  0  0  0  0
   -6.0110   14.2070    1.0280 C   0  0  2  0  0  0  0  0  0  0  0  0
   -4.0900   15.2990    2.3330 C   0  0  0  0  0  0  0  0  0  0  0  0
   -6.5460   12.8570    1.3780 C   0  0  0  0  0  0  0  0  0  0  0  0
   -5.0990   13.7460   -0.1500 C   0  0  1  0  0  0  0  0  0  0  0  0
   -3.2150   14.3190    1.6740 N   0  0  0  0  0  0  0  0  0  0  0  0
   -4.5860   14.7740   -1.1290 C   0  0  1  0  0  0  0  0  0  0  0  0
   -4.4570   12.4990    0.3470 C   0  0  0  0  0  0  0  0  0  0  0  0
   -1.9730   14.9480    1.1620 N   0  0  0  0  0  0  0  0  0  0  0  0
   -5.6940   11.9090    1.0040 C   0  0  0  0  0  0  0  0  0  0  0  0
   -4.0540   14.2050   -2.4560 N   0  0  0  0  0  0  0  0  0  0  0  0
   -6.0430   15.2600   -1.3890 C   0  0  0  0  0  0  0  0  0  0  0  0
   -0.7710   14.1190    1.3880 C   0  0  0  0  0  0  0  0  0  0  0  0
   -3.5300   15.7850   -0.6670 C   0  0  0  0  0  0  0  0  0  0  0  0
   -2.1090   15.3400   -0.2540 C   0  0  2  0  0  0  0  0  0  0  0  0
   -6.4990   16.3610   -1.4310 O   0  0  0  0  0  0  0  0  0  0  0  0
   -6.8860   14.1870   -1.5420 N   0  0  0  0  0  0  0  0  0  0  0  0
   -1.5660   14.2870   -1.2310 C   0  0  0  0  0  0  0  0  0  0  0  0
  1  2  1  0
  2  3  1  0
  1  4  1  0
  1  5  1  0
  4  6  1  1
  4  7  1  0
  5  8  1  0
  7  9  1  0
  7 10  1  1
  8 11  1  0
  6 12  2  0
 10 12  1  0
  9 13  1  6
  9 14  1  0
 11 15  1  0
  9 16  1  0
 11 17  1  0
 16 17  1  0
 14 18  2  0
 14 19  1  0
 17 20  1  6
M  END
