x0685_0_A-x0900_0_A
     RDKit          3D

 12 12  0  0  0  0  0  0  0  0999 V2000
   -6.1510   14.9380    2.6550 N   0  0  0  0  0  0  0  0  0  0  0  0
   -7.5940   14.7570    2.5410 C   0  0  0  0  0  0  0  0  0  0  0  0
   -8.0850   13.3780    2.9420 C   0  0  0  0  0  0  0  0  0  0  0  0
   -5.3230   15.0550    1.4810 C   0  0  1  0  0  0  0  0  0  0  0  0
   -4.0070   14.3870    1.3350 C   0  0  0  0  0  0  0  0  0  0  0  0
   -6.1300   14.7960    0.3500 N   0  0  0  0  0  0  0  0  0  0  0  0
   -3.4060   14.4890    0.1390 C   0  0  0  0  0  0  0  0  0  0  0  0
   -5.6350   15.0260   -0.8840 C   0  0  0  0  0  0  0  0  0  0  0  0
   -6.4070   15.0380   -1.8340 O   0  0  0  0  0  0  0  0  0  0  0  0
   -4.1180   15.2580   -0.9520 C   0  0  2  0  0  0  0  0  0  0  0  0
   -3.5940   14.9950   -2.2980 C   0  0  0  0  0  0  0  0  0  0  0  0
   -3.1750   14.8640   -3.3730 N   0  0  0  0  0  0  0  0  0  0  0  0
  1  2  1  0
  2  3  1  0
  4  1  1  1
  4  5  1  0
  4  6  1  0
  5  7  2  0
  6  8  1  0
  8  9  2  0
  7 10  1  0
  8 10  1  0
 10 11  1  6
 11 12  3  0
M  END
