x0685_1_A_α-x0962_2_B_α
     RDKit          3D

 27 28  0  0  0  0  0  0  0  0999 V2000
   -1.3390   10.6030   -4.8360 N   0  0  0  0  0  0  0  0  0  0  0  0
   -1.4860   11.9950   -4.4040 C   0  0  0  0  0  0  0  0  0  0  0  0
   -0.1980   12.7220   -4.0410 C   0  0  0  0  0  0  0  0  0  0  0  0
   -0.8250   10.2900   -6.1750 C   0  0  0  0  0  0  0  0  0  0  0  0
   -0.5830    8.7940   -6.4630 C   0  0  0  0  0  0  0  0  0  0  0  0
   -1.6120   10.9960   -7.3010 C   0  0  0  0  0  0  0  0  0  0  0  0
    0.6250   12.0240   -2.6050 S   0  0  0  0  0  0  0  0  0  0  0  0
    0.0840    8.5780   -7.8100 C   0  0  0  0  0  0  0  0  0  0  0  0
   -0.9960   10.7410   -8.6760 C   0  0  0  0  0  0  0  0  0  0  0  0
    2.1770   12.3440   -2.8330 O   0  0  0  0  0  0  0  0  0  0  0  0
    0.3520   10.4370   -2.5640 O   0  0  0  0  0  0  0  0  0  0  0  0
    0.0820   12.7510   -1.2720 O   0  0  0  0  0  0  0  0  0  0  0  0
   -0.7160    9.2530   -8.9280 C   0  0  0  0  0  0  0  0  0  0  0  0
    0.4100   14.1210   -1.0410 C   0  0  0  0  0  0  0  0  0  0  0  0
   -0.7110   14.8130   -0.2640 C   0  0  0  0  0  0  0  0  0  0  0  0
   -1.4950   13.8750    0.6530 C   0  0  0  0  0  0  0  0  0  0  0  0
   -2.8590   14.4090    1.1420 C   0  0  0  0  0  0  0  0  0  0  0  0
   -4.0630   13.4330    1.0610 C   0  0  0  0  0  0  0  0  0  0  0  0
   -5.4280   14.1380    1.2240 C   0  0  0  0  0  0  0  0  0  0  0  0
   -6.5610   13.3670    1.9570 C   0  0  0  0  0  0  0  0  0  0  0  0
   -7.5270   14.3110    2.5270 N   0  0  0  0  0  0  0  0  0  0  0  0
   -7.6310   14.9420    3.7630 C   0  0  0  0  0  0  0  0  0  0  0  0
   -8.5450   14.7200    1.7750 C   0  0  0  0  0  0  0  0  0  0  0  0
   -9.2460   15.5870    2.5260 C   0  0  0  0  0  0  0  0  0  0  0  0
   -8.6990   15.7440    3.7850 N   0  0  0  0  0  0  0  0  0  0  0  0
  -10.3910   16.2220    1.9980 C   0  0  0  0  0  0  0  0  0  0  0  0
  -11.2840   16.6900    1.4300 N   0  0  0  0  0  0  0  0  0  0  0  0
  1  2  1  0
  2  3  1  0
  1  4  1  0
  4  5  1  0
  4  6  1  0
  3  7  1  0
  5  8  1  0
  6  9  1  0
  7 10  1  0
  7 11  1  0
  7 12  1  0
  8 13  1  0
  9 13  1  0
 12 14  1  0
 14 15  1  0
 15 16  1  0
 16 17  1  0
 17 18  1  0
 18 19  1  0
 19 20  1  0
 20 21  1  0
 21 22  1  0
 21 23  1  0
 23 24  2  0
 22 25  2  0
 24 25  1  0
 24 26  1  0
 26 27  3  0
M  END
