x0685_0_A_α-x0962_0_A_α
     RDKit          3D

 11 11  0  0  0  0  0  0  0  0999 V2000
   -5.9980   14.9700    2.5440 N   0  0  0  0  0  0  0  0  0  0  0  0
   -7.0030   13.9250    2.6000 C   0  0  0  0  0  0  0  0  0  0  0  0
   -8.0720   14.2710    3.6080 C   0  0  0  0  0  0  0  0  0  0  0  0
   -5.3020   14.9890    1.3500 C   0  0  0  0  0  0  0  0  0  0  0  0
   -3.9180   15.0270    1.2910 C   0  0  0  0  0  0  0  0  0  0  0  0
   -6.0740   14.9720    0.2470 N   0  0  0  0  0  0  0  0  0  0  0  0
   -3.2990   15.0550    0.0470 C   0  0  0  0  0  0  0  0  0  0  0  0
   -5.4570   15.0030   -0.9530 C   0  0  0  0  0  0  0  0  0  0  0  0
   -4.0850   15.0470   -1.1000 C   0  0  0  0  0  0  0  0  0  0  0  0
   -3.5100   15.0820   -2.4030 C   0  0  0  0  0  0  0  0  0  0  0  0
   -3.0500   15.1230   -3.4660 N   0  0  0  0  0  0  0  0  0  0  0  0
  1  2  1  0
  2  3  1  0
  1  4  1  0
  4  5  2  0
  4  6  1  0
  5  7  1  0
  6  8  2  0
  7  9  2  0
  8  9  1  0
  9 10  1  0
 10 11  3  0
M  END
