x0689_0_A_α-x1015_0_A_α
     RDKit          3D

 24 26  0  0  0  0  0  0  0  0999 V2000
   -3.8010   14.4840    1.4500 N   0  0  0  0  0  0  0  0  0  0  0  0
   -4.5760   15.6490    1.2090 C   0  0  0  0  0  0  0  0  0  0  0  0
   -2.5450   14.5240    0.9260 C   0  0  0  0  0  0  0  0  0  0  0  0
   -2.4470   14.5880   -0.3940 N   0  0  0  0  0  0  0  0  0  0  0  0
   -1.5200   14.4950    1.7770 N   0  0  0  0  0  0  0  0  0  0  0  0
   -1.2170   14.6210   -0.8960 C   0  0  0  0  0  0  0  0  0  0  0  0
   -0.2950   14.5330    1.2210 C   0  0  0  0  0  0  0  0  0  0  0  0
   -0.0810   14.5950   -0.1390 C   0  0  0  0  0  0  0  0  0  0  0  0
    1.2280   14.6320   -0.8320 C   0  0  0  0  0  0  0  0  0  0  0  0
    0.9970   14.8270   -2.2420 N   0  0  0  0  0  0  0  0  0  0  0  0
    0.5130   13.7660   -2.7140 C   0  0  0  0  0  0  0  0  0  0  0  0
    0.1080   13.5400   -4.1480 C   0  0  2  0  0  0  0  0  0  0  0  0
    0.2770   12.6600   -1.9840 N   0  0  0  0  0  0  0  0  0  0  0  0
   -1.2040   14.2830   -4.4100 C   0  0  0  0  0  0  0  0  0  0  0  0
   -0.0280   12.0880   -4.0970 N   0  0  0  0  0  0  0  0  0  0  0  0
    0.1450   11.5920   -2.7950 C   0  0  0  0  0  0  0  0  0  0  0  0
    0.1810   10.4340   -2.3780 O   0  0  0  0  0  0  0  0  0  0  0  0
   -0.4620   11.3250   -5.1940 C   0  0  0  0  0  0  0  0  0  0  0  0
    0.0630   11.5250   -6.4720 C   0  0  0  0  0  0  0  0  0  0  0  0
   -1.4400   10.3340   -5.0200 C   0  0  0  0  0  0  0  0  0  0  0  0
   -0.3730   10.7570   -7.5530 C   0  0  0  0  0  0  0  0  0  0  0  0
   -1.8790    9.5650   -6.0970 C   0  0  0  0  0  0  0  0  0  0  0  0
   -1.3430    9.7790   -7.3580 C   0  0  0  0  0  0  0  0  0  0  0  0
   -1.8810    8.8310   -8.6830 Cl  0  0  0  0  0  0  0  0  0  0  0  0
  1  2  1  0
  1  3  1  0
  3  4  2  0
  3  5  1  0
  4  6  1  0
  5  7  2  0
  6  8  2  0
  7  8  1  0
  8  9  1  0
  9 10  1  0
 10 11  2  3
 11 12  1  0
 11 13  1  0
 12 14  1  1
 12 15  1  0
 13 16  1  0
 15 16  1  0
 16 17  2  0
 15 18  1  0
 18 19  2  0
 18 20  1  0
 19 21  1  0
 20 22  2  0
 21 23  2  0
 22 23  1  0
 23 24  1  0
M  END
