x0689_0_A-x0681_0_A
     RDKit          3D

 20 22  0  0  0  0  0  0  0  0999 V2000
   -3.2420   15.3210    2.1310 N   0  0  0  0  0  0  0  0  0  0  0  0
   -4.1970   15.8110    1.2380 C   0  0  0  0  0  0  0  0  0  0  0  0
   -3.9490   14.7020    0.3150 C   0  0  2  0  0  0  0  0  0  0  0  0
   -2.1520   14.9060    1.3800 C   0  0  0  0  0  0  0  0  0  0  0  0
   -2.1000   15.0390    0.0470 N   0  0  0  0  0  0  0  0  0  0  0  0
   -1.1970   14.3890    2.0800 N   0  0  0  0  0  0  0  0  0  0  0  0
   -0.9840   14.6340   -0.5810 C   0  0  0  0  0  0  0  0  0  0  0  0
   -0.1240   13.9880    1.4380 C   0  0  0  0  0  0  0  0  0  0  0  0
   -4.7660   14.6620   -0.9540 C   0  0  1  0  0  0  0  0  0  0  0  0
   -4.1790   13.5370    1.2690 C   0  0  0  0  0  0  0  0  0  0  0  0
   -3.8710   14.7270   -2.1890 C   0  0  0  0  0  0  0  0  0  0  0  0
    0.0660   14.0860    0.0830 C   0  0  0  0  0  0  0  0  0  0  0  0
   -5.6000   13.4170   -0.9600 C   0  0  0  0  0  0  0  0  0  0  0  0
   -5.6580   13.3650    1.4520 C   0  0  0  0  0  0  0  0  0  0  0  0
   -4.5180   15.1360   -3.3040 N   0  0  0  0  0  0  0  0  0  0  0  0
   -2.6760   14.4560   -2.2460 O   0  0  0  0  0  0  0  0  0  0  0  0
   -6.0090   12.8420    0.1980 N   0  0  0  0  0  0  0  0  0  0  0  0
   -6.0410   12.7310   -1.9840 N   0  0  0  0  0  0  0  0  0  0  0  0
   -6.7460   11.7510   -0.0670 C   0  0  0  0  0  0  0  0  0  0  0  0
   -6.7550   11.6950   -1.4360 C   0  0  0  0  0  0  0  0  0  0  0  0
  1  2  1  0
  3  2  1  1
  1  4  1  0
  4  5  2  0
  4  6  1  0
  5  7  1  0
  6  8  2  0
  3  9  1  0
  3 10  1  0
  9 11  1  6
  7 12  2  0
  8 12  1  0
  9 13  1  0
 10 14  1  0
 11 15  1  0
 11 16  2  0
 13 17  1  0
 14 17  1  0
 13 18  2  0
 17 19  1  0
 18 20  1  0
 19 20  2  0
M  END
