x0689_0_A_α-x0290_0_A_α
     RDKit          3D

 13 13  0  0  0  0  0  0  0  0999 V2000
   -3.8570   14.7520    1.4370 N   0  0  0  0  0  0  0  0  0  0  0  0
   -5.0270   14.6520    0.7080 C   0  0  0  0  0  0  0  0  0  0  0  0
   -5.1790   14.8230   -0.4950 O   0  0  0  0  0  0  0  0  0  0  0  0
   -2.5790   14.6690    0.8950 C   0  0  0  0  0  0  0  0  0  0  0  0
   -6.2350   14.2530    1.5860 C   0  0  0  0  0  0  0  0  0  0  0  0
   -2.3880   14.7070   -0.4250 N   0  0  0  0  0  0  0  0  0  0  0  0
   -1.5820   14.5460    1.7880 N   0  0  0  0  0  0  0  0  0  0  0  0
   -7.4370   13.9200    0.7890 N   0  0  0  0  0  0  0  0  0  0  0  0
   -1.1270   14.6200   -0.8920 C   0  0  0  0  0  0  0  0  0  0  0  0
   -0.3360   14.4620    1.2920 C   0  0  0  0  0  0  0  0  0  0  0  0
   -8.4670   14.9520    0.8530 C   0  0  0  0  0  0  0  0  0  0  0  0
   -0.9600   14.6640   -2.3790 C   0  0  0  0  0  0  0  0  0  0  0  0
   -0.0410   14.4980   -0.0500 C   0  0  0  0  0  0  0  0  0  0  0  0
  1  2  1  0
  2  3  2  0
  1  4  1  0
  2  5  1  0
  4  6  2  0
  4  7  1  0
  5  8  1  0
  6  9  1  0
  7 10  2  0
  8 11  1  0
  9 12  1  0
  9 13  2  0
 10 13  1  0
M  END
