x0689_0_A-x0926_0_A
     RDKit          3D

 14 15  0  0  0  0  0  0  0  0999 V2000
   -3.2710   15.2550    1.7380 N   0  0  0  0  0  0  0  0  0  0  0  0
   -2.0170   15.1820    1.0530 C   0  0  1  0  0  0  0  0  0  0  0  0
   -1.4120   14.1460    1.7860 N   0  0  0  0  0  0  0  0  0  0  0  0
   -2.0290   14.9450   -0.3600 N   0  0  0  0  0  0  0  0  0  0  0  0
   -0.8940   14.4000   -0.9190 C   0  0  0  0  0  0  0  0  0  0  0  0
   -0.0460   14.0700    1.3400 C   0  0  0  0  0  0  0  0  0  0  0  0
   -3.3400   14.6140   -0.8030 C   0  0  2  0  0  0  0  0  0  0  0  0
    0.0870   13.9690   -0.1440 C   0  0  0  0  0  0  0  0  0  0  0  0
   -3.9570   15.4200   -1.8500 N   0  0  0  0  0  0  0  0  0  0  0  0
   -4.1460   14.5350    0.4600 C   0  0  0  0  0  0  0  0  0  0  0  0
   -5.4350   14.8170    0.5140 C   0  0  0  0  0  0  0  0  0  0  0  0
   -5.3660   15.3550   -1.8610 N   0  0  0  0  0  0  0  0  0  0  0  0
   -6.1300   15.2100   -0.7170 C   0  0  0  0  0  0  0  0  0  0  0  0
   -7.3350   15.3770   -0.7140 O   0  0  0  0  0  0  0  0  0  0  0  0
  2  1  1  1
  2  3  1  0
  2  4  1  0
  4  5  1  0
  3  6  1  0
  7  4  1  1
  5  8  2  0
  6  8  1  0
  7  9  1  0
  7 10  1  0
 10 11  2  0
  9 12  1  0
 11 13  1  0
 12 13  1  0
 13 14  2  0
M  END
