x0685_0_A_α-x0628_0_A_α
     RDKit          3D

 24 25  0  0  0  0  0  0  0  0999 V2000
   -6.3110   15.1070    2.5400 N   0  0  0  0  0  0  0  0  0  0  0  0
   -7.7090   14.7130    2.5660 C   0  0  0  0  0  0  0  0  0  0  0  0
   -7.8530   13.2950    3.0920 C   0  0  0  0  0  0  0  0  0  0  0  0
   -5.6170   15.0620    1.3260 C   0  0  0  0  0  0  0  0  0  0  0  0
   -4.2280   15.2060    1.3690 C   0  0  0  0  0  0  0  0  0  0  0  0
   -6.2800   14.8960    0.1720 N   0  0  0  0  0  0  0  0  0  0  0  0
   -3.5010   15.1760    0.1870 C   0  0  0  0  0  0  0  0  0  0  0  0
   -5.5580   14.8740   -0.9610 C   0  0  0  0  0  0  0  0  0  0  0  0
   -4.1880   15.0060   -1.0060 C   0  0  0  0  0  0  0  0  0  0  0  0
   -3.5150   14.9500   -2.2490 C   0  0  0  0  0  0  0  0  0  0  0  0
   -2.9670   14.6760   -3.2680 C   0  0  0  0  0  0  0  0  0  0  0  0
   -2.3120   14.0700   -4.4320 C   0  0  0  0  0  0  0  0  0  0  0  0
   -2.2790   12.5500   -4.1850 C   0  0  0  0  0  0  0  0  0  0  0  0
   -1.4670   11.7570   -5.1530 C   0  0  0  0  0  0  0  0  0  0  0  0
   -1.8560   10.6240   -5.7070 N   0  0  0  0  0  0  0  0  0  0  0  0
   -0.2110   12.0660   -5.6140 N   0  0  0  0  0  0  0  0  0  0  0  0
    0.6510   13.1950   -5.3140 C   0  0  0  0  0  0  0  0  0  0  0  0
   -0.8040   10.2710   -6.5050 C   0  0  0  0  0  0  0  0  0  0  0  0
    0.2210   11.1280   -6.4800 N   0  0  0  0  0  0  0  0  0  0  0  0
   -0.8040    9.0450   -7.3210 C   0  0  0  0  0  0  0  0  0  0  0  0
    1.6900   12.9320   -4.2330 C   0  0  0  0  0  0  0  0  0  0  0  0
    1.0810   12.2500   -3.0400 C   0  0  0  0  0  0  0  0  0  0  0  0
    0.5310   11.1620   -3.0190 O   0  0  0  0  0  0  0  0  0  0  0  0
    1.1930   12.9720   -1.9130 O   0  0  0  0  0  0  0  0  0  0  0  0
  1  2  1  0
  2  3  1  0
  1  4  1  0
  4  5  2  0
  4  6  1  0
  5  7  1  0
  6  8  2  0
  7  9  2  0
  8  9  1  0
  9 10  1  0
 10 11  3  0
 11 12  1  0
 12 13  1  0
 13 14  1  0
 14 15  2  0
 14 16  1  0
 16 17  1  0
 15 18  1  0
 16 19  1  0
 18 19  2  0
 18 20  1  0
 17 21  1  0
 21 22  1  0
 22 23  2  0
 22 24  1  0
M  END
