x0689_0_A-x0290_0_A
     RDKit          3D

 13 13  0  0  0  0  0  0  0  0999 V2000
   -3.8840   14.7710    1.4120 N   0  0  0  0  0  0  0  0  0  0  0  0
   -5.0460   14.6440    0.6730 C   0  0  0  0  0  0  0  0  0  0  0  0
   -5.1850   14.8040   -0.5310 O   0  0  0  0  0  0  0  0  0  0  0  0
   -2.6010   14.6760    0.8750 C   0  0  0  0  0  0  0  0  0  0  0  0
   -6.2530   14.2250    1.5400 C   0  0  0  0  0  0  0  0  0  0  0  0
   -2.4070   14.7030   -0.4440 N   0  0  0  0  0  0  0  0  0  0  0  0
   -1.6100   14.5580    1.7770 N   0  0  0  0  0  0  0  0  0  0  0  0
   -7.4500   13.9090    0.7250 N   0  0  0  0  0  0  0  0  0  0  0  0
   -1.1460   14.6050   -0.9070 C   0  0  0  0  0  0  0  0  0  0  0  0
   -0.3600   14.4660    1.2830 C   0  0  0  0  0  0  0  0  0  0  0  0
   -8.5090   14.9070    0.8560 C   0  0  0  0  0  0  0  0  0  0  0  0
   -0.9750   14.6330   -2.3960 C   0  0  0  0  0  0  0  0  0  0  0  0
   -0.0650   14.4830   -0.0590 C   0  0  0  0  0  0  0  0  0  0  0  0
  1  2  1  0
  2  3  2  0
  1  4  1  0
  2  5  1  0
  4  6  2  0
  4  7  1  0
  5  8  1  0
  6  9  1  0
  7 10  2  0
  8 11  1  0
  9 12  1  0
  9 13  2  0
 10 13  1  0
M  END
