x0685_0_A-x0587_0_A
     RDKit          3D

 15 15  0  0  0  0  0  0  0  0999 V2000
   -6.4440   14.8880    2.7450 N   0  0  0  0  0  0  0  0  0  0  0  0
   -7.7640   14.5770    2.8460 C   0  0  0  0  0  0  0  0  0  0  0  0
   -8.1570   13.1790    3.2200 C   0  0  0  0  0  0  0  0  0  0  0  0
   -5.6920   14.9700    1.5810 C   0  0  0  0  0  0  0  0  0  0  0  0
   -8.6420   15.4290    2.6230 O   0  0  0  0  0  0  0  0  0  0  0  0
   -4.3130   15.2110    1.6460 C   0  0  0  0  0  0  0  0  0  0  0  0
   -6.3350   14.8190    0.4360 N   0  0  0  0  0  0  0  0  0  0  0  0
   -3.5780   15.3030    0.4660 C   0  0  0  0  0  0  0  0  0  0  0  0
   -5.6160   14.9170   -0.6740 C   0  0  0  0  0  0  0  0  0  0  0  0
   -4.2550   15.1540   -0.7340 C   0  0  0  0  0  0  0  0  0  0  0  0
   -3.7250   15.2130   -2.1170 C   0  0  1  0  0  0  0  0  0  0  0  0
   -2.3710   14.6590   -2.2680 N   0  0  0  0  0  0  0  0  0  0  0  0
   -4.7560   14.5270   -2.9900 C   0  0  0  0  0  0  0  0  0  0  0  0
   -4.7150   13.1880   -2.7810 F   0  0  0  0  0  0  0  0  0  0  0  0
   -4.4940   14.7830   -4.2750 F   0  0  0  0  0  0  0  0  0  0  0  0
  1  2  1  0
  2  3  1  0
  1  4  1  0
  2  5  2  0
  4  6  2  0
  4  7  1  0
  6  8  1  0
  7  9  2  0
  8 10  2  0
  9 10  1  0
 10 11  1  0
 11 12  1  1
 11 13  1  0
 13 14  1  0
 13 15  1  0
M  END
