x0685_1_A-x0900_1_A
     RDKit          3D

 14 14  0  0  0  0  0  0  0  0999 V2000
   -1.4210   10.6510   -4.8900 N   0  0  0  0  0  0  0  0  0  0  0  0
   -1.4640   12.0710   -4.4990 C   0  0  0  0  0  0  0  0  0  0  0  0
   -0.1210   12.7010   -4.1570 C   0  0  0  0  0  0  0  0  0  0  0  0
   -0.7580   10.3040   -6.1610 C   0  0  1  0  0  0  0  0  0  0  0  0
   -0.5620    8.7900   -6.3090 C   0  0  0  0  0  0  0  0  0  0  0  0
   -1.5770   10.8180   -7.3720 C   0  0  0  0  0  0  0  0  0  0  0  0
    0.6490   12.0140   -2.6870 S   0  0  0  0  0  0  0  0  0  0  0  0
    0.1340    8.4200   -7.6120 C   0  0  0  0  0  0  0  0  0  0  0  0
   -1.1640   10.2430   -8.7240 C   0  0  0  0  0  0  0  0  0  0  0  0
    2.2090   12.3070   -2.8710 O   0  0  0  0  0  0  0  0  0  0  0  0
    0.3360   10.4420   -2.5840 O   0  0  0  0  0  0  0  0  0  0  0  0
    0.0950   12.7560   -1.3850 O   0  0  0  0  0  0  0  0  0  0  0  0
   -1.2200   10.9140   -9.7460 O   0  0  0  0  0  0  0  0  0  0  0  0
   -0.6830    8.8170   -8.8210 C   0  0  0  0  0  0  0  0  0  0  0  0
  1  2  1  0
  2  3  1  0
  4  1  1  1
  4  5  1  0
  4  6  1  0
  3  7  1  0
  5  8  1  0
  6  9  1  0
  7 10  1  0
  7 11  1  0
  7 12  1  0
  9 13  2  0
  8 14  1  0
  9 14  1  0
M  END
