x0685_1_A_α-x0631_0_A_α
     RDKit          3D

 22 23  0  0  0  0  0  0  0  0999 V2000
   -1.3750   11.0600   -5.1770 N   0  0  0  0  0  0  0  0  0  0  0  0
   -1.1320   12.4970   -4.9740 C   0  0  0  0  0  0  0  0  0  0  0  0
    0.2570   12.8320   -4.4120 C   0  0  0  0  0  0  0  0  0  0  0  0
   -0.5930   10.4500   -6.2620 C   0  0  1  0  0  0  0  0  0  0  0  0
   -0.6840    8.9090   -6.2620 C   0  0  0  0  0  0  0  0  0  0  0  0
   -1.0030   10.9940   -7.6550 C   0  0  0  0  0  0  0  0  0  0  0  0
    0.7970   12.1050   -2.8460 S   0  0  0  0  0  0  0  0  0  0  0  0
   -0.0510    8.2140   -7.4730 C   0  0  0  0  0  0  0  0  0  0  0  0
   -0.1460   10.3350   -8.7710 C   0  0  2  0  0  0  0  0  0  0  0  0
    2.3860   12.2330   -2.9440 O   0  0  0  0  0  0  0  0  0  0  0  0
    0.3410   10.5660   -2.7060 O   0  0  0  0  0  0  0  0  0  0  0  0
    0.2990   12.9510   -1.5790 O   0  0  0  0  0  0  0  0  0  0  0  0
   -0.1970   10.9790  -10.1780 C   0  0  0  0  0  0  0  0  0  0  0  0
   -0.4170    8.8400   -8.8110 C   0  0  0  0  0  0  0  0  0  0  0  0
    0.4620   10.1120  -11.1770 N   0  0  0  0  0  0  0  0  0  0  0  0
    1.9090   10.1510  -11.2790 C   0  0  1  0  0  0  0  0  0  0  0  0
    2.4960    8.9730  -10.7350 O   0  0  0  0  0  0  0  0  0  0  0  0
    2.3720   10.2680  -12.7630 C   0  0  2  0  0  0  0  0  0  0  0  0
    3.6990    9.7300  -12.9680 O   0  0  0  0  0  0  0  0  0  0  0  0
    2.4360   11.6840  -13.3200 C   0  0  0  0  0  0  0  0  0  0  0  0
    4.1700   10.2680  -14.2080 C   0  0  0  0  0  0  0  0  0  0  0  0
    3.4990   11.6160  -14.4000 C   0  0  0  0  0  0  0  0  0  0  0  0
  1  2  1  0
  2  3  1  0
  4  1  1  1
  4  5  1  0
  4  6  1  0
  3  7  1  0
  5  8  1  0
  6  9  1  0
  7 10  1  0
  7 11  1  0
  7 12  1  0
  9 13  1  6
  8 14  1  0
  9 14  1  0
 13 15  1  0
 15 16  1  0
 16 17  1  6
 16 18  1  0
 18 19  1  0
 18 20  1  1
 19 21  1  0
 20 22  1  0
 21 22  1  0
M  END
