x0685_1_A-x0685_0_A
     RDKit          3D

 26 27  0  0  0  0  0  0  0  0999 V2000
   -1.4100   10.7320   -4.7920 N   0  0  0  0  0  0  0  0  0  0  0  0
   -1.5270   12.1610   -4.3580 C   0  0  1  0  0  0  0  0  0  0  0  0
   -0.1260   12.7300   -4.1080 C   0  0  0  0  0  0  0  0  0  0  0  0
   -1.4730   10.2860   -6.2080 C   0  0  0  0  0  0  0  0  0  0  0  0
   -2.3390   13.0660   -5.3300 C   0  0  0  0  0  0  0  0  0  0  0  0
   -0.7700    8.9120   -6.3520 C   0  0  0  0  0  0  0  0  0  0  0  0
   -0.9310   11.3250   -7.2100 C   0  0  0  0  0  0  0  0  0  0  0  0
    0.6880   12.0340   -2.6620 S   0  0  0  0  0  0  0  0  0  0  0  0
   -2.4770   14.5450   -4.8900 C   0  0  0  0  0  0  0  0  0  0  0  0
    0.0200    8.7920   -7.6530 C   0  0  0  0  0  0  0  0  0  0  0  0
   -1.0660   10.8670   -8.6630 C   0  0  0  0  0  0  0  0  0  0  0  0
    2.2440   12.3360   -2.8600 O   0  0  0  0  0  0  0  0  0  0  0  0
    0.3870   10.4610   -2.5560 O   0  0  0  0  0  0  0  0  0  0  0  0
    0.1510   12.7620   -1.3430 O   0  0  0  0  0  0  0  0  0  0  0  0
   -3.0620   14.7230   -3.5370 C   0  0  0  0  0  0  0  0  0  0  0  0
   -0.7740    9.3710   -8.8220 C   0  0  0  0  0  0  0  0  0  0  0  0
   -3.5370   14.8310   -2.4320 C   0  0  0  0  0  0  0  0  0  0  0  0
   -4.1110   14.9000   -1.1250 C   0  0  0  0  0  0  0  0  0  0  0  0
   -3.3220   14.9990    0.0170 C   0  0  0  0  0  0  0  0  0  0  0  0
   -5.4860   14.8660   -0.9530 C   0  0  0  0  0  0  0  0  0  0  0  0
   -3.9400   15.0620    1.2610 C   0  0  0  0  0  0  0  0  0  0  0  0
   -6.1050   14.9230    0.2480 N   0  0  0  0  0  0  0  0  0  0  0  0
   -5.3310   15.0260    1.3470 C   0  0  0  0  0  0  0  0  0  0  0  0
   -5.8990   15.1160    2.6230 N   0  0  0  0  0  0  0  0  0  0  0  0
   -7.2670   14.6610    2.8760 C   0  0  0  0  0  0  0  0  0  0  0  0
   -7.3870   13.1480    2.8030 C   0  0  0  0  0  0  0  0  0  0  0  0
  1  2  1  0
  2  3  1  6
  1  4  1  0
  2  5  1  0
  4  6  1  0
  4  7  1  0
  3  8  1  0
  5  9  1  0
  6 10  1  0
  7 11  1  0
  8 12  1  0
  8 13  1  0
  8 14  1  0
  9 15  1  0
 10 16  1  0
 11 16  1  0
 15 17  3  0
 17 18  1  0
 18 19  2  0
 18 20  1  0
 19 21  1  0
 20 22  2  0
 21 23  2  0
 22 23  1  0
 23 24  1  0
 24 25  1  0
 25 26  1  0
M  END
