x0685_1_A-x0574_0_A
     RDKit          3D

 27 29  0  0  0  0  0  0  0  0999 V2000
   -1.3610   10.6160   -4.8520 N   0  0  0  0  0  0  0  0  0  0  0  0
   -1.4550   12.0330   -4.4620 C   0  0  0  0  0  0  0  0  0  0  0  0
   -0.0680   12.6170   -4.2160 C   0  0  0  0  0  0  0  0  0  0  0  0
   -0.7370   10.4070   -6.1720 C   0  0  0  0  0  0  0  0  0  0  0  0
   -0.5780    8.8980   -6.4170 C   0  0  0  0  0  0  0  0  0  0  0  0
   -1.5630   11.0150   -7.3260 C   0  0  0  0  0  0  0  0  0  0  0  0
    0.6850   12.0160   -2.7040 S   0  0  0  0  0  0  0  0  0  0  0  0
    0.0510    8.6020   -7.7800 C   0  0  0  0  0  0  0  0  0  0  0  0
   -1.0290   10.6900   -8.7300 C   0  0  0  0  0  0  0  0  0  0  0  0
    2.2430   12.3610   -2.8460 O   0  0  0  0  0  0  0  0  0  0  0  0
    0.4360   10.4290   -2.5940 O   0  0  0  0  0  0  0  0  0  0  0  0
    0.0200   12.7840   -1.4620 O   0  0  0  0  0  0  0  0  0  0  0  0
   -0.7520    9.2040   -8.9350 C   0  0  0  0  0  0  0  0  0  0  0  0
    0.7090   13.7800   -0.7030 C   0  0  0  0  0  0  0  0  0  0  0  0
    0.2000   13.5490    0.7260 C   0  0  0  0  0  0  0  0  0  0  0  0
   -0.1560   14.6660    1.4460 N   0  0  0  0  0  0  0  0  0  0  0  0
   -1.3490   14.7360    1.0270 C   0  0  0  0  0  0  0  0  0  0  0  0
   -2.3590   14.7280    1.8050 N   0  0  0  0  0  0  0  0  0  0  0  0
   -1.6040   14.7870   -0.6550 S   0  0  0  0  0  0  0  0  0  0  0  0
   -3.4760   14.7910    1.0180 C   0  0  0  0  0  0  0  0  0  0  0  0
   -3.2560   14.8410   -0.3560 C   0  0  0  0  0  0  0  0  0  0  0  0
   -4.7840   14.8070    1.4680 C   0  0  0  0  0  0  0  0  0  0  0  0
   -4.2770   14.9190   -1.2860 C   0  0  0  0  0  0  0  0  0  0  0  0
   -5.8330   14.8730    0.5550 C   0  0  0  0  0  0  0  0  0  0  0  0
   -5.5770   14.9350   -0.8080 C   0  0  0  0  0  0  0  0  0  0  0  0
   -7.0690   14.8720    1.1270 O   0  0  0  0  0  0  0  0  0  0  0  0
   -7.1310   14.5840    2.5190 C   0  0  0  0  0  0  0  0  0  0  0  0
  1  2  1  0
  2  3  1  0
  1  4  1  0
  4  5  1  0
  4  6  1  0
  3  7  1  0
  5  8  1  0
  6  9  1  0
  7 10  1  0
  7 11  1  0
  7 12  1  0
  8 13  1  0
  9 13  1  0
 12 14  1  0
 14 15  1  0
 15 16  1  0
 16 17  1  0
 17 18  2  0
 17 19  1  0
 18 20  1  0
 19 21  1  0
 20 21  2  0
 20 22  1  0
 21 23  1  0
 22 24  2  0
 23 25  2  0
 24 25  1  0
 24 26  1  0
 26 27  1  0
M  END
