x0689_0_A-x1015_0_A
     RDKit          3D

 24 26  0  0  0  0  0  0  0  0999 V2000
   -3.7950   14.4850    1.4480 N   0  0  0  0  0  0  0  0  0  0  0  0
   -4.5740   15.6480    1.2140 C   0  0  0  0  0  0  0  0  0  0  0  0
   -2.5430   14.5290    0.9240 C   0  0  0  0  0  0  0  0  0  0  0  0
   -2.4470   14.6020   -0.3950 N   0  0  0  0  0  0  0  0  0  0  0  0
   -1.5190   14.4930    1.7740 N   0  0  0  0  0  0  0  0  0  0  0  0
   -1.2210   14.6340   -0.8990 C   0  0  0  0  0  0  0  0  0  0  0  0
   -0.2970   14.5290    1.2160 C   0  0  0  0  0  0  0  0  0  0  0  0
   -0.0840   14.5990   -0.1440 C   0  0  0  0  0  0  0  0  0  0  0  0
    1.2250   14.6360   -0.8370 C   0  0  0  0  0  0  0  0  0  0  0  0
    0.9990   14.8210   -2.2490 N   0  0  0  0  0  0  0  0  0  0  0  0
    0.5100   13.7620   -2.7200 C   0  0  0  0  0  0  0  0  0  0  0  0
    0.1070   13.5350   -4.1520 C   0  0  2  0  0  0  0  0  0  0  0  0
    0.2680   12.6570   -1.9850 N   0  0  0  0  0  0  0  0  0  0  0  0
   -1.2060   14.2750   -4.4080 C   0  0  0  0  0  0  0  0  0  0  0  0
   -0.0260   12.0830   -4.0990 N   0  0  0  0  0  0  0  0  0  0  0  0
    0.1400   11.5900   -2.7970 C   0  0  0  0  0  0  0  0  0  0  0  0
    0.1740   10.4310   -2.3770 O   0  0  0  0  0  0  0  0  0  0  0  0
   -0.4610   11.3220   -5.1930 C   0  0  0  0  0  0  0  0  0  0  0  0
    0.0640   11.5240   -6.4710 C   0  0  0  0  0  0  0  0  0  0  0  0
   -1.4390   10.3330   -5.0180 C   0  0  0  0  0  0  0  0  0  0  0  0
   -0.3740   10.7580   -7.5510 C   0  0  0  0  0  0  0  0  0  0  0  0
   -1.8790    9.5640   -6.0950 C   0  0  0  0  0  0  0  0  0  0  0  0
   -1.3430    9.7810   -7.3570 C   0  0  0  0  0  0  0  0  0  0  0  0
   -1.8850    8.8350   -8.6820 Cl  0  0  0  0  0  0  0  0  0  0  0  0
  1  2  1  0
  1  3  1  0
  3  4  2  0
  3  5  1  0
  4  6  1  0
  5  7  2  0
  6  8  2  0
  7  8  1  0
  8  9  1  0
  9 10  1  0
 10 11  2  3
 11 12  1  0
 11 13  1  0
 12 14  1  1
 12 15  1  0
 13 16  1  0
 15 16  1  0
 16 17  2  0
 15 18  1  0
 18 19  2  0
 18 20  1  0
 19 21  1  0
 20 22  2  0
 21 23  2  0
 22 23  1  0
 23 24  1  0
M  END
