x0685_0_A_α-x0685_1_A_α
     RDKit          3D

 26 27  0  0  0  0  0  0  0  0999 V2000
   -5.9940   14.8150    2.6610 N   0  0  0  0  0  0  0  0  0  0  0  0
   -7.4500   14.8060    2.7470 C   0  0  0  0  0  0  0  0  0  0  0  0
   -7.9720   13.4040    3.0170 C   0  0  0  0  0  0  0  0  0  0  0  0
   -5.3460   14.8800    1.4380 C   0  0  0  0  0  0  0  0  0  0  0  0
   -3.9640   14.9850    1.3400 C   0  0  0  0  0  0  0  0  0  0  0  0
   -6.1400   14.8340    0.3560 N   0  0  0  0  0  0  0  0  0  0  0  0
   -3.3700   15.0360    0.0860 C   0  0  0  0  0  0  0  0  0  0  0  0
   -5.5430   14.8870   -0.8560 C   0  0  0  0  0  0  0  0  0  0  0  0
   -4.1780   14.9810   -1.0410 C   0  0  0  0  0  0  0  0  0  0  0  0
   -3.6170   15.0050   -2.3480 C   0  0  0  0  0  0  0  0  0  0  0  0
   -3.1590   14.8600   -3.4480 C   0  0  0  0  0  0  0  0  0  0  0  0
   -2.6120   14.5380   -4.7770 C   0  0  0  0  0  0  0  0  0  0  0  0
   -2.4810   13.0210   -5.0250 C   0  0  0  0  0  0  0  0  0  0  0  0
   -1.0540   12.4030   -4.9930 C   0  0  2  0  0  0  0  0  0  0  0  0
   -1.1190   10.9240   -4.9040 N   0  0  0  0  0  0  0  0  0  0  0  0
   -0.1350   13.0630   -3.9570 C   0  0  0  0  0  0  0  0  0  0  0  0
    0.6400   12.1010   -2.6460 S   0  0  0  0  0  0  0  0  0  0  0  0
   -1.4250   10.2600   -6.1920 C   0  0  0  0  0  0  0  0  0  0  0  0
    2.2090   12.2560   -2.8860 O   0  0  0  0  0  0  0  0  0  0  0  0
    0.1930   10.5540   -2.6670 O   0  0  0  0  0  0  0  0  0  0  0  0
    0.2330   12.7440   -1.2420 O   0  0  0  0  0  0  0  0  0  0  0  0
   -0.6980    8.8990   -6.2970 C   0  0  0  0  0  0  0  0  0  0  0  0
   -1.1010   11.1990   -7.3800 C   0  0  0  0  0  0  0  0  0  0  0  0
    0.0900    8.7640   -7.6030 C   0  0  0  0  0  0  0  0  0  0  0  0
   -1.3350   10.5530   -8.7400 C   0  0  0  0  0  0  0  0  0  0  0  0
   -0.7810    9.1280   -8.8050 C   0  0  0  0  0  0  0  0  0  0  0  0
  1  2  1  0
  2  3  1  0
  1  4  1  0
  4  5  2  0
  4  6  1  0
  5  7  1  0
  6  8  2  0
  7  9  2  0
  8  9  1  0
  9 10  1  0
 10 11  3  0
 11 12  1  0
 12 13  1  0
 14 13  1  1
 14 15  1  0
 14 16  1  0
 16 17  1  0
 15 18  1  0
 17 19  1  0
 17 20  1  0
 17 21  1  0
 18 22  1  0
 18 23  1  0
 22 24  1  0
 23 25  1  0
 24 26  1  0
 25 26  1  0
M  END
