x0689_0_A_α-x0926_0_A_α
     RDKit          3D

 14 15  0  0  0  0  0  0  0  0999 V2000
   -3.2170   15.3030    1.8130 N   0  0  0  0  0  0  0  0  0  0  0  0
   -2.0040   15.1860    1.0630 C   0  0  1  0  0  0  0  0  0  0  0  0
   -1.4070   14.1370    1.7840 N   0  0  0  0  0  0  0  0  0  0  0  0
   -2.0420   14.9350   -0.3490 N   0  0  0  0  0  0  0  0  0  0  0  0
   -0.9030   14.4120   -0.9200 C   0  0  0  0  0  0  0  0  0  0  0  0
   -0.0450   14.0620    1.3380 C   0  0  0  0  0  0  0  0  0  0  0  0
   -3.3480   14.6000   -0.8010 C   0  0  2  0  0  0  0  0  0  0  0  0
    0.0890   13.9810   -0.1500 C   0  0  0  0  0  0  0  0  0  0  0  0
   -3.9680   15.4260   -1.8340 N   0  0  0  0  0  0  0  0  0  0  0  0
   -4.1590   14.4630    0.4520 C   0  0  0  0  0  0  0  0  0  0  0  0
   -5.4470   14.7470    0.5140 C   0  0  0  0  0  0  0  0  0  0  0  0
   -5.3770   15.3620   -1.8440 N   0  0  0  0  0  0  0  0  0  0  0  0
   -6.1360   15.2000   -0.7020 C   0  0  0  0  0  0  0  0  0  0  0  0
   -7.3380   15.3950   -0.6880 O   0  0  0  0  0  0  0  0  0  0  0  0
  2  1  1  1
  2  3  1  0
  2  4  1  0
  4  5  1  0
  3  6  1  0
  7  4  1  1
  5  8  2  0
  6  8  1  0
  7  9  1  0
  7 10  1  0
 10 11  2  0
  9 12  1  0
 11 13  1  0
 12 13  1  0
 13 14  2  0
M  END
