x0689_0_A_α-x0685_1_A_α
     RDKit          3D

 21 22  0  0  0  0  0  0  0  0999 V2000
   -3.6240   15.1800    1.6630 N   0  0  0  0  0  0  0  0  0  0  0  0
   -4.7520   15.3510    0.7920 C   0  0  0  0  0  0  0  0  0  0  0  0
   -2.4880   14.7760    0.9840 C   0  0  0  0  0  0  0  0  0  0  0  0
   -2.6120   14.7790   -0.3510 N   0  0  0  0  0  0  0  0  0  0  0  0
   -1.3750   14.4220    1.6230 N   0  0  0  0  0  0  0  0  0  0  0  0
   -1.5410   14.3980   -1.0780 C   0  0  0  0  0  0  0  0  0  0  0  0
   -0.3320   14.0430    0.8440 C   0  0  0  0  0  0  0  0  0  0  0  0
   -0.3480   14.0090   -0.5470 C   0  0  0  0  0  0  0  0  0  0  0  0
    0.6430   13.6510   -1.4390 O   0  0  0  0  0  0  0  0  0  0  0  0
    0.6790   12.4000   -2.4880 S   0  0  0  0  0  0  0  0  0  0  0  0
   -0.1790   12.8150   -4.0270 C   0  0  0  0  0  0  0  0  0  0  0  0
    2.1950   12.1980   -2.9780 O   0  0  0  0  0  0  0  0  0  0  0  0
    0.0930   11.0250   -1.8750 O   0  0  0  0  0  0  0  0  0  0  0  0
   -1.4610   12.0220   -4.3160 C   0  0  0  0  0  0  0  0  0  0  0  0
   -1.1950   10.6120   -4.7150 N   0  0  0  0  0  0  0  0  0  0  0  0
   -0.6750   10.4280   -6.0990 C   0  0  0  0  0  0  0  0  0  0  0  0
   -0.5680    8.9190   -6.3720 C   0  0  0  0  0  0  0  0  0  0  0  0
   -1.5550   11.0630   -7.1960 C   0  0  0  0  0  0  0  0  0  0  0  0
    0.0110    8.6380   -7.7580 C   0  0  0  0  0  0  0  0  0  0  0  0
   -1.0870   10.7630   -8.6300 C   0  0  0  0  0  0  0  0  0  0  0  0
   -0.8140    9.2810   -8.8760 C   0  0  0  0  0  0  0  0  0  0  0  0
  1  2  1  0
  1  3  1  0
  3  4  2  0
  3  5  1  0
  4  6  1  0
  5  7  2  0
  6  8  2  0
  7  8  1  0
  8  9  1  0
 10  9  1  0
 10 11  1  0
 10 12  1  0
 10 13  1  0
 11 14  1  0
 14 15  1  0
 15 16  1  0
 16 17  1  0
 16 18  1  0
 17 19  1  0
 18 20  1  0
 19 21  1  0
 20 21  1  0
M  END
