x0685_1_A-x0587_0_A
     RDKit          3D

 28 29  0  0  0  0  0  0  0  0999 V2000
   -1.3720   10.6020   -4.9060 N   0  0  0  0  0  0  0  0  0  0  0  0
   -1.4990   12.0030   -4.5070 C   0  0  0  0  0  0  0  0  0  0  0  0
   -0.1810   12.6790   -4.1330 C   0  0  0  0  0  0  0  0  0  0  0  0
   -0.7100   10.3630   -6.1910 C   0  0  0  0  0  0  0  0  0  0  0  0
   -0.5140    8.8610   -6.4380 C   0  0  0  0  0  0  0  0  0  0  0  0
   -1.5840   10.9720   -7.3030 C   0  0  0  0  0  0  0  0  0  0  0  0
    0.5730   12.0950   -2.6150 S   0  0  0  0  0  0  0  0  0  0  0  0
    0.1210    8.6150   -7.8020 C   0  0  0  0  0  0  0  0  0  0  0  0
   -1.0120   10.6940   -8.6930 C   0  0  0  0  0  0  0  0  0  0  0  0
    2.1460   12.3510   -2.8030 O   0  0  0  0  0  0  0  0  0  0  0  0
    0.2940   10.5050   -2.5180 O   0  0  0  0  0  0  0  0  0  0  0  0
   -0.0550   12.8450   -1.3260 O   0  0  0  0  0  0  0  0  0  0  0  0
   -0.7440    9.2070   -8.9160 C   0  0  0  0  0  0  0  0  0  0  0  0
   -1.4830   13.0110   -1.2020 C   0  0  0  0  0  0  0  0  0  0  0  0
   -1.9880   14.3050   -1.8490 C   0  0  0  0  0  0  0  0  0  0  0  0
   -3.0600   14.8670   -1.0640 O   0  0  0  0  0  0  0  0  0  0  0  0
   -4.3870   14.5090   -1.4990 C   0  0  0  0  0  0  0  0  0  0  0  0
   -4.3380   13.2710   -2.0730 F   0  0  0  0  0  0  0  0  0  0  0  0
   -4.6790   15.3470   -2.5360 F   0  0  0  0  0  0  0  0  0  0  0  0
   -5.4390   14.5950   -0.3690 C   0  0  0  0  0  0  0  0  0  0  0  0
   -6.7470   14.3400   -0.6530 N   0  0  0  0  0  0  0  0  0  0  0  0
   -5.0090   14.9270    0.8650 N   0  0  0  0  0  0  0  0  0  0  0  0
   -7.6430   14.4310    0.3660 C   0  0  0  0  0  0  0  0  0  0  0  0
   -5.9470   15.0040    1.8330 C   0  0  0  0  0  0  0  0  0  0  0  0
   -7.2870   14.7680    1.6490 C   0  0  0  0  0  0  0  0  0  0  0  0
   -8.2840   14.8790    2.7320 C   0  0  0  0  0  0  0  0  0  0  0  0
   -7.8300   14.8820    4.0180 N   0  0  0  0  0  0  0  0  0  0  0  0
   -9.4790   14.9790    2.4870 O   0  0  0  0  0  0  0  0  0  0  0  0
  1  2  1  0
  2  3  1  0
  1  4  1  0
  4  5  1  0
  4  6  1  0
  3  7  1  0
  5  8  1  0
  6  9  1  0
  7 10  1  0
  7 11  1  0
  7 12  1  0
  8 13  1  0
  9 13  1  0
 12 14  1  0
 14 15  1  0
 15 16  1  0
 16 17  1  0
 17 18  1  0
 17 19  1  0
 17 20  1  0
 20 21  2  0
 20 22  1  0
 21 23  1  0
 22 24  2  0
 23 25  2  0
 24 25  1  0
 25 26  1  0
 26 27  1  0
 26 28  2  0
M  END
