x0685_0_A-x0465_0_A
     RDKit          3D

 27 28  0  0  0  0  0  0  0  0999 V2000
   -6.2540   15.0470    2.3930 N   0  0  0  0  0  0  0  0  0  0  0  0
   -7.6460   14.6280    2.3640 C   0  0  0  0  0  0  0  0  0  0  0  0
   -7.8420   13.2840    3.0460 C   0  0  0  0  0  0  0  0  0  0  0  0
   -5.4910   15.0420    1.2310 C   0  0  0  0  0  0  0  0  0  0  0  0
   -4.1000   15.1190    1.2590 C   0  0  0  0  0  0  0  0  0  0  0  0
   -6.1880   14.9730    0.0890 N   0  0  0  0  0  0  0  0  0  0  0  0
   -3.3990   15.1310    0.0530 C   0  0  0  0  0  0  0  0  0  0  0  0
   -5.4870   14.9920   -1.0660 C   0  0  0  0  0  0  0  0  0  0  0  0
   -4.1060   15.0720   -1.1400 C   0  0  0  0  0  0  0  0  0  0  0  0
   -3.4570   15.0950   -2.4180 C   0  0  0  0  0  0  0  0  0  0  0  0
   -2.9580   15.1660   -3.5190 C   0  0  0  0  0  0  0  0  0  0  0  0
   -2.4220   15.3190   -4.8900 C   0  0  0  0  0  0  0  0  0  0  0  0
   -1.1650   14.4830   -5.2180 C   0  0  0  0  0  0  0  0  0  0  0  0
   -0.6810   13.5610   -4.0980 C   0  0  0  0  0  0  0  0  0  0  0  0
    0.5420   12.6180   -4.3890 C   0  0  2  0  0  0  0  0  0  0  0  0
    1.7820   13.4510   -4.7750 C   0  0  0  0  0  0  0  0  0  0  0  0
    0.4050   11.7360   -5.5360 O   0  0  0  0  0  0  0  0  0  0  0  0
    0.8580   11.9990   -3.0090 C   0  0  0  0  0  0  0  0  0  0  0  0
    1.3640   12.5790   -2.0670 O   0  0  0  0  0  0  0  0  0  0  0  0
    0.5100   10.7040   -2.8800 O   0  0  0  0  0  0  0  0  0  0  0  0
   -0.6890   10.9220   -5.6820 C   0  0  0  0  0  0  0  0  0  0  0  0
   -0.6890    9.8450   -6.5760 C   0  0  0  0  0  0  0  0  0  0  0  0
   -1.8300   11.1740   -4.9240 C   0  0  0  0  0  0  0  0  0  0  0  0
    0.3820    9.5610   -7.3300 F   0  0  0  0  0  0  0  0  0  0  0  0
   -1.8110    9.0310   -6.7110 C   0  0  0  0  0  0  0  0  0  0  0  0
   -2.9560   10.3600   -5.0560 C   0  0  0  0  0  0  0  0  0  0  0  0
   -2.9460    9.2900   -5.9480 C   0  0  0  0  0  0  0  0  0  0  0  0
  1  2  1  0
  2  3  1  0
  1  4  1  0
  4  5  2  0
  4  6  1  0
  5  7  1  0
  6  8  2  0
  7  9  2  0
  8  9  1  0
  9 10  1  0
 10 11  3  0
 11 12  1  0
 12 13  1  0
 13 14  1  0
 14 15  1  0
 15 16  1  6
 15 17  1  0
 15 18  1  0
 18 19  2  0
 18 20  1  0
 17 21  1  0
 21 22  2  0
 21 23  1  0
 22 24  1  0
 22 25  1  0
 23 26  2  0
 25 27  2  0
 26 27  1  0
M  END
