x0685_1_A_α-x0844_0_A_α
     RDKit          3D

 23 24  0  0  0  0  0  0  0  0999 V2000
   -2.1580   10.9360   -4.8830 N   0  0  0  0  0  0  0  0  0  0  0  0
   -1.6840   12.1520   -4.1090 C   0  0  1  0  0  0  0  0  0  0  0  0
   -0.1620   12.3780   -4.2140 C   0  0  0  0  0  0  0  0  0  0  0  0
   -1.6430   10.4560   -6.2060 C   0  0  0  0  0  0  0  0  0  0  0  0
   -2.4170   13.5060   -4.3930 C   0  0  0  0  0  0  0  0  0  0  0  0
   -0.3520    9.6740   -6.2310 C   0  0  0  0  0  0  0  0  0  0  0  0
   -1.6360   11.4880   -7.3450 C   0  0  0  0  0  0  0  0  0  0  0  0
    0.6920   11.9140   -2.7130 S   0  0  0  0  0  0  0  0  0  0  0  0
   -3.6380   13.8500   -3.5020 C   0  0  0  0  0  0  0  0  0  0  0  0
   -0.1590    8.8670   -7.5230 C   0  0  0  0  0  0  0  0  0  0  0  0
   -1.1000   10.9220   -8.6720 C   0  0  0  0  0  0  0  0  0  0  0  0
    2.2320   12.2780   -2.9550 O   0  0  0  0  0  0  0  0  0  0  0  0
    0.4550   10.3400   -2.5180 O   0  0  0  0  0  0  0  0  0  0  0  0
    0.0780   12.6860   -1.4520 O   0  0  0  0  0  0  0  0  0  0  0  0
   -3.3030   14.7270   -2.4050 O   0  0  0  0  0  0  0  0  0  0  0  0
   -0.9940    9.3970   -8.6880 C   0  0  0  0  0  0  0  0  0  0  0  0
   -4.1150   14.4760   -1.2350 C   0  0  1  0  0  0  0  0  0  0  0  0
   -3.4840   14.9980    0.0220 C   0  0  0  0  0  0  0  0  0  0  0  0
   -5.5050   15.0810   -1.3980 C   0  0  0  0  0  0  0  0  0  0  0  0
   -4.2470   15.1840    1.1040 C   0  0  0  0  0  0  0  0  0  0  0  0
   -6.3100   14.9400   -0.1260 C   0  0  0  0  0  0  0  0  0  0  0  0
   -7.5400   14.8700   -0.1120 O   0  0  0  0  0  0  0  0  0  0  0  0
   -5.5790   14.8980    1.0390 N   0  0  0  0  0  0  0  0  0  0  0  0
  1  2  1  0
  2  3  1  6
  1  4  1  0
  2  5  1  0
  4  6  1  0
  4  7  1  0
  3  8  1  0
  5  9  1  0
  6 10  1  0
  7 11  1  0
  8 12  1  0
  8 13  1  0
  8 14  1  0
  9 15  1  0
 10 16  1  0
 11 16  1  0
 17 15  1  6
 17 18  1  0
 17 19  1  0
 18 20  2  0
 19 21  1  0
 21 22  2  0
 20 23  1  0
 21 23  1  0
M  END
