x0681_0_A_α-x0950_1_A_α
     RDKit          3D

 20 21  0  0  0  0  0  0  0  0999 V2000
   -4.0540   15.3840   -3.0610 N   0  0  0  0  0  0  0  0  0  0  0  0
   -3.2970   14.8420   -2.0600 C   0  0  0  0  0  0  0  0  0  0  0  0
   -2.0910   14.3740   -2.2150 N   0  0  0  0  0  0  0  0  0  0  0  0
   -4.0830   14.8620   -0.7330 C   0  0  1  0  0  0  0  0  0  0  0  0
   -1.2070   13.7740   -1.2030 C   0  0  0  0  0  0  0  0  0  0  0  0
   -4.8650   13.5930   -0.5920 C   0  0  0  0  0  0  0  0  0  0  0  0
   -3.4270   15.3520    0.5660 C   0  0  0  0  0  0  0  0  0  0  0  0
    0.2670   14.1140   -1.5310 C   0  0  0  0  0  0  0  0  0  0  0  0
   -5.5710   13.3990    0.5290 N   0  0  0  0  0  0  0  0  0  0  0  0
   -4.1460   14.8860    1.8310 C   0  0  0  0  0  0  0  0  0  0  0  0
   -5.0020   12.5800   -1.4260 N   0  0  0  0  0  0  0  0  0  0  0  0
    1.1450   13.0210   -1.9310 O   0  0  0  0  0  0  0  0  0  0  0  0
   -5.5710   14.3690    1.5750 C   0  0  0  0  0  0  0  0  0  0  0  0
   -6.2160   12.2040    0.4540 C   0  0  0  0  0  0  0  0  0  0  0  0
   -5.8480   11.7080   -0.7760 C   0  0  0  0  0  0  0  0  0  0  0  0
    0.7750   12.1370   -2.9010 C   0  0  0  0  0  0  0  0  0  0  0  0
    1.3000   12.5410   -4.3040 C   0  0  2  0  0  0  0  0  0  0  0  0
    0.1160   11.1240   -2.6830 O   0  0  0  0  0  0  0  0  0  0  0  0
    1.0890   14.0160   -4.6130 C   0  0  0  0  0  0  0  0  0  0  0  0
    0.7290   11.7830   -5.3670 O   0  0  0  0  0  0  0  0  0  0  0  0
  1  2  1  0
  2  3  2  3
  4  2  1  6
  3  5  1  0
  4  6  1  0
  4  7  1  0
  5  8  1  0
  6  9  1  0
  7 10  1  0
  6 11  2  0
  8 12  1  0
  9 13  1  0
 10 13  1  0
  9 14  1  0
 11 15  1  0
 14 15  2  0
 12 16  1  0
 16 17  1  0
 16 18  2  0
 17 19  1  6
 17 20  1  0
M  END
