x0685_1_A_α-x0742_0_A_α
     RDKit          3D

 29 32  0  0  0  0  0  0  0  0999 V2000
   -1.1310   10.7110   -4.7670 N   0  0  0  0  0  0  0  0  0  0  0  0
   -1.3770   12.1170   -4.4000 C   0  0  0  0  0  0  0  0  0  0  0  0
   -0.2010   12.9730   -3.8980 C   0  0  0  0  0  0  0  0  0  0  0  0
   -0.6400   10.4050   -6.1260 C   0  0  0  0  0  0  0  0  0  0  0  0
   -0.5620    8.8960   -6.4100 C   0  0  0  0  0  0  0  0  0  0  0  0
   -1.5560   11.0330   -7.1980 C   0  0  0  0  0  0  0  0  0  0  0  0
    0.8080   12.2950   -2.5610 S   0  0  0  0  0  0  0  0  0  0  0  0
    0.0460    8.6220   -7.7810 C   0  0  0  0  0  0  0  0  0  0  0  0
   -1.0680   10.7480   -8.6250 C   0  0  0  0  0  0  0  0  0  0  0  0
    2.2840   12.1740   -3.1790 O   0  0  0  0  0  0  0  0  0  0  0  0
    0.2390   10.8090   -2.2510 O   0  0  0  0  0  0  0  0  0  0  0  0
    0.8280   13.2840   -1.2470 O   0  0  0  0  0  0  0  0  0  0  0  0
   -0.8140    9.2580   -8.8740 C   0  0  0  0  0  0  0  0  0  0  0  0
   -0.2760   13.7020   -0.5460 C   0  0  0  0  0  0  0  0  0  0  0  0
   -0.2960   14.1350    0.7940 C   0  0  0  0  0  0  0  0  0  0  0  0
   -1.4690   13.6930   -1.2200 C   0  0  0  0  0  0  0  0  0  0  0  0
   -1.3950   14.5410    1.4600 N   0  0  0  0  0  0  0  0  0  0  0  0
   -2.6210   14.0980   -0.5730 C   0  0  0  0  0  0  0  0  0  0  0  0
   -3.9440   14.0810   -1.2890 C   0  0  1  0  0  0  0  0  0  0  0  0
   -2.5340   14.5090    0.7430 C   0  0  0  0  0  0  0  0  0  0  0  0
   -5.1460   13.6870   -0.3870 C   0  0  1  0  0  0  0  0  0  0  0  0
   -4.3460   15.4020   -1.9670 C   0  0  0  0  0  0  0  0  0  0  0  0
   -3.7830   14.9410    1.4000 C   0  0  0  0  0  0  0  0  0  0  0  0
   -5.5790   12.2340   -0.6020 C   0  0  0  0  0  0  0  0  0  0  0  0
   -4.8640   13.9050    1.1130 C   0  0  0  0  0  0  0  0  0  0  0  0
   -6.3180   14.5880   -0.8050 C   0  0  0  0  0  0  0  0  0  0  0  0
   -5.6870   15.8320   -1.3850 C   0  0  0  0  0  0  0  0  0  0  0  0
   -5.1350   11.5490   -1.5270 O   0  0  0  0  0  0  0  0  0  0  0  0
   -6.5860   11.6430    0.3560 C   0  0  0  0  0  0  0  0  0  0  0  0
  1  2  1  0
  2  3  1  0
  1  4  1  0
  4  5  1  0
  4  6  1  0
  3  7  1  0
  5  8  1  0
  6  9  1  0
  7 10  1  0
  7 11  1  0
  7 12  1  0
  8 13  1  0
  9 13  1  0
 12 14  1  0
 14 15  2  0
 14 16  1  0
 15 17  1  0
 16 18  2  0
 18 19  1  0
 17 20  2  0
 18 20  1  0
 19 21  1  0
 19 22  1  1
 20 23  1  0
 21 24  1  1
 21 25  1  0
 23 25  1  0
 21 26  1  0
 22 27  1  0
 26 27  1  0
 24 28  2  0
 24 29  1  0
M  END
