x0685_1_A-x0900_1_A
     RDKit          3D

 14 14  0  0  0  0  0  0  0  0999 V2000
   -1.4410   10.6520   -4.9020 N   0  0  0  0  0  0  0  0  0  0  0  0
   -1.4680   12.0720   -4.5020 C   0  0  0  0  0  0  0  0  0  0  0  0
   -0.1190   12.6930   -4.1550 C   0  0  0  0  0  0  0  0  0  0  0  0
   -0.7650   10.3060   -6.1640 C   0  0  1  0  0  0  0  0  0  0  0  0
   -0.5690    8.7880   -6.3110 C   0  0  0  0  0  0  0  0  0  0  0  0
   -1.5820   10.8210   -7.3750 C   0  0  0  0  0  0  0  0  0  0  0  0
    0.6440   12.0070   -2.6810 S   0  0  0  0  0  0  0  0  0  0  0  0
    0.1300    8.4190   -7.6120 C   0  0  0  0  0  0  0  0  0  0  0  0
   -1.1670   10.2450   -8.7290 C   0  0  0  0  0  0  0  0  0  0  0  0
    2.2030   12.3170   -2.8470 O   0  0  0  0  0  0  0  0  0  0  0  0
    0.3450   10.4340   -2.5890 O   0  0  0  0  0  0  0  0  0  0  0  0
    0.0760   12.7330   -1.3710 O   0  0  0  0  0  0  0  0  0  0  0  0
   -1.2340   10.9150   -9.7500 O   0  0  0  0  0  0  0  0  0  0  0  0
   -0.6840    8.8180   -8.8240 C   0  0  0  0  0  0  0  0  0  0  0  0
  1  2  1  0
  2  3  1  0
  4  1  1  1
  4  5  1  0
  4  6  1  0
  3  7  1  0
  5  8  1  0
  6  9  1  0
  7 10  1  0
  7 11  1  0
  7 12  1  0
  9 13  2  0
  8 14  1  0
  9 14  1  0
M  END
