x0685_1_A-x0438_0_A
     RDKit          3D

 29 31  0  0  0  0  0  0  0  0999 V2000
   -1.3700   10.6040   -4.8580 N   0  0  0  0  0  0  0  0  0  0  0  0
   -1.4680   12.0240   -4.4740 C   0  0  0  0  0  0  0  0  0  0  0  0
   -0.0880   12.6390   -4.2700 C   0  0  0  0  0  0  0  0  0  0  0  0
   -0.7350   10.3670   -6.1680 C   0  0  0  0  0  0  0  0  0  0  0  0
   -0.5130    8.8580   -6.4160 C   0  0  0  0  0  0  0  0  0  0  0  0
   -1.5910   11.0040   -7.2840 C   0  0  0  0  0  0  0  0  0  0  0  0
    0.6480   12.2450   -2.6810 S   0  0  0  0  0  0  0  0  0  0  0  0
    0.1110    8.6150   -7.7820 C   0  0  0  0  0  0  0  0  0  0  0  0
   -1.0320   10.7250   -8.6790 C   0  0  0  0  0  0  0  0  0  0  0  0
    2.2300   12.2870   -2.9220 O   0  0  0  0  0  0  0  0  0  0  0  0
    0.1730   10.7540   -2.2730 O   0  0  0  0  0  0  0  0  0  0  0  0
    0.1840   13.3820   -1.6210 O   0  0  0  0  0  0  0  0  0  0  0  0
   -0.7460    9.2300   -8.8890 C   0  0  0  0  0  0  0  0  0  0  0  0
   -0.9990   13.2830   -0.8090 C   0  0  0  0  0  0  0  0  0  0  0  0
   -1.5290   14.6750   -0.4750 C   0  0  0  0  0  0  0  0  0  0  0  0
   -3.0540   14.7800   -0.4940 C   0  0  0  0  0  0  0  0  0  0  0  0
   -3.7110   15.3060   -1.6180 C   0  0  0  0  0  0  0  0  0  0  0  0
   -3.8240   14.3410    0.6050 C   0  0  0  0  0  0  0  0  0  0  0  0
   -5.2320   14.4240    0.5380 C   0  0  0  0  0  0  0  0  0  0  0  0
   -5.1100   15.3990   -1.6900 C   0  0  0  0  0  0  0  0  0  0  0  0
   -6.1920   14.0510    1.4510 N   0  0  0  0  0  0  0  0  0  0  0  0
   -5.8350   14.9430   -0.5980 C   0  0  0  0  0  0  0  0  0  0  0  0
   -7.1850   14.8660   -0.3430 N   0  0  0  0  0  0  0  0  0  0  0  0
   -7.3600   14.3100    0.9060 C   0  0  0  0  0  0  0  0  0  0  0  0
   -8.6930   14.0340    1.5180 C   0  0  0  0  0  0  0  0  0  0  0  0
   -9.3220   15.3330    2.5660 S   0  0  0  0  0  0  0  0  0  0  0  0
   -8.1120   15.5500    3.8600 C   0  0  0  0  0  0  0  0  0  0  0  0
  -10.5500   14.8350    3.1700 O   0  0  0  0  0  0  0  0  0  0  0  0
   -9.3930   16.5340    1.7670 O   0  0  0  0  0  0  0  0  0  0  0  0
  1  2  1  0
  2  3  1  0
  1  4  1  0
  4  5  1  0
  4  6  1  0
  3  7  1  0
  5  8  1  0
  6  9  1  0
  7 10  1  0
  7 11  1  0
  7 12  1  0
  8 13  1  0
  9 13  1  0
 12 14  1  0
 14 15  1  0
 15 16  1  0
 16 17  2  0
 16 18  1  0
 18 19  2  0
 17 20  1  0
 19 21  1  0
 19 22  1  0
 20 22  2  0
 22 23  1  0
 21 24  2  0
 23 24  1  0
 24 25  1  0
 26 25  1  0
 26 27  1  0
 26 28  2  0
 26 29  2  0
M  END
