x0685_1_A_α-x0371_0_A_β
     RDKit          3D

 25 27  0  0  0  0  0  0  0  0999 V2000
   -1.4400   10.6180   -4.8810 N   0  0  0  0  0  0  0  0  0  0  0  0
   -1.4670   12.0160   -4.4250 C   0  0  0  0  0  0  0  0  0  0  0  0
   -0.1090   12.6820   -4.2440 C   0  0  0  0  0  0  0  0  0  0  0  0
   -0.7600   10.3440   -6.1580 C   0  0  0  0  0  0  0  0  0  0  0  0
   -0.5740    8.8500   -6.4380 C   0  0  0  0  0  0  0  0  0  0  0  0
   -1.5820   10.9860   -7.2990 C   0  0  0  0  0  0  0  0  0  0  0  0
    0.7220   12.1750   -2.7370 S   0  0  0  0  0  0  0  0  0  0  0  0
    0.0740    8.6150   -7.8050 C   0  0  0  0  0  0  0  0  0  0  0  0
   -1.0190   10.7070   -8.7020 C   0  0  0  0  0  0  0  0  0  0  0  0
    2.2770   12.2340   -3.1090 O   0  0  0  0  0  0  0  0  0  0  0  0
    0.2680   10.6590   -2.4010 O   0  0  0  0  0  0  0  0  0  0  0  0
    0.4120   13.2490   -1.5740 O   0  0  0  0  0  0  0  0  0  0  0  0
   -0.7340    9.2310   -8.9480 C   0  0  0  0  0  0  0  0  0  0  0  0
   -0.8550   13.2950   -0.9170 C   0  0  0  0  0  0  0  0  0  0  0  0
   -1.3420   14.7370   -0.8420 C   0  0  0  0  0  0  0  0  0  0  0  0
   -2.8560   14.8400   -0.7810 C   0  0  0  0  0  0  0  0  0  0  0  0
   -3.5180   14.5800    0.4310 C   0  0  0  0  0  0  0  0  0  0  0  0
   -3.5950   15.1840   -1.9280 C   0  0  0  0  0  0  0  0  0  0  0  0
   -4.9090   14.6610    0.4200 C   0  0  0  0  0  0  0  0  0  0  0  0
   -4.9940   15.2620   -1.9000 C   0  0  0  0  0  0  0  0  0  0  0  0
   -5.8330   14.4580    1.3990 N   0  0  0  0  0  0  0  0  0  0  0  0
   -5.6570   14.9860   -0.6990 C   0  0  0  0  0  0  0  0  0  0  0  0
   -7.0840   14.6480    0.8690 C   0  0  0  0  0  0  0  0  0  0  0  0
   -7.0010   14.9750   -0.4090 N   0  0  0  0  0  0  0  0  0  0  0  0
   -8.3150   14.4940    1.6730 C   0  0  0  0  0  0  0  0  0  0  0  0
  1  2  1  0
  2  3  1  0
  1  4  1  0
  4  5  1  0
  4  6  1  0
  3  7  1  0
  5  8  1  0
  6  9  1  0
  7 10  1  0
  7 11  1  0
  7 12  1  0
  8 13  1  0
  9 13  1  0
 12 14  1  0
 14 15  1  0
 15 16  1  0
 16 17  2  0
 16 18  1  0
 17 19  1  0
 18 20  2  0
 19 21  1  0
 19 22  2  0
 20 22  1  0
 21 23  1  0
 22 24  1  0
 23 24  2  0
 23 25  1  0
M  END
