x0685_0_A_α-x0104_0_A_β
     RDKit          3D

 11 11  0  0  0  0  0  0  0  0999 V2000
   -5.9880   14.9720    2.5600 N   0  0  0  0  0  0  0  0  0  0  0  0
   -6.9860   13.9170    2.6150 C   0  0  0  0  0  0  0  0  0  0  0  0
   -8.0650   14.2670    3.6110 C   0  0  0  0  0  0  0  0  0  0  0  0
   -5.2910   14.9990    1.3690 C   0  0  0  0  0  0  0  0  0  0  0  0
   -3.9060   15.0420    1.3090 C   0  0  0  0  0  0  0  0  0  0  0  0
   -6.0640   14.9840    0.2700 N   0  0  0  0  0  0  0  0  0  0  0  0
   -3.2880   15.0780    0.0660 C   0  0  0  0  0  0  0  0  0  0  0  0
   -5.4470   15.0240   -0.9270 C   0  0  0  0  0  0  0  0  0  0  0  0
   -4.0760   15.0720   -1.0810 C   0  0  0  0  0  0  0  0  0  0  0  0
   -3.5060   15.1150   -2.3810 C   0  0  0  0  0  0  0  0  0  0  0  0
   -3.0490   15.1590   -3.4450 N   0  0  0  0  0  0  0  0  0  0  0  0
  1  2  1  0
  2  3  1  0
  1  4  1  0
  4  5  2  0
  4  6  1  0
  5  7  1  0
  6  8  2  0
  7  9  2  0
  8  9  1  0
  9 10  1  0
 10 11  3  0
M  END
