x0689_0_A-x0587_0_A
     RDKit          3D

 20 21  0  0  0  0  0  0  0  0999 V2000
   -3.3560   15.3090    1.5670 N   0  0  0  0  0  0  0  0  0  0  0  0
   -2.5600   14.3150    0.8860 C   0  0  2  0  0  0  0  0  0  0  0  0
   -1.3560   14.3120    1.6810 N   0  0  0  0  0  0  0  0  0  0  0  0
   -2.4050   14.4290   -0.5740 N   0  0  0  0  0  0  0  0  0  0  0  0
   -1.1460   14.2930   -1.1200 C   0  0  0  0  0  0  0  0  0  0  0  0
   -0.2810   15.0200    1.0110 C   0  0  0  0  0  0  0  0  0  0  0  0
   -3.3460   15.2670   -1.2100 O   0  0  0  0  0  0  0  0  0  0  0  0
   -0.0660   14.5680   -0.3890 C   0  0  0  0  0  0  0  0  0  0  0  0
   -4.5850   14.5640   -1.5110 C   0  0  0  0  0  0  0  0  0  0  0  0
   -4.2830   13.3000   -1.9420 F   0  0  0  0  0  0  0  0  0  0  0  0
   -5.0660   15.1930   -2.6240 F   0  0  0  0  0  0  0  0  0  0  0  0
   -5.6120   14.6240   -0.3590 C   0  0  0  0  0  0  0  0  0  0  0  0
   -6.9410   14.5460   -0.6580 N   0  0  0  0  0  0  0  0  0  0  0  0
   -5.1600   14.7550    0.9050 N   0  0  0  0  0  0  0  0  0  0  0  0
   -7.8140   14.6190    0.3770 C   0  0  0  0  0  0  0  0  0  0  0  0
   -6.0740   14.8230    1.8980 C   0  0  0  0  0  0  0  0  0  0  0  0
   -7.4350   14.7650    1.6920 C   0  0  0  0  0  0  0  0  0  0  0  0
   -8.3560   14.8670    2.8280 C   0  0  0  0  0  0  0  0  0  0  0  0
   -7.8280   14.8330    4.0840 N   0  0  0  0  0  0  0  0  0  0  0  0
   -9.5610   14.9960    2.6500 O   0  0  0  0  0  0  0  0  0  0  0  0
  2  1  1  1
  2  3  1  0
  2  4  1  0
  4  5  1  0
  3  6  1  0
  4  7  1  0
  5  8  2  0
  6  8  1  0
  7  9  1  0
  9 10  1  0
  9 11  1  0
  9 12  1  0
 12 13  2  0
 12 14  1  0
 13 15  1  0
 14 16  2  0
 15 17  2  0
 16 17  1  0
 17 18  1  0
 18 19  1  0
 18 20  2  0
M  END
