x0685_1_A-x0950_0_A
     RDKit          3D

 14 14  0  0  0  0  0  0  0  0999 V2000
   -1.1040   10.5720   -4.8120 N   0  0  0  0  0  0  0  0  0  0  0  0
   -1.3870   11.9730   -4.5010 C   0  0  0  0  0  0  0  0  0  0  0  0
   -0.1790   12.7940   -4.0630 C   0  0  0  0  0  0  0  0  0  0  0  0
   -1.2900   10.0690   -6.1780 C   0  0  0  0  0  0  0  0  0  0  0  0
   -0.6360    8.7100   -6.4720 C   0  0  0  0  0  0  0  0  0  0  0  0
   -0.9960   11.1270   -7.2640 C   0  0  0  0  0  0  0  0  0  0  0  0
    0.6910   12.0700   -2.6700 S   0  0  0  0  0  0  0  0  0  0  0  0
    0.1470    8.7340   -7.7860 C   0  0  0  0  0  0  0  0  0  0  0  0
   -1.2240   10.6500   -8.7060 C   0  0  0  0  0  0  0  0  0  0  0  0
    2.2680   12.3130   -2.9250 O   0  0  0  0  0  0  0  0  0  0  0  0
    0.3350   10.4990   -2.5870 O   0  0  0  0  0  0  0  0  0  0  0  0
    0.1600   12.7760   -1.3300 O   0  0  0  0  0  0  0  0  0  0  0  0
   -0.6880    9.2470   -8.9590 C   0  0  0  0  0  0  0  0  0  0  0  0
    2.7270   12.9100   -4.1340 C   0  0  0  0  0  0  0  0  0  0  0  0
  1  2  1  0
  2  3  1  0
  1  4  1  0
  4  5  1  0
  4  6  1  0
  3  7  1  0
  5  8  1  0
  6  9  1  0
  7 10  1  0
  7 11  1  0
  7 12  1  0
  8 13  1  0
  9 13  1  0
 10 14  1  0
M  END
