x0681_0_A_α-x0626_0_A_α
     RDKit          3D

 22 24  0  0  0  0  0  0  0  0999 V2000
   -4.2550   15.3200   -3.2620 N   0  0  0  0  0  0  0  0  0  0  0  0
   -3.6050   15.1460   -2.0850 C   0  0  0  0  0  0  0  0  0  0  0  0
   -2.3870   15.0230   -2.0870 O   0  0  0  0  0  0  0  0  0  0  0  0
   -4.5450   15.1110   -0.8750 C   0  0  1  0  0  0  0  0  0  0  0  0
   -5.1310   13.7140   -0.7350 C   0  0  0  0  0  0  0  0  0  0  0  0
   -3.9870   15.7750    0.4280 C   0  0  0  0  0  0  0  0  0  0  0  0
   -5.2950   13.1220    0.4700 N   0  0  0  0  0  0  0  0  0  0  0  0
   -4.4950   15.2540    1.7840 C   0  0  0  0  0  0  0  0  0  0  0  0
   -5.5550   12.9100   -1.6980 N   0  0  0  0  0  0  0  0  0  0  0  0
   -4.8960   13.7980    1.6690 C   0  0  2  0  0  0  0  0  0  0  0  0
   -5.8660   11.9020    0.2890 C   0  0  0  0  0  0  0  0  0  0  0  0
   -6.0160   11.7840   -1.0660 C   0  0  0  0  0  0  0  0  0  0  0  0
   -3.4980   13.8850    1.0210 C   0  0  0  0  0  0  0  0  0  0  0  0
   -6.2240   14.5150    1.2580 C   0  0  0  0  0  0  0  0  0  0  0  0
   -2.4010   14.4360    1.5770 N   0  0  0  0  0  0  0  0  0  0  0  0
   -3.2040   13.2660   -0.5730 S   0  0  0  0  0  0  0  0  0  0  0  0
   -6.3280   15.1550    0.2010 O   0  0  0  0  0  0  0  0  0  0  0  0
   -7.4520   14.4060    2.1380 C   0  0  0  0  0  0  0  0  0  0  0  0
   -1.5880   13.7680   -0.5030 C   0  0  0  0  0  0  0  0  0  0  0  0
   -1.3360   14.3630    0.6950 C   0  0  0  0  0  0  0  0  0  0  0  0
   -8.7180   14.5780    1.3150 C   0  0  0  0  0  0  0  0  0  0  0  0
   -0.0350   14.9070    1.0680 C   0  0  0  0  0  0  0  0  0  0  0  0
  1  2  1  0
  2  3  2  0
  4  2  1  6
  4  5  1  0
  4  6  1  0
  5  7  1  0
  6  8  1  0
  5  9  2  0
  7 10  1  0
  8 10  1  0
  7 11  1  0
  9 12  1  0
 11 12  2  0
 10 13  1  0
 10 14  1  1
 13 15  2  0
 13 16  1  0
 14 17  2  0
 14 18  1  0
 16 19  1  0
 15 20  1  0
 19 20  2  0
 18 21  1  0
 20 22  1  0
M  END
