x0685_1_A-x0471_0_A
     RDKit          3D

 31 33  0  0  0  0  0  0  0  0999 V2000
   -1.2380   10.6410   -4.7740 N   0  0  0  0  0  0  0  0  0  0  0  0
   -1.5260   12.0180   -4.3620 C   0  0  0  0  0  0  0  0  0  0  0  0
   -0.2370   12.7530   -3.9990 C   0  0  0  0  0  0  0  0  0  0  0  0
   -0.7820   10.3700   -6.1440 C   0  0  0  0  0  0  0  0  0  0  0  0
   -0.5910    8.8670   -6.4330 C   0  0  0  0  0  0  0  0  0  0  0  0
   -1.5370   11.0510   -7.3020 C   0  0  0  0  0  0  0  0  0  0  0  0
    0.5510   12.1120   -2.5210 S   0  0  0  0  0  0  0  0  0  0  0  0
    0.0490    8.5980   -7.7870 C   0  0  0  0  0  0  0  0  0  0  0  0
   -1.0040   10.7140   -8.6960 C   0  0  0  0  0  0  0  0  0  0  0  0
    2.1130   12.3970   -2.7340 O   0  0  0  0  0  0  0  0  0  0  0  0
    0.2790   10.5220   -2.4930 O   0  0  0  0  0  0  0  0  0  0  0  0
   -0.0780   12.8260   -1.2020 O   0  0  0  0  0  0  0  0  0  0  0  0
   -0.7980    9.2110   -8.9020 C   0  0  0  0  0  0  0  0  0  0  0  0
   -0.6610   14.1500   -1.2590 C   0  0  0  0  0  0  0  0  0  0  0  0
   -1.4450   14.5310    0.0200 C   0  0  0  0  0  0  0  0  0  0  0  0
   -2.9480   14.7230   -0.2010 C   0  0  0  0  0  0  0  0  0  0  0  0
   -3.4680   15.1620   -1.4380 C   0  0  0  0  0  0  0  0  0  0  0  0
   -3.8520   14.4470    0.8450 C   0  0  0  0  0  0  0  0  0  0  0  0
   -5.2370   14.5950    0.6310 C   0  0  0  0  0  0  0  0  0  0  0  0
   -4.8470   15.3190   -1.6640 C   0  0  0  0  0  0  0  0  0  0  0  0
   -6.2890   14.3740    1.4850 N   0  0  0  0  0  0  0  0  0  0  0  0
   -5.6990   15.0190   -0.6050 C   0  0  0  0  0  0  0  0  0  0  0  0
   -7.0700   15.0420   -0.4720 N   0  0  0  0  0  0  0  0  0  0  0  0
   -7.3790   14.6420    0.8100 C   0  0  0  0  0  0  0  0  0  0  0  0
   -8.7840   14.5520    1.2990 C   0  0  0  0  0  0  0  0  0  0  0  0
   -8.7580   14.1040    2.6810 N   0  0  0  0  0  0  0  0  0  0  0  0
   -8.9470   15.0100    3.7060 C   0  0  0  0  0  0  0  0  0  0  0  0
   -9.3130   16.1660    3.5050 O   0  0  0  0  0  0  0  0  0  0  0  0
   -8.6710   14.4390    5.0960 C   0  0  0  0  0  0  0  0  0  0  0  0
   -9.8940   13.6770    5.6130 C   0  0  0  0  0  0  0  0  0  0  0  0
   -8.2830   15.5570    6.0560 C   0  0  0  0  0  0  0  0  0  0  0  0
  1  2  1  0
  2  3  1  0
  1  4  1  0
  4  5  1  0
  4  6  1  0
  3  7  1  0
  5  8  1  0
  6  9  1  0
  7 10  1  0
  7 11  1  0
  7 12  1  0
  8 13  1  0
  9 13  1  0
 12 14  1  0
 14 15  1  0
 15 16  1  0
 16 17  2  0
 16 18  1  0
 18 19  2  0
 17 20  1  0
 19 21  1  0
 19 22  1  0
 20 22  2  0
 22 23  1  0
 21 24  2  0
 23 24  1  0
 24 25  1  0
 25 26  1  0
 26 27  1  0
 27 28  2  0
 27 29  1  0
 29 30  1  0
 29 31  1  0
M  END
