x0689_0_A_α-x0967_0_A_α
     RDKit          3D

 18 20  0  0  0  0  0  0  0  0999 V2000
   -3.0100   14.2760    1.9820 N   0  0  0  0  0  0  0  0  0  0  0  0
   -3.8910   15.3440    1.7120 C   0  0  0  0  0  0  0  0  0  0  0  0
   -4.4550   15.1930    0.3740 C   0  0  0  0  0  0  0  0  0  0  0  0
   -1.9590   14.3600    1.1450 C   0  0  0  0  0  0  0  0  0  0  0  0
   -2.1040   13.9300   -0.1130 N   0  0  0  0  0  0  0  0  0  0  0  0
   -0.8790   14.8770    1.6290 N   0  0  0  0  0  0  0  0  0  0  0  0
   -1.0360   14.0650   -0.9190 C   0  0  0  0  0  0  0  0  0  0  0  0
    0.1560   15.0050    0.8030 C   0  0  0  0  0  0  0  0  0  0  0  0
   -5.7900   14.8710    0.3310 C   0  0  0  0  0  0  0  0  0  0  0  0
   -3.7400   15.3490   -0.8030 C   0  0  0  0  0  0  0  0  0  0  0  0
    0.1420   14.6100   -0.4990 C   0  0  0  0  0  0  0  0  0  0  0  0
   -6.3940   14.7180   -0.9110 C   0  0  0  0  0  0  0  0  0  0  0  0
   -6.5530   14.6970    1.5030 C   0  0  0  0  0  0  0  0  0  0  0  0
   -4.4040   15.1770   -1.9820 C   0  0  0  0  0  0  0  0  0  0  0  0
   -7.6820   14.4160   -0.9940 N   0  0  0  0  0  0  0  0  0  0  0  0
   -7.8830   14.3830    1.4100 C   0  0  0  0  0  0  0  0  0  0  0  0
   -5.7100   14.8660   -2.0470 N   0  0  0  0  0  0  0  0  0  0  0  0
   -8.3990   14.2560    0.1440 C   0  0  0  0  0  0  0  0  0  0  0  0
  1  2  1  0
  2  3  1  0
  1  4  1  0
  4  5  2  0
  4  6  1  0
  5  7  1  0
  6  8  2  0
  3  9  1  0
  3 10  2  0
  7 11  2  0
  8 11  1  0
  9 12  2  0
  9 13  1  0
 10 14  1  0
 12 15  1  0
 13 16  2  0
 12 17  1  0
 14 17  2  0
 15 18  2  0
 16 18  1  0
M  END
