x0685_0_A_α-x0805_0_A_β
     RDKit          3D

 22 23  0  0  0  0  0  0  0  0999 V2000
   -6.2430   14.9820    2.7570 N   0  0  0  0  0  0  0  0  0  0  0  0
   -7.6690   14.7090    2.7360 C   0  0  0  0  0  0  0  0  0  0  0  0
   -7.9460   13.2340    2.9590 C   0  0  0  0  0  0  0  0  0  0  0  0
   -5.5230   14.9890    1.5620 C   0  0  0  0  0  0  0  0  0  0  0  0
   -4.1400   15.1410    1.4920 C   0  0  0  0  0  0  0  0  0  0  0  0
   -6.2810   14.8540    0.4590 N   0  0  0  0  0  0  0  0  0  0  0  0
   -3.5210   15.1610    0.2510 C   0  0  0  0  0  0  0  0  0  0  0  0
   -5.6590   14.8810   -0.7350 C   0  0  0  0  0  0  0  0  0  0  0  0
   -4.2980   15.0330   -0.8840 C   0  0  0  0  0  0  0  0  0  0  0  0
   -3.7240   15.0450   -2.1730 C   0  0  0  0  0  0  0  0  0  0  0  0
   -3.2370   14.9420   -3.2440 C   0  0  0  0  0  0  0  0  0  0  0  0
   -2.6090   14.6700   -4.5220 C   0  0  0  0  0  0  0  0  0  0  0  0
   -1.7150   13.4330   -4.3690 C   0  0  0  0  0  0  0  0  0  0  0  0
   -0.2180   13.7210   -4.5530 C   0  0  2  0  0  0  0  0  0  0  0  0
    0.7320   13.2180   -3.4570 C   0  0  1  0  0  0  0  0  0  0  0  0
    0.1640   15.1860   -4.5670 C   0  0  0  0  0  0  0  0  0  0  0  0
    0.2950   12.1220   -2.5260 C   0  0  0  0  0  0  0  0  0  0  0  0
    2.0620   12.9420   -4.0980 C   0  0  0  0  0  0  0  0  0  0  0  0
    1.6710   15.3640   -4.3850 C   0  0  0  0  0  0  0  0  0  0  0  0
   -0.0650   10.9610   -3.1120 O   0  0  0  0  0  0  0  0  0  0  0  0
    0.2840   12.2960   -1.3200 O   0  0  0  0  0  0  0  0  0  0  0  0
    2.5400   14.2030   -4.5380 O   0  0  0  0  0  0  0  0  0  0  0  0
  1  2  1  0
  2  3  1  0
  1  4  1  0
  4  5  2  0
  4  6  1  0
  5  7  1  0
  6  8  2  0
  7  9  2  0
  8  9  1  0
  9 10  1  0
 10 11  3  0
 11 12  1  0
 12 13  1  0
 14 13  1  1
 14 15  1  0
 14 16  1  0
 15 17  1  6
 15 18  1  0
 16 19  1  0
 17 20  1  0
 17 21  2  0
 18 22  1  0
 19 22  1  0
M  END
