x0681_0_A-x0727_0_A
     RDKit          3D

 27 29  0  0  0  0  0  0  0  0999 V2000
   -4.5430   15.3980   -3.0370 N   0  0  0  0  0  0  0  0  0  0  0  0
   -3.5540   14.9700   -2.2040 C   0  0  0  0  0  0  0  0  0  0  0  0
   -2.3570   14.7590   -2.6730 N   0  0  0  0  0  0  0  0  0  0  0  0
   -4.0820   14.7890   -0.7560 C   0  0  1  0  0  0  0  0  0  0  0  0
   -1.1640   14.2930   -1.9770 C   0  0  0  0  0  0  0  0  0  0  0  0
   -4.8760   13.5320   -0.6140 C   0  0  0  0  0  0  0  0  0  0  0  0
   -3.2240   15.0860    0.4830 C   0  0  0  0  0  0  0  0  0  0  0  0
    0.0900   14.4140   -2.8840 C   0  0  0  0  0  0  0  0  0  0  0  0
   -5.5350   13.3610    0.5330 N   0  0  0  0  0  0  0  0  0  0  0  0
   -3.9690   14.7290    1.7810 C   0  0  0  0  0  0  0  0  0  0  0  0
   -5.0720   12.5210   -1.4350 N   0  0  0  0  0  0  0  0  0  0  0  0
   -0.0130   13.8200   -4.3240 C   0  0  0  0  0  0  0  0  0  0  0  0
   -5.4420   14.3520    1.5540 C   0  0  0  0  0  0  0  0  0  0  0  0
   -6.2150   12.1890    0.4960 C   0  0  0  0  0  0  0  0  0  0  0  0
   -5.9130   11.6760   -0.7480 C   0  0  0  0  0  0  0  0  0  0  0  0
    0.7270   12.4830   -4.5360 C   0  0  2  0  0  0  0  0  0  0  0  0
    0.0580   11.5910   -5.5080 N   0  0  0  0  0  0  0  0  0  0  0  0
    0.7290   11.7760   -3.1880 C   0  0  0  0  0  0  0  0  0  0  0  0
    0.1280   10.7490   -2.9100 O   0  0  0  0  0  0  0  0  0  0  0  0
    0.6740   11.2290   -6.6840 C   0  0  0  0  0  0  0  0  0  0  0  0
    1.4820   12.4060   -2.2730 O   0  0  0  0  0  0  0  0  0  0  0  0
    1.6550   11.8120   -7.0880 O   0  0  0  0  0  0  0  0  0  0  0  0
    0.0700   10.0340   -7.4330 C   0  0  0  0  0  0  0  0  0  0  0  0
   -1.2160   10.4200   -8.1710 C   0  0  0  0  0  0  0  0  0  0  0  0
   -0.2990    8.8360   -6.5340 C   0  0  0  0  0  0  0  0  0  0  0  0
   -2.1140    9.1970   -8.0610 C   0  0  0  0  0  0  0  0  0  0  0  0
   -1.7930    8.6110   -6.6990 C   0  0  0  0  0  0  0  0  0  0  0  0
  1  2  1  0
  2  3  2  3
  4  2  1  6
  3  5  1  0
  4  6  1  0
  4  7  1  0
  5  8  1  0
  6  9  1  0
  7 10  1  0
  6 11  2  0
  8 12  1  0
  9 13  1  0
 10 13  1  0
  9 14  1  0
 11 15  1  0
 14 15  2  0
 16 12  1  1
 16 17  1  0
 16 18  1  0
 18 19  2  0
 17 20  1  0
 18 21  1  0
 20 22  2  0
 20 23  1  0
 23 24  1  0
 23 25  1  0
 24 26  1  0
 25 27  1  0
 26 27  1  0
M  END
