x0681_0_A-x0926_0_A
     RDKit          3D

 13 14  0  0  0  0  0  0  0  0999 V2000
   -3.8430   15.4110   -3.0680 N   0  0  0  0  0  0  0  0  0  0  0  0
   -3.2550   14.9230   -1.9440 C   0  0  0  0  0  0  0  0  0  0  0  0
   -2.0990   14.5280   -1.9590 O   0  0  0  0  0  0  0  0  0  0  0  0
   -4.1870   14.9300   -0.7530 C   0  0  1  0  0  0  0  0  0  0  0  0
   -4.8840   13.6110   -0.6530 C   0  0  0  0  0  0  0  0  0  0  0  0
   -3.6120   15.3750    0.6090 C   0  0  0  0  0  0  0  0  0  0  0  0
   -5.7170   13.4590    0.3830 N   0  0  0  0  0  0  0  0  0  0  0  0
   -4.5280   14.9590    1.7630 C   0  0  0  0  0  0  0  0  0  0  0  0
   -4.8420   12.5420   -1.4170 N   0  0  0  0  0  0  0  0  0  0  0  0
   -5.8720   14.4780    1.2660 C   0  0  0  0  0  0  0  0  0  0  0  0
   -6.2700   12.2120    0.3120 C   0  0  0  0  0  0  0  0  0  0  0  0
   -5.7130   11.6600   -0.8170 C   0  0  0  0  0  0  0  0  0  0  0  0
   -6.9940   14.8950    1.4860 O   0  0  0  0  0  0  0  0  0  0  0  0
  1  2  1  0
  2  3  2  0
  4  2  1  6
  4  5  1  0
  4  6  1  0
  5  7  1  0
  6  8  1  0
  5  9  2  0
  7 10  1  0
  8 10  1  0
  7 11  1  0
  9 12  1  0
 11 12  2  0
 10 13  2  0
M  END
