x0681_0_A_α-x0290_0_A_α
     RDKit          3D

 24 26  0  0  0  0  0  0  0  0999 V2000
   -3.1760   14.1700   -4.2280 N   0  0  0  0  0  0  0  0  0  0  0  0
   -3.1710   14.1610   -2.8550 C   0  0  0  0  0  0  0  0  0  0  0  0
   -1.9740   14.3340   -2.3150 N   0  0  0  0  0  0  0  0  0  0  0  0
   -4.5520   13.9710   -2.1530 C   0  0  1  0  0  0  0  0  0  0  0  0
   -5.1240   12.5700   -2.2870 C   0  0  0  0  0  0  0  0  0  0  0  0
   -4.5480   14.4340   -0.6890 C   0  0  0  0  0  0  0  0  0  0  0  0
   -1.7680   14.3720   -0.9320 C   0  0  0  0  0  0  0  0  0  0  0  0
   -5.6450   11.8770   -1.2190 N   0  0  0  0  0  0  0  0  0  0  0  0
   -4.4570   13.2550    0.2960 C   0  0  0  0  0  0  0  0  0  0  0  0
   -5.2200   11.8350   -3.3760 N   0  0  0  0  0  0  0  0  0  0  0  0
   -0.5710   13.9940   -0.3370 C   0  0  0  0  0  0  0  0  0  0  0  0
   -2.8040   14.8030   -0.1330 C   0  0  0  0  0  0  0  0  0  0  0  0
   -5.6880   12.4010    0.1170 C   0  0  0  0  0  0  0  0  0  0  0  0
   -6.0890   10.6680   -1.6410 C   0  0  0  0  0  0  0  0  0  0  0  0
   -5.8150   10.6580   -2.9860 C   0  0  0  0  0  0  0  0  0  0  0  0
   -0.4960   14.0730    1.0400 C   0  0  0  0  0  0  0  0  0  0  0  0
   -2.6520   14.8480    1.2320 C   0  0  0  0  0  0  0  0  0  0  0  0
   -3.7700   15.2840    1.9390 N   0  0  0  0  0  0  0  0  0  0  0  0
   -1.5060   14.4890    1.8220 N   0  0  0  0  0  0  0  0  0  0  0  0
   -5.0590   15.2560    1.5310 C   0  0  0  0  0  0  0  0  0  0  0  0
   -5.2840   15.7740    0.4360 O   0  0  0  0  0  0  0  0  0  0  0  0
   -6.2030   14.6190    2.3340 C   0  0  0  0  0  0  0  0  0  0  0  0
   -7.4760   14.5770    1.5690 N   0  0  0  0  0  0  0  0  0  0  0  0
   -8.5890   15.1270    2.3320 C   0  0  0  0  0  0  0  0  0  0  0  0
  1  2  1  0
  2  3  2  3
  4  2  1  1
  4  5  1  0
  4  6  1  0
  3  7  1  0
  5  8  1  0
  6  9  1  0
  5 10  2  0
  7 11  2  0
  7 12  1  0
  8 13  1  0
  9 13  1  0
  8 14  1  0
 10 15  1  0
 14 15  2  0
 11 16  1  0
 12 17  2  0
 17 18  1  0
 16 19  2  0
 17 19  1  0
 18 20  1  0
 20 21  2  0
 20 22  1  0
 22 23  1  0
 23 24  1  0
M  END
