x0681_0_A-x0711_0_A
     RDKit          3D

 25 27  0  0  0  0  0  0  0  0999 V2000
   -2.1600   13.3460   -2.3780 N   0  0  0  0  0  0  0  0  0  0  0  0
   -1.7440   14.0650   -1.1710 C   0  0  0  0  0  0  0  0  0  0  0  0
   -2.6820   13.8650    0.0300 C   0  0  2  0  0  0  0  0  0  0  0  0
   -3.8470   12.9960   -0.3620 C   0  0  0  0  0  0  0  0  0  0  0  0
   -3.1820   15.1570    0.6890 C   0  0  0  0  0  0  0  0  0  0  0  0
   -5.0340   13.0540    0.3050 N   0  0  0  0  0  0  0  0  0  0  0  0
   -4.1220   14.8200    1.8420 C   0  0  0  0  0  0  0  0  0  0  0  0
   -3.9070   12.1060   -1.3360 N   0  0  0  0  0  0  0  0  0  0  0  0
   -5.3250   13.9250    1.4320 C   0  0  1  0  0  0  0  0  0  0  0  0
   -5.8930   12.1650   -0.2670 C   0  0  0  0  0  0  0  0  0  0  0  0
   -5.1760   11.5890   -1.2840 C   0  0  0  0  0  0  0  0  0  0  0  0
   -6.5180   14.7120    1.1610 N   0  0  0  0  0  0  0  0  0  0  0  0
   -7.0180   14.8820   -0.1180 C   0  0  0  0  0  0  0  0  0  0  0  0
   -8.2220   14.9960   -0.3330 O   0  0  0  0  0  0  0  0  0  0  0  0
   -6.0410   14.9240   -1.2510 C   0  0  0  0  0  0  0  0  0  0  0  0
   -6.4430   14.3970   -2.4810 C   0  0  0  0  0  0  0  0  0  0  0  0
   -4.7560   15.4560   -1.1390 C   0  0  0  0  0  0  0  0  0  0  0  0
   -5.5750   14.3970   -3.5780 C   0  0  0  0  0  0  0  0  0  0  0  0
   -3.8870   15.4490   -2.2440 C   0  0  0  0  0  0  0  0  0  0  0  0
   -4.2780   14.9230   -3.4790 C   0  0  0  0  0  0  0  0  0  0  0  0
   -3.3860   14.8950   -4.7120 C   0  0  0  0  0  0  0  0  0  0  0  0
   -1.6200   15.1780   -4.4650 S   0  0  0  0  0  0  0  0  0  0  0  0
   -0.8080   13.8310   -5.3040 C   0  0  0  0  0  0  0  0  0  0  0  0
   -1.2850   16.3860   -5.2030 O   0  0  0  0  0  0  0  0  0  0  0  0
   -1.2510   15.0690   -3.0750 O   0  0  0  0  0  0  0  0  0  0  0  0
  1  2  1  0
  3  2  1  6
  3  4  1  0
  3  5  1  0
  4  6  1  0
  5  7  1  0
  4  8  2  0
  6  9  1  0
  7  9  1  0
  6 10  1  0
  8 11  1  0
 10 11  2  0
  9 12  1  6
 12 13  1  0
 13 14  2  0
 13 15  1  0
 15 16  2  0
 15 17  1  0
 16 18  1  0
 17 19  2  0
 18 20  2  0
 19 20  1  0
 20 21  1  0
 22 21  1  0
 22 23  1  0
 22 24  2  0
 22 25  2  0
M  END
