x0685_0_A-x0711_0_A
     RDKit          3D

 16 16  0  0  0  0  0  0  0  0999 V2000
   -6.2250   15.0010    2.4980 N   0  0  0  0  0  0  0  0  0  0  0  0
   -7.6580   14.7330    2.3600 C   0  0  0  0  0  0  0  0  0  0  0  0
   -7.9520   13.3290    2.8610 C   0  0  0  0  0  0  0  0  0  0  0  0
   -5.3890   15.1210    1.2970 C   0  0  1  0  0  0  0  0  0  0  0  0
   -4.1520   14.2930    1.2530 C   0  0  0  0  0  0  0  0  0  0  0  0
   -6.2510   15.0510    0.0740 N   0  0  0  0  0  0  0  0  0  0  0  0
   -3.4280   14.3590    0.1620 C   0  0  0  0  0  0  0  0  0  0  0  0
   -5.4400   15.0450   -1.1690 C   0  0  0  0  0  0  0  0  0  0  0  0
   -7.1390   13.8860    0.0290 O   0  0  0  0  0  0  0  0  0  0  0  0
   -3.9200   15.2420   -0.9440 C   0  0  2  0  0  0  0  0  0  0  0  0
   -3.0360   14.9430   -2.0620 C   0  0  0  0  0  0  0  0  0  0  0  0
   -2.1540   14.6290   -2.7940 C   0  0  0  0  0  0  0  0  0  0  0  0
   -0.6720   14.0370   -3.5990 S   0  0  0  0  0  0  0  0  0  0  0  0
   -1.2400   12.7860   -4.7070 C   0  0  0  0  0  0  0  0  0  0  0  0
   -0.2420   15.2340   -4.2780 O   0  0  0  0  0  0  0  0  0  0  0  0
   -0.0150   13.4740   -2.4350 O   0  0  0  0  0  0  0  0  0  0  0  0
  1  2  1  0
  2  3  1  0
  4  1  1  1
  4  5  1  0
  4  6  1  0
  5  7  2  0
  6  8  1  0
  6  9  1  0
  7 10  1  0
  8 10  1  0
 10 11  1  6
 11 12  3  0
 13 12  1  0
 13 14  1  0
 13 15  2  0
 13 16  2  0
M  END
