x0685_1_A-x0895_0_A
     RDKit          3D

 22 23  0  0  0  0  0  0  0  0999 V2000
   -0.6750   10.7590   -4.9860 N   0  0  0  0  0  0  0  0  0  0  0  0
   -1.4440   11.9020   -4.4790 C   0  0  0  0  0  0  0  0  0  0  0  0
   -0.5290   12.8720   -3.7270 C   0  0  0  0  0  0  0  0  0  0  0  0
   -1.1900   10.1110   -6.2060 C   0  0  0  0  0  0  0  0  0  0  0  0
   -0.1960    9.1040   -6.7900 C   0  0  0  0  0  0  0  0  0  0  0  0
   -1.5310   11.1600   -7.2890 C   0  0  0  0  0  0  0  0  0  0  0  0
    0.5400   12.0660   -2.5240 S   0  0  0  0  0  0  0  0  0  0  0  0
   -0.6770    8.3810   -8.0310 C   0  0  0  0  0  0  0  0  0  0  0  0
   -1.0780   10.7970   -8.7130 C   0  0  0  0  0  0  0  0  0  0  0  0
    2.0320   12.2860   -3.0790 O   0  0  0  0  0  0  0  0  0  0  0  0
    0.2040   10.4910   -2.5080 O   0  0  0  0  0  0  0  0  0  0  0  0
    0.3760   12.6820   -1.0350 O   0  0  0  0  0  0  0  0  0  0  0  0
   -1.2740    9.3260   -9.0700 C   0  0  0  0  0  0  0  0  0  0  0  0
   -0.6750   13.5600   -0.5940 C   0  0  0  0  0  0  0  0  0  0  0  0
   -0.3160   14.0710    0.8240 C   0  0  0  0  0  0  0  0  0  0  0  0
   -1.4640   14.5940    1.6000 N   0  0  0  0  0  0  0  0  0  0  0  0
   -2.5160   14.9940    0.9780 C   0  0  0  0  0  0  0  0  0  0  0  0
   -3.8020   15.6200    1.4800 C   0  0  0  0  0  0  0  0  0  0  0  0
   -2.6230   14.9050   -0.3670 N   0  0  0  0  0  0  0  0  0  0  0  0
   -4.6530   15.1540    0.4410 N   0  0  0  0  0  0  0  0  0  0  0  0
   -3.9160   15.1160   -0.7170 C   0  0  0  0  0  0  0  0  0  0  0  0
   -4.3630   15.2520   -1.8360 O   0  0  0  0  0  0  0  0  0  0  0  0
  1  2  1  0
  2  3  1  0
  1  4  1  0
  4  5  1  0
  4  6  1  0
  3  7  1  0
  5  8  1  0
  6  9  1  0
  7 10  1  0
  7 11  1  0
  7 12  1  0
  8 13  1  0
  9 13  1  0
 12 14  1  0
 14 15  1  0
 15 16  1  0
 16 17  2  3
 17 18  1  0
 17 19  1  0
 18 20  1  0
 19 21  1  0
 20 21  1  0
 21 22  2  0
M  END
