x0685_0_A_α-x0864_0_A_α
     RDKit          3D

 26 27  0  0  0  0  0  0  0  0999 V2000
   -6.0630   14.9090    2.6460 N   0  0  0  0  0  0  0  0  0  0  0  0
   -7.5010   14.6770    2.6410 C   0  0  0  0  0  0  0  0  0  0  0  0
   -7.7810   13.2250    2.9860 C   0  0  0  0  0  0  0  0  0  0  0  0
   -5.3840   14.9570    1.4310 C   0  0  0  0  0  0  0  0  0  0  0  0
   -3.9990   15.0410    1.3570 C   0  0  0  0  0  0  0  0  0  0  0  0
   -6.1620   14.9280    0.3330 N   0  0  0  0  0  0  0  0  0  0  0  0
   -3.3860   15.1070    0.1120 C   0  0  0  0  0  0  0  0  0  0  0  0
   -5.5460   15.0000   -0.8690 C   0  0  0  0  0  0  0  0  0  0  0  0
   -4.1770   15.0920   -1.0270 C   0  0  0  0  0  0  0  0  0  0  0  0
   -3.5880   15.1710   -2.3220 C   0  0  0  0  0  0  0  0  0  0  0  0
   -3.0830   15.2770   -3.4020 C   0  0  0  0  0  0  0  0  0  0  0  0
   -2.4260   15.4150   -4.7060 C   0  0  0  0  0  0  0  0  0  0  0  0
   -1.6280   14.1590   -5.0590 C   0  0  0  0  0  0  0  0  0  0  0  0
   -0.1250   14.1990   -4.7330 C   0  0  0  0  0  0  0  0  0  0  0  0
    0.5460   12.8160   -4.5900 C   0  0  1  0  0  0  0  0  0  0  0  0
    0.7170   12.3430   -3.1330 C   0  0  0  0  0  0  0  0  0  0  0  0
   -0.1320   11.7650   -5.3740 N   0  0  0  0  0  0  0  0  0  0  0  0
    0.4190   11.0440   -2.9170 O   0  0  0  0  0  0  0  0  0  0  0  0
    1.0930   13.0200   -2.1910 O   0  0  0  0  0  0  0  0  0  0  0  0
   -1.3010   11.1800   -4.9120 C   0  0  0  0  0  0  0  0  0  0  0  0
    0.5110   11.3150   -6.5180 C   0  0  0  0  0  0  0  0  0  0  0  0
    1.5570   11.7780   -6.9380 O   0  0  0  0  0  0  0  0  0  0  0  0
   -1.8650   10.1570   -5.5660 C   0  0  0  0  0  0  0  0  0  0  0  0
   -0.1250   10.1900   -7.2390 C   0  0  0  0  0  0  0  0  0  0  0  0
   -1.2550    9.6490   -6.7700 C   0  0  0  0  0  0  0  0  0  0  0  0
   -2.0920    8.2240   -7.6350 Br  0  0  0  0  0  0  0  0  0  0  0  0
  1  2  1  0
  2  3  1  0
  1  4  1  0
  4  5  2  0
  4  6  1  0
  5  7  1  0
  6  8  2  0
  7  9  2  0
  8  9  1  0
  9 10  1  0
 10 11  3  0
 11 12  1  0
 12 13  1  0
 13 14  1  0
 15 14  1  1
 15 16  1  0
 15 17  1  0
 16 18  1  0
 16 19  2  0
 17 20  1  0
 17 21  1  0
 21 22  2  0
 20 23  2  0
 21 24  1  0
 23 25  1  0
 24 25  2  0
 25 26  1  0
M  END
