x0685_0_A-x0852_0_B
     RDKit          3D

 21 22  0  0  0  0  0  0  0  0999 V2000
   -5.9840   14.8830    2.5730 N   0  0  0  0  0  0  0  0  0  0  0  0
   -7.1960   14.1910    3.0610 C   0  0  2  0  0  0  0  0  0  0  0  0
   -7.6720   13.0060    2.2330 C   0  0  0  0  0  0  0  0  0  0  0  0
   -5.4470   14.9150    1.2940 C   0  0  0  0  0  0  0  0  0  0  0  0
   -4.0610   15.0840    1.2010 C   0  0  0  0  0  0  0  0  0  0  0  0
   -6.2010   14.8000    0.1890 N   0  0  0  0  0  0  0  0  0  0  0  0
   -8.2510   15.1920    3.4020 C   0  0  0  0  0  0  0  0  0  0  0  0
   -3.4460   15.1380   -0.0350 C   0  0  0  0  0  0  0  0  0  0  0  0
   -5.5840   14.8590   -1.0130 C   0  0  0  0  0  0  0  0  0  0  0  0
   -8.4280   15.7020    4.7110 C   0  0  0  0  0  0  0  0  0  0  0  0
   -9.0850   15.6580    2.3900 C   0  0  0  0  0  0  0  0  0  0  0  0
   -7.6300   15.2550    5.7390 O   0  0  0  0  0  0  0  0  0  0  0  0
   -4.2200   15.0260   -1.1730 C   0  0  0  0  0  0  0  0  0  0  0  0
  -10.0580   16.5980    2.6420 C   0  0  0  0  0  0  0  0  0  0  0  0
   -9.4140   16.6600    4.9630 C   0  0  0  0  0  0  0  0  0  0  0  0
   -3.6360   15.0850   -2.4680 C   0  0  0  0  0  0  0  0  0  0  0  0
   -9.6100   17.1980    6.2730 C   0  0  0  0  0  0  0  0  0  0  0  0
  -11.1450   17.1870    1.2130 Br  0  0  0  0  0  0  0  0  0  0  0  0
  -10.2300   17.1090    3.9220 C   0  0  0  0  0  0  0  0  0  0  0  0
   -3.1540   15.1460   -3.5200 N   0  0  0  0  0  0  0  0  0  0  0  0
   -9.7390   17.6780    7.3220 N   0  0  0  0  0  0  0  0  0  0  0  0
  1  2  1  0
  2  3  1  6
  1  4  1  0
  4  5  2  0
  4  6  1  0
  2  7  1  0
  5  8  1  0
  6  9  2  0
  7 10  2  0
  7 11  1  0
 10 12  1  0
  8 13  2  0
  9 13  1  0
 11 14  2  0
 10 15  1  0
 13 16  1  0
 15 17  1  0
 14 18  1  0
 14 19  1  0
 15 19  2  0
 16 20  3  0
 17 21  3  0
M  END
