x0681_0_A_α-x0524_0_A_α
     RDKit          3D

 33 36  0  0  0  0  0  0  0  0999 V2000
   -4.2310   15.5420   -2.4380 N   0  0  0  0  0  0  0  0  0  0  0  0
   -3.2700   14.6890   -1.9620 C   0  0  0  0  0  0  0  0  0  0  0  0
   -2.2560   14.1870   -2.5970 N   0  0  0  0  0  0  0  0  0  0  0  0
   -3.4610   14.2860   -0.4820 C   0  0  2  0  0  0  0  0  0  0  0  0
   -1.9060   14.4230   -4.0070 C   0  0  0  0  0  0  0  0  0  0  0  0
   -4.6020   13.3150   -0.4390 C   0  0  0  0  0  0  0  0  0  0  0  0
   -3.6450   15.4640    0.4910 C   0  0  0  0  0  0  0  0  0  0  0  0
   -0.6140   13.7350   -4.5030 C   0  0  0  0  0  0  0  0  0  0  0  0
   -5.5850   13.3880    0.5060 N   0  0  0  0  0  0  0  0  0  0  0  0
   -4.2950   15.0390    1.7960 C   0  0  0  0  0  0  0  0  0  0  0  0
   -4.8240   12.3050   -1.2570 N   0  0  0  0  0  0  0  0  0  0  0  0
   -0.6920   12.9370   -5.8230 C   0  0  0  0  0  0  0  0  0  0  0  0
   -5.6450   14.3780    1.5450 C   0  0  0  0  0  0  0  0  0  0  0  0
   -6.4760   12.3780    0.2910 C   0  0  0  0  0  0  0  0  0  0  0  0
   -5.9860   11.7190   -0.8080 C   0  0  0  0  0  0  0  0  0  0  0  0
   -0.4470   11.4290   -5.6260 C   0  0  0  0  0  0  0  0  0  0  0  0
   -0.2660   10.7100   -6.9010 N   0  0  0  0  0  0  0  0  0  0  0  0
   -0.8280    9.5470   -7.0860 C   0  0  0  0  0  0  0  0  0  0  0  0
   -0.6280    8.8920   -8.2850 N   0  0  0  0  0  0  0  0  0  0  0  0
   -1.6930    8.8790   -6.0460 C   0  0  0  0  0  0  0  0  0  0  0  0
    0.4860    8.7840   -9.1450 C   0  0  0  0  0  0  0  0  0  0  0  0
    1.5810    7.9370   -8.9340 C   0  0  0  0  0  0  0  0  0  0  0  0
    0.4850    9.5790  -10.2930 C   0  0  0  0  0  0  0  0  0  0  0  0
    2.6390    7.8910   -9.8570 C   0  0  0  0  0  0  0  0  0  0  0  0
    1.5350    9.5320  -11.2080 C   0  0  0  0  0  0  0  0  0  0  0  0
    2.6300    8.6860  -11.0080 C   0  0  0  0  0  0  0  0  0  0  0  0
    3.6630    8.6730  -11.9600 N   0  0  0  0  0  0  0  0  0  0  0  0
    3.9800    9.5190  -13.0400 C   0  0  0  0  0  0  0  0  0  0  0  0
    3.2290   10.6870  -13.2590 C   0  0  0  0  0  0  0  0  0  0  0  0
    5.0300    9.2460  -13.9200 C   0  0  0  0  0  0  0  0  0  0  0  0
    3.5180   11.5460  -14.3170 C   0  0  0  0  0  0  0  0  0  0  0  0
    5.3240   10.1040  -14.9820 C   0  0  0  0  0  0  0  0  0  0  0  0
    4.5670   11.2560  -15.1810 C   0  0  0  0  0  0  0  0  0  0  0  0
  1  2  1  0
  2  3  2  3
  4  2  1  6
  3  5  1  0
  4  6  1  0
  4  7  1  0
  5  8  1  0
  6  9  1  0
  7 10  1  0
  6 11  2  0
  8 12  1  0
  9 13  1  0
 10 13  1  0
  9 14  1  0
 11 15  1  0
 14 15  2  0
 12 16  1  0
 16 17  1  0
 17 18  2  3
 18 19  1  0
 18 20  1  0
 19 21  1  0
 21 22  2  0
 21 23  1  0
 22 24  1  0
 23 25  2  0
 24 26  2  0
 25 26  1  0
 26 27  1  0
 27 28  1  0
 28 29  2  0
 28 30  1  0
 29 31  1  0
 30 32  2  0
 31 33  2  0
 32 33  1  0
M  END
