x0685_1_A_α-x1015_0_A_α
     RDKit          3D

 17 18  0  0  0  0  0  0  0  0999 V2000
   -1.9340   10.5110   -4.4080 N   0  0  0  0  0  0  0  0  0  0  0  0
   -1.6020   10.7950   -3.1000 C   0  0  0  0  0  0  0  0  0  0  0  0
   -0.0620   10.7390   -3.0260 C   0  0  0  0  0  0  0  0  0  0  0  0
   -0.7470   11.6130   -5.5050 S   0  0  0  0  0  0  0  0  0  0  0  0
    0.4100   11.0280   -6.8630 C   0  0  0  0  0  0  0  0  0  0  0  0
   -1.6320   11.4770   -7.1310 C   0  0  0  0  0  0  0  0  0  0  0  0
    0.3270   12.7460   -4.3940 C   0  0  2  0  0  0  0  0  0  0  0  0
   -1.2500   13.2840   -4.9590 C   0  0  0  0  0  0  0  0  0  0  0  0
    0.6560   11.9840   -1.9450 S   0  0  0  0  0  0  0  0  0  0  0  0
   -0.4200   13.4580   -3.3600 C   0  0  0  0  0  0  0  0  0  0  0  0
    0.3020    9.7490   -7.4550 C   0  0  0  0  0  0  0  0  0  0  0  0
   -0.9810   11.1570   -8.3570 C   0  0  0  0  0  0  0  0  0  0  0  0
   -0.3990   14.2560   -5.5940 N   0  0  0  0  0  0  0  0  0  0  0  0
    0.8140   13.6980   -5.3390 C   0  0  0  0  0  0  0  0  0  0  0  0
    2.1670   12.4970   -2.5730 O   0  0  0  0  0  0  0  0  0  0  0  0
   -0.6110    9.7230   -8.6590 C   0  0  0  0  0  0  0  0  0  0  0  0
   -2.0300    8.7000   -8.4380 Cl  0  0  0  0  0  0  0  0  0  0  0  0
  1  2  1  0
  2  3  1  0
  1  4  1  0
  4  5  1  0
  4  6  1  0
  4  7  1  0
  4  8  1  0
  3  9  1  0
  7 10  1  1
  5 11  1  0
  6 12  1  0
  8 13  1  0
  7 14  1  0
 13 14  1  0
  9 15  1  0
 11 16  1  0
 12 16  1  0
 16 17  1  0
M  END
