x0685_0_A-x0628_0_A
     RDKit          3D

 24 25  0  0  0  0  0  0  0  0999 V2000
   -6.3150   15.1050    2.5390 N   0  0  0  0  0  0  0  0  0  0  0  0
   -7.7150   14.7170    2.5650 C   0  0  0  0  0  0  0  0  0  0  0  0
   -7.8630   13.2970    3.0780 C   0  0  0  0  0  0  0  0  0  0  0  0
   -5.6150   15.0600    1.3270 C   0  0  0  0  0  0  0  0  0  0  0  0
   -4.2260   15.2040    1.3670 C   0  0  0  0  0  0  0  0  0  0  0  0
   -6.2780   14.8910    0.1710 N   0  0  0  0  0  0  0  0  0  0  0  0
   -3.4980   15.1730    0.1870 C   0  0  0  0  0  0  0  0  0  0  0  0
   -5.5550   14.8670   -0.9610 C   0  0  0  0  0  0  0  0  0  0  0  0
   -4.1850   15.0000   -1.0070 C   0  0  0  0  0  0  0  0  0  0  0  0
   -3.5140   14.9450   -2.2510 C   0  0  0  0  0  0  0  0  0  0  0  0
   -2.9680   14.6720   -3.2710 C   0  0  0  0  0  0  0  0  0  0  0  0
   -2.3150   14.0680   -4.4360 C   0  0  0  0  0  0  0  0  0  0  0  0
   -2.2880   12.5470   -4.1950 C   0  0  0  0  0  0  0  0  0  0  0  0
   -1.4720   11.7560   -5.1620 C   0  0  0  0  0  0  0  0  0  0  0  0
   -1.8590   10.6180   -5.7080 N   0  0  0  0  0  0  0  0  0  0  0  0
   -0.2210   12.0680   -5.6270 N   0  0  0  0  0  0  0  0  0  0  0  0
    0.6410   13.2000   -5.3370 C   0  0  0  0  0  0  0  0  0  0  0  0
   -0.8070   10.2670   -6.5060 C   0  0  0  0  0  0  0  0  0  0  0  0
    0.2140   11.1260   -6.4890 N   0  0  0  0  0  0  0  0  0  0  0  0
   -0.8050    9.0360   -7.3150 C   0  0  0  0  0  0  0  0  0  0  0  0
    1.6890   12.9290   -4.2660 C   0  0  0  0  0  0  0  0  0  0  0  0
    1.0680   12.2870   -3.0590 C   0  0  0  0  0  0  0  0  0  0  0  0
    0.5920   11.1660   -2.9850 O   0  0  0  0  0  0  0  0  0  0  0  0
    1.0830   13.0920   -1.9850 O   0  0  0  0  0  0  0  0  0  0  0  0
  1  2  1  0
  2  3  1  0
  1  4  1  0
  4  5  2  0
  4  6  1  0
  5  7  1  0
  6  8  2  0
  7  9  2  0
  8  9  1  0
  9 10  1  0
 10 11  3  0
 11 12  1  0
 12 13  1  0
 13 14  1  0
 14 15  2  0
 14 16  1  0
 16 17  1  0
 15 18  1  0
 16 19  1  0
 18 19  2  0
 18 20  1  0
 17 21  1  0
 21 22  1  0
 22 23  2  0
 22 24  1  0
M  END
