x0681_0_A_α-x0962_2_B_α
     RDKit          3D

 20 22  0  0  0  0  0  0  0  0999 V2000
   -3.8580   15.4430   -2.9500 N   0  0  0  0  0  0  0  0  0  0  0  0
   -3.3330   14.9660   -1.7910 C   0  0  0  0  0  0  0  0  0  0  0  0
   -2.1630   14.6080   -1.7430 O   0  0  0  0  0  0  0  0  0  0  0  0
   -4.3470   14.9370   -0.6580 C   0  0  1  0  0  0  0  0  0  0  0  0
   -5.0080   13.6020   -0.6380 C   0  0  0  0  0  0  0  0  0  0  0  0
   -3.9000   15.3730    0.7510 C   0  0  0  0  0  0  0  0  0  0  0  0
   -5.9190   13.3590    0.3130 N   0  0  0  0  0  0  0  0  0  0  0  0
   -4.8540   14.8360    1.8470 C   0  0  0  0  0  0  0  0  0  0  0  0
   -4.8560   12.5640   -1.4330 N   0  0  0  0  0  0  0  0  0  0  0  0
   -6.2330   14.3610    1.2860 C   0  0  2  0  0  0  0  0  0  0  0  0
   -6.4050   12.1030    0.1550 C   0  0  0  0  0  0  0  0  0  0  0  0
   -5.7320   11.6230   -0.9420 C   0  0  0  0  0  0  0  0  0  0  0  0
   -7.3370   13.8200    2.2490 C   0  0  0  0  0  0  0  0  0  0  0  0
   -8.0110   14.8210    3.1350 C   0  0  0  0  0  0  0  0  0  0  0  0
   -9.0250   15.7380    2.9050 C   0  0  0  0  0  0  0  0  0  0  0  0
   -7.6130   14.9190    4.4460 N   0  0  0  0  0  0  0  0  0  0  0  0
   -9.7840   16.0370    1.7430 C   0  0  0  0  0  0  0  0  0  0  0  0
   -9.2070   16.3860    4.0960 N   0  0  0  0  0  0  0  0  0  0  0  0
   -8.3290   15.8550    4.9910 C   0  0  0  0  0  0  0  0  0  0  0  0
  -10.4400   16.3120    0.8300 N   0  0  0  0  0  0  0  0  0  0  0  0
  1  2  1  0
  2  3  2  0
  4  2  1  6
  4  5  1  0
  4  6  1  0
  5  7  1  0
  6  8  1  0
  5  9  2  0
  7 10  1  0
  8 10  1  0
  7 11  1  0
  9 12  1  0
 11 12  2  0
 10 13  1  1
 13 14  1  0
 14 15  2  0
 14 16  1  0
 15 17  1  0
 15 18  1  0
 16 19  2  0
 18 19  1  0
 17 20  3  0
M  END
