x0685_1_A-x0438_0_A
     RDKit          3D

 29 31  0  0  0  0  0  0  0  0999 V2000
   -1.3700   10.6050   -4.8580 N   0  0  0  0  0  0  0  0  0  0  0  0
   -1.4680   12.0220   -4.4750 C   0  0  0  0  0  0  0  0  0  0  0  0
   -0.0890   12.6370   -4.2730 C   0  0  0  0  0  0  0  0  0  0  0  0
   -0.7360   10.3660   -6.1680 C   0  0  0  0  0  0  0  0  0  0  0  0
   -0.5150    8.8590   -6.4150 C   0  0  0  0  0  0  0  0  0  0  0  0
   -1.5940   11.0060   -7.2850 C   0  0  0  0  0  0  0  0  0  0  0  0
    0.6470   12.2450   -2.6810 S   0  0  0  0  0  0  0  0  0  0  0  0
    0.1110    8.6130   -7.7820 C   0  0  0  0  0  0  0  0  0  0  0  0
   -1.0320   10.7230   -8.6800 C   0  0  0  0  0  0  0  0  0  0  0  0
    2.2290   12.2890   -2.9240 O   0  0  0  0  0  0  0  0  0  0  0  0
    0.1740   10.7520   -2.2770 O   0  0  0  0  0  0  0  0  0  0  0  0
    0.1820   13.3790   -1.6190 O   0  0  0  0  0  0  0  0  0  0  0  0
   -0.7480    9.2320   -8.8880 C   0  0  0  0  0  0  0  0  0  0  0  0
   -0.9990   13.2800   -0.8080 C   0  0  0  0  0  0  0  0  0  0  0  0
   -1.5300   14.6760   -0.4770 C   0  0  0  0  0  0  0  0  0  0  0  0
   -3.0520   14.7800   -0.4950 C   0  0  0  0  0  0  0  0  0  0  0  0
   -3.7130   15.3080   -1.6180 C   0  0  0  0  0  0  0  0  0  0  0  0
   -3.8260   14.3420    0.6070 C   0  0  0  0  0  0  0  0  0  0  0  0
   -5.2340   14.4260    0.5380 C   0  0  0  0  0  0  0  0  0  0  0  0
   -5.1100   15.4020   -1.6900 C   0  0  0  0  0  0  0  0  0  0  0  0
   -6.1930   14.0530    1.4500 N   0  0  0  0  0  0  0  0  0  0  0  0
   -5.8350   14.9450   -0.5960 C   0  0  0  0  0  0  0  0  0  0  0  0
   -7.1860   14.8700   -0.3450 N   0  0  0  0  0  0  0  0  0  0  0  0
   -7.3610   14.3130    0.9060 C   0  0  0  0  0  0  0  0  0  0  0  0
   -8.6940   14.0360    1.5170 C   0  0  0  0  0  0  0  0  0  0  0  0
   -9.3250   15.3380    2.5630 S   0  0  0  0  0  0  0  0  0  0  0  0
   -8.1130   15.5500    3.8560 C   0  0  0  0  0  0  0  0  0  0  0  0
  -10.5520   14.8420    3.1690 O   0  0  0  0  0  0  0  0  0  0  0  0
   -9.3930   16.5380    1.7630 O   0  0  0  0  0  0  0  0  0  0  0  0
  1  2  1  0
  2  3  1  0
  1  4  1  0
  4  5  1  0
  4  6  1  0
  3  7  1  0
  5  8  1  0
  6  9  1  0
  7 10  1  0
  7 11  1  0
  7 12  1  0
  8 13  1  0
  9 13  1  0
 12 14  1  0
 14 15  1  0
 15 16  1  0
 16 17  2  0
 16 18  1  0
 18 19  2  0
 17 20  1  0
 19 21  1  0
 19 22  1  0
 20 22  2  0
 22 23  1  0
 21 24  2  0
 23 24  1  0
 24 25  1  0
 26 25  1  0
 26 27  1  0
 26 28  2  0
 26 29  2  0
M  END
