x0689_0_A-x0805_0_A
     RDKit          3D

 23 25  0  0  0  0  0  0  0  0999 V2000
   -3.6650   14.9170    0.1820 N   0  0  0  0  0  0  0  0  0  0  0  0
   -4.6210   14.2940    1.0670 C   0  0  0  0  0  0  0  0  0  0  0  0
   -2.3350   14.7950    0.4930 C   0  0  0  0  0  0  0  0  0  0  0  0
   -3.6390   14.5750   -1.2010 C   0  0  0  0  0  0  0  0  0  0  0  0
   -1.7650   14.8580   -0.6880 N   0  0  0  0  0  0  0  0  0  0  0  0
   -1.6390   14.6370    1.6420 N   0  0  0  0  0  0  0  0  0  0  0  0
   -4.6560   14.1740   -2.0570 C   0  0  0  0  0  0  0  0  0  0  0  0
   -2.3480   14.6490   -1.7770 C   0  0  0  0  0  0  0  0  0  0  0  0
   -0.4870   14.7820   -0.8350 C   0  0  0  0  0  0  0  0  0  0  0  0
   -0.2940   14.5560    1.4320 C   0  0  0  0  0  0  0  0  0  0  0  0
   -4.3580   13.8740   -3.4040 C   0  0  0  0  0  0  0  0  0  0  0  0
   -1.9850   14.3620   -3.0940 C   0  0  0  0  0  0  0  0  0  0  0  0
    0.3100   14.6330    0.1880 C   0  0  0  0  0  0  0  0  0  0  0  0
   -3.0420   13.9670   -3.9240 C   0  0  0  0  0  0  0  0  0  0  0  0
   -0.4820   14.5210   -3.4670 C   0  0  1  0  0  0  0  0  0  0  0  0
    0.6010   13.4120   -3.3600 C   0  0  1  0  0  0  0  0  0  0  0  0
   -0.0980   15.3460   -4.6890 C   0  0  0  0  0  0  0  0  0  0  0  0
    0.4960   12.1990   -2.4970 C   0  0  0  0  0  0  0  0  0  0  0  0
    1.2680   13.1370   -4.6860 C   0  0  0  0  0  0  0  0  0  0  0  0
    1.4190   15.5120   -4.7640 C   0  0  0  0  0  0  0  0  0  0  0  0
    0.2550   11.0110   -3.0720 O   0  0  0  0  0  0  0  0  0  0  0  0
    0.6450   12.3010   -1.2940 O   0  0  0  0  0  0  0  0  0  0  0  0
    2.0940   14.2520   -4.9410 O   0  0  0  0  0  0  0  0  0  0  0  0
  1  2  1  0
  1  3  1  0
  1  4  1  0
  3  5  2  0
  3  6  1  0
  4  7  2  0
  4  8  1  0
  5  9  1  0
  6 10  2  0
  7 11  1  0
  8 12  2  0
  9 13  2  0
 10 13  1  0
 11 14  2  0
 12 14  1  0
 15 12  1  6
 15 16  1  0
 15 17  1  0
 16 18  1  6
 16 19  1  0
 17 20  1  0
 18 21  1  0
 18 22  2  0
 19 23  1  0
 20 23  1  0
M  END
