x0685_0_A-x0681_0_A
     RDKit          3D

 16 17  0  0  0  0  0  0  0  0999 V2000
   -5.8950   14.1830    2.5060 N   0  0  0  0  0  0  0  0  0  0  0  0
   -7.2520   14.6010    2.8370 C   0  0  0  0  0  0  0  0  0  0  0  0
   -8.1260   13.4110    3.1900 C   0  0  0  0  0  0  0  0  0  0  0  0
   -5.3270   14.7180    1.2880 C   0  0  1  0  0  0  0  0  0  0  0  0
   -3.8310   14.9640    1.2430 C   0  0  0  0  0  0  0  0  0  0  0  0
   -5.7230   13.9670    0.0230 C   0  0  1  0  0  0  0  0  0  0  0  0
   -3.1530   14.8720    0.0690 C   0  0  0  0  0  0  0  0  0  0  0  0
   -5.3590   14.8680   -1.1150 C   0  0  0  0  0  0  0  0  0  0  0  0
   -4.8610   12.7550   -0.2780 C   0  0  0  0  0  0  0  0  0  0  0  0
   -7.0300   13.2490   -0.1440 C   0  0  0  0  0  0  0  0  0  0  0  0
   -3.8840   14.4890   -1.2160 C   0  0  1  0  0  0  0  0  0  0  0  0
   -5.4690   11.6880   -0.6470 N   0  0  0  0  0  0  0  0  0  0  0  0
   -6.7940   11.9960   -0.5400 C   0  0  0  0  0  0  0  0  0  0  0  0
   -3.2510   14.7040   -2.6030 C   0  0  0  0  0  0  0  0  0  0  0  0
   -1.8610   14.9930   -2.7160 N   0  0  0  0  0  0  0  0  0  0  0  0
   -3.8680   15.7470   -3.3060 N   0  0  0  0  0  0  0  0  0  0  0  0
  1  2  1  0
  2  3  1  0
  4  1  1  1
  4  5  1  0
  4  6  1  0
  5  7  2  0
  6  8  1  6
  6  9  1  0
  6 10  1  0
  7 11  1  0
  8 11  1  0
  9 12  2  0
 10 13  2  0
 12 13  1  0
 11 14  1  6
 14 15  1  0
 14 16  1  0
M  END
