x0681_0_A-x0471_0_A
     RDKit          3D

 23 25  0  0  0  0  0  0  0  0999 V2000
   -3.5120   15.3920   -3.0320 N   0  0  0  0  0  0  0  0  0  0  0  0
   -2.9540   14.8160   -1.9310 C   0  0  0  0  0  0  0  0  0  0  0  0
   -1.7940   14.4470   -1.9340 O   0  0  0  0  0  0  0  0  0  0  0  0
   -3.9440   14.7090   -0.7960 C   0  0  1  0  0  0  0  0  0  0  0  0
   -4.5890   13.3540   -0.7560 C   0  0  0  0  0  0  0  0  0  0  0  0
   -3.6090   15.2620    0.6140 C   0  0  0  0  0  0  0  0  0  0  0  0
   -5.6310   13.2550    0.0490 N   0  0  0  0  0  0  0  0  0  0  0  0
   -4.7790   14.9570    1.5690 C   0  0  0  0  0  0  0  0  0  0  0  0
   -4.3590   12.2180   -1.3680 N   0  0  0  0  0  0  0  0  0  0  0  0
   -5.9500   14.4320    0.7120 C   0  0  2  0  0  0  0  0  0  0  0  0
   -6.1550   12.0150    0.0190 C   0  0  0  0  0  0  0  0  0  0  0  0
   -5.3460   11.3720   -0.8860 C   0  0  0  0  0  0  0  0  0  0  0  0
   -7.4800   14.5140    0.8730 C   0  0  0  0  0  0  0  0  0  0  0  0
   -5.9160   15.3680   -0.4620 C   0  0  0  0  0  0  0  0  0  0  0  0
   -8.2900   13.7950    1.9200 C   0  0  0  0  0  0  0  0  0  0  0  0
   -8.1030   15.2080   -0.0460 N   0  0  0  0  0  0  0  0  0  0  0  0
   -7.1240   15.7190   -0.8380 C   0  0  0  0  0  0  0  0  0  0  0  0
   -7.9640   14.3000    3.2210 N   0  0  0  0  0  0  0  0  0  0  0  0
   -8.7810   15.1900    3.8780 C   0  0  0  0  0  0  0  0  0  0  0  0
   -9.1940   16.2170    3.3490 O   0  0  0  0  0  0  0  0  0  0  0  0
   -9.1680   14.8310    5.3050 C   0  0  0  0  0  0  0  0  0  0  0  0
   -9.6690   13.3980    5.4480 C   0  0  0  0  0  0  0  0  0  0  0  0
   -8.0210   15.1500    6.2520 C   0  0  0  0  0  0  0  0  0  0  0  0
  1  2  1  0
  2  3  2  0
  4  2  1  6
  4  5  1  0
  4  6  1  0
  5  7  1  0
  6  8  1  0
  5  9  2  0
  7 10  1  0
 10  8  1  1
  7 11  1  0
  9 12  1  0
 11 12  2  0
 10 13  1  0
 10 14  1  0
 13 15  1  0
 13 16  2  0
 14 17  2  0
 16 17  1  0
 15 18  1  0
 18 19  1  0
 19 20  2  0
 19 21  1  0
 21 22  1  0
 21 23  1  0
M  END
