x0681_0_A_α-x0727_0_A_α
     RDKit          3D

 27 29  0  0  0  0  0  0  0  0999 V2000
   -4.5270   15.3840   -3.0410 N   0  0  0  0  0  0  0  0  0  0  0  0
   -3.5420   14.9620   -2.2020 C   0  0  0  0  0  0  0  0  0  0  0  0
   -2.3410   14.7550   -2.6720 N   0  0  0  0  0  0  0  0  0  0  0  0
   -4.0670   14.7880   -0.7520 C   0  0  1  0  0  0  0  0  0  0  0  0
   -1.1400   14.3030   -1.9820 C   0  0  0  0  0  0  0  0  0  0  0  0
   -4.8600   13.5320   -0.6150 C   0  0  0  0  0  0  0  0  0  0  0  0
   -3.2170   15.0880    0.4930 C   0  0  0  0  0  0  0  0  0  0  0  0
    0.1130   14.4410   -2.8940 C   0  0  0  0  0  0  0  0  0  0  0  0
   -5.5210   13.3520    0.5290 N   0  0  0  0  0  0  0  0  0  0  0  0
   -3.9630   14.7250    1.7870 C   0  0  0  0  0  0  0  0  0  0  0  0
   -5.0550   12.5230   -1.4390 N   0  0  0  0  0  0  0  0  0  0  0  0
    0.0150   13.8390   -4.3340 C   0  0  0  0  0  0  0  0  0  0  0  0
   -5.4310   14.3380    1.5570 C   0  0  0  0  0  0  0  0  0  0  0  0
   -6.2010   12.1790    0.4890 C   0  0  0  0  0  0  0  0  0  0  0  0
   -5.8950   11.6730   -0.7550 C   0  0  0  0  0  0  0  0  0  0  0  0
    0.7360   12.4840   -4.5340 C   0  0  2  0  0  0  0  0  0  0  0  0
    0.0700   11.5950   -5.5140 N   0  0  0  0  0  0  0  0  0  0  0  0
    0.7140   11.7780   -3.1860 C   0  0  0  0  0  0  0  0  0  0  0  0
    0.1070   10.7480   -2.9180 O   0  0  0  0  0  0  0  0  0  0  0  0
    0.6920   11.2250   -6.6870 C   0  0  0  0  0  0  0  0  0  0  0  0
    1.4520   12.4070   -2.2550 O   0  0  0  0  0  0  0  0  0  0  0  0
    1.6770   11.8000   -7.0860 O   0  0  0  0  0  0  0  0  0  0  0  0
    0.0830   10.0280   -7.4280 C   0  0  0  0  0  0  0  0  0  0  0  0
   -1.2020   10.4210   -8.1600 C   0  0  0  0  0  0  0  0  0  0  0  0
   -0.2910    8.8340   -6.5280 C   0  0  0  0  0  0  0  0  0  0  0  0
   -2.1040    9.2010   -8.0570 C   0  0  0  0  0  0  0  0  0  0  0  0
   -1.7880    8.6130   -6.6950 C   0  0  0  0  0  0  0  0  0  0  0  0
  1  2  1  0
  2  3  2  3
  4  2  1  6
  3  5  1  0
  4  6  1  0
  4  7  1  0
  5  8  1  0
  6  9  1  0
  7 10  1  0
  6 11  2  0
  8 12  1  0
  9 13  1  0
 10 13  1  0
  9 14  1  0
 11 15  1  0
 14 15  2  0
 16 12  1  1
 16 17  1  0
 16 18  1  0
 18 19  2  0
 17 20  1  0
 18 21  1  0
 20 22  2  0
 20 23  1  0
 23 24  1  0
 23 25  1  0
 24 26  1  0
 25 27  1  0
 26 27  1  0
M  END
