x0685_1_A_α-x0910_0_A_α
     RDKit          3D

 21 22  0  0  0  0  0  0  0  0999 V2000
   -1.5180   10.5210   -4.9720 N   0  0  0  0  0  0  0  0  0  0  0  0
   -1.4020   11.9320   -4.5580 C   0  0  0  0  0  0  0  0  0  0  0  0
    0.0590   12.3560   -4.5170 C   0  0  0  0  0  0  0  0  0  0  0  0
   -0.8030   10.2700   -6.2400 C   0  0  0  0  0  0  0  0  0  0  0  0
   -0.6000    8.7790   -6.5160 C   0  0  0  0  0  0  0  0  0  0  0  0
   -1.5880   10.9130   -7.4030 C   0  0  0  0  0  0  0  0  0  0  0  0
    0.7730   12.1710   -2.8900 S   0  0  0  0  0  0  0  0  0  0  0  0
    0.0720    8.5340   -7.8690 C   0  0  0  0  0  0  0  0  0  0  0  0
   -1.0130   10.6330   -8.7980 C   0  0  0  0  0  0  0  0  0  0  0  0
    2.3580   12.3000   -3.0820 O   0  0  0  0  0  0  0  0  0  0  0  0
    0.3520   10.7150   -2.3200 O   0  0  0  0  0  0  0  0  0  0  0  0
    0.1890   13.4090   -2.0500 O   0  0  0  0  0  0  0  0  0  0  0  0
   -0.6990    9.1600   -9.0310 C   0  0  0  0  0  0  0  0  0  0  0  0
   -0.1370   14.6030   -2.7780 C   0  0  0  0  0  0  0  0  0  0  0  0
   -1.6570   14.6480   -3.0240 C   0  0  0  0  0  0  0  0  0  0  0  0
   -2.4160   14.6140   -1.7640 N   0  0  0  0  0  0  0  0  0  0  0  0
   -1.7300   14.7140   -0.6060 C   0  0  0  0  0  0  0  0  0  0  0  0
   -2.3130   14.6980    0.6270 N   0  0  0  0  0  0  0  0  0  0  0  0
   -0.4360   14.8450   -0.4680 N   0  0  0  0  0  0  0  0  0  0  0  0
   -1.3910   14.8210    1.5880 N   0  0  0  0  0  0  0  0  0  0  0  0
   -0.2720   14.9100    0.8770 C   0  0  0  0  0  0  0  0  0  0  0  0
  1  2  1  0
  2  3  1  0
  1  4  1  0
  4  5  1  0
  4  6  1  0
  3  7  1  0
  5  8  1  0
  6  9  1  0
  7 10  1  0
  7 11  1  0
  7 12  1  0
  8 13  1  0
  9 13  1  0
 12 14  1  0
 14 15  1  0
 15 16  1  0
 16 17  1  0
 17 18  1  0
 17 19  2  0
 18 20  1  0
 19 21  1  0
 20 21  2  0
M  END
