x0685_1_A-x0676_0_B
     RDKit          3D

 28 30  0  0  0  0  0  0  0  0999 V2000
   -1.4710   10.6710   -4.8230 N   0  0  0  0  0  0  0  0  0  0  0  0
   -1.5070   12.0970   -4.4190 C   0  0  0  0  0  0  0  0  0  0  0  0
   -0.1370   12.7000   -4.1190 C   0  0  0  0  0  0  0  0  0  0  0  0
   -0.7480   10.4200   -6.0950 C   0  0  1  0  0  0  0  0  0  0  0  0
   -0.6380    8.9030   -6.3400 C   0  0  0  0  0  0  0  0  0  0  0  0
   -1.4590   11.1490   -7.2470 C   0  0  0  0  0  0  0  0  0  0  0  0
    0.6400   12.0080   -2.6580 S   0  0  0  0  0  0  0  0  0  0  0  0
    0.0900    8.5650   -7.6260 C   0  0  0  0  0  0  0  0  0  0  0  0
   -1.6020   10.3020   -8.5100 C   0  0  0  0  0  0  0  0  0  0  0  0
    2.1980   12.3100   -2.8680 O   0  0  0  0  0  0  0  0  0  0  0  0
    0.3240   10.4360   -2.5730 O   0  0  0  0  0  0  0  0  0  0  0  0
    0.0760   12.7440   -1.3510 O   0  0  0  0  0  0  0  0  0  0  0  0
   -0.3800    9.4110   -8.8180 C   0  0  2  0  0  0  0  0  0  0  0  0
   -0.6280    8.4860  -10.0180 C   0  0  0  0  0  0  0  0  0  0  0  0
    0.5010    7.4620  -10.1610 C   0  0  0  0  0  0  0  0  0  0  0  0
    1.4380    7.9280  -11.1660 N   0  0  0  0  0  0  0  0  0  0  0  0
    2.7030    7.8090  -11.0460 C   0  0  0  0  0  0  0  0  0  0  0  0
    3.2680    7.1670   -9.7990 C   0  0  0  0  0  0  0  0  0  0  0  0
    3.7990    8.1340  -11.8200 N   0  0  0  0  0  0  0  0  0  0  0  0
    5.0240    7.7330  -11.2720 N   0  0  0  0  0  0  0  0  0  0  0  0
    4.7390    7.1990  -10.1210 C   0  0  0  0  0  0  0  0  0  0  0  0
    3.8620    9.2000  -12.7570 C   0  0  0  0  0  0  0  0  0  0  0  0
    5.7630    6.6620   -9.1820 C   0  0  0  0  0  0  0  0  0  0  0  0
    2.9370   10.2660  -12.7670 C   0  0  0  0  0  0  0  0  0  0  0  0
    4.8730    9.2120  -13.7190 C   0  0  0  0  0  0  0  0  0  0  0  0
    3.0320   11.3000  -13.7040 C   0  0  0  0  0  0  0  0  0  0  0  0
    4.9690   10.2400  -14.6570 C   0  0  0  0  0  0  0  0  0  0  0  0
    4.0490   11.2870  -14.6510 C   0  0  0  0  0  0  0  0  0  0  0  0
  1  2  1  0
  2  3  1  0
  4  1  1  1
  4  5  1  0
  4  6  1  0
  3  7  1  0
  5  8  1  0
  6  9  1  0
  7 10  1  0
  7 11  1  0
  7 12  1  0
  8 13  1  0
  9 13  1  0
 13 14  1  6
 14 15  1  0
 15 16  1  0
 16 17  2  3
 17 18  1  0
 17 19  1  0
 19 20  1  0
 18 21  1  0
 20 21  2  0
 19 22  1  0
 21 23  1  0
 22 24  2  0
 22 25  1  0
 24 26  1  0
 25 27  2  0
 26 28  2  0
 27 28  1  0
M  END
