x0681_0_A_α-x1012_0_A_α
     RDKit          3D

 24 26  0  0  0  0  0  0  0  0999 V2000
   -3.7980   15.6990   -2.9120 N   0  0  0  0  0  0  0  0  0  0  0  0
   -3.2730   14.9080   -1.9380 C   0  0  0  0  0  0  0  0  0  0  0  0
   -2.1260   14.3040   -1.9570 N   0  0  0  0  0  0  0  0  0  0  0  0
   -4.2030   14.8380   -0.7150 C   0  0  1  0  0  0  0  0  0  0  0  0
   -4.9380   13.5470   -0.6050 C   0  0  0  0  0  0  0  0  0  0  0  0
   -3.5830   15.3390    0.5990 C   0  0  0  0  0  0  0  0  0  0  0  0
   -1.2060   14.5350   -3.0940 C   0  0  2  0  0  0  0  0  0  0  0  0
   -5.6560   13.3250    0.5080 N   0  0  0  0  0  0  0  0  0  0  0  0
   -4.3130   14.8600    1.8480 C   0  0  0  0  0  0  0  0  0  0  0  0
   -5.0290   12.5400   -1.4450 N   0  0  0  0  0  0  0  0  0  0  0  0
   -1.8040   14.9620   -4.4210 C   0  0  0  0  0  0  0  0  0  0  0  0
   -0.1610   13.4840   -3.4330 C   0  0  2  0  0  0  0  0  0  0  0  0
    0.2170   12.5300   -2.3120 C   0  0  0  0  0  0  0  0  0  0  0  0
   -5.7030   14.2830    1.5660 C   0  0  0  0  0  0  0  0  0  0  0  0
   -6.2600   12.1170    0.4140 C   0  0  0  0  0  0  0  0  0  0  0  0
   -5.8590   11.6400   -0.8130 C   0  0  0  0  0  0  0  0  0  0  0  0
    1.0090   14.3270   -3.9580 C   0  0  0  0  0  0  0  0  0  0  0  0
   -0.8280   15.8980   -4.9670 N   0  0  0  0  0  0  0  0  0  0  0  0
   -1.1860   17.2200   -4.8460 C   0  0  0  0  0  0  0  0  0  0  0  0
    0.3270   11.2520   -2.7430 O   0  0  0  0  0  0  0  0  0  0  0  0
    0.4140   12.8290   -1.1480 O   0  0  0  0  0  0  0  0  0  0  0  0
    0.5870   15.4030   -5.0090 C   0  0  0  0  0  0  0  0  0  0  0  0
   -0.1910   18.1290   -4.7460 N   0  0  0  0  0  0  0  0  0  0  0  0
   -2.3390   17.6300   -4.8080 O   0  0  0  0  0  0  0  0  0  0  0  0
  1  2  1  0
  2  3  2  3
  4  2  1  6
  4  5  1  0
  4  6  1  0
  7  3  1  1
  5  8  1  0
  6  9  1  0
  5 10  2  0
  7 11  1  0
  7 12  1  0
 12 13  1  1
  8 14  1  0
  9 14  1  0
  8 15  1  0
 10 16  1  0
 15 16  2  0
 12 17  1  0
 11 18  1  0
 18 19  1  0
 13 20  1  0
 13 21  2  0
 17 22  1  0
 18 22  1  0
 19 23  1  0
 19 24  2  0
M  END
