x0685_1_A_α-x0465_0_A_α
     RDKit          3D

 16 17  0  0  0  0  0  0  0  0999 V2000
   -1.8000   10.9730   -4.8520 N   0  0  0  0  0  0  0  0  0  0  0  0
   -1.4110   12.3700   -4.5650 C   0  0  0  0  0  0  0  0  0  0  0  0
    0.1120   12.2860   -4.5280 C   0  0  2  0  0  0  0  0  0  0  0  0
   -0.8650   10.6500   -5.9370 C   0  0  1  0  0  0  0  0  0  0  0  0
    0.3940   11.2070   -5.4840 O   0  0  0  0  0  0  0  0  0  0  0  0
   -0.7430    9.1140   -6.1430 C   0  0  0  0  0  0  0  0  0  0  0  0
   -1.3620   11.3810   -7.2150 C   0  0  0  0  0  0  0  0  0  0  0  0
    0.7200   11.8990   -2.8280 S   0  0  0  0  0  0  0  0  0  0  0  0
    0.8790   13.5010   -5.0770 C   0  0  0  0  0  0  0  0  0  0  0  0
   -0.2540    8.6650   -7.5250 C   0  0  2  0  0  0  0  0  0  0  0  0
   -0.9150   10.8060   -8.5690 C   0  0  0  0  0  0  0  0  0  0  0  0
    2.2760   12.2640   -2.8470 O   0  0  0  0  0  0  0  0  0  0  0  0
    0.4680   10.3240   -2.6010 O   0  0  0  0  0  0  0  0  0  0  0  0
   -0.0030   12.6860   -1.6280 O   0  0  0  0  0  0  0  0  0  0  0  0
    1.0310    9.0770   -7.6670 F   0  0  0  0  0  0  0  0  0  0  0  0
   -1.0220    9.2890   -8.6610 C   0  0  0  0  0  0  0  0  0  0  0  0
  1  2  1  0
  2  3  1  0
  1  4  1  0
  3  5  1  0
  4  5  1  0
  4  6  1  6
  4  7  1  0
  3  8  1  0
  3  9  1  6
  6 10  1  0
  7 11  1  0
  8 12  1  0
  8 13  1  0
  8 14  1  0
 10 15  1  6
 10 16  1  0
 11 16  1  0
M  END
