x0685_0_A_α-x0282_0_A_α
     RDKit          3D

 18 19  0  0  0  0  0  0  0  0999 V2000
   -5.8870   15.1790    2.6570 N   0  0  0  0  0  0  0  0  0  0  0  0
   -7.2690   14.7790    2.9420 C   0  0  0  0  0  0  0  0  0  0  0  0
   -7.5120   13.2800    3.0570 C   0  0  0  0  0  0  0  0  0  0  0  0
   -5.1720   14.6720    1.4940 C   0  0  2  0  0  0  0  0  0  0  0  0
   -3.8600   15.4820    1.3040 C   0  0  0  0  0  0  0  0  0  0  0  0
   -6.0650   14.8550    0.3640 N   0  0  0  0  0  0  0  0  0  0  0  0
   -7.1150   13.8370    0.2570 C   0  0  0  0  0  0  0  0  0  0  0  0
   -2.9630   14.9290    0.1750 C   0  0  1  0  0  0  0  0  0  0  0  0
   -5.3360   15.0030   -0.9050 C   0  0  0  0  0  0  0  0  0  0  0  0
   -8.4130   14.4100    0.3240 O   0  0  0  0  0  0  0  0  0  0  0  0
   -3.9130   14.3970   -0.9580 C   0  0  1  0  0  0  0  0  0  0  0  0
   -2.1050   15.9420   -0.4940 N   0  0  0  0  0  0  0  0  0  0  0  0
   -2.1060   13.8920    0.8230 N   0  0  0  0  0  0  0  0  0  0  0  0
   -3.3970   14.7480   -2.3000 C   0  0  0  0  0  0  0  0  0  0  0  0
   -0.7700   15.4640   -0.8560 C   0  0  0  0  0  0  0  0  0  0  0  0
   -0.7710   14.1290    1.1210 C   0  0  0  0  0  0  0  0  0  0  0  0
   -3.0140   15.0510   -3.3540 N   0  0  0  0  0  0  0  0  0  0  0  0
   -0.0660   14.9020    0.3130 C   0  0  0  0  0  0  0  0  0  0  0  0
  1  2  1  0
  2  3  1  0
  4  1  1  1
  4  5  1  0
  4  6  1  0
  6  7  1  0
  8  5  1  1
  6  9  1  0
  7 10  1  0
  8 11  1  0
  9 11  1  0
  8 12  1  0
  8 13  1  0
 11 14  1  6
 12 15  1  0
 13 16  1  0
 14 17  3  0
 15 18  1  0
 16 18  2  0
M  END
