x0685_0_A-x0864_0_A
     RDKit          3D

 26 27  0  0  0  0  0  0  0  0999 V2000
   -5.9840   15.0510    2.6390 N   0  0  0  0  0  0  0  0  0  0  0  0
   -7.3420   14.5340    2.8230 C   0  0  0  0  0  0  0  0  0  0  0  0
   -7.3620   13.0170    2.7900 C   0  0  0  0  0  0  0  0  0  0  0  0
   -5.3440   15.0380    1.4080 C   0  0  0  0  0  0  0  0  0  0  0  0
   -3.9580   15.0860    1.3120 C   0  0  0  0  0  0  0  0  0  0  0  0
   -6.1430   14.9930    0.3260 N   0  0  0  0  0  0  0  0  0  0  0  0
   -3.3690   15.1090    0.0590 C   0  0  0  0  0  0  0  0  0  0  0  0
   -5.5470   15.0210   -0.8870 C   0  0  0  0  0  0  0  0  0  0  0  0
   -4.1750   15.0840   -1.0690 C   0  0  0  0  0  0  0  0  0  0  0  0
   -3.6010   15.1280   -2.3700 C   0  0  0  0  0  0  0  0  0  0  0  0
   -3.1000   15.2190   -3.4560 C   0  0  0  0  0  0  0  0  0  0  0  0
   -2.4550   15.3570   -4.7680 C   0  0  0  0  0  0  0  0  0  0  0  0
   -1.6290   14.1210   -5.1130 C   0  0  0  0  0  0  0  0  0  0  0  0
   -0.1310   14.1830   -4.7590 C   0  0  0  0  0  0  0  0  0  0  0  0
    0.5510   12.8090   -4.5920 C   0  0  1  0  0  0  0  0  0  0  0  0
    0.6940   12.3450   -3.1300 C   0  0  0  0  0  0  0  0  0  0  0  0
   -0.1150   11.7440   -5.3680 N   0  0  0  0  0  0  0  0  0  0  0  0
    0.2910   11.0790   -2.9040 O   0  0  0  0  0  0  0  0  0  0  0  0
    1.1270   13.0010   -2.1970 O   0  0  0  0  0  0  0  0  0  0  0  0
   -1.2800   11.1600   -4.9020 C   0  0  0  0  0  0  0  0  0  0  0  0
    0.5210   11.3020   -6.5180 C   0  0  0  0  0  0  0  0  0  0  0  0
    1.5700   11.7610   -6.9360 O   0  0  0  0  0  0  0  0  0  0  0  0
   -1.8540   10.1460   -5.5610 C   0  0  0  0  0  0  0  0  0  0  0  0
   -0.1270   10.1870   -7.2470 C   0  0  0  0  0  0  0  0  0  0  0  0
   -1.2560    9.6480   -6.7740 C   0  0  0  0  0  0  0  0  0  0  0  0
   -2.1080    8.2360   -7.6470 Br  0  0  0  0  0  0  0  0  0  0  0  0
  1  2  1  0
  2  3  1  0
  1  4  1  0
  4  5  2  0
  4  6  1  0
  5  7  1  0
  6  8  2  0
  7  9  2  0
  8  9  1  0
  9 10  1  0
 10 11  3  0
 11 12  1  0
 12 13  1  0
 13 14  1  0
 15 14  1  1
 15 16  1  0
 15 17  1  0
 16 18  1  0
 16 19  2  0
 17 20  1  0
 17 21  1  0
 21 22  2  0
 20 23  2  0
 21 24  1  0
 23 25  1  0
 24 25  2  0
 25 26  1  0
M  END
