x0685_1_A-x0895_0_A
     RDKit          3D

 22 23  0  0  0  0  0  0  0  0999 V2000
   -0.6900   10.7040   -4.9540 N   0  0  0  0  0  0  0  0  0  0  0  0
   -1.3930   11.9000   -4.4730 C   0  0  0  0  0  0  0  0  0  0  0  0
   -0.4060   12.8560   -3.7970 C   0  0  0  0  0  0  0  0  0  0  0  0
   -1.1920   10.0910   -6.2000 C   0  0  0  0  0  0  0  0  0  0  0  0
   -0.1940    9.0940   -6.7920 C   0  0  0  0  0  0  0  0  0  0  0  0
   -1.5070   11.1620   -7.2680 C   0  0  0  0  0  0  0  0  0  0  0  0
    0.4990   12.1180   -2.4290 S   0  0  0  0  0  0  0  0  0  0  0  0
   -0.6740    8.3790   -8.0400 C   0  0  0  0  0  0  0  0  0  0  0  0
   -1.0600   10.8030   -8.6960 C   0  0  0  0  0  0  0  0  0  0  0  0
    2.0410   12.4800   -2.6910 O   0  0  0  0  0  0  0  0  0  0  0  0
    0.3150   10.5180   -2.5080 O   0  0  0  0  0  0  0  0  0  0  0  0
   -0.0590   12.6340   -0.9920 O   0  0  0  0  0  0  0  0  0  0  0  0
   -1.2650    9.3380   -9.0690 C   0  0  0  0  0  0  0  0  0  0  0  0
   -0.2770   14.0230   -0.6410 C   0  0  0  0  0  0  0  0  0  0  0  0
   -0.2300   14.1960    0.9020 C   0  0  0  0  0  0  0  0  0  0  0  0
   -1.4210   14.8020    1.5490 N   0  0  0  0  0  0  0  0  0  0  0  0
   -2.5360   14.9920    0.9450 C   0  0  0  0  0  0  0  0  0  0  0  0
   -3.8120   15.6380    1.4590 C   0  0  0  0  0  0  0  0  0  0  0  0
   -2.7340   14.6300   -0.3410 N   0  0  0  0  0  0  0  0  0  0  0  0
   -4.6980   15.1680    0.4490 N   0  0  0  0  0  0  0  0  0  0  0  0
   -3.9800   15.0180   -0.7010 C   0  0  0  0  0  0  0  0  0  0  0  0
   -4.3970   15.2070   -1.8270 O   0  0  0  0  0  0  0  0  0  0  0  0
  1  2  1  0
  2  3  1  0
  1  4  1  0
  4  5  1  0
  4  6  1  0
  3  7  1  0
  5  8  1  0
  6  9  1  0
  7 10  1  0
  7 11  1  0
  7 12  1  0
  8 13  1  0
  9 13  1  0
 12 14  1  0
 14 15  1  0
 15 16  1  0
 16 17  2  3
 17 18  1  0
 17 19  1  0
 18 20  1  0
 19 21  1  0
 20 21  1  0
 21 22  2  0
M  END
