x0685_0_A_α-x0724_0_A_α
     RDKit          3D

 15 16  0  0  0  0  0  0  0  0999 V2000
   -5.3350   15.1070    3.0220 N   0  0  0  0  0  0  0  0  0  0  0  0
   -5.0280   15.1920    1.5910 C   0  0  2  0  0  0  0  0  0  0  0  0
   -6.0580   14.4060    0.6500 C   0  0  2  0  0  0  0  0  0  0  0  0
   -3.6090   14.7480    1.4110 C   0  0  0  0  0  0  0  0  0  0  0  0
   -3.1480   14.6850    0.1760 C   0  0  0  0  0  0  0  0  0  0  0  0
   -5.3720   14.1480   -0.7220 C   0  0  0  0  0  0  0  0  0  0  0  0
   -7.3790   15.0370    0.3330 N   0  0  0  0  0  0  0  0  0  0  0  0
   -6.5560   13.1700    1.4000 C   0  0  0  0  0  0  0  0  0  0  0  0
   -4.1260   15.0390   -0.9040 C   0  0  2  0  0  0  0  0  0  0  0  0
   -7.7650   13.6360    2.2310 C   0  0  2  0  0  0  0  0  0  0  0  0
   -8.3390   14.7830    1.4190 C   0  0  0  0  0  0  0  0  0  0  0  0
   -3.5510   14.9590   -2.2600 C   0  0  0  0  0  0  0  0  0  0  0  0
   -7.4550   14.0290    3.6850 C   0  0  0  0  0  0  0  0  0  0  0  0
   -3.1110   14.9420   -3.3350 N   0  0  0  0  0  0  0  0  0  0  0  0
   -8.5810   13.7650    4.6880 C   0  0  0  0  0  0  0  0  0  0  0  0
  2  1  1  1
  2  3  1  0
  2  4  1  0
  4  5  2  0
  3  6  1  6
  3  7  1  0
  3  8  1  0
  5  9  1  0
  6  9  1  0
  8 10  1  0
  7 11  1  0
 10 11  1  0
  9 12  1  6
 10 13  1  1
 12 14  3  0
 13 15  1  0
M  END
