x0681_0_A-x0421_0_A
     RDKit          3D

 14 16  0  0  0  0  0  0  0  0999 V2000
   -4.4320   15.5480   -2.3380 N   0  0  0  0  0  0  0  0  0  0  0  0
   -3.3690   14.9360   -1.7450 C   0  0  0  0  0  0  0  0  0  0  0  0
   -2.3030   14.8270   -2.3420 O   0  0  0  0  0  0  0  0  0  0  0  0
   -3.6420   14.4130   -0.3410 C   0  0  2  0  0  0  0  0  0  0  0  0
   -4.6300   13.2960   -0.5020 C   0  0  0  0  0  0  0  0  0  0  0  0
   -4.1550   15.5040    0.6210 C   0  0  0  0  0  0  0  0  0  0  0  0
   -5.7190   13.1490    0.2960 N   0  0  0  0  0  0  0  0  0  0  0  0
   -4.8540   14.8820    1.8360 C   0  0  0  0  0  0  0  0  0  0  0  0
   -4.6060   12.3330   -1.4020 N   0  0  0  0  0  0  0  0  0  0  0  0
   -6.0590   14.0480    1.3990 C   0  0  0  0  0  0  0  0  0  0  0  0
   -6.4250   12.0630   -0.0830 C   0  0  0  0  0  0  0  0  0  0  0  0
   -5.7200   11.5640   -1.1440 C   0  0  0  0  0  0  0  0  0  0  0  0
   -7.4720   14.6080    1.5340 C   0  0  0  0  0  0  0  0  0  0  0  0
   -7.0380   13.4820    2.4080 C   0  0  0  0  0  0  0  0  0  0  0  0
  1  2  1  0
  2  3  2  0
  4  2  1  6
  4  5  1  0
  4  6  1  0
  5  7  1  0
  6  8  1  0
  5  9  2  0
  7 10  1  0
 10  8  1  0
  7 11  1  0
  9 12  1  0
 11 12  2  0
 10 13  1  0
 10 14  1  0
 13 14  1  0
M  END
