x0685_1_A-x0465_0_A
     RDKit          3D

 16 17  0  0  0  0  0  0  0  0999 V2000
   -1.7900   10.9630   -4.8470 N   0  0  0  0  0  0  0  0  0  0  0  0
   -1.4030   12.3630   -4.5570 C   0  0  0  0  0  0  0  0  0  0  0  0
    0.1180   12.2840   -4.5240 C   0  0  2  0  0  0  0  0  0  0  0  0
   -0.8570   10.6490   -5.9330 C   0  0  1  0  0  0  0  0  0  0  0  0
    0.4030   11.2050   -5.4830 O   0  0  0  0  0  0  0  0  0  0  0  0
   -0.7350    9.1090   -6.1420 C   0  0  0  0  0  0  0  0  0  0  0  0
   -1.3590   11.3760   -7.2110 C   0  0  0  0  0  0  0  0  0  0  0  0
    0.7290   11.9090   -2.8260 S   0  0  0  0  0  0  0  0  0  0  0  0
    0.8900   13.5000   -5.0690 C   0  0  0  0  0  0  0  0  0  0  0  0
   -0.2450    8.6650   -7.5220 C   0  0  2  0  0  0  0  0  0  0  0  0
   -0.9100   10.8040   -8.5650 C   0  0  0  0  0  0  0  0  0  0  0  0
    2.2850   12.2750   -2.8410 O   0  0  0  0  0  0  0  0  0  0  0  0
    0.4790   10.3360   -2.5940 O   0  0  0  0  0  0  0  0  0  0  0  0
   -0.0010   12.7010   -1.6330 O   0  0  0  0  0  0  0  0  0  0  0  0
    1.0370    9.0800   -7.6660 F   0  0  0  0  0  0  0  0  0  0  0  0
   -1.0140    9.2870   -8.6600 C   0  0  0  0  0  0  0  0  0  0  0  0
  1  2  1  0
  2  3  1  0
  1  4  1  0
  3  5  1  0
  4  5  1  0
  4  6  1  6
  4  7  1  0
  3  8  1  0
  3  9  1  6
  6 10  1  0
  7 11  1  0
  8 12  1  0
  8 13  1  0
  8 14  1  0
 10 15  1  6
 10 16  1  0
 11 16  1  0
M  END
