x0681_0_A_α-x0253_0_A_α
     RDKit          3D

 28 30  0  0  0  0  0  0  0  0999 V2000
   -4.1230   15.5760   -3.0120 N   0  0  0  0  0  0  0  0  0  0  0  0
   -3.4040   14.8490   -2.1140 C   0  0  0  0  0  0  0  0  0  0  0  0
   -2.2870   14.2490   -2.4200 N   0  0  0  0  0  0  0  0  0  0  0  0
   -4.1070   14.8410   -0.7410 C   0  0  1  0  0  0  0  0  0  0  0  0
   -1.4760   13.4410   -1.5060 C   0  0  0  0  0  0  0  0  0  0  0  0
   -4.8790   13.5740   -0.6020 C   0  0  0  0  0  0  0  0  0  0  0  0
   -3.3750   15.2410    0.5430 C   0  0  0  0  0  0  0  0  0  0  0  0
   -0.0070   13.6280   -1.9190 C   0  0  0  0  0  0  0  0  0  0  0  0
   -5.5810   13.3760    0.5370 N   0  0  0  0  0  0  0  0  0  0  0  0
   -4.1120   14.8080    1.8100 C   0  0  0  0  0  0  0  0  0  0  0  0
   -5.0190   12.5630   -1.4310 N   0  0  0  0  0  0  0  0  0  0  0  0
    0.6350   12.5660   -2.8590 C   0  0  0  0  0  0  0  0  0  0  0  0
   -5.5580   14.3610    1.5760 C   0  0  0  0  0  0  0  0  0  0  0  0
   -6.2190   12.1850    0.4620 C   0  0  0  0  0  0  0  0  0  0  0  0
   -5.8590   11.6920   -0.7700 C   0  0  0  0  0  0  0  0  0  0  0  0
    1.9420   12.4370   -2.3360 O   0  0  0  0  0  0  0  0  0  0  0  0
    0.0520   11.2760   -2.7310 O   0  0  0  0  0  0  0  0  0  0  0  0
    0.7740   12.9760   -4.3600 C   0  0  0  0  0  0  0  0  0  0  0  0
    0.3150   11.9710   -5.3210 N   0  0  0  0  0  0  0  0  0  0  0  0
    1.0530   11.6870   -6.4570 C   0  0  0  0  0  0  0  0  0  0  0  0
    2.1670   12.1560   -6.6010 O   0  0  0  0  0  0  0  0  0  0  0  0
    0.4450   10.7530   -7.4720 C   0  0  0  0  0  0  0  0  0  0  0  0
   -0.5360    9.8250   -7.1040 C   0  0  0  0  0  0  0  0  0  0  0  0
    0.8530   10.7940   -8.8190 C   0  0  0  0  0  0  0  0  0  0  0  0
   -1.1000    8.9580   -8.0560 C   0  0  0  0  0  0  0  0  0  0  0  0
    0.2980    9.9360   -9.7670 C   0  0  0  0  0  0  0  0  0  0  0  0
   -2.1510    7.9740   -7.6370 C   0  0  0  0  0  0  0  0  0  0  0  0
   -0.6750    9.0210   -9.3860 C   0  0  0  0  0  0  0  0  0  0  0  0
  1  2  1  0
  2  3  2  3
  4  2  1  6
  3  5  1  0
  4  6  1  0
  4  7  1  0
  5  8  1  0
  6  9  1  0
  7 10  1  0
  6 11  2  0
  8 12  1  0
  9 13  1  0
 10 13  1  0
  9 14  1  0
 11 15  1  0
 14 15  2  0
 12 16  1  0
 12 17  1  0
 12 18  1  0
 18 19  1  0
 19 20  1  0
 20 21  2  0
 20 22  1  0
 22 23  2  0
 22 24  1  0
 23 25  1  0
 24 26  2  0
 25 27  1  0
 25 28  2  0
 26 28  1  0
M  END
