x0681_0_A-x0685_0_A
     RDKit          3D

 15 16  0  0  0  0  0  0  0  0999 V2000
   -4.5020   15.4870   -2.3080 N   0  0  0  0  0  0  0  0  0  0  0  0
   -3.3740   14.8420   -1.8950 C   0  0  0  0  0  0  0  0  0  0  0  0
   -2.4080   14.7360   -2.6440 O   0  0  0  0  0  0  0  0  0  0  0  0
   -3.4330   14.2920   -0.4700 C   0  0  2  0  0  0  0  0  0  0  0  0
   -4.5810   13.3150   -0.4140 C   0  0  0  0  0  0  0  0  0  0  0  0
   -3.5510   15.4270    0.5570 C   0  0  0  0  0  0  0  0  0  0  0  0
   -5.6100   13.4410    0.4790 N   0  0  0  0  0  0  0  0  0  0  0  0
   -4.2930   14.9780    1.8040 C   0  0  0  0  0  0  0  0  0  0  0  0
   -4.7550   12.2540   -1.1770 N   0  0  0  0  0  0  0  0  0  0  0  0
   -5.7030   14.5150    1.4430 C   0  0  2  0  0  0  0  0  0  0  0  0
   -6.4810   12.4030    0.2780 C   0  0  0  0  0  0  0  0  0  0  0  0
   -5.9290   11.6880   -0.7550 C   0  0  0  0  0  0  0  0  0  0  0  0
   -6.4540   14.0660    2.6090 N   0  0  0  0  0  0  0  0  0  0  0  0
   -7.7180   14.7090    2.8900 C   0  0  0  0  0  0  0  0  0  0  0  0
   -8.7780   13.6950    3.2660 C   0  0  0  0  0  0  0  0  0  0  0  0
  1  2  1  0
  2  3  2  0
  4  2  1  6
  4  5  1  0
  4  6  1  0
  5  7  1  0
  6  8  1  0
  5  9  2  0
  7 10  1  0
  8 10  1  0
  7 11  1  0
  9 12  1  0
 11 12  2  0
 10 13  1  1
 13 14  1  0
 14 15  1  0
M  END
