x0685_1_A-x0967_0_A
     RDKit          3D

 25 27  0  0  0  0  0  0  0  0999 V2000
   -1.3650   10.6180   -4.8770 N   0  0  0  0  0  0  0  0  0  0  0  0
   -1.4730   12.0160   -4.4490 C   0  0  0  0  0  0  0  0  0  0  0  0
   -0.1800   12.7210   -4.0490 C   0  0  0  0  0  0  0  0  0  0  0  0
   -0.7280   10.3670   -6.1740 C   0  0  0  0  0  0  0  0  0  0  0  0
   -0.5160    8.8610   -6.4200 C   0  0  0  0  0  0  0  0  0  0  0  0
   -1.5810   11.0080   -7.2930 C   0  0  0  0  0  0  0  0  0  0  0  0
    0.5580   12.1370   -2.5230 S   0  0  0  0  0  0  0  0  0  0  0  0
    0.1220    8.6170   -7.7790 C   0  0  0  0  0  0  0  0  0  0  0  0
   -1.0310   10.7160   -8.6870 C   0  0  0  0  0  0  0  0  0  0  0  0
    2.1280   12.4130   -2.7120 O   0  0  0  0  0  0  0  0  0  0  0  0
    0.2850   10.5500   -2.4550 O   0  0  0  0  0  0  0  0  0  0  0  0
   -0.0900   12.8990   -1.2420 O   0  0  0  0  0  0  0  0  0  0  0  0
   -0.7430    9.2230   -8.8890 C   0  0  0  0  0  0  0  0  0  0  0  0
   -0.6230   14.2350   -1.4420 C   0  0  0  0  0  0  0  0  0  0  0  0
   -1.3870   14.8120   -0.2210 C   0  0  0  0  0  0  0  0  0  0  0  0
   -2.9080   14.8010   -0.3520 C   0  0  0  0  0  0  0  0  0  0  0  0
   -3.5280   14.7480   -1.5980 C   0  0  0  0  0  0  0  0  0  0  0  0
   -3.7720   14.8340    0.7510 C   0  0  0  0  0  0  0  0  0  0  0  0
   -5.1740   14.7930    0.5580 C   0  0  0  0  0  0  0  0  0  0  0  0
   -4.8660   14.7120   -1.7980 N   0  0  0  0  0  0  0  0  0  0  0  0
   -5.6860   14.7250   -0.7480 C   0  0  0  0  0  0  0  0  0  0  0  0
   -6.0960   14.8120    1.6210 C   0  0  0  0  0  0  0  0  0  0  0  0
   -7.0050   14.6680   -0.9730 N   0  0  0  0  0  0  0  0  0  0  0  0
   -7.4570   14.7450    1.3800 C   0  0  0  0  0  0  0  0  0  0  0  0
   -7.8590   14.6750    0.0710 C   0  0  0  0  0  0  0  0  0  0  0  0
  1  2  1  0
  2  3  1  0
  1  4  1  0
  4  5  1  0
  4  6  1  0
  3  7  1  0
  5  8  1  0
  6  9  1  0
  7 10  1  0
  7 11  1  0
  7 12  1  0
  8 13  1  0
  9 13  1  0
 12 14  1  0
 14 15  1  0
 15 16  1  0
 16 17  2  0
 16 18  1  0
 18 19  2  0
 17 20  1  0
 19 21  1  0
 20 21  2  0
 19 22  1  0
 21 23  1  0
 22 24  2  0
 23 25  2  0
 24 25  1  0
M  END
