x0689_0_A-x0724_0_A
     RDKit          3D

 22 24  0  0  0  0  0  0  0  0999 V2000
   -3.3570   14.4560    1.8980 N   0  0  0  0  0  0  0  0  0  0  0  0
   -4.1700   15.5110    1.4190 C   0  0  0  0  0  0  0  0  0  0  0  0
   -4.3890   15.0830    0.0170 C   0  0  0  0  0  0  0  0  0  0  0  0
   -2.1680   14.5320    1.2360 C   0  0  0  0  0  0  0  0  0  0  0  0
   -2.1720   14.5030   -0.1050 N   0  0  0  0  0  0  0  0  0  0  0  0
   -1.1000   14.6430    1.9400 N   0  0  0  0  0  0  0  0  0  0  0  0
   -0.9860   14.6040   -0.7400 C   0  0  0  0  0  0  0  0  0  0  0  0
    0.0270   14.7490    1.2900 C   0  0  0  0  0  0  0  0  0  0  0  0
   -3.2810   15.1140   -0.8370 C   0  0  0  0  0  0  0  0  0  0  0  0
   -5.6060   14.6600   -0.4530 C   0  0  0  0  0  0  0  0  0  0  0  0
    0.1780   14.7350   -0.0650 C   0  0  0  0  0  0  0  0  0  0  0  0
   -6.7050   14.6520    0.4560 N   0  0  0  0  0  0  0  0  0  0  0  0
   -3.3650   14.7310   -2.1590 C   0  0  0  0  0  0  0  0  0  0  0  0
   -5.7020   14.2670   -1.7980 C   0  0  0  0  0  0  0  0  0  0  0  0
   -7.9930   14.5460    0.0770 N   0  0  0  0  0  0  0  0  0  0  0  0
   -6.6170   14.7720    1.8330 C   0  0  0  0  0  0  0  0  0  0  0  0
   -4.5840   14.3050   -2.6420 C   0  0  0  0  0  0  0  0  0  0  0  0
   -7.8820   14.7660    2.3510 C   0  0  0  0  0  0  0  0  0  0  0  0
   -8.6940   14.6150    1.2110 C   0  0  0  0  0  0  0  0  0  0  0  0
   -8.2690   14.9020    3.7800 C   0  0  0  0  0  0  0  0  0  0  0  0
   -8.7670   13.6620    4.3630 N   0  0  0  0  0  0  0  0  0  0  0  0
   -8.6860   13.6810    5.8150 C   0  0  0  0  0  0  0  0  0  0  0  0
  1  2  1  0
  2  3  1  0
  1  4  1  0
  4  5  2  0
  4  6  1  0
  5  7  1  0
  6  8  2  0
  3  9  2  0
  3 10  1  0
  7 11  2  0
  8 11  1  0
 10 12  1  0
  9 13  1  0
 10 14  2  0
 12 15  1  0
 12 16  1  0
 13 17  2  0
 14 17  1  0
 16 18  2  0
 15 19  2  0
 18 19  1  0
 18 20  1  0
 20 21  1  0
 21 22  1  0
M  END
