x0681_0_A-x0253_0_A
     RDKit          3D

 28 30  0  0  0  0  0  0  0  0999 V2000
   -4.1170   15.5840   -2.9900 N   0  0  0  0  0  0  0  0  0  0  0  0
   -3.3980   14.8370   -2.1100 C   0  0  0  0  0  0  0  0  0  0  0  0
   -2.2870   14.2320   -2.4230 N   0  0  0  0  0  0  0  0  0  0  0  0
   -4.1020   14.8220   -0.7360 C   0  0  1  0  0  0  0  0  0  0  0  0
   -1.4830   13.4040   -1.5190 C   0  0  0  0  0  0  0  0  0  0  0  0
   -4.8790   13.5590   -0.6000 C   0  0  0  0  0  0  0  0  0  0  0  0
   -3.3670   15.2250    0.5450 C   0  0  0  0  0  0  0  0  0  0  0  0
   -0.0080   13.5990   -1.9060 C   0  0  0  0  0  0  0  0  0  0  0  0
   -5.5830   13.3670    0.5380 N   0  0  0  0  0  0  0  0  0  0  0  0
   -4.1060   14.7970    1.8110 C   0  0  0  0  0  0  0  0  0  0  0  0
   -5.0270   12.5500   -1.4280 N   0  0  0  0  0  0  0  0  0  0  0  0
    0.6390   12.5520   -2.8590 C   0  0  0  0  0  0  0  0  0  0  0  0
   -5.5540   14.3590    1.5730 C   0  0  0  0  0  0  0  0  0  0  0  0
   -6.2280   12.1770    0.4640 C   0  0  0  0  0  0  0  0  0  0  0  0
   -5.8700   11.6830   -0.7680 C   0  0  0  0  0  0  0  0  0  0  0  0
    1.9540   12.4400   -2.3550 O   0  0  0  0  0  0  0  0  0  0  0  0
    0.0750   11.2530   -2.7310 O   0  0  0  0  0  0  0  0  0  0  0  0
    0.7550   12.9700   -4.3610 C   0  0  0  0  0  0  0  0  0  0  0  0
    0.3100   11.9620   -5.3210 N   0  0  0  0  0  0  0  0  0  0  0  0
    1.0500   11.6830   -6.4580 C   0  0  0  0  0  0  0  0  0  0  0  0
    2.1620   12.1560   -6.6060 O   0  0  0  0  0  0  0  0  0  0  0  0
    0.4410   10.7490   -7.4690 C   0  0  0  0  0  0  0  0  0  0  0  0
   -0.5410    9.8190   -7.1030 C   0  0  0  0  0  0  0  0  0  0  0  0
    0.8500   10.7900   -8.8140 C   0  0  0  0  0  0  0  0  0  0  0  0
   -1.1050    8.9520   -8.0540 C   0  0  0  0  0  0  0  0  0  0  0  0
    0.2960    9.9320   -9.7640 C   0  0  0  0  0  0  0  0  0  0  0  0
   -2.1560    7.9670   -7.6400 C   0  0  0  0  0  0  0  0  0  0  0  0
   -0.6800    9.0170   -9.3830 C   0  0  0  0  0  0  0  0  0  0  0  0
  1  2  1  0
  2  3  2  3
  4  2  1  6
  3  5  1  0
  4  6  1  0
  4  7  1  0
  5  8  1  0
  6  9  1  0
  7 10  1  0
  6 11  2  0
  8 12  1  0
  9 13  1  0
 10 13  1  0
  9 14  1  0
 11 15  1  0
 14 15  2  0
 12 16  1  0
 12 17  1  0
 12 18  1  0
 18 19  1  0
 19 20  1  0
 20 21  2  0
 20 22  1  0
 22 23  2  0
 22 24  1  0
 23 25  1  0
 24 26  2  0
 25 27  1  0
 25 28  2  0
 26 28  1  0
M  END
