x0689_0_A-x0685_1_A
     RDKit          3D

 21 22  0  0  0  0  0  0  0  0999 V2000
   -3.5470   15.2050    1.6790 N   0  0  0  0  0  0  0  0  0  0  0  0
   -4.6630   15.4650    0.8200 C   0  0  0  0  0  0  0  0  0  0  0  0
   -2.4270   14.7530    1.0040 C   0  0  0  0  0  0  0  0  0  0  0  0
   -2.5430   14.7330   -0.3300 N   0  0  0  0  0  0  0  0  0  0  0  0
   -1.3320   14.3760    1.6530 N   0  0  0  0  0  0  0  0  0  0  0  0
   -1.4850   14.2960   -1.0450 C   0  0  0  0  0  0  0  0  0  0  0  0
   -0.3060   13.9420    0.8890 C   0  0  0  0  0  0  0  0  0  0  0  0
   -0.3090   13.8720   -0.4990 C   0  0  0  0  0  0  0  0  0  0  0  0
    0.6870   13.4460   -1.3590 O   0  0  0  0  0  0  0  0  0  0  0  0
    0.6730   12.3100   -2.5460 S   0  0  0  0  0  0  0  0  0  0  0  0
   -0.2020   12.9010   -4.0120 C   0  0  0  0  0  0  0  0  0  0  0  0
    2.1800   12.1510   -3.0800 O   0  0  0  0  0  0  0  0  0  0  0  0
    0.0800   10.8520   -2.1540 O   0  0  0  0  0  0  0  0  0  0  0  0
   -1.4430   12.0880   -4.4170 C   0  0  0  0  0  0  0  0  0  0  0  0
   -1.1310   10.6710   -4.7400 N   0  0  0  0  0  0  0  0  0  0  0  0
   -0.6370   10.4470   -6.1240 C   0  0  0  0  0  0  0  0  0  0  0  0
   -0.5340    8.9320   -6.3630 C   0  0  0  0  0  0  0  0  0  0  0  0
   -1.5280   11.0620   -7.2220 C   0  0  0  0  0  0  0  0  0  0  0  0
    0.0290    8.6220   -7.7490 C   0  0  0  0  0  0  0  0  0  0  0  0
   -1.0720   10.7350   -8.6510 C   0  0  0  0  0  0  0  0  0  0  0  0
   -0.8070    9.2470   -8.8700 C   0  0  0  0  0  0  0  0  0  0  0  0
  1  2  1  0
  1  3  1  0
  3  4  2  0
  3  5  1  0
  4  6  1  0
  5  7  2  0
  6  8  2  0
  7  8  1  0
  8  9  1  0
 10  9  1  0
 10 11  1  0
 10 12  1  0
 10 13  1  0
 11 14  1  0
 14 15  1  0
 15 16  1  0
 16 17  1  0
 16 18  1  0
 17 19  1  0
 18 20  1  0
 19 21  1  0
 20 21  1  0
M  END
