x0681_0_A-x0685_0_A
     RDKit          3D

 15 16  0  0  0  0  0  0  0  0999 V2000
   -4.5020   15.4960   -2.3030 N   0  0  0  0  0  0  0  0  0  0  0  0
   -3.3690   14.8510   -1.8960 C   0  0  0  0  0  0  0  0  0  0  0  0
   -2.4100   14.7430   -2.6490 O   0  0  0  0  0  0  0  0  0  0  0  0
   -3.4220   14.2980   -0.4730 C   0  0  2  0  0  0  0  0  0  0  0  0
   -4.5680   13.3210   -0.4130 C   0  0  0  0  0  0  0  0  0  0  0  0
   -3.5350   15.4380    0.5520 C   0  0  0  0  0  0  0  0  0  0  0  0
   -5.5960   13.4500    0.4790 N   0  0  0  0  0  0  0  0  0  0  0  0
   -4.2800   14.9940    1.8000 C   0  0  0  0  0  0  0  0  0  0  0  0
   -4.7420   12.2560   -1.1700 N   0  0  0  0  0  0  0  0  0  0  0  0
   -5.6870   14.5280    1.4390 C   0  0  2  0  0  0  0  0  0  0  0  0
   -6.4650   12.4150    0.2870 C   0  0  0  0  0  0  0  0  0  0  0  0
   -5.9200   11.6900   -0.7410 C   0  0  0  0  0  0  0  0  0  0  0  0
   -6.4390   14.0820    2.6080 N   0  0  0  0  0  0  0  0  0  0  0  0
   -7.7120   14.7080    2.8900 C   0  0  0  0  0  0  0  0  0  0  0  0
   -8.7550   13.6710    3.2490 C   0  0  0  0  0  0  0  0  0  0  0  0
  1  2  1  0
  2  3  2  0
  4  2  1  6
  4  5  1  0
  4  6  1  0
  5  7  1  0
  6  8  1  0
  5  9  2  0
  7 10  1  0
  8 10  1  0
  7 11  1  0
  9 12  1  0
 11 12  2  0
 10 13  1  1
 13 14  1  0
 14 15  1  0
M  END
