x0685_0_A-x0855_0_A
     RDKit          3D

 24 25  0  0  0  0  0  0  0  0999 V2000
   -5.9880   15.0660    2.6280 N   0  0  0  0  0  0  0  0  0  0  0  0
   -7.3460   14.5650    2.8260 C   0  0  0  0  0  0  0  0  0  0  0  0
   -7.4320   13.0460    2.8140 C   0  0  0  0  0  0  0  0  0  0  0  0
   -5.3310   15.0260    1.4060 C   0  0  0  0  0  0  0  0  0  0  0  0
   -3.9480   15.0690    1.3380 C   0  0  0  0  0  0  0  0  0  0  0  0
   -6.1090   14.9600    0.3050 N   0  0  0  0  0  0  0  0  0  0  0  0
   -3.3320   15.0590    0.0980 C   0  0  0  0  0  0  0  0  0  0  0  0
   -5.4830   14.9560   -0.9000 C   0  0  0  0  0  0  0  0  0  0  0  0
   -4.1070   15.0090   -1.0480 C   0  0  0  0  0  0  0  0  0  0  0  0
   -3.4550   15.0110   -2.3150 C   0  0  0  0  0  0  0  0  0  0  0  0
   -2.8130   15.0190   -3.3300 C   0  0  0  0  0  0  0  0  0  0  0  0
   -1.9200   15.0070   -4.5020 C   0  0  0  0  0  0  0  0  0  0  0  0
   -0.4760   14.7690   -4.0220 C   0  0  0  0  0  0  0  0  0  0  0  0
    0.4490   14.0610   -5.0250 C   0  0  0  0  0  0  0  0  0  0  0  0
    0.6720   12.5480   -4.8030 C   0  0  1  0  0  0  0  0  0  0  0  0
    0.9480   12.2040   -3.3450 C   0  0  0  0  0  0  0  0  0  0  0  0
   -0.4130   11.7040   -5.2550 N   0  0  0  0  0  0  0  0  0  0  0  0
    1.5040   13.1520   -2.5670 O   0  0  0  0  0  0  0  0  0  0  0  0
    0.6760   11.1040   -2.8830 O   0  0  0  0  0  0  0  0  0  0  0  0
   -0.3440   10.7280   -6.1980 C   0  0  0  0  0  0  0  0  0  0  0  0
   -1.6490   11.8500   -4.7110 N   0  0  0  0  0  0  0  0  0  0  0  0
   -1.6010   10.2030   -6.2670 C   0  0  0  0  0  0  0  0  0  0  0  0
   -2.3740   10.9190   -5.3440 C   0  0  0  0  0  0  0  0  0  0  0  0
   -2.1990    8.8150   -7.3560 Br  0  0  0  0  0  0  0  0  0  0  0  0
  1  2  1  0
  2  3  1  0
  1  4  1  0
  4  5  2  0
  4  6  1  0
  5  7  1  0
  6  8  2  0
  7  9  2  0
  8  9  1  0
  9 10  1  0
 10 11  3  0
 11 12  1  0
 12 13  1  0
 13 14  1  0
 15 14  1  1
 15 16  1  0
 15 17  1  0
 16 18  1  0
 16 19  2  0
 17 20  1  0
 17 21  1  0
 20 22  2  0
 21 23  2  0
 22 23  1  0
 22 24  1  0
M  END
