x0681_0_A_α-x0421_0_A_α
     RDKit          3D

 14 16  0  0  0  0  0  0  0  0999 V2000
   -4.4300   15.5360   -2.3600 N   0  0  0  0  0  0  0  0  0  0  0  0
   -3.3710   14.9300   -1.7520 C   0  0  0  0  0  0  0  0  0  0  0  0
   -2.2960   14.8270   -2.3360 O   0  0  0  0  0  0  0  0  0  0  0  0
   -3.6570   14.4060   -0.3480 C   0  0  2  0  0  0  0  0  0  0  0  0
   -4.6380   13.2860   -0.5170 C   0  0  0  0  0  0  0  0  0  0  0  0
   -4.1730   15.4910    0.6130 C   0  0  0  0  0  0  0  0  0  0  0  0
   -5.7260   13.1340    0.2830 N   0  0  0  0  0  0  0  0  0  0  0  0
   -4.8680   14.8660    1.8320 C   0  0  0  0  0  0  0  0  0  0  0  0
   -4.6120   12.3280   -1.4210 N   0  0  0  0  0  0  0  0  0  0  0  0
   -6.0690   14.0280    1.3890 C   0  0  0  0  0  0  0  0  0  0  0  0
   -6.4270   12.0480   -0.1020 C   0  0  0  0  0  0  0  0  0  0  0  0
   -5.7230   11.5560   -1.1650 C   0  0  0  0  0  0  0  0  0  0  0  0
   -7.4800   14.5940    1.5110 C   0  0  0  0  0  0  0  0  0  0  0  0
   -7.0590   13.4770    2.3970 C   0  0  0  0  0  0  0  0  0  0  0  0
  1  2  1  0
  2  3  2  0
  4  2  1  6
  4  5  1  0
  4  6  1  0
  5  7  1  0
  6  8  1  0
  5  9  2  0
  7 10  1  0
 10  8  1  0
  7 11  1  0
  9 12  1  0
 11 12  2  0
 10 13  1  0
 10 14  1  0
 13 14  1  0
M  END
