x0685_1_A_α-x1015_0_A_α
     RDKit          3D

 17 18  0  0  0  0  0  0  0  0999 V2000
   -1.8640   10.4490   -4.3800 N   0  0  0  0  0  0  0  0  0  0  0  0
   -1.5670   10.7760   -3.0750 C   0  0  0  0  0  0  0  0  0  0  0  0
   -0.0310   10.7480   -2.9680 C   0  0  0  0  0  0  0  0  0  0  0  0
   -0.7190   11.5810   -5.5000 S   0  0  0  0  0  0  0  0  0  0  0  0
    0.4120   11.0250   -6.8900 C   0  0  0  0  0  0  0  0  0  0  0  0
   -1.6410   11.4450   -7.1050 C   0  0  0  0  0  0  0  0  0  0  0  0
    0.3880   12.7260   -4.4330 C   0  0  2  0  0  0  0  0  0  0  0  0
   -1.2550   13.2260   -4.9130 C   0  0  0  0  0  0  0  0  0  0  0  0
    0.6480   12.0540   -1.9380 S   0  0  0  0  0  0  0  0  0  0  0  0
   -0.2880   13.3640   -3.3130 C   0  0  0  0  0  0  0  0  0  0  0  0
    0.3110    9.7500   -7.4880 C   0  0  0  0  0  0  0  0  0  0  0  0
   -1.0150   11.1530   -8.3470 C   0  0  0  0  0  0  0  0  0  0  0  0
   -0.4870   14.2310   -5.5850 N   0  0  0  0  0  0  0  0  0  0  0  0
    0.7630   13.7290   -5.3860 C   0  0  0  0  0  0  0  0  0  0  0  0
    2.1800   12.5270   -2.5440 O   0  0  0  0  0  0  0  0  0  0  0  0
   -0.6260    9.7270   -8.6730 C   0  0  0  0  0  0  0  0  0  0  0  0
   -2.0250    8.6840   -8.4320 Cl  0  0  0  0  0  0  0  0  0  0  0  0
  1  2  1  0
  2  3  1  0
  1  4  1  0
  4  5  1  0
  4  6  1  0
  4  7  1  0
  4  8  1  0
  3  9  1  0
  7 10  1  1
  5 11  1  0
  6 12  1  0
  8 13  1  0
  7 14  1  0
 13 14  1  0
  9 15  1  0
 11 16  1  0
 12 16  1  0
 16 17  1  0
M  END
