x0681_0_A-x0962_2_B
     RDKit          3D

 20 22  0  0  0  0  0  0  0  0999 V2000
   -3.8540   15.4420   -2.9610 N   0  0  0  0  0  0  0  0  0  0  0  0
   -3.3320   14.9650   -1.8000 C   0  0  0  0  0  0  0  0  0  0  0  0
   -2.1650   14.6010   -1.7500 O   0  0  0  0  0  0  0  0  0  0  0  0
   -4.3520   14.9360   -0.6710 C   0  0  1  0  0  0  0  0  0  0  0  0
   -5.0150   13.6000   -0.6540 C   0  0  0  0  0  0  0  0  0  0  0  0
   -3.9100   15.3760    0.7390 C   0  0  0  0  0  0  0  0  0  0  0  0
   -5.9300   13.3570    0.2950 N   0  0  0  0  0  0  0  0  0  0  0  0
   -4.8710   14.8390    1.8320 C   0  0  0  0  0  0  0  0  0  0  0  0
   -4.8660   12.5580   -1.4450 N   0  0  0  0  0  0  0  0  0  0  0  0
   -6.2440   14.3580    1.2680 C   0  0  2  0  0  0  0  0  0  0  0  0
   -6.4180   12.1040    0.1360 C   0  0  0  0  0  0  0  0  0  0  0  0
   -5.7460   11.6190   -0.9580 C   0  0  0  0  0  0  0  0  0  0  0  0
   -7.3440   13.8130    2.2290 C   0  0  0  0  0  0  0  0  0  0  0  0
   -8.0180   14.8170    3.1150 C   0  0  0  0  0  0  0  0  0  0  0  0
   -9.0350   15.7360    2.8890 C   0  0  0  0  0  0  0  0  0  0  0  0
   -7.6110   14.9140    4.4190 N   0  0  0  0  0  0  0  0  0  0  0  0
   -9.8000   16.0400    1.7380 C   0  0  0  0  0  0  0  0  0  0  0  0
   -9.2010   16.3820    4.0850 N   0  0  0  0  0  0  0  0  0  0  0  0
   -8.3210   15.8500    4.9710 C   0  0  0  0  0  0  0  0  0  0  0  0
  -10.4630   16.3250    0.8310 N   0  0  0  0  0  0  0  0  0  0  0  0
  1  2  1  0
  2  3  2  0
  4  2  1  6
  4  5  1  0
  4  6  1  0
  5  7  1  0
  6  8  1  0
  5  9  2  0
  7 10  1  0
  8 10  1  0
  7 11  1  0
  9 12  1  0
 11 12  2  0
 10 13  1  1
 13 14  1  0
 14 15  2  0
 14 16  1  0
 15 17  1  0
 15 18  1  0
 16 19  2  0
 18 19  1  0
 17 20  3  0
M  END
