x0689_0_A_α-x0128_0_A_α
     RDKit          3D

 24 26  0  0  0  0  0  0  0  0999 V2000
   -3.4270   15.0510    1.6490 N   0  0  0  0  0  0  0  0  0  0  0  0
   -2.1920   15.1090    0.9320 C   0  0  1  0  0  0  0  0  0  0  0  0
   -1.3730   14.2880    1.7350 N   0  0  0  0  0  0  0  0  0  0  0  0
   -2.2260   14.8110   -0.4650 N   0  0  0  0  0  0  0  0  0  0  0  0
   -1.0150   14.5320   -1.0480 C   0  0  0  0  0  0  0  0  0  0  0  0
   -0.0500   14.1850    1.1890 C   0  0  0  0  0  0  0  0  0  0  0  0
   -3.2480   15.5100   -1.1970 C   0  0  0  0  0  0  0  0  0  0  0  0
    0.0470   14.2310   -0.3040 C   0  0  0  0  0  0  0  0  0  0  0  0
   -4.6380   15.2110   -0.6840 C   0  0  0  0  0  0  0  0  0  0  0  0
   -5.6360   15.0260   -1.6300 C   0  0  0  0  0  0  0  0  0  0  0  0
   -4.9700   15.1100    0.6900 C   0  0  0  0  0  0  0  0  0  0  0  0
   -6.9350   14.7430   -1.2360 C   0  0  0  0  0  0  0  0  0  0  0  0
   -6.2820   14.8190    1.0980 C   0  0  0  0  0  0  0  0  0  0  0  0
   -6.7100   14.7020    2.4440 N   0  0  0  0  0  0  0  0  0  0  0  0
   -7.2550   14.6380    0.1150 C   0  0  0  0  0  0  0  0  0  0  0  0
   -7.8780   15.1990    3.0190 C   0  0  0  0  0  0  0  0  0  0  0  0
   -8.8720   15.5410    2.3870 O   0  0  0  0  0  0  0  0  0  0  0  0
   -7.7630   15.2580    4.4060 N   0  0  0  0  0  0  0  0  0  0  0  0
   -8.5280   16.0480    5.2990 C   0  0  0  0  0  0  0  0  0  0  0  0
   -9.1620   17.2020    4.8370 C   0  0  0  0  0  0  0  0  0  0  0  0
   -8.6960   15.7420    6.6450 C   0  0  0  0  0  0  0  0  0  0  0  0
   -9.9200   18.0270    5.5980 N   0  0  0  0  0  0  0  0  0  0  0  0
   -9.4700   16.5740    7.4570 C   0  0  0  0  0  0  0  0  0  0  0  0
  -10.0550   17.6930    6.8930 C   0  0  0  0  0  0  0  0  0  0  0  0
  2  1  1  1
  2  3  1  0
  2  4  1  0
  4  5  1  0
  3  6  1  0
  4  7  1  0
  5  8  2  0
  6  8  1  0
  7  9  1  0
  9 10  2  0
  9 11  1  0
 10 12  1  0
 11 13  2  0
 13 14  1  0
 12 15  2  0
 13 15  1  0
 14 16  1  0
 16 17  2  0
 16 18  1  0
 18 19  1  0
 19 20  2  0
 19 21  1  0
 20 22  1  0
 21 23  2  0
 22 24  2  0
 23 24  1  0
M  END
