x0685_0_A-x0628_0_A
     RDKit          3D

 24 25  0  0  0  0  0  0  0  0999 V2000
   -6.3190   15.1070    2.5380 N   0  0  0  0  0  0  0  0  0  0  0  0
   -7.7190   14.7170    2.5600 C   0  0  0  0  0  0  0  0  0  0  0  0
   -7.8740   13.2930    3.0660 C   0  0  0  0  0  0  0  0  0  0  0  0
   -5.6170   15.0590    1.3270 C   0  0  0  0  0  0  0  0  0  0  0  0
   -4.2290   15.2040    1.3660 C   0  0  0  0  0  0  0  0  0  0  0  0
   -6.2830   14.8890    0.1720 N   0  0  0  0  0  0  0  0  0  0  0  0
   -3.5010   15.1710    0.1850 C   0  0  0  0  0  0  0  0  0  0  0  0
   -5.5600   14.8630   -0.9600 C   0  0  0  0  0  0  0  0  0  0  0  0
   -4.1900   14.9960   -1.0070 C   0  0  0  0  0  0  0  0  0  0  0  0
   -3.5190   14.9360   -2.2490 C   0  0  0  0  0  0  0  0  0  0  0  0
   -2.9710   14.6660   -3.2680 C   0  0  0  0  0  0  0  0  0  0  0  0
   -2.3170   14.0670   -4.4330 C   0  0  0  0  0  0  0  0  0  0  0  0
   -2.2880   12.5470   -4.1930 C   0  0  0  0  0  0  0  0  0  0  0  0
   -1.4730   11.7580   -5.1580 C   0  0  0  0  0  0  0  0  0  0  0  0
   -1.8590   10.6180   -5.7050 N   0  0  0  0  0  0  0  0  0  0  0  0
   -0.2210   12.0680   -5.6270 N   0  0  0  0  0  0  0  0  0  0  0  0
    0.6420   13.2000   -5.3400 C   0  0  0  0  0  0  0  0  0  0  0  0
   -0.8080   10.2680   -6.5030 C   0  0  0  0  0  0  0  0  0  0  0  0
    0.2120   11.1290   -6.4890 N   0  0  0  0  0  0  0  0  0  0  0  0
   -0.8040    9.0380   -7.3140 C   0  0  0  0  0  0  0  0  0  0  0  0
    1.6870   12.9260   -4.2680 C   0  0  0  0  0  0  0  0  0  0  0  0
    1.0670   12.2830   -3.0610 C   0  0  0  0  0  0  0  0  0  0  0  0
    0.5920   11.1610   -2.9860 O   0  0  0  0  0  0  0  0  0  0  0  0
    1.0820   13.0900   -1.9890 O   0  0  0  0  0  0  0  0  0  0  0  0
  1  2  1  0
  2  3  1  0
  1  4  1  0
  4  5  2  0
  4  6  1  0
  5  7  1  0
  6  8  2  0
  7  9  2  0
  8  9  1  0
  9 10  1  0
 10 11  3  0
 11 12  1  0
 12 13  1  0
 13 14  1  0
 14 15  2  0
 14 16  1  0
 16 17  1  0
 15 18  1  0
 16 19  1  0
 18 19  2  0
 18 20  1  0
 17 21  1  0
 21 22  1  0
 22 23  2  0
 22 24  1  0
M  END
