x0685_1_A-x0926_0_A
     RDKit          3D

 22 23  0  0  0  0  0  0  0  0999 V2000
   -0.8810   10.9070   -4.9690 N   0  0  0  0  0  0  0  0  0  0  0  0
   -0.9670   12.3720   -4.9360 C   0  0  0  0  0  0  0  0  0  0  0  0
   -0.2060   13.1470   -3.8570 C   0  0  0  0  0  0  0  0  0  0  0  0
   -0.5600   10.4250   -6.3100 C   0  0  0  0  0  0  0  0  0  0  0  0
   -0.5900    8.8940   -6.3770 C   0  0  0  0  0  0  0  0  0  0  0  0
   -1.5200   10.9740   -7.3750 C   0  0  0  0  0  0  0  0  0  0  0  0
    0.6930   12.2730   -2.5620 S   0  0  0  0  0  0  0  0  0  0  0  0
   -0.0380    8.4520   -7.7280 C   0  0  0  0  0  0  0  0  0  0  0  0
   -1.0650   10.5480   -8.7660 C   0  0  0  0  0  0  0  0  0  0  0  0
    2.2410   12.4020   -2.9420 O   0  0  0  0  0  0  0  0  0  0  0  0
    0.2900   10.7050   -2.5830 O   0  0  0  0  0  0  0  0  0  0  0  0
    0.4010   12.9260   -1.0960 O   0  0  0  0  0  0  0  0  0  0  0  0
   -0.8630    9.0340   -8.8810 C   0  0  0  0  0  0  0  0  0  0  0  0
   -0.2370   14.2030   -0.8130 C   0  0  0  0  0  0  0  0  0  0  0  0
   -1.4350   14.4940   -1.7370 C   0  0  0  0  0  0  0  0  0  0  0  0
   -2.8110   14.9720   -1.1470 C   0  0  1  0  0  0  0  0  0  0  0  0
   -3.8900   14.2990   -1.8480 N   0  0  0  0  0  0  0  0  0  0  0  0
   -3.1330   15.0100    0.3340 C   0  0  0  0  0  0  0  0  0  0  0  0
   -4.4230   15.0350    0.7500 C   0  0  0  0  0  0  0  0  0  0  0  0
   -5.0860   14.9760   -1.5740 N   0  0  0  0  0  0  0  0  0  0  0  0
   -5.5100   15.0080   -0.2740 C   0  0  0  0  0  0  0  0  0  0  0  0
   -6.7010   14.9780    0.0160 O   0  0  0  0  0  0  0  0  0  0  0  0
  1  2  1  0
  2  3  1  0
  1  4  1  0
  4  5  1  0
  4  6  1  0
  3  7  1  0
  5  8  1  0
  6  9  1  0
  7 10  1  0
  7 11  1  0
  7 12  1  0
  8 13  1  0
  9 13  1  0
 12 14  1  0
 14 15  1  0
 16 15  1  1
 16 17  1  0
 16 18  1  0
 18 19  2  0
 17 20  1  0
 19 21  1  0
 20 21  1  0
 21 22  2  0
M  END
