x0685_1_A-x0626_0_A
     RDKit          3D

 26 27  0  0  0  0  0  0  0  0999 V2000
   -0.9390   10.5470   -4.9380 N   0  0  0  0  0  0  0  0  0  0  0  0
   -1.4320   11.8850   -4.5910 C   0  0  0  0  0  0  0  0  0  0  0  0
   -0.3210   12.7590   -4.0170 C   0  0  0  0  0  0  0  0  0  0  0  0
   -1.2830   10.0320   -6.2740 C   0  0  0  0  0  0  0  0  0  0  0  0
   -0.2000    9.0900   -6.8260 C   0  0  0  0  0  0  0  0  0  0  0  0
   -1.5030   11.1690   -7.2800 C   0  0  0  0  0  0  0  0  0  0  0  0
    0.6500   12.0270   -2.6990 S   0  0  0  0  0  0  0  0  0  0  0  0
   -0.5520    8.3860   -8.1210 C   0  0  0  0  0  0  0  0  0  0  0  0
   -1.0870   10.8050   -8.7110 C   0  0  0  0  0  0  0  0  0  0  0  0
    2.1730   12.1890   -3.1770 O   0  0  0  0  0  0  0  0  0  0  0  0
    0.2610   10.4640   -2.5670 O   0  0  0  0  0  0  0  0  0  0  0  0
    0.4190   12.8550   -1.3460 O   0  0  0  0  0  0  0  0  0  0  0  0
   -1.2700    9.3220   -9.0780 C   0  0  0  0  0  0  0  0  0  0  0  0
    1.1680   14.0590   -1.2250 C   0  0  0  0  0  0  0  0  0  0  0  0
    0.6510   14.9930   -0.1420 C   0  0  0  0  0  0  0  0  0  0  0  0
   -0.2370   14.3660    0.9040 C   0  0  0  0  0  0  0  0  0  0  0  0
   -1.6340   14.5550    0.5090 C   0  0  0  0  0  0  0  0  0  0  0  0
   -2.6530   14.6270    1.4350 N   0  0  0  0  0  0  0  0  0  0  0  0
   -2.0010   14.6750   -0.8120 C   0  0  0  0  0  0  0  0  0  0  0  0
   -3.7890   14.7940    0.7560 C   0  0  0  0  0  0  0  0  0  0  0  0
   -3.6730   14.8850   -0.9320 S   0  0  0  0  0  0  0  0  0  0  0  0
   -4.9840   14.8800    1.3730 N   0  0  0  0  0  0  0  0  0  0  0  0
   -6.2280   14.7010    0.8850 C   0  0  0  0  0  0  0  0  0  0  0  0
   -6.3630   14.8100   -0.3460 O   0  0  0  0  0  0  0  0  0  0  0  0
   -7.4340   14.3920    1.7220 C   0  0  0  0  0  0  0  0  0  0  0  0
   -8.7180   14.6360    0.9500 C   0  0  0  0  0  0  0  0  0  0  0  0
  1  2  1  0
  2  3  1  0
  1  4  1  0
  4  5  1  0
  4  6  1  0
  3  7  1  0
  5  8  1  0
  6  9  1  0
  7 10  1  0
  7 11  1  0
  7 12  1  0
  8 13  1  0
  9 13  1  0
 12 14  1  0
 14 15  1  0
 15 16  1  0
 16 17  1  0
 17 18  1  0
 17 19  2  0
 18 20  2  0
 19 21  1  0
 20 21  1  0
 20 22  1  0
 22 23  1  0
 23 24  2  0
 23 25  1  0
 25 26  1  0
M  END
