x0689_0_A-x0421_0_A
     RDKit          3D

 19 21  0  0  0  0  0  0  0  0999 V2000
   -3.1860   14.8900    2.4440 N   0  0  0  0  0  0  0  0  0  0  0  0
   -4.2820   15.6740    2.0600 C   0  0  0  0  0  0  0  0  0  0  0  0
   -4.5320   15.2860    0.7710 N   0  0  0  0  0  0  0  0  0  0  0  0
   -2.2050   14.6590    1.4920 C   0  0  0  0  0  0  0  0  0  0  0  0
   -2.2800   14.8410    0.1630 N   0  0  0  0  0  0  0  0  0  0  0  0
   -1.1600   14.2220    2.0850 N   0  0  0  0  0  0  0  0  0  0  0  0
   -1.1660   14.5350   -0.5540 C   0  0  0  0  0  0  0  0  0  0  0  0
   -0.1160   13.9230    1.3720 C   0  0  0  0  0  0  0  0  0  0  0  0
   -3.6030   15.3730   -0.1580 C   0  0  0  0  0  0  0  0  0  0  0  0
   -5.6450   14.7880    0.2830 C   0  0  0  0  0  0  0  0  0  0  0  0
   -0.0300   14.0590    0.0200 C   0  0  0  0  0  0  0  0  0  0  0  0
   -4.1740   14.9140   -1.2800 C   0  0  0  0  0  0  0  0  0  0  0  0
   -5.4970   14.5330   -1.0070 N   0  0  0  0  0  0  0  0  0  0  0  0
   -6.8860   14.5690    1.1870 C   0  0  0  0  0  0  0  0  0  0  0  0
   -3.4730   14.8460   -2.5490 C   0  0  0  0  0  0  0  0  0  0  0  0
   -8.2550   14.5740    0.5860 C   0  0  0  0  0  0  0  0  0  0  0  0
   -7.6490   13.2880    1.0780 C   0  0  0  0  0  0  0  0  0  0  0  0
   -4.3060   14.8550   -3.6150 N   0  0  0  0  0  0  0  0  0  0  0  0
   -2.2540   14.7910   -2.6660 O   0  0  0  0  0  0  0  0  0  0  0  0
  1  2  1  0
  2  3  1  0
  1  4  1  0
  4  5  2  0
  4  6  1  0
  5  7  1  0
  6  8  2  0
  3  9  1  0
  3 10  1  0
  7 11  2  0
  8 11  1  0
  9 12  2  0
 10 13  2  0
 12 13  1  0
 10 14  1  0
 12 15  1  0
 14 16  1  0
 14 17  1  0
 16 17  1  0
 15 18  1  0
 15 19  2  0
M  END
