x0685_1_A-x0371_0_A
     RDKit          3D

 33 36  0  0  0  0  0  0  0  0999 V2000
   -1.3850   10.6330   -4.8520 N   0  0  0  0  0  0  0  0  0  0  0  0
   -1.4500   12.0770   -4.5040 C   0  0  0  0  0  0  0  0  0  0  0  0
   -0.0700   12.6740   -4.2410 C   0  0  0  0  0  0  0  0  0  0  0  0
   -0.7420   10.4080   -6.1670 C   0  0  0  0  0  0  0  0  0  0  0  0
   -0.5770    8.8990   -6.4060 C   0  0  0  0  0  0  0  0  0  0  0  0
   -1.5600   11.0300   -7.3180 C   0  0  0  0  0  0  0  0  0  0  0  0
    0.5900   12.2120   -2.6390 S   0  0  0  0  0  0  0  0  0  0  0  0
    0.0350    8.5900   -7.7710 C   0  0  0  0  0  0  0  0  0  0  0  0
   -1.0380   10.6940   -8.7210 C   0  0  0  0  0  0  0  0  0  0  0  0
    2.1750   12.3870   -2.8110 O   0  0  0  0  0  0  0  0  0  0  0  0
    0.2160   10.6570   -2.3980 O   0  0  0  0  0  0  0  0  0  0  0  0
   -0.0220   13.2240   -1.5220 O   0  0  0  0  0  0  0  0  0  0  0  0
   -0.7600    9.2080   -8.9240 C   0  0  0  0  0  0  0  0  0  0  0  0
   -0.5390   14.5170   -1.8970 C   0  0  0  0  0  0  0  0  0  0  0  0
   -1.1680   15.2640   -0.6990 C   0  0  0  0  0  0  0  0  0  0  0  0
   -2.6970   15.1860   -0.6860 C   0  0  0  0  0  0  0  0  0  0  0  0
   -3.3710   14.8430    0.5050 C   0  0  0  0  0  0  0  0  0  0  0  0
   -3.4390   15.4440   -1.8550 C   0  0  0  0  0  0  0  0  0  0  0  0
   -4.7640   14.7670    0.4540 C   0  0  0  0  0  0  0  0  0  0  0  0
   -4.8410   15.3620   -1.8690 C   0  0  0  0  0  0  0  0  0  0  0  0
   -5.7010   14.4580    1.4030 N   0  0  0  0  0  0  0  0  0  0  0  0
   -5.5100   15.0140   -0.6920 C   0  0  0  0  0  0  0  0  0  0  0  0
   -6.9420   14.5180    0.8270 C   0  0  0  0  0  0  0  0  0  0  0  0
   -6.8560   14.8580   -0.4490 N   0  0  0  0  0  0  0  0  0  0  0  0
   -8.1790   14.2240    1.5990 C   0  0  0  0  0  0  0  0  0  0  0  0
   -7.9140   14.5440    2.9770 N   0  0  0  0  0  0  0  0  0  0  0  0
   -8.6790   15.5000    3.6120 C   0  0  0  0  0  0  0  0  0  0  0  0
   -9.3820   16.2760    2.9630 O   0  0  0  0  0  0  0  0  0  0  0  0
   -8.5960   15.5130    5.0540 C   0  0  0  0  0  0  0  0  0  0  0  0
   -8.0260   14.4320    5.6690 O   0  0  0  0  0  0  0  0  0  0  0  0
   -8.9850   16.4240    6.0180 C   0  0  0  0  0  0  0  0  0  0  0  0
   -8.6340   15.8660    7.2730 C   0  0  0  0  0  0  0  0  0  0  0  0
   -8.0510   14.6540    7.0040 C   0  0  0  0  0  0  0  0  0  0  0  0
  1  2  1  0
  2  3  1  0
  1  4  1  0
  4  5  1  0
  4  6  1  0
  3  7  1  0
  5  8  1  0
  6  9  1  0
  7 10  1  0
  7 11  1  0
  7 12  1  0
  8 13  1  0
  9 13  1  0
 12 14  1  0
 14 15  1  0
 15 16  1  0
 16 17  2  0
 16 18  1  0
 17 19  1  0
 18 20  2  0
 19 21  1  0
 19 22  2  0
 20 22  1  0
 21 23  1  0
 22 24  1  0
 23 24  2  0
 23 25  1  0
 25 26  1  0
 26 27  1  0
 27 28  2  0
 27 29  1  0
 29 30  1  0
 29 31  2  0
 31 32  1  0
 30 33  1  0
 32 33  2  0
M  END
