x0685_0_A-x1012_0_A
     RDKit          3D

 24 25  0  0  0  0  0  0  0  0999 V2000
   -5.9820   14.8840    2.6050 N   0  0  0  0  0  0  0  0  0  0  0  0
   -6.9810   13.8330    2.7120 C   0  0  0  0  0  0  0  0  0  0  0  0
   -8.1600   14.2570    3.5550 C   0  0  0  0  0  0  0  0  0  0  0  0
   -5.3860   14.9610    1.3550 C   0  0  0  0  0  0  0  0  0  0  0  0
   -4.0000   15.0550    1.2780 C   0  0  0  0  0  0  0  0  0  0  0  0
   -6.1710   14.9500    0.2700 N   0  0  0  0  0  0  0  0  0  0  0  0
   -3.3990   15.1550    0.0280 C   0  0  0  0  0  0  0  0  0  0  0  0
   -5.5730   15.0530   -0.9220 C   0  0  0  0  0  0  0  0  0  0  0  0
   -4.2150   15.1600   -1.0970 C   0  0  0  0  0  0  0  0  0  0  0  0
   -3.7290   15.2810   -2.4170 C   0  0  0  0  0  0  0  0  0  0  0  0
   -3.4380   15.4940   -3.5520 C   0  0  0  0  0  0  0  0  0  0  0  0
   -3.1640   15.8560   -4.9410 C   0  0  0  0  0  0  0  0  0  0  0  0
   -2.4660   17.1310   -4.8590 N   0  0  0  0  0  0  0  0  0  0  0  0
   -1.2070   17.0080   -4.8630 C   0  0  0  0  0  0  0  0  0  0  0  0
   -0.4840   18.1500   -4.8180 N   0  0  0  0  0  0  0  0  0  0  0  0
   -0.4990   15.8400   -4.9120 N   0  0  0  0  0  0  0  0  0  0  0  0
   -1.1930   14.5610   -5.1150 C   0  0  0  0  0  0  0  0  0  0  0  0
    0.8940   15.7430   -4.4830 C   0  0  0  0  0  0  0  0  0  0  0  0
   -1.1470   13.7240   -3.8540 C   0  0  0  0  0  0  0  0  0  0  0  0
    1.0800   14.7240   -3.3370 C   0  0  0  0  0  0  0  0  0  0  0  0
    0.3010   13.3960   -3.5420 C   0  0  0  0  0  0  0  0  0  0  0  0
    0.3840   12.4520   -2.3540 C   0  0  0  0  0  0  0  0  0  0  0  0
    0.1390   11.1700   -2.6790 O   0  0  0  0  0  0  0  0  0  0  0  0
    0.6200   12.7480   -1.1980 O   0  0  0  0  0  0  0  0  0  0  0  0
  1  2  1  0
  2  3  1  0
  1  4  1  0
  4  5  2  0
  4  6  1  0
  5  7  1  0
  6  8  2  0
  7  9  2  0
  8  9  1  0
  9 10  1  0
 10 11  3  0
 11 12  1  0
 12 13  1  0
 13 14  2  3
 14 15  1  0
 14 16  1  0
 16 17  1  0
 16 18  1  0
 17 19  1  0
 18 20  1  0
 19 21  1  0
 20 21  1  0
 21 22  1  0
 22 23  1  0
 22 24  2  0
M  END
