x0689_0_A_α-x0895_1_A_α
     RDKit          3D

 11 12  0  0  0  0  0  0  0  0999 V2000
   -2.3000   14.5350    0.7950 C   0  0  0  0  0  0  0  0  0  0  0  0
   -1.3680   14.4830    1.7320 N   0  0  0  0  0  0  0  0  0  0  0  0
   -0.1200   14.4380    1.3010 C   0  0  0  0  0  0  0  0  0  0  0  0
   -2.0620   14.5360   -0.5230 N   0  0  0  0  0  0  0  0  0  0  0  0
   -3.5580   14.6100    1.1830 N   0  0  0  0  0  0  0  0  0  0  0  0
   -0.7880   14.4870   -0.9120 C   0  0  0  0  0  0  0  0  0  0  0  0
   -4.1140   15.8720    0.9390 C   0  0  0  0  0  0  0  0  0  0  0  0
   -4.5250   13.7490    0.5890 C   0  0  0  0  0  0  0  0  0  0  0  0
    0.2440   14.4400   -0.0290 C   0  0  0  0  0  0  0  0  0  0  0  0
   -4.8640   14.3140   -0.7300 N   0  0  0  0  0  0  0  0  0  0  0  0
   -4.4160   15.7120   -0.5650 C   0  0  0  0  0  0  0  0  0  0  0  0
  1  2  2  0
  2  3  1  0
  1  4  1  0
  1  5  1  0
  4  6  2  0
  5  7  1  0
  5  8  1  0
  3  9  2  0
  6  9  1  0
  8 10  1  0
  7 11  1  0
 10 11  1  0
M  END
