x0689_0_A-x0950_0_A
     RDKit          3D

 15 15  0  0  0  0  0  0  0  0999 V2000
   -3.5960   15.4770    1.7090 N   0  0  0  0  0  0  0  0  0  0  0  0
   -4.8540   15.0230    1.1780 C   0  0  0  0  0  0  0  0  0  0  0  0
   -2.5000   14.9740    1.0530 C   0  0  0  0  0  0  0  0  0  0  0  0
   -2.6130   14.9410   -0.2780 N   0  0  0  0  0  0  0  0  0  0  0  0
   -1.4200   14.5640    1.7230 N   0  0  0  0  0  0  0  0  0  0  0  0
   -1.5700   14.4650   -0.9660 C   0  0  0  0  0  0  0  0  0  0  0  0
   -0.4010   14.0930    0.9950 C   0  0  0  0  0  0  0  0  0  0  0  0
   -0.4180   14.0170   -0.3840 C   0  0  0  0  0  0  0  0  0  0  0  0
    0.6900   13.4890   -1.2110 C   0  0  0  0  0  0  0  0  0  0  0  0
    0.3380   13.5210   -2.5780 O   0  0  0  0  0  0  0  0  0  0  0  0
    0.6850   12.4210   -3.2940 C   0  0  0  0  0  0  0  0  0  0  0  0
    1.4170   12.8600   -4.5500 C   0  0  1  0  0  0  0  0  0  0  0  0
    0.4630   11.2490   -2.9860 O   0  0  0  0  0  0  0  0  0  0  0  0
    2.8990   12.9530   -4.2780 C   0  0  0  0  0  0  0  0  0  0  0  0
    1.1710   11.9740   -5.6410 O   0  0  0  0  0  0  0  0  0  0  0  0
  1  2  1  0
  1  3  1  0
  3  4  2  0
  3  5  1  0
  4  6  1  0
  5  7  2  0
  6  8  2  0
  7  8  1  0
  8  9  1  0
  9 10  1  0
 10 11  1  0
 11 12  1  0
 11 13  2  0
 12 14  1  1
 12 15  1  0
M  END
