x0685_1_A-x0926_0_A
     RDKit          3D

 22 23  0  0  0  0  0  0  0  0999 V2000
   -1.3840   10.5670   -4.8990 N   0  0  0  0  0  0  0  0  0  0  0  0
   -1.5130   11.9580   -4.4520 C   0  0  0  0  0  0  0  0  0  0  0  0
   -0.2060   12.6530   -4.0720 C   0  0  0  0  0  0  0  0  0  0  0  0
   -0.7570   10.3790   -6.2100 C   0  0  0  0  0  0  0  0  0  0  0  0
   -0.5860    8.8690   -6.4490 C   0  0  0  0  0  0  0  0  0  0  0  0
   -1.5960   10.9950   -7.3450 C   0  0  0  0  0  0  0  0  0  0  0  0
    0.6260   12.0120   -2.6150 S   0  0  0  0  0  0  0  0  0  0  0  0
    0.0820    8.6060   -7.7940 C   0  0  0  0  0  0  0  0  0  0  0  0
   -1.0010   10.6940   -8.7190 C   0  0  0  0  0  0  0  0  0  0  0  0
    2.1820   12.3310   -2.8240 O   0  0  0  0  0  0  0  0  0  0  0  0
    0.3800   10.4210   -2.5670 O   0  0  0  0  0  0  0  0  0  0  0  0
    0.0590   12.7140   -1.2830 O   0  0  0  0  0  0  0  0  0  0  0  0
   -0.7440    9.2030   -8.9300 C   0  0  0  0  0  0  0  0  0  0  0  0
   -0.9790   13.6820   -1.4090 C   0  0  0  0  0  0  0  0  0  0  0  0
   -1.9640   13.5800   -0.2470 C   0  0  0  0  0  0  0  0  0  0  0  0
   -2.6820   14.9040    0.0230 C   0  0  1  0  0  0  0  0  0  0  0  0
   -3.2810   15.4190   -1.2350 N   0  0  0  0  0  0  0  0  0  0  0  0
   -3.6570   14.9480    1.1580 C   0  0  0  0  0  0  0  0  0  0  0  0
   -4.9790   15.0320    0.9860 C   0  0  0  0  0  0  0  0  0  0  0  0
   -4.6450   15.0810   -1.4120 N   0  0  0  0  0  0  0  0  0  0  0  0
   -5.5510   15.0790   -0.3770 C   0  0  0  0  0  0  0  0  0  0  0  0
   -6.7650   15.0990   -0.5570 O   0  0  0  0  0  0  0  0  0  0  0  0
  1  2  1  0
  2  3  1  0
  1  4  1  0
  4  5  1  0
  4  6  1  0
  3  7  1  0
  5  8  1  0
  6  9  1  0
  7 10  1  0
  7 11  1  0
  7 12  1  0
  8 13  1  0
  9 13  1  0
 12 14  1  0
 14 15  1  0
 16 15  1  6
 16 17  1  0
 16 18  1  0
 18 19  2  0
 17 20  1  0
 19 21  1  0
 20 21  1  0
 21 22  2  0
M  END
