x0685_1_A_α-x0950_1_A_α
     RDKit          3D

 15 15  0  0  0  0  0  0  0  0999 V2000
   -1.5840   10.7890   -5.0070 N   0  0  0  0  0  0  0  0  0  0  0  0
   -1.3150   12.1380   -4.4850 C   0  0  0  0  0  0  0  0  0  0  0  0
    0.1720   12.5620   -4.3200 C   0  0  2  0  0  0  0  0  0  0  0  0
   -0.9830   10.3630   -6.2740 C   0  0  0  0  0  0  0  0  0  0  0  0
   -0.6750    8.8600   -6.4310 C   0  0  0  0  0  0  0  0  0  0  0  0
   -1.7370   10.9320   -7.4820 C   0  0  0  0  0  0  0  0  0  0  0  0
    0.7450   12.0360   -2.6360 S   0  0  0  0  0  0  0  0  0  0  0  0
    0.4880   14.0410   -4.5250 C   0  0  0  0  0  0  0  0  0  0  0  0
    0.9760   11.8500   -5.2580 O   0  0  0  0  0  0  0  0  0  0  0  0
    0.0660    8.5930   -7.7420 C   0  0  0  0  0  0  0  0  0  0  0  0
   -1.0160   10.6190   -8.7910 C   0  0  0  0  0  0  0  0  0  0  0  0
    2.3070   12.3670   -2.6730 O   0  0  0  0  0  0  0  0  0  0  0  0
    0.4750   10.4510   -2.5270 O   0  0  0  0  0  0  0  0  0  0  0  0
    0.0380   12.7900   -1.4140 O   0  0  0  0  0  0  0  0  0  0  0  0
   -0.7200    9.1270   -8.9380 C   0  0  0  0  0  0  0  0  0  0  0  0
  1  2  1  0
  2  3  1  0
  1  4  1  0
  4  5  1  0
  4  6  1  0
  3  7  1  0
  3  8  1  1
  3  9  1  0
  5 10  1  0
  6 11  1  0
  7 12  1  0
  7 13  1  0
  7 14  1  0
 10 15  1  0
 11 15  1  0
M  END
