x0689_0_A-x0962_2_B
     RDKit          3D

 17 18  0  0  0  0  0  0  0  0999 V2000
   -3.7020   14.4140    1.6930 N   0  0  0  0  0  0  0  0  0  0  0  0
   -4.9920   14.6700    1.0850 C   0  0  0  0  0  0  0  0  0  0  0  0
   -6.0760   13.6830    1.5810 C   0  0  0  0  0  0  0  0  0  0  0  0
   -2.5070   14.5070    1.0130 C   0  0  0  0  0  0  0  0  0  0  0  0
   -2.4480   14.5560   -0.3270 N   0  0  0  0  0  0  0  0  0  0  0  0
   -1.4370   14.5310    1.7970 N   0  0  0  0  0  0  0  0  0  0  0  0
   -7.5480   14.1280    1.4440 C   0  0  0  0  0  0  0  0  0  0  0  0
   -1.2200   14.6330   -0.8820 C   0  0  0  0  0  0  0  0  0  0  0  0
   -0.2440   14.6120    1.2060 C   0  0  0  0  0  0  0  0  0  0  0  0
   -0.0610   14.6670   -0.1480 C   0  0  0  0  0  0  0  0  0  0  0  0
   -8.0920   14.8740    2.6230 C   0  0  0  0  0  0  0  0  0  0  0  0
   -9.1380   15.7640    2.7170 C   0  0  0  0  0  0  0  0  0  0  0  0
   -7.5190   14.7200    3.8530 N   0  0  0  0  0  0  0  0  0  0  0  0
  -10.0170   16.2210    1.7190 C   0  0  0  0  0  0  0  0  0  0  0  0
   -9.1720   16.1520    4.0320 N   0  0  0  0  0  0  0  0  0  0  0  0
   -8.1720   15.4940    4.6780 C   0  0  0  0  0  0  0  0  0  0  0  0
  -10.7640   16.5800    0.9130 N   0  0  0  0  0  0  0  0  0  0  0  0
  1  2  1  0
  2  3  1  0
  1  4  1  0
  4  5  2  0
  4  6  1  0
  3  7  1  0
  5  8  1  0
  6  9  2  0
  8 10  2  0
  9 10  1  0
  7 11  1  0
 11 12  2  0
 11 13  1  0
 12 14  1  0
 12 15  1  0
 13 16  2  0
 15 16  1  0
 14 17  3  0
M  END
