x0685_1_A-x0591_0_A
     RDKit          3D

 26 27  0  0  0  0  0  0  0  0999 V2000
   -1.5030   11.5190   -5.2200 N   0  0  0  0  0  0  0  0  0  0  0  0
   -0.8710   12.6970   -4.8540 C   0  0  0  0  0  0  0  0  0  0  0  0
    0.5910   12.7980   -5.0630 C   0  0  0  0  0  0  0  0  0  0  0  0
   -1.0150   10.7530   -6.3800 C   0  0  0  0  0  0  0  0  0  0  0  0
   -1.7650   13.9960   -4.0870 S   0  0  1  0  0  0  0  0  0  0  0  0
   -0.8460    9.2380   -6.1940 C   0  0  0  0  0  0  0  0  0  0  0  0
   -1.8870   11.0230   -7.6000 C   0  0  0  0  0  0  0  0  0  0  0  0
    1.1800   12.4080   -3.3890 S   0  0  0  0  0  0  0  0  0  0  0  0
   -1.1190   15.4790   -3.6770 N   0  0  0  0  0  0  0  0  0  0  0  0
   -3.1720   13.1900   -4.2930 O   0  0  0  0  0  0  0  0  0  0  0  0
   -0.1550    8.6470   -7.4310 C   0  0  0  0  0  0  0  0  0  0  0  0
   -1.2020   10.4930   -8.8500 C   0  0  0  0  0  0  0  0  0  0  0  0
   -3.3120   14.3730   -3.4260 C   0  0  0  0  0  0  0  0  0  0  0  0
    2.7700   12.3880   -3.3760 O   0  0  0  0  0  0  0  0  0  0  0  0
    0.5710   10.9970   -2.9210 O   0  0  0  0  0  0  0  0  0  0  0  0
    0.6530   13.5170   -2.3630 O   0  0  0  0  0  0  0  0  0  0  0  0
   -0.8930    8.9980   -8.7300 C   0  0  0  0  0  0  0  0  0  0  0  0
   -3.1540   14.1800   -2.0610 C   0  0  0  0  0  0  0  0  0  0  0  0
   -4.5460   14.7780   -3.9410 C   0  0  0  0  0  0  0  0  0  0  0  0
   -4.1650   14.3620   -1.1680 C   0  0  0  0  0  0  0  0  0  0  0  0
   -5.6060   14.9650   -3.0020 C   0  0  0  0  0  0  0  0  0  0  0  0
   -5.4080   14.7530   -1.6130 C   0  0  0  0  0  0  0  0  0  0  0  0
   -6.4740   14.9210   -0.5920 C   0  0  0  0  0  0  0  0  0  0  0  0
   -6.0430   14.7400    0.7150 N   0  0  0  0  0  0  0  0  0  0  0  0
   -7.6290   15.1790   -0.9020 O   0  0  0  0  0  0  0  0  0  0  0  0
   -6.9500   14.4570    1.8010 C   0  0  0  0  0  0  0  0  0  0  0  0
  1  2  1  0
  2  3  1  0
  1  4  1  0
  2  5  2  0
  4  6  1  0
  4  7  1  0
  3  8  1  0
  5  9  1  6
  5 10  2  0
  6 11  1  0
  7 12  1  0
  5 13  1  0
  8 14  1  0
  8 15  1  0
  8 16  1  0
 11 17  1  0
 12 17  1  0
 13 18  2  0
 13 19  1  0
 18 20  1  0
 19 21  2  0
 20 22  2  0
 21 22  1  0
 22 23  1  0
 23 24  1  0
 23 25  2  0
 24 26  1  0
M  END
