x0681_0_A-x0685_1_A
     RDKit          3D

 27 29  0  0  0  0  0  0  0  0999 V2000
   -4.2120   15.7450   -2.3210 N   0  0  0  0  0  0  0  0  0  0  0  0
   -3.4140   14.7620   -1.8290 C   0  0  0  0  0  0  0  0  0  0  0  0
   -2.4890   14.1460   -2.4640 N   0  0  0  0  0  0  0  0  0  0  0  0
   -3.6250   14.3120   -0.3830 C   0  0  2  0  0  0  0  0  0  0  0  0
   -1.7520   13.0840   -1.7720 C   0  0  0  0  0  0  0  0  0  0  0  0
   -4.7360   13.3120   -0.3450 C   0  0  0  0  0  0  0  0  0  0  0  0
   -3.8900   15.5210    0.5290 C   0  0  0  0  0  0  0  0  0  0  0  0
   -0.5780   13.6490   -0.9860 C   0  0  0  0  0  0  0  0  0  0  0  0
   -5.7250   13.3680    0.5850 N   0  0  0  0  0  0  0  0  0  0  0  0
   -4.4640   15.0560    1.8490 C   0  0  0  0  0  0  0  0  0  0  0  0
   -4.9240   12.2880   -1.1540 N   0  0  0  0  0  0  0  0  0  0  0  0
    0.6680   13.3040   -1.6000 O   0  0  0  0  0  0  0  0  0  0  0  0
   -5.8110   14.3740    1.6100 C   0  0  0  0  0  0  0  0  0  0  0  0
   -6.5880   12.3380    0.3740 C   0  0  0  0  0  0  0  0  0  0  0  0
   -6.0690   11.6790   -0.7170 C   0  0  0  0  0  0  0  0  0  0  0  0
    0.8110   12.2000   -2.7770 S   0  0  0  0  0  0  0  0  0  0  0  0
   -0.0420   12.7640   -4.2520 C   0  0  0  0  0  0  0  0  0  0  0  0
    2.3380   12.1300   -3.2490 O   0  0  0  0  0  0  0  0  0  0  0  0
    0.2660   10.7300   -2.3720 O   0  0  0  0  0  0  0  0  0  0  0  0
   -1.3600   12.0620   -4.5940 C   0  0  0  0  0  0  0  0  0  0  0  0
   -1.2070   10.6270   -4.8840 N   0  0  0  0  0  0  0  0  0  0  0  0
   -0.6700   10.3470   -6.2250 C   0  0  0  0  0  0  0  0  0  0  0  0
   -0.5460    8.8280   -6.4580 C   0  0  0  0  0  0  0  0  0  0  0  0
   -1.5450   11.0110   -7.3060 C   0  0  0  0  0  0  0  0  0  0  0  0
    0.0570    8.5600   -7.8290 C   0  0  0  0  0  0  0  0  0  0  0  0
   -1.0430   10.7090   -8.7170 C   0  0  0  0  0  0  0  0  0  0  0  0
   -0.7870    9.2100   -8.9300 C   0  0  0  0  0  0  0  0  0  0  0  0
  1  2  1  0
  2  3  2  3
  4  2  1  6
  3  5  1  0
  4  6  1  0
  4  7  1  0
  5  8  1  0
  6  9  1  0
  7 10  1  0
  6 11  2  0
  8 12  1  0
  9 13  1  0
 10 13  1  0
  9 14  1  0
 11 15  1  0
 14 15  2  0
 16 12  1  0
 16 17  1  0
 16 18  1  0
 16 19  1  0
 17 20  1  0
 20 21  1  0
 21 22  1  0
 22 23  1  0
 22 24  1  0
 23 25  1  0
 24 26  1  0
 25 27  1  0
 26 27  1  0
M  END
