x0681_0_A_α-x0104_0_A_α
     RDKit          3D

 21 23  0  0  0  0  0  0  0  0999 V2000
   -4.5320   15.4560   -2.3760 N   0  0  0  0  0  0  0  0  0  0  0  0
   -3.4530   14.8060   -1.8520 C   0  0  0  0  0  0  0  0  0  0  0  0
   -2.4290   14.6670   -2.5100 O   0  0  0  0  0  0  0  0  0  0  0  0
   -3.6520   14.2960   -0.4290 C   0  0  2  0  0  0  0  0  0  0  0  0
   -4.7600   13.2890   -0.4180 C   0  0  0  0  0  0  0  0  0  0  0  0
   -3.9820   15.4060    0.5520 C   0  0  0  0  0  0  0  0  0  0  0  0
   -5.6090   13.1130    0.6580 N   0  0  0  0  0  0  0  0  0  0  0  0
   -4.3050   14.7960    1.8990 C   0  0  0  0  0  0  0  0  0  0  0  0
   -5.0660   12.4640   -1.3970 N   0  0  0  0  0  0  0  0  0  0  0  0
   -5.5490   13.8610    1.9120 C   0  0  1  0  0  0  0  0  0  0  0  0
   -6.4870   12.1280    0.3280 C   0  0  0  0  0  0  0  0  0  0  0  0
   -6.1360   11.7420   -0.9410 C   0  0  0  0  0  0  0  0  0  0  0  0
   -6.7100   14.8260    2.1780 C   0  0  0  0  0  0  0  0  0  0  0  0
   -7.9890   14.4960    2.9540 C   0  0  0  0  0  0  0  0  0  0  0  0
   -7.9210   14.7620    4.3200 N   0  0  0  0  0  0  0  0  0  0  0  0
   -8.9690   14.0850    2.3520 O   0  0  0  0  0  0  0  0  0  0  0  0
   -9.0340   14.9020    5.1600 C   0  0  0  0  0  0  0  0  0  0  0  0
   -9.0190   15.0900    6.5320 C   0  0  0  0  0  0  0  0  0  0  0  0
  -10.6300   14.8530    4.5650 S   0  0  0  0  0  0  0  0  0  0  0  0
  -10.3400   15.1920    7.0840 C   0  0  0  0  0  0  0  0  0  0  0  0
  -11.3120   15.0790    6.1190 C   0  0  0  0  0  0  0  0  0  0  0  0
  1  2  1  0
  2  3  2  0
  4  2  1  6
  4  5  1  0
  4  6  1  0
  5  7  1  0
  6  8  1  0
  5  9  2  0
  7 10  1  0
  8 10  1  0
  7 11  1  0
  9 12  1  0
 11 12  2  0
 10 13  1  6
 13 14  1  0
 14 15  1  0
 14 16  2  0
 15 17  1  0
 17 18  2  0
 17 19  1  0
 18 20  1  0
 19 21  1  0
 20 21  2  0
M  END
