x0685_1_A-x0962_0_A
     RDKit          3D

 22 23  0  0  0  0  0  0  0  0999 V2000
   -1.4890   10.5410   -4.8800 N   0  0  0  0  0  0  0  0  0  0  0  0
   -1.5030   11.9400   -4.4170 C   0  0  0  0  0  0  0  0  0  0  0  0
   -0.1000   12.5050   -4.2140 C   0  0  0  0  0  0  0  0  0  0  0  0
   -0.7980   10.3650   -6.1750 C   0  0  0  0  0  0  0  0  0  0  0  0
   -0.5840    8.8620   -6.4240 C   0  0  0  0  0  0  0  0  0  0  0  0
   -1.5790   11.0030   -7.3460 C   0  0  0  0  0  0  0  0  0  0  0  0
    0.7500   11.9700   -2.7310 S   0  0  0  0  0  0  0  0  0  0  0  0
    0.0510    8.5900   -7.7840 C   0  0  0  0  0  0  0  0  0  0  0  0
   -1.0020   10.7010   -8.7300 C   0  0  0  0  0  0  0  0  0  0  0  0
    2.3060   12.2170   -3.0290 O   0  0  0  0  0  0  0  0  0  0  0  0
    0.4240   10.4010   -2.5630 O   0  0  0  0  0  0  0  0  0  0  0  0
    0.2510   12.7520   -1.4280 O   0  0  0  0  0  0  0  0  0  0  0  0
   -0.7420    9.2120   -8.9330 C   0  0  0  0  0  0  0  0  0  0  0  0
    0.4150   14.1630   -1.4280 C   0  0  0  0  0  0  0  0  0  0  0  0
   -0.5360   14.7550   -2.4640 C   0  0  0  0  0  0  0  0  0  0  0  0
   -1.8810   14.8060   -1.8880 C   0  0  0  0  0  0  0  0  0  0  0  0
   -2.8760   14.8720   -1.2510 C   0  0  0  0  0  0  0  0  0  0  0  0
   -3.9000   14.9650   -0.3050 C   0  0  0  0  0  0  0  0  0  0  0  0
   -3.6630   15.3460    0.9800 N   0  0  0  0  0  0  0  0  0  0  0  0
   -5.2440   14.7350   -0.3850 C   0  0  0  0  0  0  0  0  0  0  0  0
   -4.8560   15.3290    1.6270 C   0  0  0  0  0  0  0  0  0  0  0  0
   -5.8370   14.9620    0.8310 N   0  0  0  0  0  0  0  0  0  0  0  0
  1  2  1  0
  2  3  1  0
  1  4  1  0
  4  5  1  0
  4  6  1  0
  3  7  1  0
  5  8  1  0
  6  9  1  0
  7 10  1  0
  7 11  1  0
  7 12  1  0
  8 13  1  0
  9 13  1  0
 12 14  1  0
 14 15  1  0
 15 16  1  0
 16 17  3  0
 17 18  1  0
 18 19  1  0
 18 20  2  0
 19 21  1  0
 20 22  1  0
 21 22  2  0
M  END
