x0689_0_A-x0855_0_A
     RDKit          3D

 19 20  0  0  0  0  0  0  0  0999 V2000
   -3.6180   15.2090    1.6770 N   0  0  0  0  0  0  0  0  0  0  0  0
   -4.7700   15.3530    0.8320 C   0  0  0  0  0  0  0  0  0  0  0  0
   -2.5030   14.8260    0.9620 C   0  0  0  0  0  0  0  0  0  0  0  0
   -2.5550   14.8370   -0.3760 N   0  0  0  0  0  0  0  0  0  0  0  0
   -1.4290   14.4640    1.6640 N   0  0  0  0  0  0  0  0  0  0  0  0
   -1.4590   14.4570   -1.0500 C   0  0  0  0  0  0  0  0  0  0  0  0
   -0.3550   14.0870    0.9470 C   0  0  0  0  0  0  0  0  0  0  0  0
   -0.3030   14.0590   -0.4440 C   0  0  0  0  0  0  0  0  0  0  0  0
    0.8950   13.6200   -1.2320 C   0  0  0  0  0  0  0  0  0  0  0  0
    0.7090   13.6610   -2.6520 O   0  0  0  0  0  0  0  0  0  0  0  0
    0.7470   12.4440   -3.2910 C   0  0  0  0  0  0  0  0  0  0  0  0
    0.8660   11.3600   -2.7300 O   0  0  0  0  0  0  0  0  0  0  0  0
    0.5990   12.6410   -4.7710 C   0  0  0  0  0  0  0  0  0  0  0  0
   -0.4210   11.7340   -5.2420 N   0  0  0  0  0  0  0  0  0  0  0  0
   -0.2960   10.7530   -6.1790 C   0  0  0  0  0  0  0  0  0  0  0  0
   -1.6630   11.8250   -4.7140 N   0  0  0  0  0  0  0  0  0  0  0  0
   -1.5310   10.1700   -6.2530 C   0  0  0  0  0  0  0  0  0  0  0  0
   -2.3390   10.8610   -5.3400 C   0  0  0  0  0  0  0  0  0  0  0  0
   -2.0730    8.7500   -7.3280 Br  0  0  0  0  0  0  0  0  0  0  0  0
  1  2  1  0
  1  3  1  0
  3  4  2  0
  3  5  1  0
  4  6  1  0
  5  7  2  0
  6  8  2  0
  7  8  1  0
  8  9  1  0
  9 10  1  0
 10 11  1  0
 11 12  2  0
 11 13  1  0
 13 14  1  0
 14 15  1  0
 14 16  1  0
 15 17  2  0
 16 18  2  0
 17 18  1  0
 17 19  1  0
M  END
