x0685_0_A-x0962_0_A
     RDKit          3D

 11 11  0  0  0  0  0  0  0  0999 V2000
   -5.9900   14.9710    2.5520 N   0  0  0  0  0  0  0  0  0  0  0  0
   -6.9900   13.9140    2.6170 C   0  0  0  0  0  0  0  0  0  0  0  0
   -8.0760   14.2730    3.6000 C   0  0  0  0  0  0  0  0  0  0  0  0
   -5.2930   14.9940    1.3600 C   0  0  0  0  0  0  0  0  0  0  0  0
   -3.9090   15.0390    1.3020 C   0  0  0  0  0  0  0  0  0  0  0  0
   -6.0630   14.9760    0.2580 N   0  0  0  0  0  0  0  0  0  0  0  0
   -3.2860   15.0730    0.0630 C   0  0  0  0  0  0  0  0  0  0  0  0
   -5.4440   15.0130   -0.9400 C   0  0  0  0  0  0  0  0  0  0  0  0
   -4.0720   15.0630   -1.0870 C   0  0  0  0  0  0  0  0  0  0  0  0
   -3.5020   15.1010   -2.3910 C   0  0  0  0  0  0  0  0  0  0  0  0
   -3.0490   15.1440   -3.4560 N   0  0  0  0  0  0  0  0  0  0  0  0
  1  2  1  0
  2  3  1  0
  1  4  1  0
  4  5  2  0
  4  6  1  0
  5  7  1  0
  6  8  2  0
  7  9  2  0
  8  9  1  0
  9 10  1  0
 10 11  3  0
M  END
