x0681_0_A-x0722_0_A
     RDKit          3D

 16 17  0  0  0  0  0  0  0  0999 V2000
   -4.6070   15.6430   -1.5220 N   0  0  0  0  0  0  0  0  0  0  0  0
   -3.4690   14.8460   -1.5780 C   0  0  0  0  0  0  0  0  0  0  0  0
   -2.6110   14.9030   -2.4610 O   0  0  0  0  0  0  0  0  0  0  0  0
   -5.8850   15.1860   -1.2740 C   0  0  0  0  0  0  0  0  0  0  0  0
   -6.9160   15.8330   -1.1590 O   0  0  0  0  0  0  0  0  0  0  0  0
   -5.9640   13.8350   -1.1760 N   0  0  0  0  0  0  0  0  0  0  0  0
   -3.3280   13.8280   -0.4360 C   0  0  2  0  0  0  0  0  0  0  0  0
   -4.5640   13.0180   -0.2720 C   0  0  0  0  0  0  0  0  0  0  0  0
   -2.9250   14.3590    0.9630 C   0  0  1  0  0  0  0  0  0  0  0  0
   -1.4710   14.8950    1.0710 C   0  0  0  0  0  0  0  0  0  0  0  0
   -5.5020   13.3810    0.6500 N   0  0  0  0  0  0  0  0  0  0  0  0
   -4.0470   15.2840    1.4760 C   0  0  0  0  0  0  0  0  0  0  0  0
   -4.9240   11.9340   -0.9250 N   0  0  0  0  0  0  0  0  0  0  0  0
   -5.4080   14.5460    1.5160 C   0  0  0  0  0  0  0  0  0  0  0  0
   -6.5190   12.4650    0.5960 C   0  0  0  0  0  0  0  0  0  0  0  0
   -6.1400   11.5810   -0.3900 C   0  0  0  0  0  0  0  0  0  0  0  0
  1  2  1  0
  2  3  2  0
  1  4  1  0
  4  5  2  0
  4  6  1  0
  7  2  1  6
  7  8  1  0
  7  9  1  0
  9 10  1  6
  8 11  1  0
  9 12  1  0
  8 13  2  0
 11 14  1  0
 12 14  1  0
 11 15  1  0
 13 16  1  0
 15 16  2  0
M  END
