x0685_0_A-x0895_0_A
     RDKit          3D

 12 12  0  0  0  0  0  0  0  0999 V2000
   -6.2350   14.9500    2.6160 N   0  0  0  0  0  0  0  0  0  0  0  0
   -7.6760   14.7500    2.4610 C   0  0  0  0  0  0  0  0  0  0  0  0
   -8.0420   13.3490    2.9270 C   0  0  0  0  0  0  0  0  0  0  0  0
   -5.3730   14.5380    1.5330 C   0  0  2  0  0  0  0  0  0  0  0  0
   -4.0380   15.2880    1.4990 C   0  0  0  0  0  0  0  0  0  0  0  0
   -6.1900   14.7490    0.3550 N   0  0  0  0  0  0  0  0  0  0  0  0
   -3.2640   14.8020    0.3080 C   0  0  0  0  0  0  0  0  0  0  0  0
   -5.4410   15.2490   -0.7990 C   0  0  0  0  0  0  0  0  0  0  0  0
   -2.0440   14.5990    0.4120 O   0  0  0  0  0  0  0  0  0  0  0  0
   -4.0820   14.5650   -0.9580 C   0  0  1  0  0  0  0  0  0  0  0  0
   -3.4420   15.0390   -2.1900 C   0  0  0  0  0  0  0  0  0  0  0  0
   -2.9950   15.3600   -3.2130 N   0  0  0  0  0  0  0  0  0  0  0  0
  1  2  1  0
  2  3  1  0
  4  1  1  1
  4  5  1  0
  4  6  1  0
  5  7  1  0
  6  8  1  0
  7  9  2  0
  7 10  1  0
  8 10  1  0
 10 11  1  6
 11 12  3  0
M  END
