x0685_1_A_α-x0900_0_A_α
     RDKit          3D

 22 23  0  0  0  0  0  0  0  0999 V2000
   -1.3250   10.6230   -4.8250 N   0  0  0  0  0  0  0  0  0  0  0  0
   -1.4570   12.0470   -4.4790 C   0  0  0  0  0  0  0  0  0  0  0  0
   -0.0960   12.6820   -4.2030 C   0  0  0  0  0  0  0  0  0  0  0  0
   -0.7180   10.3600   -6.1440 C   0  0  0  0  0  0  0  0  0  0  0  0
   -0.5790    8.8600   -6.4380 C   0  0  0  0  0  0  0  0  0  0  0  0
   -1.5670   10.9950   -7.2700 C   0  0  0  0  0  0  0  0  0  0  0  0
    0.7440   12.0190   -2.7640 S   0  0  0  0  0  0  0  0  0  0  0  0
    0.0610    8.6080   -7.8030 C   0  0  0  0  0  0  0  0  0  0  0  0
   -1.0580   10.7060   -8.6940 C   0  0  0  0  0  0  0  0  0  0  0  0
    2.3000   12.2330   -3.0750 O   0  0  0  0  0  0  0  0  0  0  0  0
    0.3670   10.4570   -2.6030 O   0  0  0  0  0  0  0  0  0  0  0  0
    0.3170   12.8790   -1.4840 O   0  0  0  0  0  0  0  0  0  0  0  0
   -0.7440    9.2340   -8.9450 C   0  0  0  0  0  0  0  0  0  0  0  0
   -1.0570   12.9640   -1.1790 C   0  0  0  0  0  0  0  0  0  0  0  0
   -1.5250   14.3920   -1.2170 C   0  0  0  0  0  0  0  0  0  0  0  0
   -2.2570   14.7370    0.0750 C   0  0  0  0  0  0  0  0  0  0  0  0
   -3.6510   15.3480    0.0110 C   0  0  1  0  0  0  0  0  0  0  0  0
   -4.6190   14.7440   -0.8620 N   0  0  0  0  0  0  0  0  0  0  0  0
   -4.2970   15.3850    1.3860 C   0  0  0  0  0  0  0  0  0  0  0  0
   -5.8560   14.7820   -0.2650 C   0  0  0  0  0  0  0  0  0  0  0  0
   -5.6050   14.6230    1.2070 C   0  0  0  0  0  0  0  0  0  0  0  0
   -6.9270   14.9210   -0.8260 O   0  0  0  0  0  0  0  0  0  0  0  0
  1  2  1  0
  2  3  1  0
  1  4  1  0
  4  5  1  0
  4  6  1  0
  3  7  1  0
  5  8  1  0
  6  9  1  0
  7 10  1  0
  7 11  1  0
  7 12  1  0
  8 13  1  0
  9 13  1  0
 12 14  1  0
 14 15  1  0
 15 16  1  0
 17 16  1  1
 17 18  1  0
 17 19  1  0
 18 20  1  0
 19 21  1  0
 20 21  1  0
 20 22  2  0
M  END
