x0685_1_A-x0805_0_A
     RDKit          3D

 27 29  0  0  0  0  0  0  0  0999 V2000
   -1.6650   11.1460   -5.2920 N   0  0  0  0  0  0  0  0  0  0  0  0
   -1.6380   10.4780   -4.0160 C   0  0  0  0  0  0  0  0  0  0  0  0
   -0.3540   10.4380   -3.3960 C   0  0  0  0  0  0  0  0  0  0  0  0
   -0.8460   10.5660   -6.3320 C   0  0  0  0  0  0  0  0  0  0  0  0
   -0.7250    9.0830   -6.3730 C   0  0  0  0  0  0  0  0  0  0  0  0
   -1.4950   11.0330   -7.6210 C   0  0  0  0  0  0  0  0  0  0  0  0
    0.4800   12.0770   -3.1570 S   0  0  0  0  0  0  0  0  0  0  0  0
   -0.0360    8.5850   -7.6230 C   0  0  0  0  0  0  0  0  0  0  0  0
   -0.7550   10.5810   -8.8430 C   0  0  0  0  0  0  0  0  0  0  0  0
    2.3850   12.4750   -2.7230 O   0  0  0  0  0  0  0  0  0  0  0  0
   -0.8240   12.9310   -2.2930 O   0  0  0  0  0  0  0  0  0  0  0  0
    0.7190   12.3390   -1.2210 O   0  0  0  0  0  0  0  0  0  0  0  0
   -0.7280    9.0640   -8.8710 C   0  0  0  0  0  0  0  0  0  0  0  0
    0.2230   13.2650   -4.5280 C   0  0  2  0  0  0  0  0  0  0  0  0
    1.5530   13.4400   -5.1440 C   0  0  0  0  0  0  0  0  0  0  0  0
   -0.6160   14.3950   -4.2270 C   0  0  1  0  0  0  0  0  0  0  0  0
   -1.8350   14.1930   -3.3670 C   0  0  0  0  0  0  0  0  0  0  0  0
    2.3380   14.2680   -4.4090 O   0  0  0  0  0  0  0  0  0  0  0  0
    0.3090   15.4090   -3.6650 C   0  0  0  0  0  0  0  0  0  0  0  0
   -2.8900   13.4050   -3.7850 C   0  0  0  0  0  0  0  0  0  0  0  0
   -1.9630   14.7860   -2.1060 C   0  0  0  0  0  0  0  0  0  0  0  0
    1.6780   15.4510   -4.2610 C   0  0  0  0  0  0  0  0  0  0  0  0
   -3.0310   14.6570   -1.2760 C   0  0  0  0  0  0  0  0  0  0  0  0
   -4.0000   13.2510   -2.9490 C   0  0  0  0  0  0  0  0  0  0  0  0
   -3.0620   15.2930   -0.0450 O   0  0  0  0  0  0  0  0  0  0  0  0
   -4.0750   13.8700   -1.7050 C   0  0  0  0  0  0  0  0  0  0  0  0
   -4.2560   15.5820    0.6450 C   0  0  0  0  0  0  0  0  0  0  0  0
  1  2  1  0
  2  3  1  0
  1  4  1  0
  4  5  1  0
  4  6  1  0
  3  7  1  0
  5  8  1  0
  6  9  1  0
  7 10  1  0
  7 11  1  0
  7 12  1  0
  8 13  1  0
  9 13  1  0
 14  7  1  1
 14 15  1  0
 14 16  1  0
 16 17  1  1
 15 18  1  0
 16 19  1  0
 17 20  2  0
 17 21  1  0
 18 22  1  0
 19 22  1  0
 21 23  2  0
 20 24  1  0
 23 25  1  0
 23 26  1  0
 24 26  2  0
 25 27  1  0
M  END
