x0681_0_A-x0864_0_A
     RDKit          3D

 26 28  0  0  0  0  0  0  0  0999 V2000
   -4.8860   15.2830   -3.0800 N   0  0  0  0  0  0  0  0  0  0  0  0
   -3.7800   14.8930   -2.4080 C   0  0  0  0  0  0  0  0  0  0  0  0
   -2.6610   14.6670   -3.0220 N   0  0  0  0  0  0  0  0  0  0  0  0
   -4.1640   14.7840   -0.9220 C   0  0  1  0  0  0  0  0  0  0  0  0
   -1.3520   14.2310   -2.5840 C   0  0  0  0  0  0  0  0  0  0  0  0
   -4.9110   13.5210   -0.6840 C   0  0  0  0  0  0  0  0  0  0  0  0
   -3.3650   15.3130    0.2650 C   0  0  0  0  0  0  0  0  0  0  0  0
   -0.4610   14.1730   -3.8450 C   0  0  0  0  0  0  0  0  0  0  0  0
   -5.5850   13.4430    0.4580 N   0  0  0  0  0  0  0  0  0  0  0  0
   -4.0470   14.9480    1.5720 C   0  0  0  0  0  0  0  0  0  0  0  0
   -5.0550   12.4360   -1.4150 N   0  0  0  0  0  0  0  0  0  0  0  0
    0.3280   12.8790   -4.1900 C   0  0  1  0  0  0  0  0  0  0  0  0
   -5.5250   14.5480    1.3550 C   0  0  0  0  0  0  0  0  0  0  0  0
   -6.2290   12.2510    0.5240 C   0  0  0  0  0  0  0  0  0  0  0  0
   -5.8850   11.6350   -0.6620 C   0  0  0  0  0  0  0  0  0  0  0  0
    0.8750   12.1550   -2.9650 C   0  0  0  0  0  0  0  0  0  0  0  0
   -0.3010   11.9180   -5.1530 N   0  0  0  0  0  0  0  0  0  0  0  0
    0.4690   10.8710   -2.8570 O   0  0  0  0  0  0  0  0  0  0  0  0
    1.6020   12.6290   -2.1160 O   0  0  0  0  0  0  0  0  0  0  0  0
   -1.4530   11.2320   -4.8000 C   0  0  0  0  0  0  0  0  0  0  0  0
    0.4590   11.5160   -6.2620 C   0  0  0  0  0  0  0  0  0  0  0  0
    1.5210   12.0250   -6.6050 O   0  0  0  0  0  0  0  0  0  0  0  0
   -1.9030   10.1930   -5.5180 C   0  0  0  0  0  0  0  0  0  0  0  0
   -0.0670   10.3760   -7.0640 C   0  0  0  0  0  0  0  0  0  0  0  0
   -1.1940    9.7590   -6.6910 C   0  0  0  0  0  0  0  0  0  0  0  0
   -1.9030    8.3180   -7.6450 Br  0  0  0  0  0  0  0  0  0  0  0  0
  1  2  1  0
  2  3  2  3
  4  2  1  6
  3  5  1  0
  4  6  1  0
  4  7  1  0
  5  8  1  0
  6  9  1  0
  7 10  1  0
  6 11  2  0
 12  8  1  1
  9 13  1  0
 10 13  1  0
  9 14  1  0
 11 15  1  0
 14 15  2  0
 12 16  1  0
 12 17  1  0
 16 18  1  0
 16 19  2  0
 17 20  1  0
 17 21  1  0
 21 22  2  0
 20 23  2  0
 21 24  1  0
 23 25  1  0
 24 25  2  0
 25 26  1  0
M  END
