x0685_1_A_α-x0724_0_A_α
     RDKit          3D

 29 31  0  0  0  0  0  0  0  0999 V2000
   -1.2750   10.5050   -5.0370 N   0  0  0  0  0  0  0  0  0  0  0  0
   -1.4420   11.8390   -4.4300 C   0  0  0  0  0  0  0  0  0  0  0  0
   -0.1520   12.5830   -4.0960 C   0  0  0  0  0  0  0  0  0  0  0  0
   -0.6790   10.4880   -6.3810 C   0  0  0  0  0  0  0  0  0  0  0  0
   -0.2030    9.0640   -6.7300 C   0  0  0  0  0  0  0  0  0  0  0  0
   -1.6370   11.0110   -7.4680 C   0  0  0  0  0  0  0  0  0  0  0  0
    0.6660   12.0040   -2.6090 S   0  0  0  0  0  0  0  0  0  0  0  0
   -0.9950    8.4290   -7.8610 C   0  0  0  0  0  0  0  0  0  0  0  0
   -1.1520   10.7290   -8.8930 C   0  0  0  0  0  0  0  0  0  0  0  0
    2.2160   12.3270   -2.8830 O   0  0  0  0  0  0  0  0  0  0  0  0
    0.4180   10.4140   -2.5310 O   0  0  0  0  0  0  0  0  0  0  0  0
    0.1150   12.7330   -1.2840 O   0  0  0  0  0  0  0  0  0  0  0  0
   -0.9560    9.2410   -9.1530 C   0  0  0  0  0  0  0  0  0  0  0  0
   -0.0560   14.1460   -1.2550 C   0  0  0  0  0  0  0  0  0  0  0  0
   -1.2660   14.5240   -2.1120 C   0  0  0  0  0  0  0  0  0  0  0  0
   -2.5620   14.5910   -1.3310 C   0  0  0  0  0  0  0  0  0  0  0  0
   -2.5720   14.7220    0.0610 C   0  0  0  0  0  0  0  0  0  0  0  0
   -3.7810   14.5110   -2.0190 C   0  0  0  0  0  0  0  0  0  0  0  0
   -3.7800   14.7660    0.7630 C   0  0  0  0  0  0  0  0  0  0  0  0
   -4.9890   14.5540   -1.3250 C   0  0  0  0  0  0  0  0  0  0  0  0
   -4.9960   14.6770    0.0670 C   0  0  0  0  0  0  0  0  0  0  0  0
   -6.2330   14.7110    0.7630 N   0  0  0  0  0  0  0  0  0  0  0  0
   -7.4230   14.6010    0.1130 N   0  0  0  0  0  0  0  0  0  0  0  0
   -6.4220   14.8540    2.1160 C   0  0  0  0  0  0  0  0  0  0  0  0
   -7.7820   14.8500    2.3590 C   0  0  0  0  0  0  0  0  0  0  0  0
   -8.3420   14.6860    1.0760 C   0  0  0  0  0  0  0  0  0  0  0  0
   -8.4900   14.9930    3.6580 C   0  0  0  0  0  0  0  0  0  0  0  0
   -8.2760   13.7850    4.4460 N   0  0  0  0  0  0  0  0  0  0  0  0
   -8.7250   13.9740    5.8190 C   0  0  0  0  0  0  0  0  0  0  0  0
  1  2  1  0
  2  3  1  0
  1  4  1  0
  4  5  1  0
  4  6  1  0
  3  7  1  0
  5  8  1  0
  6  9  1  0
  7 10  1  0
  7 11  1  0
  7 12  1  0
  8 13  1  0
  9 13  1  0
 12 14  1  0
 14 15  1  0
 15 16  1  0
 16 17  2  0
 16 18  1  0
 17 19  1  0
 18 20  2  0
 19 21  2  0
 20 21  1  0
 21 22  1  0
 22 23  1  0
 22 24  1  0
 24 25  2  0
 23 26  2  0
 25 26  1  0
 25 27  1  0
 27 28  1  0
 28 29  1  0
M  END
