x0685_0_A-x0950_1_A
     RDKit          3D

 20 20  0  0  0  0  0  0  0  0999 V2000
   -6.1620   14.9230    2.6650 N   0  0  0  0  0  0  0  0  0  0  0  0
   -7.5900   14.6680    2.6330 C   0  0  0  0  0  0  0  0  0  0  0  0
   -7.9040   13.2350    3.0230 C   0  0  0  0  0  0  0  0  0  0  0  0
   -5.4270   14.9590    1.4760 C   0  0  0  0  0  0  0  0  0  0  0  0
   -4.0380   15.0490    1.4150 C   0  0  0  0  0  0  0  0  0  0  0  0
   -6.1810   14.9180    0.3590 N   0  0  0  0  0  0  0  0  0  0  0  0
   -3.4080   15.1140    0.1750 C   0  0  0  0  0  0  0  0  0  0  0  0
   -5.5500   14.9870   -0.8340 C   0  0  0  0  0  0  0  0  0  0  0  0
   -4.1810   15.0900   -0.9790 C   0  0  0  0  0  0  0  0  0  0  0  0
   -3.6000   15.1730   -2.2780 C   0  0  0  0  0  0  0  0  0  0  0  0
   -3.1430   15.3390   -3.3750 C   0  0  0  0  0  0  0  0  0  0  0  0
   -2.6010   15.6450   -4.7070 C   0  0  0  0  0  0  0  0  0  0  0  0
   -1.0710   15.5710   -4.7200 C   0  0  0  0  0  0  0  0  0  0  0  0
   -0.5800   14.1490   -4.9940 C   0  0  0  0  0  0  0  0  0  0  0  0
    0.9290   13.9660   -4.8390 C   0  0  0  0  0  0  0  0  0  0  0  0
    1.3590   12.5390   -4.5170 C   0  0  2  0  0  0  0  0  0  0  0  0
    0.7390   11.6810   -5.4820 O   0  0  0  0  0  0  0  0  0  0  0  0
    0.9580   12.1160   -3.1010 C   0  0  0  0  0  0  0  0  0  0  0  0
    0.2530   11.1680   -2.7910 O   0  0  0  0  0  0  0  0  0  0  0  0
    1.4900   12.9240   -2.1570 O   0  0  0  0  0  0  0  0  0  0  0  0
  1  2  1  0
  2  3  1  0
  1  4  1  0
  4  5  2  0
  4  6  1  0
  5  7  1  0
  6  8  2  0
  7  9  2  0
  8  9  1  0
  9 10  1  0
 10 11  3  0
 11 12  1  0
 12 13  1  0
 13 14  1  0
 14 15  1  0
 15 16  1  0
 16 17  1  6
 16 18  1  0
 18 19  2  0
 18 20  1  0
M  END
