x0685_0_A-x0662_0_A
     RDKit          3D

 32 34  0  0  0  0  0  0  0  0999 V2000
   -6.3380   15.0380    2.5320 N   0  0  0  0  0  0  0  0  0  0  0  0
   -7.7370   14.6460    2.4750 C   0  0  0  0  0  0  0  0  0  0  0  0
   -7.9470   13.2680    3.0910 C   0  0  0  0  0  0  0  0  0  0  0  0
   -5.5670   15.0510    1.3740 C   0  0  0  0  0  0  0  0  0  0  0  0
   -4.1850   15.1830    1.4140 C   0  0  0  0  0  0  0  0  0  0  0  0
   -6.2570   14.9390    0.2260 N   0  0  0  0  0  0  0  0  0  0  0  0
   -3.4760   15.2100    0.2250 C   0  0  0  0  0  0  0  0  0  0  0  0
   -5.5450   14.9740   -0.9210 C   0  0  0  0  0  0  0  0  0  0  0  0
   -4.1730   15.1100   -0.9680 C   0  0  0  0  0  0  0  0  0  0  0  0
   -3.4880   15.1460   -2.2030 C   0  0  0  0  0  0  0  0  0  0  0  0
   -2.8650   15.2010   -3.2150 C   0  0  0  0  0  0  0  0  0  0  0  0
   -2.0420   15.2290   -4.4230 C   0  0  0  0  0  0  0  0  0  0  0  0
   -2.0710   13.8640   -5.0920 C   0  0  0  0  0  0  0  0  0  0  0  0
   -1.1380   12.8200   -4.4600 C   0  0  0  0  0  0  0  0  0  0  0  0
   -1.0520   11.8150   -5.4930 N   0  0  0  0  0  0  0  0  0  0  0  0
    0.0320   11.5260   -6.1070 C   0  0  0  0  0  0  0  0  0  0  0  0
    1.1830   11.9720   -5.9450 O   0  0  0  0  0  0  0  0  0  0  0  0
    0.0120   10.5460   -7.2320 C   0  0  0  0  0  0  0  0  0  0  0  0
   -0.8010    9.4200   -7.1600 C   0  0  0  0  0  0  0  0  0  0  0  0
    0.7900   10.7660   -8.3680 C   0  0  0  0  0  0  0  0  0  0  0  0
   -0.8300    8.5290   -8.2290 C   0  0  0  0  0  0  0  0  0  0  0  0
    0.7690    9.8870   -9.4510 C   0  0  0  0  0  0  0  0  0  0  0  0
    1.5840   10.2020  -10.5650 N   0  0  0  0  0  0  0  0  0  0  0  0
   -0.0500    8.7620   -9.3710 C   0  0  0  0  0  0  0  0  0  0  0  0
    2.2990    9.3130  -11.3520 C   0  0  0  0  0  0  0  0  0  0  0  0
    2.4120    8.1160  -11.1010 O   0  0  0  0  0  0  0  0  0  0  0  0
    2.9690    9.9090  -12.5520 C   0  0  0  0  0  0  0  0  0  0  0  0
    2.7710   11.1760  -13.1950 C   0  0  0  0  0  0  0  0  0  0  0  0
    3.9310    9.2230  -13.1960 N   0  0  0  0  0  0  0  0  0  0  0  0
    4.3250   10.0200  -14.1930 N   0  0  0  0  0  0  0  0  0  0  0  0
    3.6610   11.2080  -14.2430 C   0  0  0  0  0  0  0  0  0  0  0  0
    5.3710    9.5660  -15.0810 C   0  0  0  0  0  0  0  0  0  0  0  0
  1  2  1  0
  2  3  1  0
  1  4  1  0
  4  5  2  0
  4  6  1  0
  5  7  1  0
  6  8  2  0
  7  9  2  0
  8  9  1  0
  9 10  1  0
 10 11  3  0
 11 12  1  0
 12 13  1  0
 13 14  1  0
 14 15  1  0
 15 16  2  3
 16 17  1  0
 16 18  1  0
 18 19  2  0
 18 20  1  0
 19 21  1  0
 20 22  2  0
 22 23  1  0
 21 24  2  0
 22 24  1  0
 23 25  1  0
 25 26  2  0
 25 27  1  0
 27 28  1  0
 27 29  2  0
 29 30  1  0
 28 31  2  0
 30 31  1  0
 30 32  1  0
M  CHG  1  17  -1
M  END
