x0685_0_A-x0689_0_A
     RDKit          3D

 18 19  0  0  0  0  0  0  0  0999 V2000
   -6.0850   14.7280    2.4870 N   0  0  0  0  0  0  0  0  0  0  0  0
   -7.4920   14.8090    2.8670 C   0  0  0  0  0  0  0  0  0  0  0  0
   -8.0580   13.4260    3.1260 C   0  0  0  0  0  0  0  0  0  0  0  0
   -5.7200   14.8490    1.1270 C   0  0  0  0  0  0  0  0  0  0  0  0
   -4.3690   15.0430    0.8380 C   0  0  0  0  0  0  0  0  0  0  0  0
   -6.6240   14.7790    0.1190 N   0  0  0  0  0  0  0  0  0  0  0  0
   -3.9560   15.1550   -0.4530 C   0  0  0  0  0  0  0  0  0  0  0  0
   -6.1560   14.8970   -1.1620 C   0  0  0  0  0  0  0  0  0  0  0  0
   -3.3730   15.1230    1.7210 N   0  0  0  0  0  0  0  0  0  0  0  0
   -4.8190   15.0820   -1.4750 C   0  0  0  0  0  0  0  0  0  0  0  0
   -2.1550   14.7520    1.2700 C   0  0  0  0  0  0  0  0  0  0  0  0
   -4.2730   15.1930   -2.7840 C   0  0  0  0  0  0  0  0  0  0  0  0
   -2.0380   14.8600   -0.0650 N   0  0  0  0  0  0  0  0  0  0  0  0
   -1.2210   14.3340    2.0460 N   0  0  0  0  0  0  0  0  0  0  0  0
   -3.7570   15.2630   -3.8220 N   0  0  0  0  0  0  0  0  0  0  0  0
   -0.8830   14.5180   -0.6230 C   0  0  0  0  0  0  0  0  0  0  0  0
   -0.0950   13.9950    1.4690 C   0  0  0  0  0  0  0  0  0  0  0  0
    0.1550   14.0640    0.1150 C   0  0  0  0  0  0  0  0  0  0  0  0
  1  2  1  0
  2  3  1  0
  1  4  1  0
  4  5  2  0
  4  6  1  0
  5  7  1  0
  6  8  2  0
  5  9  1  0
  7 10  2  0
  8 10  1  0
  9 11  1  0
 10 12  1  0
 11 13  2  0
 11 14  1  0
 12 15  3  0
 13 16  1  0
 14 17  2  0
 16 18  2  0
 17 18  1  0
M  END
