x0689_0_A_α-x0471_0_A_α
     RDKit          3D

 23 25  0  0  0  0  0  0  0  0999 V2000
   -3.1590   15.1050    2.0040 N   0  0  0  0  0  0  0  0  0  0  0  0
   -2.0080   15.1400    1.1420 C   0  0  1  0  0  0  0  0  0  0  0  0
   -1.2760   14.0970    1.7430 N   0  0  0  0  0  0  0  0  0  0  0  0
   -2.2240   14.9910   -0.2690 N   0  0  0  0  0  0  0  0  0  0  0  0
   -1.2150   14.4330   -1.0290 C   0  0  0  0  0  0  0  0  0  0  0  0
   -0.0120   14.0880    1.0670 C   0  0  0  0  0  0  0  0  0  0  0  0
   -3.5610   15.0160   -0.5440 C   0  0  0  0  0  0  0  0  0  0  0  0
   -0.1180   13.9850   -0.4190 C   0  0  0  0  0  0  0  0  0  0  0  0
   -4.1400   15.3210   -1.7690 C   0  0  0  0  0  0  0  0  0  0  0  0
   -4.3760   14.7070    0.5450 C   0  0  0  0  0  0  0  0  0  0  0  0
   -5.7430   14.7030    0.4160 C   0  0  0  0  0  0  0  0  0  0  0  0
   -5.5370   15.3230   -1.9320 C   0  0  0  0  0  0  0  0  0  0  0  0
   -6.6940   14.4320    1.3540 N   0  0  0  0  0  0  0  0  0  0  0  0
   -6.2950   15.0080   -0.8070 C   0  0  0  0  0  0  0  0  0  0  0  0
   -7.6430   14.9110   -0.5840 N   0  0  0  0  0  0  0  0  0  0  0  0
   -7.8340   14.5640    0.7330 C   0  0  0  0  0  0  0  0  0  0  0  0
   -9.1770   14.3760    1.3290 C   0  0  0  0  0  0  0  0  0  0  0  0
   -9.0160   14.0080    2.7230 N   0  0  0  0  0  0  0  0  0  0  0  0
   -9.0160   14.9550    3.7180 C   0  0  0  0  0  0  0  0  0  0  0  0
   -9.2560   16.1420    3.5050 O   0  0  0  0  0  0  0  0  0  0  0  0
   -8.7120   14.4450    5.1170 C   0  0  0  0  0  0  0  0  0  0  0  0
   -9.8960   13.6540    5.6660 C   0  0  0  0  0  0  0  0  0  0  0  0
   -8.2850   15.5660    6.0610 C   0  0  0  0  0  0  0  0  0  0  0  0
  2  1  1  1
  2  3  1  0
  2  4  1  0
  4  5  1  0
  3  6  1  0
  4  7  1  0
  5  8  2  0
  6  8  1  0
  7  9  2  0
  7 10  1  0
 10 11  2  0
  9 12  1  0
 11 13  1  0
 11 14  1  0
 12 14  2  0
 14 15  1  0
 13 16  2  0
 15 16  1  0
 16 17  1  0
 17 18  1  0
 18 19  1  0
 19 20  2  0
 19 21  1  0
 21 22  1  0
 21 23  1  0
M  END
