x0689_0_A-x0104_0_A
     RDKit          3D

 25 27  0  0  0  0  0  0  0  0999 V2000
   -3.3190   15.2090    1.8160 N   0  0  0  0  0  0  0  0  0  0  0  0
   -2.1270   15.1580    1.0460 C   0  0  1  0  0  0  0  0  0  0  0  0
   -1.3880   14.2240    1.7950 N   0  0  0  0  0  0  0  0  0  0  0  0
   -2.1630   14.8130   -0.3310 N   0  0  0  0  0  0  0  0  0  0  0  0
   -0.9480   14.6710   -0.9470 C   0  0  0  0  0  0  0  0  0  0  0  0
   -0.0350   14.1880    1.2780 C   0  0  0  0  0  0  0  0  0  0  0  0
   -3.4020   14.9770   -1.0460 C   0  0  0  0  0  0  0  0  0  0  0  0
    0.1150   14.3680   -0.2070 C   0  0  0  0  0  0  0  0  0  0  0  0
   -4.7130   15.1620   -0.4350 N   0  0  0  0  0  0  0  0  0  0  0  0
   -5.6560   14.6390   -1.3900 C   0  0  2  0  0  0  0  0  0  0  0  0
   -4.9590   14.5490    0.9000 C   0  0  0  0  0  0  0  0  0  0  0  0
   -5.4450   15.2160   -2.6840 O   0  0  0  0  0  0  0  0  0  0  0  0
   -6.4560   14.2730    1.3150 C   0  0  1  0  0  0  0  0  0  0  0  0
   -7.0550   14.9500   -0.9770 C   0  0  0  0  0  0  0  0  0  0  0  0
   -6.7430   14.8690    2.6160 N   0  0  0  0  0  0  0  0  0  0  0  0
   -4.1950   14.8750   -3.2830 C   0  0  0  0  0  0  0  0  0  0  0  0
   -7.4410   14.7820    0.2910 C   0  0  0  0  0  0  0  0  0  0  0  0
   -8.0210   15.0490    3.1360 C   0  0  0  0  0  0  0  0  0  0  0  0
   -7.9940   15.0020    4.5190 N   0  0  0  0  0  0  0  0  0  0  0  0
   -9.0090   15.2290    2.4350 O   0  0  0  0  0  0  0  0  0  0  0  0
   -9.1010   15.0470    5.3430 C   0  0  0  0  0  0  0  0  0  0  0  0
   -9.2420   15.1920    6.7040 C   0  0  0  0  0  0  0  0  0  0  0  0
  -10.6010   14.8950    4.5470 S   0  0  0  0  0  0  0  0  0  0  0  0
  -11.4640   15.0190    6.0230 C   0  0  0  0  0  0  0  0  0  0  0  0
  -10.6160   15.1750    7.0990 C   0  0  0  0  0  0  0  0  0  0  0  0
  2  1  1  1
  2  3  1  0
  2  4  1  0
  4  5  1  0
  3  6  1  0
  4  7  1  0
  5  8  2  0
  6  8  1  0
  7  9  1  0
  9 10  1  0
  9 11  1  0
 10 12  1  6
 11 13  1  0
 10 14  1  0
 13 15  1  1
 12 16  1  0
 13 17  1  0
 14 17  2  0
 15 18  1  0
 18 19  1  0
 18 20  2  0
 19 21  1  0
 21 22  2  0
 21 23  1  0
 23 24  1  0
 22 25  1  0
 24 25  2  0
M  END
