x0685_0_A-x1018_0_A
     RDKit          3D

 15 16  0  0  0  0  0  0  0  0999 V2000
   -6.0900   15.1750    2.6400 N   0  0  0  0  0  0  0  0  0  0  0  0
   -7.4690   14.7920    2.9300 C   0  0  0  0  0  0  0  0  0  0  0  0
   -7.7930   13.3110    2.8050 C   0  0  0  0  0  0  0  0  0  0  0  0
   -5.3820   14.6140    1.5130 C   0  0  2  0  0  0  0  0  0  0  0  0
   -3.9250   15.0560    1.5230 C   0  0  0  0  0  0  0  0  0  0  0  0
   -6.0450   14.9040    0.2020 N   0  0  0  0  0  0  0  0  0  0  0  0
   -7.7920   14.4980    0.2040 Cl  0  0  0  0  0  0  0  0  0  0  0  0
   -3.1490   15.0500    0.4270 C   0  0  0  0  0  0  0  0  0  0  0  0
   -5.1890   14.1300   -0.7260 C   0  0  2  0  0  0  0  0  0  0  0  0
   -3.7470   14.5810   -0.8610 C   0  0  1  0  0  0  0  0  0  0  0  0
   -5.4220   14.0470   -2.1630 N   0  0  0  0  0  0  0  0  0  0  0  0
   -3.5450   15.4060   -2.0710 C   0  0  0  0  0  0  0  0  0  0  0  0
   -3.2800   13.3340   -1.3810 N   0  0  0  0  0  0  0  0  0  0  0  0
   -4.1540   13.4040   -2.5610 N   0  0  0  0  0  0  0  0  0  0  0  0
   -3.3680   15.8790   -3.1130 N   0  0  0  0  0  0  0  0  0  0  0  0
  1  2  1  0
  2  3  1  0
  4  1  1  1
  4  5  1  0
  4  6  1  0
  6  7  1  0
  5  8  2  0
  6  9  1  0
  8 10  1  0
  9 10  1  0
  9 11  1  6
 10 12  1  6
 10 13  1  0
 11 14  1  0
 13 14  1  0
 12 15  3  0
M  END
