x0685_0_A_α-x1015_0_A_α
     RDKit          3D

 27 29  0  0  0  0  0  0  0  0999 V2000
   -6.0020   14.6320    2.5990 N   0  0  0  0  0  0  0  0  0  0  0  0
   -7.4240   14.8520    2.8360 C   0  0  0  0  0  0  0  0  0  0  0  0
   -8.1120   13.5360    3.1540 C   0  0  0  0  0  0  0  0  0  0  0  0
   -5.3700   14.7990    1.3920 C   0  0  0  0  0  0  0  0  0  0  0  0
   -3.9910   14.9150    1.3330 C   0  0  0  0  0  0  0  0  0  0  0  0
   -6.1540   14.8350    0.2930 N   0  0  0  0  0  0  0  0  0  0  0  0
   -3.3780   15.0690    0.1100 C   0  0  0  0  0  0  0  0  0  0  0  0
   -5.5310   14.9900   -0.9000 C   0  0  0  0  0  0  0  0  0  0  0  0
   -4.1580   15.1060   -1.0320 C   0  0  0  0  0  0  0  0  0  0  0  0
   -3.5080   15.2550   -2.2800 C   0  0  0  0  0  0  0  0  0  0  0  0
   -2.8390   15.3430   -3.2620 C   0  0  0  0  0  0  0  0  0  0  0  0
   -1.8900   15.4080   -4.3760 C   0  0  0  0  0  0  0  0  0  0  0  0
   -1.3750   14.0030   -4.6650 C   0  0  0  0  0  0  0  0  0  0  0  0
    0.0250   13.6320   -4.1110 C   0  0  2  0  0  0  0  0  0  0  0  0
    0.1270   12.1790   -4.0140 N   0  0  0  0  0  0  0  0  0  0  0  0
    0.2320   14.0070   -2.6420 C   0  0  0  0  0  0  0  0  0  0  0  0
    0.3180   15.1400   -2.1990 O   0  0  0  0  0  0  0  0  0  0  0  0
    0.2220   11.7610   -2.6770 C   0  0  0  0  0  0  0  0  0  0  0  0
    0.3410   12.8760   -1.9000 N   0  0  0  0  0  0  0  0  0  0  0  0
   -0.3460   11.3810   -5.0840 C   0  0  0  0  0  0  0  0  0  0  0  0
    0.2020   10.6150   -2.2140 O   0  0  0  0  0  0  0  0  0  0  0  0
    0.1500   11.5530   -6.3810 C   0  0  0  0  0  0  0  0  0  0  0  0
   -1.3280   10.3950   -4.8820 C   0  0  0  0  0  0  0  0  0  0  0  0
   -0.3100   10.7710   -7.4420 C   0  0  0  0  0  0  0  0  0  0  0  0
   -1.7930    9.6070   -5.9410 C   0  0  0  0  0  0  0  0  0  0  0  0
   -1.2800    9.8000   -7.2200 C   0  0  0  0  0  0  0  0  0  0  0  0
   -1.8470    8.8390   -8.5250 Cl  0  0  0  0  0  0  0  0  0  0  0  0
  1  2  1  0
  2  3  1  0
  1  4  1  0
  4  5  2  0
  4  6  1  0
  5  7  1  0
  6  8  2  0
  7  9  2  0
  8  9  1  0
  9 10  1  0
 10 11  3  0
 11 12  1  0
 12 13  1  0
 14 13  1  1
 14 15  1  0
 14 16  1  0
 16 17  2  0
 15 18  1  0
 16 19  1  0
 18 19  1  0
 15 20  1  0
 18 21  2  0
 20 22  2  0
 20 23  1  0
 22 24  1  0
 23 25  2  0
 24 26  2  0
 25 26  1  0
 26 27  1  0
M  END
