x0681_0_A-x0628_0_A
     RDKit          3D

 25 27  0  0  0  0  0  0  0  0999 V2000
   -3.9990   15.4930   -3.0980 N   0  0  0  0  0  0  0  0  0  0  0  0
   -3.4700   14.7750   -2.0670 C   0  0  0  0  0  0  0  0  0  0  0  0
   -2.4550   13.9890   -2.1150 N   0  0  0  0  0  0  0  0  0  0  0  0
   -4.2460   14.9420   -0.7530 C   0  0  1  0  0  0  0  0  0  0  0  0
   -1.7080   13.7310   -3.3510 C   0  0  0  0  0  0  0  0  0  0  0  0
   -4.9860   13.6530   -0.5770 C   0  0  0  0  0  0  0  0  0  0  0  0
   -3.5060   15.3550    0.5260 C   0  0  0  0  0  0  0  0  0  0  0  0
   -2.3650   12.5420   -4.0840 C   0  0  0  0  0  0  0  0  0  0  0  0
   -5.6540   13.4320    0.5730 N   0  0  0  0  0  0  0  0  0  0  0  0
   -4.2200   14.9410    1.8140 C   0  0  0  0  0  0  0  0  0  0  0  0
   -5.1160   12.6360   -1.4030 N   0  0  0  0  0  0  0  0  0  0  0  0
   -5.6420   14.4060    1.6130 C   0  0  0  0  0  0  0  0  0  0  0  0
   -6.2590   12.2210    0.5130 C   0  0  0  0  0  0  0  0  0  0  0  0
   -5.9130   11.7390   -0.7300 C   0  0  0  0  0  0  0  0  0  0  0  0
   -1.5370   11.7460   -5.0600 C   0  0  0  0  0  0  0  0  0  0  0  0
   -1.8830   10.5980   -5.6210 N   0  0  0  0  0  0  0  0  0  0  0  0
   -0.2860   12.0860   -5.5290 N   0  0  0  0  0  0  0  0  0  0  0  0
    0.5550   13.2300   -5.2430 C   0  0  0  0  0  0  0  0  0  0  0  0
   -0.8230   10.2770   -6.4170 C   0  0  0  0  0  0  0  0  0  0  0  0
    0.1770   11.1590   -6.3970 N   0  0  0  0  0  0  0  0  0  0  0  0
   -0.7810    9.0500   -7.2370 C   0  0  0  0  0  0  0  0  0  0  0  0
    1.6650   12.9470   -4.2310 C   0  0  0  0  0  0  0  0  0  0  0  0
    1.1290   12.2650   -2.9940 C   0  0  0  0  0  0  0  0  0  0  0  0
    0.6110   11.1590   -2.9770 O   0  0  0  0  0  0  0  0  0  0  0  0
    1.2730   12.9940   -1.8700 O   0  0  0  0  0  0  0  0  0  0  0  0
  1  2  1  0
  2  3  2  3
  4  2  1  6
  3  5  1  0
  4  6  1  0
  4  7  1  0
  5  8  1  0
  6  9  1  0
  7 10  1  0
  6 11  2  0
  9 12  1  0
 10 12  1  0
  9 13  1  0
 11 14  1  0
 13 14  2  0
  8 15  1  0
 15 16  2  0
 15 17  1  0
 17 18  1  0
 16 19  1  0
 17 20  1  0
 19 20  2  0
 19 21  1  0
 18 22  1  0
 22 23  1  0
 23 24  2  0
 23 25  1  0
M  END
