x0685_0_A-x0962_2_B
     RDKit          3D

 18 19  0  0  0  0  0  0  0  0999 V2000
   -6.1350   15.0220    2.2640 N   0  0  0  0  0  0  0  0  0  0  0  0
   -7.4250   14.3430    2.3680 C   0  0  1  0  0  0  0  0  0  0  0  0
   -7.3620   12.8460    2.6600 C   0  0  0  0  0  0  0  0  0  0  0  0
   -5.3920   15.0120    1.1200 C   0  0  0  0  0  0  0  0  0  0  0  0
   -4.0060   15.0460    1.1530 C   0  0  0  0  0  0  0  0  0  0  0  0
   -6.1040   14.9810   -0.0100 N   0  0  0  0  0  0  0  0  0  0  0  0
   -8.2850   15.0850    3.3080 C   0  0  0  0  0  0  0  0  0  0  0  0
   -3.3170   15.0550   -0.0460 C   0  0  0  0  0  0  0  0  0  0  0  0
   -5.4180   14.9950   -1.1620 C   0  0  0  0  0  0  0  0  0  0  0  0
   -9.4060   15.8330    3.1160 C   0  0  0  0  0  0  0  0  0  0  0  0
   -7.9240   15.0670    4.6320 N   0  0  0  0  0  0  0  0  0  0  0  0
  -10.1150   16.1130    1.9280 C   0  0  0  0  0  0  0  0  0  0  0  0
   -4.0420   15.0330   -1.2330 C   0  0  0  0  0  0  0  0  0  0  0  0
   -9.7280   16.2920    4.3580 N   0  0  0  0  0  0  0  0  0  0  0  0
   -8.8020   15.8030    5.2370 C   0  0  0  0  0  0  0  0  0  0  0  0
   -3.4140   15.0520   -2.5050 C   0  0  0  0  0  0  0  0  0  0  0  0
  -10.6780   16.2990    0.9350 N   0  0  0  0  0  0  0  0  0  0  0  0
   -2.9180   15.0870   -3.5490 N   0  0  0  0  0  0  0  0  0  0  0  0
  1  2  1  0
  2  3  1  1
  1  4  1  0
  4  5  2  0
  4  6  1  0
  2  7  1  0
  5  8  1  0
  6  9  2  0
  7 10  2  0
  7 11  1  0
 10 12  1  0
  8 13  2  0
  9 13  1  0
 10 14  1  0
 11 15  2  0
 14 15  1  0
 13 16  1  0
 12 17  3  0
 16 18  3  0
M  END
