x0681_0_A-x0689_0_A
     RDKit          3D

 20 22  0  0  0  0  0  0  0  0999 V2000
   -4.8720   15.4580   -2.1270 N   0  0  0  0  0  0  0  0  0  0  0  0
   -3.8920   14.5800   -1.7750 C   0  0  0  0  0  0  0  0  0  0  0  0
   -2.8750   14.5050   -2.4700 O   0  0  0  0  0  0  0  0  0  0  0  0
   -4.1040   13.7070   -0.5210 C   0  0  2  0  0  0  0  0  0  0  0  0
   -5.2030   12.7340   -0.6430 C   0  0  0  0  0  0  0  0  0  0  0  0
   -4.2640   14.5330    0.7560 C   0  0  1  0  0  0  0  0  0  0  0  0
   -3.9420   15.9340    0.5900 C   0  0  0  0  0  0  0  0  0  0  0  0
   -6.0380   12.4480    0.4020 N   0  0  0  0  0  0  0  0  0  0  0  0
   -5.5670   14.4530    1.5210 C   0  0  0  0  0  0  0  0  0  0  0  0
   -5.5260   12.0420   -1.7020 N   0  0  0  0  0  0  0  0  0  0  0  0
   -2.7820   15.9450    1.3120 N   0  0  0  0  0  0  0  0  0  0  0  0
   -5.9560   13.0280    1.6990 C   0  0  0  0  0  0  0  0  0  0  0  0
   -6.9360   11.5370   -0.0100 C   0  0  0  0  0  0  0  0  0  0  0  0
   -6.6030   11.2960   -1.3180 C   0  0  0  0  0  0  0  0  0  0  0  0
   -1.8590   15.1140    0.8010 C   0  0  0  0  0  0  0  0  0  0  0  0
   -1.8340   14.9010   -0.5130 N   0  0  0  0  0  0  0  0  0  0  0  0
   -1.0450   14.5940    1.6890 N   0  0  0  0  0  0  0  0  0  0  0  0
   -0.8730   14.1320   -0.9730 C   0  0  0  0  0  0  0  0  0  0  0  0
   -0.1090   13.8190    1.1870 C   0  0  0  0  0  0  0  0  0  0  0  0
    0.0390   13.5570   -0.1590 C   0  0  0  0  0  0  0  0  0  0  0  0
  1  2  1  0
  2  3  2  0
  4  2  1  6
  4  5  1  0
  4  6  1  0
  6  7  1  6
  5  8  1  0
  6  9  1  0
  5 10  2  0
  7 11  1  0
  8 12  1  0
  9 12  1  0
  8 13  1  0
 10 14  1  0
 13 14  2  0
 11 15  1  0
 15 16  2  0
 15 17  1  0
 16 18  1  0
 17 19  2  0
 18 20  2  0
 19 20  1  0
M  END
