x0689_0_A_α-x0371_0_A_α
     RDKit          3D

 18 19  0  0  0  0  0  0  0  0999 V2000
   -3.7380   15.1810    1.3290 N   0  0  0  0  0  0  0  0  0  0  0  0
   -4.7330   14.1310    1.4410 C   0  0  0  0  0  0  0  0  0  0  0  0
   -6.0250   14.7180    2.0110 C   0  0  0  0  0  0  0  0  0  0  0  0
   -2.4700   14.8360    0.9010 C   0  0  0  0  0  0  0  0  0  0  0  0
   -2.2890   14.8250   -0.4220 N   0  0  0  0  0  0  0  0  0  0  0  0
   -1.5190   14.5510    1.7890 N   0  0  0  0  0  0  0  0  0  0  0  0
   -6.9020   13.7530    2.8050 C   0  0  0  0  0  0  0  0  0  0  0  0
   -1.0530   14.5150   -0.8600 C   0  0  0  0  0  0  0  0  0  0  0  0
   -0.3090   14.2500    1.3120 C   0  0  0  0  0  0  0  0  0  0  0  0
   -8.2960   14.1750    2.8540 N   0  0  0  0  0  0  0  0  0  0  0  0
   -0.0070   14.2180   -0.0260 C   0  0  0  0  0  0  0  0  0  0  0  0
   -8.7400   15.3510    3.4470 C   0  0  0  0  0  0  0  0  0  0  0  0
   -9.2390   16.2680    2.8000 O   0  0  0  0  0  0  0  0  0  0  0  0
   -8.5920   15.4020    4.8870 C   0  0  0  0  0  0  0  0  0  0  0  0
   -8.0230   14.3400    5.5380 O   0  0  0  0  0  0  0  0  0  0  0  0
   -8.9350   16.3720    5.8090 C   0  0  0  0  0  0  0  0  0  0  0  0
   -8.0030   14.6410    6.8600 C   0  0  0  0  0  0  0  0  0  0  0  0
   -8.5550   15.8790    7.0810 C   0  0  0  0  0  0  0  0  0  0  0  0
  1  2  1  0
  2  3  1  0
  1  4  1  0
  4  5  2  0
  4  6  1  0
  3  7  1  0
  5  8  1  0
  6  9  2  0
  7 10  1  0
  8 11  2  0
  9 11  1  0
 10 12  1  0
 12 13  2  0
 12 14  1  0
 14 15  1  0
 14 16  2  0
 15 17  1  0
 16 18  1  0
 17 18  2  0
M  END
