x0685_1_A-x0471_0_A
     RDKit          3D

 31 33  0  0  0  0  0  0  0  0999 V2000
   -1.2420   10.6390   -4.7770 N   0  0  0  0  0  0  0  0  0  0  0  0
   -1.5280   12.0140   -4.3650 C   0  0  0  0  0  0  0  0  0  0  0  0
   -0.2430   12.7510   -3.9960 C   0  0  0  0  0  0  0  0  0  0  0  0
   -0.7790   10.3740   -6.1470 C   0  0  0  0  0  0  0  0  0  0  0  0
   -0.5870    8.8730   -6.4300 C   0  0  0  0  0  0  0  0  0  0  0  0
   -1.5380   11.0540   -7.3010 C   0  0  0  0  0  0  0  0  0  0  0  0
    0.5480   12.1100   -2.5160 S   0  0  0  0  0  0  0  0  0  0  0  0
    0.0450    8.5930   -7.7870 C   0  0  0  0  0  0  0  0  0  0  0  0
   -1.0070   10.7150   -8.6990 C   0  0  0  0  0  0  0  0  0  0  0  0
    2.1090   12.3980   -2.7280 O   0  0  0  0  0  0  0  0  0  0  0  0
    0.2800   10.5190   -2.4800 O   0  0  0  0  0  0  0  0  0  0  0  0
   -0.0830   12.8240   -1.2010 O   0  0  0  0  0  0  0  0  0  0  0  0
   -0.7960    9.2140   -8.9010 C   0  0  0  0  0  0  0  0  0  0  0  0
   -0.6610   14.1500   -1.2610 C   0  0  0  0  0  0  0  0  0  0  0  0
   -1.4470   14.5350    0.0160 C   0  0  0  0  0  0  0  0  0  0  0  0
   -2.9510   14.7260   -0.2100 C   0  0  0  0  0  0  0  0  0  0  0  0
   -3.4730   15.1600   -1.4460 C   0  0  0  0  0  0  0  0  0  0  0  0
   -3.8510   14.4500    0.8410 C   0  0  0  0  0  0  0  0  0  0  0  0
   -5.2380   14.5960    0.6270 C   0  0  0  0  0  0  0  0  0  0  0  0
   -4.8530   15.3150   -1.6710 C   0  0  0  0  0  0  0  0  0  0  0  0
   -6.2880   14.3750    1.4840 N   0  0  0  0  0  0  0  0  0  0  0  0
   -5.7020   15.0160   -0.6080 C   0  0  0  0  0  0  0  0  0  0  0  0
   -7.0720   15.0360   -0.4740 N   0  0  0  0  0  0  0  0  0  0  0  0
   -7.3800   14.6390    0.8080 C   0  0  0  0  0  0  0  0  0  0  0  0
   -8.7820   14.5460    1.2990 C   0  0  0  0  0  0  0  0  0  0  0  0
   -8.7590   14.1000    2.6800 N   0  0  0  0  0  0  0  0  0  0  0  0
   -8.9480   15.0040    3.7050 C   0  0  0  0  0  0  0  0  0  0  0  0
   -9.3130   16.1630    3.5030 O   0  0  0  0  0  0  0  0  0  0  0  0
   -8.6750   14.4320    5.0940 C   0  0  0  0  0  0  0  0  0  0  0  0
   -9.8990   13.6700    5.6130 C   0  0  0  0  0  0  0  0  0  0  0  0
   -8.2880   15.5470    6.0580 C   0  0  0  0  0  0  0  0  0  0  0  0
  1  2  1  0
  2  3  1  0
  1  4  1  0
  4  5  1  0
  4  6  1  0
  3  7  1  0
  5  8  1  0
  6  9  1  0
  7 10  1  0
  7 11  1  0
  7 12  1  0
  8 13  1  0
  9 13  1  0
 12 14  1  0
 14 15  1  0
 15 16  1  0
 16 17  2  0
 16 18  1  0
 18 19  2  0
 17 20  1  0
 19 21  1  0
 19 22  1  0
 20 22  2  0
 22 23  1  0
 21 24  2  0
 23 24  1  0
 24 25  1  0
 25 26  1  0
 26 27  1  0
 27 28  2  0
 27 29  1  0
 29 30  1  0
 29 31  1  0
M  END
