x0685_0_A-x0471_0_A
     RDKit          3D

 18 20  0  0  0  0  0  0  0  0999 V2000
   -6.9070   14.9450    3.0620 N   0  0  0  0  0  0  0  0  0  0  0  0
   -8.3560   14.8700    3.3240 C   0  0  2  0  0  0  0  0  0  0  0  0
   -9.0010   13.8010    2.4510 C   0  0  0  0  0  0  0  0  0  0  0  0
   -6.3960   14.2470    1.8500 C   0  0  2  0  0  0  0  0  0  0  0  0
   -8.9320   16.0970    2.9000 O   0  0  0  0  0  0  0  0  0  0  0  0
   -8.7970   14.7590    4.8410 C   0  0  0  0  0  0  0  0  0  0  0  0
   -5.2920   14.8460    1.1030 N   0  0  0  0  0  0  0  0  0  0  0  0
   -7.4270   14.0200    0.6490 C   0  0  1  0  0  0  0  0  0  0  0  0
   -9.3480   13.3980    5.2860 C   0  0  0  0  0  0  0  0  0  0  0  0
   -7.8000   15.2940    5.8690 C   0  0  0  0  0  0  0  0  0  0  0  0
   -8.8770   14.2380    1.0100 C   0  0  0  0  0  0  0  0  0  0  0  0
   -3.9420   14.8320    1.3280 C   0  0  0  0  0  0  0  0  0  0  0  0
   -5.5330   14.5980   -0.3110 C   0  0  1  0  0  0  0  0  0  0  0  0
   -6.9620   14.8090   -0.5450 N   0  0  0  0  0  0  0  0  0  0  0  0
   -3.3100   15.1670    0.2030 C   0  0  0  0  0  0  0  0  0  0  0  0
   -4.3450   15.4400   -0.8840 C   0  0  1  0  0  0  0  0  0  0  0  0
   -3.8240   15.0920   -2.2120 C   0  0  0  0  0  0  0  0  0  0  0  0
   -3.3910   14.8610   -3.2690 N   0  0  0  0  0  0  0  0  0  0  0  0
  1  2  1  0
  2  3  1  0
  4  1  1  1
  2  5  1  6
  2  6  1  0
  4  7  1  0
  4  8  1  0
  6  9  1  0
  6 10  1  0
  3 11  1  0
  8 11  1  1
  7 12  1  0
  7 13  1  0
  8 14  1  0
 13 14  1  6
 12 15  2  0
 13 16  1  0
 15 16  1  0
 16 17  1  6
 17 18  3  0
M  END
