x0681_0_A-x1015_0_A
     RDKit          3D

 26 29  0  0  0  0  0  0  0  0999 V2000
   -4.2910   15.3310   -2.4660 N   0  0  0  0  0  0  0  0  0  0  0  0
   -3.1520   14.5910   -2.2130 C   0  0  0  0  0  0  0  0  0  0  0  0
   -2.2180   14.4430   -3.1810 N   0  0  0  0  0  0  0  0  0  0  0  0
   -3.1580   14.0190   -0.7470 C   0  0  2  0  0  0  0  0  0  0  0  0
   -4.4150   13.1680   -0.5890 C   0  0  0  0  0  0  0  0  0  0  0  0
   -3.1430   15.1430    0.3350 C   0  0  0  0  0  0  0  0  0  0  0  0
   -0.8640   13.7880   -3.3930 C   0  0  2  0  0  0  0  0  0  0  0  0
   -5.3500   13.3580    0.4020 N   0  0  0  0  0  0  0  0  0  0  0  0
   -3.8310   14.7660    1.6510 C   0  0  0  0  0  0  0  0  0  0  0  0
   -4.7920   12.1580   -1.3520 N   0  0  0  0  0  0  0  0  0  0  0  0
   -0.7660   12.3130   -3.5030 N   0  0  0  0  0  0  0  0  0  0  0  0
    0.1070   14.0570   -2.2430 C   0  0  0  0  0  0  0  0  0  0  0  0
    0.3750   15.1520   -1.7700 O   0  0  0  0  0  0  0  0  0  0  0  0
   -5.2740   14.3700    1.4130 C   0  0  0  0  0  0  0  0  0  0  0  0
   -6.3430   12.4390    0.2660 C   0  0  0  0  0  0  0  0  0  0  0  0
   -5.9770   11.7050   -0.8310 C   0  0  0  0  0  0  0  0  0  0  0  0
    0.0610   11.8330   -2.4740 C   0  0  0  0  0  0  0  0  0  0  0  0
    0.6440   12.8850   -1.8400 N   0  0  0  0  0  0  0  0  0  0  0  0
   -0.9130   11.5700   -4.7300 C   0  0  0  0  0  0  0  0  0  0  0  0
    0.2850   10.6670   -2.1350 O   0  0  0  0  0  0  0  0  0  0  0  0
   -0.2100   11.8800   -5.9220 C   0  0  0  0  0  0  0  0  0  0  0  0
   -1.7800   10.4700   -4.7760 C   0  0  0  0  0  0  0  0  0  0  0  0
   -0.3820   11.1150   -7.0940 C   0  0  0  0  0  0  0  0  0  0  0  0
   -1.9530    9.7080   -5.9380 C   0  0  0  0  0  0  0  0  0  0  0  0
   -1.2570   10.0300   -7.0930 C   0  0  0  0  0  0  0  0  0  0  0  0
   -1.4890    9.0800   -8.5090 Cl  0  0  0  0  0  0  0  0  0  0  0  0
  1  2  1  0
  2  3  2  3
  4  2  1  6
  4  5  1  0
  4  6  1  0
  7  3  1  1
  5  8  1  0
  6  9  1  0
  5 10  2  0
  7 11  1  0
  7 12  1  0
 12 13  2  0
  8 14  1  0
  9 14  1  0
  8 15  1  0
 10 16  1  0
 15 16  2  0
 11 17  1  0
 12 18  1  0
 17 18  1  0
 11 19  1  0
 17 20  2  0
 19 21  2  0
 19 22  1  0
 21 23  1  0
 22 24  2  0
 23 25  2  0
 24 25  1  0
 25 26  1  0
M  END
