x0685_0_A-x0766_0_A
     RDKit          3D

 24 26  0  0  0  0  0  0  0  0999 V2000
   -6.3190   14.7770    2.6640 N   0  0  0  0  0  0  0  0  0  0  0  0
   -7.7550   14.8390    2.8210 C   0  0  0  0  0  0  0  0  0  0  0  0
   -8.2950   13.4560    3.1350 C   0  0  0  0  0  0  0  0  0  0  0  0
   -5.7120   14.8850    1.4310 C   0  0  0  0  0  0  0  0  0  0  0  0
   -4.4080   15.2730    1.3390 C   0  0  0  0  0  0  0  0  0  0  0  0
   -6.4630   14.5890    0.3400 N   0  0  0  0  0  0  0  0  0  0  0  0
   -3.8360   15.3520    0.0890 C   0  0  0  0  0  0  0  0  0  0  0  0
   -5.8700   14.6750   -0.8900 C   0  0  0  0  0  0  0  0  0  0  0  0
   -4.5530   15.0450   -1.0790 C   0  0  0  0  0  0  0  0  0  0  0  0
   -3.7360   15.1520   -2.3550 C   0  0  2  0  0  0  0  0  0  0  0  0
   -4.1680   14.3580   -3.5070 N   0  0  0  0  0  0  0  0  0  0  0  0
   -2.4150   14.7370   -1.8030 C   0  0  0  0  0  0  0  0  0  0  0  0
   -1.1270   14.4730   -2.2660 C   0  0  0  0  0  0  0  0  0  0  0  0
   -2.5290   14.5350   -0.1030 S   0  0  0  0  0  0  0  0  0  0  0  0
   -0.5930   14.5170   -3.6770 C   0  0  2  0  0  0  0  0  0  0  0  0
   -0.2870   14.1360   -1.1470 C   0  0  0  0  0  0  0  0  0  0  0  0
   -0.9210   14.1360    0.0610 C   0  0  0  0  0  0  0  0  0  0  0  0
    0.1550   13.2260   -4.1080 C   0  0  2  0  0  0  0  0  0  0  0  0
    0.4470   15.6330   -3.7670 C   0  0  0  0  0  0  0  0  0  0  0  0
    0.5590   12.3170   -2.9630 C   0  0  0  0  0  0  0  0  0  0  0  0
    1.3090   13.6870   -4.9990 C   0  0  0  0  0  0  0  0  0  0  0  0
    1.6150   15.1200   -4.5790 C   0  0  0  0  0  0  0  0  0  0  0  0
    1.4080   12.5600   -2.1260 O   0  0  0  0  0  0  0  0  0  0  0  0
   -0.0960   11.1410   -2.9020 O   0  0  0  0  0  0  0  0  0  0  0  0
  1  2  1  0
  2  3  1  0
  1  4  1  0
  4  5  2  0
  4  6  1  0
  5  7  1  0
  6  8  2  0
  7  9  2  0
  8  9  1  0
  9 10  1  0
 10 11  1  6
 10 12  1  0
 12 13  2  0
 12 14  1  0
 15 13  1  1
 13 16  1  0
 14 17  1  0
 16 17  2  0
 15 18  1  0
 15 19  1  0
 18 20  1  1
 18 21  1  0
 19 22  1  0
 21 22  1  0
 20 23  2  0
 20 24  1  0
M  END
