x0689_0_A_α-x0524_0_A_α
     RDKit          3D

 30 32  0  0  0  0  0  0  0  0999 V2000
   -3.6550   15.1120    1.4830 N   0  0  0  0  0  0  0  0  0  0  0  0
   -4.7360   15.2610    0.5480 C   0  0  0  0  0  0  0  0  0  0  0  0
   -2.4310   14.7810    0.9090 C   0  0  0  0  0  0  0  0  0  0  0  0
   -2.2530   14.7530   -0.4310 N   0  0  0  0  0  0  0  0  0  0  0  0
   -1.4790   14.5110    1.7930 N   0  0  0  0  0  0  0  0  0  0  0  0
   -1.0160   14.4410   -0.9040 C   0  0  0  0  0  0  0  0  0  0  0  0
   -0.2780   14.2110    1.3020 C   0  0  0  0  0  0  0  0  0  0  0  0
   -0.7540   14.3970   -2.4100 C   0  0  0  0  0  0  0  0  0  0  0  0
    0.0210   14.1610   -0.0410 C   0  0  0  0  0  0  0  0  0  0  0  0
   -0.4000   13.0110   -2.9930 C   0  0  0  0  0  0  0  0  0  0  0  0
    0.8160   12.9960   -3.9480 C   0  0  0  0  0  0  0  0  0  0  0  0
    0.6020   12.6140   -5.4380 C   0  0  0  0  0  0  0  0  0  0  0  0
   -0.5090   11.5840   -5.7190 C   0  0  0  0  0  0  0  0  0  0  0  0
   -0.1180   10.6850   -6.8140 N   0  0  0  0  0  0  0  0  0  0  0  0
   -0.7810    9.6110   -7.1120 C   0  0  0  0  0  0  0  0  0  0  0  0
   -0.4710    8.7160   -8.1230 N   0  0  0  0  0  0  0  0  0  0  0  0
   -2.0290    9.2090   -6.3350 C   0  0  0  0  0  0  0  0  0  0  0  0
    0.5890    8.6710   -9.0530 C   0  0  0  0  0  0  0  0  0  0  0  0
    1.6810    7.8160   -8.9460 C   0  0  0  0  0  0  0  0  0  0  0  0
    0.5490    9.5270  -10.1610 C   0  0  0  0  0  0  0  0  0  0  0  0
    2.7040    7.8090   -9.9090 C   0  0  0  0  0  0  0  0  0  0  0  0
    1.5680    9.5220  -11.1260 C   0  0  0  0  0  0  0  0  0  0  0  0
    2.6600    8.6610  -11.0130 C   0  0  0  0  0  0  0  0  0  0  0  0
    3.6620    8.6810  -12.0000 N   0  0  0  0  0  0  0  0  0  0  0  0
    3.9370    9.5650  -13.0550 C   0  0  0  0  0  0  0  0  0  0  0  0
    3.2100   10.7350  -13.3020 C   0  0  0  0  0  0  0  0  0  0  0  0
    5.0060    9.2610  -13.9100 C   0  0  0  0  0  0  0  0  0  0  0  0
    3.5350   11.5730  -14.3650 C   0  0  0  0  0  0  0  0  0  0  0  0
    5.3330   10.1000  -14.9770 C   0  0  0  0  0  0  0  0  0  0  0  0
    4.5970   11.2560  -15.2050 C   0  0  0  0  0  0  0  0  0  0  0  0
  1  2  1  0
  1  3  1  0
  3  4  2  0
  3  5  1  0
  4  6  1  0
  5  7  2  0
  6  8  1  0
  6  9  2  0
  7  9  1  0
  8 10  1  0
 10 11  1  0
 11 12  1  0
 12 13  1  0
 13 14  1  0
 14 15  2  3
 15 16  1  0
 15 17  1  0
 16 18  1  0
 18 19  2  0
 18 20  1  0
 19 21  1  0
 20 22  2  0
 21 23  2  0
 22 23  1  0
 23 24  1  0
 24 25  1  0
 25 26  2  0
 25 27  1  0
 26 28  1  0
 27 29  2  0
 28 30  2  0
 29 30  1  0
M  END
