x0689_0_A-x0844_0_A
     RDKit          3D

 15 16  0  0  0  0  0  0  0  0999 V2000
   -3.3030   15.0790    1.9590 N   0  0  0  0  0  0  0  0  0  0  0  0
   -2.1660   15.1330    1.1010 C   0  0  1  0  0  0  0  0  0  0  0  0
   -1.2260   14.3010    1.7530 N   0  0  0  0  0  0  0  0  0  0  0  0
   -2.4500   14.8440   -0.2620 N   0  0  0  0  0  0  0  0  0  0  0  0
   -1.3870   14.4320   -1.0440 C   0  0  0  0  0  0  0  0  0  0  0  0
   -0.0260   14.1960    0.9740 C   0  0  0  0  0  0  0  0  0  0  0  0
   -3.8360   14.3780   -0.2800 C   0  0  1  0  0  0  0  0  0  0  0  0
   -0.2160   14.1190   -0.4980 C   0  0  0  0  0  0  0  0  0  0  0  0
   -4.6350   15.0170    0.8690 C   0  0  0  0  0  0  0  0  0  0  0  0
   -4.5670   14.4700   -1.6190 C   0  0  2  0  0  0  0  0  0  0  0  0
   -3.4380   15.0770   -3.1080 Br  0  0  0  0  0  0  0  0  0  0  0  0
   -6.0350   14.7100    0.8100 N   0  0  0  0  0  0  0  0  0  0  0  0
   -5.8150   15.3390   -1.4980 C   0  0  0  0  0  0  0  0  0  0  0  0
   -6.6950   14.9240   -0.3400 C   0  0  0  0  0  0  0  0  0  0  0  0
   -7.9130   14.7930   -0.4040 O   0  0  0  0  0  0  0  0  0  0  0  0
  2  1  1  1
  2  3  1  0
  2  4  1  0
  4  5  1  0
  3  6  1  0
  7  4  1  6
  5  8  2  0
  6  8  1  0
  7  9  1  0
  7 10  1  0
 10 11  1  6
  9 12  1  0
 10 13  1  0
 12 14  1  0
 13 14  1  0
 14 15  2  0
M  END
