x0711_0_A_α-x0962_3_A_α
     RDKit          3D

 24 25  0  0  0  0  0  0  0  0999 V2000
   -1.5710   15.0850   -2.5530 N   0  0  0  0  0  0  0  0  0  0  0  0
   -0.5310   13.8530   -3.0120 S   0  0  0  0  0  0  0  0  0  0  0  0
   -1.5270   12.9390   -4.1750 C   0  0  0  0  0  0  0  0  0  0  0  0
   -2.7800   14.9370   -1.8000 C   0  0  0  0  0  0  0  0  0  0  0  0
    0.5570   14.4390   -3.7650 O   0  0  0  0  0  0  0  0  0  0  0  0
   -0.2690   13.0500   -1.8400 O   0  0  0  0  0  0  0  0  0  0  0  0
   -4.0040   15.1690   -2.4180 C   0  0  0  0  0  0  0  0  0  0  0  0
   -2.7310   14.5780   -0.4480 C   0  0  0  0  0  0  0  0  0  0  0  0
   -1.3270   13.3620   -5.6270 C   0  0  0  0  0  0  0  0  0  0  0  0
   -5.1880   15.0510   -1.6870 C   0  0  0  0  0  0  0  0  0  0  0  0
   -3.9190   14.4590    0.2880 C   0  0  0  0  0  0  0  0  0  0  0  0
   -0.9480   12.1960   -6.5280 C   0  0  0  0  0  0  0  0  0  0  0  0
   -5.1570   14.6970   -0.3280 C   0  0  0  0  0  0  0  0  0  0  0  0
   -6.4630   14.5960    0.3890 C   0  0  0  0  0  0  0  0  0  0  0  0
    0.5550   11.8820   -6.5800 C   0  0  0  0  0  0  0  0  0  0  0  0
   -6.4780   14.6410    1.7590 N   0  0  0  0  0  0  0  0  0  0  0  0
   -7.5170   14.4840   -0.2230 O   0  0  0  0  0  0  0  0  0  0  0  0
    0.9520   10.7960   -7.5990 C   0  0  2  0  0  0  0  0  0  0  0  0
    0.9750   11.2920   -8.9500 N   0  0  0  0  0  0  0  0  0  0  0  0
   -0.0040    9.6910   -7.6120 C   0  0  0  0  0  0  0  0  0  0  0  0
    0.1690    8.5660   -8.3760 N   0  0  0  0  0  0  0  0  0  0  0  0
   -1.1890    9.4950   -6.9550 C   0  0  0  0  0  0  0  0  0  0  0  0
   -0.9040    7.7580   -8.1480 C   0  0  0  0  0  0  0  0  0  0  0  0
   -1.7430    8.2960   -7.2940 N   0  0  0  0  0  0  0  0  0  0  0  0
  2  1  1  0
  2  3  1  0
  1  4  1  0
  2  5  2  0
  2  6  2  0
  4  7  2  0
  4  8  1  0
  3  9  1  0
  7 10  1  0
  8 11  2  0
  9 12  1  0
 10 13  2  0
 11 13  1  0
 13 14  1  0
 12 15  1  0
 14 16  1  0
 14 17  2  0
 15 18  1  0
 18 19  1  6
 18 20  1  0
 20 21  1  0
 20 22  2  0
 21 23  1  0
 22 24  1  0
 23 24  2  0
M  END
