x0711_0_A-x0104_0_A
     RDKit          3D

 29 31  0  0  0  0  0  0  0  0999 V2000
   -1.4010   14.8970   -0.5110 N   0  0  0  0  0  0  0  0  0  0  0  0
   -0.9600   13.7160   -1.7630 S   0  0  0  0  0  0  0  0  0  0  0  0
   -2.4400   13.3620   -2.7020 C   0  0  0  0  0  0  0  0  0  0  0  0
   -2.5040   15.8070   -0.9440 O   0  0  0  0  0  0  0  0  0  0  0  0
   -0.2910   15.7630   -0.2700 C   0  0  0  0  0  0  0  0  0  0  0  0
   -0.0770   14.3840   -2.7070 O   0  0  0  0  0  0  0  0  0  0  0  0
   -0.4910   12.4600   -1.1840 O   0  0  0  0  0  0  0  0  0  0  0  0
   -0.9390   15.9450   -1.4260 C   0  0  0  0  0  0  0  0  0  0  0  0
   -0.2670   15.0430    0.8630 C   0  0  0  0  0  0  0  0  0  0  0  0
   -3.7180   15.4380   -0.3560 C   0  0  0  0  0  0  0  0  0  0  0  0
   -2.0070   15.0220   -1.4450 C   0  0  0  0  0  0  0  0  0  0  0  0
   -1.3170   14.1380    0.8530 C   0  0  0  0  0  0  0  0  0  0  0  0
   -3.7630   15.4140    0.9950 N   0  0  0  0  0  0  0  0  0  0  0  0
   -4.8030   15.1070   -1.1590 C   0  0  0  0  0  0  0  0  0  0  0  0
   -2.1930   14.1160   -0.3000 C   0  0  0  0  0  0  0  0  0  0  0  0
   -4.9270   15.0210    1.5660 C   0  0  0  0  0  0  0  0  0  0  0  0
   -5.9910   14.7050   -0.5400 C   0  0  0  0  0  0  0  0  0  0  0  0
   -3.3210   13.1450   -0.3360 C   0  0  0  0  0  0  0  0  0  0  0  0
   -6.0710   14.6440    0.8590 C   0  0  0  0  0  0  0  0  0  0  0  0
   -4.3060   13.2490    0.3740 O   0  0  0  0  0  0  0  0  0  0  0  0
   -7.3440   14.1760    1.5530 C   0  0  0  0  0  0  0  0  0  0  0  0
   -8.0740   15.1780    2.4460 C   0  0  0  0  0  0  0  0  0  0  0  0
   -7.6150   15.1890    3.7500 N   0  0  0  0  0  0  0  0  0  0  0  0
   -8.9850   15.8730    1.9920 O   0  0  0  0  0  0  0  0  0  0  0  0
   -8.2760   15.8290    4.7790 C   0  0  0  0  0  0  0  0  0  0  0  0
   -8.3350   15.6280    6.1340 C   0  0  0  0  0  0  0  0  0  0  0  0
   -9.2250   17.1490    4.2770 S   0  0  0  0  0  0  0  0  0  0  0  0
   -9.7350   17.4770    5.8770 C   0  0  0  0  0  0  0  0  0  0  0  0
   -9.1850   16.5860    6.7720 C   0  0  0  0  0  0  0  0  0  0  0  0
  2  1  1  0
  2  3  1  0
  1  4  1  0
  1  5  1  0
  2  6  2  0
  2  7  2  0
  5  8  2  0
  5  9  1  0
  4 10  1  0
  8 11  1  0
  9 12  2  0
 10 13  2  0
 10 14  1  0
 11 15  2  0
 12 15  1  0
 13 16  1  0
 14 17  2  0
 15 18  1  0
 16 19  2  0
 17 19  1  0
 18 20  2  0
 19 21  1  0
 21 22  1  0
 22 23  1  0
 22 24  2  0
 23 25  1  0
 25 26  2  0
 25 27  1  0
 27 28  1  0
 26 29  1  0
 28 29  2  0
M  END
