x0711_0_A-x0837_0_A
     RDKit          3D

 14 14  0  0  0  0  0  0  0  0999 V2000
   -1.5460   15.0580   -2.5540 N   0  0  0  0  0  0  0  0  0  0  0  0
   -0.5630   13.8040   -3.0740 S   0  0  0  0  0  0  0  0  0  0  0  0
   -1.6830   12.7630   -3.9820 C   0  0  0  0  0  0  0  0  0  0  0  0
   -2.7770   14.9290   -1.8370 C   0  0  0  0  0  0  0  0  0  0  0  0
    0.3160   14.4300   -4.0380 O   0  0  0  0  0  0  0  0  0  0  0  0
   -0.0330   13.0830   -1.9410 O   0  0  0  0  0  0  0  0  0  0  0  0
   -3.9950   15.1650   -2.4730 C   0  0  0  0  0  0  0  0  0  0  0  0
   -2.7610   14.5790   -0.4810 C   0  0  0  0  0  0  0  0  0  0  0  0
   -5.1970   15.0580   -1.7670 C   0  0  0  0  0  0  0  0  0  0  0  0
   -3.9630   14.4710    0.2300 C   0  0  0  0  0  0  0  0  0  0  0  0
   -5.1900   14.7120   -0.4130 C   0  0  0  0  0  0  0  0  0  0  0  0
   -6.4550   14.5940    0.3730 C   0  0  0  0  0  0  0  0  0  0  0  0
   -6.4050   14.6770    1.7370 N   0  0  0  0  0  0  0  0  0  0  0  0
   -7.5330   14.4410   -0.1910 O   0  0  0  0  0  0  0  0  0  0  0  0
  2  1  1  0
  2  3  1  0
  1  4  1  0
  2  5  2  0
  2  6  2  0
  4  7  2  0
  4  8  1  0
  7  9  1  0
  8 10  2  0
  9 11  2  0
 10 11  1  0
 11 12  1  0
 12 13  1  0
 12 14  2  0
M  END
