x0711_0_A_α-x0662_0_A_α
     RDKit          3D

 28 29  0  0  0  0  0  0  0  0999 V2000
   -1.7110   15.0110   -2.8590 N   0  0  0  0  0  0  0  0  0  0  0  0
   -0.4960   13.8570   -3.0770 S   0  0  0  0  0  0  0  0  0  0  0  0
   -1.2390   12.6970   -4.2200 C   0  0  0  0  0  0  0  0  0  0  0  0
   -2.8280   14.8790   -1.9550 C   0  0  0  0  0  0  0  0  0  0  0  0
    0.5100   14.5810   -3.8270 O   0  0  0  0  0  0  0  0  0  0  0  0
   -0.1640   13.1870   -1.8430 O   0  0  0  0  0  0  0  0  0  0  0  0
   -4.0720   15.1330   -2.5220 C   0  0  0  0  0  0  0  0  0  0  0  0
   -2.7440   14.5380   -0.5940 C   0  0  0  0  0  0  0  0  0  0  0  0
   -0.2610   11.6790   -4.8190 C   0  0  0  0  0  0  0  0  0  0  0  0
   -5.2380   15.0540   -1.7600 C   0  0  0  0  0  0  0  0  0  0  0  0
   -3.9210   14.4560    0.1820 C   0  0  0  0  0  0  0  0  0  0  0  0
   -0.0250   11.7480   -6.3340 C   0  0  0  0  0  0  0  0  0  0  0  0
   -5.1730   14.7140   -0.4040 C   0  0  0  0  0  0  0  0  0  0  0  0
   -6.4180   14.6230    0.4140 C   0  0  0  0  0  0  0  0  0  0  0  0
   -0.5540   10.5520   -7.1390 C   0  0  0  0  0  0  0  0  0  0  0  0
   -6.3430   14.7460    1.7760 N   0  0  0  0  0  0  0  0  0  0  0  0
   -7.5090   14.4500   -0.1230 O   0  0  0  0  0  0  0  0  0  0  0  0
   -0.4780   10.6710   -8.6690 C   0  0  0  0  0  0  0  0  0  0  0  0
    0.9030   10.4050   -9.2810 C   0  0  0  0  0  0  0  0  0  0  0  0
    1.0210   10.5210  -10.8060 C   0  0  0  0  0  0  0  0  0  0  0  0
    2.0590    9.5730  -11.4090 C   0  0  0  0  0  0  0  0  0  0  0  0
    2.2300    8.4520  -10.9170 O   0  0  0  0  0  0  0  0  0  0  0  0
    2.8580   10.0130  -12.5680 C   0  0  0  0  0  0  0  0  0  0  0  0
    3.8050    9.2390  -13.1330 N   0  0  0  0  0  0  0  0  0  0  0  0
    2.7690   11.2670  -13.2400 C   0  0  0  0  0  0  0  0  0  0  0  0
    4.3000    9.9930  -14.1350 N   0  0  0  0  0  0  0  0  0  0  0  0
    3.7100   11.2160  -14.2400 C   0  0  0  0  0  0  0  0  0  0  0  0
    5.3600    9.4680  -14.9660 C   0  0  0  0  0  0  0  0  0  0  0  0
  2  1  1  0
  2  3  1  0
  1  4  1  0
  2  5  2  0
  2  6  2  0
  4  7  2  0
  4  8  1  0
  3  9  1  0
  7 10  1  0
  8 11  2  0
  9 12  1  0
 10 13  2  0
 11 13  1  0
 13 14  1  0
 12 15  1  0
 14 16  1  0
 14 17  2  0
 15 18  1  0
 18 19  1  0
 19 20  1  0
 20 21  1  0
 21 22  2  0
 21 23  1  0
 23 24  2  0
 23 25  1  0
 24 26  1  0
 25 27  2  0
 26 27  1  0
 26 28  1  0
M  END
