x0711_0_A-x0104_0_A
     RDKit          3D

 29 31  0  0  0  0  0  0  0  0999 V2000
   -0.8060   14.7470   -0.4550 N   0  0  0  0  0  0  0  0  0  0  0  0
    0.2350   13.9740   -1.6680 S   0  0  0  0  0  0  0  0  0  0  0  0
   -0.5930   14.1160   -3.2450 C   0  0  0  0  0  0  0  0  0  0  0  0
   -2.0120   15.4120   -1.0100 O   0  0  0  0  0  0  0  0  0  0  0  0
   -0.1170   15.7670    0.2630 C   0  0  0  0  0  0  0  0  0  0  0  0
    1.4220   14.7990   -1.7900 O   0  0  0  0  0  0  0  0  0  0  0  0
    0.4120   12.5550   -1.3680 O   0  0  0  0  0  0  0  0  0  0  0  0
   -0.5330   16.1660   -0.9490 C   0  0  0  0  0  0  0  0  0  0  0  0
   -0.1040   14.7440    1.1000 C   0  0  0  0  0  0  0  0  0  0  0  0
   -3.1860   15.0520   -0.3180 C   0  0  0  0  0  0  0  0  0  0  0  0
   -1.2280   15.1280   -1.5680 C   0  0  0  0  0  0  0  0  0  0  0  0
   -0.7720   13.7160    0.4890 C   0  0  0  0  0  0  0  0  0  0  0  0
   -3.0310   14.2960    0.7870 N   0  0  0  0  0  0  0  0  0  0  0  0
   -4.4320   15.4640   -0.7800 C   0  0  0  0  0  0  0  0  0  0  0  0
   -1.3480   13.8800   -0.8340 C   0  0  0  0  0  0  0  0  0  0  0  0
   -4.1480   13.9210    1.4470 C   0  0  0  0  0  0  0  0  0  0  0  0
   -5.5720   15.0620   -0.0720 C   0  0  0  0  0  0  0  0  0  0  0  0
   -2.0790   12.7530   -1.4770 C   0  0  0  0  0  0  0  0  0  0  0  0
   -5.4460   14.2630    1.0740 C   0  0  0  0  0  0  0  0  0  0  0  0
   -3.2400   12.4570   -1.2050 O   0  0  0  0  0  0  0  0  0  0  0  0
   -6.6340   13.7640    1.8860 C   0  0  0  0  0  0  0  0  0  0  0  0
   -7.6130   14.8160    2.4270 C   0  0  0  0  0  0  0  0  0  0  0  0
   -7.4500   15.0410    3.7820 N   0  0  0  0  0  0  0  0  0  0  0  0
   -8.4440   15.3560    1.6920 O   0  0  0  0  0  0  0  0  0  0  0  0
   -8.2400   15.8360    4.5850 C   0  0  0  0  0  0  0  0  0  0  0  0
   -8.3190   15.9840    5.9440 C   0  0  0  0  0  0  0  0  0  0  0  0
   -9.3390   16.8460    3.7720 S   0  0  0  0  0  0  0  0  0  0  0  0
   -9.9260   17.5040    5.2390 C   0  0  0  0  0  0  0  0  0  0  0  0
   -9.2980   16.9520    6.3240 C   0  0  0  0  0  0  0  0  0  0  0  0
  2  1  1  0
  2  3  1  0
  1  4  1  0
  1  5  1  0
  2  6  2  0
  2  7  2  0
  5  8  2  0
  5  9  1  0
  4 10  1  0
  8 11  1  0
  9 12  2  0
 10 13  2  0
 10 14  1  0
 11 15  2  0
 12 15  1  0
 13 16  1  0
 14 17  2  0
 15 18  1  0
 16 19  2  0
 17 19  1  0
 18 20  2  0
 19 21  1  0
 21 22  1  0
 22 23  1  0
 22 24  2  0
 23 25  1  0
 25 26  2  0
 25 27  1  0
 27 28  1  0
 26 29  1  0
 28 29  2  0
M  END
