x0711_0_A-x0685_0_A
     RDKit          3D

 16 16  0  0  0  0  0  0  0  0999 V2000
   -1.7320   15.0880   -2.7550 N   0  0  0  0  0  0  0  0  0  0  0  0
   -0.5650   13.9240   -3.0760 S   0  0  0  0  0  0  0  0  0  0  0  0
   -1.4930   12.6990   -3.9740 C   0  0  0  0  0  0  0  0  0  0  0  0
   -2.8580   14.9400   -1.8900 C   0  0  0  0  0  0  0  0  0  0  0  0
    0.4140   14.4960   -3.9710 O   0  0  0  0  0  0  0  0  0  0  0  0
   -0.1710   13.3530   -1.8060 O   0  0  0  0  0  0  0  0  0  0  0  0
   -4.1100   15.1800   -2.4450 C   0  0  0  0  0  0  0  0  0  0  0  0
   -2.7530   14.5850   -0.5400 C   0  0  0  0  0  0  0  0  0  0  0  0
   -5.2600   15.0720   -1.6640 C   0  0  0  0  0  0  0  0  0  0  0  0
   -3.9090   14.4740    0.2510 C   0  0  0  0  0  0  0  0  0  0  0  0
   -5.1700   14.7180   -0.3120 C   0  0  0  0  0  0  0  0  0  0  0  0
   -6.4450   14.6180    0.4660 C   0  0  0  0  0  0  0  0  0  0  0  0
   -6.3660   14.6490    1.8500 N   0  0  0  0  0  0  0  0  0  0  0  0
   -7.5080   14.5200   -0.1380 O   0  0  0  0  0  0  0  0  0  0  0  0
   -7.5540   14.7870    2.6670 C   0  0  0  0  0  0  0  0  0  0  0  0
   -8.0290   13.4330    3.1530 C   0  0  0  0  0  0  0  0  0  0  0  0
  2  1  1  0
  2  3  1  0
  1  4  1  0
  2  5  2  0
  2  6  2  0
  4  7  2  0
  4  8  1  0
  7  9  1  0
  8 10  2  0
  9 11  2  0
 10 11  1  0
 11 12  1  0
 12 13  1  0
 12 14  2  0
 13 15  1  0
 15 16  1  0
M  END
