x0711_0_A-x0849_0_A
     RDKit          3D

 19 20  0  0  0  0  0  0  0  0999 V2000
   -1.6300   15.1560   -2.6880 N   0  0  0  0  0  0  0  0  0  0  0  0
   -0.4820   14.1780   -3.4300 S   0  0  0  0  0  0  0  0  0  0  0  0
   -1.4800   12.9410   -4.2290 C   0  0  0  0  0  0  0  0  0  0  0  0
   -2.7950   14.5730   -2.0020 C   0  0  2  0  0  0  0  0  0  0  0  0
    0.1990   14.9630   -4.4290 O   0  0  0  0  0  0  0  0  0  0  0  0
    0.2630   13.5290   -2.3720 O   0  0  0  0  0  0  0  0  0  0  0  0
   -3.9950   15.4330   -2.2100 C   0  0  0  0  0  0  0  0  0  0  0  0
   -2.5280   14.2010   -0.5060 C   0  0  1  0  0  0  0  0  0  0  0  0
   -4.9730   15.5200   -1.3060 C   0  0  0  0  0  0  0  0  0  0  0  0
   -3.8780   13.6310    0.0390 C   0  0  0  0  0  0  0  0  0  0  0  0
   -1.2240   13.3630   -0.6340 C   0  0  0  0  0  0  0  0  0  0  0  0
   -2.0940   15.2330    0.5510 C   0  0  0  0  0  0  0  0  0  0  0  0
   -4.9450   14.7750    0.0020 C   0  0  2  0  0  0  0  0  0  0  0  0
   -1.6540   14.5460    1.7210 N   0  0  0  0  0  0  0  0  0  0  0  0
   -0.1280   13.5980    0.3680 C   0  0  0  0  0  0  0  0  0  0  0  0
   -6.3750   14.4090    0.4460 C   0  0  0  0  0  0  0  0  0  0  0  0
   -0.3880   14.1640    1.5270 C   0  0  0  0  0  0  0  0  0  0  0  0
   -6.5890   14.4200    1.7950 N   0  0  0  0  0  0  0  0  0  0  0  0
   -7.3000   14.1420   -0.3120 O   0  0  0  0  0  0  0  0  0  0  0  0
  2  1  1  0
  2  3  1  0
  4  1  1  1
  2  5  2  0
  2  6  2  0
  4  7  1  0
  4  8  1  0
  7  9  2  0
  8 10  1  1
  8 11  1  0
  8 12  1  0
  9 13  1  0
 10 13  1  0
 12 14  1  0
 11 15  1  0
 13 16  1  6
 14 17  1  0
 15 17  2  0
 16 18  1  0
 16 19  2  0
M  END
