x0711_0_A_α-x0962_2_B_α
     RDKit          3D

 21 22  0  0  0  0  0  0  0  0999 V2000
   -1.8130   15.1030   -2.5960 N   0  0  0  0  0  0  0  0  0  0  0  0
   -0.6830   13.9020   -2.9790 S   0  0  0  0  0  0  0  0  0  0  0  0
   -1.6720   12.7300   -3.8730 C   0  0  0  0  0  0  0  0  0  0  0  0
   -2.9830   14.9420   -1.7710 C   0  0  0  0  0  0  0  0  0  0  0  0
    0.2950   14.4670   -3.8840 O   0  0  0  0  0  0  0  0  0  0  0  0
   -0.2680   13.2990   -1.7320 O   0  0  0  0  0  0  0  0  0  0  0  0
   -4.2150   15.1630   -2.3780 C   0  0  0  0  0  0  0  0  0  0  0  0
   -2.9270   14.5970   -0.4120 C   0  0  0  0  0  0  0  0  0  0  0  0
   -5.4000   15.0470   -1.6410 C   0  0  0  0  0  0  0  0  0  0  0  0
   -4.1220   14.4780    0.3370 C   0  0  0  0  0  0  0  0  0  0  0  0
   -5.3700   14.7050   -0.2810 C   0  0  0  0  0  0  0  0  0  0  0  0
   -6.6940   14.6030    0.4280 C   0  0  0  0  0  0  0  0  0  0  0  0
   -6.8780   14.3110    1.7810 N   0  0  0  0  0  0  0  0  0  0  0  0
   -7.6970   14.7810   -0.2620 O   0  0  0  0  0  0  0  0  0  0  0  0
   -7.6920   14.8990    2.7660 C   0  0  0  0  0  0  0  0  0  0  0  0
   -8.9030   15.5910    2.6610 C   0  0  0  0  0  0  0  0  0  0  0  0
   -7.3440   14.8610    4.0860 N   0  0  0  0  0  0  0  0  0  0  0  0
   -9.7230   15.9260    1.5620 C   0  0  0  0  0  0  0  0  0  0  0  0
   -9.2320   15.9590    3.9430 N   0  0  0  0  0  0  0  0  0  0  0  0
   -8.2550   15.4930    4.7620 C   0  0  0  0  0  0  0  0  0  0  0  0
  -10.4300   16.2300    0.6960 N   0  0  0  0  0  0  0  0  0  0  0  0
  2  1  1  0
  2  3  1  0
  1  4  1  0
  2  5  2  0
  2  6  2  0
  4  7  2  0
  4  8  1  0
  7  9  1  0
  8 10  2  0
  9 11  2  0
 10 11  1  0
 11 12  1  0
 12 13  1  0
 12 14  2  0
 13 15  1  0
 15 16  2  0
 15 17  1  0
 16 18  1  0
 16 19  1  0
 17 20  2  0
 19 20  1  0
 18 21  3  0
M  END
