x0711_0_A_α-6WOJ_0_A_β
     RDKit          3D

 24 24  0  0  0  0  0  0  0  0999 V2000
   -1.3230   15.0640   -2.2440 N   0  0  0  0  0  0  0  0  0  0  0  0
   -0.6020   14.1530   -3.4930 S   0  0  1  0  0  0  0  0  0  0  0  0
   -1.7540   13.0960   -4.3250 C   0  0  0  0  0  0  0  0  0  0  0  0
   -2.6400   14.9480   -1.6890 C   0  0  0  0  0  0  0  0  0  0  0  0
    0.1570   15.1000   -4.5120 N   0  0  0  0  0  0  0  0  0  0  0  0
    0.4720   13.3050   -2.8250 O   0  0  0  0  0  0  0  0  0  0  0  0
   -3.8170   15.1600   -2.3710 C   0  0  0  0  0  0  0  0  0  0  0  0
   -2.7440   14.6140   -0.3540 C   0  0  0  0  0  0  0  0  0  0  0  0
    0.1560   16.5360   -4.6140 C   0  0  0  0  0  0  0  0  0  0  0  0
   -5.0650   15.0530   -1.7450 C   0  0  0  0  0  0  0  0  0  0  0  0
   -3.9830   14.5080    0.2680 C   0  0  0  0  0  0  0  0  0  0  0  0
   -0.6370   16.8830   -5.7490 O   0  0  0  0  0  0  0  0  0  0  0  0
   -5.1490   14.7250   -0.4070 C   0  0  0  0  0  0  0  0  0  0  0  0
   -6.4450   14.6230    0.2380 C   0  0  0  0  0  0  0  0  0  0  0  0
   -1.2770   18.2940   -5.9480 P   0  0  0  0  0  0  0  0  0  0  0  0
   -6.6090   14.5690    1.6470 N   0  0  0  0  0  0  0  0  0  0  0  0
   -7.4840   14.5880   -0.4660 O   0  0  0  0  0  0  0  0  0  0  0  0
    0.0010   18.9780   -6.6710 O   0  0  0  0  0  0  0  0  0  0  0  0
   -1.4850   18.4560   -4.3320 O   0  0  0  0  0  0  0  0  0  0  0  0
   -2.5460   17.7050   -6.8020 O   0  0  0  0  0  0  0  0  0  0  0  0
   -0.1290   19.9100   -7.8700 P   0  0  0  0  0  0  0  0  0  0  0  0
   -1.6300   20.3850   -7.5660 O   0  0  0  0  0  0  0  0  0  0  0  0
    1.1930   20.8250   -7.4340 O   0  0  0  0  0  0  0  0  0  0  0  0
    0.1040   18.5940   -8.8460 O   0  0  0  0  0  0  0  0  0  0  0  0
  2  1  1  0
  2  3  1  6
  1  4  1  0
  2  5  2  0
  2  6  2  0
  4  7  2  0
  4  8  1  0
  5  9  1  0
  7 10  1  0
  8 11  2  0
  9 12  1  0
 10 13  2  0
 11 13  1  0
 13 14  1  0
 12 15  1  0
 14 16  1  0
 14 17  2  0
 15 18  1  0
 15 19  1  0
 15 20  1  0
 18 21  1  0
 21 22  1  0
 21 23  1  0
 21 24  1  0
M  CHG  2  19  -1  23  -1
M  END
