x0711_0_A-x0864_0_A
     RDKit          3D

 24 25  0  0  0  0  0  0  0  0999 V2000
   -1.6930   14.9800   -2.5620 N   0  0  0  0  0  0  0  0  0  0  0  0
   -1.0240   13.7100   -3.3680 S   0  0  0  0  0  0  0  0  0  0  0  0
   -1.7700   12.9040   -4.5840 C   0  0  0  0  0  0  0  0  0  0  0  0
   -2.8580   14.8940   -1.7560 C   0  0  0  0  0  0  0  0  0  0  0  0
   -0.0370   14.4490   -3.9990 O   0  0  0  0  0  0  0  0  0  0  0  0
    0.1980   12.8590   -2.4990 N   0  0  0  0  0  0  0  0  0  0  0  0
   -4.0660   15.1320   -2.3740 C   0  0  0  0  0  0  0  0  0  0  0  0
   -2.8560   14.5890   -0.4240 C   0  0  0  0  0  0  0  0  0  0  0  0
   -0.0790   11.6380   -2.5370 C   0  0  0  0  0  0  0  0  0  0  0  0
   -5.2650   15.0640   -1.6810 C   0  0  0  0  0  0  0  0  0  0  0  0
   -4.0630   14.5180    0.2760 C   0  0  0  0  0  0  0  0  0  0  0  0
   -1.1370   11.5430   -4.8430 C   0  0  2  0  0  0  0  0  0  0  0  0
    0.6070   10.5700   -2.0060 O   0  0  0  0  0  0  0  0  0  0  0  0
   -5.2740   14.7470   -0.3320 C   0  0  0  0  0  0  0  0  0  0  0  0
    0.1930   11.6770   -5.2680 N   0  0  0  0  0  0  0  0  0  0  0  0
   -1.9820   10.4740   -5.5630 C   0  0  0  0  0  0  0  0  0  0  0  0
   -6.5440   14.6640    0.3830 C   0  0  0  0  0  0  0  0  0  0  0  0
   -1.6300   10.2580   -7.0530 C   0  0  2  0  0  0  0  0  0  0  0  0
    0.5780   11.2280   -6.5380 C   0  0  0  0  0  0  0  0  0  0  0  0
   -6.6020   14.4450    1.7790 N   0  0  0  0  0  0  0  0  0  0  0  0
   -7.6100   14.7770   -0.2530 O   0  0  0  0  0  0  0  0  0  0  0  0
    1.5890   11.7450   -7.0680 O   0  0  0  0  0  0  0  0  0  0  0  0
   -2.3990    8.6140   -7.6770 Br  0  0  0  0  0  0  0  0  0  0  0  0
   -0.1150   10.1670   -7.2480 C   0  0  0  0  0  0  0  0  0  0  0  0
  1  2  1  0
  2  3  1  0
  1  4  1  0
  2  5  2  0
  2  6  1  0
  4  7  2  0
  4  8  1  0
  6  9  2  3
  7 10  1  0
  8 11  2  0
 12  3  1  6
  9 13  1  0
 10 14  2  0
 11 14  1  0
 12 15  1  0
 12 16  1  0
 14 17  1  0
 16 18  1  0
 15 19  1  0
 17 20  1  0
 17 21  2  0
 19 22  2  0
 18 23  1  1
 18 24  1  0
 19 24  1  0
M  END
