x0711_0_A-x0926_0_A
     RDKit          3D

 14 14  0  0  0  0  0  0  0  0999 V2000
   -1.5410   15.1020   -2.5410 N   0  0  0  0  0  0  0  0  0  0  0  0
   -0.5630   13.8510   -3.0690 S   0  0  0  0  0  0  0  0  0  0  0  0
   -1.6870   12.8050   -3.9650 C   0  0  0  0  0  0  0  0  0  0  0  0
   -2.7730   14.9740   -1.8270 C   0  0  0  0  0  0  0  0  0  0  0  0
    0.3130   14.4760   -4.0400 O   0  0  0  0  0  0  0  0  0  0  0  0
   -0.0220   13.1310   -1.9400 O   0  0  0  0  0  0  0  0  0  0  0  0
   -3.9910   15.2060   -2.4640 C   0  0  0  0  0  0  0  0  0  0  0  0
   -2.7560   14.6310   -0.4700 C   0  0  0  0  0  0  0  0  0  0  0  0
   -5.1940   15.0930   -1.7600 C   0  0  0  0  0  0  0  0  0  0  0  0
   -3.9590   14.5240    0.2400 C   0  0  0  0  0  0  0  0  0  0  0  0
   -5.1860   14.7510   -0.4040 C   0  0  0  0  0  0  0  0  0  0  0  0
   -6.4490   14.6250    0.3810 C   0  0  0  0  0  0  0  0  0  0  0  0
   -6.4000   14.7100    1.7470 N   0  0  0  0  0  0  0  0  0  0  0  0
   -7.5260   14.4600   -0.1820 O   0  0  0  0  0  0  0  0  0  0  0  0
  2  1  1  0
  2  3  1  0
  1  4  1  0
  2  5  2  0
  2  6  2  0
  4  7  2  0
  4  8  1  0
  7  9  1  0
  8 10  2  0
  9 11  2  0
 10 11  1  0
 11 12  1  0
 12 13  1  0
 12 14  2  0
M  END
