x0711_0_A_α-x0631_0_A_β
     RDKit          3D

 25 26  0  0  0  0  0  0  0  0999 V2000
   -1.5940   15.0780   -2.5890 N   0  0  0  0  0  0  0  0  0  0  0  0
   -0.5900   13.8010   -3.0540 S   0  0  0  0  0  0  0  0  0  0  0  0
   -1.7080   12.6440   -3.8260 C   0  0  0  0  0  0  0  0  0  0  0  0
   -2.8040   14.9310   -1.8260 C   0  0  0  0  0  0  0  0  0  0  0  0
    0.3510   14.2920   -4.0350 O   0  0  0  0  0  0  0  0  0  0  0  0
   -0.1130   13.2150   -1.8190 O   0  0  0  0  0  0  0  0  0  0  0  0
   -4.0330   15.1590   -2.4380 C   0  0  0  0  0  0  0  0  0  0  0  0
   -2.7480   14.5770   -0.4730 C   0  0  0  0  0  0  0  0  0  0  0  0
   -1.2600   11.1860   -3.8620 C   0  0  0  0  0  0  0  0  0  0  0  0
   -5.2150   15.0450   -1.7050 C   0  0  0  0  0  0  0  0  0  0  0  0
   -3.9330   14.4600    0.2670 C   0  0  0  0  0  0  0  0  0  0  0  0
   -0.6640   10.7630   -5.2070 C   0  0  0  0  0  0  0  0  0  0  0  0
   -5.1700   14.6950   -0.3490 C   0  0  0  0  0  0  0  0  0  0  0  0
   -6.4580   14.5890    0.3910 C   0  0  0  0  0  0  0  0  0  0  0  0
   -0.6580    9.2350   -5.3410 C   0  0  0  0  0  0  0  0  0  0  0  0
   -6.4340   14.6990    1.7580 N   0  0  0  0  0  0  0  0  0  0  0  0
   -7.5180   14.4230   -0.2030 O   0  0  0  0  0  0  0  0  0  0  0  0
   -0.3140    8.6030   -6.7260 C   0  0  1  0  0  0  0  0  0  0  0  0
   -1.5910    8.1810   -7.4780 C   0  0  0  0  0  0  0  0  0  0  0  0
    0.6320    9.3960   -7.5490 N   0  0  0  0  0  0  0  0  0  0  0  0
   -2.6240    9.2690   -7.7270 C   0  0  0  0  0  0  0  0  0  0  0  0
    0.5240    9.2460   -8.9700 N   0  0  0  0  0  0  0  0  0  0  0  0
    0.6300   10.7960   -7.3450 N   0  0  0  0  0  0  0  0  0  0  0  0
    1.2650   10.4120   -9.4600 C   0  0  0  0  0  0  0  0  0  0  0  0
    1.6730   11.1500   -8.2620 N   0  0  0  0  0  0  0  0  0  0  0  0
  2  1  1  0
  2  3  1  0
  1  4  1  0
  2  5  2  0
  2  6  2  0
  4  7  2  0
  4  8  1  0
  3  9  1  0
  7 10  1  0
  8 11  2  0
  9 12  1  0
 10 13  2  0
 11 13  1  0
 13 14  1  0
 12 15  1  0
 14 16  1  0
 14 17  2  0
 18 15  1  1
 18 19  1  0
 18 20  1  0
 19 21  1  0
 20 22  1  0
 20 23  1  0
 22 24  1  0
 23 25  1  0
 24 25  1  0
M  END
