x0711_0_A-x0910_0_A
     RDKit          3D

 19 20  0  0  0  0  0  0  0  0999 V2000
   -1.6170   14.7610   -1.9930 N   0  0  0  0  0  0  0  0  0  0  0  0
   -0.8010   13.7990   -3.1220 S   0  0  0  0  0  0  0  0  0  0  0  0
   -2.0850   12.9180   -3.9770 C   0  0  0  0  0  0  0  0  0  0  0  0
   -2.9760   14.7280   -1.5810 C   0  0  0  0  0  0  0  0  0  0  0  0
   -1.0380   14.8950   -0.7460 C   0  0  0  0  0  0  0  0  0  0  0  0
   -0.1730   14.6540   -4.1180 O   0  0  0  0  0  0  0  0  0  0  0  0
    0.0020   12.8330   -2.3980 O   0  0  0  0  0  0  0  0  0  0  0  0
   -4.0610   15.1780   -2.3360 C   0  0  0  0  0  0  0  0  0  0  0  0
   -3.1730   14.2260   -0.2940 C   0  0  0  0  0  0  0  0  0  0  0  0
   -1.7660   14.7180    0.3790 N   0  0  0  0  0  0  0  0  0  0  0  0
    0.2390   15.2250   -0.5210 N   0  0  0  0  0  0  0  0  0  0  0  0
   -5.3460   15.1290   -1.7610 C   0  0  0  0  0  0  0  0  0  0  0  0
   -4.4210   14.1790    0.2640 C   0  0  0  0  0  0  0  0  0  0  0  0
   -0.8840   14.9660    1.3260 N   0  0  0  0  0  0  0  0  0  0  0  0
    0.3000   15.2750    0.7840 C   0  0  0  0  0  0  0  0  0  0  0  0
   -5.5120   14.6300   -0.4470 C   0  0  0  0  0  0  0  0  0  0  0  0
   -6.8080   14.5470    0.2670 C   0  0  0  0  0  0  0  0  0  0  0  0
   -6.7820   14.5370    1.6460 N   0  0  0  0  0  0  0  0  0  0  0  0
   -7.8680   14.4970   -0.3330 O   0  0  0  0  0  0  0  0  0  0  0  0
  2  1  1  0
  2  3  1  0
  1  4  1  0
  1  5  1  0
  2  6  2  0
  2  7  2  0
  4  8  2  0
  4  9  1  0
  5 10  2  0
  5 11  1  0
  8 12  1  0
  9 13  2  0
 10 14  1  0
 11 15  2  0
 14 15  1  0
 12 16  2  0
 13 16  1  0
 16 17  1  0
 17 18  1  0
 17 19  2  0
M  END
