x0711_0_A_α-x0290_0_A_α
     RDKit          3D

 22 23  0  0  0  0  0  0  0  0999 V2000
   -2.1110   14.6290   -2.1800 N   0  0  0  0  0  0  0  0  0  0  0  0
   -0.9400   14.0580   -3.3130 S   0  0  0  0  0  0  0  0  0  0  0  0
   -1.8690   12.9410   -4.3380 C   0  0  0  0  0  0  0  0  0  0  0  0
   -3.6030   14.9310   -2.4360 C   0  0  1  0  0  0  0  0  0  0  0  0
   -1.7930   14.2140   -0.8740 C   0  0  0  0  0  0  0  0  0  0  0  0
   -0.4680   15.1410   -4.1560 O   0  0  0  0  0  0  0  0  0  0  0  0
    0.0260   13.2800   -2.5590 O   0  0  0  0  0  0  0  0  0  0  0  0
   -4.0260   14.7530   -3.8610 C   0  0  0  0  0  0  0  0  0  0  0  0
   -4.6260   13.9810   -1.6460 C   0  0  1  0  0  0  0  0  0  0  0  0
   -0.7160   14.6930   -0.2670 C   0  0  0  0  0  0  0  0  0  0  0  0
   -5.8200   14.5710   -0.8250 C   0  0  0  0  0  0  0  0  0  0  0  0
   -5.1800   13.0430   -2.7280 C   0  0  0  0  0  0  0  0  0  0  0  0
   -0.4340   14.3220    1.1250 C   0  0  0  0  0  0  0  0  0  0  0  0
   -4.8790   13.7390   -4.0190 C   0  0  0  0  0  0  0  0  0  0  0  0
   -5.8740   14.3760    0.5670 N   0  0  0  0  0  0  0  0  0  0  0  0
   -6.7650   15.1660   -1.3490 O   0  0  0  0  0  0  0  0  0  0  0  0
   -1.7210   14.3670    1.8150 N   0  0  0  0  0  0  0  0  0  0  0  0
   -7.1910   14.0850    1.1020 N   0  0  0  0  0  0  0  0  0  0  0  0
   -4.7720   13.8890    1.3830 C   0  0  0  0  0  0  0  0  0  0  0  0
   -2.7360   15.2360    1.2340 C   0  0  2  0  0  0  0  0  0  0  0  0
   -4.0120   15.0290    1.8740 N   0  0  0  0  0  0  0  0  0  0  0  0
   -3.0400   14.9710   -0.2130 C   0  0  0  0  0  0  0  0  0  0  0  0
  1  2  1  0
  2  3  1  0
  1  4  1  0
  1  5  1  0
  2  6  2  0
  2  7  2  0
  4  8  1  6
  4  9  1  0
  5 10  2  0
  9 11  1  0
  9 12  1  6
 10 13  1  0
  8 14  2  0
 12 14  1  0
 11 15  1  0
 11 16  2  0
 13 17  1  0
 15 18  1  0
 15 19  1  0
 17 20  1  0
 19 21  1  0
 20 21  1  0
 20 22  1  6
M  END
