x0711_0_A_α-x0844_0_A_α
     RDKit          3D

 14 14  0  0  0  0  0  0  0  0999 V2000
   -1.5480   15.0540   -2.5590 N   0  0  0  0  0  0  0  0  0  0  0  0
   -0.5650   13.7970   -3.0730 S   0  0  0  0  0  0  0  0  0  0  0  0
   -1.6790   12.7460   -3.9780 C   0  0  0  0  0  0  0  0  0  0  0  0
   -2.7780   14.9240   -1.8410 C   0  0  0  0  0  0  0  0  0  0  0  0
    0.3180   14.4180   -4.0370 O   0  0  0  0  0  0  0  0  0  0  0  0
   -0.0380   13.0810   -1.9330 O   0  0  0  0  0  0  0  0  0  0  0  0
   -3.9970   15.1590   -2.4780 C   0  0  0  0  0  0  0  0  0  0  0  0
   -2.7600   14.5750   -0.4880 C   0  0  0  0  0  0  0  0  0  0  0  0
   -5.1980   15.0520   -1.7680 C   0  0  0  0  0  0  0  0  0  0  0  0
   -3.9600   14.4650    0.2280 C   0  0  0  0  0  0  0  0  0  0  0  0
   -5.1890   14.7070   -0.4140 C   0  0  0  0  0  0  0  0  0  0  0  0
   -6.4550   14.5860    0.3700 C   0  0  0  0  0  0  0  0  0  0  0  0
   -6.4130   14.6800    1.7360 N   0  0  0  0  0  0  0  0  0  0  0  0
   -7.5280   14.4230   -0.1980 O   0  0  0  0  0  0  0  0  0  0  0  0
  2  1  1  0
  2  3  1  0
  1  4  1  0
  2  5  2  0
  2  6  2  0
  4  7  2  0
  4  8  1  0
  7  9  1  0
  8 10  2  0
  9 11  2  0
 10 11  1  0
 11 12  1  0
 12 13  1  0
 12 14  2  0
M  END
