x0711_0_A-x0681_0_A
     RDKit          3D

 25 27  0  0  0  0  0  0  0  0999 V2000
   -2.0580   14.5960   -2.3190 C   0  0  0  0  0  0  0  0  0  0  0  0
   -1.0230   14.6000   -3.7170 S   0  0  0  0  0  0  0  0  0  0  0  0
   -1.7930   13.3970   -4.7700 C   0  0  0  0  0  0  0  0  0  0  0  0
   -1.6760   14.3720   -1.0880 C   0  0  0  0  0  0  0  0  0  0  0  0
   -3.4910   14.7890   -2.2570 C   0  0  0  0  0  0  0  0  0  0  0  0
   -1.0380   15.8780   -4.4060 O   0  0  0  0  0  0  0  0  0  0  0  0
    0.2550   14.0150   -3.3330 O   0  0  0  0  0  0  0  0  0  0  0  0
   -0.4140   14.1210   -0.6000 N   0  0  0  0  0  0  0  0  0  0  0  0
   -4.5170   14.6100   -3.1820 C   0  0  0  0  0  0  0  0  0  0  0  0
   -3.7940   15.1990   -0.9580 C   0  0  0  0  0  0  0  0  0  0  0  0
   -2.9030   14.4140   -0.1440 C   0  0  1  0  0  0  0  0  0  0  0  0
   -5.8510   14.8200   -2.7350 C   0  0  0  0  0  0  0  0  0  0  0  0
   -5.0790   15.4040   -0.5320 C   0  0  0  0  0  0  0  0  0  0  0  0
   -3.9920   13.3610   -0.3540 C   0  0  0  0  0  0  0  0  0  0  0  0
   -2.6570   14.6880    1.3330 C   0  0  0  0  0  0  0  0  0  0  0  0
   -6.1130   15.2020   -1.3990 C   0  0  0  0  0  0  0  0  0  0  0  0
   -4.9200   13.1410    0.6130 N   0  0  0  0  0  0  0  0  0  0  0  0
   -4.0170   15.0640    1.9040 C   0  0  0  0  0  0  0  0  0  0  0  0
   -4.2230   12.5700   -1.3870 N   0  0  0  0  0  0  0  0  0  0  0  0
   -7.4570   15.4050   -0.8040 C   0  0  0  0  0  0  0  0  0  0  0  0
   -4.9340   13.8320    1.8600 C   0  0  0  0  0  0  0  0  0  0  0  0
   -5.7870   12.1830    0.1980 C   0  0  0  0  0  0  0  0  0  0  0  0
   -5.3390   11.8370   -1.0520 C   0  0  0  0  0  0  0  0  0  0  0  0
   -7.6590   14.8290    0.4320 N   0  0  0  0  0  0  0  0  0  0  0  0
   -8.3490   16.0270   -1.3400 O   0  0  0  0  0  0  0  0  0  0  0  0
  2  1  1  0
  2  3  1  0
  1  4  2  3
  1  5  1  0
  2  6  2  0
  2  7  2  0
  4  8  1  0
  5  9  2  0
  5 10  1  0
 11  4  1  1
  9 12  1  0
 10 13  2  0
 11 14  1  0
 11 15  1  0
 12 16  2  0
 13 16  1  0
 14 17  1  0
 15 18  1  0
 14 19  2  0
 16 20  1  0
 17 21  1  0
 18 21  1  0
 17 22  1  0
 19 23  1  0
 22 23  2  0
 20 24  1  0
 20 25  2  0
M  END
