x0711_0_A-x0910_1_A
     RDKit          3D

 19 20  0  0  0  0  0  0  0  0999 V2000
   -1.6720   15.0080   -2.6270 N   0  0  0  0  0  0  0  0  0  0  0  0
   -0.4960   13.9450   -3.1760 S   0  0  0  0  0  0  0  0  0  0  0  0
   -1.4530   12.7970   -4.1440 C   0  0  0  0  0  0  0  0  0  0  0  0
   -2.7700   14.5570   -1.8440 C   0  0  0  0  0  0  0  0  0  0  0  0
    0.3090   14.7190   -4.0930 O   0  0  0  0  0  0  0  0  0  0  0  0
    0.0970   13.2490   -2.0550 O   0  0  0  0  0  0  0  0  0  0  0  0
   -4.0410   14.5040   -2.4150 C   0  0  0  0  0  0  0  0  0  0  0  0
   -2.5870   14.1740   -0.5180 C   0  0  0  0  0  0  0  0  0  0  0  0
   -5.1320   14.0620   -1.6480 C   0  0  0  0  0  0  0  0  0  0  0  0
   -3.6680   13.7340    0.2550 C   0  0  0  0  0  0  0  0  0  0  0  0
   -4.9560   13.6720   -0.2990 C   0  0  0  0  0  0  0  0  0  0  0  0
   -6.1430   13.2250    0.5210 C   0  0  0  0  0  0  0  0  0  0  0  0
   -6.3190   14.1270    1.4860 N   0  0  0  0  0  0  0  0  0  0  0  0
   -6.8390   12.2680    0.2680 O   0  0  0  0  0  0  0  0  0  0  0  0
   -6.1010   14.9880    0.5520 N   0  0  0  0  0  0  0  0  0  0  0  0
   -7.0330   15.2060   -0.3870 C   0  0  0  0  0  0  0  0  0  0  0  0
   -5.0110   15.7300    0.3030 C   0  0  0  0  0  0  0  0  0  0  0  0
   -6.5580   16.0660   -1.2250 N   0  0  0  0  0  0  0  0  0  0  0  0
   -5.2830   16.3920   -0.7910 N   0  0  0  0  0  0  0  0  0  0  0  0
  2  1  1  0
  2  3  1  0
  1  4  1  0
  2  5  2  0
  2  6  2  0
  4  7  2  0
  4  8  1  0
  7  9  1  0
  8 10  2  0
  9 11  2  0
 10 11  1  0
 11 12  1  0
 12 13  1  0
 12 14  2  0
 13 15  1  0
 15 16  1  0
 15 17  1  0
 16 18  2  0
 17 19  2  0
 18 19  1  0
M  END
