x0711_0_A_α-x0104_0_A_α
     RDKit          3D

 23 24  0  0  0  0  0  0  0  0999 V2000
   -1.5770   15.0640   -2.3690 N   0  0  0  0  0  0  0  0  0  0  0  0
   -0.6500   13.8250   -3.0430 S   0  0  0  0  0  0  0  0  0  0  0  0
   -1.8350   12.8050   -3.8880 C   0  0  0  0  0  0  0  0  0  0  0  0
   -2.8440   14.9250   -1.7030 C   0  0  0  0  0  0  0  0  0  0  0  0
    0.2490   14.4100   -4.0150 O   0  0  0  0  0  0  0  0  0  0  0  0
   -0.1070   13.0760   -1.9280 O   0  0  0  0  0  0  0  0  0  0  0  0
   -4.0020   15.1680   -2.4390 C   0  0  0  0  0  0  0  0  0  0  0  0
   -2.9340   14.5750   -0.3410 C   0  0  0  0  0  0  0  0  0  0  0  0
   -5.2570   15.0710   -1.8320 C   0  0  0  0  0  0  0  0  0  0  0  0
   -4.1950   14.4750    0.2780 C   0  0  0  0  0  0  0  0  0  0  0  0
   -5.3580   14.7270   -0.4760 C   0  0  0  0  0  0  0  0  0  0  0  0
   -6.7330   14.6470    0.1120 C   0  0  0  0  0  0  0  0  0  0  0  0
   -6.8880   13.9460    1.2790 N   0  0  0  0  0  0  0  0  0  0  0  0
   -7.6590   15.1780   -0.4720 O   0  0  0  0  0  0  0  0  0  0  0  0
   -6.9180   14.5110    2.6230 C   0  0  0  0  0  0  0  0  0  0  0  0
   -8.2220   15.1560    3.1120 C   0  0  0  0  0  0  0  0  0  0  0  0
   -8.2180   15.5330    4.4540 N   0  0  0  0  0  0  0  0  0  0  0  0
   -9.1920   15.3260    2.3780 O   0  0  0  0  0  0  0  0  0  0  0  0
   -9.2770   15.2790    5.3210 C   0  0  0  0  0  0  0  0  0  0  0  0
   -9.3640   15.1460    6.6840 C   0  0  0  0  0  0  0  0  0  0  0  0
  -10.7960   15.0950    4.5540 S   0  0  0  0  0  0  0  0  0  0  0  0
  -10.6960   14.8930    7.1170 C   0  0  0  0  0  0  0  0  0  0  0  0
  -11.5820   14.8400    6.0590 C   0  0  0  0  0  0  0  0  0  0  0  0
  2  1  1  0
  2  3  1  0
  1  4  1  0
  2  5  2  0
  2  6  2  0
  4  7  2  0
  4  8  1  0
  7  9  1  0
  8 10  2  0
  9 11  2  0
 10 11  1  0
 11 12  1  0
 12 13  1  0
 12 14  2  0
 13 15  1  0
 15 16  1  0
 16 17  1  0
 16 18  2  0
 17 19  1  0
 19 20  2  0
 19 21  1  0
 20 22  1  0
 21 23  1  0
 22 23  2  0
M  END
