x0711_0_A-x0855_0_A
     RDKit          3D

 23 24  0  0  0  0  0  0  0  0999 V2000
   -1.3050   15.0620   -1.8810 N   0  0  0  0  0  0  0  0  0  0  0  0
   -0.6380   14.2020   -3.1840 S   0  0  1  0  0  0  0  0  0  0  0  0
   -2.0120   13.4830   -4.0290 C   0  0  0  0  0  0  0  0  0  0  0  0
   -2.6500   14.9390   -1.4190 C   0  0  0  0  0  0  0  0  0  0  0  0
   -0.0890   15.2510   -4.0150 O   0  0  0  0  0  0  0  0  0  0  0  0
    0.1850   13.1500   -2.4680 N   0  0  0  0  0  0  0  0  0  0  0  0
   -3.7910   15.1990   -2.2070 C   0  0  0  0  0  0  0  0  0  0  0  0
   -2.8090   14.5520   -0.0910 C   0  0  0  0  0  0  0  0  0  0  0  0
    0.5550   12.0550   -3.2230 C   0  0  0  0  0  0  0  0  0  0  0  0
   -5.0680   15.0740   -1.6410 C   0  0  0  0  0  0  0  0  0  0  0  0
   -4.0660   14.4270    0.4700 C   0  0  0  0  0  0  0  0  0  0  0  0
    0.7580   10.9740   -2.6850 O   0  0  0  0  0  0  0  0  0  0  0  0
    0.6290   12.2190   -4.7250 C   0  0  0  0  0  0  0  0  0  0  0  0
   -5.1990   14.6900   -0.2970 C   0  0  0  0  0  0  0  0  0  0  0  0
   -6.5450   14.5630    0.3130 C   0  0  0  0  0  0  0  0  0  0  0  0
   -0.3840   11.3600   -5.2820 N   0  0  0  0  0  0  0  0  0  0  0  0
   -6.6090   14.6070    1.6870 N   0  0  0  0  0  0  0  0  0  0  0  0
   -7.5530   14.4390   -0.3690 O   0  0  0  0  0  0  0  0  0  0  0  0
   -0.3070   10.5610   -6.3800 C   0  0  0  0  0  0  0  0  0  0  0  0
   -1.5910   11.2980   -4.6620 N   0  0  0  0  0  0  0  0  0  0  0  0
   -1.5280    9.9500   -6.4610 C   0  0  0  0  0  0  0  0  0  0  0  0
   -2.2820   10.4320   -5.3940 C   0  0  0  0  0  0  0  0  0  0  0  0
   -2.1200    8.7130   -7.7140 Br  0  0  0  0  0  0  0  0  0  0  0  0
  2  1  1  0
  2  3  1  6
  1  4  1  0
  2  5  2  0
  2  6  2  0
  4  7  2  0
  4  8  1  0
  6  9  1  0
  7 10  1  0
  8 11  2  0
  9 12  2  0
  9 13  1  0
 10 14  2  0
 11 14  1  0
 14 15  1  0
 13 16  1  0
 15 17  1  0
 15 18  2  0
 16 19  1  0
 16 20  1  0
 19 21  2  0
 20 22  2  0
 21 22  1  0
 21 23  1  0
M  END
