x0711_0_A-x0685_0_A
     RDKit          3D

 16 16  0  0  0  0  0  0  0  0999 V2000
   -1.6390   15.0550   -2.6650 N   0  0  0  0  0  0  0  0  0  0  0  0
   -0.5720   13.8350   -3.0990 S   0  0  0  0  0  0  0  0  0  0  0  0
   -1.6170   12.7030   -3.9910 C   0  0  0  0  0  0  0  0  0  0  0  0
   -2.8040   14.9150   -1.8470 C   0  0  0  0  0  0  0  0  0  0  0  0
    0.3920   14.3900   -4.0240 O   0  0  0  0  0  0  0  0  0  0  0  0
   -0.1410   13.2010   -1.8680 O   0  0  0  0  0  0  0  0  0  0  0  0
   -4.0470   15.1670   -2.4270 C   0  0  0  0  0  0  0  0  0  0  0  0
   -2.7350   14.5510   -0.4950 C   0  0  0  0  0  0  0  0  0  0  0  0
   -5.2160   15.0630   -1.6700 C   0  0  0  0  0  0  0  0  0  0  0  0
   -3.9060   14.4440    0.2690 C   0  0  0  0  0  0  0  0  0  0  0  0
   -5.1550   14.7010   -0.3160 C   0  0  0  0  0  0  0  0  0  0  0  0
   -6.4430   14.6070    0.4430 C   0  0  0  0  0  0  0  0  0  0  0  0
   -6.3780   14.6290    1.8270 N   0  0  0  0  0  0  0  0  0  0  0  0
   -7.5000   14.5230   -0.1760 O   0  0  0  0  0  0  0  0  0  0  0  0
   -7.5680   14.7690    2.6390 C   0  0  0  0  0  0  0  0  0  0  0  0
   -8.0240   13.4200    3.1540 C   0  0  0  0  0  0  0  0  0  0  0  0
  2  1  1  0
  2  3  1  0
  1  4  1  0
  2  5  2  0
  2  6  2  0
  4  7  2  0
  4  8  1  0
  7  9  1  0
  8 10  2  0
  9 11  2  0
 10 11  1  0
 11 12  1  0
 12 13  1  0
 12 14  2  0
 13 15  1  0
 15 16  1  0
M  END
