x0711_0_A_α-x0587_0_A_α
     RDKit          3D

 27 28  0  0  0  0  0  0  0  0999 V2000
   -1.2710   14.7570   -3.5820 N   0  0  0  0  0  0  0  0  0  0  0  0
   -0.0310   13.6330   -3.7800 S   0  0  0  0  0  0  0  0  0  0  0  0
   -0.7650   12.4290   -4.8660 C   0  0  0  0  0  0  0  0  0  0  0  0
   -2.4870   14.3980   -2.9300 C   0  0  0  0  0  0  0  0  0  0  0  0
    0.9900   14.3220   -4.5420 O   0  0  0  0  0  0  0  0  0  0  0  0
    0.2840   12.9940   -2.5220 O   0  0  0  0  0  0  0  0  0  0  0  0
   -3.6260   15.1460   -3.2110 C   0  0  0  0  0  0  0  0  0  0  0  0
   -2.5640   13.3390   -2.0300 C   0  0  0  0  0  0  0  0  0  0  0  0
   -4.8430   14.8430   -2.5920 C   0  0  0  0  0  0  0  0  0  0  0  0
   -3.7820   13.0320   -1.4080 C   0  0  0  0  0  0  0  0  0  0  0  0
   -4.9500   13.7800   -1.6730 C   0  0  0  0  0  0  0  0  0  0  0  0
   -6.2830   13.4670   -0.9880 C   0  0  2  0  0  0  0  0  0  0  0  0
   -6.3550   12.1030   -0.5460 N   0  0  0  0  0  0  0  0  0  0  0  0
   -7.3390   13.5790   -1.9090 O   0  0  0  0  0  0  0  0  0  0  0  0
   -6.5550   14.2870    0.1740 N   0  0  0  0  0  0  0  0  0  0  0  0
   -7.8170   13.9390    0.8740 C   0  0  0  0  0  0  0  0  0  0  0  0
   -5.3180   14.5550    0.9880 C   0  0  1  0  0  0  0  0  0  0  0  0
   -4.1770   15.3150    0.1980 C   0  0  0  0  0  0  0  0  0  0  0  0
   -8.0090   14.7390    2.1620 C   0  0  1  0  0  0  0  0  0  0  0  0
   -5.5970   15.2230    2.2680 N   0  0  0  0  0  0  0  0  0  0  0  0
   -9.0840   14.2250    3.0850 C   0  0  0  0  0  0  0  0  0  0  0  0
   -3.6350   16.2930    0.9530 F   0  0  0  0  0  0  0  0  0  0  0  0
   -3.1580   14.5090   -0.1580 F   0  0  0  0  0  0  0  0  0  0  0  0
   -4.6650   15.9070   -0.9110 F   0  0  0  0  0  0  0  0  0  0  0  0
   -6.7410   14.6820    2.9490 C   0  0  0  0  0  0  0  0  0  0  0  0
   -8.6440   13.8370    4.3230 N   0  0  0  0  0  0  0  0  0  0  0  0
  -10.2720   14.1630    2.7770 O   0  0  0  0  0  0  0  0  0  0  0  0
  2  1  1  0
  2  3  1  0
  1  4  1  0
  2  5  2  0
  2  6  2  0
  4  7  2  0
  4  8  1  0
  7  9  1  0
  8 10  2  0
  9 11  2  0
 10 11  1  0
 11 12  1  0
 12 13  1  1
 12 14  1  0
 12 15  1  0
 15 16  1  0
 15 17  1  0
 17 18  1  6
 16 19  1  0
 17 20  1  0
 19 21  1  1
 18 22  1  0
 18 23  1  0
 18 24  1  0
 19 25  1  0
 20 25  1  0
 21 26  1  0
 21 27  2  0
M  END
