x0711_0_A-x0900_0_A
     RDKit          3D

 14 14  0  0  0  0  0  0  0  0999 V2000
   -1.5450   15.0570   -2.5520 N   0  0  0  0  0  0  0  0  0  0  0  0
   -0.5660   13.8040   -3.0730 S   0  0  0  0  0  0  0  0  0  0  0  0
   -1.6820   12.7570   -3.9800 C   0  0  0  0  0  0  0  0  0  0  0  0
   -2.7750   14.9290   -1.8350 C   0  0  0  0  0  0  0  0  0  0  0  0
    0.3170   14.4310   -4.0330 O   0  0  0  0  0  0  0  0  0  0  0  0
   -0.0290   13.0910   -1.9390 O   0  0  0  0  0  0  0  0  0  0  0  0
   -3.9930   15.1650   -2.4710 C   0  0  0  0  0  0  0  0  0  0  0  0
   -2.7580   14.5820   -0.4790 C   0  0  0  0  0  0  0  0  0  0  0  0
   -5.1960   15.0610   -1.7630 C   0  0  0  0  0  0  0  0  0  0  0  0
   -3.9630   14.4760    0.2310 C   0  0  0  0  0  0  0  0  0  0  0  0
   -5.1900   14.7180   -0.4070 C   0  0  0  0  0  0  0  0  0  0  0  0
   -6.4540   14.6020    0.3740 C   0  0  0  0  0  0  0  0  0  0  0  0
   -6.4090   14.6730    1.7430 N   0  0  0  0  0  0  0  0  0  0  0  0
   -7.5310   14.4590   -0.1960 O   0  0  0  0  0  0  0  0  0  0  0  0
  2  1  1  0
  2  3  1  0
  1  4  1  0
  2  5  2  0
  2  6  2  0
  4  7  2  0
  4  8  1  0
  7  9  1  0
  8 10  2  0
  9 11  2  0
 10 11  1  0
 11 12  1  0
 12 13  1  0
 12 14  2  0
M  END
