x0711_0_A_α-x0926_0_A_α
     RDKit          3D

 14 14  0  0  0  0  0  0  0  0999 V2000
   -1.5480   15.0550   -2.5560 N   0  0  0  0  0  0  0  0  0  0  0  0
   -0.5600   13.8020   -3.0720 S   0  0  0  0  0  0  0  0  0  0  0  0
   -1.6780   12.7520   -3.9730 C   0  0  0  0  0  0  0  0  0  0  0  0
   -2.7790   14.9260   -1.8390 C   0  0  0  0  0  0  0  0  0  0  0  0
    0.3230   14.4230   -4.0360 O   0  0  0  0  0  0  0  0  0  0  0  0
   -0.0270   13.0920   -1.9310 O   0  0  0  0  0  0  0  0  0  0  0  0
   -3.9970   15.1610   -2.4740 C   0  0  0  0  0  0  0  0  0  0  0  0
   -2.7620   14.5760   -0.4830 C   0  0  0  0  0  0  0  0  0  0  0  0
   -5.1990   15.0570   -1.7690 C   0  0  0  0  0  0  0  0  0  0  0  0
   -3.9650   14.4690    0.2270 C   0  0  0  0  0  0  0  0  0  0  0  0
   -5.1900   14.7100   -0.4110 C   0  0  0  0  0  0  0  0  0  0  0  0
   -6.4590   14.5920    0.3690 C   0  0  0  0  0  0  0  0  0  0  0  0
   -6.4120   14.6710    1.7390 N   0  0  0  0  0  0  0  0  0  0  0  0
   -7.5330   14.4390   -0.1970 O   0  0  0  0  0  0  0  0  0  0  0  0
  2  1  1  0
  2  3  1  0
  1  4  1  0
  2  5  2  0
  2  6  2  0
  4  7  2  0
  4  8  1  0
  7  9  1  0
  8 10  2  0
  9 11  2  0
 10 11  1  0
 11 12  1  0
 12 13  1  0
 12 14  2  0
M  END
