x0711_0_A-x0592_0_A
     RDKit          3D

 21 22  0  0  0  0  0  0  0  0999 V2000
   -1.7480   13.9140   -1.1860 C   0  0  0  0  0  0  0  0  0  0  0  0
   -0.6230   13.1010   -2.2420 S   0  0  0  0  0  0  0  0  0  0  0  0
   -1.6990   12.1570   -3.2910 C   0  0  0  0  0  0  0  0  0  0  0  0
   -1.5300   14.7330   -0.1690 C   0  0  0  0  0  0  0  0  0  0  0  0
   -3.1840   13.7650   -1.2670 C   0  0  0  0  0  0  0  0  0  0  0  0
    0.0350   14.0850   -3.0990 O   0  0  0  0  0  0  0  0  0  0  0  0
    0.2030   12.1470   -1.5180 O   0  0  0  0  0  0  0  0  0  0  0  0
   -0.3590   15.2190    0.4130 N   0  0  0  0  0  0  0  0  0  0  0  0
   -4.0740   14.0110   -2.3200 C   0  0  0  0  0  0  0  0  0  0  0  0
   -3.6690   13.3460   -0.0300 C   0  0  0  0  0  0  0  0  0  0  0  0
   -2.8310   15.1330    0.3290 C   0  0  0  0  0  0  0  0  0  0  0  0
   -5.4580   13.8480   -2.0690 C   0  0  0  0  0  0  0  0  0  0  0  0
   -5.0010   13.1880    0.2120 C   0  0  0  0  0  0  0  0  0  0  0  0
   -3.7950   15.6670   -0.5130 C   0  0  0  0  0  0  0  0  0  0  0  0
   -3.4560   15.1020    1.5780 C   0  0  0  0  0  0  0  0  0  0  0  0
   -5.9180   13.4430   -0.7860 C   0  0  0  0  0  0  0  0  0  0  0  0
   -4.8760   15.9030    0.2380 N   0  0  0  0  0  0  0  0  0  0  0  0
   -4.7060   15.5720    1.5270 N   0  0  0  0  0  0  0  0  0  0  0  0
   -7.3700   13.2750   -0.4210 C   0  0  0  0  0  0  0  0  0  0  0  0
   -7.5030   13.0220    1.0370 N   0  0  0  0  0  0  0  0  0  0  0  0
   -7.1510   14.2500    1.7650 O   0  0  0  0  0  0  0  0  0  0  0  0
  2  1  1  0
  2  3  1  0
  1  4  2  3
  1  5  1  0
  2  6  2  0
  2  7  2  0
  4  8  1  0
  5  9  2  0
  5 10  1  0
  4 11  1  0
  9 12  1  0
 10 13  2  0
 11 14  2  0
 11 15  1  0
 12 16  2  0
 13 16  1  0
 14 17  1  0
 15 18  2  0
 17 18  1  0
 16 19  1  0
 19 20  1  0
 20 21  1  0
M  END
