x0711_0_A-x1012_0_A
     RDKit          3D

 25 26  0  0  0  0  0  0  0  0999 V2000
   -1.6320   14.7780   -2.0030 N   0  0  0  0  0  0  0  0  0  0  0  0
   -1.2800   13.3960   -2.8710 S   0  0  0  0  0  0  0  0  0  0  0  0
   -2.4110   12.1230   -2.8830 C   0  0  0  0  0  0  0  0  0  0  0  0
   -2.8920   14.7830   -1.4160 C   0  0  0  0  0  0  0  0  0  0  0  0
   -1.0480   14.0130   -4.6390 O   0  0  0  0  0  0  0  0  0  0  0  0
    0.3370   12.8720   -2.6230 C   0  0  0  0  0  0  0  0  0  0  0  0
   -3.9980   15.1050   -2.1560 C   0  0  0  0  0  0  0  0  0  0  0  0
   -2.9820   14.4460   -0.0790 C   0  0  0  0  0  0  0  0  0  0  0  0
    0.3570   11.4930   -2.8430 O   0  0  0  0  0  0  0  0  0  0  0  0
    0.6850   13.0760   -1.2790 O   0  0  0  0  0  0  0  0  0  0  0  0
   -5.2060   15.0660   -1.5110 C   0  0  0  0  0  0  0  0  0  0  0  0
   -4.2000   14.4200    0.5290 C   0  0  0  0  0  0  0  0  0  0  0  0
    0.9460   13.6150   -3.7060 C   0  0  0  0  0  0  0  0  0  0  0  0
   -5.3570   14.7280   -0.1820 C   0  0  0  0  0  0  0  0  0  0  0  0
   -0.0280   13.6560   -4.9030 C   0  0  0  0  0  0  0  0  0  0  0  0
    1.2560   15.0590   -3.3740 C   0  0  0  0  0  0  0  0  0  0  0  0
   -6.6380   14.6810    0.4720 C   0  0  0  0  0  0  0  0  0  0  0  0
   -1.1560   14.7410   -4.8890 C   0  0  0  0  0  0  0  0  0  0  0  0
    0.9590   15.8910   -4.6440 C   0  0  0  0  0  0  0  0  0  0  0  0
   -6.7350   14.6410    1.8770 N   0  0  0  0  0  0  0  0  0  0  0  0
   -7.6780   14.6750   -0.2170 O   0  0  0  0  0  0  0  0  0  0  0  0
   -0.4650   16.0030   -4.8640 N   0  0  0  0  0  0  0  0  0  0  0  0
   -1.1550   17.2340   -4.8140 C   0  0  0  0  0  0  0  0  0  0  0  0
   -0.4620   18.4500   -4.9280 N   0  0  0  0  0  0  0  0  0  0  0  0
   -2.4050   17.3240   -4.6680 O   0  0  0  0  0  0  0  0  0  0  0  0
  1  2  1  0
  2  3  1  0
  1  4  1  0
  2  5  2  0
  2  6  1  0
  4  7  2  0
  4  8  1  0
  6  9  1  0
  6 10  1  0
  7 11  1  0
  8 12  2  0
  6 13  1  0
 11 14  2  0
 12 14  1  0
 13 15  1  0
 13 16  1  0
 14 17  1  0
 15 18  1  0
 16 19  1  0
 17 20  1  0
 17 21  2  0
 18 22  1  0
 19 22  1  0
 22 23  1  0
 23 24  1  0
 23 25  2  0
M  END
