x0711_0_A_α-x0591_0_A_α
     RDKit          3D

 17 18  0  0  0  0  0  0  0  0999 V2000
   -1.0560   14.9730   -1.9890 N   0  0  0  0  0  0  0  0  0  0  0  0
   -0.4960   13.8980   -3.1150 S   0  0  0  0  0  0  0  0  0  0  0  0
   -1.4950   14.1900   -4.4660 C   0  0  0  0  0  0  0  0  0  0  0  0
   -2.4210   14.8430   -1.6530 C   0  0  0  0  0  0  0  0  0  0  0  0
    0.7980   14.3700   -3.5400 O   0  0  0  0  0  0  0  0  0  0  0  0
   -0.7010   12.5800   -2.5840 O   0  0  0  0  0  0  0  0  0  0  0  0
   -3.4550   14.7300   -2.5930 C   0  0  0  0  0  0  0  0  0  0  0  0
   -2.6990   14.8380   -0.2890 C   0  0  0  0  0  0  0  0  0  0  0  0
   -3.1480   14.7100   -4.3550 S   0  0  2  0  0  0  0  0  0  0  0  0
   -4.7900   14.6230   -2.1190 C   0  0  0  0  0  0  0  0  0  0  0  0
   -3.9980   14.7290    0.1750 C   0  0  0  0  0  0  0  0  0  0  0  0
   -3.8570   14.9580   -5.8200 O   0  0  0  0  0  0  0  0  0  0  0  0
   -5.0580   14.6240   -0.7240 C   0  0  0  0  0  0  0  0  0  0  0  0
   -6.4570   14.5040   -0.2110 C   0  0  0  0  0  0  0  0  0  0  0  0
   -6.5710   14.1090    1.1090 N   0  0  0  0  0  0  0  0  0  0  0  0
   -7.4350   14.7420   -0.9070 O   0  0  0  0  0  0  0  0  0  0  0  0
   -6.0670   15.0080    2.0480 N   0  0  0  0  0  0  0  0  0  0  0  0
  1  2  1  0
  2  3  1  0
  1  4  1  0
  2  5  2  0
  2  6  2  0
  4  7  2  0
  4  8  1  0
  3  9  2  0
  9  7  1  6
  7 10  1  0
  8 11  2  0
  9 12  2  0
 10 13  2  0
 11 13  1  0
 13 14  1  0
 14 15  1  0
 14 16  2  0
 15 17  1  0
M  END
