x0711_0_A_α-5CB5_0_A_β
     RDKit          3D

 25 25  0  0  0  0  0  0  0  0999 V2000
   -1.8730   15.1400   -2.9290 N   0  0  0  0  0  0  0  0  0  0  0  0
   -0.6250   13.9720   -3.1690 S   0  0  1  0  0  0  0  0  0  0  0  0
   -1.4100   12.5700   -3.9040 C   0  0  0  0  0  0  0  0  0  0  0  0
   -2.8930   14.9500   -1.9410 C   0  0  0  0  0  0  0  0  0  0  0  0
    0.4550   14.4600   -4.1610 N   0  0  0  0  0  0  0  0  0  0  0  0
    0.0860   13.6350   -1.8940 O   0  0  0  0  0  0  0  0  0  0  0  0
   -4.1860   15.1850   -2.4060 C   0  0  0  0  0  0  0  0  0  0  0  0
   -2.7570   14.5870   -0.6270 C   0  0  0  0  0  0  0  0  0  0  0  0
    0.8510   15.7770   -4.2860 C   0  0  0  0  0  0  0  0  0  0  0  0
   -5.2920   15.0770   -1.6300 C   0  0  0  0  0  0  0  0  0  0  0  0
   -3.8510   14.4570    0.2180 C   0  0  0  0  0  0  0  0  0  0  0  0
   -0.1140   16.8730   -4.5370 C   0  0  0  0  0  0  0  0  0  0  0  0
   -5.1290   14.7090   -0.2990 C   0  0  0  0  0  0  0  0  0  0  0  0
   -6.3660   14.6150    0.4680 C   0  0  0  0  0  0  0  0  0  0  0  0
   -0.3860   17.0880   -5.8480 O   0  0  0  0  0  0  0  0  0  0  0  0
   -6.3750   14.6330    1.8780 N   0  0  0  0  0  0  0  0  0  0  0  0
   -7.4420   14.5260   -0.1570 O   0  0  0  0  0  0  0  0  0  0  0  0
   -1.6290   18.1000   -6.2570 P   0  0  0  0  0  0  0  0  0  0  0  0
   -1.3550   19.5780   -6.7530 O   0  0  0  0  0  0  0  0  0  0  0  0
   -3.1320   17.3810   -6.4510 O   0  0  0  0  0  0  0  0  0  0  0  0
   -1.9790   18.4760   -4.8210 O   0  0  0  0  0  0  0  0  0  0  0  0
   -0.2450   19.8300   -7.8300 P   0  0  0  0  0  0  0  0  0  0  0  0
   -1.1640   20.2950   -8.9280 O   0  0  0  0  0  0  0  0  0  0  0  0
    0.6750   21.2170   -7.8660 O   0  0  0  0  0  0  0  0  0  0  0  0
    0.1950   18.5700   -8.8410 O   0  0  0  0  0  0  0  0  0  0  0  0
  2  1  1  0
  2  3  1  6
  1  4  1  0
  2  5  2  0
  2  6  2  0
  4  7  2  0
  4  8  1  0
  5  9  1  0
  7 10  1  0
  8 11  2  0
  9 12  1  0
 10 13  2  0
 11 13  1  0
 13 14  1  0
 12 15  1  0
 14 16  1  0
 14 17  2  0
 15 18  1  0
 18 19  1  0
 18 20  1  0
 18 21  1  0
 19 22  1  0
 22 23  1  0
 22 24  1  0
 22 25  1  0
M  CHG  2  20  -1  24  -1
M  END
