x0711_0_A-x0852_0_B
     RDKit          3D

 26 27  0  0  0  0  0  0  0  0999 V2000
   -1.5390   15.0420   -2.5290 N   0  0  0  0  0  0  0  0  0  0  0  0
   -0.5480   13.7990   -3.0520 S   0  0  0  0  0  0  0  0  0  0  0  0
   -1.6610   12.7490   -3.9570 C   0  0  0  0  0  0  0  0  0  0  0  0
   -2.7460   14.9150   -1.7750 C   0  0  0  0  0  0  0  0  0  0  0  0
    0.3200   14.4370   -4.0210 O   0  0  0  0  0  0  0  0  0  0  0  0
   -0.0020   13.0800   -1.9250 O   0  0  0  0  0  0  0  0  0  0  0  0
   -3.9470   15.1760   -2.4340 C   0  0  0  0  0  0  0  0  0  0  0  0
   -2.7590   14.5600   -0.4170 C   0  0  0  0  0  0  0  0  0  0  0  0
   -5.1570   15.0890   -1.7500 C   0  0  0  0  0  0  0  0  0  0  0  0
   -3.9750   14.4700    0.2780 C   0  0  0  0  0  0  0  0  0  0  0  0
   -5.1680   14.7380   -0.3980 C   0  0  0  0  0  0  0  0  0  0  0  0
   -6.4800   14.6640    0.2920 C   0  0  0  0  0  0  0  0  0  0  0  0
   -6.5140   14.5300    1.6630 N   0  0  0  0  0  0  0  0  0  0  0  0
   -7.6100   14.7350   -0.3390 N   0  0  0  0  0  0  0  0  0  0  0  0
   -8.9480   14.6930    0.2650 C   0  0  0  0  0  0  0  0  0  0  0  0
   -9.6360   16.0690    0.1420 C   0  0  0  0  0  0  0  0  0  0  0  0
  -10.2640   16.5130    1.3690 O   0  0  0  0  0  0  0  0  0  0  0  0
   -9.6650   16.2690    2.5850 C   0  0  0  0  0  0  0  0  0  0  0  0
   -8.7310   15.2320    2.5780 C   0  0  0  0  0  0  0  0  0  0  0  0
   -9.8940   16.9400    3.7920 C   0  0  0  0  0  0  0  0  0  0  0  0
   -8.0310   14.8590    3.7220 C   0  0  0  0  0  0  0  0  0  0  0  0
   -9.1960   16.5720    4.9580 C   0  0  0  0  0  0  0  0  0  0  0  0
   -9.4640   17.2760    6.1790 C   0  0  0  0  0  0  0  0  0  0  0  0
   -8.2610   15.5290    4.9140 C   0  0  0  0  0  0  0  0  0  0  0  0
   -9.7200   17.7900    7.1900 N   0  0  0  0  0  0  0  0  0  0  0  0
   -7.5710   15.1630    6.0380 O   0  0  0  0  0  0  0  0  0  0  0  0
  2  1  1  0
  2  3  1  0
  1  4  1  0
  2  5  2  0
  2  6  2  0
  4  7  2  0
  4  8  1  0
  7  9  1  0
  8 10  2  0
  9 11  2  0
 10 11  1  0
 11 12  1  0
 12 13  1  0
 12 14  2  3
 14 15  1  0
 15 16  1  0
 16 17  1  0
 17 18  1  0
 18 19  2  0
 18 20  1  0
 19 21  1  0
 20 22  2  0
 22 23  1  0
 21 24  2  0
 22 24  1  0
 23 25  3  0
 24 26  1  0
M  END
