x0711_0_A-x0628_0_A
     RDKit          3D

 24 26  0  0  0  0  0  0  0  0999 V2000
   -1.5550   15.0610   -2.3290 N   0  0  0  0  0  0  0  0  0  0  0  0
   -0.8140   13.9040   -3.3040 S   0  0  1  0  0  0  0  0  0  0  0  0
   -1.9320   12.7810   -4.1120 C   0  0  0  0  0  0  0  0  0  0  0  0
   -2.7860   14.9230   -1.6520 C   0  0  0  0  0  0  0  0  0  0  0  0
   -0.2610   14.7650   -4.3280 O   0  0  0  0  0  0  0  0  0  0  0  0
    0.0930   13.1550   -2.3450 N   0  0  0  0  0  0  0  0  0  0  0  0
   -3.9880   15.1700   -2.3260 C   0  0  0  0  0  0  0  0  0  0  0  0
   -2.8170   14.5560   -0.3020 C   0  0  0  0  0  0  0  0  0  0  0  0
    0.9000   12.2510   -3.0090 C   0  0  0  0  0  0  0  0  0  0  0  0
   -5.2070   15.0530   -1.6520 C   0  0  0  0  0  0  0  0  0  0  0  0
   -4.0300   14.4370    0.3710 C   0  0  0  0  0  0  0  0  0  0  0  0
   -1.3000   11.8690   -5.1070 C   0  0  0  0  0  0  0  0  0  0  0  0
    0.8830   11.0590   -2.7590 O   0  0  0  0  0  0  0  0  0  0  0  0
    1.7860   12.8390   -4.0990 C   0  0  0  0  0  0  0  0  0  0  0  0
   -5.2250   14.6860   -0.2990 C   0  0  0  0  0  0  0  0  0  0  0  0
   -1.9150   10.8170   -5.6400 N   0  0  0  0  0  0  0  0  0  0  0  0
   -0.0360   11.9380   -5.6370 N   0  0  0  0  0  0  0  0  0  0  0  0
   -6.5380   14.5710    0.3890 C   0  0  0  0  0  0  0  0  0  0  0  0
    1.0940   12.8290   -5.4600 C   0  0  0  0  0  0  0  0  0  0  0  0
   -0.9860   10.2780   -6.4850 C   0  0  0  0  0  0  0  0  0  0  0  0
    0.1670   10.9360   -6.5150 N   0  0  0  0  0  0  0  0  0  0  0  0
   -6.5500   14.6310    1.7610 N   0  0  0  0  0  0  0  0  0  0  0  0
   -7.5830   14.4390   -0.2320 O   0  0  0  0  0  0  0  0  0  0  0  0
   -1.2200    9.0660   -7.2960 C   0  0  0  0  0  0  0  0  0  0  0  0
  2  1  1  1
  2  3  1  0
  1  4  1  0
  2  5  2  0
  2  6  2  0
  4  7  2  0
  4  8  1  0
  6  9  1  0
  7 10  1  0
  8 11  2  0
  3 12  1  0
  9 13  2  0
  9 14  1  0
 10 15  2  0
 11 15  1  0
 12 16  2  0
 12 17  1  0
 15 18  1  0
 14 19  1  0
 17 19  1  0
 16 20  1  0
 17 21  1  0
 20 21  2  0
 18 22  1  0
 18 23  2  0
 20 24  1  0
M  END
