x0711_0_A-x0844_0_A
     RDKit          3D

 14 14  0  0  0  0  0  0  0  0999 V2000
   -1.5490   15.0590   -2.5530 N   0  0  0  0  0  0  0  0  0  0  0  0
   -0.5640   13.8070   -3.0700 S   0  0  0  0  0  0  0  0  0  0  0  0
   -1.6790   12.7570   -3.9760 C   0  0  0  0  0  0  0  0  0  0  0  0
   -2.7770   14.9320   -1.8350 C   0  0  0  0  0  0  0  0  0  0  0  0
    0.3160   14.4320   -4.0350 O   0  0  0  0  0  0  0  0  0  0  0  0
   -0.0320   13.0930   -1.9330 O   0  0  0  0  0  0  0  0  0  0  0  0
   -3.9930   15.1680   -2.4710 C   0  0  0  0  0  0  0  0  0  0  0  0
   -2.7590   14.5840   -0.4800 C   0  0  0  0  0  0  0  0  0  0  0  0
   -5.1960   15.0630   -1.7660 C   0  0  0  0  0  0  0  0  0  0  0  0
   -3.9630   14.4770    0.2310 C   0  0  0  0  0  0  0  0  0  0  0  0
   -5.1890   14.7170   -0.4100 C   0  0  0  0  0  0  0  0  0  0  0  0
   -6.4520   14.5970    0.3730 C   0  0  0  0  0  0  0  0  0  0  0  0
   -6.4010   14.6760    1.7410 N   0  0  0  0  0  0  0  0  0  0  0  0
   -7.5290   14.4450   -0.1910 O   0  0  0  0  0  0  0  0  0  0  0  0
  2  1  1  0
  2  3  1  0
  1  4  1  0
  2  5  2  0
  2  6  2  0
  4  7  2  0
  4  8  1  0
  7  9  1  0
  8 10  2  0
  9 11  2  0
 10 11  1  0
 11 12  1  0
 12 13  1  0
 12 14  2  0
M  END
