x0711_0_A-x0524_0_A
     RDKit          3D

 33 35  0  0  0  0  0  0  0  0999 V2000
   -1.4080   15.0530   -2.5300 N   0  0  0  0  0  0  0  0  0  0  0  0
   -0.4270   13.9350   -3.3330 S   0  0  0  0  0  0  0  0  0  0  0  0
   -1.4420   13.2680   -4.6440 C   0  0  0  0  0  0  0  0  0  0  0  0
   -2.6790   14.8950   -1.8700 C   0  0  0  0  0  0  0  0  0  0  0  0
    0.6250   14.7000   -3.9630 O   0  0  0  0  0  0  0  0  0  0  0  0
   -0.0850   12.9190   -2.3680 O   0  0  0  0  0  0  0  0  0  0  0  0
   -3.8870   15.0320   -2.5570 C   0  0  0  0  0  0  0  0  0  0  0  0
   -2.6970   14.6260   -0.4940 C   0  0  0  0  0  0  0  0  0  0  0  0
   -0.9270   11.9250   -5.1900 C   0  0  0  0  0  0  0  0  0  0  0  0
   -5.1050   14.9090   -1.8750 C   0  0  0  0  0  0  0  0  0  0  0  0
   -3.9130   14.5010    0.1870 C   0  0  0  0  0  0  0  0  0  0  0  0
   -0.6770   12.0720   -6.6930 C   0  0  0  0  0  0  0  0  0  0  0  0
   -5.1250   14.6460   -0.5010 C   0  0  0  0  0  0  0  0  0  0  0  0
   -6.4000   14.5180    0.2610 C   0  0  0  0  0  0  0  0  0  0  0  0
   -0.2370   10.8250   -7.3040 N   0  0  0  0  0  0  0  0  0  0  0  0
   -6.3360   14.5040    1.6240 N   0  0  0  0  0  0  0  0  0  0  0  0
   -7.4870   14.4420   -0.3020 O   0  0  0  0  0  0  0  0  0  0  0  0
   -0.8320    9.6800   -7.2700 C   0  0  0  0  0  0  0  0  0  0  0  0
   -0.3120    8.5840   -7.9270 N   0  0  0  0  0  0  0  0  0  0  0  0
   -2.1370    9.4450   -6.5240 C   0  0  0  0  0  0  0  0  0  0  0  0
    0.6750    8.5860   -8.9360 C   0  0  0  0  0  0  0  0  0  0  0  0
    1.7490    7.7040   -8.9250 C   0  0  0  0  0  0  0  0  0  0  0  0
    0.6040    9.4940  -10.0050 C   0  0  0  0  0  0  0  0  0  0  0  0
    2.7250    7.7160   -9.9260 C   0  0  0  0  0  0  0  0  0  0  0  0
    1.5830    9.5030  -11.0140 C   0  0  0  0  0  0  0  0  0  0  0  0
    2.6660    8.6090  -10.9870 C   0  0  0  0  0  0  0  0  0  0  0  0
    3.6330    8.6440  -12.0140 N   0  0  0  0  0  0  0  0  0  0  0  0
    3.9470    9.5220  -13.0680 C   0  0  0  0  0  0  0  0  0  0  0  0
    3.1870   10.6860  -13.2660 C   0  0  0  0  0  0  0  0  0  0  0  0
    5.0060    9.2780  -13.9440 C   0  0  0  0  0  0  0  0  0  0  0  0
    3.4790   11.5690  -14.3030 C   0  0  0  0  0  0  0  0  0  0  0  0
    5.3020   10.1580  -14.9830 C   0  0  0  0  0  0  0  0  0  0  0  0
    4.5370   11.3070  -15.1620 C   0  0  0  0  0  0  0  0  0  0  0  0
  2  1  1  0
  2  3  1  0
  1  4  1  0
  2  5  2  0
  2  6  2  0
  4  7  2  0
  4  8  1  0
  3  9  1  0
  7 10  1  0
  8 11  2  0
  9 12  1  0
 10 13  2  0
 11 13  1  0
 13 14  1  0
 12 15  1  0
 14 16  1  0
 14 17  2  0
 15 18  2  3
 18 19  1  0
 18 20  1  0
 19 21  1  0
 21 22  2  0
 21 23  1  0
 22 24  1  0
 23 25  2  0
 24 26  2  0
 25 26  1  0
 26 27  1  0
 27 28  1  0
 28 29  2  0
 28 30  1  0
 29 31  1  0
 30 32  2  0
 31 33  2  0
 32 33  1  0
M  END
