x0711_0_A-x0905_0_A
     RDKit          3D

 14 14  0  0  0  0  0  0  0  0999 V2000
   -1.5490   15.0590   -2.5540 N   0  0  0  0  0  0  0  0  0  0  0  0
   -0.5610   13.8060   -3.0700 S   0  0  0  0  0  0  0  0  0  0  0  0
   -1.6760   12.7570   -3.9750 C   0  0  0  0  0  0  0  0  0  0  0  0
   -2.7780   14.9290   -1.8350 C   0  0  0  0  0  0  0  0  0  0  0  0
    0.3130   14.4330   -4.0370 O   0  0  0  0  0  0  0  0  0  0  0  0
   -0.0290   13.0880   -1.9340 O   0  0  0  0  0  0  0  0  0  0  0  0
   -3.9940   15.1650   -2.4730 C   0  0  0  0  0  0  0  0  0  0  0  0
   -2.7620   14.5800   -0.4790 C   0  0  0  0  0  0  0  0  0  0  0  0
   -5.1970   15.0610   -1.7680 C   0  0  0  0  0  0  0  0  0  0  0  0
   -3.9670   14.4740    0.2290 C   0  0  0  0  0  0  0  0  0  0  0  0
   -5.1920   14.7140   -0.4120 C   0  0  0  0  0  0  0  0  0  0  0  0
   -6.4540   14.5970    0.3730 C   0  0  0  0  0  0  0  0  0  0  0  0
   -6.4040   14.6760    1.7380 N   0  0  0  0  0  0  0  0  0  0  0  0
   -7.5350   14.4440   -0.1930 O   0  0  0  0  0  0  0  0  0  0  0  0
  2  1  1  0
  2  3  1  0
  1  4  1  0
  2  5  2  0
  2  6  2  0
  4  7  2  0
  4  8  1  0
  7  9  1  0
  8 10  2  0
  9 11  2  0
 10 11  1  0
 11 12  1  0
 12 13  1  0
 12 14  2  0
M  END
