x0711_0_A_α-x0950_0_A_α
     RDKit          3D

 19 19  0  0  0  0  0  0  0  0999 V2000
   -1.5830   15.0580   -2.2620 N   0  0  0  0  0  0  0  0  0  0  0  0
   -0.7450   14.0640   -3.2860 S   0  0  1  0  0  0  0  0  0  0  0  0
   -1.8820   13.1190   -4.2550 C   0  0  0  0  0  0  0  0  0  0  0  0
   -2.7960   14.9260   -1.5900 C   0  0  0  0  0  0  0  0  0  0  0  0
   -0.1220   15.0410   -4.1540 O   0  0  0  0  0  0  0  0  0  0  0  0
    0.0420   13.1500   -2.3680 N   0  0  0  0  0  0  0  0  0  0  0  0
   -3.9870   15.1760   -2.2890 C   0  0  0  0  0  0  0  0  0  0  0  0
   -2.8840   14.5680   -0.2430 C   0  0  0  0  0  0  0  0  0  0  0  0
    0.7270   12.1660   -3.0760 C   0  0  0  0  0  0  0  0  0  0  0  0
   -5.2290   15.0730   -1.6530 C   0  0  0  0  0  0  0  0  0  0  0  0
   -4.1170   14.4620    0.3980 C   0  0  0  0  0  0  0  0  0  0  0  0
    1.4980   12.7360   -4.3050 C   0  0  1  0  0  0  0  0  0  0  0  0
    0.6830   10.9860   -2.7550 O   0  0  0  0  0  0  0  0  0  0  0  0
   -5.2960   14.7130   -0.3020 C   0  0  0  0  0  0  0  0  0  0  0  0
   -6.5980   14.5910    0.4100 C   0  0  0  0  0  0  0  0  0  0  0  0
    2.9820   12.8530   -4.0280 C   0  0  0  0  0  0  0  0  0  0  0  0
    1.2700   11.9850   -5.5010 O   0  0  0  0  0  0  0  0  0  0  0  0
   -6.6170   14.4730    1.7800 N   0  0  0  0  0  0  0  0  0  0  0  0
   -7.6530   14.5930   -0.2090 O   0  0  0  0  0  0  0  0  0  0  0  0
  2  1  1  0
  2  3  1  6
  1  4  1  0
  2  5  2  0
  2  6  2  0
  4  7  2  0
  4  8  1  0
  6  9  1  0
  7 10  1  0
  8 11  2  0
  9 12  1  0
  9 13  2  0
 10 14  2  0
 11 14  1  0
 14 15  1  0
 12 16  1  1
 12 17  1  0
 15 18  1  0
 15 19  2  0
M  END
