x0711_0_A_α-5L9K_0_A_β
     RDKit          3D

 25 25  0  0  0  0  0  0  0  0999 V2000
   -1.9120   15.1410   -2.9970 N   0  0  0  0  0  0  0  0  0  0  0  0
   -0.5110   14.1280   -3.0530 S   0  0  1  0  0  0  0  0  0  0  0  0
   -0.8310   12.9330   -4.3230 C   0  0  0  0  0  0  0  0  0  0  0  0
   -2.9120   14.9600   -1.9830 C   0  0  0  0  0  0  0  0  0  0  0  0
    0.7780   14.9150   -3.3880 N   0  0  0  0  0  0  0  0  0  0  0  0
   -0.2410   13.4810   -1.7320 O   0  0  0  0  0  0  0  0  0  0  0  0
   -4.2110   15.1800   -2.4310 C   0  0  0  0  0  0  0  0  0  0  0  0
   -2.7570   14.6160   -0.6620 C   0  0  0  0  0  0  0  0  0  0  0  0
    1.0350   15.5530   -4.5900 C   0  0  0  0  0  0  0  0  0  0  0  0
   -5.3080   15.0730   -1.6420 C   0  0  0  0  0  0  0  0  0  0  0  0
   -3.8440   14.4900    0.1990 C   0  0  0  0  0  0  0  0  0  0  0  0
    0.3660   16.8200   -4.9810 C   0  0  0  0  0  0  0  0  0  0  0  0
   -5.1290   14.7230   -0.3110 C   0  0  0  0  0  0  0  0  0  0  0  0
   -6.3610   14.6250    0.4650 C   0  0  0  0  0  0  0  0  0  0  0  0
   -0.8200   16.5730   -5.5930 O   0  0  0  0  0  0  0  0  0  0  0  0
   -6.3610   14.6370    1.8730 N   0  0  0  0  0  0  0  0  0  0  0  0
   -7.4400   14.5370   -0.1590 O   0  0  0  0  0  0  0  0  0  0  0  0
   -1.8210   17.7720   -6.1320 P   0  0  0  0  0  0  0  0  0  0  0  0
   -1.4220   19.2880   -6.4700 O   0  0  0  0  0  0  0  0  0  0  0  0
   -3.3520   17.1810   -6.3960 O   0  0  0  0  0  0  0  0  0  0  0  0
   -2.2990   18.0610   -4.7600 O   0  0  0  0  0  0  0  0  0  0  0  0
   -0.4990   19.6970   -7.6850 P   0  0  0  0  0  0  0  0  0  0  0  0
   -1.5670   20.3610   -8.5310 O   0  0  0  0  0  0  0  0  0  0  0  0
   -0.1110   18.5790   -8.8470 O   0  0  0  0  0  0  0  0  0  0  0  0
    0.3600   21.1440   -7.6910 O   0  0  0  0  0  0  0  0  0  0  0  0
  2  1  1  0
  2  3  1  6
  1  4  1  0
  2  5  2  0
  2  6  2  0
  4  7  2  0
  4  8  1  0
  5  9  1  0
  7 10  1  0
  8 11  2  0
  9 12  1  0
 10 13  2  0
 11 13  1  0
 13 14  1  0
 12 15  1  0
 14 16  1  0
 14 17  2  0
 15 18  1  0
 18 19  1  0
 18 20  1  0
 18 21  1  0
 19 22  1  0
 22 23  1  0
 22 24  1  0
 22 25  1  0
M  CHG  2  20  -1  24  -1
M  END
