x0711_0_A-x0962_2_B
     RDKit          3D

 21 22  0  0  0  0  0  0  0  0999 V2000
   -1.7010   15.0640   -2.4500 N   0  0  0  0  0  0  0  0  0  0  0  0
   -0.7060   13.8180   -3.0190 S   0  0  0  0  0  0  0  0  0  0  0  0
   -1.8430   12.7700   -3.8960 C   0  0  0  0  0  0  0  0  0  0  0  0
   -2.9200   14.9130   -1.6950 C   0  0  0  0  0  0  0  0  0  0  0  0
    0.2330   14.3830   -3.9650 O   0  0  0  0  0  0  0  0  0  0  0  0
   -0.2300   13.1170   -1.8440 O   0  0  0  0  0  0  0  0  0  0  0  0
   -4.1330   15.1420   -2.3470 C   0  0  0  0  0  0  0  0  0  0  0  0
   -2.9170   14.5650   -0.3360 C   0  0  0  0  0  0  0  0  0  0  0  0
   -5.3440   15.0320   -1.6480 C   0  0  0  0  0  0  0  0  0  0  0  0
   -4.1340   14.4510    0.3690 C   0  0  0  0  0  0  0  0  0  0  0  0
   -5.3600   14.6860   -0.2860 C   0  0  0  0  0  0  0  0  0  0  0  0
   -6.7000   14.5870    0.4010 C   0  0  0  0  0  0  0  0  0  0  0  0
   -6.9000   14.2880    1.7490 N   0  0  0  0  0  0  0  0  0  0  0  0
   -7.6890   14.7700   -0.3050 O   0  0  0  0  0  0  0  0  0  0  0  0
   -7.7010   14.8870    2.7440 C   0  0  0  0  0  0  0  0  0  0  0  0
   -8.9080   15.5800    2.6490 C   0  0  0  0  0  0  0  0  0  0  0  0
   -7.3370   14.8550    4.0590 N   0  0  0  0  0  0  0  0  0  0  0  0
   -9.7390   15.9100    1.5590 C   0  0  0  0  0  0  0  0  0  0  0  0
   -9.2210   15.9540    3.9310 N   0  0  0  0  0  0  0  0  0  0  0  0
   -8.2400   15.4930    4.7440 C   0  0  0  0  0  0  0  0  0  0  0  0
  -10.4480   16.2070    0.6920 N   0  0  0  0  0  0  0  0  0  0  0  0
  2  1  1  0
  2  3  1  0
  1  4  1  0
  2  5  2  0
  2  6  2  0
  4  7  2  0
  4  8  1  0
  7  9  1  0
  8 10  2  0
  9 11  2  0
 10 11  1  0
 11 12  1  0
 12 13  1  0
 12 14  2  0
 13 15  1  0
 15 16  2  0
 15 17  1  0
 16 18  1  0
 16 19  1  0
 17 20  2  0
 19 20  1  0
 18 21  3  0
M  END
