x0711_0_A_α-x0689_0_A_α
     RDKit          3D

 21 22  0  0  0  0  0  0  0  0999 V2000
   -1.8490   14.7490   -3.4750 N   0  0  0  0  0  0  0  0  0  0  0  0
   -0.4410   13.8300   -3.4930 S   0  0  0  0  0  0  0  0  0  0  0  0
   -1.0040   12.4290   -4.4290 C   0  0  0  0  0  0  0  0  0  0  0  0
   -2.8720   14.6710   -2.4970 C   0  0  0  0  0  0  0  0  0  0  0  0
    0.5570   14.5380   -4.2590 O   0  0  0  0  0  0  0  0  0  0  0  0
   -0.1570   13.3620   -2.1540 O   0  0  0  0  0  0  0  0  0  0  0  0
   -4.0230   15.4060   -2.6950 C   0  0  0  0  0  0  0  0  0  0  0  0
   -2.7420   13.8860   -1.3540 C   0  0  0  0  0  0  0  0  0  0  0  0
   -5.0570   15.4030   -1.7680 C   0  0  0  0  0  0  0  0  0  0  0  0
   -3.7690   13.8780   -0.4200 C   0  0  0  0  0  0  0  0  0  0  0  0
   -4.9170   14.6410   -0.6220 C   0  0  0  0  0  0  0  0  0  0  0  0
   -5.8800   14.5630    0.4590 C   0  0  0  0  0  0  0  0  0  0  0  0
   -5.2010   14.6020    1.6620 N   0  0  0  0  0  0  0  0  0  0  0  0
   -7.1040   14.4890    0.2800 O   0  0  0  0  0  0  0  0  0  0  0  0
   -3.9800   15.3850    1.7510 N   0  0  0  0  0  0  0  0  0  0  0  0
   -2.7020   14.9800    1.1970 C   0  0  0  0  0  0  0  0  0  0  0  0
   -2.4710   15.0690   -0.1220 N   0  0  0  0  0  0  0  0  0  0  0  0
   -1.7410   14.5410    2.0330 N   0  0  0  0  0  0  0  0  0  0  0  0
   -1.2390   14.7230   -0.5800 C   0  0  0  0  0  0  0  0  0  0  0  0
   -0.5330   14.2010    1.5310 C   0  0  0  0  0  0  0  0  0  0  0  0
   -0.2210   14.2780    0.2100 C   0  0  0  0  0  0  0  0  0  0  0  0
  2  1  1  0
  2  3  1  0
  1  4  1  0
  2  5  2  0
  2  6  2  0
  4  7  2  0
  4  8  1  0
  7  9  1  0
  8 10  2  0
  9 11  2  0
 10 11  1  0
 11 12  1  0
 12 13  1  0
 12 14  2  0
 13 15  1  0
 15 16  1  0
 16 17  2  0
 16 18  1  0
 17 19  1  0
 18 20  2  0
 19 21  2  0
 20 21  1  0
M  END
