x0711_0_A-x0662_0_A
     RDKit          3D

 33 35  0  0  0  0  0  0  0  0999 V2000
   -1.4380   15.5680   -2.2920 N   0  0  0  0  0  0  0  0  0  0  0  0
   -0.2400   14.5010   -2.8170 S   0  0  0  0  0  0  0  0  0  0  0  0
   -0.9190   13.4770   -4.0880 C   0  0  0  0  0  0  0  0  0  0  0  0
   -2.6970   15.2760   -1.6800 C   0  0  0  0  0  0  0  0  0  0  0  0
    0.8580   15.2530   -3.3710 O   0  0  0  0  0  0  0  0  0  0  0  0
    0.0380   13.6260   -1.6920 O   0  0  0  0  0  0  0  0  0  0  0  0
   -3.8970   15.2540   -2.3910 C   0  0  0  0  0  0  0  0  0  0  0  0
   -2.7120   15.0190   -0.2980 C   0  0  0  0  0  0  0  0  0  0  0  0
   -0.3720   13.7040   -5.4350 C   0  0  0  0  0  0  0  0  0  0  0  0
   -5.0990   14.9900   -1.7370 C   0  0  0  0  0  0  0  0  0  0  0  0
   -3.9150   14.7520    0.3640 C   0  0  0  0  0  0  0  0  0  0  0  0
   -0.6280   12.5740   -6.2900 N   0  0  0  0  0  0  0  0  0  0  0  0
   -5.1080   14.7440   -0.3580 C   0  0  0  0  0  0  0  0  0  0  0  0
   -6.3960   14.4830    0.3300 C   0  0  0  0  0  0  0  0  0  0  0  0
    0.3730   11.8040   -6.4420 C   0  0  0  0  0  0  0  0  0  0  0  0
   -6.4100   14.6660    1.6920 N   0  0  0  0  0  0  0  0  0  0  0  0
   -7.3920   14.1470   -0.2980 O   0  0  0  0  0  0  0  0  0  0  0  0
    1.5170   11.8230   -5.9570 O   0  0  0  0  0  0  0  0  0  0  0  0
    0.1730   10.6960   -7.4380 C   0  0  0  0  0  0  0  0  0  0  0  0
   -0.6500    9.5990   -7.1580 C   0  0  0  0  0  0  0  0  0  0  0  0
    0.8060   10.7620   -8.6830 C   0  0  0  0  0  0  0  0  0  0  0  0
   -0.8230    8.6060   -8.1260 C   0  0  0  0  0  0  0  0  0  0  0  0
    0.6490    9.8050   -9.6450 C   0  0  0  0  0  0  0  0  0  0  0  0
    1.2760    9.8870  -10.9020 N   0  0  0  0  0  0  0  0  0  0  0  0
   -0.1740    8.7090   -9.3680 C   0  0  0  0  0  0  0  0  0  0  0  0
    2.3230    9.1460  -11.3830 C   0  0  0  0  0  0  0  0  0  0  0  0
    2.7260    8.0780  -10.9510 O   0  0  0  0  0  0  0  0  0  0  0  0
    2.9840    9.7800  -12.5490 C   0  0  0  0  0  0  0  0  0  0  0  0
    2.7380   11.0640  -13.1200 C   0  0  0  0  0  0  0  0  0  0  0  0
    3.9610    9.1370  -13.2210 N   0  0  0  0  0  0  0  0  0  0  0  0
    4.3190   10.0000  -14.1860 N   0  0  0  0  0  0  0  0  0  0  0  0
    3.6180   11.1680  -14.1720 C   0  0  0  0  0  0  0  0  0  0  0  0
    5.3670    9.6200  -15.1010 C   0  0  0  0  0  0  0  0  0  0  0  0
  2  1  1  0
  2  3  1  0
  1  4  1  0
  2  5  2  0
  2  6  2  0
  4  7  2  0
  4  8  1  0
  3  9  1  0
  7 10  1  0
  8 11  2  0
  9 12  1  0
 10 13  2  0
 11 13  1  0
 13 14  1  0
 12 15  2  3
 14 16  1  0
 14 17  2  0
 15 18  1  0
 15 19  1  0
 19 20  2  0
 19 21  1  0
 20 22  1  0
 21 23  2  0
 23 24  1  0
 22 25  2  0
 23 25  1  0
 24 26  1  0
 26 27  2  0
 26 28  1  0
 28 29  1  0
 28 30  2  0
 30 31  1  0
 29 32  2  0
 31 32  1  0
 31 33  1  0
M  CHG  1  18  -1
M  END
