x0711_0_A_α-5CB5_0_Q_β
     RDKit          3D

 25 25  0  0  0  0  0  0  0  0999 V2000
   -1.8630   15.1400   -2.9470 N   0  0  0  0  0  0  0  0  0  0  0  0
   -0.5680   14.0040   -3.0930 S   0  0  1  0  0  0  0  0  0  0  0  0
   -1.1910   12.6830   -4.0940 C   0  0  0  0  0  0  0  0  0  0  0  0
   -2.8860   14.9550   -1.9600 C   0  0  0  0  0  0  0  0  0  0  0  0
    0.6540   14.6190   -3.8050 N   0  0  0  0  0  0  0  0  0  0  0  0
   -0.0770   13.5320   -1.7600 O   0  0  0  0  0  0  0  0  0  0  0  0
   -4.1790   15.1870   -2.4260 C   0  0  0  0  0  0  0  0  0  0  0  0
   -2.7520   14.5970   -0.6420 C   0  0  0  0  0  0  0  0  0  0  0  0
    0.5510   15.2240   -5.0440 C   0  0  0  0  0  0  0  0  0  0  0  0
   -5.2860   15.0780   -1.6510 C   0  0  0  0  0  0  0  0  0  0  0  0
   -3.8470   14.4700    0.2020 C   0  0  0  0  0  0  0  0  0  0  0  0
    0.4000   16.6910   -5.1770 C   0  0  0  0  0  0  0  0  0  0  0  0
   -5.1240   14.7160   -0.3200 C   0  0  0  0  0  0  0  0  0  0  0  0
   -6.3610   14.6190    0.4440 C   0  0  0  0  0  0  0  0  0  0  0  0
   -0.8740   17.1340   -4.9680 O   0  0  0  0  0  0  0  0  0  0  0  0
   -6.3610   14.6230    1.8540 N   0  0  0  0  0  0  0  0  0  0  0  0
   -7.4380   14.5390   -0.1810 O   0  0  0  0  0  0  0  0  0  0  0  0
   -1.5170   18.2160   -6.0340 P   0  0  0  0  0  0  0  0  0  0  0  0
   -0.8450   19.5980   -6.4140 O   0  0  0  0  0  0  0  0  0  0  0  0
   -2.9140   17.7310   -6.8300 O   0  0  0  0  0  0  0  0  0  0  0  0
   -2.3640   18.9180   -4.9950 O   0  0  0  0  0  0  0  0  0  0  0  0
   -0.1420   19.9120   -7.7650 P   0  0  0  0  0  0  0  0  0  0  0  0
   -1.3480   20.4690   -8.5090 O   0  0  0  0  0  0  0  0  0  0  0  0
    0.6980   21.3320   -7.9580 O   0  0  0  0  0  0  0  0  0  0  0  0
    0.0490   18.6630   -8.8730 O   0  0  0  0  0  0  0  0  0  0  0  0
  2  1  1  0
  2  3  1  6
  1  4  1  0
  2  5  2  0
  2  6  2  0
  4  7  2  0
  4  8  1  0
  5  9  1  0
  7 10  1  0
  8 11  2  0
  9 12  1  0
 10 13  2  0
 11 13  1  0
 13 14  1  0
 12 15  1  0
 14 16  1  0
 14 17  2  0
 15 18  1  0
 18 19  1  0
 18 20  1  0
 18 21  1  0
 19 22  1  0
 22 23  1  0
 22 24  1  0
 22 25  1  0
M  CHG  2  20  -1  24  -1
M  END
