x0711_0_A_α-x0910_1_A_α
     RDKit          3D

 19 20  0  0  0  0  0  0  0  0999 V2000
   -1.6710   15.0080   -2.6240 N   0  0  0  0  0  0  0  0  0  0  0  0
   -0.4960   13.9450   -3.1700 S   0  0  0  0  0  0  0  0  0  0  0  0
   -1.4560   12.7840   -4.1200 C   0  0  0  0  0  0  0  0  0  0  0  0
   -2.7680   14.5580   -1.8440 C   0  0  0  0  0  0  0  0  0  0  0  0
    0.3030   14.7090   -4.1030 O   0  0  0  0  0  0  0  0  0  0  0  0
    0.1070   13.2590   -2.0490 O   0  0  0  0  0  0  0  0  0  0  0  0
   -4.0400   14.5040   -2.4150 C   0  0  0  0  0  0  0  0  0  0  0  0
   -2.5880   14.1740   -0.5170 C   0  0  0  0  0  0  0  0  0  0  0  0
   -5.1330   14.0610   -1.6470 C   0  0  0  0  0  0  0  0  0  0  0  0
   -3.6710   13.7330    0.2570 C   0  0  0  0  0  0  0  0  0  0  0  0
   -4.9580   13.6710   -0.2970 C   0  0  0  0  0  0  0  0  0  0  0  0
   -6.1440   13.2240    0.5210 C   0  0  0  0  0  0  0  0  0  0  0  0
   -6.3220   14.1260    1.4880 N   0  0  0  0  0  0  0  0  0  0  0  0
   -6.8390   12.2660    0.2660 O   0  0  0  0  0  0  0  0  0  0  0  0
   -6.1010   14.9870    0.5530 N   0  0  0  0  0  0  0  0  0  0  0  0
   -7.0330   15.2070   -0.3880 C   0  0  0  0  0  0  0  0  0  0  0  0
   -5.0110   15.7300    0.3040 C   0  0  0  0  0  0  0  0  0  0  0  0
   -6.5590   16.0670   -1.2250 N   0  0  0  0  0  0  0  0  0  0  0  0
   -5.2820   16.3900   -0.7900 N   0  0  0  0  0  0  0  0  0  0  0  0
  2  1  1  0
  2  3  1  0
  1  4  1  0
  2  5  2  0
  2  6  2  0
  4  7  2  0
  4  8  1  0
  7  9  1  0
  8 10  2  0
  9 11  2  0
 10 11  1  0
 11 12  1  0
 12 13  1  0
 12 14  2  0
 13 15  1  0
 15 16  1  0
 15 17  1  0
 16 18  2  0
 17 19  2  0
 18 19  1  0
M  END
