x0724_0_A_α-x0962_2_B_α
     RDKit          3D

 21 23  0  0  0  0  0  0  0  0999 V2000
   -8.0180   12.8270    3.9550 N   0  0  0  0  0  0  0  0  0  0  0  0
   -8.3650   13.0100    5.3710 C   0  0  0  0  0  0  0  0  0  0  0  0
   -8.6030   13.8060    3.0240 C   0  0  2  0  0  0  0  0  0  0  0  0
   -7.8430   14.1460    1.7960 C   0  0  0  0  0  0  0  0  0  0  0  0
   -8.8090   15.0600    3.7270 C   0  0  0  0  0  0  0  0  0  0  0  0
   -6.5020   14.1130    1.5510 C   0  0  0  0  0  0  0  0  0  0  0  0
   -8.3710   14.6090    0.5780 C   0  0  0  0  0  0  0  0  0  0  0  0
   -9.4790   16.1420    3.2780 C   0  0  0  0  0  0  0  0  0  0  0  0
   -8.2940   15.2610    4.9810 N   0  0  0  0  0  0  0  0  0  0  0  0
  -10.1400   16.3130    2.0380 C   0  0  0  0  0  0  0  0  0  0  0  0
   -7.4340   14.8430   -0.3410 N   0  0  0  0  0  0  0  0  0  0  0  0
   -6.2750   14.5320    0.2860 N   0  0  0  0  0  0  0  0  0  0  0  0
   -9.3810   17.0500    4.2840 N   0  0  0  0  0  0  0  0  0  0  0  0
   -8.6550   16.4680    5.2860 C   0  0  0  0  0  0  0  0  0  0  0  0
  -10.6660   16.3830    1.0080 N   0  0  0  0  0  0  0  0  0  0  0  0
   -5.0050   14.6350   -0.3160 C   0  0  0  0  0  0  0  0  0  0  0  0
   -3.8490   14.7130    0.4770 C   0  0  0  0  0  0  0  0  0  0  0  0
   -4.9010   14.6540   -1.7070 C   0  0  0  0  0  0  0  0  0  0  0  0
   -2.5990   14.8040   -0.1320 C   0  0  0  0  0  0  0  0  0  0  0  0
   -3.6510   14.7450   -2.3090 C   0  0  0  0  0  0  0  0  0  0  0  0
   -2.5030   14.8180   -1.5240 C   0  0  0  0  0  0  0  0  0  0  0  0
  1  2  1  0
  3  1  1  1
  3  4  1  0
  3  5  1  0
  4  6  2  0
  4  7  1  0
  5  8  2  0
  5  9  1  0
  8 10  1  0
  7 11  2  0
  6 12  1  0
 11 12  1  0
  8 13  1  0
  9 14  2  0
 13 14  1  0
 10 15  3  0
 12 16  1  0
 16 17  2  0
 16 18  1  0
 17 19  1  0
 18 20  2  0
 19 21  2  0
 20 21  1  0
M  END
