x0722_0_A_α-x0805_0_A_β
     RDKit          3D

 23 24  0  0  0  0  0  0  0  0999 V2000
   -4.4060   15.9440    2.3070 C   0  0  0  0  0  0  0  0  0  0  0  0
   -3.4510   15.3860    1.3820 C   0  0  0  0  0  0  0  0  0  0  0  0
   -2.2980   15.0330    1.8810 N   0  0  0  0  0  0  0  0  0  0  0  0
   -3.5530   15.1660   -0.0040 C   0  0  0  0  0  0  0  0  0  0  0  0
   -4.7200   15.4480   -0.9030 C   0  0  0  0  0  0  0  0  0  0  0  0
   -2.3080   14.6360   -0.3020 C   0  0  0  0  0  0  0  0  0  0  0  0
   -1.6070   14.5940    0.8740 N   0  0  0  0  0  0  0  0  0  0  0  0
   -0.2720   14.1600    1.1720 C   0  0  0  0  0  0  0  0  0  0  0  0
   -1.7200   14.1690   -1.5640 C   0  0  0  0  0  0  0  0  0  0  0  0
   -5.9890   14.6800   -0.5880 C   0  0  0  0  0  0  0  0  0  0  0  0
   -7.1050   15.1480   -0.7890 O   0  0  0  0  0  0  0  0  0  0  0  0
   -5.8810   13.4280   -0.0630 N   0  0  0  0  0  0  0  0  0  0  0  0
   -1.0790   12.8410   -1.2080 C   0  0  0  0  0  0  0  0  0  0  0  0
    0.4220   12.8180   -1.3070 C   0  0  0  0  0  0  0  0  0  0  0  0
    0.7290   13.2480   -2.5800 N   0  0  0  0  0  0  0  0  0  0  0  0
    0.5110   12.3440   -3.4060 C   0  0  0  0  0  0  0  0  0  0  0  0
    0.0780   11.1020   -3.0870 O   0  0  0  0  0  0  0  0  0  0  0  0
    0.7380   12.7190   -4.7980 C   0  0  1  0  0  0  0  0  0  0  0  0
   -0.1320   13.9250   -5.1260 C   0  0  0  0  0  0  0  0  0  0  0  0
    2.2160   13.0070   -4.9160 C   0  0  0  0  0  0  0  0  0  0  0  0
    2.6020   14.3140   -4.4960 O   0  0  0  0  0  0  0  0  0  0  0  0
    0.2990   15.2030   -4.4020 C   0  0  0  0  0  0  0  0  0  0  0  0
    1.6800   15.1210   -3.7590 C   0  0  0  0  0  0  0  0  0  0  0  0
  1  2  1  0
  2  3  2  0
  2  4  1  0
  4  5  1  0
  4  6  2  0
  3  7  1  0
  6  7  1  0
  7  8  1  0
  6  9  1  0
  5 10  1  0
 10 11  2  0
 10 12  1  0
  9 13  1  0
 13 14  1  0
 14 15  1  0
 15 16  2  3
 16 17  1  0
 18 16  1  1
 18 19  1  0
 18 20  1  0
 20 21  1  0
 19 22  1  0
 21 23  1  0
 22 23  1  0
M  END
