x0727_0_A_α-x1018_0_A_α
     RDKit          3D

 26 28  0  0  0  0  0  0  0  0999 V2000
    0.2290   11.4430   -5.6060 N   0  0  0  0  0  0  0  0  0  0  0  0
    0.9320   12.3660   -4.7150 C   0  0  1  0  0  0  0  0  0  0  0  0
    0.4660   13.7970   -4.9320 C   0  0  0  0  0  0  0  0  0  0  0  0
    0.6950   11.0490   -6.8140 C   0  0  0  0  0  0  0  0  0  0  0  0
    1.6320   11.6720   -7.2410 O   0  0  0  0  0  0  0  0  0  0  0  0
    0.7130   11.9500   -3.2560 C   0  0  0  0  0  0  0  0  0  0  0  0
    0.0900    9.8650   -7.5520 C   0  0  0  0  0  0  0  0  0  0  0  0
    0.2190   10.8880   -2.8860 O   0  0  0  0  0  0  0  0  0  0  0  0
    1.1630   12.9340   -2.4270 O   0  0  0  0  0  0  0  0  0  0  0  0
   -1.2130   10.2510   -8.2660 C   0  0  0  0  0  0  0  0  0  0  0  0
   -0.2590    8.6650   -6.6490 C   0  0  0  0  0  0  0  0  0  0  0  0
    0.3100   13.1710   -1.3020 C   0  0  0  0  0  0  0  0  0  0  0  0
   -2.1810    9.1060   -7.9940 C   0  0  0  0  0  0  0  0  0  0  0  0
   -1.7730    8.5900   -6.6280 C   0  0  0  0  0  0  0  0  0  0  0  0
   -0.6150   14.3540   -1.5360 C   0  0  0  0  0  0  0  0  0  0  0  0
   -1.6400   14.4320   -0.3930 C   0  0  0  0  0  0  0  0  0  0  0  0
   -2.9150   15.0540   -0.8080 N   0  0  0  0  0  0  0  0  0  0  0  0
   -3.2320   14.8130   -2.2320 N   0  0  0  0  0  0  0  0  0  0  0  0
   -4.0940   14.4700   -0.1790 C   0  0  2  0  0  0  0  0  0  0  0  0
   -4.6750   14.7510   -2.3750 N   0  0  0  0  0  0  0  0  0  0  0  0
   -5.1380   14.9120   -1.0770 N   0  0  0  0  0  0  0  0  0  0  0  0
   -4.4860   14.7580    1.2180 C   0  0  0  0  0  0  0  0  0  0  0  0
   -6.4640   14.6840   -0.8300 N   0  0  0  0  0  0  0  0  0  0  0  0
   -5.7840   14.8480    1.5430 C   0  0  0  0  0  0  0  0  0  0  0  0
   -6.7600   14.6570    0.4360 C   0  0  0  0  0  0  0  0  0  0  0  0
   -8.4220   14.3910    0.8290 Cl  0  0  0  0  0  0  0  0  0  0  0  0
  1  2  1  0
  2  3  1  1
  1  4  1  0
  4  5  2  0
  2  6  1  0
  4  7  1  0
  6  8  2  0
  6  9  1  0
  7 10  1  0
  7 11  1  0
  9 12  1  0
 10 13  1  0
 11 14  1  0
 13 14  1  0
 12 15  1  0
 15 16  1  0
 16 17  1  0
 17 18  1  0
 17 19  1  0
 18 20  1  0
 19 21  1  0
 20 21  1  0
 19 22  1  1
 21 23  1  0
 22 24  2  0
 23 25  2  0
 24 25  1  0
 25 26  1  0
M  END
