x0722_0_A-x0592_0_A
     RDKit          3D

 20 21  0  0  0  0  0  0  0  0999 V2000
   -4.3080   15.8390    2.1750 C   0  0  0  0  0  0  0  0  0  0  0  0
   -3.3040   15.6410    1.0730 C   0  0  1  0  0  0  0  0  0  0  0  0
   -2.1050   15.0790    1.5940 N   0  0  0  0  0  0  0  0  0  0  0  0
   -3.5910   14.6460   -0.0830 C   0  0  2  0  0  0  0  0  0  0  0  0
   -2.1570   14.2630   -0.5350 C   0  0  2  0  0  0  0  0  0  0  0  0
   -1.3160   14.9560    0.4430 N   0  0  0  0  0  0  0  0  0  0  0  0
   -4.5450   15.3030   -1.0680 C   0  0  1  0  0  0  0  0  0  0  0  0
   -2.5640   13.8370    1.9690 N   0  0  0  0  0  0  0  0  0  0  0  0
   -0.0200   14.4070    0.7330 C   0  0  0  0  0  0  0  0  0  0  0  0
   -1.7760   14.5440   -1.9810 C   0  0  0  0  0  0  0  0  0  0  0  0
   -5.3620   14.5360   -2.0850 C   0  0  0  0  0  0  0  0  0  0  0  0
   -5.5690   15.9630   -0.2730 C   0  0  0  0  0  0  0  0  0  0  0  0
   -6.7850   14.5590   -1.6180 N   0  0  0  0  0  0  0  0  0  0  0  0
   -6.8250   15.2170   -0.3420 N   0  0  0  0  0  0  0  0  0  0  0  0
   -7.0610   14.2690    0.8050 C   0  0  0  0  0  0  0  0  0  0  0  0
   -7.1320   13.3460   -1.2980 N   0  0  0  0  0  0  0  0  0  0  0  0
   -8.0000   14.7300    1.9350 C   0  0  0  0  0  0  0  0  0  0  0  0
   -6.2290   12.9490   -0.4800 C   0  0  0  0  0  0  0  0  0  0  0  0
   -7.2920   15.1610    3.1050 O   0  0  0  0  0  0  0  0  0  0  0  0
   -6.1140   11.7760    0.1630 N   0  0  0  0  0  0  0  0  0  0  0  0
  2  1  1  1
  2  3  1  0
  2  4  1  0
  4  5  1  0
  3  6  1  0
  5  6  1  0
  4  7  1  6
  3  8  1  0
  6  9  1  0
  5 10  1  6
  7 11  1  6
  7 12  1  0
 11 13  1  0
 12 14  1  0
 13 14  1  0
 14 15  1  0
 13 16  1  0
 15 17  1  0
 16 18  2  3
 17 19  1  0
 18 20  1  0
M  END
