x0722_0_A-x0905_0_A
     RDKit          3D

 18 19  0  0  0  0  0  0  0  0999 V2000
   -5.1820   14.7780    2.1260 C   0  0  0  0  0  0  0  0  0  0  0  0
   -3.9260   14.4700    1.3880 C   0  0  0  0  0  0  0  0  0  0  0  0
   -2.7180   14.7700    1.9090 N   0  0  0  0  0  0  0  0  0  0  0  0
   -3.8130   13.8590    0.1130 C   0  0  0  0  0  0  0  0  0  0  0  0
   -4.9260   13.3510   -0.7840 C   0  0  0  0  0  0  0  0  0  0  0  0
   -2.4360   13.8330   -0.1210 C   0  0  0  0  0  0  0  0  0  0  0  0
   -1.8340   14.3740    0.9810 N   0  0  0  0  0  0  0  0  0  0  0  0
   -0.4110   14.5370    1.1990 C   0  0  0  0  0  0  0  0  0  0  0  0
   -1.6540   13.3400   -1.2830 C   0  0  0  0  0  0  0  0  0  0  0  0
   -6.3480   13.9640   -0.6650 C   0  0  0  0  0  0  0  0  0  0  0  0
   -6.5400   15.2210   -0.7250 N   0  0  0  0  0  0  0  0  0  0  0  0
   -7.4120   13.1310   -0.5020 N   0  0  0  0  0  0  0  0  0  0  0  0
   -5.2390   15.5400   -0.8070 C   0  0  0  0  0  0  0  0  0  0  0  0
   -4.7240   15.8930    0.3620 N   0  0  0  0  0  0  0  0  0  0  0  0
   -4.5440   15.4420   -1.9880 C   0  0  0  0  0  0  0  0  0  0  0  0
   -3.4240   16.1480    0.3760 C   0  0  0  0  0  0  0  0  0  0  0  0
   -3.1890   15.7160   -1.9480 C   0  0  0  0  0  0  0  0  0  0  0  0
   -2.6120   16.0690   -0.7380 C   0  0  0  0  0  0  0  0  0  0  0  0
  1  2  1  0
  2  3  2  0
  2  4  1  0
  4  5  1  0
  4  6  2  0
  3  7  1  0
  6  7  1  0
  7  8  1  0
  6  9  1  0
  5 10  1  0
 10 11  2  3
 10 12  1  0
 11 13  1  0
 13 14  2  0
 13 15  1  0
 14 16  1  0
 15 17  2  0
 16 18  2  0
 17 18  1  0
M  END
