x0724_0_A-x0926_0_A
     RDKit          3D

 15 16  0  0  0  0  0  0  0  0999 V2000
   -8.5830   13.4970    4.4120 N   0  0  0  0  0  0  0  0  0  0  0  0
   -8.5570   13.5660    5.8690 C   0  0  0  0  0  0  0  0  0  0  0  0
   -8.3460   14.8050    3.8210 C   0  0  0  0  0  0  0  0  0  0  0  0
   -7.7070   14.7370    2.4830 C   0  0  0  0  0  0  0  0  0  0  0  0
   -6.4040   15.0340    2.1750 C   0  0  0  0  0  0  0  0  0  0  0  0
   -8.2700   14.3810    1.2330 C   0  0  0  0  0  0  0  0  0  0  0  0
   -7.3900   14.4620    0.2270 N   0  0  0  0  0  0  0  0  0  0  0  0
   -6.2520   14.8780    0.8370 N   0  0  0  0  0  0  0  0  0  0  0  0
   -5.0410   15.1390    0.0580 C   0  0  1  0  0  0  0  0  0  0  0  0
   -3.7320   14.8100    0.7230 C   0  0  0  0  0  0  0  0  0  0  0  0
   -5.1390   14.6070   -1.3420 C   0  0  0  0  0  0  0  0  0  0  0  0
   -6.1910   14.1900   -1.8240 O   0  0  0  0  0  0  0  0  0  0  0  0
   -2.6380   14.5700   -0.0130 C   0  0  0  0  0  0  0  0  0  0  0  0
   -3.8780   14.6260   -2.1260 C   0  0  0  0  0  0  0  0  0  0  0  0
   -2.7080   14.6120   -1.4620 C   0  0  0  0  0  0  0  0  0  0  0  0
  1  2  1  0
  1  3  1  0
  3  4  1  0
  4  5  2  0
  4  6  1  0
  6  7  2  0
  5  8  1  0
  7  8  1  0
  9  8  1  1
  9 10  1  0
  9 11  1  0
 11 12  2  0
 10 13  2  0
 11 14  1  0
 13 15  1  0
 14 15  2  0
M  END
