x0724_0_A_α-x0844_0_A_α
     RDKit          3D

 15 16  0  0  0  0  0  0  0  0999 V2000
   -8.6080   13.5010    4.4480 N   0  0  0  0  0  0  0  0  0  0  0  0
   -8.5840   13.5510    5.9030 C   0  0  0  0  0  0  0  0  0  0  0  0
   -8.3410   14.8110    3.8780 C   0  0  0  0  0  0  0  0  0  0  0  0
   -7.7190   14.7390    2.5320 C   0  0  0  0  0  0  0  0  0  0  0  0
   -6.4240   15.0380    2.2110 C   0  0  0  0  0  0  0  0  0  0  0  0
   -8.2970   14.3730    1.2940 C   0  0  0  0  0  0  0  0  0  0  0  0
   -7.4270   14.4530    0.2800 N   0  0  0  0  0  0  0  0  0  0  0  0
   -6.2870   14.8760    0.8750 N   0  0  0  0  0  0  0  0  0  0  0  0
   -5.0960   15.1340    0.0790 C   0  0  1  0  0  0  0  0  0  0  0  0
   -3.7700   14.8040    0.7030 C   0  0  0  0  0  0  0  0  0  0  0  0
   -5.2580   14.5800   -1.3010 C   0  0  0  0  0  0  0  0  0  0  0  0
   -6.3470   14.1530   -1.7100 O   0  0  0  0  0  0  0  0  0  0  0  0
   -2.7030   14.5540   -0.0690 C   0  0  0  0  0  0  0  0  0  0  0  0
   -4.0290   14.5930   -2.1380 C   0  0  0  0  0  0  0  0  0  0  0  0
   -2.8300   14.5870   -1.5160 C   0  0  0  0  0  0  0  0  0  0  0  0
  1  2  1  0
  1  3  1  0
  3  4  1  0
  4  5  2  0
  4  6  1  0
  6  7  2  0
  5  8  1  0
  7  8  1  0
  9  8  1  1
  9 10  1  0
  9 11  1  0
 11 12  2  0
 10 13  2  0
 11 14  1  0
 13 15  1  0
 14 15  2  0
M  END
