x0724_0_A_α-x0591_0_A_α
     RDKit          3D

 22 23  0  0  0  0  0  0  0  0999 V2000
   -8.7820   13.7200    4.2790 N   0  0  0  0  0  0  0  0  0  0  0  0
   -8.8170   13.5630    5.7310 C   0  0  0  0  0  0  0  0  0  0  0  0
   -8.0740   14.9410    3.9170 C   0  0  0  0  0  0  0  0  0  0  0  0
   -7.4680   14.8980    2.5570 C   0  0  0  0  0  0  0  0  0  0  0  0
   -6.1230   15.0000    2.2390 C   0  0  0  0  0  0  0  0  0  0  0  0
   -8.0980   14.7630    1.3050 C   0  0  0  0  0  0  0  0  0  0  0  0
   -7.2250   14.7950    0.2920 N   0  0  0  0  0  0  0  0  0  0  0  0
   -5.9900   14.9470    0.8700 N   0  0  0  0  0  0  0  0  0  0  0  0
   -4.7680   15.0540    0.1010 C   0  0  0  0  0  0  0  0  0  0  0  0
   -3.6120   15.5380    0.7050 C   0  0  0  0  0  0  0  0  0  0  0  0
   -4.7590   14.6800   -1.2460 C   0  0  0  0  0  0  0  0  0  0  0  0
   -6.1020   14.1860   -1.5430 C   0  0  0  0  0  0  0  0  0  0  0  0
   -2.4460   15.6620   -0.0410 C   0  0  0  0  0  0  0  0  0  0  0  0
   -3.5410   14.8160   -2.0710 C   0  0  0  0  0  0  0  0  0  0  0  0
   -6.4290   13.0540   -0.7880 N   0  0  0  0  0  0  0  0  0  0  0  0
   -6.8380   14.7600   -2.3170 O   0  0  0  0  0  0  0  0  0  0  0  0
   -3.1580   14.4730   -3.8340 S   0  0  0  0  0  0  0  0  0  0  0  0
   -2.4130   15.3160   -1.3940 C   0  0  0  0  0  0  0  0  0  0  0  0
   -6.0000   12.8390    0.5980 C   0  0  0  0  0  0  0  0  0  0  0  0
   -1.7410   15.3610   -4.0840 N   0  0  0  0  0  0  0  0  0  0  0  0
   -2.6520   13.1250   -4.0160 O   0  0  0  0  0  0  0  0  0  0  0  0
   -4.0690   15.0420   -4.7970 O   0  0  0  0  0  0  0  0  0  0  0  0
  1  2  1  0
  1  3  1  0
  3  4  1  0
  4  5  2  0
  4  6  1  0
  6  7  2  0
  5  8  1  0
  7  8  1  0
  8  9  1  0
  9 10  2  0
  9 11  1  0
 11 12  1  0
 10 13  1  0
 11 14  2  0
 12 15  1  0
 12 16  2  0
 14 17  1  0
 13 18  2  0
 14 18  1  0
 15 19  1  0
 17 20  1  0
 17 21  2  0
 17 22  2  0
M  END
