x0722_0_A_α-x0628_0_A_α
     RDKit          3D

 26 27  0  0  0  0  0  0  0  0999 V2000
   -4.3950   15.8450    2.3090 C   0  0  0  0  0  0  0  0  0  0  0  0
   -3.4360   15.3320    1.3460 C   0  0  0  0  0  0  0  0  0  0  0  0
   -2.2650   14.9380    1.8000 N   0  0  0  0  0  0  0  0  0  0  0  0
   -3.5650   15.2000   -0.0520 C   0  0  0  0  0  0  0  0  0  0  0  0
   -4.7630   15.5570   -0.8840 C   0  0  0  0  0  0  0  0  0  0  0  0
   -2.3270   14.6870   -0.4310 C   0  0  0  0  0  0  0  0  0  0  0  0
   -1.6000   14.5590    0.7320 N   0  0  0  0  0  0  0  0  0  0  0  0
   -0.2550   14.0890    0.9320 C   0  0  0  0  0  0  0  0  0  0  0  0
   -1.7800   14.3240   -1.7720 C   0  0  0  0  0  0  0  0  0  0  0  0
   -5.9830   14.7020   -0.5940 C   0  0  0  0  0  0  0  0  0  0  0  0
   -7.1360   15.0740   -0.8010 O   0  0  0  0  0  0  0  0  0  0  0  0
   -5.7450   13.4620   -0.0720 N   0  0  0  0  0  0  0  0  0  0  0  0
   -2.7940   14.5600   -2.8940 C   0  0  0  0  0  0  0  0  0  0  0  0
   -2.4870   13.7890   -4.1860 C   0  0  0  0  0  0  0  0  0  0  0  0
   -2.2960   12.2790   -3.9760 C   0  0  0  0  0  0  0  0  0  0  0  0
   -1.5160   11.5730   -5.0380 C   0  0  0  0  0  0  0  0  0  0  0  0
   -1.8470   10.4300   -5.6100 N   0  0  0  0  0  0  0  0  0  0  0  0
   -0.3260   12.0020   -5.5820 N   0  0  0  0  0  0  0  0  0  0  0  0
    0.4700   13.1860   -5.3110 C   0  0  0  0  0  0  0  0  0  0  0  0
   -0.8330   10.1970   -6.4940 C   0  0  0  0  0  0  0  0  0  0  0  0
    0.1170   11.1330   -6.5120 N   0  0  0  0  0  0  0  0  0  0  0  0
   -0.7910    9.0050   -7.3570 C   0  0  0  0  0  0  0  0  0  0  0  0
    1.6290   12.9480   -4.3520 C   0  0  0  0  0  0  0  0  0  0  0  0
    1.1810   12.2650   -3.0890 C   0  0  0  0  0  0  0  0  0  0  0  0
    0.5040   11.2540   -2.9850 O   0  0  0  0  0  0  0  0  0  0  0  0
    1.6130   12.9160   -1.9970 O   0  0  0  0  0  0  0  0  0  0  0  0
  1  2  1  0
  2  3  2  0
  2  4  1  0
  4  5  1  0
  4  6  2  0
  3  7  1  0
  6  7  1  0
  7  8  1  0
  6  9  1  0
  5 10  1  0
 10 11  2  0
 10 12  1  0
  9 13  1  0
 13 14  1  0
 14 15  1  0
 15 16  1  0
 16 17  2  0
 16 18  1  0
 18 19  1  0
 17 20  1  0
 18 21  1  0
 20 21  2  0
 20 22  1  0
 19 23  1  0
 23 24  1  0
 24 25  2  0
 24 26  1  0
M  END
