x0724_0_A_α-x0626_0_A_α
     RDKit          3D

 20 21  0  0  0  0  0  0  0  0999 V2000
   -8.1900   13.6580    3.7440 N   0  0  0  0  0  0  0  0  0  0  0  0
   -9.0710   13.6010    4.9040 C   0  0  0  0  0  0  0  0  0  0  0  0
   -8.5550   14.7660    2.8600 C   0  0  0  0  0  0  0  0  0  0  0  0
   -7.8760   14.6300    1.5290 C   0  0  0  0  0  0  0  0  0  0  0  0
   -6.5390   14.7570    1.2360 C   0  0  0  0  0  0  0  0  0  0  0  0
   -8.4470   14.3520    0.2750 C   0  0  0  0  0  0  0  0  0  0  0  0
   -7.5480   14.3130   -0.7200 N   0  0  0  0  0  0  0  0  0  0  0  0
   -6.3410   14.5700   -0.1260 N   0  0  0  0  0  0  0  0  0  0  0  0
   -5.0900   14.6320   -0.8670 C   0  0  0  0  0  0  0  0  0  0  0  0
   -3.8320   14.2140   -0.3230 C   0  0  0  0  0  0  0  0  0  0  0  0
   -5.1100   15.1310   -2.1800 C   0  0  0  0  0  0  0  0  0  0  0  0
   -3.8120   13.7170    0.9790 N   0  0  0  0  0  0  0  0  0  0  0  0
   -2.6510   14.3050   -1.0790 C   0  0  0  0  0  0  0  0  0  0  0  0
   -3.9350   15.2150   -2.9300 C   0  0  0  0  0  0  0  0  0  0  0  0
   -4.7970   14.0300    1.8570 C   0  0  0  0  0  0  0  0  0  0  0  0
   -1.2880   13.8910   -0.5710 C   0  0  0  0  0  0  0  0  0  0  0  0
   -2.7250   14.8090   -2.3860 C   0  0  0  0  0  0  0  0  0  0  0  0
   -4.9980   15.1640    2.2880 O   0  0  0  0  0  0  0  0  0  0  0  0
   -5.6250   12.8000    2.2310 C   0  0  0  0  0  0  0  0  0  0  0  0
   -6.2680   12.1150    1.0400 C   0  0  0  0  0  0  0  0  0  0  0  0
  1  2  1  0
  1  3  1  0
  3  4  1  0
  4  5  2  0
  4  6  1  0
  6  7  2  0
  5  8  1  0
  7  8  1  0
  8  9  1  0
  9 10  2  0
  9 11  1  0
 10 12  1  0
 10 13  1  0
 11 14  2  0
 12 15  1  0
 13 16  1  0
 13 17  2  0
 14 17  1  0
 15 18  2  0
 15 19  1  0
 19 20  1  0
M  END
