x0729_1_B_α-x0301_0_B_α
     RDKit          3D

 23 25  0  0  0  0  0  0  0  0999 V2000
   20.0570   25.7780    5.9650 C   0  0  0  0  0  0  0  0  0  0  0  0
   20.0290   26.6260    4.7590 C   0  0  2  0  0  0  0  0  0  0  0  0
   19.7250   28.0320    5.2050 C   0  0  1  0  0  0  0  0  0  0  0  0
   20.5190   27.0010    6.7180 C   0  0  1  0  0  0  0  0  0  0  0  0
   19.1860   26.4100    3.6360 C   0  0  0  0  0  0  0  0  0  0  0  0
   20.5540   26.8330    8.1950 N   0  0  0  0  0  0  0  0  0  0  0  0
   21.7140   27.6910    5.9090 C   0  0  1  0  0  0  0  0  0  0  0  0
   21.0540   28.5440    4.8110 C   0  0  1  0  0  0  0  0  0  0  0  0
   19.0860   27.3230    8.9740 S   0  0  0  0  0  0  0  0  0  0  0  0
   18.4950   28.6360    4.7490 N   0  0  0  0  0  0  0  0  0  0  0  0
   21.7820   27.3010    8.9000 C   0  0  0  0  0  0  0  0  0  0  0  0
   22.6100   28.4600    6.8190 C   0  0  0  0  0  0  0  0  0  0  0  0
   19.4520   28.3140    9.9570 O   0  0  0  0  0  0  0  0  0  0  0  0
   21.3270   28.2280    3.3880 N   0  0  0  0  0  0  0  0  0  0  0  0
   18.3440   26.1420    9.3460 O   0  0  0  0  0  0  0  0  0  0  0  0
   18.1120   28.1500    7.7250 C   0  0  0  0  0  0  0  0  0  0  0  0
   22.9630   27.5710    7.9820 C   0  0  0  0  0  0  0  0  0  0  0  0
   18.0730   29.9020    4.7160 C   0  0  0  0  0  0  0  0  0  0  0  0
   18.5240   30.6860    3.6900 N   0  0  0  0  0  0  0  0  0  0  0  0
   17.2230   30.5400    5.5260 N   0  0  0  0  0  0  0  0  0  0  0  0
   17.1780   31.7340    4.9160 N   0  0  0  0  0  0  0  0  0  0  0  0
   17.9410   31.8630    3.8240 N   0  0  0  0  0  0  0  0  0  0  0  0
   16.3560   32.8050    5.3930 C   0  0  0  0  0  0  0  0  0  0  0  0
  1  2  1  0
  2  3  1  0
  4  1  1  6
  2  5  1  6
  4  6  1  0
  4  7  1  0
  3  8  1  0
  7  8  1  0
  6  9  1  0
  3 10  1  6
  6 11  1  0
  7 12  1  1
  9 13  2  0
  8 14  1  6
  9 15  2  0
  9 16  1  0
 11 17  1  0
 12 17  1  0
 10 18  1  0
 18 19  1  0
 18 20  2  0
 20 21  1  0
 19 22  2  0
 21 22  1  0
 21 23  1  0
M  END
