x0727_0_A_α-x0631_0_A_α
     RDKit          3D

 23 24  0  0  0  0  0  0  0  0999 V2000
    0.0450   11.3790   -5.6910 N   0  0  0  0  0  0  0  0  0  0  0  0
    0.9670   12.2750   -4.9470 C   0  0  1  0  0  0  0  0  0  0  0  0
    0.5730   13.7240   -5.2050 C   0  0  0  0  0  0  0  0  0  0  0  0
    0.3150   10.8040   -6.9280 C   0  0  0  0  0  0  0  0  0  0  0  0
    0.9730   11.3720   -7.8380 N   0  0  0  0  0  0  0  0  0  0  0  0
    0.8340   11.9540   -3.4400 C   0  0  0  0  0  0  0  0  0  0  0  0
   -0.2130    9.4300   -7.2660 C   0  0  0  0  0  0  0  0  0  0  0  0
    0.2020   10.9920   -3.0190 O   0  0  0  0  0  0  0  0  0  0  0  0
    1.4550   12.8010   -2.5920 O   0  0  0  0  0  0  0  0  0  0  0  0
    1.0150   10.5240   -9.0530 C   0  0  0  0  0  0  0  0  0  0  0  0
   -1.4550    9.5870   -8.1520 C   0  0  0  0  0  0  0  0  0  0  0  0
   -0.5820    8.5040   -6.1130 C   0  0  0  0  0  0  0  0  0  0  0  0
    1.1770   11.3040  -10.3690 C   0  0  0  0  0  0  0  0  0  0  0  0
   -2.4750    8.6230   -7.5890 C   0  0  0  0  0  0  0  0  0  0  0  0
   -2.0990    8.4750   -6.1240 C   0  0  0  0  0  0  0  0  0  0  0  0
    1.1420   10.4950  -11.5910 N   0  0  0  0  0  0  0  0  0  0  0  0
    2.1710    9.5110  -11.9400 C   0  0  2  0  0  0  0  0  0  0  0  0
    2.7720    8.8450  -10.8400 O   0  0  0  0  0  0  0  0  0  0  0  0
    3.2180   10.1010  -12.9170 C   0  0  1  0  0  0  0  0  0  0  0  0
    3.4650    9.3560  -14.0980 O   0  0  0  0  0  0  0  0  0  0  0  0
    2.8210   11.4720  -13.4480 C   0  0  0  0  0  0  0  0  0  0  0  0
    4.2950   10.2390  -14.8510 C   0  0  0  0  0  0  0  0  0  0  0  0
    3.7020   11.6230  -14.6690 C   0  0  0  0  0  0  0  0  0  0  0  0
  1  2  1  0
  2  3  1  1
  1  4  1  0
  4  5  2  3
  2  6  1  0
  4  7  1  0
  6  8  2  0
  6  9  1  0
  5 10  1  0
  7 11  1  0
  7 12  1  0
 10 13  1  0
 11 14  1  0
 12 15  1  0
 14 15  1  0
 13 16  1  0
 16 17  1  0
 17 18  1  1
 17 19  1  0
 19 20  1  0
 19 21  1  6
 20 22  1  0
 21 23  1  0
 22 23  1  0
M  END
