x0724_0_A-x0626_0_A
     RDKit          3D

 20 21  0  0  0  0  0  0  0  0999 V2000
   -8.2270   13.8260    4.2900 N   0  0  0  0  0  0  0  0  0  0  0  0
   -8.8870   13.9430    5.5820 C   0  0  0  0  0  0  0  0  0  0  0  0
   -8.5930   14.9430    3.4250 C   0  0  0  0  0  0  0  0  0  0  0  0
   -7.9070   14.8510    2.0960 C   0  0  0  0  0  0  0  0  0  0  0  0
   -6.5540   14.9090    1.8170 C   0  0  0  0  0  0  0  0  0  0  0  0
   -8.4860   14.6960    0.8210 C   0  0  0  0  0  0  0  0  0  0  0  0
   -7.5880   14.6680   -0.1790 N   0  0  0  0  0  0  0  0  0  0  0  0
   -6.3790   14.8120    0.4340 N   0  0  0  0  0  0  0  0  0  0  0  0
   -5.1040   14.8720   -0.2530 C   0  0  0  0  0  0  0  0  0  0  0  0
   -3.9640   14.3750    0.3970 C   0  0  0  0  0  0  0  0  0  0  0  0
   -4.9830   15.4190   -1.5300 C   0  0  0  0  0  0  0  0  0  0  0  0
   -4.3030   13.8220    1.6150 N   0  0  0  0  0  0  0  0  0  0  0  0
   -2.6830   14.4450   -0.1880 C   0  0  0  0  0  0  0  0  0  0  0  0
   -3.7320   15.4720   -2.1390 C   0  0  0  0  0  0  0  0  0  0  0  0
   -5.3520   12.9340    1.3910 C   0  0  0  0  0  0  0  0  0  0  0  0
   -1.3800   13.9760    0.4350 C   0  0  0  0  0  0  0  0  0  0  0  0
   -2.5990   14.9960   -1.4730 C   0  0  0  0  0  0  0  0  0  0  0  0
   -5.5080   12.3470    0.3240 O   0  0  0  0  0  0  0  0  0  0  0  0
   -6.3560   12.7570    2.5060 C   0  0  0  0  0  0  0  0  0  0  0  0
   -7.7150   12.3570    1.9460 C   0  0  0  0  0  0  0  0  0  0  0  0
  1  2  1  0
  1  3  1  0
  3  4  1  0
  4  5  2  0
  4  6  1  0
  6  7  2  0
  5  8  1  0
  7  8  1  0
  8  9  1  0
  9 10  2  0
  9 11  1  0
 10 12  1  0
 10 13  1  0
 11 14  2  0
 12 15  1  0
 13 16  1  0
 13 17  2  0
 14 17  1  0
 15 18  2  0
 15 19  1  0
 19 20  1  0
M  END
