x0722_0_A-x0852_0_B
     RDKit          3D

 25 26  0  0  0  0  0  0  0  0999 V2000
   -4.8560   15.1870    2.1990 C   0  0  0  0  0  0  0  0  0  0  0  0
   -3.6650   14.9500    1.3690 C   0  0  0  0  0  0  0  0  0  0  0  0
   -2.5180   14.6410    1.9570 N   0  0  0  0  0  0  0  0  0  0  0  0
   -3.5370   15.0010   -0.0440 C   0  0  0  0  0  0  0  0  0  0  0  0
   -4.5990   15.3260   -1.0410 C   0  0  0  0  0  0  0  0  0  0  0  0
   -2.2080   14.6850   -0.2720 C   0  0  0  0  0  0  0  0  0  0  0  0
   -1.6500   14.4900    0.9600 N   0  0  0  0  0  0  0  0  0  0  0  0
   -0.2810   14.1560    1.2690 C   0  0  0  0  0  0  0  0  0  0  0  0
   -1.4440   14.5630   -1.5390 C   0  0  0  0  0  0  0  0  0  0  0  0
   -5.9740   14.7280   -0.7810 C   0  0  0  0  0  0  0  0  0  0  0  0
   -7.0840   15.3220   -1.0530 N   0  0  0  0  0  0  0  0  0  0  0  0
   -6.0540   13.4760   -0.2270 N   0  0  0  0  0  0  0  0  0  0  0  0
   -8.3980   14.7650   -0.8260 C   0  0  0  0  0  0  0  0  0  0  0  0
   -9.3740   15.9250   -0.6810 C   0  0  0  0  0  0  0  0  0  0  0  0
  -10.4160   15.6180    0.3830 C   0  0  0  0  0  0  0  0  0  0  0  0
  -10.4210   16.6270    1.3920 O   0  0  0  0  0  0  0  0  0  0  0  0
   -9.7900   16.3540    2.5810 C   0  0  0  0  0  0  0  0  0  0  0  0
   -8.8620   15.3100    2.5120 C   0  0  0  0  0  0  0  0  0  0  0  0
   -9.9880   17.0050    3.8000 C   0  0  0  0  0  0  0  0  0  0  0  0
   -8.1390   14.9170    3.6390 C   0  0  0  0  0  0  0  0  0  0  0  0
   -9.2630   16.6100    4.9410 C   0  0  0  0  0  0  0  0  0  0  0  0
   -9.4940   17.2890    6.1770 C   0  0  0  0  0  0  0  0  0  0  0  0
   -8.3410   15.5660    4.8480 C   0  0  0  0  0  0  0  0  0  0  0  0
   -9.7160   17.7930    7.2010 N   0  0  0  0  0  0  0  0  0  0  0  0
   -7.5930   15.1130    5.8970 O   0  0  0  0  0  0  0  0  0  0  0  0
  1  2  1  0
  2  3  2  0
  2  4  1  0
  4  5  1  0
  4  6  2  0
  3  7  1  0
  6  7  1  0
  7  8  1  0
  6  9  1  0
  5 10  1  0
 10 11  2  3
 10 12  1  0
 11 13  1  0
 13 14  1  0
 14 15  1  0
 15 16  1  0
 16 17  1  0
 17 18  2  0
 17 19  1  0
 18 20  1  0
 19 21  2  0
 21 22  1  0
 20 23  2  0
 21 23  1  0
 22 24  3  0
 23 25  1  0
M  END
