x0727_0_A_α-x0926_0_A_α
     RDKit          3D

 23 24  0  0  0  0  0  0  0  0999 V2000
    0.1780   11.4510   -5.5240 N   0  0  0  0  0  0  0  0  0  0  0  0
    0.8970   12.3650   -4.6310 C   0  0  1  0  0  0  0  0  0  0  0  0
    0.4950   13.8090   -4.8960 C   0  0  0  0  0  0  0  0  0  0  0  0
    0.7130   11.1250   -6.7450 C   0  0  0  0  0  0  0  0  0  0  0  0
    1.6530   11.7390   -7.1810 O   0  0  0  0  0  0  0  0  0  0  0  0
    0.6370   11.9860   -3.1620 C   0  0  0  0  0  0  0  0  0  0  0  0
    0.0740    9.9500   -7.4730 C   0  0  0  0  0  0  0  0  0  0  0  0
    0.1530   10.9120   -2.8030 O   0  0  0  0  0  0  0  0  0  0  0  0
    1.0270   12.9970   -2.3200 O   0  0  0  0  0  0  0  0  0  0  0  0
   -1.2310   10.3140   -8.1890 C   0  0  0  0  0  0  0  0  0  0  0  0
   -0.2650    8.7680   -6.5460 C   0  0  0  0  0  0  0  0  0  0  0  0
    0.1430   13.3850   -1.2380 C   0  0  0  0  0  0  0  0  0  0  0  0
   -2.1160    9.0860   -8.0450 C   0  0  0  0  0  0  0  0  0  0  0  0
   -1.7630    8.5510   -6.6690 C   0  0  0  0  0  0  0  0  0  0  0  0
   -0.2270   14.8710   -1.2920 C   0  0  0  0  0  0  0  0  0  0  0  0
   -1.0960   15.3280   -0.1010 C   0  0  0  0  0  0  0  0  0  0  0  0
   -2.5880   14.9330   -0.2570 C   0  0  2  0  0  0  0  0  0  0  0  0
   -3.2330   15.5910   -1.4070 N   0  0  0  0  0  0  0  0  0  0  0  0
   -3.3870   15.1590    0.9920 C   0  0  0  0  0  0  0  0  0  0  0  0
   -4.7210   15.2830    0.9580 C   0  0  0  0  0  0  0  0  0  0  0  0
   -4.6280   15.3330   -1.4700 N   0  0  0  0  0  0  0  0  0  0  0  0
   -5.4240   15.1980   -0.3520 C   0  0  0  0  0  0  0  0  0  0  0  0
   -6.6360   15.0150   -0.4140 O   0  0  0  0  0  0  0  0  0  0  0  0
  1  2  1  0
  2  3  1  1
  1  4  1  0
  4  5  2  0
  2  6  1  0
  4  7  1  0
  6  8  2  0
  6  9  1  0
  7 10  1  0
  7 11  1  0
  9 12  1  0
 10 13  1  0
 11 14  1  0
 13 14  1  0
 12 15  1  0
 15 16  1  0
 17 16  1  1
 17 18  1  0
 17 19  1  0
 19 20  2  0
 18 21  1  0
 20 22  1  0
 21 22  1  0
 22 23  2  0
M  END
