x0727_0_A-x0685_1_A
     RDKit          3D

 15 15  0  0  0  0  0  0  0  0999 V2000
    0.1880   11.8610   -5.4500 N   0  0  0  0  0  0  0  0  0  0  0  0
    1.1050   12.6270   -4.5860 C   0  0  1  0  0  0  0  0  0  0  0  0
    1.0120   14.1210   -4.9040 C   0  0  0  0  0  0  0  0  0  0  0  0
    0.4870   11.1740   -6.6080 C   0  0  0  0  0  0  0  0  0  0  0  0
   -1.2330   12.0900   -5.1980 C   0  0  0  0  0  0  0  0  0  0  0  0
    1.5080   11.3980   -7.2530 O   0  0  0  0  0  0  0  0  0  0  0  0
    0.8840   12.3360   -3.0520 C   0  0  0  0  0  0  0  0  0  0  0  0
   -0.4700   10.0970   -7.0670 C   0  0  0  0  0  0  0  0  0  0  0  0
    0.4180   11.0220   -2.8630 O   0  0  0  0  0  0  0  0  0  0  0  0
    2.0570   12.5170   -2.3350 O   0  0  0  0  0  0  0  0  0  0  0  0
   -0.0570   13.1910   -2.4570 O   0  0  0  0  0  0  0  0  0  0  0  0
   -0.9820   10.0620   -8.4820 C   0  0  0  0  0  0  0  0  0  0  0  0
   -0.1960    8.6460   -6.7460 C   0  0  0  0  0  0  0  0  0  0  0  0
   -2.0170    8.9360   -8.3440 C   0  0  0  0  0  0  0  0  0  0  0  0
   -1.4840    8.0070   -7.2340 C   0  0  0  0  0  0  0  0  0  0  0  0
  1  2  1  0
  2  3  1  1
  1  4  1  0
  1  5  1  0
  4  6  2  0
  2  7  1  0
  4  8  1  0
  7  9  1  0
  7 10  1  0
  7 11  1  0
  8 12  1  0
  8 13  1  0
 12 14  1  0
 13 15  1  0
 14 15  1  0
M  END
