x0727_0_A-x0104_0_A
     RDKit          3D

 33 35  0  0  0  0  0  0  0  0999 V2000
    0.1950   11.4590   -5.6310 N   0  0  0  0  0  0  0  0  0  0  0  0
    0.8110   12.4400   -4.7250 C   0  0  1  0  0  0  0  0  0  0  0  0
    0.3940   13.8810   -5.0570 C   0  0  0  0  0  0  0  0  0  0  0  0
    0.6790   11.0410   -6.8200 C   0  0  0  0  0  0  0  0  0  0  0  0
    1.6240   11.6620   -7.2380 O   0  0  0  0  0  0  0  0  0  0  0  0
    0.7310   12.0010   -3.2680 C   0  0  0  0  0  0  0  0  0  0  0  0
    0.1010    9.8510   -7.5800 C   0  0  0  0  0  0  0  0  0  0  0  0
    0.3010   10.9300   -2.8700 O   0  0  0  0  0  0  0  0  0  0  0  0
    1.1950   12.9110   -2.3900 O   0  0  0  0  0  0  0  0  0  0  0  0
   -0.6560   14.4780   -4.0920 C   0  0  0  0  0  0  0  0  0  0  0  0
   -1.2040   10.2480   -8.2840 C   0  0  0  0  0  0  0  0  0  0  0  0
   -0.2870    8.6800   -6.6460 C   0  0  0  0  0  0  0  0  0  0  0  0
   -2.0660   14.5190   -4.6960 C   0  0  0  0  0  0  0  0  0  0  0  0
   -2.2240    9.1770   -7.9170 C   0  0  0  0  0  0  0  0  0  0  0  0
   -1.7970    8.7340   -6.5300 C   0  0  0  0  0  0  0  0  0  0  0  0
   -3.0740   15.4610   -4.0150 C   0  0  0  0  0  0  0  0  0  0  0  0
   -3.4230   15.1600   -2.5530 C   0  0  0  0  0  0  0  0  0  0  0  0
   -4.7640   14.6850   -2.5030 O   0  0  0  0  0  0  0  0  0  0  0  0
   -5.2650   14.6960   -1.2200 C   0  0  0  0  0  0  0  0  0  0  0  0
   -4.3730   14.7590   -0.2150 N   0  0  0  0  0  0  0  0  0  0  0  0
   -6.6360   14.6380   -1.0300 C   0  0  0  0  0  0  0  0  0  0  0  0
   -4.8790   14.7620    1.0400 C   0  0  0  0  0  0  0  0  0  0  0  0
   -7.1320   14.6400    0.2720 C   0  0  0  0  0  0  0  0  0  0  0  0
   -6.2460   14.7020    1.3470 C   0  0  0  0  0  0  0  0  0  0  0  0
   -6.7840   14.7000    2.6470 N   0  0  0  0  0  0  0  0  0  0  0  0
   -7.9550   15.1050    3.2380 C   0  0  0  0  0  0  0  0  0  0  0  0
   -7.9590   15.3830    4.5720 N   0  0  0  0  0  0  0  0  0  0  0  0
   -8.9640   15.2140    2.5400 O   0  0  0  0  0  0  0  0  0  0  0  0
   -9.1090   15.2450    5.3580 C   0  0  0  0  0  0  0  0  0  0  0  0
   -9.2710   15.2110    6.7260 C   0  0  0  0  0  0  0  0  0  0  0  0
  -10.5860   15.0920    4.5280 S   0  0  0  0  0  0  0  0  0  0  0  0
  -11.4720   14.9770    5.9950 C   0  0  0  0  0  0  0  0  0  0  0  0
  -10.6490   15.0550    7.0920 C   0  0  0  0  0  0  0  0  0  0  0  0
  1  2  1  0
  2  3  1  1
  1  4  1  0
  4  5  2  0
  2  6  1  0
  4  7  1  0
  6  8  2  0
  6  9  1  0
  3 10  1  0
  7 11  1  0
  7 12  1  0
 10 13  1  0
 11 14  1  0
 12 15  1  0
 14 15  1  0
 13 16  1  0
 16 17  1  0
 17 18  1  0
 18 19  1  0
 19 20  2  0
 19 21  1  0
 20 22  1  0
 21 23  2  0
 22 24  2  0
 23 24  1  0
 24 25  1  0
 25 26  1  0
 26 27  1  0
 26 28  2  0
 27 29  1  0
 29 30  2  0
 29 31  1  0
 31 32  1  0
 30 33  1  0
 32 33  2  0
M  END
