x0727_0_A-x0685_1_A
     RDKit          3D

 15 15  0  0  0  0  0  0  0  0999 V2000
    0.1820   11.8600   -5.4520 N   0  0  0  0  0  0  0  0  0  0  0  0
    1.1020   12.6280   -4.5900 C   0  0  1  0  0  0  0  0  0  0  0  0
    1.0090   14.1180   -4.9070 C   0  0  0  0  0  0  0  0  0  0  0  0
    0.4860   11.1750   -6.6070 C   0  0  0  0  0  0  0  0  0  0  0  0
   -1.2370   12.0980   -5.2000 C   0  0  0  0  0  0  0  0  0  0  0  0
    1.5090   11.4000   -7.2530 O   0  0  0  0  0  0  0  0  0  0  0  0
    0.8850   12.3370   -3.0540 C   0  0  0  0  0  0  0  0  0  0  0  0
   -0.4730   10.0980   -7.0680 C   0  0  0  0  0  0  0  0  0  0  0  0
    0.4230   11.0240   -2.8640 O   0  0  0  0  0  0  0  0  0  0  0  0
    2.0570   12.5260   -2.3380 O   0  0  0  0  0  0  0  0  0  0  0  0
   -0.0610   13.1910   -2.4580 O   0  0  0  0  0  0  0  0  0  0  0  0
   -0.9860   10.0610   -8.4820 C   0  0  0  0  0  0  0  0  0  0  0  0
   -0.1950    8.6480   -6.7460 C   0  0  0  0  0  0  0  0  0  0  0  0
   -2.0160    8.9390   -8.3450 C   0  0  0  0  0  0  0  0  0  0  0  0
   -1.4850    8.0090   -7.2330 C   0  0  0  0  0  0  0  0  0  0  0  0
  1  2  1  0
  2  3  1  1
  1  4  1  0
  1  5  1  0
  4  6  2  0
  2  7  1  0
  4  8  1  0
  7  9  1  0
  7 10  1  0
  7 11  1  0
  8 12  1  0
  8 13  1  0
 12 14  1  0
 13 15  1  0
 14 15  1  0
M  END
