x0724_0_A-x0950_1_A
     RDKit          3D

 23 24  0  0  0  0  0  0  0  0999 V2000
   -8.7780   13.7680    4.2710 N   0  0  0  0  0  0  0  0  0  0  0  0
   -8.7030   13.7630    5.7260 C   0  0  0  0  0  0  0  0  0  0  0  0
   -8.3270   15.0510    3.7440 C   0  0  0  0  0  0  0  0  0  0  0  0
   -7.6920   14.8670    2.4120 C   0  0  0  0  0  0  0  0  0  0  0  0
   -6.3470   14.8700    2.1160 C   0  0  0  0  0  0  0  0  0  0  0  0
   -8.3000   14.6600    1.1520 C   0  0  0  0  0  0  0  0  0  0  0  0
   -7.4120   14.5500    0.1580 N   0  0  0  0  0  0  0  0  0  0  0  0
   -6.2000   14.6880    0.7640 N   0  0  0  0  0  0  0  0  0  0  0  0
   -4.9730   14.6430    0.0460 C   0  0  0  0  0  0  0  0  0  0  0  0
   -3.7770   14.7230    0.7730 C   0  0  0  0  0  0  0  0  0  0  0  0
   -4.9250   14.5220   -1.3480 C   0  0  0  0  0  0  0  0  0  0  0  0
   -2.5470   14.6740    0.1180 C   0  0  0  0  0  0  0  0  0  0  0  0
   -3.6850   14.4740   -2.0020 C   0  0  0  0  0  0  0  0  0  0  0  0
   -2.4870   14.5440   -1.2760 C   0  0  0  0  0  0  0  0  0  0  0  0
   -1.1430   14.4780   -1.9710 C   0  0  0  0  0  0  0  0  0  0  0  0
    0.0650   14.2550   -1.0420 C   0  0  0  0  0  0  0  0  0  0  0  0
    1.4040   14.1470   -1.7780 C   0  0  0  0  0  0  0  0  0  0  0  0
    1.7490   12.7890   -2.1110 O   0  0  0  0  0  0  0  0  0  0  0  0
    0.9850   12.1190   -3.0230 C   0  0  0  0  0  0  0  0  0  0  0  0
    1.3360   12.5310   -4.4700 C   0  0  2  0  0  0  0  0  0  0  0  0
    0.1420   11.2750   -2.7270 O   0  0  0  0  0  0  0  0  0  0  0  0
    1.0460   13.9990   -4.7380 C   0  0  0  0  0  0  0  0  0  0  0  0
    0.6770   11.7560   -5.4700 O   0  0  0  0  0  0  0  0  0  0  0  0
  1  2  1  0
  1  3  1  0
  3  4  1  0
  4  5  2  0
  4  6  1  0
  6  7  2  0
  5  8  1  0
  7  8  1  0
  8  9  1  0
  9 10  2  0
  9 11  1  0
 10 12  1  0
 11 13  2  0
 12 14  2  0
 13 14  1  0
 14 15  1  0
 15 16  1  0
 16 17  1  0
 17 18  1  0
 18 19  1  0
 19 20  1  0
 19 21  2  0
 20 22  1  6
 20 23  1  0
M  END
