x0727_0_A-x0689_0_A
     RDKit          3D

 22 23  0  0  0  0  0  0  0  0999 V2000
    0.3810   11.4180   -5.3070 N   0  0  0  0  0  0  0  0  0  0  0  0
    1.0520   12.4730   -4.5730 C   0  0  1  0  0  0  0  0  0  0  0  0
    0.7870   13.8570   -5.1480 C   0  0  0  0  0  0  0  0  0  0  0  0
    0.5520   11.1250   -6.6340 C   0  0  0  0  0  0  0  0  0  0  0  0
    1.4320   11.5530   -7.3440 O   0  0  0  0  0  0  0  0  0  0  0  0
    0.7130   12.4040   -3.0740 C   0  0  0  0  0  0  0  0  0  0  0  0
   -0.5350   10.1640   -7.0320 C   0  0  0  0  0  0  0  0  0  0  0  0
    0.6450   11.3570   -2.4290 O   0  0  0  0  0  0  0  0  0  0  0  0
    0.4710   13.6630   -2.5980 O   0  0  0  0  0  0  0  0  0  0  0  0
   -0.9580   10.0830   -8.4790 C   0  0  0  0  0  0  0  0  0  0  0  0
   -0.2440    8.7090   -6.7060 C   0  0  0  0  0  0  0  0  0  0  0  0
    0.8980   14.0800   -1.2900 C   0  0  0  0  0  0  0  0  0  0  0  0
   -1.9750    8.9410   -8.3980 C   0  0  0  0  0  0  0  0  0  0  0  0
   -1.4970    8.0410   -7.2430 C   0  0  0  0  0  0  0  0  0  0  0  0
   -0.2970   14.3370   -0.4270 C   0  0  0  0  0  0  0  0  0  0  0  0
   -1.5070   14.6030   -1.0020 C   0  0  0  0  0  0  0  0  0  0  0  0
   -0.3260   14.3400    0.9620 C   0  0  0  0  0  0  0  0  0  0  0  0
   -2.6250   14.8540   -0.3080 N   0  0  0  0  0  0  0  0  0  0  0  0
   -1.4190   14.5850    1.7010 N   0  0  0  0  0  0  0  0  0  0  0  0
   -2.5390   14.8410    1.0280 C   0  0  0  0  0  0  0  0  0  0  0  0
   -3.7180   15.1320    1.6770 N   0  0  0  0  0  0  0  0  0  0  0  0
   -4.8360   15.2590    0.7840 C   0  0  0  0  0  0  0  0  0  0  0  0
  1  2  1  0
  2  3  1  6
  1  4  1  0
  4  5  2  0
  2  6  1  0
  4  7  1  0
  6  8  2  0
  6  9  1  0
  7 10  1  0
  7 11  1  0
  9 12  1  0
 10 13  1  0
 11 14  1  0
 13 14  1  0
 12 15  1  0
 15 16  2  0
 15 17  1  0
 16 18  1  0
 17 19  2  0
 18 20  2  0
 19 20  1  0
 20 21  1  0
 21 22  1  0
M  END
