x0727_0_A-x0711_0_A
     RDKit          3D

 25 27  0  0  0  0  0  0  0  0999 V2000
    0.1680   11.0990   -5.5200 N   0  0  0  0  0  0  0  0  0  0  0  0
    0.7340   12.0240   -4.5760 C   0  0  1  0  0  0  0  0  0  0  0  0
   -0.1750   13.1750   -4.6040 C   0  0  0  0  0  0  0  0  0  0  0  0
    0.7000   10.9830   -6.7740 C   0  0  0  0  0  0  0  0  0  0  0  0
    1.5590   11.7210   -7.2000 O   0  0  0  0  0  0  0  0  0  0  0  0
    0.4840   11.6090   -3.0950 C   0  0  0  0  0  0  0  0  0  0  0  0
    0.1330    9.8250   -7.5830 C   0  0  0  0  0  0  0  0  0  0  0  0
    0.3680   10.4380   -2.6770 O   0  0  0  0  0  0  0  0  0  0  0  0
    0.3990   12.7370   -2.3840 N   0  0  0  0  0  0  0  0  0  0  0  0
   -0.5630   13.8330   -3.0290 S   0  0  0  0  0  0  0  0  0  0  0  0
   -1.1580   10.2360   -8.3010 C   0  0  0  0  0  0  0  0  0  0  0  0
   -0.2240    8.5900   -6.7360 C   0  0  0  0  0  0  0  0  0  0  0  0
   -1.3860   14.9460   -2.1250 N   0  0  0  0  0  0  0  0  0  0  0  0
   -1.1860   14.3860   -4.5470 C   0  0  0  0  0  0  0  0  0  0  0  0
   -2.1760    9.1470   -7.9890 C   0  0  0  0  0  0  0  0  0  0  0  0
   -1.7410    8.5960   -6.6430 C   0  0  0  0  0  0  0  0  0  0  0  0
   -2.6830   14.8760   -1.5850 C   0  0  0  0  0  0  0  0  0  0  0  0
   -3.8590   15.1330   -2.3030 C   0  0  0  0  0  0  0  0  0  0  0  0
   -2.8010   14.5360   -0.2320 C   0  0  0  0  0  0  0  0  0  0  0  0
   -5.1140   15.0540   -1.6860 C   0  0  0  0  0  0  0  0  0  0  0  0
   -4.0460   14.4550    0.3920 C   0  0  0  0  0  0  0  0  0  0  0  0
   -5.2120   14.7140   -0.3290 C   0  0  0  0  0  0  0  0  0  0  0  0
   -6.5180   14.6140    0.3830 C   0  0  0  0  0  0  0  0  0  0  0  0
   -6.5240   14.6600    1.7570 N   0  0  0  0  0  0  0  0  0  0  0  0
   -7.5770   14.5030   -0.2240 O   0  0  0  0  0  0  0  0  0  0  0  0
  2  1  1  6
  2  3  1  0
  1  4  1  0
  4  5  2  0
  2  6  1  0
  4  7  1  0
  6  8  2  0
  6  9  1  0
  3 10  2  0
  9 10  2  0
  7 11  1  0
  7 12  1  0
 10 13  1  0
 10 14  1  0
 11 15  1  0
 12 16  1  0
 15 16  1  0
 13 17  1  0
 17 18  2  0
 17 19  1  0
 18 20  1  0
 19 21  2  0
 20 22  2  0
 21 22  1  0
 22 23  1  0
 23 24  1  0
 23 25  2  0
M  END
