x0729_0_A_α-x0737_0_B_α
     RDKit          3D

 35 36  0  0  0  0  0  0  0  0999 V2000
   20.0110   25.6100    5.6270 C   0  0  0  0  0  0  0  0  0  0  0  0
   19.8230   27.0760    6.0660 C   0  0  1  0  0  0  0  0  0  0  0  0
   20.2500   27.1960    7.4970 N   0  0  0  0  0  0  0  0  0  0  0  0
   20.5050   28.1010    5.1460 C   0  0  2  0  0  0  0  0  0  0  0  0
   20.3080   27.7390    3.7330 C   0  0  0  0  0  0  0  0  0  0  0  0
   19.0940   27.0190    8.7350 S   0  0  0  0  0  0  0  0  0  0  0  0
   21.6680   27.4670    7.8390 C   0  0  0  0  0  0  0  0  0  0  0  0
   21.9870   28.3210    5.4700 C   0  0  0  0  0  0  0  0  0  0  0  0
   17.7930   26.9460    8.1140 O   0  0  0  0  0  0  0  0  0  0  0  0
   20.1460   27.4340    2.6270 N   0  0  0  0  0  0  0  0  0  0  0  0
   19.3860   28.0230    9.7360 O   0  0  0  0  0  0  0  0  0  0  0  0
   19.4450   25.3830    9.4060 C   0  0  0  0  0  0  0  0  0  0  0  0
   22.2270   28.5800    6.9590 C   0  0  0  0  0  0  0  0  0  0  0  0
   18.3900   24.3520    8.9570 C   0  0  0  0  0  0  0  0  0  0  0  0
   18.9920   22.9610    8.6610 C   0  0  0  0  0  0  0  0  0  0  0  0
   18.2800   21.8390    9.4450 C   0  0  0  0  0  0  0  0  0  0  0  0
   18.6840   20.4010    9.0340 C   0  0  0  0  0  0  0  0  0  0  0  0
   18.8770   19.3640   10.1700 C   0  0  0  0  0  0  0  0  0  0  0  0
   17.5820   18.7200   10.7180 C   0  0  0  0  0  0  0  0  0  0  0  0
   17.7820   17.5060   11.6730 C   0  0  0  0  0  0  0  0  0  0  0  0
   16.5180   16.9790   12.4150 C   0  0  0  0  0  0  0  0  0  0  0  0
   15.8820   15.7300   11.9550 N   0  0  0  0  0  0  0  0  0  0  0  0
   16.5140   14.4720   11.9920 C   0  0  0  0  0  0  0  0  0  0  0  0
   17.6740   14.3290   11.6370 O   0  0  0  0  0  0  0  0  0  0  0  0
   15.7120   13.2480   12.5120 C   0  0  1  0  0  0  0  0  0  0  0  0
   14.2810   13.5470   12.8580 C   0  0  2  0  0  0  0  0  0  0  0  0
   15.8380   11.9280   11.7380 C   0  0  0  0  0  0  0  0  0  0  0  0
   14.2840   14.4400   14.0890 C   0  0  0  0  0  0  0  0  0  0  0  0
   13.5040   12.3220   13.2100 N   0  0  0  0  0  0  0  0  0  0  0  0
   14.5220   11.3300   11.2390 C   0  0  0  0  0  0  0  0  0  0  0  0
   12.0120   12.6460   13.8530 S   0  0  0  0  0  0  0  0  0  0  0  0
   13.5770   11.1000   12.3750 C   0  0  0  0  0  0  0  0  0  0  0  0
   12.0110   14.0740   14.0750 O   0  0  0  0  0  0  0  0  0  0  0  0
   11.7140   11.6720   14.8780 O   0  0  0  0  0  0  0  0  0  0  0  0
   11.0370   12.3060   12.4310 C   0  0  0  0  0  0  0  0  0  0  0  0
  2  1  1  6
  2  3  1  0
  2  4  1  0
  4  5  1  6
  3  6  1  0
  3  7  1  0
  4  8  1  0
  6  9  2  0
  5 10  3  0
  6 11  2  0
  6 12  1  0
  7 13  1  0
  8 13  1  0
 12 14  1  0
 14 15  1  0
 15 16  1  0
 16 17  1  0
 17 18  1  0
 18 19  1  0
 19 20  1  0
 20 21  1  0
 21 22  1  0
 22 23  1  0
 23 24  2  0
 25 23  1  6
 25 26  1  0
 25 27  1  0
 26 28  1  1
 26 29  1  0
 27 30  1  0
 29 31  1  0
 29 32  1  0
 30 32  1  0
 31 33  2  0
 31 34  2  0
 31 35  1  0
M  END
