x0724_0_A-x0282_0_A
     RDKit          3D

 21 23  0  0  0  0  0  0  0  0999 V2000
   -8.8550   13.8180    4.5190 N   0  0  0  0  0  0  0  0  0  0  0  0
   -8.6800   13.6260    5.9510 C   0  0  0  0  0  0  0  0  0  0  0  0
   -8.2670   15.0780    4.0720 C   0  0  0  0  0  0  0  0  0  0  0  0
   -7.7200   14.9690    2.7000 C   0  0  0  0  0  0  0  0  0  0  0  0
   -6.3950   14.9450    2.3240 C   0  0  0  0  0  0  0  0  0  0  0  0
   -8.4210   14.8760    1.4840 C   0  0  0  0  0  0  0  0  0  0  0  0
   -7.6070   14.8090    0.4380 N   0  0  0  0  0  0  0  0  0  0  0  0
   -6.3680   14.8550    0.9770 N   0  0  0  0  0  0  0  0  0  0  0  0
   -5.2350   14.8090    0.0830 C   0  0  1  0  0  0  0  0  0  0  0  0
   -3.8840   15.2860    0.6840 C   0  0  0  0  0  0  0  0  0  0  0  0
   -5.1570   13.4320   -0.5480 C   0  0  1  0  0  0  0  0  0  0  0  0
   -6.5640   12.9960   -1.0500 C   0  0  0  0  0  0  0  0  0  0  0  0
   -2.5860   14.8370   -0.0710 C   0  0  1  0  0  0  0  0  0  0  0  0
   -4.0550   13.4020   -1.5660 C   0  0  0  0  0  0  0  0  0  0  0  0
   -7.6300   13.8770   -0.6830 O   0  0  0  0  0  0  0  0  0  0  0  0
   -2.9040   14.0360   -1.3240 C   0  0  0  0  0  0  0  0  0  0  0  0
   -1.8260   15.9190   -0.6550 N   0  0  0  0  0  0  0  0  0  0  0  0
   -1.7880   14.0080    0.8560 N   0  0  0  0  0  0  0  0  0  0  0  0
   -0.5080   15.4310   -1.0440 C   0  0  0  0  0  0  0  0  0  0  0  0
   -0.4460   14.2620    1.0660 C   0  0  0  0  0  0  0  0  0  0  0  0
    0.2260   14.9590    0.1530 C   0  0  0  0  0  0  0  0  0  0  0  0
  1  2  1  0
  1  3  1  0
  3  4  1  0
  4  5  2  0
  4  6  1  0
  6  7  2  0
  5  8  1  0
  7  8  1  0
  9  8  1  1
  9 10  1  0
  9 11  1  0
 11 12  1  6
 13 10  1  1
 11 14  1  0
 12 15  1  0
 13 16  1  0
 14 16  2  0
 13 17  1  0
 13 18  1  0
 17 19  1  0
 18 20  1  0
 19 21  1  0
 20 21  2  0
M  END
