x0724_0_A_α-x0104_0_A_α
     RDKit          3D

 20 22  0  0  0  0  0  0  0  0999 V2000
   -8.5620   14.4560    4.5990 N   0  0  0  0  0  0  0  0  0  0  0  0
   -8.1780   13.0680    4.6630 C   0  0  0  0  0  0  0  0  0  0  0  0
   -8.7100   15.0000    3.3150 C   0  0  0  0  0  0  0  0  0  0  0  0
   -9.5510   14.7930    5.5090 C   0  0  0  0  0  0  0  0  0  0  0  0
   -9.6890   15.6860    3.0570 O   0  0  0  0  0  0  0  0  0  0  0  0
   -7.7980   14.8330    2.2030 C   0  0  0  0  0  0  0  0  0  0  0  0
   -9.4300   15.1190    6.8400 C   0  0  0  0  0  0  0  0  0  0  0  0
  -11.1780   14.8250    4.9900 S   0  0  0  0  0  0  0  0  0  0  0  0
   -6.4210   14.8980    2.0850 C   0  0  0  0  0  0  0  0  0  0  0  0
   -8.2370   14.5680    0.8980 C   0  0  0  0  0  0  0  0  0  0  0  0
  -10.6950   15.3940    7.4360 C   0  0  0  0  0  0  0  0  0  0  0  0
  -11.7310   15.2680    6.5370 C   0  0  0  0  0  0  0  0  0  0  0  0
   -7.2550   14.4840    0.0190 N   0  0  0  0  0  0  0  0  0  0  0  0
   -6.1310   14.6960    0.7440 N   0  0  0  0  0  0  0  0  0  0  0  0
   -4.8780   14.7030    0.0880 C   0  0  0  0  0  0  0  0  0  0  0  0
   -3.6710   14.7900    0.7900 C   0  0  0  0  0  0  0  0  0  0  0  0
   -4.8670   14.6260   -1.3140 C   0  0  0  0  0  0  0  0  0  0  0  0
   -2.4660   14.8000    0.0850 C   0  0  0  0  0  0  0  0  0  0  0  0
   -3.6630   14.6370   -2.0100 C   0  0  0  0  0  0  0  0  0  0  0  0
   -2.4630   14.7220   -1.3110 C   0  0  0  0  0  0  0  0  0  0  0  0
  1  2  1  0
  1  3  1  0
  1  4  1  0
  3  5  2  0
  3  6  1  0
  4  7  2  0
  4  8  1  0
  6  9  2  0
  6 10  1  0
  7 11  1  0
  8 12  1  0
 11 12  2  0
 10 13  2  0
  9 14  1  0
 13 14  1  0
 14 15  1  0
 15 16  2  0
 15 17  1  0
 16 18  1  0
 17 19  2  0
 18 20  2  0
 19 20  1  0
M  END
