x0729_1_B_α-x0091_0_B_α
     RDKit          3D

 30 32  0  0  0  0  0  0  0  0999 V2000
   19.8360   24.8910    6.1320 C   0  0  0  0  0  0  0  0  0  0  0  0
   19.9070   26.4180    6.2260 C   0  0  1  0  0  0  0  0  0  0  0  0
   20.0830   26.8770    7.6160 N   0  0  0  0  0  0  0  0  0  0  0  0
   20.9810   26.8890    5.2170 C   0  0  1  0  0  0  0  0  0  0  0  0
   20.3690   27.0410    3.8820 C   0  0  0  0  0  0  0  0  0  0  0  0
   18.8280   27.4420    8.6260 S   0  0  2  0  0  0  0  0  0  0  0  0
   21.4840   27.0490    7.9720 C   0  0  0  0  0  0  0  0  0  0  0  0
   21.6320   28.1940    5.6630 C   0  0  0  0  0  0  0  0  0  0  0  0
   19.4990   28.3850    9.4960 O   0  0  0  0  0  0  0  0  0  0  0  0
   19.8950   27.1440    2.8290 N   0  0  0  0  0  0  0  0  0  0  0  0
   18.1010   26.1700    9.0980 N   0  0  0  0  0  0  0  0  0  0  0  0
   17.6780   28.3680    7.6380 C   0  0  0  0  0  0  0  0  0  0  0  0
   22.1390   28.1340    7.1120 C   0  0  0  0  0  0  0  0  0  0  0  0
   17.9360   25.8700   10.5460 C   0  0  0  0  0  0  0  0  0  0  0  0
   17.0190   24.6460   10.6750 C   0  0  0  0  0  0  0  0  0  0  0  0
   16.2870   24.2970   11.9670 C   0  0  2  0  0  0  0  0  0  0  0  0
   16.6740   22.9900   12.5860 C   0  0  0  0  0  0  0  0  0  0  0  0
   15.2980   23.1380   11.9930 C   0  0  1  0  0  0  0  0  0  0  0  0
   14.2250   22.8360   12.9040 N   0  0  0  0  0  0  0  0  0  0  0  0
   13.6750   21.5660   12.7630 C   0  0  0  0  0  0  0  0  0  0  0  0
   12.7640   21.1170   13.7120 N   0  0  0  0  0  0  0  0  0  0  0  0
   13.9950   20.8390   11.8240 O   0  0  0  0  0  0  0  0  0  0  0  0
   12.2050   22.0530   14.6680 C   0  0  0  0  0  0  0  0  0  0  0  0
   12.2060   19.7560   13.7030 C   0  0  0  0  0  0  0  0  0  0  0  0
   13.1540   18.7780   14.3370 C   0  0  0  0  0  0  0  0  0  0  0  0
   12.6810   17.7370   15.0420 N   0  0  0  0  0  0  0  0  0  0  0  0
   14.5740   18.7650   14.3190 C   0  0  0  0  0  0  0  0  0  0  0  0
   13.7870   17.0370   15.4890 O   0  0  0  0  0  0  0  0  0  0  0  0
   14.9160   17.6540   15.0550 C   0  0  0  0  0  0  0  0  0  0  0  0
   16.1940   17.0290   15.4480 C   0  0  0  0  0  0  0  0  0  0  0  0
  2  1  1  1
  2  3  1  0
  2  4  1  0
  4  5  1  6
  3  6  1  0
  3  7  1  0
  4  8  1  0
  6  9  2  0
  5 10  3  0
  6 11  2  0
  6 12  1  6
  7 13  1  0
  8 13  1  0
 11 14  1  0
 14 15  1  0
 16 15  1  6
 16 17  1  0
 16 18  1  0
 17 18  1  0
 18 19  1  1
 19 20  1  0
 20 21  1  0
 20 22  2  0
 21 23  1  0
 21 24  1  0
 24 25  1  0
 25 26  2  0
 25 27  1  0
 26 28  1  0
 27 29  2  0
 28 29  1  0
 29 30  1  0
M  END
