x0729_1_B_α-x0423_0_B_α
     RDKit          3D

 30 32  0  0  0  0  0  0  0  0999 V2000
   19.6740   24.9930    5.8870 C   0  0  0  0  0  0  0  0  0  0  0  0
   20.4320   26.2310    6.3350 C   0  0  2  0  0  0  0  0  0  0  0  0
   20.2920   26.6430    7.7510 N   0  0  0  0  0  0  0  0  0  0  0  0
   20.3830   27.4660    5.4200 C   0  0  2  0  0  0  0  0  0  0  0  0
   20.1540   27.1460    3.9990 C   0  0  0  0  0  0  0  0  0  0  0  0
   18.8650   27.2790    8.5280 S   0  0  2  0  0  0  0  0  0  0  0  0
   21.6050   27.2510    8.0490 C   0  0  0  0  0  0  0  0  0  0  0  0
   21.7390   28.1620    5.6030 C   0  0  0  0  0  0  0  0  0  0  0  0
   19.4040   28.2710    9.4360 O   0  0  0  0  0  0  0  0  0  0  0  0
   19.9800   26.9490    2.8740 N   0  0  0  0  0  0  0  0  0  0  0  0
   18.0490   26.0640    9.0060 N   0  0  0  0  0  0  0  0  0  0  0  0
   17.8480   28.1510    7.3550 C   0  0  0  0  0  0  0  0  0  0  0  0
   22.0470   28.3880    7.0930 C   0  0  0  0  0  0  0  0  0  0  0  0
   18.0770   25.7380   10.4500 C   0  0  0  0  0  0  0  0  0  0  0  0
   17.5790   24.3080   10.6970 C   0  0  0  0  0  0  0  0  0  0  0  0
   17.4150   23.9680   12.1950 C   0  0  0  0  0  0  0  0  0  0  0  0
   16.0400   24.3980   12.7480 C   0  0  1  0  0  0  0  0  0  0  0  0
   14.9290   23.4100   12.3240 C   0  0  0  0  0  0  0  0  0  0  0  0
   15.8530   24.6920   14.2430 C   0  0  0  0  0  0  0  0  0  0  0  0
   14.4020   25.1600   14.4880 C   0  0  2  0  0  0  0  0  0  0  0  0
   14.2250   22.9280   13.5250 N   0  0  0  0  0  0  0  0  0  0  0  0
   14.2670   25.8720   15.7670 N   0  0  0  0  0  0  0  0  0  0  0  0
   13.4550   23.9650   14.2250 C   0  0  0  0  0  0  0  0  0  0  0  0
   13.5440   21.7090   13.3540 C   0  0  0  0  0  0  0  0  0  0  0  0
   13.2340   26.8950   15.7180 C   0  0  0  0  0  0  0  0  0  0  0  0
   12.4660   21.4130   14.1780 C   0  0  0  0  0  0  0  0  0  0  0  0
   13.9260   20.8220   12.4130 N   0  0  0  0  0  0  0  0  0  0  0  0
   13.2680   19.6300   12.2580 N   0  0  0  0  0  0  0  0  0  0  0  0
   11.8000   20.2110   14.0290 C   0  0  0  0  0  0  0  0  0  0  0  0
   12.2280   19.3490   13.0610 C   0  0  0  0  0  0  0  0  0  0  0  0
  2  1  1  6
  2  3  1  0
  2  4  1  0
  4  5  1  6
  3  6  1  0
  3  7  1  0
  4  8  1  0
  6  9  2  0
  5 10  3  0
  6 11  2  0
  6 12  1  6
  7 13  1  0
  8 13  1  0
 11 14  1  0
 14 15  1  0
 15 16  1  0
 17 16  1  1
 17 18  1  0
 17 19  1  0
 19 20  1  0
 18 21  1  0
 20 22  1  1
 20 23  1  0
 21 23  1  0
 21 24  1  0
 22 25  1  0
 24 26  2  0
 24 27  1  0
 27 28  2  0
 26 29  1  0
 28 30  1  0
 29 30  2  0
M  END
