x0722_0_A-x0895_0_A
     RDKit          3D

 12 12  0  0  0  0  0  0  0  0999 V2000
   -4.4250   15.7680    2.2570 C   0  0  0  0  0  0  0  0  0  0  0  0
   -3.4360   15.2740    1.3180 C   0  0  0  0  0  0  0  0  0  0  0  0
   -2.2660   14.9170    1.8010 N   0  0  0  0  0  0  0  0  0  0  0  0
   -3.5260   15.1240   -0.0810 C   0  0  0  0  0  0  0  0  0  0  0  0
   -4.7030   15.4360   -0.9580 C   0  0  0  0  0  0  0  0  0  0  0  0
   -2.2680   14.6340   -0.4280 C   0  0  0  0  0  0  0  0  0  0  0  0
   -1.5680   14.5410    0.7490 N   0  0  0  0  0  0  0  0  0  0  0  0
   -0.2140   14.1060    0.9700 C   0  0  0  0  0  0  0  0  0  0  0  0
   -1.6890   14.2670   -1.7400 C   0  0  0  0  0  0  0  0  0  0  0  0
   -5.9770   14.6750   -0.6150 C   0  0  0  0  0  0  0  0  0  0  0  0
   -7.0990   15.1530   -0.7720 O   0  0  0  0  0  0  0  0  0  0  0  0
   -5.8460   13.4080   -0.1180 N   0  0  0  0  0  0  0  0  0  0  0  0
  1  2  1  0
  2  3  2  0
  2  4  1  0
  4  5  1  0
  4  6  2  0
  3  7  1  0
  6  7  1  0
  7  8  1  0
  6  9  1  0
  5 10  1  0
 10 11  2  0
 10 12  1  0
M  END
