x0727_0_A-x0689_0_A
     RDKit          3D

 22 23  0  0  0  0  0  0  0  0999 V2000
    0.1300   11.9630   -5.4190 N   0  0  0  0  0  0  0  0  0  0  0  0
    0.9770   12.5420   -4.3670 C   0  0  1  0  0  0  0  0  0  0  0  0
    0.9930   14.0620   -4.4730 C   0  0  0  0  0  0  0  0  0  0  0  0
    0.5600   11.2700   -6.5310 C   0  0  0  0  0  0  0  0  0  0  0  0
    1.6100   11.4680   -7.1110 O   0  0  0  0  0  0  0  0  0  0  0  0
    0.6200   12.0020   -2.9450 C   0  0  0  0  0  0  0  0  0  0  0  0
   -0.4820   10.2330   -6.9080 C   0  0  0  0  0  0  0  0  0  0  0  0
   -0.1300   11.0410   -2.7950 O   0  0  0  0  0  0  0  0  0  0  0  0
    1.2140   12.6210   -1.8550 O   0  0  0  0  0  0  0  0  0  0  0  0
   -0.9550   10.1810   -8.3470 C   0  0  0  0  0  0  0  0  0  0  0  0
   -0.1340    8.7750   -6.6530 C   0  0  0  0  0  0  0  0  0  0  0  0
    0.9680   14.0020   -1.4640 C   0  0  0  0  0  0  0  0  0  0  0  0
   -1.9240    8.9990   -8.2840 C   0  0  0  0  0  0  0  0  0  0  0  0
   -1.3860    8.0870   -7.1690 C   0  0  0  0  0  0  0  0  0  0  0  0
   -0.2400   14.2540   -0.5710 C   0  0  0  0  0  0  0  0  0  0  0  0
   -1.4640   14.5490   -1.1140 C   0  0  0  0  0  0  0  0  0  0  0  0
   -0.2730   14.2390    0.8270 C   0  0  0  0  0  0  0  0  0  0  0  0
   -2.5740   14.8060   -0.3930 N   0  0  0  0  0  0  0  0  0  0  0  0
   -1.3550   14.4920    1.5940 N   0  0  0  0  0  0  0  0  0  0  0  0
   -2.4760   14.7740    0.9440 C   0  0  0  0  0  0  0  0  0  0  0  0
   -3.6440   15.0720    1.6210 N   0  0  0  0  0  0  0  0  0  0  0  0
   -4.7770   15.2820    0.7650 C   0  0  0  0  0  0  0  0  0  0  0  0
  1  2  1  0
  2  3  1  1
  1  4  1  0
  4  5  2  0
  2  6  1  0
  4  7  1  0
  6  8  2  0
  6  9  1  0
  7 10  1  0
  7 11  1  0
  9 12  1  0
 10 13  1  0
 11 14  1  0
 13 14  1  0
 12 15  1  0
 15 16  2  0
 15 17  1  0
 16 18  1  0
 17 19  2  0
 18 20  2  0
 19 20  1  0
 20 21  1  0
 21 22  1  0
M  END
