x0727_0_A-x0967_0_A
     RDKit          3D

 26 28  0  0  0  0  0  0  0  0999 V2000
    0.1380   11.4460   -5.5320 N   0  0  0  0  0  0  0  0  0  0  0  0
    0.8940   12.3550   -4.6640 C   0  0  1  0  0  0  0  0  0  0  0  0
    0.4930   13.7970   -4.9320 C   0  0  0  0  0  0  0  0  0  0  0  0
    0.6960   11.1120   -6.7400 C   0  0  0  0  0  0  0  0  0  0  0  0
    1.6450   11.7200   -7.1710 O   0  0  0  0  0  0  0  0  0  0  0  0
    0.6380   11.9890   -3.1930 C   0  0  0  0  0  0  0  0  0  0  0  0
    0.1040    9.9330   -7.5010 C   0  0  0  0  0  0  0  0  0  0  0  0
    0.2350   10.8910   -2.8090 O   0  0  0  0  0  0  0  0  0  0  0  0
    0.9220   13.0450   -2.3760 O   0  0  0  0  0  0  0  0  0  0  0  0
   -1.1830   10.2990   -8.2490 C   0  0  0  0  0  0  0  0  0  0  0  0
   -0.2370    8.7290   -6.6060 C   0  0  0  0  0  0  0  0  0  0  0  0
    0.0790   13.2220   -1.2190 C   0  0  0  0  0  0  0  0  0  0  0  0
   -2.1150    9.1140   -8.0430 C   0  0  0  0  0  0  0  0  0  0  0  0
   -1.7450    8.5730   -6.6730 C   0  0  0  0  0  0  0  0  0  0  0  0
   -0.5810   14.5940   -1.1660 C   0  0  0  0  0  0  0  0  0  0  0  0
   -1.4090   14.7570    0.1190 C   0  0  0  0  0  0  0  0  0  0  0  0
   -2.9010   14.7780   -0.1250 C   0  0  0  0  0  0  0  0  0  0  0  0
   -3.4820   14.8320   -1.3950 C   0  0  0  0  0  0  0  0  0  0  0  0
   -3.7790   14.7350    0.9480 C   0  0  0  0  0  0  0  0  0  0  0  0
   -5.1590   14.7320    0.7220 C   0  0  0  0  0  0  0  0  0  0  0  0
   -4.8170   14.8310   -1.6290 N   0  0  0  0  0  0  0  0  0  0  0  0
   -5.6540   14.7760   -0.5920 C   0  0  0  0  0  0  0  0  0  0  0  0
   -6.0640   14.6790    1.7840 C   0  0  0  0  0  0  0  0  0  0  0  0
   -6.9720   14.7600   -0.8250 N   0  0  0  0  0  0  0  0  0  0  0  0
   -7.4260   14.6590    1.5370 C   0  0  0  0  0  0  0  0  0  0  0  0
   -7.8260   14.7010    0.2210 C   0  0  0  0  0  0  0  0  0  0  0  0
  1  2  1  0
  2  3  1  1
  1  4  1  0
  4  5  2  0
  2  6  1  0
  4  7  1  0
  6  8  2  0
  6  9  1  0
  7 10  1  0
  7 11  1  0
  9 12  1  0
 10 13  1  0
 11 14  1  0
 13 14  1  0
 12 15  1  0
 15 16  1  0
 16 17  1  0
 17 18  2  0
 17 19  1  0
 19 20  2  0
 18 21  1  0
 20 22  1  0
 21 22  2  0
 20 23  1  0
 22 24  1  0
 23 25  2  0
 24 26  2  0
 25 26  1  0
M  END
