x0727_0_A_α-x0471_0_A_α
     RDKit          3D

 32 34  0  0  0  0  0  0  0  0999 V2000
    0.1320   11.4590   -5.4840 N   0  0  0  0  0  0  0  0  0  0  0  0
    0.8630   12.3730   -4.6020 C   0  0  1  0  0  0  0  0  0  0  0  0
    0.4760   13.8080   -4.9300 C   0  0  0  0  0  0  0  0  0  0  0  0
    0.6960   11.1380   -6.6980 C   0  0  0  0  0  0  0  0  0  0  0  0
    1.6450   11.7530   -7.1300 O   0  0  0  0  0  0  0  0  0  0  0  0
    0.5740   12.0410   -3.1240 C   0  0  0  0  0  0  0  0  0  0  0  0
    0.1070    9.9640   -7.4690 C   0  0  0  0  0  0  0  0  0  0  0  0
    0.1780   10.9470   -2.7230 O   0  0  0  0  0  0  0  0  0  0  0  0
    0.8250   13.1270   -2.3220 O   0  0  0  0  0  0  0  0  0  0  0  0
   -1.1770   10.3210   -8.2240 C   0  0  0  0  0  0  0  0  0  0  0  0
   -0.2360    8.7580   -6.5750 C   0  0  0  0  0  0  0  0  0  0  0  0
   -0.0760   13.3470   -1.2080 C   0  0  0  0  0  0  0  0  0  0  0  0
   -2.1020    9.1270   -8.0380 C   0  0  0  0  0  0  0  0  0  0  0  0
   -1.7410    8.5860   -6.6660 C   0  0  0  0  0  0  0  0  0  0  0  0
   -0.6480   14.7770   -1.2370 C   0  0  0  0  0  0  0  0  0  0  0  0
   -1.4630   15.1810    0.0180 C   0  0  0  0  0  0  0  0  0  0  0  0
   -2.9750   15.1480   -0.1730 C   0  0  0  0  0  0  0  0  0  0  0  0
   -3.5460   15.4470   -1.4230 C   0  0  0  0  0  0  0  0  0  0  0  0
   -3.8320   14.8080    0.9000 C   0  0  0  0  0  0  0  0  0  0  0  0
   -5.2260   14.7670    0.6890 C   0  0  0  0  0  0  0  0  0  0  0  0
   -4.9320   15.4110   -1.6440 C   0  0  0  0  0  0  0  0  0  0  0  0
   -6.2490   14.4640    1.5580 N   0  0  0  0  0  0  0  0  0  0  0  0
   -5.7400   15.0630   -0.5650 C   0  0  0  0  0  0  0  0  0  0  0  0
   -7.1040   14.9230   -0.4260 N   0  0  0  0  0  0  0  0  0  0  0  0
   -7.3710   14.5580    0.8730 C   0  0  0  0  0  0  0  0  0  0  0  0
   -8.7530   14.3160    1.3910 C   0  0  0  0  0  0  0  0  0  0  0  0
   -8.6960   14.1670    2.8330 N   0  0  0  0  0  0  0  0  0  0  0  0
   -9.1470   15.1780    3.6570 C   0  0  0  0  0  0  0  0  0  0  0  0
   -9.4740   16.2720    3.2180 O   0  0  0  0  0  0  0  0  0  0  0  0
   -9.2480   14.8320    5.1470 C   0  0  0  0  0  0  0  0  0  0  0  0
   -9.5820   13.3630    5.3840 C   0  0  0  0  0  0  0  0  0  0  0  0
   -7.9890   15.2650    5.8910 C   0  0  0  0  0  0  0  0  0  0  0  0
  1  2  1  0
  2  3  1  6
  1  4  1  0
  4  5  2  0
  2  6  1  0
  4  7  1  0
  6  8  2  0
  6  9  1  0
  7 10  1  0
  7 11  1  0
  9 12  1  0
 10 13  1  0
 11 14  1  0
 13 14  1  0
 12 15  1  0
 15 16  1  0
 16 17  1  0
 17 18  2  0
 17 19  1  0
 19 20  2  0
 18 21  1  0
 20 22  1  0
 20 23  1  0
 21 23  2  0
 23 24  1  0
 22 25  2  0
 24 25  1  0
 25 26  1  0
 26 27  1  0
 27 28  1  0
 28 29  2  0
 28 30  1  0
 30 31  1  0
 30 32  1  0
M  END
