x0729_0_A-x0259_0_A
     RDKit          3D

 27 29  0  0  0  0  0  0  0  0999 V2000
   19.8250   25.1830    5.7280 C   0  0  0  0  0  0  0  0  0  0  0  0
   20.8290   26.0740    6.4640 C   0  0  2  0  0  0  0  0  0  0  0  0
   20.3060   26.8360    7.6120 N   0  0  0  0  0  0  0  0  0  0  0  0
   21.5450   27.0620    5.5400 C   0  0  2  0  0  0  0  0  0  0  0  0
   21.7820   26.5060    4.1910 C   0  0  0  0  0  0  0  0  0  0  0  0
   18.7340   26.6630    8.2420 S   0  0  2  0  0  0  0  0  0  0  0  0
   21.4150   27.4200    8.4020 C   0  0  0  0  0  0  0  0  0  0  0  0
   22.8430   27.5080    6.2270 C   0  0  0  0  0  0  0  0  0  0  0  0
   18.3390   28.2320    7.5430 C   0  0  0  0  0  0  0  0  0  0  0  0
   21.9550   26.0920    3.1210 N   0  0  0  0  0  0  0  0  0  0  0  0
   19.9740   25.6130    8.4220 O   0  0  0  0  0  0  0  0  0  0  0  0
   17.7660   25.5300    9.1270 C   0  0  0  0  0  0  0  0  0  0  0  0
   22.5660   28.1080    7.6160 C   0  0  0  0  0  0  0  0  0  0  0  0
   19.4530   28.8420    6.9050 N   0  0  0  0  0  0  0  0  0  0  0  0
   17.0070   29.0000    7.5590 C   0  0  1  0  0  0  0  0  0  0  0  0
   20.0870   29.9990    7.5490 C   0  0  0  0  0  0  0  0  0  0  0  0
   19.7550   28.6690    5.4830 C   0  0  0  0  0  0  0  0  0  0  0  0
   17.0140   30.2230    8.4620 C   0  0  0  0  0  0  0  0  0  0  0  0
   16.5850   29.5920    6.2200 C   0  0  0  0  0  0  0  0  0  0  0  0
   18.9170   27.8830    4.7770 N   0  0  0  0  0  0  0  0  0  0  0  0
   20.8570   29.2710    4.8600 C   0  0  0  0  0  0  0  0  0  0  0  0
   16.1050   30.9300    6.4640 O   0  0  0  0  0  0  0  0  0  0  0  0
   15.8920   31.0300    7.8660 C   0  0  0  0  0  0  0  0  0  0  0  0
   22.0220   30.2980    5.6090 Cl  0  0  0  0  0  0  0  0  0  0  0  0
   19.1720   27.6940    3.4730 C   0  0  0  0  0  0  0  0  0  0  0  0
   21.0160   29.0020    3.5120 C   0  0  0  0  0  0  0  0  0  0  0  0
   20.1920   28.2170    2.7900 N   0  0  0  0  0  0  0  0  0  0  0  0
  2  1  1  6
  2  3  1  0
  2  4  1  0
  4  5  1  6
  3  6  1  0
  3  7  1  0
  4  8  1  0
  6  9  2  0
  5 10  3  0
  6 11  2  0
  6 12  1  6
  7 13  1  0
  8 13  1  0
  9 14  1  0
 15  9  1  6
 14 16  1  0
 14 17  1  0
 15 18  1  0
 15 19  1  0
 17 20  2  0
 17 21  1  0
 19 22  1  0
 18 23  1  0
 22 23  1  0
 21 24  1  0
 20 25  1  0
 21 26  2  0
 25 27  2  0
 26 27  1  0
M  END
