x0727_0_A-x0969_0_A
     RDKit          3D

 26 28  0  0  0  0  0  0  0  0999 V2000
    0.1330   11.7820   -5.4850 N   0  0  0  0  0  0  0  0  0  0  0  0
    1.0810   12.5010   -4.6500 C   0  0  1  0  0  0  0  0  0  0  0  0
    0.8830   13.9890   -4.8740 C   0  0  0  0  0  0  0  0  0  0  0  0
    0.4920   11.1670   -6.6590 C   0  0  0  0  0  0  0  0  0  0  0  0
    1.5070   11.4030   -7.2880 O   0  0  0  0  0  0  0  0  0  0  0  0
    0.8050   12.0870   -3.1860 C   0  0  0  0  0  0  0  0  0  0  0  0
   -0.5650   10.1530   -7.0220 C   0  0  0  0  0  0  0  0  0  0  0  0
    0.2060   11.0610   -2.8670 O   0  0  0  0  0  0  0  0  0  0  0  0
    1.3150   12.9850   -2.2880 O   0  0  0  0  0  0  0  0  0  0  0  0
   -1.0100   10.0890   -8.4660 C   0  0  0  0  0  0  0  0  0  0  0  0
   -0.2500    8.7000   -6.7150 C   0  0  0  0  0  0  0  0  0  0  0  0
    0.6970   14.2880   -2.1270 C   0  0  0  0  0  0  0  0  0  0  0  0
   -1.9460    8.8780   -8.4320 C   0  0  0  0  0  0  0  0  0  0  0  0
   -1.5150    8.0330   -7.2210 C   0  0  0  0  0  0  0  0  0  0  0  0
   -0.5910   14.1920   -1.3050 C   0  0  0  0  0  0  0  0  0  0  0  0
   -1.8880   14.5170   -2.0840 C   0  0  0  0  0  0  0  0  0  0  0  0
   -3.1200   14.6600   -1.1990 C   0  0  0  0  0  0  0  0  0  0  0  0
   -4.3830   14.6040   -1.7060 C   0  0  0  0  0  0  0  0  0  0  0  0
   -2.9150   14.8370    0.2380 C   0  0  0  0  0  0  0  0  0  0  0  0
   -5.5090   14.6600   -0.8270 C   0  0  0  0  0  0  0  0  0  0  0  0
   -3.9740   14.8980    1.0580 C   0  0  0  0  0  0  0  0  0  0  0  0
   -6.8070   14.5910   -1.0310 N   0  0  0  0  0  0  0  0  0  0  0  0
   -5.2590   14.7890    0.5260 N   0  0  0  0  0  0  0  0  0  0  0  0
   -6.5070   14.7780    1.1260 C   0  0  0  0  0  0  0  0  0  0  0  0
   -7.4320   14.6620    0.1960 N   0  0  0  0  0  0  0  0  0  0  0  0
   -6.7010   14.8790    2.4590 N   0  0  0  0  0  0  0  0  0  0  0  0
  1  2  1  0
  2  3  1  1
  1  4  1  0
  4  5  2  0
  2  6  1  0
  4  7  1  0
  6  8  2  0
  6  9  1  0
  7 10  1  0
  7 11  1  0
  9 12  1  0
 10 13  1  0
 11 14  1  0
 13 14  1  0
 12 15  1  0
 15 16  1  0
 16 17  1  0
 17 18  2  0
 17 19  1  0
 18 20  1  0
 19 21  2  0
 20 22  2  0
 20 23  1  0
 21 23  1  0
 23 24  1  0
 22 25  1  0
 24 25  2  0
 24 26  1  0
M  END
