x0724_0_A_α-x0574_0_A_α
     RDKit          3D

 20 23  0  0  0  0  0  0  0  0999 V2000
   -7.4590   15.0460    3.6020 N   0  0  0  0  0  0  0  0  0  0  0  0
   -8.1130   14.1010    4.5240 C   0  0  0  0  0  0  0  0  0  0  0  0
   -6.8810   14.4330    2.3660 C   0  0  2  0  0  0  0  0  0  0  0  0
   -5.5670   14.9800    1.9270 O   0  0  0  0  0  0  0  0  0  0  0  0
   -7.8410   14.2420    1.1610 C   0  0  2  0  0  0  0  0  0  0  0  0
   -7.2130   13.8590   -0.1590 N   0  0  0  0  0  0  0  0  0  0  0  0
   -8.7700   15.3510    0.7730 C   0  0  0  0  0  0  0  0  0  0  0  0
   -5.1240   15.1390    0.5030 C   0  0  1  0  0  0  0  0  0  0  0  0
   -8.3280   14.1060   -1.0290 N   0  0  0  0  0  0  0  0  0  0  0  0
   -3.5750   14.9920    0.1390 C   0  0  2  0  0  0  0  0  0  0  0  0
   -6.1390   14.7830   -0.6020 C   0  0  1  0  0  0  0  0  0  0  0  0
   -9.0050   15.1930   -0.5300 C   0  0  0  0  0  0  0  0  0  0  0  0
   -3.2590   15.1940   -1.3130 C   0  0  0  0  0  0  0  0  0  0  0  0
   -5.4810   14.3380   -1.9260 C   0  0  0  0  0  0  0  0  0  0  0  0
   -2.7260   13.4180    0.3180 S   0  0  0  0  0  0  0  0  0  0  0  0
   -2.7670   15.7200    1.1830 C   0  0  0  0  0  0  0  0  0  0  0  0
   -4.1370   14.8950   -2.2510 C   0  0  0  0  0  0  0  0  0  0  0  0
   -1.3210   15.4430    1.1080 N   0  0  0  0  0  0  0  0  0  0  0  0
   -1.2050   14.0410    1.0730 C   0  0  2  0  0  0  0  0  0  0  0  0
   -0.0430   13.7940    0.2750 N   0  0  0  0  0  0  0  0  0  0  0  0
  1  2  1  0
  3  1  1  1
  3  4  1  0
  3  5  1  0
  5  6  1  0
  5  7  1  6
  8  4  1  1
  6  9  1  0
  8 10  1  0
  6 11  1  0
  8 11  1  0
  7 12  2  0
  9 12  1  0
 10 13  1  6
 11 14  1  6
 10 15  1  0
 10 16  1  0
 13 17  2  0
 14 17  1  0
 16 18  1  0
 15 19  1  0
 18 19  1  0
 19 20  1  6
M  END
