x0727_0_A-x0159_0_B
     RDKit          3D

 32 35  0  0  0  0  0  0  0  0999 V2000
    0.0720   11.4000   -5.7090 N   0  0  0  0  0  0  0  0  0  0  0  0
    0.8610   12.3150   -4.8710 C   0  0  1  0  0  0  0  0  0  0  0  0
    0.4250   13.7530   -5.0900 C   0  0  0  0  0  0  0  0  0  0  0  0
    0.6290   10.9250   -6.8770 C   0  0  0  0  0  0  0  0  0  0  0  0
    1.3910   11.5910   -7.5140 O   0  0  0  0  0  0  0  0  0  0  0  0
    0.6820   11.9010   -3.4050 C   0  0  0  0  0  0  0  0  0  0  0  0
    0.2550    9.4940   -7.2560 C   0  0  2  0  0  0  0  0  0  0  0  0
    0.0790   10.9100   -3.0160 O   0  0  0  0  0  0  0  0  0  0  0  0
    1.2590   12.7460   -2.5310 O   0  0  0  0  0  0  0  0  0  0  0  0
   -0.5210    9.2900   -8.5470 C   0  0  2  0  0  0  0  0  0  0  0  0
   -0.6000    8.7520   -6.2410 C   0  0  0  0  0  0  0  0  0  0  0  0
    0.1600    9.9760   -9.7570 C   0  0  0  0  0  0  0  0  0  0  0  0
   -1.8910    9.7550   -8.0580 C   0  0  0  0  0  0  0  0  0  0  0  0
   -2.0310    8.9770   -6.7390 C   0  0  0  0  0  0  0  0  0  0  0  0
    1.3190    9.1600  -10.1820 N   0  0  0  0  0  0  0  0  0  0  0  0
    1.7720    8.0810   -9.2950 C   0  0  0  0  0  0  0  0  0  0  0  0
    2.1130    9.4420  -11.2400 C   0  0  0  0  0  0  0  0  0  0  0  0
    0.9260    6.8180   -9.4780 C   0  0  0  0  0  0  0  0  0  0  0  0
    1.9630   10.5830  -11.9740 N   0  0  0  0  0  0  0  0  0  0  0  0
    3.1070    8.7150  -11.7170 N   0  0  0  0  0  0  0  0  0  0  0  0
    3.6100    9.4180  -12.7830 C   0  0  0  0  0  0  0  0  0  0  0  0
    2.9040   10.6000  -12.9660 C   0  0  0  0  0  0  0  0  0  0  0  0
    1.3650    5.6770   -8.6120 C   0  0  0  0  0  0  0  0  0  0  0  0
    2.3080    4.7690   -9.0970 C   0  0  0  0  0  0  0  0  0  0  0  0
    0.8430    5.5100   -7.3280 C   0  0  0  0  0  0  0  0  0  0  0  0
    3.1830   11.5230  -13.9670 C   0  0  0  0  0  0  0  0  0  0  0  0
    4.6700    9.1200  -13.6500 C   0  0  0  0  0  0  0  0  0  0  0  0
    2.7280    3.7090   -8.3170 C   0  0  0  0  0  0  0  0  0  0  0  0
    1.2670    4.4480   -6.5520 C   0  0  0  0  0  0  0  0  0  0  0  0
    4.2420   11.2130  -14.8230 C   0  0  0  0  0  0  0  0  0  0  0  0
    4.9760   10.0310  -14.6690 C   0  0  0  0  0  0  0  0  0  0  0  0
    2.2130    3.5470   -7.0470 C   0  0  0  0  0  0  0  0  0  0  0  0
  1  2  1  0
  2  3  1  1
  1  4  1  0
  4  5  2  0
  2  6  1  0
  7  4  1  1
  6  8  2  0
  6  9  1  0
  7 10  1  0
  7 11  1  0
 10 12  1  6
 10 13  1  0
 11 14  1  0
 13 14  1  0
 12 15  1  0
 15 16  1  0
 15 17  1  0
 16 18  1  0
 17 19  1  0
 17 20  2  0
 20 21  1  0
 19 22  1  0
 21 22  2  0
 18 23  1  0
 23 24  2  0
 23 25  1  0
 22 26  1  0
 21 27  1  0
 24 28  1  0
 25 29  2  0
 26 30  2  0
 27 31  2  0
 30 31  1  0
 28 32  2  0
 29 32  1  0
M  END
