x0727_0_A_α-x0962_3_A_α
     RDKit          3D

 13 13  0  0  0  0  0  0  0  0999 V2000
    0.1530   11.9210   -5.6060 N   0  0  0  0  0  0  0  0  0  0  0  0
    1.1160   12.5470   -4.7260 C   0  0  1  0  0  0  0  0  0  0  0  0
    0.9640   14.0570   -4.7810 C   0  0  0  0  0  0  0  0  0  0  0  0
    0.4990   11.1770   -6.6930 C   0  0  0  0  0  0  0  0  0  0  0  0
    1.5360   11.3220   -7.3100 O   0  0  0  0  0  0  0  0  0  0  0  0
    0.8510   12.0120   -3.3180 C   0  0  0  0  0  0  0  0  0  0  0  0
   -0.5550   10.1470   -7.0210 C   0  0  0  0  0  0  0  0  0  0  0  0
    0.2580   10.9750   -3.0350 O   0  0  0  0  0  0  0  0  0  0  0  0
    1.3350   12.7970   -2.3440 O   0  0  0  0  0  0  0  0  0  0  0  0
   -1.0400   10.0810   -8.4530 C   0  0  0  0  0  0  0  0  0  0  0  0
   -0.2170    8.6990   -6.7180 C   0  0  0  0  0  0  0  0  0  0  0  0
   -1.9870    8.8780   -8.3760 C   0  0  0  0  0  0  0  0  0  0  0  0
   -1.4760    8.0150   -7.2130 C   0  0  0  0  0  0  0  0  0  0  0  0
  1  2  1  0
  2  3  1  1
  1  4  1  0
  4  5  2  0
  2  6  1  0
  4  7  1  0
  6  8  2  0
  6  9  1  0
  7 10  1  0
  7 11  1  0
 10 12  1  0
 11 13  1  0
 12 13  1  0
M  END
