x0724_0_A_α-x0933_0_A_α
     RDKit          3D

 15 16  0  0  0  0  0  0  0  0999 V2000
   -8.1540   13.8080    4.4200 N   0  0  0  0  0  0  0  0  0  0  0  0
   -8.5020   14.0310    5.8140 C   0  0  0  0  0  0  0  0  0  0  0  0
   -8.6140   14.9030    3.5780 C   0  0  0  0  0  0  0  0  0  0  0  0
   -7.9420   14.7740    2.2630 C   0  0  0  0  0  0  0  0  0  0  0  0
   -6.6030   14.8370    2.0050 C   0  0  0  0  0  0  0  0  0  0  0  0
   -8.5070   14.5610    0.9880 C   0  0  0  0  0  0  0  0  0  0  0  0
   -7.5940   14.4990    0.0120 N   0  0  0  0  0  0  0  0  0  0  0  0
   -6.4080   14.6750    0.6520 N   0  0  0  0  0  0  0  0  0  0  0  0
   -5.1630   14.6910   -0.0160 C   0  0  0  0  0  0  0  0  0  0  0  0
   -3.9950   14.9200    0.7060 C   0  0  0  0  0  0  0  0  0  0  0  0
   -5.1130   14.4810   -1.4100 C   0  0  0  0  0  0  0  0  0  0  0  0
   -3.9830   15.1440    2.0840 N   0  0  0  0  0  0  0  0  0  0  0  0
   -2.7740   14.9290    0.0070 C   0  0  0  0  0  0  0  0  0  0  0  0
   -3.8940   14.4960   -2.0870 C   0  0  0  0  0  0  0  0  0  0  0  0
   -2.7210   14.7190   -1.3760 C   0  0  0  0  0  0  0  0  0  0  0  0
  1  2  1  0
  1  3  1  0
  3  4  1  0
  4  5  2  0
  4  6  1  0
  6  7  2  0
  5  8  1  0
  7  8  1  0
  8  9  1  0
  9 10  2  0
  9 11  1  0
 10 12  1  0
 10 13  1  0
 11 14  2  0
 13 15  2  0
 14 15  1  0
M  END
