x0722_0_A-x0471_0_A
     RDKit          3D

 27 29  0  0  0  0  0  0  0  0999 V2000
   -4.4830   15.4170    2.6350 C   0  0  0  0  0  0  0  0  0  0  0  0
   -3.4290   14.9910    1.6920 C   0  0  0  0  0  0  0  0  0  0  0  0
   -2.2500   14.7060    2.1180 N   0  0  0  0  0  0  0  0  0  0  0  0
   -3.4330   14.8270    0.3290 C   0  0  0  0  0  0  0  0  0  0  0  0
   -2.1720   14.4320   -0.0580 C   0  0  0  0  0  0  0  0  0  0  0  0
   -1.4980   14.3820    1.0880 N   0  0  0  0  0  0  0  0  0  0  0  0
   -4.4180   15.0020   -0.5740 C   0  0  0  0  0  0  0  0  0  0  0  0
   -0.1300   14.0400    1.3060 C   0  0  0  0  0  0  0  0  0  0  0  0
   -1.5580   14.1090   -1.3760 C   0  0  0  0  0  0  0  0  0  0  0  0
   -5.7960   14.9220   -0.3330 C   0  0  0  0  0  0  0  0  0  0  0  0
   -3.8980   15.2700   -1.7830 C   0  0  0  0  0  0  0  0  0  0  0  0
   -6.6600   14.6600    0.6890 N   0  0  0  0  0  0  0  0  0  0  0  0
   -6.6400   15.1320   -1.3220 C   0  0  0  0  0  0  0  0  0  0  0  0
   -4.7230   15.4560   -2.7740 C   0  0  0  0  0  0  0  0  0  0  0  0
   -7.9370   14.7440    0.3080 C   0  0  0  0  0  0  0  0  0  0  0  0
   -7.9610   15.0420   -0.9460 N   0  0  0  0  0  0  0  0  0  0  0  0
   -6.0950   15.3930   -2.5460 C   0  0  0  0  0  0  0  0  0  0  0  0
   -6.3900   14.3330    1.8800 N   0  0  0  0  0  0  0  0  0  0  0  0
   -9.0920   14.5010    1.2480 C   0  0  0  0  0  0  0  0  0  0  0  0
   -5.9470   13.1750    1.6440 C   0  0  0  0  0  0  0  0  0  0  0  0
   -8.6500   14.3660    2.6390 N   0  0  0  0  0  0  0  0  0  0  0  0
   -5.8560   12.6570    0.3890 N   0  0  0  0  0  0  0  0  0  0  0  0
   -9.0610   15.2680    3.6010 C   0  0  0  0  0  0  0  0  0  0  0  0
   -9.2920   16.4350    3.3240 O   0  0  0  0  0  0  0  0  0  0  0  0
   -9.2380   14.7870    5.0480 C   0  0  0  0  0  0  0  0  0  0  0  0
   -9.5510   13.3010    5.1640 C   0  0  0  0  0  0  0  0  0  0  0  0
   -8.0650   15.2140    5.9250 C   0  0  0  0  0  0  0  0  0  0  0  0
  1  2  1  0
  2  3  2  0
  2  4  1  0
  4  5  2  0
  3  6  1  0
  5  6  1  0
  4  7  1  0
  6  8  1  0
  5  9  1  0
  7 10  1  0
  7 11  2  0
 10 12  1  0
 10 13  2  0
 11 14  1  0
 12 15  1  0
 13 16  1  0
 15 16  2  0
 13 17  1  0
 14 17  2  0
 12 18  1  0
 15 19  1  0
 18 20  2  3
 19 21  1  0
 20 22  1  0
 21 23  1  0
 23 24  2  0
 23 25  1  0
 25 26  1  0
 25 27  1  0
M  END
