x0729_2_B_α-x0587_0_A_α
     RDKit          3D

 32 33  0  0  0  0  0  0  0  0999 V2000
  -13.8190   24.0320    1.8960 C   0  0  0  0  0  0  0  0  0  0  0  0
  -15.1410   24.4930    1.3710 C   0  0  2  0  0  0  0  0  0  0  0  0
  -16.1000   24.8430    2.4300 N   0  0  0  0  0  0  0  0  0  0  0  0
  -15.8310   23.4380    0.5220 C   0  0  2  0  0  0  0  0  0  0  0  0
  -14.8400   22.5870   -0.2000 C   0  0  0  0  0  0  0  0  0  0  0  0
  -15.8130   24.5730    4.0730 S   0  0  0  0  0  0  0  0  0  0  0  0
  -17.2150   25.6430    1.9330 C   0  0  0  0  0  0  0  0  0  0  0  0
  -16.7730   24.2680   -0.3490 C   0  0  0  0  0  0  0  0  0  0  0  0
  -16.2970   25.7230    4.8060 O   0  0  0  0  0  0  0  0  0  0  0  0
  -13.9570   21.8860   -0.6590 C   0  0  0  0  0  0  0  0  0  0  0  0
  -14.4570   24.1090    4.1940 O   0  0  0  0  0  0  0  0  0  0  0  0
  -16.8590   23.2010    4.5090 C   0  0  0  0  0  0  0  0  0  0  0  0
  -17.5490   25.3640    0.4450 C   0  0  0  0  0  0  0  0  0  0  0  0
  -12.7920   21.0870   -1.1310 C   0  0  0  0  0  0  0  0  0  0  0  0
  -12.8540   19.5920   -0.7560 C   0  0  0  0  0  0  0  0  0  0  0  0
  -11.5180   18.9350   -0.3070 C   0  0  0  0  0  0  0  0  0  0  0  0
  -11.5300   17.4480    0.1020 C   0  0  0  0  0  0  0  0  0  0  0  0
  -10.3510   16.9610    0.9680 C   0  0  0  0  0  0  0  0  0  0  0  0
  -10.3120   15.4600    1.2850 C   0  0  0  0  0  0  0  0  0  0  0  0
   -9.6110   15.2360    2.5690 N   0  0  0  0  0  0  0  0  0  0  0  0
   -8.3460   14.9530    2.7150 C   0  0  0  0  0  0  0  0  0  0  0  0
   -7.8830   14.7990    3.9960 N   0  0  0  0  0  0  0  0  0  0  0  0
   -7.3530   14.8070    1.6410 C   0  0  0  0  0  0  0  0  0  0  0  0
   -7.6990   14.6310    0.3260 C   0  0  0  0  0  0  0  0  0  0  0  0
   -6.0030   14.8590    1.9060 C   0  0  0  0  0  0  0  0  0  0  0  0
   -6.7930   14.5260   -0.6670 N   0  0  0  0  0  0  0  0  0  0  0  0
   -5.0500   14.7590    0.9500 N   0  0  0  0  0  0  0  0  0  0  0  0
   -5.4810   14.6000   -0.3250 C   0  0  0  0  0  0  0  0  0  0  0  0
   -4.4430   14.5070   -1.4430 C   0  0  0  0  0  0  0  0  0  0  0  0
   -3.1920   14.8930   -1.0620 F   0  0  0  0  0  0  0  0  0  0  0  0
   -4.3140   13.2440   -1.9390 F   0  0  0  0  0  0  0  0  0  0  0  0
   -4.7440   15.2880   -2.5220 F   0  0  0  0  0  0  0  0  0  0  0  0
  2  1  1  1
  2  3  1  0
  2  4  1  0
  4  5  1  6
  3  6  1  0
  3  7  1  0
  4  8  1  0
  6  9  2  0
  5 10  3  0
  6 11  2  0
  6 12  1  0
  7 13  1  0
  8 13  1  0
 10 14  1  0
 14 15  1  0
 15 16  1  0
 16 17  1  0
 17 18  1  0
 18 19  1  0
 19 20  1  0
 20 21  2  3
 21 22  1  0
 21 23  1  0
 23 24  2  0
 23 25  1  0
 24 26  1  0
 25 27  2  0
 26 28  2  0
 27 28  1  0
 28 29  1  0
 29 30  1  0
 29 31  1  0
 29 32  1  0
M  END
