x0727_0_A_α-5DUS_0_A_γ
     RDKit          3D

 20 21  0  0  0  0  0  0  0  0999 V2000
    0.0990   11.4300   -5.6240 N   0  0  0  0  0  0  0  0  0  0  0  0
    0.9490   12.2470   -4.7560 C   0  0  1  0  0  0  0  0  0  0  0  0
    0.9850   13.7020   -5.2240 C   0  0  0  0  0  0  0  0  0  0  0  0
    0.6720   11.0760   -6.8220 C   0  0  0  0  0  0  0  0  0  0  0  0
    1.6320   11.6700   -7.2350 O   0  0  0  0  0  0  0  0  0  0  0  0
    0.6560   11.9510   -3.2790 C   0  0  0  0  0  0  0  0  0  0  0  0
    0.0440    9.8950   -7.5460 C   0  0  0  0  0  0  0  0  0  0  0  0
   -0.0970   11.0860   -2.8510 O   0  0  0  0  0  0  0  0  0  0  0  0
    1.3460   12.7340   -2.4230 O   0  0  0  0  0  0  0  0  0  0  0  0
   -1.2830   10.2570   -8.2160 C   0  0  0  0  0  0  0  0  0  0  0  0
   -0.2640    8.7350   -6.5820 C   0  0  0  0  0  0  0  0  0  0  0  0
   -0.0890   14.7470   -4.8730 C   0  0  2  0  0  0  0  0  0  0  0  0
   -2.1580    9.0300   -8.0390 C   0  0  0  0  0  0  0  0  0  0  0  0
   -1.7610    8.4950   -6.6700 C   0  0  0  0  0  0  0  0  0  0  0  0
    0.6410   15.8410   -4.0870 C   0  0  1  0  0  0  0  0  0  0  0  0
   -1.2530   14.3590   -3.9680 C   0  0  1  0  0  0  0  0  0  0  0  0
   -1.6320   12.9970   -4.1530 O   0  0  0  0  0  0  0  0  0  0  0  0
    0.3940   17.2440   -4.6290 C   0  0  0  0  0  0  0  0  0  0  0  0
   -0.6960   14.6290   -2.5870 C   0  0  0  0  0  0  0  0  0  0  0  0
    0.2030   15.7460   -2.7240 O   0  0  0  0  0  0  0  0  0  0  0  0
  1  2  1  0
  2  3  1  1
  1  4  1  0
  4  5  2  0
  2  6  1  0
  4  7  1  0
  6  8  2  0
  6  9  1  0
  7 10  1  0
  7 11  1  0
 12  3  1  1
 10 13  1  0
 11 14  1  0
 13 14  1  0
 12 15  1  0
 12 16  1  0
 16 17  1  1
 15 18  1  6
 16 19  1  0
 15 20  1  0
 19 20  1  0
M  END
