x0727_0_A_α-x0910_1_A_α
     RDKit          3D

 24 25  0  0  0  0  0  0  0  0999 V2000
    0.1570   11.8360   -5.4700 N   0  0  0  0  0  0  0  0  0  0  0  0
    1.0880   12.5210   -4.5950 C   0  0  1  0  0  0  0  0  0  0  0  0
    0.9270   14.0270   -4.7590 C   0  0  0  0  0  0  0  0  0  0  0  0
    0.5110   11.2020   -6.6290 C   0  0  0  0  0  0  0  0  0  0  0  0
    1.5300   11.4250   -7.2530 O   0  0  0  0  0  0  0  0  0  0  0  0
    0.7710   12.0680   -3.1560 C   0  0  0  0  0  0  0  0  0  0  0  0
   -0.5490   10.1840   -6.9910 C   0  0  0  0  0  0  0  0  0  0  0  0
    0.3350   10.9540   -2.8610 O   0  0  0  0  0  0  0  0  0  0  0  0
    1.0380   13.0550   -2.2520 O   0  0  0  0  0  0  0  0  0  0  0  0
   -1.0060   10.1080   -8.4300 C   0  0  0  0  0  0  0  0  0  0  0  0
   -0.2160    8.7280   -6.6970 C   0  0  0  0  0  0  0  0  0  0  0  0
   -0.0940   13.5140   -1.4850 C   0  0  0  0  0  0  0  0  0  0  0  0
   -1.9960    8.9440   -8.3470 C   0  0  0  0  0  0  0  0  0  0  0  0
   -1.4600    8.0380   -7.2230 C   0  0  0  0  0  0  0  0  0  0  0  0
    0.1830   14.9020   -0.8900 C   0  0  0  0  0  0  0  0  0  0  0  0
   -0.8530   15.3960    0.1410 C   0  0  0  0  0  0  0  0  0  0  0  0
   -2.2900   15.4970   -0.4110 C   0  0  0  0  0  0  0  0  0  0  0  0
   -3.3450   15.7360    0.6810 C   0  0  0  0  0  0  0  0  0  0  0  0
   -4.7360   15.3890    0.2800 C   0  0  0  0  0  0  0  0  0  0  0  0
   -5.2700   15.6310   -0.9260 N   0  0  0  0  0  0  0  0  0  0  0  0
   -5.5830   14.7790    1.1630 N   0  0  0  0  0  0  0  0  0  0  0  0
   -6.6880   14.6280    0.4970 C   0  0  0  0  0  0  0  0  0  0  0  0
   -6.5200   15.1340   -0.7620 N   0  0  0  0  0  0  0  0  0  0  0  0
   -7.8290   14.0740    0.9360 N   0  0  0  0  0  0  0  0  0  0  0  0
  1  2  1  0
  2  3  1  1
  1  4  1  0
  4  5  2  0
  2  6  1  0
  4  7  1  0
  6  8  2  0
  6  9  1  0
  7 10  1  0
  7 11  1  0
  9 12  1  0
 10 13  1  0
 11 14  1  0
 13 14  1  0
 12 15  1  0
 15 16  1  0
 16 17  1  0
 17 18  1  0
 18 19  1  0
 19 20  2  0
 19 21  1  0
 21 22  2  0
 20 23  1  0
 22 23  1  0
 22 24  1  0
M  END
