x0727_0_A_α-6mea_B_0_B_γ
     RDKit          3D

 20 21  0  0  0  0  0  0  0  0999 V2000
    1.2530   11.6060   -6.2510 N   0  0  0  0  0  0  0  0  0  0  0  0
    0.2790   12.1290   -5.3400 C   0  0  1  0  0  0  0  0  0  0  0  0
    0.6920   11.8400   -3.8660 C   0  0  0  0  0  0  0  0  0  0  0  0
    0.8110   10.8830   -7.3260 C   0  0  0  0  0  0  0  0  0  0  0  0
    1.3900   10.8440   -8.3830 O   0  0  0  0  0  0  0  0  0  0  0  0
   -0.4680   10.1340   -7.0700 C   0  0  0  0  0  0  0  0  0  0  0  0
    0.1340   13.6050   -5.6480 C   0  0  0  0  0  0  0  0  0  0  0  0
    0.2050   10.9690   -3.1520 O   0  0  0  0  0  0  0  0  0  0  0  0
    1.6670   12.6230   -3.3620 O   0  0  0  0  0  0  0  0  0  0  0  0
   -1.3300   10.0620   -8.3220 C   0  0  0  0  0  0  0  0  0  0  0  0
   -0.2890    8.6710   -6.6890 C   0  0  0  0  0  0  0  0  0  0  0  0
   -0.0110   14.4160   -4.4070 C   0  0  1  0  0  0  0  0  0  0  0  0
   -2.2610    8.8810   -8.0700 C   0  0  0  0  0  0  0  0  0  0  0  0
   -1.6920    8.1230   -6.8650 C   0  0  0  0  0  0  0  0  0  0  0  0
   -0.1060   15.9110   -4.3480 C   0  0  2  0  0  0  0  0  0  0  0  0
   -1.2790   14.1880   -3.6600 C   0  0  1  0  0  0  0  0  0  0  0  0
   -1.5330   12.7860   -3.5220 O   0  0  0  0  0  0  0  0  0  0  0  0
    0.9750   16.7270   -5.0150 C   0  0  0  0  0  0  0  0  0  0  0  0
   -0.7970   14.8500   -2.3940 C   0  0  0  0  0  0  0  0  0  0  0  0
   -0.0250   15.9890   -2.9120 O   0  0  0  0  0  0  0  0  0  0  0  0
  1  2  1  0
  2  3  1  0
  1  4  1  0
  4  5  2  0
  4  6  1  0
  2  7  1  1
  3  8  2  0
  3  9  1  0
  6 10  1  0
  6 11  1  0
 12  7  1  6
 10 13  1  0
 11 14  1  0
 13 14  1  0
 12 15  1  0
 12 16  1  0
 16 17  1  1
 15 18  1  6
 16 19  1  0
 15 20  1  0
 19 20  1  0
M  END
