x0722_0_A_α-x0805_0_A_α
     RDKit          3D

 19 20  0  0  0  0  0  0  0  0999 V2000
   -4.4540   15.7660    2.2460 C   0  0  0  0  0  0  0  0  0  0  0  0
   -3.4090   15.1390    1.4580 C   0  0  0  0  0  0  0  0  0  0  0  0
   -2.2430   14.9450    1.9980 N   0  0  0  0  0  0  0  0  0  0  0  0
   -3.4240   14.6930    0.1460 C   0  0  0  0  0  0  0  0  0  0  0  0
   -4.5200   14.7190   -0.8300 C   0  0  1  0  0  0  0  0  0  0  0  0
   -2.1410   14.2120   -0.0750 C   0  0  0  0  0  0  0  0  0  0  0  0
   -1.4890   14.3970    1.0810 N   0  0  0  0  0  0  0  0  0  0  0  0
   -0.1320   14.0790    1.3900 C   0  0  0  0  0  0  0  0  0  0  0  0
   -1.4630   13.6070   -1.2390 C   0  0  0  0  0  0  0  0  0  0  0  0
   -5.9790   14.8790   -0.3560 C   0  0  0  0  0  0  0  0  0  0  0  0
   -4.0570   15.6150   -1.7980 O   0  0  0  0  0  0  0  0  0  0  0  0
   -6.7750   15.7180   -0.7580 O   0  0  0  0  0  0  0  0  0  0  0  0
   -6.3940   13.9550    0.5700 N   0  0  0  0  0  0  0  0  0  0  0  0
   -3.4620   14.6770   -2.5430 C   0  0  0  0  0  0  0  0  0  0  0  0
   -4.2100   13.5270   -2.7460 C   0  0  0  0  0  0  0  0  0  0  0  0
   -2.1860   14.8150   -3.0730 C   0  0  0  0  0  0  0  0  0  0  0  0
   -1.6590   13.7770   -3.8240 C   0  0  0  0  0  0  0  0  0  0  0  0
   -3.6820   12.4960   -3.4930 C   0  0  0  0  0  0  0  0  0  0  0  0
   -2.4060   12.6220   -4.0340 C   0  0  0  0  0  0  0  0  0  0  0  0
  1  2  1  0
  2  3  2  0
  2  4  1  0
  4  5  1  0
  4  6  2  0
  3  7  1  0
  6  7  1  0
  7  8  1  0
  6  9  1  0
  5 10  1  0
  5 11  1  6
 10 12  2  0
 10 13  1  0
 11 14  1  0
 14 15  2  0
 14 16  1  0
 16 17  2  0
 15 18  1  0
 17 19  1  0
 18 19  2  0
M  END
