x0722_0_A_α-x0282_0_A_α
     RDKit          3D

 24 26  0  0  0  0  0  0  0  0999 V2000
   -4.7590   15.5810    1.8790 C   0  0  0  0  0  0  0  0  0  0  0  0
   -4.0060   15.6740    0.6160 C   0  0  0  0  0  0  0  0  0  0  0  0
   -2.6960   15.8500    0.7500 N   0  0  0  0  0  0  0  0  0  0  0  0
   -4.4110   15.6030   -0.7790 C   0  0  0  0  0  0  0  0  0  0  0  0
   -5.7630   15.4190   -1.4800 C   0  0  0  0  0  0  0  0  0  0  0  0
   -3.1860   15.7370   -1.4450 C   0  0  0  0  0  0  0  0  0  0  0  0
   -2.2230   15.8820   -0.4870 N   0  0  0  0  0  0  0  0  0  0  0  0
   -0.8030   16.0550   -0.6700 C   0  0  0  0  0  0  0  0  0  0  0  0
   -2.8550   15.7380   -2.8900 C   0  0  0  0  0  0  0  0  0  0  0  0
   -7.1120   15.3770   -0.7300 C   0  0  0  0  0  0  0  0  0  0  0  0
   -7.9810   16.2350   -0.8710 O   0  0  0  0  0  0  0  0  0  0  0  0
   -7.2580   14.3010    0.0870 N   0  0  0  0  0  0  0  0  0  0  0  0
   -6.0080   13.6600    0.3300 C   0  0  0  0  0  0  0  0  0  0  0  0
   -5.6960   13.2080    1.7130 C   0  0  0  0  0  0  0  0  0  0  0  0
   -5.6780   12.5510   -0.6300 C   0  0  0  0  0  0  0  0  0  0  0  0
   -4.1690   13.2280    1.7620 C   0  0  0  0  0  0  0  0  0  0  0  0
   -4.1660   12.5590   -0.7570 C   0  0  0  0  0  0  0  0  0  0  0  0
   -3.5710   13.2680    0.3930 N   0  0  0  0  0  0  0  0  0  0  0  0
   -2.2240   13.5970    0.2780 C   0  0  0  0  0  0  0  0  0  0  0  0
   -1.6840   13.3400   -0.9290 N   0  0  0  0  0  0  0  0  0  0  0  0
   -1.5170   14.1310    1.3140 N   0  0  0  0  0  0  0  0  0  0  0  0
   -0.3990   13.6240   -1.1230 C   0  0  0  0  0  0  0  0  0  0  0  0
   -0.2200   14.3920    1.0600 C   0  0  0  0  0  0  0  0  0  0  0  0
    0.3900   14.1580   -0.1580 C   0  0  0  0  0  0  0  0  0  0  0  0
  1  2  1  0
  2  3  2  0
  2  4  1  0
  4  5  1  0
  4  6  2  0
  3  7  1  0
  6  7  1  0
  7  8  1  0
  6  9  1  0
  5 10  1  0
 10 11  2  0
 10 12  1  0
 12 13  1  0
 13 14  1  0
 13 15  1  0
 14 16  1  0
 15 17  1  0
 16 18  1  0
 17 18  1  0
 18 19  1  0
 19 20  2  0
 19 21  1  0
 20 22  1  0
 21 23  2  0
 22 24  2  0
 23 24  1  0
M  END
