x0722_0_A-x0855_0_A
     RDKit          3D

 24 25  0  0  0  0  0  0  0  0999 V2000
   -4.5130   15.7140    2.1690 C   0  0  0  0  0  0  0  0  0  0  0  0
   -3.4620   15.2330    1.3020 C   0  0  0  0  0  0  0  0  0  0  0  0
   -2.3370   14.9070    1.8870 N   0  0  0  0  0  0  0  0  0  0  0  0
   -3.4320   15.0660   -0.0960 C   0  0  0  0  0  0  0  0  0  0  0  0
   -4.5450   15.3430   -1.0680 C   0  0  0  0  0  0  0  0  0  0  0  0
   -2.1300   14.6090   -0.3250 C   0  0  0  0  0  0  0  0  0  0  0  0
   -1.5390   14.5400    0.9150 N   0  0  0  0  0  0  0  0  0  0  0  0
   -0.2050   14.1410    1.2710 C   0  0  0  0  0  0  0  0  0  0  0  0
   -1.3740   14.2400   -1.5590 C   0  0  0  0  0  0  0  0  0  0  0  0
   -5.8660   14.7130   -0.6490 C   0  0  0  0  0  0  0  0  0  0  0  0
   -6.9630   15.2510   -0.7880 O   0  0  0  0  0  0  0  0  0  0  0  0
   -5.7920   13.4670   -0.0900 N   0  0  0  0  0  0  0  0  0  0  0  0
    0.1390   14.3380   -1.2900 C   0  0  0  0  0  0  0  0  0  0  0  0
    1.0010   14.3360   -2.5450 C   0  0  0  0  0  0  0  0  0  0  0  0
    1.6390   13.0530   -2.6650 O   0  0  0  0  0  0  0  0  0  0  0  0
    0.9510   12.0950   -3.3260 C   0  0  0  0  0  0  0  0  0  0  0  0
    0.6120   11.0210   -2.8330 O   0  0  0  0  0  0  0  0  0  0  0  0
    0.6350   12.4810   -4.7410 C   0  0  0  0  0  0  0  0  0  0  0  0
   -0.4400   11.6490   -5.2230 N   0  0  0  0  0  0  0  0  0  0  0  0
   -0.3510   10.6800   -6.1770 C   0  0  0  0  0  0  0  0  0  0  0  0
   -1.6820   11.7910   -4.7090 N   0  0  0  0  0  0  0  0  0  0  0  0
   -1.6080   10.1570   -6.2770 C   0  0  0  0  0  0  0  0  0  0  0  0
   -2.3950   10.8670   -5.3630 C   0  0  0  0  0  0  0  0  0  0  0  0
   -2.1890    8.7820   -7.3850 Br  0  0  0  0  0  0  0  0  0  0  0  0
  1  2  1  0
  2  3  2  0
  2  4  1  0
  4  5  1  0
  4  6  2  0
  3  7  1  0
  6  7  1  0
  7  8  1  0
  6  9  1  0
  5 10  1  0
 10 11  2  0
 10 12  1  0
  9 13  1  0
 13 14  1  0
 14 15  1  0
 15 16  1  0
 16 17  2  0
 16 18  1  0
 18 19  1  0
 19 20  1  0
 19 21  1  0
 20 22  2  0
 21 23  2  0
 22 23  1  0
 22 24  1  0
M  END
