x0722_0_A_α-x1018_0_A_α
     RDKit          3D

 22 24  0  0  0  0  0  0  0  0999 V2000
   -4.3650   15.1500    2.6130 C   0  0  0  0  0  0  0  0  0  0  0  0
   -3.3430   14.9880    1.5460 C   0  0  0  0  0  0  0  0  0  0  0  0
   -2.0960   14.9500    1.9200 N   0  0  0  0  0  0  0  0  0  0  0  0
   -3.4560   14.8530    0.1330 C   0  0  0  0  0  0  0  0  0  0  0  0
   -4.7550   14.8300   -0.6130 C   0  0  1  0  0  0  0  0  0  0  0  0
   -2.1230   14.7320   -0.2960 C   0  0  0  0  0  0  0  0  0  0  0  0
   -1.3860   14.7990    0.8330 N   0  0  0  0  0  0  0  0  0  0  0  0
    0.0320   14.7180    0.9650 C   0  0  0  0  0  0  0  0  0  0  0  0
   -1.4390   14.5590   -1.6020 C   0  0  0  0  0  0  0  0  0  0  0  0
   -6.0880   15.2080    0.0020 C   0  0  0  0  0  0  0  0  0  0  0  0
   -4.8500   14.7680   -2.0620 N   0  0  0  0  0  0  0  0  0  0  0  0
   -7.0000   15.7350   -0.6450 O   0  0  0  0  0  0  0  0  0  0  0  0
   -6.2960   14.8790    1.3130 N   0  0  0  0  0  0  0  0  0  0  0  0
   -3.5920   14.3200   -2.6300 N   0  0  0  0  0  0  0  0  0  0  0  0
   -5.5990   13.6370   -2.1320 N   0  0  0  0  0  0  0  0  0  0  0  0
   -3.3800   13.0240   -1.9750 N   0  0  0  0  0  0  0  0  0  0  0  0
   -4.7000   12.6560   -1.4780 C   0  0  1  0  0  0  0  0  0  0  0  0
   -6.9090   13.7170   -1.6870 N   0  0  0  0  0  0  0  0  0  0  0  0
   -7.1050   13.4490   -0.4090 C   0  0  0  0  0  0  0  0  0  0  0  0
   -4.8750   12.6820    0.0170 C   0  0  0  0  0  0  0  0  0  0  0  0
   -8.7220   13.5970    0.1710 Cl  0  0  0  0  0  0  0  0  0  0  0  0
   -6.0360   13.0470    0.5610 C   0  0  0  0  0  0  0  0  0  0  0  0
  1  2  1  0
  2  3  2  0
  2  4  1  0
  4  5  1  0
  4  6  2  0
  3  7  1  0
  6  7  1  0
  7  8  1  0
  6  9  1  0
  5 10  1  6
  5 11  1  0
 10 12  2  0
 10 13  1  0
 11 14  1  0
 11 15  1  0
 14 16  1  0
 15 17  1  0
 16 17  1  0
 15 18  1  0
 18 19  2  0
 17 20  1  1
 19 21  1  0
 19 22  1  0
 20 22  2  0
M  END
