x0722_0_A_α-x0967_0_A_α
     RDKit          3D

 22 24  0  0  0  0  0  0  0  0999 V2000
   -4.8320   13.6710    1.7510 C   0  0  0  0  0  0  0  0  0  0  0  0
   -3.5700   13.8630    1.0440 C   0  0  0  0  0  0  0  0  0  0  0  0
   -2.4290   14.0540    1.7030 N   0  0  0  0  0  0  0  0  0  0  0  0
   -3.4160   13.8780   -0.3540 C   0  0  0  0  0  0  0  0  0  0  0  0
   -4.5750   13.7190   -1.3280 C   0  0  1  0  0  0  0  0  0  0  0  0
   -2.0560   14.0850   -0.5310 C   0  0  0  0  0  0  0  0  0  0  0  0
   -1.5270   14.1810    0.7330 N   0  0  0  0  0  0  0  0  0  0  0  0
   -0.1500   14.3980    1.0850 C   0  0  0  0  0  0  0  0  0  0  0  0
   -1.2240   14.2080   -1.7530 C   0  0  0  0  0  0  0  0  0  0  0  0
   -5.7700   12.8030   -0.9530 C   0  0  0  0  0  0  0  0  0  0  0  0
   -5.0580   15.0760   -1.4890 N   0  0  0  0  0  0  0  0  0  0  0  0
   -6.8190   12.7730   -1.5900 O   0  0  0  0  0  0  0  0  0  0  0  0
   -5.6310   12.0070    0.1420 N   0  0  0  0  0  0  0  0  0  0  0  0
   -6.2980   15.3080   -0.7280 C   0  0  1  0  0  0  0  0  0  0  0  0
   -4.0500   15.8540   -1.0200 C   0  0  0  0  0  0  0  0  0  0  0  0
   -7.5310   14.6670   -1.1970 N   0  0  0  0  0  0  0  0  0  0  0  0
   -5.9600   15.0690    0.7510 C   0  0  0  0  0  0  0  0  0  0  0  0
   -3.8740   16.0390    0.3160 C   0  0  0  0  0  0  0  0  0  0  0  0
   -6.9510   14.4830    1.6260 C   0  0  0  0  0  0  0  0  0  0  0  0
   -8.2900   14.1160   -0.3150 C   0  0  0  0  0  0  0  0  0  0  0  0
   -4.7720   15.4350    1.2220 C   0  0  0  0  0  0  0  0  0  0  0  0
   -8.0910   14.0200    1.1410 C   0  0  0  0  0  0  0  0  0  0  0  0
  1  2  1  0
  2  3  2  0
  2  4  1  0
  4  5  1  0
  4  6  2  0
  3  7  1  0
  6  7  1  0
  7  8  1  0
  6  9  1  0
  5 10  1  1
  5 11  1  0
 10 12  2  0
 10 13  1  0
 11 14  1  0
 11 15  1  0
 14 16  1  6
 14 17  1  0
 15 18  2  0
 17 19  1  0
 16 20  2  0
 17 21  2  0
 18 21  1  0
 19 22  2  0
 20 22  1  0
M  END
