x0722_0_A_α-x0910_0_A_α
     RDKit          3D

 12 12  0  0  0  0  0  0  0  0999 V2000
   -4.4330   15.7650    2.2560 C   0  0  0  0  0  0  0  0  0  0  0  0
   -3.4400   15.2740    1.3200 C   0  0  0  0  0  0  0  0  0  0  0  0
   -2.2710   14.9160    1.8030 N   0  0  0  0  0  0  0  0  0  0  0  0
   -3.5260   15.1240   -0.0800 C   0  0  0  0  0  0  0  0  0  0  0  0
   -4.7050   15.4380   -0.9550 C   0  0  0  0  0  0  0  0  0  0  0  0
   -2.2730   14.6370   -0.4240 C   0  0  0  0  0  0  0  0  0  0  0  0
   -1.5710   14.5420    0.7540 N   0  0  0  0  0  0  0  0  0  0  0  0
   -0.2180   14.1080    0.9760 C   0  0  0  0  0  0  0  0  0  0  0  0
   -1.6870   14.2710   -1.7320 C   0  0  0  0  0  0  0  0  0  0  0  0
   -5.9750   14.6730   -0.6170 C   0  0  0  0  0  0  0  0  0  0  0  0
   -7.0970   15.1480   -0.7740 O   0  0  0  0  0  0  0  0  0  0  0  0
   -5.8410   13.4100   -0.1140 N   0  0  0  0  0  0  0  0  0  0  0  0
  1  2  1  0
  2  3  2  0
  2  4  1  0
  4  5  1  0
  4  6  2  0
  3  7  1  0
  6  7  1  0
  7  8  1  0
  6  9  1  0
  5 10  1  0
 10 11  2  0
 10 12  1  0
M  END
