x0724_0_A-x0950_0_A
     RDKit          3D

 22 23  0  0  0  0  0  0  0  0999 V2000
   -8.7660   13.8010    4.2470 N   0  0  0  0  0  0  0  0  0  0  0  0
   -8.7110   13.7710    5.7020 C   0  0  0  0  0  0  0  0  0  0  0  0
   -8.2450   15.0670    3.7410 C   0  0  0  0  0  0  0  0  0  0  0  0
   -7.6210   14.8660    2.4020 C   0  0  0  0  0  0  0  0  0  0  0  0
   -6.2760   14.8640    2.0980 C   0  0  0  0  0  0  0  0  0  0  0  0
   -8.2370   14.6430    1.1520 C   0  0  0  0  0  0  0  0  0  0  0  0
   -7.3540   14.5200    0.1520 N   0  0  0  0  0  0  0  0  0  0  0  0
   -6.1320   14.6630    0.7470 N   0  0  0  0  0  0  0  0  0  0  0  0
   -4.9150   14.6000    0.0050 C   0  0  0  0  0  0  0  0  0  0  0  0
   -3.6850   14.6790    0.6900 C   0  0  0  0  0  0  0  0  0  0  0  0
   -4.9090   14.4570   -1.3840 C   0  0  0  0  0  0  0  0  0  0  0  0
   -2.4750   14.6060   -0.0150 C   0  0  0  0  0  0  0  0  0  0  0  0
   -3.6990   14.3860   -2.0840 C   0  0  0  0  0  0  0  0  0  0  0  0
   -2.4630   14.4540   -1.4110 C   0  0  0  0  0  0  0  0  0  0  0  0
   -1.1630   14.3510   -2.2060 C   0  0  0  0  0  0  0  0  0  0  0  0
    0.0980   13.9940   -1.3840 C   0  0  0  0  0  0  0  0  0  0  0  0
    0.5320   12.6100   -1.5100 O   0  0  0  0  0  0  0  0  0  0  0  0
    0.6780   12.0260   -2.7510 C   0  0  0  0  0  0  0  0  0  0  0  0
    1.2820   12.9360   -3.8400 C   0  0  1  0  0  0  0  0  0  0  0  0
    0.3610   10.8670   -2.9880 O   0  0  0  0  0  0  0  0  0  0  0  0
    2.8010   12.9820   -3.7580 C   0  0  0  0  0  0  0  0  0  0  0  0
    0.9310   12.4550   -5.1450 O   0  0  0  0  0  0  0  0  0  0  0  0
  1  2  1  0
  1  3  1  0
  3  4  1  0
  4  5  2  0
  4  6  1  0
  6  7  2  0
  5  8  1  0
  7  8  1  0
  8  9  1  0
  9 10  2  0
  9 11  1  0
 10 12  1  0
 11 13  2  0
 12 14  2  0
 13 14  1  0
 14 15  1  0
 15 16  1  0
 16 17  1  0
 17 18  1  0
 18 19  1  0
 18 20  2  0
 19 21  1  6
 19 22  1  0
M  END
