x0729_1_B-x0423_0_B
     RDKit          3D

 30 32  0  0  0  0  0  0  0  0999 V2000
   19.6720   24.9950    5.8890 C   0  0  0  0  0  0  0  0  0  0  0  0
   20.4320   26.2310    6.3370 C   0  0  2  0  0  0  0  0  0  0  0  0
   20.2920   26.6450    7.7510 N   0  0  0  0  0  0  0  0  0  0  0  0
   20.3840   27.4660    5.4190 C   0  0  2  0  0  0  0  0  0  0  0  0
   20.1570   27.1450    3.9980 C   0  0  0  0  0  0  0  0  0  0  0  0
   18.8650   27.2790    8.5290 S   0  0  2  0  0  0  0  0  0  0  0  0
   21.6050   27.2510    8.0490 C   0  0  0  0  0  0  0  0  0  0  0  0
   21.7400   28.1630    5.6030 C   0  0  0  0  0  0  0  0  0  0  0  0
   19.4030   28.2710    9.4370 O   0  0  0  0  0  0  0  0  0  0  0  0
   19.9810   26.9470    2.8740 N   0  0  0  0  0  0  0  0  0  0  0  0
   18.0510   26.0640    9.0070 N   0  0  0  0  0  0  0  0  0  0  0  0
   17.8480   28.1500    7.3560 C   0  0  0  0  0  0  0  0  0  0  0  0
   22.0490   28.3870    7.0910 C   0  0  0  0  0  0  0  0  0  0  0  0
   18.0780   25.7380   10.4490 C   0  0  0  0  0  0  0  0  0  0  0  0
   17.5790   24.3060   10.6980 C   0  0  0  0  0  0  0  0  0  0  0  0
   17.4160   23.9690   12.1950 C   0  0  0  0  0  0  0  0  0  0  0  0
   16.0390   24.3970   12.7480 C   0  0  1  0  0  0  0  0  0  0  0  0
   14.9300   23.4080   12.3230 C   0  0  0  0  0  0  0  0  0  0  0  0
   15.8520   24.6900   14.2430 C   0  0  0  0  0  0  0  0  0  0  0  0
   14.4010   25.1610   14.4860 C   0  0  2  0  0  0  0  0  0  0  0  0
   14.2250   22.9270   13.5220 N   0  0  0  0  0  0  0  0  0  0  0  0
   14.2670   25.8740   15.7640 N   0  0  0  0  0  0  0  0  0  0  0  0
   13.4560   23.9650   14.2230 C   0  0  0  0  0  0  0  0  0  0  0  0
   13.5430   21.7080   13.3540 C   0  0  0  0  0  0  0  0  0  0  0  0
   13.2360   26.8970   15.7200 C   0  0  0  0  0  0  0  0  0  0  0  0
   12.4660   21.4140   14.1790 C   0  0  0  0  0  0  0  0  0  0  0  0
   13.9230   20.8220   12.4120 N   0  0  0  0  0  0  0  0  0  0  0  0
   13.2650   19.6310   12.2580 N   0  0  0  0  0  0  0  0  0  0  0  0
   11.7980   20.2100   14.0300 C   0  0  0  0  0  0  0  0  0  0  0  0
   12.2260   19.3490   13.0610 C   0  0  0  0  0  0  0  0  0  0  0  0
  2  1  1  6
  2  3  1  0
  2  4  1  0
  4  5  1  6
  3  6  1  0
  3  7  1  0
  4  8  1  0
  6  9  2  0
  5 10  3  0
  6 11  2  0
  6 12  1  6
  7 13  1  0
  8 13  1  0
 11 14  1  0
 14 15  1  0
 15 16  1  0
 17 16  1  1
 17 18  1  0
 17 19  1  0
 19 20  1  0
 18 21  1  0
 20 22  1  1
 20 23  1  0
 21 23  1  0
 21 24  1  0
 22 25  1  0
 24 26  2  0
 24 27  1  0
 27 28  2  0
 26 29  1  0
 28 30  1  0
 29 30  2  0
M  END
