x0727_0_A_α-x0421_0_A_α
     RDKit          3D

 26 28  0  0  0  0  0  0  0  0999 V2000
    0.1820   11.3880   -5.6030 N   0  0  0  0  0  0  0  0  0  0  0  0
    0.9090   12.3470   -4.7720 C   0  0  1  0  0  0  0  0  0  0  0  0
    0.5300   13.7580   -5.1940 C   0  0  0  0  0  0  0  0  0  0  0  0
    0.7170   11.0600   -6.8110 C   0  0  0  0  0  0  0  0  0  0  0  0
    1.6510   11.6720   -7.2450 O   0  0  0  0  0  0  0  0  0  0  0  0
    0.6350   12.0130   -3.2960 C   0  0  0  0  0  0  0  0  0  0  0  0
    0.0800    9.8850   -7.5260 C   0  0  0  0  0  0  0  0  0  0  0  0
    0.0210   11.0090   -2.9350 O   0  0  0  0  0  0  0  0  0  0  0  0
    1.1720   12.9360   -2.4470 O   0  0  0  0  0  0  0  0  0  0  0  0
   -1.2280   10.2870   -8.2090 C   0  0  0  0  0  0  0  0  0  0  0  0
   -0.2590    8.7280   -6.5740 C   0  0  0  0  0  0  0  0  0  0  0  0
    0.7760   14.3190   -2.5970 C   0  0  0  0  0  0  0  0  0  0  0  0
   -2.1580    9.1030   -8.0230 C   0  0  0  0  0  0  0  0  0  0  0  0
   -1.7470    8.4710   -6.7050 C   0  0  0  0  0  0  0  0  0  0  0  0
   -0.7090   14.4330   -2.9850 C   0  0  0  0  0  0  0  0  0  0  0  0
   -1.5330   14.5120   -1.7850 N   0  0  0  0  0  0  0  0  0  0  0  0
   -2.7780   14.8400   -1.7530 C   0  0  0  0  0  0  0  0  0  0  0  0
   -3.4760   15.1580   -2.8890 N   0  0  0  0  0  0  0  0  0  0  0  0
   -3.5460   14.8910   -0.5140 C   0  0  0  0  0  0  0  0  0  0  0  0
   -2.9940   15.1470    0.7260 C   0  0  0  0  0  0  0  0  0  0  0  0
   -4.9110   14.6870   -0.3850 N   0  0  0  0  0  0  0  0  0  0  0  0
   -4.0300   15.0880    1.5950 N   0  0  0  0  0  0  0  0  0  0  0  0
   -5.1520   14.8100    0.9020 C   0  0  0  0  0  0  0  0  0  0  0  0
   -6.5340   14.6560    1.5850 C   0  0  0  0  0  0  0  0  0  0  0  0
   -7.7940   14.6400    0.7650 C   0  0  0  0  0  0  0  0  0  0  0  0
   -7.2820   13.3690    1.3830 C   0  0  0  0  0  0  0  0  0  0  0  0
  1  2  1  0
  2  3  1  6
  1  4  1  0
  4  5  2  0
  2  6  1  0
  4  7  1  0
  6  8  2  0
  6  9  1  0
  7 10  1  0
  7 11  1  0
  9 12  1  0
 10 13  1  0
 11 14  1  0
 13 14  1  0
 12 15  1  0
 15 16  1  0
 16 17  2  3
 17 18  1  0
 17 19  1  0
 19 20  2  0
 19 21  1  0
 20 22  1  0
 21 23  2  0
 22 23  1  0
 23 24  1  0
 24 25  1  0
 24 26  1  0
 25 26  1  0
M  END
