x0724_0_A_α-x0465_0_A_α
     RDKit          3D

 30 32  0  0  0  0  0  0  0  0999 V2000
   -8.6260   13.7140    4.3490 N   0  0  0  0  0  0  0  0  0  0  0  0
   -8.5060   13.8140    5.7960 C   0  0  0  0  0  0  0  0  0  0  0  0
   -8.3700   15.0110    3.7330 C   0  0  0  0  0  0  0  0  0  0  0  0
   -7.7590   14.8110    2.3910 C   0  0  0  0  0  0  0  0  0  0  0  0
   -6.4360   14.9380    2.0480 C   0  0  0  0  0  0  0  0  0  0  0  0
   -8.3750   14.4620    1.1700 C   0  0  0  0  0  0  0  0  0  0  0  0
   -7.5080   14.3840    0.1550 N   0  0  0  0  0  0  0  0  0  0  0  0
   -6.3040   14.6870    0.7110 N   0  0  0  0  0  0  0  0  0  0  0  0
   -5.1050   14.7360   -0.0460 C   0  0  0  0  0  0  0  0  0  0  0  0
   -3.8740   14.7890    0.6290 C   0  0  0  0  0  0  0  0  0  0  0  0
   -5.1360   14.7440   -1.4370 C   0  0  0  0  0  0  0  0  0  0  0  0
   -2.6870   14.8530   -0.0990 C   0  0  0  0  0  0  0  0  0  0  0  0
   -3.9460   14.8100   -2.1610 C   0  0  0  0  0  0  0  0  0  0  0  0
   -2.7190   14.8670   -1.4970 C   0  0  0  0  0  0  0  0  0  0  0  0
   -1.4420   14.9540   -2.2900 C   0  0  0  0  0  0  0  0  0  0  0  0
   -0.8300   13.6330   -2.5660 C   0  0  0  0  0  0  0  0  0  0  0  0
    0.4730   13.4790   -1.8030 C   0  0  0  0  0  0  0  0  0  0  0  0
    0.5430   12.0750   -1.7860 N   0  0  0  0  0  0  0  0  0  0  0  0
    0.6370   11.5040   -2.9250 C   0  0  0  0  0  0  0  0  0  0  0  0
    0.7310   12.2600   -4.2890 C   0  0  1  0  0  0  0  0  0  0  0  0
    0.6360   10.1710   -3.0230 O   0  0  0  0  0  0  0  0  0  0  0  0
    2.1100   12.9190   -4.4360 C   0  0  0  0  0  0  0  0  0  0  0  0
    0.5450   11.4510   -5.4500 O   0  0  0  0  0  0  0  0  0  0  0  0
   -0.6510   10.8100   -5.6130 C   0  0  0  0  0  0  0  0  0  0  0  0
   -0.6950    9.7930   -6.5830 C   0  0  0  0  0  0  0  0  0  0  0  0
   -1.8110   11.0900   -4.8910 C   0  0  0  0  0  0  0  0  0  0  0  0
    0.3890    9.4840   -7.3110 F   0  0  0  0  0  0  0  0  0  0  0  0
   -1.8620    9.0750   -6.8230 C   0  0  0  0  0  0  0  0  0  0  0  0
   -2.9850   10.3700   -5.1310 C   0  0  0  0  0  0  0  0  0  0  0  0
   -3.0130    9.3630   -6.0950 C   0  0  0  0  0  0  0  0  0  0  0  0
  1  2  1  0
  1  3  1  0
  3  4  1  0
  4  5  2  0
  4  6  1  0
  6  7  2  0
  5  8  1  0
  7  8  1  0
  8  9  1  0
  9 10  2  0
  9 11  1  0
 10 12  1  0
 11 13  2  0
 12 14  2  0
 13 14  1  0
 14 15  1  0
 15 16  1  0
 16 17  1  0
 17 18  1  0
 18 19  2  3
 19 20  1  0
 19 21  1  0
 20 22  1  6
 20 23  1  0
 23 24  1  0
 24 25  2  0
 24 26  1  0
 25 27  1  0
 25 28  1  0
 26 29  2  0
 28 30  2  0
 29 30  1  0
M  END
