x0724_0_A-x0685_0_A
     RDKit          3D

 16 18  0  0  0  0  0  0  0  0999 V2000
   -7.2970   13.7020    3.8360 N   0  0  0  0  0  0  0  0  0  0  0  0
   -8.4660   14.1860    4.5710 C   0  0  0  0  0  0  0  0  0  0  0  0
   -6.8490   14.5640    2.7160 C   0  0  1  0  0  0  0  0  0  0  0  0
   -5.4360   14.2260    2.3540 N   0  0  0  0  0  0  0  0  0  0  0  0
   -7.7900   14.3590    1.4830 C   0  0  2  0  0  0  0  0  0  0  0  0
   -7.1550   14.4320    0.1080 N   0  0  0  0  0  0  0  0  0  0  0  0
   -8.8480   15.4310    1.3930 C   0  0  0  0  0  0  0  0  0  0  0  0
   -4.8610   15.0110    1.1870 C   0  0  1  0  0  0  0  0  0  0  0  0
   -8.1410   15.0560   -0.7160 N   0  0  0  0  0  0  0  0  0  0  0  0
   -3.4220   14.6100    0.8260 C   0  0  0  0  0  0  0  0  0  0  0  0
   -5.8090   15.0260   -0.0680 C   0  0  1  0  0  0  0  0  0  0  0  0
   -8.9860   15.7690    0.1070 C   0  0  0  0  0  0  0  0  0  0  0  0
   -2.9360   14.6260   -0.4430 C   0  0  0  0  0  0  0  0  0  0  0  0
   -5.1820   14.4060   -1.3440 C   0  0  0  0  0  0  0  0  0  0  0  0
   -3.8040   15.0270   -1.5830 C   0  0  2  0  0  0  0  0  0  0  0  0
   -3.2370   14.6500   -2.8790 N   0  0  0  0  0  0  0  0  0  0  0  0
  1  2  1  0
  3  1  1  1
  3  4  1  0
  3  5  1  0
  5  6  1  0
  5  7  1  6
  4  8  1  0
  6  9  1  0
  8 10  1  6
  6 11  1  0
  8 11  1  0
  7 12  2  0
  9 12  1  0
 10 13  2  0
 11 14  1  6
 13 15  1  0
 14 15  1  0
 15 16  1  6
M  END
