x0722_0_A_α-x0962_0_A_α
     RDKit          3D

 12 12  0  0  0  0  0  0  0  0999 V2000
   -4.4270   15.7660    2.2560 C   0  0  0  0  0  0  0  0  0  0  0  0
   -3.4370   15.2750    1.3190 C   0  0  0  0  0  0  0  0  0  0  0  0
   -2.2680   14.9170    1.8010 N   0  0  0  0  0  0  0  0  0  0  0  0
   -3.5250   15.1240   -0.0830 C   0  0  0  0  0  0  0  0  0  0  0  0
   -4.7050   15.4370   -0.9570 C   0  0  0  0  0  0  0  0  0  0  0  0
   -2.2700   14.6350   -0.4260 C   0  0  0  0  0  0  0  0  0  0  0  0
   -1.5660   14.5400    0.7520 N   0  0  0  0  0  0  0  0  0  0  0  0
   -0.2150   14.1060    0.9730 C   0  0  0  0  0  0  0  0  0  0  0  0
   -1.6890   14.2670   -1.7360 C   0  0  0  0  0  0  0  0  0  0  0  0
   -5.9760   14.6750   -0.6160 C   0  0  0  0  0  0  0  0  0  0  0  0
   -7.0980   15.1520   -0.7720 O   0  0  0  0  0  0  0  0  0  0  0  0
   -5.8440   13.4110   -0.1170 N   0  0  0  0  0  0  0  0  0  0  0  0
  1  2  1  0
  2  3  2  0
  2  4  1  0
  4  5  1  0
  4  6  2  0
  3  7  1  0
  6  7  1  0
  7  8  1  0
  6  9  1  0
  5 10  1  0
 10 11  2  0
 10 12  1  0
M  END
