x0724_0_A-x0950_0_A
     RDKit          3D

 22 23  0  0  0  0  0  0  0  0999 V2000
   -8.2470   13.8060    4.4120 N   0  0  0  0  0  0  0  0  0  0  0  0
   -8.7160   13.9920    5.7770 C   0  0  0  0  0  0  0  0  0  0  0  0
   -8.3990   15.0280    3.6310 C   0  0  0  0  0  0  0  0  0  0  0  0
   -7.6970   14.8610    2.3290 C   0  0  0  0  0  0  0  0  0  0  0  0
   -6.3360   14.8510    2.0800 C   0  0  0  0  0  0  0  0  0  0  0  0
   -8.2630   14.6800    1.0530 C   0  0  0  0  0  0  0  0  0  0  0  0
   -7.3470   14.5720    0.0870 N   0  0  0  0  0  0  0  0  0  0  0  0
   -6.1490   14.6820    0.7260 N   0  0  0  0  0  0  0  0  0  0  0  0
   -4.9160   14.6180    0.0110 C   0  0  0  0  0  0  0  0  0  0  0  0
   -3.6940   14.6980    0.7050 C   0  0  0  0  0  0  0  0  0  0  0  0
   -4.8970   14.4720   -1.3790 C   0  0  0  0  0  0  0  0  0  0  0  0
   -2.4740   14.6210    0.0090 C   0  0  0  0  0  0  0  0  0  0  0  0
   -3.6790   14.3960   -2.0680 C   0  0  0  0  0  0  0  0  0  0  0  0
   -2.4490   14.4630   -1.3900 C   0  0  0  0  0  0  0  0  0  0  0  0
   -1.1460   14.3570   -2.1820 C   0  0  0  0  0  0  0  0  0  0  0  0
    0.1170   13.9960   -1.3680 C   0  0  0  0  0  0  0  0  0  0  0  0
    0.5420   12.6100   -1.4960 O   0  0  0  0  0  0  0  0  0  0  0  0
    0.6720   12.0320   -2.7430 C   0  0  0  0  0  0  0  0  0  0  0  0
    1.2850   12.9410   -3.8330 C   0  0  1  0  0  0  0  0  0  0  0  0
    0.3420   10.8790   -2.9820 O   0  0  0  0  0  0  0  0  0  0  0  0
    2.8030   12.9710   -3.7660 C   0  0  0  0  0  0  0  0  0  0  0  0
    0.9190   12.4750   -5.1380 O   0  0  0  0  0  0  0  0  0  0  0  0
  1  2  1  0
  1  3  1  0
  3  4  1  0
  4  5  2  0
  4  6  1  0
  6  7  2  0
  5  8  1  0
  7  8  1  0
  8  9  1  0
  9 10  2  0
  9 11  1  0
 10 12  1  0
 11 13  2  0
 12 14  2  0
 13 14  1  0
 14 15  1  0
 15 16  1  0
 16 17  1  0
 17 18  1  0
 18 19  1  0
 18 20  2  0
 19 21  1  6
 19 22  1  0
M  END
