x0727_0_A-x0524_0_A
     RDKit          3D

 29 31  0  0  0  0  0  0  0  0999 V2000
   -0.1900   11.2650   -5.6650 N   0  0  0  0  0  0  0  0  0  0  0  0
    0.7940   12.1530   -4.9630 C   0  0  1  0  0  0  0  0  0  0  0  0
    0.4320   13.6100   -5.2310 C   0  0  0  0  0  0  0  0  0  0  0  0
    0.1920   10.7030   -6.9950 C   0  0  2  0  0  0  0  0  0  0  0  0
    1.4580   11.2160   -7.4350 O   0  0  0  0  0  0  0  0  0  0  0  0
    0.7280   11.8930   -3.4440 C   0  0  0  0  0  0  0  0  0  0  0  0
   -0.9130   10.8490   -8.0800 C   0  0  1  0  0  0  0  0  0  0  0  0
    0.1950    9.1490   -6.9690 C   0  0  0  0  0  0  0  0  0  0  0  0
    0.1980   10.9290   -2.9070 O   0  0  0  0  0  0  0  0  0  0  0  0
    1.3200   12.8400   -2.6920 O   0  0  0  0  0  0  0  0  0  0  0  0
   -0.8160    9.6080   -8.9010 N   0  0  0  0  0  0  0  0  0  0  0  0
   -2.3360   10.9320   -7.4940 C   0  0  0  0  0  0  0  0  0  0  0  0
   -0.7000    8.4640   -8.0120 C   0  0  0  0  0  0  0  0  0  0  0  0
   -0.2980    8.4310   -5.7200 C   0  0  0  0  0  0  0  0  0  0  0  0
   -2.0860    8.4110   -7.3720 C   0  0  0  0  0  0  0  0  0  0  0  0
   -1.8140    8.4020   -5.8760 C   0  0  0  0  0  0  0  0  0  0  0  0
    0.3710    9.2460   -9.5600 C   0  0  0  0  0  0  0  0  0  0  0  0
    1.3820    8.3420   -9.1440 C   0  0  0  0  0  0  0  0  0  0  0  0
    0.5420    9.8720  -10.7720 C   0  0  0  0  0  0  0  0  0  0  0  0
    2.5150    8.1090   -9.9450 C   0  0  0  0  0  0  0  0  0  0  0  0
    1.6500    9.6420  -11.5550 C   0  0  0  0  0  0  0  0  0  0  0  0
    2.6540    8.7690  -11.1680 C   0  0  0  0  0  0  0  0  0  0  0  0
    3.7200    8.6470  -12.0570 N   0  0  0  0  0  0  0  0  0  0  0  0
    4.0660    9.4820  -13.1330 C   0  0  0  0  0  0  0  0  0  0  0  0
    3.3360   10.6680  -13.3450 C   0  0  0  0  0  0  0  0  0  0  0  0
    5.1070    9.1930  -14.0090 C   0  0  0  0  0  0  0  0  0  0  0  0
    3.6400   11.5290  -14.3970 C   0  0  0  0  0  0  0  0  0  0  0  0
    5.4140   10.0540  -15.0640 C   0  0  0  0  0  0  0  0  0  0  0  0
    4.6820   11.2200  -15.2580 C   0  0  0  0  0  0  0  0  0  0  0  0
  1  2  1  0
  2  3  1  1
  1  4  1  0
  4  5  1  6
  2  6  1  0
  4  7  1  0
  4  8  1  0
  6  9  2  0
  6 10  1  0
  7 11  1  0
  7 12  1  1
  8 13  1  0
  8 14  1  0
 13 15  1  0
 14 16  1  0
 15 16  1  0
 11 17  1  0
 17 18  2  0
 17 19  1  0
 18 20  1  0
 19 21  2  0
 20 22  2  0
 21 22  1  0
 22 23  1  0
 23 24  1  0
 24 25  2  0
 24 26  1  0
 25 27  1  0
 26 28  2  0
 27 29  2  0
 28 29  1  0
M  END
