x0722_0_A-x0950_0_A
     RDKit          3D

 20 20  0  0  0  0  0  0  0  0999 V2000
   -4.4700   15.7710    2.2680 C   0  0  0  0  0  0  0  0  0  0  0  0
   -3.4770   15.2970    1.3290 C   0  0  0  0  0  0  0  0  0  0  0  0
   -2.3180   14.9430    1.8230 N   0  0  0  0  0  0  0  0  0  0  0  0
   -3.5500   15.1630   -0.0690 C   0  0  0  0  0  0  0  0  0  0  0  0
   -4.7210   15.4770   -0.9510 C   0  0  0  0  0  0  0  0  0  0  0  0
   -2.2860   14.6900   -0.4120 C   0  0  0  0  0  0  0  0  0  0  0  0
   -1.5980   14.5870    0.7840 N   0  0  0  0  0  0  0  0  0  0  0  0
   -0.2560   14.1710    1.0820 C   0  0  0  0  0  0  0  0  0  0  0  0
   -1.7350   14.3580   -1.7650 C   0  0  0  0  0  0  0  0  0  0  0  0
   -5.9750   14.6910   -0.6000 C   0  0  0  0  0  0  0  0  0  0  0  0
   -7.1090   15.1290   -0.7610 O   0  0  0  0  0  0  0  0  0  0  0  0
   -5.7870   13.4380   -0.0850 N   0  0  0  0  0  0  0  0  0  0  0  0
   -0.2150   14.4990   -1.8770 C   0  0  0  0  0  0  0  0  0  0  0  0
    0.5070   13.3450   -1.2130 C   0  0  0  0  0  0  0  0  0  0  0  0
    1.4560   12.7490   -2.0970 O   0  0  0  0  0  0  0  0  0  0  0  0
    0.9230   12.0550   -3.1280 C   0  0  0  0  0  0  0  0  0  0  0  0
    1.2550   12.7420   -4.4490 C   0  0  1  0  0  0  0  0  0  0  0  0
    0.2800   11.0140   -3.0270 O   0  0  0  0  0  0  0  0  0  0  0  0
    2.7380   13.0060   -4.5550 C   0  0  0  0  0  0  0  0  0  0  0  0
    0.8450   11.9610   -5.5670 O   0  0  0  0  0  0  0  0  0  0  0  0
  1  2  1  0
  2  3  2  0
  2  4  1  0
  4  5  1  0
  4  6  2  0
  3  7  1  0
  6  7  1  0
  7  8  1  0
  6  9  1  0
  5 10  1  0
 10 11  2  0
 10 12  1  0
  9 13  1  0
 13 14  1  0
 14 15  1  0
 15 16  1  0
 16 17  1  0
 16 18  2  0
 17 19  1  6
 17 20  1  0
M  END
