x0724_0_A-x0962_2_B
     RDKit          3D

 21 23  0  0  0  0  0  0  0  0999 V2000
   -8.0120   12.8290    3.9530 N   0  0  0  0  0  0  0  0  0  0  0  0
   -8.3810   12.9880    5.3660 C   0  0  0  0  0  0  0  0  0  0  0  0
   -8.6000   13.8120    3.0270 C   0  0  2  0  0  0  0  0  0  0  0  0
   -7.8390   14.1470    1.7980 C   0  0  0  0  0  0  0  0  0  0  0  0
   -8.8050   15.0650    3.7290 C   0  0  0  0  0  0  0  0  0  0  0  0
   -6.5030   14.1190    1.5540 C   0  0  0  0  0  0  0  0  0  0  0  0
   -8.3720   14.5960    0.5760 C   0  0  0  0  0  0  0  0  0  0  0  0
   -9.4810   16.1450    3.2740 C   0  0  0  0  0  0  0  0  0  0  0  0
   -8.2940   15.2760    4.9810 N   0  0  0  0  0  0  0  0  0  0  0  0
  -10.1430   16.3060    2.0370 C   0  0  0  0  0  0  0  0  0  0  0  0
   -7.4340   14.8290   -0.3440 N   0  0  0  0  0  0  0  0  0  0  0  0
   -6.2750   14.5280    0.2880 N   0  0  0  0  0  0  0  0  0  0  0  0
   -9.3850   17.0540    4.2760 N   0  0  0  0  0  0  0  0  0  0  0  0
   -8.6590   16.4830    5.2800 C   0  0  0  0  0  0  0  0  0  0  0  0
  -10.6670   16.3760    1.0070 N   0  0  0  0  0  0  0  0  0  0  0  0
   -5.0060   14.6320   -0.3100 C   0  0  0  0  0  0  0  0  0  0  0  0
   -3.8510   14.7070    0.4820 C   0  0  0  0  0  0  0  0  0  0  0  0
   -4.9070   14.6520   -1.7010 C   0  0  0  0  0  0  0  0  0  0  0  0
   -2.6040   14.7960   -0.1300 C   0  0  0  0  0  0  0  0  0  0  0  0
   -3.6590   14.7420   -2.3040 C   0  0  0  0  0  0  0  0  0  0  0  0
   -2.5120   14.8130   -1.5200 C   0  0  0  0  0  0  0  0  0  0  0  0
  1  2  1  0
  3  1  1  1
  3  4  1  0
  3  5  1  0
  4  6  2  0
  4  7  1  0
  5  8  2  0
  5  9  1  0
  8 10  1  0
  7 11  2  0
  6 12  1  0
 11 12  1  0
  8 13  1  0
  9 14  2  0
 13 14  1  0
 10 15  3  0
 12 16  1  0
 16 17  2  0
 16 18  1  0
 17 19  1  0
 18 20  2  0
 19 21  2  0
 20 21  1  0
M  END
