x0722_0_A-x1012_0_A
     RDKit          3D

 24 25  0  0  0  0  0  0  0  0999 V2000
   -4.3180   15.9240    2.1000 C   0  0  0  0  0  0  0  0  0  0  0  0
   -3.4010   15.2710    1.1720 C   0  0  0  0  0  0  0  0  0  0  0  0
   -2.2190   14.9160    1.6310 N   0  0  0  0  0  0  0  0  0  0  0  0
   -3.5800   14.9490   -0.1930 C   0  0  0  0  0  0  0  0  0  0  0  0
   -4.8030   15.2330   -1.0260 C   0  0  0  0  0  0  0  0  0  0  0  0
   -2.3820   14.3230   -0.5520 C   0  0  0  0  0  0  0  0  0  0  0  0
   -1.6040   14.3600    0.6040 N   0  0  0  0  0  0  0  0  0  0  0  0
   -0.2670   13.9040    0.8780 C   0  0  0  0  0  0  0  0  0  0  0  0
   -1.9690   13.7140   -1.8800 C   0  0  0  0  0  0  0  0  0  0  0  0
   -6.0940   14.6010   -0.5360 C   0  0  0  0  0  0  0  0  0  0  0  0
   -7.2040   15.1080   -0.6640 O   0  0  0  0  0  0  0  0  0  0  0  0
   -5.9830   13.3890    0.0850 N   0  0  0  0  0  0  0  0  0  0  0  0
   -1.0370   14.4480   -2.8680 C   0  0  2  0  0  0  0  0  0  0  0  0
   -1.7210   15.1050   -4.0540 C   0  0  0  0  0  0  0  0  0  0  0  0
    0.0880   13.6280   -3.4980 C   0  0  2  0  0  0  0  0  0  0  0  0
    0.5800   12.5570   -2.5660 C   0  0  0  0  0  0  0  0  0  0  0  0
    1.1680   14.6070   -3.9630 C   0  0  0  0  0  0  0  0  0  0  0  0
   -0.8080   16.0220   -4.7430 N   0  0  0  0  0  0  0  0  0  0  0  0
   -1.2440   17.3180   -4.7930 C   0  0  0  0  0  0  0  0  0  0  0  0
    0.0930   11.3250   -2.8070 O   0  0  0  0  0  0  0  0  0  0  0  0
    1.3490   12.7380   -1.6580 O   0  0  0  0  0  0  0  0  0  0  0  0
    0.6010   15.6060   -4.9770 C   0  0  0  0  0  0  0  0  0  0  0  0
   -0.3180   18.2870   -4.7100 N   0  0  0  0  0  0  0  0  0  0  0  0
   -2.4180   17.6350   -4.8840 O   0  0  0  0  0  0  0  0  0  0  0  0
  1  2  1  0
  2  3  2  0
  2  4  1  0
  4  5  1  0
  4  6  2  0
  3  7  1  0
  6  7  1  0
  7  8  1  0
  6  9  1  0
  5 10  1  0
 10 11  2  0
 10 12  1  0
 13  9  1  6
 13 14  1  0
 13 15  1  0
 15 16  1  1
 15 17  1  0
 14 18  1  0
 18 19  1  0
 16 20  1  0
 16 21  2  0
 17 22  1  0
 18 22  1  0
 19 23  1  0
 19 24  2  0
M  END
