x0722_0_A_α-x0933_0_A_α
     RDKit          3D

 12 12  0  0  0  0  0  0  0  0999 V2000
   -4.4210   15.7660    2.2500 C   0  0  0  0  0  0  0  0  0  0  0  0
   -3.4300   15.2680    1.3170 C   0  0  0  0  0  0  0  0  0  0  0  0
   -2.2580   14.9040    1.7980 N   0  0  0  0  0  0  0  0  0  0  0  0
   -3.5200   15.1150   -0.0860 C   0  0  0  0  0  0  0  0  0  0  0  0
   -4.6940   15.4250   -0.9640 C   0  0  0  0  0  0  0  0  0  0  0  0
   -2.2670   14.6260   -0.4310 C   0  0  0  0  0  0  0  0  0  0  0  0
   -1.5620   14.5270    0.7420 N   0  0  0  0  0  0  0  0  0  0  0  0
   -0.2110   14.0840    0.9470 C   0  0  0  0  0  0  0  0  0  0  0  0
   -1.6960   14.2610   -1.7460 C   0  0  0  0  0  0  0  0  0  0  0  0
   -5.9650   14.6660   -0.6250 C   0  0  0  0  0  0  0  0  0  0  0  0
   -7.0880   15.1440   -0.7800 O   0  0  0  0  0  0  0  0  0  0  0  0
   -5.8370   13.3990   -0.1250 N   0  0  0  0  0  0  0  0  0  0  0  0
  1  2  1  0
  2  3  2  0
  2  4  1  0
  4  5  1  0
  4  6  2  0
  3  7  1  0
  6  7  1  0
  7  8  1  0
  6  9  1  0
  5 10  1  0
 10 11  2  0
 10 12  1  0
M  END
