x0727_0_A_α-x0855_0_A_α
     RDKit          3D

 19 20  0  0  0  0  0  0  0  0999 V2000
    0.8680   11.4600   -5.5060 N   0  0  0  0  0  0  0  0  0  0  0  0
   -0.0990   12.2680   -4.8080 C   0  0  2  0  0  0  0  0  0  0  0  0
    0.0210   13.7480   -5.2130 C   0  0  0  0  0  0  0  0  0  0  0  0
    0.8500   11.1100   -6.8310 C   0  0  0  0  0  0  0  0  0  0  0  0
    1.5060   11.7280   -7.5670 O   0  0  0  0  0  0  0  0  0  0  0  0
    0.3180   12.1400   -3.3060 C   0  0  0  0  0  0  0  0  0  0  0  0
    0.1030    9.9140   -7.4220 C   0  0  0  0  0  0  0  0  0  0  0  0
   -1.4080   11.6880   -5.0410 N   0  0  0  0  0  0  0  0  0  0  0  0
   -0.0280   11.2010   -2.5880 O   0  0  0  0  0  0  0  0  0  0  0  0
    1.1040   13.1190   -2.7950 O   0  0  0  0  0  0  0  0  0  0  0  0
   -1.2780   10.2420   -7.9710 C   0  0  0  0  0  0  0  0  0  0  0  0
   -0.0610    8.6630   -6.5460 C   0  0  0  0  0  0  0  0  0  0  0  0
   -1.6430   10.3900   -5.3750 C   0  0  0  0  0  0  0  0  0  0  0  0
   -2.5440   12.4350   -4.9460 N   0  0  0  0  0  0  0  0  0  0  0  0
   -1.9390    8.8800   -8.0980 C   0  0  0  0  0  0  0  0  0  0  0  0
   -1.4040    8.0560   -6.9210 C   0  0  0  0  0  0  0  0  0  0  0  0
   -2.9860   10.2780   -5.5150 C   0  0  0  0  0  0  0  0  0  0  0  0
   -3.5040   11.5450   -5.2440 C   0  0  0  0  0  0  0  0  0  0  0  0
   -3.9760    8.7650   -5.9730 Br  0  0  0  0  0  0  0  0  0  0  0  0
  1  2  1  0
  2  3  1  6
  1  4  1  0
  4  5  2  0
  2  6  1  0
  4  7  1  0
  2  8  1  0
  6  9  2  0
  6 10  1  0
  7 11  1  0
  7 12  1  0
  8 13  1  0
  8 14  1  0
 11 15  1  0
 12 16  1  0
 15 16  1  0
 13 17  2  0
 14 18  2  0
 17 18  1  0
 17 19  1  0
M  END
