x0727_0_A-x0371_0_A
     RDKit          3D

 34 37  0  0  0  0  0  0  0  0999 V2000
    0.1420   11.7870   -5.4450 N   0  0  0  0  0  0  0  0  0  0  0  0
    1.0410   12.5360   -4.5820 C   0  0  1  0  0  0  0  0  0  0  0  0
    0.9640   14.0350   -4.8340 C   0  0  0  0  0  0  0  0  0  0  0  0
    0.4950   11.1820   -6.6230 C   0  0  0  0  0  0  0  0  0  0  0  0
    1.5020   11.4200   -7.2660 O   0  0  0  0  0  0  0  0  0  0  0  0
    0.8020   12.0780   -3.1230 C   0  0  0  0  0  0  0  0  0  0  0  0
   -0.5370   10.1520   -7.0180 C   0  0  0  0  0  0  0  0  0  0  0  0
    0.3210   10.9850   -2.8220 O   0  0  0  0  0  0  0  0  0  0  0  0
    1.1840   13.0260   -2.2210 O   0  0  0  0  0  0  0  0  0  0  0  0
   -0.9840   10.0930   -8.4580 C   0  0  0  0  0  0  0  0  0  0  0  0
   -0.1880    8.7060   -6.7240 C   0  0  0  0  0  0  0  0  0  0  0  0
    0.2180   13.4440   -1.2320 C   0  0  0  0  0  0  0  0  0  0  0  0
   -1.9300    8.8880   -8.4050 C   0  0  0  0  0  0  0  0  0  0  0  0
   -1.4430    8.0170   -7.2300 C   0  0  0  0  0  0  0  0  0  0  0  0
   -0.4660   14.7390   -1.6910 C   0  0  0  0  0  0  0  0  0  0  0  0
   -1.2030   15.5030   -0.5740 C   0  0  0  0  0  0  0  0  0  0  0  0
   -2.7180   15.3470   -0.6050 C   0  0  0  0  0  0  0  0  0  0  0  0
   -3.4210   15.0100    0.5670 C   0  0  0  0  0  0  0  0  0  0  0  0
   -3.4250   15.5340   -1.8090 C   0  0  0  0  0  0  0  0  0  0  0  0
   -4.8070   14.8690    0.4640 C   0  0  0  0  0  0  0  0  0  0  0  0
   -4.8210   15.3870   -1.8750 C   0  0  0  0  0  0  0  0  0  0  0  0
   -5.7630   14.5480    1.3870 N   0  0  0  0  0  0  0  0  0  0  0  0
   -5.5180   15.0460   -0.7120 C   0  0  0  0  0  0  0  0  0  0  0  0
   -6.9920   14.5370    0.7660 C   0  0  0  0  0  0  0  0  0  0  0  0
   -6.8630   14.8400   -0.5100 N   0  0  0  0  0  0  0  0  0  0  0  0
   -8.2710   14.2230    1.4680 C   0  0  0  0  0  0  0  0  0  0  0  0
   -8.1650   14.5280    2.8750 N   0  0  0  0  0  0  0  0  0  0  0  0
   -8.8020   15.4950    3.6070 C   0  0  0  0  0  0  0  0  0  0  0  0
   -9.4840   16.2950    2.9590 O   0  0  0  0  0  0  0  0  0  0  0  0
   -8.6780   15.5510    5.0480 C   0  0  0  0  0  0  0  0  0  0  0  0
   -8.0730   14.4670    5.6400 O   0  0  0  0  0  0  0  0  0  0  0  0
   -9.0250   16.4480    6.0370 C   0  0  0  0  0  0  0  0  0  0  0  0
   -8.6110   15.8860    7.2760 C   0  0  0  0  0  0  0  0  0  0  0  0
   -8.0360   14.6800    6.9720 C   0  0  0  0  0  0  0  0  0  0  0  0
  1  2  1  0
  2  3  1  1
  1  4  1  0
  4  5  2  0
  2  6  1  0
  4  7  1  0
  6  8  2  0
  6  9  1  0
  7 10  1  0
  7 11  1  0
  9 12  1  0
 10 13  1  0
 11 14  1  0
 13 14  1  0
 12 15  1  0
 15 16  1  0
 16 17  1  0
 17 18  2  0
 17 19  1  0
 18 20  1  0
 19 21  2  0
 20 22  1  0
 20 23  2  0
 21 23  1  0
 22 24  1  0
 23 25  1  0
 24 25  2  0
 24 26  1  0
 26 27  1  0
 27 28  1  0
 28 29  2  0
 28 30  1  0
 30 31  1  0
 30 32  2  0
 32 33  1  0
 31 34  1  0
 33 34  2  0
M  END
