x0724_0_A-x0371_0_A
     RDKit          3D

 20 22  0  0  0  0  0  0  0  0999 V2000
   -9.3370   13.4960    3.6680 N   0  0  0  0  0  0  0  0  0  0  0  0
   -9.4630   13.0470    5.0580 C   0  0  0  0  0  0  0  0  0  0  0  0
   -8.8920   14.8740    3.5560 C   0  0  2  0  0  0  0  0  0  0  0  0
   -9.9790   15.6790    3.1140 O   0  0  0  0  0  0  0  0  0  0  0  0
   -7.8930   14.8150    2.4060 C   0  0  0  0  0  0  0  0  0  0  0  0
   -8.6430   15.3100    4.9790 C   0  0  0  0  0  0  0  0  0  0  0  0
   -6.5060   14.8770    2.2560 C   0  0  0  0  0  0  0  0  0  0  0  0
   -8.3320   14.6530    1.0720 C   0  0  0  0  0  0  0  0  0  0  0  0
   -7.9080   14.4630    5.7550 O   0  0  0  0  0  0  0  0  0  0  0  0
   -9.0360   16.3960    5.7380 C   0  0  0  0  0  0  0  0  0  0  0  0
   -7.3630   14.6170    0.1740 N   0  0  0  0  0  0  0  0  0  0  0  0
   -6.2260   14.7550    0.8910 N   0  0  0  0  0  0  0  0  0  0  0  0
   -8.5230   16.1730    7.0370 C   0  0  0  0  0  0  0  0  0  0  0  0
   -7.8440   14.9900    6.9900 C   0  0  0  0  0  0  0  0  0  0  0  0
   -4.9880   14.7600    0.1870 C   0  0  0  0  0  0  0  0  0  0  0  0
   -3.7670   14.8210    0.8770 C   0  0  0  0  0  0  0  0  0  0  0  0
   -4.9830   14.7060   -1.2170 C   0  0  0  0  0  0  0  0  0  0  0  0
   -2.5670   14.8240    0.1660 C   0  0  0  0  0  0  0  0  0  0  0  0
   -3.7800   14.7100   -1.9200 C   0  0  0  0  0  0  0  0  0  0  0  0
   -2.5730   14.7690   -1.2300 C   0  0  0  0  0  0  0  0  0  0  0  0
  1  2  1  0
  1  3  1  0
  3  4  1  6
  3  5  1  0
  3  6  1  0
  5  7  2  0
  5  8  1  0
  6  9  1  0
  6 10  2  0
  8 11  2  0
  7 12  1  0
 11 12  1  0
 10 13  1  0
  9 14  1  0
 13 14  2  0
 12 15  1  0
 15 16  2  0
 15 17  1  0
 16 18  1  0
 17 19  2  0
 18 20  2  0
 19 20  1  0
M  END
