x0727_0_A-x0662_0_A
     RDKit          3D

 23 24  0  0  0  0  0  0  0  0999 V2000
    0.1380   11.4870   -5.7040 C   0  0  0  0  0  0  0  0  0  0  0  0
    0.8790   12.4080   -4.7580 C   0  0  1  0  0  0  0  0  0  0  0  0
    0.4190   13.8490   -4.9310 C   0  0  0  0  0  0  0  0  0  0  0  0
    0.9530   11.1570   -6.9380 C   0  0  0  0  0  0  0  0  0  0  0  0
   -0.9850   11.0430   -5.5300 O   0  0  0  0  0  0  0  0  0  0  0  0
    1.8440   11.9290   -7.1430 O   0  0  0  0  0  0  0  0  0  0  0  0
    0.7150   11.9580   -3.3280 C   0  0  0  0  0  0  0  0  0  0  0  0
    0.6780    9.9180   -7.7730 C   0  0  2  0  0  0  0  0  0  0  0  0
    0.2290   10.8850   -3.0090 O   0  0  0  0  0  0  0  0  0  0  0  0
    1.1630   12.8510   -2.4180 O   0  0  0  0  0  0  0  0  0  0  0  0
   -0.0560   10.2170   -9.1030 C   0  0  1  0  0  0  0  0  0  0  0  0
   -0.1160    8.8430   -7.0070 C   0  0  0  0  0  0  0  0  0  0  0  0
    0.8130   10.3480  -10.3520 N   0  0  0  0  0  0  0  0  0  0  0  0
   -1.1460    9.1160   -9.1440 C   0  0  0  0  0  0  0  0  0  0  0  0
   -1.4670    8.7970   -7.6820 C   0  0  0  0  0  0  0  0  0  0  0  0
    1.7710    9.4480  -10.9120 C   0  0  0  0  0  0  0  0  0  0  0  0
    1.9930    8.3300  -10.4620 O   0  0  0  0  0  0  0  0  0  0  0  0
    2.5350    9.9490  -12.1220 C   0  0  0  0  0  0  0  0  0  0  0  0
    2.4040   11.1880  -12.8220 C   0  0  0  0  0  0  0  0  0  0  0  0
    3.5210    9.2030  -12.7100 N   0  0  0  0  0  0  0  0  0  0  0  0
    3.9810    9.9640  -13.7340 N   0  0  0  0  0  0  0  0  0  0  0  0
    3.3390   11.1630  -13.8400 C   0  0  0  0  0  0  0  0  0  0  0  0
    5.0520    9.4760  -14.5790 C   0  0  0  0  0  0  0  0  0  0  0  0
  1  2  1  0
  2  3  1  1
  1  4  1  0
  1  5  2  0
  4  6  2  0
  2  7  1  0
  8  4  1  1
  7  9  2  0
  7 10  1  0
  8 11  1  0
  8 12  1  0
 11 13  1  6
 11 14  1  0
 12 15  1  0
 14 15  1  0
 13 16  1  0
 16 17  2  0
 16 18  1  0
 18 19  1  0
 18 20  2  0
 20 21  1  0
 19 22  2  0
 21 22  1  0
 21 23  1  0
M  END
