x0724_0_A_α-x0685_1_A_α
     RDKit          3D

 29 31  0  0  0  0  0  0  0  0999 V2000
   -8.2720   13.7660    4.4160 N   0  0  0  0  0  0  0  0  0  0  0  0
   -8.6540   13.9460    5.8140 C   0  0  0  0  0  0  0  0  0  0  0  0
   -8.4670   14.9950    3.6600 C   0  0  0  0  0  0  0  0  0  0  0  0
   -7.7700   14.8480    2.3540 C   0  0  0  0  0  0  0  0  0  0  0  0
   -6.4130   14.8570    2.1090 C   0  0  0  0  0  0  0  0  0  0  0  0
   -8.3350   14.6750    1.0740 C   0  0  0  0  0  0  0  0  0  0  0  0
   -7.4150   14.5910    0.1080 N   0  0  0  0  0  0  0  0  0  0  0  0
   -6.2250   14.7080    0.7550 N   0  0  0  0  0  0  0  0  0  0  0  0
   -4.9870   14.6790    0.0610 C   0  0  0  0  0  0  0  0  0  0  0  0
   -3.7730   14.7710    0.7550 C   0  0  0  0  0  0  0  0  0  0  0  0
   -4.9820   14.5560   -1.3340 C   0  0  0  0  0  0  0  0  0  0  0  0
   -2.5640   14.7330    0.0550 C   0  0  0  0  0  0  0  0  0  0  0  0
   -3.7730   14.5200   -2.0280 C   0  0  0  0  0  0  0  0  0  0  0  0
   -2.5550   14.6030   -1.3410 C   0  0  0  0  0  0  0  0  0  0  0  0
   -1.2570   14.5460   -2.1130 C   0  0  0  0  0  0  0  0  0  0  0  0
   -0.0720   14.1080   -1.2530 C   0  0  0  0  0  0  0  0  0  0  0  0
    0.0170   12.6920   -1.3360 O   0  0  0  0  0  0  0  0  0  0  0  0
    0.6670   11.9820   -2.6260 S   0  0  0  0  0  0  0  0  0  0  0  0
   -0.0780   12.5820   -4.1520 C   0  0  0  0  0  0  0  0  0  0  0  0
    2.2230   12.3180   -2.8100 O   0  0  0  0  0  0  0  0  0  0  0  0
    0.3880   10.3960   -2.5750 O   0  0  0  0  0  0  0  0  0  0  0  0
   -1.4640   11.9960   -4.4200 C   0  0  0  0  0  0  0  0  0  0  0  0
   -1.4020   10.5790   -4.8380 N   0  0  0  0  0  0  0  0  0  0  0  0
   -0.7440   10.3500   -6.1430 C   0  0  0  0  0  0  0  0  0  0  0  0
   -0.5470    8.8540   -6.4490 C   0  0  0  0  0  0  0  0  0  0  0  0
   -1.6110   10.9670   -7.2650 C   0  0  0  0  0  0  0  0  0  0  0  0
    0.1170    8.6320   -7.8060 C   0  0  0  0  0  0  0  0  0  0  0  0
   -1.0470   10.7210   -8.6690 C   0  0  0  0  0  0  0  0  0  0  0  0
   -0.7200    9.2490   -8.9250 C   0  0  0  0  0  0  0  0  0  0  0  0
  1  2  1  0
  1  3  1  0
  3  4  1  0
  4  5  2  0
  4  6  1  0
  6  7  2  0
  5  8  1  0
  7  8  1  0
  8  9  1  0
  9 10  2  0
  9 11  1  0
 10 12  1  0
 11 13  2  0
 12 14  2  0
 13 14  1  0
 14 15  1  0
 15 16  1  0
 16 17  1  0
 18 17  1  0
 18 19  1  0
 18 20  1  0
 18 21  1  0
 19 22  1  0
 22 23  1  0
 23 24  1  0
 24 25  1  0
 24 26  1  0
 25 27  1  0
 26 28  1  0
 27 29  1  0
 28 29  1  0
M  END
