x0729_0_A-x0259_0_A
     RDKit          3D

 27 29  0  0  0  0  0  0  0  0999 V2000
   19.8410   25.1730    5.7310 C   0  0  0  0  0  0  0  0  0  0  0  0
   20.8370   26.0730    6.4640 C   0  0  2  0  0  0  0  0  0  0  0  0
   20.3130   26.8340    7.6110 N   0  0  0  0  0  0  0  0  0  0  0  0
   21.5500   27.0670    5.5410 C   0  0  2  0  0  0  0  0  0  0  0  0
   21.7780   26.5100    4.1900 C   0  0  0  0  0  0  0  0  0  0  0  0
   18.7400   26.6680    8.2350 S   0  0  2  0  0  0  0  0  0  0  0  0
   21.4200   27.4150    8.4010 C   0  0  0  0  0  0  0  0  0  0  0  0
   22.8470   27.5070    6.2280 C   0  0  0  0  0  0  0  0  0  0  0  0
   18.3410   28.2340    7.5400 C   0  0  0  0  0  0  0  0  0  0  0  0
   21.9410   26.0940    3.1190 N   0  0  0  0  0  0  0  0  0  0  0  0
   19.9740   25.6130    8.4210 O   0  0  0  0  0  0  0  0  0  0  0  0
   17.7630   25.5370    9.1210 C   0  0  0  0  0  0  0  0  0  0  0  0
   22.5720   28.1090    7.6170 C   0  0  0  0  0  0  0  0  0  0  0  0
   19.4590   28.8440    6.9020 N   0  0  0  0  0  0  0  0  0  0  0  0
   17.0120   29.0020    7.5580 C   0  0  1  0  0  0  0  0  0  0  0  0
   20.0920   29.9990    7.5500 C   0  0  0  0  0  0  0  0  0  0  0  0
   19.7590   28.6710    5.4830 C   0  0  0  0  0  0  0  0  0  0  0  0
   17.0150   30.2230    8.4590 C   0  0  0  0  0  0  0  0  0  0  0  0
   16.5790   29.5930    6.2190 C   0  0  0  0  0  0  0  0  0  0  0  0
   18.9240   27.8800    4.7800 N   0  0  0  0  0  0  0  0  0  0  0  0
   20.8600   29.2800    4.8590 C   0  0  0  0  0  0  0  0  0  0  0  0
   16.1020   30.9330    6.4660 O   0  0  0  0  0  0  0  0  0  0  0  0
   15.8930   31.0320    7.8670 C   0  0  0  0  0  0  0  0  0  0  0  0
   22.0190   30.3130    5.6080 Cl  0  0  0  0  0  0  0  0  0  0  0  0
   19.1780   27.6890    3.4750 C   0  0  0  0  0  0  0  0  0  0  0  0
   21.0180   29.0100    3.5100 C   0  0  0  0  0  0  0  0  0  0  0  0
   20.1950   28.2200    2.7920 N   0  0  0  0  0  0  0  0  0  0  0  0
  2  1  1  6
  2  3  1  0
  2  4  1  0
  4  5  1  6
  3  6  1  0
  3  7  1  0
  4  8  1  0
  6  9  2  0
  5 10  3  0
  6 11  2  0
  6 12  1  6
  7 13  1  0
  8 13  1  0
  9 14  1  0
 15  9  1  6
 14 16  1  0
 14 17  1  0
 15 18  1  0
 15 19  1  0
 17 20  2  0
 17 21  1  0
 19 22  1  0
 18 23  1  0
 22 23  1  0
 21 24  1  0
 20 25  1  0
 21 26  2  0
 25 27  2  0
 26 27  1  0
M  END
