x0724_0_A-x0371_0_A
     RDKit          3D

 20 22  0  0  0  0  0  0  0  0999 V2000
   -9.3360   13.4950    3.6700 N   0  0  0  0  0  0  0  0  0  0  0  0
   -9.4590   13.0560    5.0630 C   0  0  0  0  0  0  0  0  0  0  0  0
   -8.8900   14.8730    3.5550 C   0  0  2  0  0  0  0  0  0  0  0  0
   -9.9770   15.6780    3.1130 O   0  0  0  0  0  0  0  0  0  0  0  0
   -7.8930   14.8140    2.4060 C   0  0  0  0  0  0  0  0  0  0  0  0
   -8.6430   15.3090    4.9780 C   0  0  0  0  0  0  0  0  0  0  0  0
   -6.5070   14.8750    2.2570 C   0  0  0  0  0  0  0  0  0  0  0  0
   -8.3320   14.6530    1.0710 C   0  0  0  0  0  0  0  0  0  0  0  0
   -7.9120   14.4580    5.7530 O   0  0  0  0  0  0  0  0  0  0  0  0
   -9.0320   16.3970    5.7380 C   0  0  0  0  0  0  0  0  0  0  0  0
   -7.3630   14.6150    0.1740 N   0  0  0  0  0  0  0  0  0  0  0  0
   -6.2260   14.7540    0.8920 N   0  0  0  0  0  0  0  0  0  0  0  0
   -8.5230   16.1690    7.0350 C   0  0  0  0  0  0  0  0  0  0  0  0
   -7.8480   14.9840    6.9890 C   0  0  0  0  0  0  0  0  0  0  0  0
   -4.9890   14.7600    0.1870 C   0  0  0  0  0  0  0  0  0  0  0  0
   -3.7680   14.8220    0.8770 C   0  0  0  0  0  0  0  0  0  0  0  0
   -4.9830   14.7050   -1.2180 C   0  0  0  0  0  0  0  0  0  0  0  0
   -2.5670   14.8260    0.1650 C   0  0  0  0  0  0  0  0  0  0  0  0
   -3.7800   14.7120   -1.9210 C   0  0  0  0  0  0  0  0  0  0  0  0
   -2.5710   14.7720   -1.2310 C   0  0  0  0  0  0  0  0  0  0  0  0
  1  2  1  0
  1  3  1  0
  3  4  1  6
  3  5  1  0
  3  6  1  0
  5  7  2  0
  5  8  1  0
  6  9  1  0
  6 10  2  0
  8 11  2  0
  7 12  1  0
 11 12  1  0
 10 13  1  0
  9 14  1  0
 13 14  2  0
 12 15  1  0
 15 16  2  0
 15 17  1  0
 16 18  1  0
 17 19  2  0
 18 20  2  0
 19 20  1  0
M  END
