x0722_0_A-x0910_0_A
     RDKit          3D

 12 12  0  0  0  0  0  0  0  0999 V2000
   -4.4420   15.7570    2.2520 C   0  0  0  0  0  0  0  0  0  0  0  0
   -3.4450   15.2670    1.3230 C   0  0  0  0  0  0  0  0  0  0  0  0
   -2.2780   14.9060    1.8100 N   0  0  0  0  0  0  0  0  0  0  0  0
   -3.5280   15.1240   -0.0770 C   0  0  0  0  0  0  0  0  0  0  0  0
   -4.7060   15.4410   -0.9560 C   0  0  0  0  0  0  0  0  0  0  0  0
   -2.2720   14.6380   -0.4180 C   0  0  0  0  0  0  0  0  0  0  0  0
   -1.5740   14.5380    0.7600 N   0  0  0  0  0  0  0  0  0  0  0  0
   -0.2210   14.1040    0.9830 C   0  0  0  0  0  0  0  0  0  0  0  0
   -1.6880   14.2780   -1.7250 C   0  0  0  0  0  0  0  0  0  0  0  0
   -5.9720   14.6720   -0.6190 C   0  0  0  0  0  0  0  0  0  0  0  0
   -7.0990   15.1350   -0.7870 O   0  0  0  0  0  0  0  0  0  0  0  0
   -5.8380   13.4130   -0.1070 N   0  0  0  0  0  0  0  0  0  0  0  0
  1  2  1  0
  2  3  2  0
  2  4  1  0
  4  5  1  0
  4  6  2  0
  3  7  1  0
  6  7  1  0
  7  8  1  0
  6  9  1  0
  5 10  1  0
 10 11  2  0
 10 12  1  0
M  END
