x0724_0_A-x0855_0_A
     RDKit          3D

 27 29  0  0  0  0  0  0  0  0999 V2000
   -8.6630   13.8400    4.3250 N   0  0  0  0  0  0  0  0  0  0  0  0
   -8.4760   13.9450    5.7650 C   0  0  0  0  0  0  0  0  0  0  0  0
   -8.4150   15.0960    3.6210 C   0  0  0  0  0  0  0  0  0  0  0  0
   -7.7600   14.8610    2.3060 C   0  0  0  0  0  0  0  0  0  0  0  0
   -6.4210   14.9380    2.0150 C   0  0  0  0  0  0  0  0  0  0  0  0
   -8.3400   14.5190    1.0670 C   0  0  0  0  0  0  0  0  0  0  0  0
   -7.4340   14.3950    0.0870 N   0  0  0  0  0  0  0  0  0  0  0  0
   -6.2410   14.6570    0.6850 N   0  0  0  0  0  0  0  0  0  0  0  0
   -5.0070   14.6240   -0.0230 C   0  0  0  0  0  0  0  0  0  0  0  0
   -3.8040   14.7180    0.7060 C   0  0  0  0  0  0  0  0  0  0  0  0
   -4.9540   14.4960   -1.4150 C   0  0  0  0  0  0  0  0  0  0  0  0
   -2.5780   14.6680    0.0510 C   0  0  0  0  0  0  0  0  0  0  0  0
   -3.7190   14.4460   -2.0660 C   0  0  0  0  0  0  0  0  0  0  0  0
   -2.5150   14.5250   -1.3400 C   0  0  0  0  0  0  0  0  0  0  0  0
   -1.1810   14.4460   -2.0480 C   0  0  0  0  0  0  0  0  0  0  0  0
   -0.0580   13.7460   -1.2560 C   0  0  0  0  0  0  0  0  0  0  0  0
    1.3410   14.0110   -1.8160 C   0  0  0  0  0  0  0  0  0  0  0  0
    1.8770   12.8940   -2.5490 O   0  0  0  0  0  0  0  0  0  0  0  0
    1.0090   12.0750   -3.2040 C   0  0  0  0  0  0  0  0  0  0  0  0
    0.5720   11.0300   -2.7250 O   0  0  0  0  0  0  0  0  0  0  0  0
    0.6260   12.5430   -4.5830 C   0  0  0  0  0  0  0  0  0  0  0  0
   -0.4250   11.7050   -5.1200 N   0  0  0  0  0  0  0  0  0  0  0  0
   -0.3050   10.7600   -6.1010 C   0  0  0  0  0  0  0  0  0  0  0  0
   -1.6790   11.8130   -4.6310 N   0  0  0  0  0  0  0  0  0  0  0  0
   -1.5550   10.2240   -6.2410 C   0  0  0  0  0  0  0  0  0  0  0  0
   -2.3670   10.9000   -5.3240 C   0  0  0  0  0  0  0  0  0  0  0  0
   -2.0980    8.8690   -7.4020 Br  0  0  0  0  0  0  0  0  0  0  0  0
  1  2  1  0
  1  3  1  0
  3  4  1  0
  4  5  2  0
  4  6  1  0
  6  7  2  0
  5  8  1  0
  7  8  1  0
  8  9  1  0
  9 10  2  0
  9 11  1  0
 10 12  1  0
 11 13  2  0
 12 14  2  0
 13 14  1  0
 14 15  1  0
 15 16  1  0
 16 17  1  0
 17 18  1  0
 18 19  1  0
 19 20  2  0
 19 21  1  0
 21 22  1  0
 22 23  1  0
 22 24  1  0
 23 25  2  0
 24 26  2  0
 25 26  1  0
 25 27  1  0
M  END
