x0722_0_A-x1018_0_A
     RDKit          3D

 22 24  0  0  0  0  0  0  0  0999 V2000
   -4.4790   15.2490    2.5040 C   0  0  0  0  0  0  0  0  0  0  0  0
   -3.4210   15.0520    1.4830 C   0  0  0  0  0  0  0  0  0  0  0  0
   -2.1880   14.9720    1.9130 N   0  0  0  0  0  0  0  0  0  0  0  0
   -3.4800   14.9170    0.0590 C   0  0  0  0  0  0  0  0  0  0  0  0
   -4.7440   14.9250   -0.7590 C   0  0  1  0  0  0  0  0  0  0  0  0
   -2.1350   14.7580   -0.3070 C   0  0  0  0  0  0  0  0  0  0  0  0
   -1.4360   14.7980    0.8510 N   0  0  0  0  0  0  0  0  0  0  0  0
   -0.0240   14.6700    1.0250 C   0  0  0  0  0  0  0  0  0  0  0  0
   -1.4080   14.5650   -1.5910 C   0  0  0  0  0  0  0  0  0  0  0  0
   -6.1020   15.4260   -0.3200 C   0  0  0  0  0  0  0  0  0  0  0  0
   -4.7680   14.6170   -2.1770 N   0  0  0  0  0  0  0  0  0  0  0  0
   -6.7950   16.1930   -0.9830 O   0  0  0  0  0  0  0  0  0  0  0  0
   -6.5860   14.9180    0.8560 N   0  0  0  0  0  0  0  0  0  0  0  0
   -3.4670   14.1510   -2.6320 N   0  0  0  0  0  0  0  0  0  0  0  0
   -5.4780   13.4560   -2.1060 N   0  0  0  0  0  0  0  0  0  0  0  0
   -3.2460   12.9270   -1.8550 N   0  0  0  0  0  0  0  0  0  0  0  0
   -4.5650   12.5750   -1.3510 C   0  0  1  0  0  0  0  0  0  0  0  0
   -6.8020   13.5130   -1.6970 N   0  0  0  0  0  0  0  0  0  0  0  0
   -7.0240   13.3370   -0.4050 C   0  0  0  0  0  0  0  0  0  0  0  0
   -4.7720   12.7270    0.1350 C   0  0  0  0  0  0  0  0  0  0  0  0
   -8.6650   13.4380    0.1230 Cl  0  0  0  0  0  0  0  0  0  0  0  0
   -5.9580   13.0820    0.6200 C   0  0  0  0  0  0  0  0  0  0  0  0
  1  2  1  0
  2  3  2  0
  2  4  1  0
  4  5  1  0
  4  6  2  0
  3  7  1  0
  6  7  1  0
  7  8  1  0
  6  9  1  0
  5 10  1  6
  5 11  1  0
 10 12  2  0
 10 13  1  0
 11 14  1  0
 11 15  1  0
 14 16  1  0
 15 17  1  0
 16 17  1  0
 15 18  1  0
 18 19  2  0
 17 20  1  1
 19 21  1  0
 19 22  1  0
 20 22  2  0
M  END
