x0727_0_A-x0724_0_A
     RDKit          3D

 30 32  0  0  0  0  0  0  0  0999 V2000
    0.1240   11.4350   -5.6010 N   0  0  0  0  0  0  0  0  0  0  0  0
    0.8990   12.3340   -4.7360 C   0  0  1  0  0  0  0  0  0  0  0  0
    0.4380   13.7680   -4.9160 C   0  0  0  0  0  0  0  0  0  0  0  0
    0.7030   11.1010   -6.8050 C   0  0  0  0  0  0  0  0  0  0  0  0
    1.6390   11.7310   -7.2160 O   0  0  0  0  0  0  0  0  0  0  0  0
    0.7720   11.8790   -3.2690 C   0  0  0  0  0  0  0  0  0  0  0  0
    0.1250    9.8890   -7.5380 C   0  0  0  0  0  0  0  0  0  0  0  0
   -0.0220   11.0290   -2.8720 O   0  0  0  0  0  0  0  0  0  0  0  0
    1.6770   12.5190   -2.4670 O   0  0  0  0  0  0  0  0  0  0  0  0
   -1.1440   10.2110   -8.3320 C   0  0  0  0  0  0  0  0  0  0  0  0
   -0.2390    8.7510   -6.5700 C   0  0  0  0  0  0  0  0  0  0  0  0
    1.2540   13.7520   -1.8540 C   0  0  0  0  0  0  0  0  0  0  0  0
   -2.2830    9.5080   -7.6020 C   0  0  0  0  0  0  0  0  0  0  0  0
   -1.6410    8.3040   -6.9390 C   0  0  0  0  0  0  0  0  0  0  0  0
   -0.1460   13.5700   -1.2710 C   0  0  0  0  0  0  0  0  0  0  0  0
   -1.1900   14.4250   -1.9960 C   0  0  0  0  0  0  0  0  0  0  0  0
   -2.5120   14.5100   -1.2760 C   0  0  0  0  0  0  0  0  0  0  0  0
   -2.5500   14.6580    0.1170 C   0  0  0  0  0  0  0  0  0  0  0  0
   -3.7150   14.4390   -1.9850 C   0  0  0  0  0  0  0  0  0  0  0  0
   -3.7700   14.7230    0.7930 C   0  0  0  0  0  0  0  0  0  0  0  0
   -4.9390   14.5020   -1.3160 C   0  0  0  0  0  0  0  0  0  0  0  0
   -4.9720   14.6400    0.0800 C   0  0  0  0  0  0  0  0  0  0  0  0
   -6.2250   14.6880    0.7580 N   0  0  0  0  0  0  0  0  0  0  0  0
   -7.4080   14.5730    0.1010 N   0  0  0  0  0  0  0  0  0  0  0  0
   -6.4280   14.8480    2.1140 C   0  0  0  0  0  0  0  0  0  0  0  0
   -7.7890   14.8470    2.3430 C   0  0  0  0  0  0  0  0  0  0  0  0
   -8.3390   14.6670    1.0550 C   0  0  0  0  0  0  0  0  0  0  0  0
   -8.4970   15.0070    3.6400 C   0  0  0  0  0  0  0  0  0  0  0  0
   -8.2670   13.8030    4.4270 N   0  0  0  0  0  0  0  0  0  0  0  0
   -8.7110   13.9760    5.8010 C   0  0  0  0  0  0  0  0  0  0  0  0
  1  2  1  0
  2  3  1  1
  1  4  1  0
  4  5  2  0
  2  6  1  0
  4  7  1  0
  6  8  2  0
  6  9  1  0
  7 10  1  0
  7 11  1  0
  9 12  1  0
 10 13  1  0
 11 14  1  0
 13 14  1  0
 12 15  1  0
 15 16  1  0
 16 17  1  0
 17 18  2  0
 17 19  1  0
 18 20  1  0
 19 21  2  0
 20 22  2  0
 21 22  1  0
 22 23  1  0
 23 24  1  0
 23 25  1  0
 25 26  2  0
 24 27  2  0
 26 27  1  0
 26 28  1  0
 28 29  1  0
 29 30  1  0
M  END
