x0724_0_A_α-x0711_0_A_α
     RDKit          3D

 22 23  0  0  0  0  0  0  0  0999 V2000
   -8.8720   13.9300    4.5650 N   0  0  0  0  0  0  0  0  0  0  0  0
   -8.7000   13.6590    5.9810 C   0  0  0  0  0  0  0  0  0  0  0  0
   -8.1370   15.1310    4.2010 C   0  0  0  0  0  0  0  0  0  0  0  0
   -7.5260   14.9110    2.8760 C   0  0  0  0  0  0  0  0  0  0  0  0
   -6.1950   15.0410    2.5270 C   0  0  0  0  0  0  0  0  0  0  0  0
   -8.1490   14.5330    1.6860 C   0  0  0  0  0  0  0  0  0  0  0  0
   -7.2870   14.4430    0.6900 N   0  0  0  0  0  0  0  0  0  0  0  0
   -6.0670   14.7600    1.2060 N   0  0  0  0  0  0  0  0  0  0  0  0
   -4.9240   14.7780    0.3660 C   0  0  0  0  0  0  0  0  0  0  0  0
   -3.5870   14.9570    0.7550 C   0  0  0  0  0  0  0  0  0  0  0  0
   -5.2250   14.6120   -0.9380 C   0  0  0  0  0  0  0  0  0  0  0  0
   -6.6410   14.3970   -1.2430 C   0  0  0  0  0  0  0  0  0  0  0  0
   -2.5780   14.9820   -0.2300 C   0  0  0  0  0  0  0  0  0  0  0  0
   -4.2420   14.6410   -1.9450 C   0  0  0  0  0  0  0  0  0  0  0  0
   -7.2030   13.3610   -0.5590 N   0  0  0  0  0  0  0  0  0  0  0  0
   -7.2820   15.0930   -1.9930 O   0  0  0  0  0  0  0  0  0  0  0  0
   -2.9050   14.8370   -1.5940 C   0  0  0  0  0  0  0  0  0  0  0  0
   -1.9440   14.8990   -2.6590 N   0  0  0  0  0  0  0  0  0  0  0  0
   -0.6210   13.8820   -2.9060 S   0  0  0  0  0  0  0  0  0  0  0  0
   -1.3380   12.6090   -3.9250 C   0  0  0  0  0  0  0  0  0  0  0  0
    0.2710   14.6420   -3.7580 O   0  0  0  0  0  0  0  0  0  0  0  0
   -0.1560   13.3000   -1.6700 O   0  0  0  0  0  0  0  0  0  0  0  0
  1  2  1  0
  1  3  1  0
  3  4  1  0
  4  5  2  0
  4  6  1  0
  6  7  2  0
  5  8  1  0
  7  8  1  0
  8  9  1  0
  9 10  2  0
  9 11  1  0
 11 12  1  0
 10 13  1  0
 11 14  2  0
 12 15  1  0
 12 16  2  0
 13 17  2  0
 14 17  1  0
 17 18  1  0
 19 18  1  0
 19 20  1  0
 19 21  2  0
 19 22  2  0
M  END
