x0727_0_A_α-x1015_0_A_α
     RDKit          3D

 18 19  0  0  0  0  0  0  0  0999 V2000
    1.0840   11.9470   -5.0510 N   0  0  0  0  0  0  0  0  0  0  0  0
    1.8880   12.8050   -4.2770 C   0  0  1  0  0  0  0  0  0  0  0  0
    1.6890   14.2680   -4.6090 C   0  0  0  0  0  0  0  0  0  0  0  0
    1.3100   11.7210   -6.3340 C   0  0  0  0  0  0  0  0  0  0  0  0
    1.0320   11.4710   -7.4370 O   0  0  0  0  0  0  0  0  0  0  0  0
    1.4820   12.5040   -2.8510 C   0  0  0  0  0  0  0  0  0  0  0  0
   -0.7270   11.5590   -6.0070 S   0  0  0  0  0  0  0  0  0  0  0  0
    2.4380   12.9700   -2.0020 O   0  0  0  0  0  0  0  0  0  0  0  0
   -1.8280   10.9420   -7.4340 C   0  0  0  0  0  0  0  0  0  0  0  0
   -0.8060    9.7380   -5.7640 C   0  0  0  0  0  0  0  0  0  0  0  0
   -0.9750   12.0510   -4.1640 C   0  0  1  0  0  0  0  0  0  0  0  0
   -1.5450   13.1310   -5.5250 C   0  0  0  0  0  0  0  0  0  0  0  0
   -0.8200   11.1570   -3.1380 C   0  0  0  0  0  0  0  0  0  0  0  0
   -1.9550    9.4020   -7.4450 C   0  0  0  0  0  0  0  0  0  0  0  0
   -0.7020    9.0290   -6.9810 C   0  0  0  0  0  0  0  0  0  0  0  0
   -0.5790   13.9910   -4.9370 N   0  0  0  0  0  0  0  0  0  0  0  0
   -0.5390   13.4180   -3.7710 C   0  0  0  0  0  0  0  0  0  0  0  0
   -0.2140   14.0300   -2.6680 O   0  0  0  0  0  0  0  0  0  0  0  0
  1  2  1  0
  2  3  1  6
  1  4  1  0
  4  5  2  0
  2  6  1  0
  4  7  1  0
  6  8  1  0
  7  9  1  0
  7 10  1  0
  7 11  1  0
  7 12  1  0
 11 13  1  1
  9 14  1  0
 10 15  1  0
 14 15  1  0
 12 16  1  0
 11 17  1  0
 16 17  1  0
 17 18  2  0
M  END
