x0729_2_B_α-x0962_2_B_α
     RDKit          3D

 25 26  0  0  0  0  0  0  0  0999 V2000
  -13.8180   24.5830    1.8980 C   0  0  0  0  0  0  0  0  0  0  0  0
  -15.0970   23.7770    1.7020 C   0  0  1  0  0  0  0  0  0  0  0  0
  -16.1960   24.3880    2.5160 N   0  0  0  0  0  0  0  0  0  0  0  0
  -15.4280   23.7350    0.2020 C   0  0  1  0  0  0  0  0  0  0  0  0
  -15.0110   22.4270   -0.3460 C   0  0  0  0  0  0  0  0  0  0  0  0
  -15.8790   24.4550    4.1870 S   0  0  0  0  0  0  0  0  0  0  0  0
  -16.7540   25.6340    1.9290 C   0  0  0  0  0  0  0  0  0  0  0  0
  -16.8860   24.0910   -0.1160 C   0  0  0  0  0  0  0  0  0  0  0  0
  -16.3220   25.7310    4.7060 O   0  0  0  0  0  0  0  0  0  0  0  0
  -14.6440   21.3520   -0.7380 C   0  0  0  0  0  0  0  0  0  0  0  0
  -14.5290   23.9900    4.3330 O   0  0  0  0  0  0  0  0  0  0  0  0
  -16.9510   23.2070    4.8550 C   0  0  0  0  0  0  0  0  0  0  0  0
  -17.4300   25.3370    0.5980 C   0  0  0  0  0  0  0  0  0  0  0  0
  -14.2100   20.0040   -1.1430 C   0  0  0  0  0  0  0  0  0  0  0  0
  -12.9240   20.0000   -1.9790 C   0  0  0  0  0  0  0  0  0  0  0  0
  -11.6110   19.7410   -1.2250 C   0  0  0  0  0  0  0  0  0  0  0  0
  -11.6750   18.6640   -0.1350 C   0  0  0  0  0  0  0  0  0  0  0  0
  -10.8240   17.4390   -0.4660 C   0  0  0  0  0  0  0  0  0  0  0  0
  -10.3140   16.7890    0.7560 C   0  0  0  0  0  0  0  0  0  0  0  0
   -9.8280   16.2820    1.7330 C   0  0  0  0  0  0  0  0  0  0  0  0
   -9.1670   15.7170    2.8500 C   0  0  0  0  0  0  0  0  0  0  0  0
   -8.8870   16.3690    4.0240 N   0  0  0  0  0  0  0  0  0  0  0  0
   -8.6650   14.4480    3.0240 C   0  0  0  0  0  0  0  0  0  0  0  0
   -8.2370   15.4870    4.8400 C   0  0  0  0  0  0  0  0  0  0  0  0
   -8.0950   14.3140    4.2640 N   0  0  0  0  0  0  0  0  0  0  0  0
  2  1  1  6
  2  3  1  0
  2  4  1  0
  4  5  1  1
  3  6  1  0
  3  7  1  0
  4  8  1  0
  6  9  2  0
  5 10  3  0
  6 11  2  0
  6 12  1  0
  7 13  1  0
  8 13  1  0
 10 14  1  0
 14 15  1  0
 15 16  1  0
 16 17  1  0
 17 18  1  0
 18 19  1  0
 19 20  3  0
 20 21  1  0
 21 22  1  0
 21 23  2  0
 22 24  1  0
 23 25  1  0
 24 25  2  0
M  END
