x0724_0_A-x0905_0_A
     RDKit          3D

 15 16  0  0  0  0  0  0  0  0999 V2000
   -8.2740   13.7520    4.5230 N   0  0  0  0  0  0  0  0  0  0  0  0
   -8.7040   13.9150    5.9020 C   0  0  0  0  0  0  0  0  0  0  0  0
   -8.4780   14.9800    3.7720 C   0  0  0  0  0  0  0  0  0  0  0  0
   -7.7900   14.8340    2.4690 C   0  0  0  0  0  0  0  0  0  0  0  0
   -6.4380   14.8840    2.2140 C   0  0  0  0  0  0  0  0  0  0  0  0
   -8.3650   14.6180    1.2060 C   0  0  0  0  0  0  0  0  0  0  0  0
   -7.4600   14.5480    0.2360 N   0  0  0  0  0  0  0  0  0  0  0  0
   -6.2560   14.7200    0.8620 N   0  0  0  0  0  0  0  0  0  0  0  0
   -5.0740   14.7160    0.0820 C   0  0  0  0  0  0  0  0  0  0  0  0
   -3.8110   14.7260    0.7060 C   0  0  0  0  0  0  0  0  0  0  0  0
   -5.1480   14.7130   -1.3000 C   0  0  0  0  0  0  0  0  0  0  0  0
   -6.3740   14.7110   -1.9110 O   0  0  0  0  0  0  0  0  0  0  0  0
   -2.6440   14.7290   -0.0590 C   0  0  0  0  0  0  0  0  0  0  0  0
   -3.9810   14.7160   -2.0740 C   0  0  0  0  0  0  0  0  0  0  0  0
   -2.7310   14.7240   -1.4520 C   0  0  0  0  0  0  0  0  0  0  0  0
  1  2  1  0
  1  3  1  0
  3  4  1  0
  4  5  2  0
  4  6  1  0
  6  7  2  0
  5  8  1  0
  7  8  1  0
  8  9  1  0
  9 10  2  0
  9 11  1  0
 11 12  1  0
 10 13  1  0
 11 14  2  0
 13 15  2  0
 14 15  1  0
M  END
