x0722_0_A-x0438_0_A
     RDKit          3D

 25 27  0  0  0  0  0  0  0  0999 V2000
   -4.3430   15.7810    2.3390 C   0  0  0  0  0  0  0  0  0  0  0  0
   -3.3010   15.1840    1.5130 C   0  0  0  0  0  0  0  0  0  0  0  0
   -2.1380   14.9020    2.0020 N   0  0  0  0  0  0  0  0  0  0  0  0
   -3.3220   14.8520    0.1880 C   0  0  0  0  0  0  0  0  0  0  0  0
   -2.0920   14.3570   -0.1380 C   0  0  0  0  0  0  0  0  0  0  0  0
   -1.4190   14.4160    1.0160 N   0  0  0  0  0  0  0  0  0  0  0  0
   -4.3210   14.9700   -0.7230 C   0  0  0  0  0  0  0  0  0  0  0  0
   -0.0810   14.0400    1.2840 C   0  0  0  0  0  0  0  0  0  0  0  0
   -1.5100   13.8520   -1.4100 C   0  0  0  0  0  0  0  0  0  0  0  0
   -5.6820   14.7890   -0.4570 C   0  0  0  0  0  0  0  0  0  0  0  0
   -3.8540   15.2740   -1.9410 C   0  0  0  0  0  0  0  0  0  0  0  0
   -6.4600   14.4580    0.5970 N   0  0  0  0  0  0  0  0  0  0  0  0
   -6.5810   14.9320   -1.4010 C   0  0  0  0  0  0  0  0  0  0  0  0
   -4.7290   15.4010   -2.9060 C   0  0  0  0  0  0  0  0  0  0  0  0
   -7.7620   14.4180    0.2930 C   0  0  0  0  0  0  0  0  0  0  0  0
   -7.8760   14.7270   -0.9550 N   0  0  0  0  0  0  0  0  0  0  0  0
   -6.0950   15.2400   -2.6460 C   0  0  0  0  0  0  0  0  0  0  0  0
   -6.0410   14.1720    1.7420 N   0  0  0  0  0  0  0  0  0  0  0  0
   -8.8270   14.0340    1.2770 C   0  0  0  0  0  0  0  0  0  0  0  0
   -5.3610   13.1270    1.4580 C   0  0  0  0  0  0  0  0  0  0  0  0
   -9.3910   15.3340    2.3780 S   0  0  0  0  0  0  0  0  0  0  0  0
   -5.2840   12.6480    0.1880 N   0  0  0  0  0  0  0  0  0  0  0  0
   -8.1620   15.4730    3.6660 C   0  0  0  0  0  0  0  0  0  0  0  0
  -10.6160   14.8980    3.0290 O   0  0  0  0  0  0  0  0  0  0  0  0
   -9.4170   16.5640    1.6200 O   0  0  0  0  0  0  0  0  0  0  0  0
  1  2  1  0
  2  3  2  0
  2  4  1  0
  4  5  2  0
  3  6  1  0
  5  6  1  0
  4  7  1  0
  6  8  1  0
  5  9  1  0
  7 10  1  0
  7 11  2  0
 10 12  1  0
 10 13  2  0
 11 14  1  0
 12 15  1  0
 13 16  1  0
 15 16  2  0
 13 17  1  0
 14 17  2  0
 12 18  1  0
 15 19  1  0
 18 20  2  3
 21 19  1  0
 20 22  1  0
 21 23  1  0
 21 24  2  0
 21 25  2  0
M  END
