x0724_0_A_α-x1018_0_A_α
     RDKit          3D

 19 21  0  0  0  0  0  0  0  0999 V2000
   -8.3450   13.6840    4.0550 N   0  0  0  0  0  0  0  0  0  0  0  0
   -8.1370   13.8340    5.4920 C   0  0  0  0  0  0  0  0  0  0  0  0
   -9.1070   14.8120    3.5240 C   0  0  0  0  0  0  0  0  0  0  0  0
   -8.8010   15.0270    2.0730 C   0  0  0  0  0  0  0  0  0  0  0  0
   -7.6020   14.9470    1.4140 C   0  0  0  0  0  0  0  0  0  0  0  0
   -9.7040   15.3780    1.0420 C   0  0  0  0  0  0  0  0  0  0  0  0
   -9.1320   15.5200   -0.1620 N   0  0  0  0  0  0  0  0  0  0  0  0
   -7.8480   15.2640    0.0740 N   0  0  0  0  0  0  0  0  0  0  0  0
   -6.8220   15.3190   -0.9650 C   0  0  0  0  0  0  0  0  0  0  0  0
   -5.9430   14.4910   -0.1840 C   0  0  0  0  0  0  0  0  0  0  0  0
   -6.5820   13.4880    0.2550 N   0  0  0  0  0  0  0  0  0  0  0  0
   -4.5570   14.7420    0.2090 C   0  0  0  0  0  0  0  0  0  0  0  0
   -3.7870   13.5020    0.2900 C   0  0  1  0  0  0  0  0  0  0  0  0
   -3.8340   15.8020    0.5410 C   0  0  0  0  0  0  0  0  0  0  0  0
   -5.9260   12.7510    1.1430 C   0  0  0  0  0  0  0  0  0  0  0  0
   -6.9890   11.8840    2.1870 Cl  0  0  0  0  0  0  0  0  0  0  0  0
   -2.4380   14.0130    0.6860 C   0  0  0  0  0  0  0  0  0  0  0  0
   -2.4950   15.3250    0.8290 C   0  0  0  0  0  0  0  0  0  0  0  0
   -4.6010   12.7080    1.2470 C   0  0  0  0  0  0  0  0  0  0  0  0
  1  2  1  0
  1  3  1  0
  3  4  1  0
  4  5  2  0
  4  6  1  0
  6  7  2  0
  5  8  1  0
  7  8  1  0
  8  9  1  0
  9 10  1  0
 10 11  2  0
 10 12  1  0
 12 13  1  0
 12 14  2  0
 11 15  1  0
 15 16  1  0
 13 17  1  1
 14 18  1  0
 17 18  2  0
 13 19  1  0
 15 19  2  0
M  END
