x0729_1_B_α-x0259_0_A_α
     RDKit          3D

 26 28  0  0  0  0  0  0  0  0999 V2000
   19.6740   24.3420    7.0860 C   0  0  0  0  0  0  0  0  0  0  0  0
   19.9960   25.8130    6.8410 C   0  0  1  0  0  0  0  0  0  0  0  0
   20.1100   26.4880    8.1870 N   0  0  0  0  0  0  0  0  0  0  0  0
   21.1910   25.8830    5.8780 C   0  0  1  0  0  0  0  0  0  0  0  0
   20.6790   26.1980    4.5430 C   0  0  0  0  0  0  0  0  0  0  0  0
   18.8320   27.5160    8.6420 S   0  0  0  0  0  0  0  0  0  0  0  0
   21.4690   26.8920    8.6250 C   0  0  0  0  0  0  0  0  0  0  0  0
   22.3730   26.7880    6.2580 C   0  0  0  0  0  0  0  0  0  0  0  0
   19.3240   28.3570    9.7220 O   0  0  0  0  0  0  0  0  0  0  0  0
   20.2200   26.4450    3.5240 N   0  0  0  0  0  0  0  0  0  0  0  0
   17.6520   26.6990    8.8260 O   0  0  0  0  0  0  0  0  0  0  0  0
   18.6100   28.6250    7.1580 C   0  0  2  0  0  0  0  0  0  0  0  0
   22.1820   27.6350    7.5170 C   0  0  0  0  0  0  0  0  0  0  0  0
   19.8990   29.0300    6.5420 N   0  0  0  0  0  0  0  0  0  0  0  0
   17.5940   29.7670    7.2270 C   0  0  2  0  0  0  0  0  0  0  0  0
   20.2190   28.7010    5.2320 C   0  0  0  0  0  0  0  0  0  0  0  0
   17.4000   30.4280    8.5790 C   0  0  0  0  0  0  0  0  0  0  0  0
   16.1500   29.3980    6.9300 C   0  0  0  0  0  0  0  0  0  0  0  0
   19.2560   28.1970    4.4510 N   0  0  0  0  0  0  0  0  0  0  0  0
   21.5180   28.8970    4.7520 C   0  0  0  0  0  0  0  0  0  0  0  0
   15.4070   30.5640    7.3090 O   0  0  0  0  0  0  0  0  0  0  0  0
   16.1330   31.2270    8.3510 C   0  0  0  0  0  0  0  0  0  0  0  0
   22.8050   29.5460    5.7000 Cl  0  0  0  0  0  0  0  0  0  0  0  0
   19.5860   27.8900    3.1870 C   0  0  0  0  0  0  0  0  0  0  0  0
   21.7480   28.5420    3.4400 C   0  0  0  0  0  0  0  0  0  0  0  0
   20.7960   28.0360    2.6290 N   0  0  0  0  0  0  0  0  0  0  0  0
  2  1  1  1
  2  3  1  0
  2  4  1  0
  4  5  1  6
  6  3  1  0
  3  7  1  0
  4  8  1  0
  6  9  2  0
  5 10  3  0
  6 11  2  0
  6 12  1  0
  7 13  1  0
  8 13  1  0
 12 14  1  1
 12 15  1  0
 14 16  1  0
 15 17  1  1
 15 18  1  0
 16 19  2  0
 16 20  1  0
 18 21  1  0
 17 22  1  0
 21 22  1  0
 20 23  1  0
 19 24  1  0
 20 25  2  0
 24 26  2  0
 25 26  1  0
M  END
