x0724_0_A_α-x0905_0_A_α
     RDKit          3D

 15 16  0  0  0  0  0  0  0  0999 V2000
   -8.2780   13.7530    4.5270 N   0  0  0  0  0  0  0  0  0  0  0  0
   -8.7060   13.9140    5.9080 C   0  0  0  0  0  0  0  0  0  0  0  0
   -8.4800   14.9800    3.7750 C   0  0  0  0  0  0  0  0  0  0  0  0
   -7.7930   14.8340    2.4690 C   0  0  0  0  0  0  0  0  0  0  0  0
   -6.4390   14.8820    2.2090 C   0  0  0  0  0  0  0  0  0  0  0  0
   -8.3660   14.6210    1.2040 C   0  0  0  0  0  0  0  0  0  0  0  0
   -7.4620   14.5510    0.2320 N   0  0  0  0  0  0  0  0  0  0  0  0
   -6.2580   14.7200    0.8570 N   0  0  0  0  0  0  0  0  0  0  0  0
   -5.0710   14.7170    0.0800 C   0  0  0  0  0  0  0  0  0  0  0  0
   -3.8090   14.7260    0.7050 C   0  0  0  0  0  0  0  0  0  0  0  0
   -5.1440   14.7140   -1.3020 C   0  0  0  0  0  0  0  0  0  0  0  0
   -6.3670   14.7110   -1.9140 O   0  0  0  0  0  0  0  0  0  0  0  0
   -2.6420   14.7290   -0.0610 C   0  0  0  0  0  0  0  0  0  0  0  0
   -3.9760   14.7160   -2.0760 C   0  0  0  0  0  0  0  0  0  0  0  0
   -2.7290   14.7250   -1.4550 C   0  0  0  0  0  0  0  0  0  0  0  0
  1  2  1  0
  1  3  1  0
  3  4  1  0
  4  5  2  0
  4  6  1  0
  6  7  2  0
  5  8  1  0
  7  8  1  0
  8  9  1  0
  9 10  2  0
  9 11  1  0
 11 12  1  0
 10 13  1  0
 11 14  2  0
 13 15  2  0
 14 15  1  0
M  END
