x0727_0_A-x0926_0_A
     RDKit          3D

 23 24  0  0  0  0  0  0  0  0999 V2000
    0.1700   11.4530   -5.5180 N   0  0  0  0  0  0  0  0  0  0  0  0
    0.8880   12.3690   -4.6250 C   0  0  1  0  0  0  0  0  0  0  0  0
    0.4910   13.8130   -4.8940 C   0  0  0  0  0  0  0  0  0  0  0  0
    0.7180   11.1310   -6.7330 C   0  0  0  0  0  0  0  0  0  0  0  0
    1.6600   11.7470   -7.1610 O   0  0  0  0  0  0  0  0  0  0  0  0
    0.6350   11.9850   -3.1580 C   0  0  0  0  0  0  0  0  0  0  0  0
    0.0900    9.9550   -7.4680 C   0  0  0  0  0  0  0  0  0  0  0  0
    0.1590   10.9080   -2.7940 O   0  0  0  0  0  0  0  0  0  0  0  0
    1.0230   12.9960   -2.3190 O   0  0  0  0  0  0  0  0  0  0  0  0
   -1.2170   10.3190   -8.1840 C   0  0  0  0  0  0  0  0  0  0  0  0
   -0.2430    8.7650   -6.5490 C   0  0  0  0  0  0  0  0  0  0  0  0
    0.1370   13.3840   -1.2400 C   0  0  0  0  0  0  0  0  0  0  0  0
   -2.1010    9.0880   -8.0330 C   0  0  0  0  0  0  0  0  0  0  0  0
   -1.7420    8.5490   -6.6590 C   0  0  0  0  0  0  0  0  0  0  0  0
   -0.2350   14.8700   -1.3030 C   0  0  0  0  0  0  0  0  0  0  0  0
   -1.0940   15.3300   -0.1050 C   0  0  0  0  0  0  0  0  0  0  0  0
   -2.5810   14.9390   -0.2570 C   0  0  2  0  0  0  0  0  0  0  0  0
   -3.2270   15.5840   -1.4130 N   0  0  0  0  0  0  0  0  0  0  0  0
   -3.3850   15.1740    0.9930 C   0  0  0  0  0  0  0  0  0  0  0  0
   -4.7170   15.3010    0.9540 C   0  0  0  0  0  0  0  0  0  0  0  0
   -4.6250   15.3390   -1.4730 N   0  0  0  0  0  0  0  0  0  0  0  0
   -5.4190   15.2120   -0.3520 C   0  0  0  0  0  0  0  0  0  0  0  0
   -6.6310   15.0260   -0.4160 O   0  0  0  0  0  0  0  0  0  0  0  0
  1  2  1  0
  2  3  1  1
  1  4  1  0
  4  5  2  0
  2  6  1  0
  4  7  1  0
  6  8  2  0
  6  9  1  0
  7 10  1  0
  7 11  1  0
  9 12  1  0
 10 13  1  0
 11 14  1  0
 13 14  1  0
 12 15  1  0
 15 16  1  0
 17 16  1  1
 17 18  1  0
 17 19  1  0
 19 20  2  0
 18 21  1  0
 20 22  1  0
 21 22  1  0
 22 23  2  0
M  END
