x0722_0_A-x0471_0_A
     RDKit          3D

 27 29  0  0  0  0  0  0  0  0999 V2000
   -4.4860   15.1680    2.7210 C   0  0  0  0  0  0  0  0  0  0  0  0
   -3.4260   14.8480    1.7390 C   0  0  0  0  0  0  0  0  0  0  0  0
   -2.2360   14.5720    2.1370 N   0  0  0  0  0  0  0  0  0  0  0  0
   -3.4280   14.7760    0.3650 C   0  0  0  0  0  0  0  0  0  0  0  0
   -2.1560   14.4400   -0.0520 C   0  0  0  0  0  0  0  0  0  0  0  0
   -1.4830   14.3390    1.0900 N   0  0  0  0  0  0  0  0  0  0  0  0
   -4.4160   14.9830   -0.5300 C   0  0  0  0  0  0  0  0  0  0  0  0
   -0.1080   14.0270    1.2840 C   0  0  0  0  0  0  0  0  0  0  0  0
   -1.5260   14.2130   -1.3850 C   0  0  0  0  0  0  0  0  0  0  0  0
   -5.7960   14.9120   -0.2970 C   0  0  0  0  0  0  0  0  0  0  0  0
   -3.8900   15.2770   -1.7310 C   0  0  0  0  0  0  0  0  0  0  0  0
   -6.6710   14.6340    0.7090 N   0  0  0  0  0  0  0  0  0  0  0  0
   -6.6340   15.1570   -1.2840 C   0  0  0  0  0  0  0  0  0  0  0  0
   -4.7070   15.4950   -2.7170 C   0  0  0  0  0  0  0  0  0  0  0  0
   -7.9450   14.7430    0.3220 C   0  0  0  0  0  0  0  0  0  0  0  0
   -7.9560   15.0750   -0.9230 N   0  0  0  0  0  0  0  0  0  0  0  0
   -6.0800   15.4430   -2.5010 C   0  0  0  0  0  0  0  0  0  0  0  0
   -6.4280   14.2700    1.8960 N   0  0  0  0  0  0  0  0  0  0  0  0
   -9.0990   14.4880    1.2520 C   0  0  0  0  0  0  0  0  0  0  0  0
   -6.0130   13.1030    1.6370 C   0  0  0  0  0  0  0  0  0  0  0  0
   -8.6630   14.3590    2.6430 N   0  0  0  0  0  0  0  0  0  0  0  0
   -5.9170   12.6180    0.3710 N   0  0  0  0  0  0  0  0  0  0  0  0
   -9.0620   15.2630    3.6060 C   0  0  0  0  0  0  0  0  0  0  0  0
   -9.2960   16.4300    3.3230 O   0  0  0  0  0  0  0  0  0  0  0  0
   -9.2350   14.7900    5.0540 C   0  0  0  0  0  0  0  0  0  0  0  0
   -9.5590   13.3070    5.1750 C   0  0  0  0  0  0  0  0  0  0  0  0
   -8.0510   15.2020    5.9280 C   0  0  0  0  0  0  0  0  0  0  0  0
  1  2  1  0
  2  3  2  0
  2  4  1  0
  4  5  2  0
  3  6  1  0
  5  6  1  0
  4  7  1  0
  6  8  1  0
  5  9  1  0
  7 10  1  0
  7 11  2  0
 10 12  1  0
 10 13  2  0
 11 14  1  0
 12 15  1  0
 13 16  1  0
 15 16  2  0
 13 17  1  0
 14 17  2  0
 12 18  1  0
 15 19  1  0
 18 20  2  3
 19 21  1  0
 20 22  1  0
 21 23  1  0
 23 24  2  0
 23 25  1  0
 25 26  1  0
 25 27  1  0
M  END
