x0724_0_A_α-x0592_0_A_α
     RDKit          3D

 24 26  0  0  0  0  0  0  0  0999 V2000
   -8.2050   13.9310    4.3320 N   0  0  0  0  0  0  0  0  0  0  0  0
   -8.8840   14.6410    5.4000 C   0  0  0  0  0  0  0  0  0  0  0  0
   -7.9510   14.6970    3.1010 C   0  0  2  0  0  0  0  0  0  0  0  0
   -9.1490   15.0040    2.1860 C   0  0  0  0  0  0  0  0  0  0  0  0
   -6.8890   14.0330    2.3020 C   0  0  0  0  0  0  0  0  0  0  0  0
   -9.0210   14.3950    0.7680 C   0  0  0  0  0  0  0  0  0  0  0  0
   -5.6490   14.5000    1.9440 C   0  0  0  0  0  0  0  0  0  0  0  0
   -6.9450   12.7530    1.7140 C   0  0  0  0  0  0  0  0  0  0  0  0
   -5.8410   12.4460    1.0290 N   0  0  0  0  0  0  0  0  0  0  0  0
   -5.0460   13.5370    1.1740 N   0  0  0  0  0  0  0  0  0  0  0  0
   -7.8700   14.8380   -0.0290 N   0  0  0  0  0  0  0  0  0  0  0  0
   -3.7740   13.6470    0.5780 C   0  0  0  0  0  0  0  0  0  0  0  0
   -8.0320   15.2280   -1.3050 N   0  0  0  0  0  0  0  0  0  0  0  0
   -6.5690   14.9160    0.3720 C   0  0  0  0  0  0  0  0  0  0  0  0
   -2.6790   14.1540    1.2860 C   0  0  0  0  0  0  0  0  0  0  0  0
   -3.6200   13.2530   -0.7580 C   0  0  0  0  0  0  0  0  0  0  0  0
   -5.8240   15.3910   -0.6910 C   0  0  0  0  0  0  0  0  0  0  0  0
   -6.7940   15.5600   -1.7030 C   0  0  0  0  0  0  0  0  0  0  0  0
   -4.4030   15.6610   -0.7590 C   0  0  0  0  0  0  0  0  0  0  0  0
   -1.4390   14.2660    0.6570 C   0  0  0  0  0  0  0  0  0  0  0  0
   -2.3820   13.3680   -1.3830 C   0  0  0  0  0  0  0  0  0  0  0  0
   -3.8150   16.0140    0.4230 N   0  0  0  0  0  0  0  0  0  0  0  0
   -3.7400   15.5850   -1.7900 O   0  0  0  0  0  0  0  0  0  0  0  0
   -1.2910   13.8760   -0.6760 C   0  0  0  0  0  0  0  0  0  0  0  0
  1  2  1  0
  1  3  1  0
  3  4  1  6
  3  5  1  0
  4  6  1  0
  5  7  2  0
  5  8  1  0
  8  9  2  0
  7 10  1  0
  9 10  1  0
  6 11  1  0
 10 12  1  0
 11 13  1  0
 11 14  1  0
 12 15  2  0
 12 16  1  0
 14 17  2  0
 13 18  2  0
 17 18  1  0
 17 19  1  0
 15 20  1  0
 16 21  2  0
 19 22  1  0
 19 23  2  0
 20 24  2  0
 21 24  1  0
M  END
