x0729_2_B_α-x0290_0_A_α
     RDKit          3D

 33 34  0  0  0  0  0  0  0  0999 V2000
  -13.8760   23.9740    1.8860 C   0  0  0  0  0  0  0  0  0  0  0  0
  -15.1790   24.5220    1.3850 C   0  0  2  0  0  0  0  0  0  0  0  0
  -16.1120   24.8770    2.4680 N   0  0  0  0  0  0  0  0  0  0  0  0
  -15.9480   23.5510    0.5010 C   0  0  2  0  0  0  0  0  0  0  0  0
  -15.0590   22.7120   -0.3310 C   0  0  0  0  0  0  0  0  0  0  0  0
  -15.8010   24.5700    4.0950 S   0  0  0  0  0  0  0  0  0  0  0  0
  -17.1860   25.7590    2.0260 C   0  0  0  0  0  0  0  0  0  0  0  0
  -16.8900   24.4460   -0.2960 C   0  0  0  0  0  0  0  0  0  0  0  0
  -16.2770   25.6980    4.8620 O   0  0  0  0  0  0  0  0  0  0  0  0
  -14.3230   21.9990   -0.9590 C   0  0  0  0  0  0  0  0  0  0  0  0
  -14.4420   24.1070    4.1870 O   0  0  0  0  0  0  0  0  0  0  0  0
  -16.8380   23.1870    4.5090 C   0  0  0  0  0  0  0  0  0  0  0  0
  -17.6480   25.4850    0.5760 C   0  0  0  0  0  0  0  0  0  0  0  0
  -13.3970   21.1180   -1.6960 C   0  0  0  0  0  0  0  0  0  0  0  0
  -13.1310   19.8060   -0.9490 C   0  0  0  0  0  0  0  0  0  0  0  0
  -11.6550   19.5130   -0.6630 C   0  0  0  0  0  0  0  0  0  0  0  0
  -11.0280   18.3470   -1.4360 C   0  0  0  0  0  0  0  0  0  0  0  0
  -10.4500   17.2210   -0.5710 C   0  0  0  0  0  0  0  0  0  0  0  0
   -9.4680   16.2760   -1.2790 C   0  0  0  0  0  0  0  0  0  0  0  0
   -9.2880   14.9270   -0.5600 C   0  0  0  0  0  0  0  0  0  0  0  0
   -8.1640   15.0010    0.4680 C   0  0  0  0  0  0  0  0  0  0  0  0
   -7.7400   13.7180    1.0180 N   0  0  0  0  0  0  0  0  0  0  0  0
   -6.4730   13.8820    1.7860 C   0  0  0  0  0  0  0  0  0  0  0  0
   -5.2820   14.3400    0.9260 C   0  0  0  0  0  0  0  0  0  0  0  0
   -5.3240   14.3740   -0.3120 O   0  0  0  0  0  0  0  0  0  0  0  0
   -4.0980   14.7320    1.5050 N   0  0  0  0  0  0  0  0  0  0  0  0
   -2.8050   14.6460    0.9850 C   0  0  0  0  0  0  0  0  0  0  0  0
   -1.7470   14.5400    1.8030 N   0  0  0  0  0  0  0  0  0  0  0  0
   -2.6610   14.6720   -0.4020 C   0  0  0  0  0  0  0  0  0  0  0  0
   -0.5200   14.4610    1.2510 C   0  0  0  0  0  0  0  0  0  0  0  0
   -1.3810   14.5850   -0.9660 C   0  0  0  0  0  0  0  0  0  0  0  0
   -1.2020   14.6110   -2.4560 C   0  0  0  0  0  0  0  0  0  0  0  0
   -0.2840   14.4790   -0.1120 C   0  0  0  0  0  0  0  0  0  0  0  0
  2  1  1  1
  2  3  1  0
  2  4  1  0
  4  5  1  6
  3  6  1  0
  3  7  1  0
  4  8  1  0
  6  9  2  0
  5 10  3  0
  6 11  2  0
  6 12  1  0
  7 13  1  0
  8 13  1  0
 10 14  1  0
 14 15  1  0
 15 16  1  0
 16 17  1  0
 17 18  1  0
 18 19  1  0
 19 20  1  0
 20 21  1  0
 21 22  1  0
 22 23  1  0
 23 24  1  0
 24 25  2  0
 24 26  1  0
 26 27  1  0
 27 28  2  0
 27 29  1  0
 28 30  1  0
 29 31  2  0
 31 32  1  0
 30 33  2  0
 31 33  1  0
M  END
