x0729_0_A-x0091_0_B
     RDKit          3D

 30 32  0  0  0  0  0  0  0  0999 V2000
   19.8000   25.4100    5.9100 C   0  0  0  0  0  0  0  0  0  0  0  0
   19.9160   26.9100    6.1590 C   0  0  1  0  0  0  0  0  0  0  0  0
   20.2520   27.0790    7.6050 N   0  0  0  0  0  0  0  0  0  0  0  0
   20.9170   27.5350    5.1800 C   0  0  1  0  0  0  0  0  0  0  0  0
   20.3120   27.7160    3.8430 C   0  0  0  0  0  0  0  0  0  0  0  0
   19.0020   27.1320    8.7800 S   0  0  0  0  0  0  0  0  0  0  0  0
   21.6260   27.5650    7.9740 C   0  0  0  0  0  0  0  0  0  0  0  0
   21.5680   28.8060    5.7020 C   0  0  0  0  0  0  0  0  0  0  0  0
   17.7610   27.0960    8.0490 O   0  0  0  0  0  0  0  0  0  0  0  0
   19.8730   27.7780    2.7710 N   0  0  0  0  0  0  0  0  0  0  0  0
   19.3100   28.2450    9.6570 O   0  0  0  0  0  0  0  0  0  0  0  0
   19.0890   25.6110    9.7540 C   0  0  0  0  0  0  0  0  0  0  0  0
   22.3130   28.5360    7.0050 C   0  0  0  0  0  0  0  0  0  0  0  0
   17.7580   25.3770   10.5150 C   0  0  0  0  0  0  0  0  0  0  0  0
   17.2620   23.9130   10.5960 C   0  0  0  0  0  0  0  0  0  0  0  0
   16.6980   23.5040   11.9490 C   0  0  2  0  0  0  0  0  0  0  0  0
   15.1990   23.4710   12.2200 C   0  0  2  0  0  0  0  0  0  0  0  0
   16.0640   24.5550   12.8150 C   0  0  0  0  0  0  0  0  0  0  0  0
   14.5860   22.5370   13.1380 N   0  0  0  0  0  0  0  0  0  0  0  0
   13.7970   21.4700   12.7390 C   0  0  0  0  0  0  0  0  0  0  0  0
   12.7880   21.0880   13.6170 N   0  0  0  0  0  0  0  0  0  0  0  0
   13.9860   20.8840   11.6820 O   0  0  0  0  0  0  0  0  0  0  0  0
   12.2000   21.9360   14.6420 C   0  0  0  0  0  0  0  0  0  0  0  0
   12.2750   19.7090   13.5310 C   0  0  0  0  0  0  0  0  0  0  0  0
   13.1860   18.7450   14.2450 C   0  0  0  0  0  0  0  0  0  0  0  0
   12.6840   17.7430   14.9870 N   0  0  0  0  0  0  0  0  0  0  0  0
   14.6010   18.7170   14.2640 C   0  0  0  0  0  0  0  0  0  0  0  0
   13.7760   17.0560   15.4950 O   0  0  0  0  0  0  0  0  0  0  0  0
   14.9210   17.6420   15.0570 C   0  0  0  0  0  0  0  0  0  0  0  0
   16.1910   17.0390   15.5000 C   0  0  0  0  0  0  0  0  0  0  0  0
  2  1  1  6
  2  3  1  0
  2  4  1  0
  4  5  1  6
  3  6  1  0
  3  7  1  0
  4  8  1  0
  6  9  2  0
  5 10  3  0
  6 11  2  0
  6 12  1  0
  7 13  1  0
  8 13  1  0
 12 14  1  0
 14 15  1  0
 16 15  1  6
 16 17  1  0
 16 18  1  0
 17 18  1  0
 17 19  1  1
 19 20  1  0
 20 21  1  0
 20 22  2  0
 21 23  1  0
 21 24  1  0
 24 25  1  0
 25 26  2  0
 25 27  1  0
 26 28  1  0
 27 29  2  0
 28 29  1  0
 29 30  1  0
M  END
