x0729_2_B_α-x0962_1_A_α
     RDKit          3D

 27 28  0  0  0  0  0  0  0  0999 V2000
  -13.9270   24.5300    1.6760 C   0  0  0  0  0  0  0  0  0  0  0  0
  -15.2040   23.6910    1.8140 C   0  0  1  0  0  0  0  0  0  0  0  0
  -16.1930   24.4250    2.6270 N   0  0  0  0  0  0  0  0  0  0  0  0
  -15.8380   23.2350    0.4940 C   0  0  2  0  0  0  0  0  0  0  0  0
  -14.8490   22.4380   -0.2620 C   0  0  0  0  0  0  0  0  0  0  0  0
  -15.8760   24.4790    4.2590 S   0  0  0  0  0  0  0  0  0  0  0  0
  -16.9780   25.4870    1.9680 C   0  0  0  0  0  0  0  0  0  0  0  0
  -16.4240   24.4090   -0.3090 C   0  0  0  0  0  0  0  0  0  0  0  0
  -16.3240   25.7440    4.7980 O   0  0  0  0  0  0  0  0  0  0  0  0
  -13.9870   21.7870   -0.7980 C   0  0  0  0  0  0  0  0  0  0  0  0
  -14.5110   24.0290    4.3490 O   0  0  0  0  0  0  0  0  0  0  0  0
  -16.8980   23.1900    4.9330 C   0  0  0  0  0  0  0  0  0  0  0  0
  -16.5580   25.6950    0.5150 C   0  0  0  0  0  0  0  0  0  0  0  0
  -12.8810   21.0020   -1.3880 C   0  0  0  0  0  0  0  0  0  0  0  0
  -12.8390   19.5520   -0.8820 C   0  0  0  0  0  0  0  0  0  0  0  0
  -11.4490   19.0050   -0.4980 C   0  0  0  0  0  0  0  0  0  0  0  0
  -11.4200   17.4970   -0.1980 C   0  0  0  0  0  0  0  0  0  0  0  0
  -10.0120   16.9730    0.1310 C   0  0  0  0  0  0  0  0  0  0  0  0
   -9.7250   15.5200   -0.2930 C   0  0  0  0  0  0  0  0  0  0  0  0
   -8.9990   14.6670    0.7530 C   0  0  0  0  0  0  0  0  0  0  0  0
   -7.5490   14.7310    0.6320 N   0  0  0  0  0  0  0  0  0  0  0  0
   -6.6420   14.5930    1.6560 C   0  0  0  0  0  0  0  0  0  0  0  0
   -6.8430   14.9440   -0.5220 C   0  0  0  0  0  0  0  0  0  0  0  0
   -5.5210   14.9300   -0.1350 C   0  0  0  0  0  0  0  0  0  0  0  0
   -5.4070   14.7140    1.2130 N   0  0  0  0  0  0  0  0  0  0  0  0
   -4.3750   15.1130   -0.9670 C   0  0  0  0  0  0  0  0  0  0  0  0
   -3.4710   15.2460   -1.6780 N   0  0  0  0  0  0  0  0  0  0  0  0
  2  1  1  6
  2  3  1  0
  2  4  1  0
  4  5  1  6
  3  6  1  0
  3  7  1  0
  4  8  1  0
  6  9  2  0
  5 10  3  0
  6 11  2  0
  6 12  1  0
  7 13  1  0
  8 13  1  0
 10 14  1  0
 14 15  1  0
 15 16  1  0
 16 17  1  0
 17 18  1  0
 18 19  1  0
 19 20  1  0
 20 21  1  0
 21 22  1  0
 21 23  1  0
 23 24  2  0
 22 25  2  0
 24 25  1  0
 24 26  1  0
 26 27  3  0
M  END
