x0722_0_A-x0685_1_A
     RDKit          3D

 26 27  0  0  0  0  0  0  0  0999 V2000
   -4.4670   15.7760    2.3260 C   0  0  0  0  0  0  0  0  0  0  0  0
   -3.4840   15.3180    1.3720 C   0  0  0  0  0  0  0  0  0  0  0  0
   -2.3120   14.9540    1.8480 N   0  0  0  0  0  0  0  0  0  0  0  0
   -3.5730   15.2060   -0.0280 C   0  0  0  0  0  0  0  0  0  0  0  0
   -4.7500   15.5270   -0.9040 C   0  0  0  0  0  0  0  0  0  0  0  0
   -2.3110   14.7440   -0.3750 C   0  0  0  0  0  0  0  0  0  0  0  0
   -1.6070   14.6170    0.8000 N   0  0  0  0  0  0  0  0  0  0  0  0
   -0.2510   14.1890    1.0330 C   0  0  0  0  0  0  0  0  0  0  0  0
   -1.7210   14.4190   -1.6940 C   0  0  0  0  0  0  0  0  0  0  0  0
   -5.9870   14.7110   -0.5780 C   0  0  0  0  0  0  0  0  0  0  0  0
   -7.1310   15.1160   -0.7580 O   0  0  0  0  0  0  0  0  0  0  0  0
   -5.7720   13.4650   -0.0580 N   0  0  0  0  0  0  0  0  0  0  0  0
   -1.4620   12.9340   -1.7540 C   0  0  0  0  0  0  0  0  0  0  0  0
   -0.0930   12.6750   -1.4810 O   0  0  0  0  0  0  0  0  0  0  0  0
    0.6790   11.9500   -2.6780 S   0  0  0  0  0  0  0  0  0  0  0  0
    0.0290   12.6070   -4.2140 C   0  0  0  0  0  0  0  0  0  0  0  0
    2.2370   12.3210   -2.7620 O   0  0  0  0  0  0  0  0  0  0  0  0
    0.4280   10.3610   -2.6390 O   0  0  0  0  0  0  0  0  0  0  0  0
   -1.2620   11.9540   -4.7010 C   0  0  0  0  0  0  0  0  0  0  0  0
   -1.0990   10.5020   -4.8870 N   0  0  0  0  0  0  0  0  0  0  0  0
   -1.3680   10.0170   -6.2570 C   0  0  0  0  0  0  0  0  0  0  0  0
   -0.6380    8.6810   -6.5150 C   0  0  0  0  0  0  0  0  0  0  0  0
   -1.0310   11.1110   -7.2990 C   0  0  0  0  0  0  0  0  0  0  0  0
    0.1600    8.7030   -7.8080 C   0  0  0  0  0  0  0  0  0  0  0  0
   -1.2210   10.6450   -8.7400 C   0  0  0  0  0  0  0  0  0  0  0  0
   -0.7050    9.2190   -8.9610 C   0  0  0  0  0  0  0  0  0  0  0  0
  1  2  1  0
  2  3  2  0
  2  4  1  0
  4  5  1  0
  4  6  2  0
  3  7  1  0
  6  7  1  0
  7  8  1  0
  6  9  1  0
  5 10  1  0
 10 11  2  0
 10 12  1  0
  9 13  1  0
 13 14  1  0
 15 14  1  0
 15 16  1  0
 15 17  1  0
 15 18  1  0
 16 19  1  0
 19 20  1  0
 20 21  1  0
 21 22  1  0
 21 23  1  0
 22 24  1  0
 23 25  1  0
 24 26  1  0
 25 26  1  0
M  END
