x0722_0_A_α-x0852_0_B_α
     RDKit          3D

 25 26  0  0  0  0  0  0  0  0999 V2000
   -4.8530   15.1900    2.2000 C   0  0  0  0  0  0  0  0  0  0  0  0
   -3.6600   14.9510    1.3700 C   0  0  0  0  0  0  0  0  0  0  0  0
   -2.5160   14.6310    1.9570 N   0  0  0  0  0  0  0  0  0  0  0  0
   -3.5320   15.0100   -0.0380 C   0  0  0  0  0  0  0  0  0  0  0  0
   -4.5920   15.3470   -1.0340 C   0  0  0  0  0  0  0  0  0  0  0  0
   -2.2030   14.6880   -0.2720 C   0  0  0  0  0  0  0  0  0  0  0  0
   -1.6480   14.4800    0.9610 N   0  0  0  0  0  0  0  0  0  0  0  0
   -0.2820   14.1320    1.2640 C   0  0  0  0  0  0  0  0  0  0  0  0
   -1.4380   14.5700   -1.5350 C   0  0  0  0  0  0  0  0  0  0  0  0
   -5.9670   14.7400   -0.7730 C   0  0  0  0  0  0  0  0  0  0  0  0
   -7.0800   15.3280   -1.0460 N   0  0  0  0  0  0  0  0  0  0  0  0
   -6.0400   13.4880   -0.2140 N   0  0  0  0  0  0  0  0  0  0  0  0
   -8.3920   14.7630   -0.8190 C   0  0  0  0  0  0  0  0  0  0  0  0
   -9.3750   15.9220   -0.6810 C   0  0  0  0  0  0  0  0  0  0  0  0
  -10.4190   15.6280    0.3860 C   0  0  0  0  0  0  0  0  0  0  0  0
  -10.4150   16.6380    1.3950 O   0  0  0  0  0  0  0  0  0  0  0  0
   -9.7900   16.3620    2.5850 C   0  0  0  0  0  0  0  0  0  0  0  0
   -8.8610   15.3180    2.5190 C   0  0  0  0  0  0  0  0  0  0  0  0
   -9.9920   17.0080    3.8070 C   0  0  0  0  0  0  0  0  0  0  0  0
   -8.1430   14.9230    3.6460 C   0  0  0  0  0  0  0  0  0  0  0  0
   -9.2720   16.6120    4.9480 C   0  0  0  0  0  0  0  0  0  0  0  0
   -9.5060   17.2860    6.1880 C   0  0  0  0  0  0  0  0  0  0  0  0
   -8.3480   15.5680    4.8570 C   0  0  0  0  0  0  0  0  0  0  0  0
   -9.7290   17.7880    7.2130 N   0  0  0  0  0  0  0  0  0  0  0  0
   -7.6030   15.1120    5.9060 O   0  0  0  0  0  0  0  0  0  0  0  0
  1  2  1  0
  2  3  2  0
  2  4  1  0
  4  5  1  0
  4  6  2  0
  3  7  1  0
  6  7  1  0
  7  8  1  0
  6  9  1  0
  5 10  1  0
 10 11  2  3
 10 12  1  0
 11 13  1  0
 13 14  1  0
 14 15  1  0
 15 16  1  0
 16 17  1  0
 17 18  2  0
 17 19  1  0
 18 20  1  0
 19 21  2  0
 21 22  1  0
 20 23  2  0
 21 23  1  0
 22 24  3  0
 23 25  1  0
M  END
