x0727_0_A-x1012_0_A
     RDKit          3D

 23 24  0  0  0  0  0  0  0  0999 V2000
    0.1060   11.6630   -5.5960 N   0  0  0  0  0  0  0  0  0  0  0  0
    1.1000   12.2320   -4.7330 C   0  0  1  0  0  0  0  0  0  0  0  0
    1.1130   13.7160   -4.9710 C   0  0  0  0  0  0  0  0  0  0  0  0
    0.4500   11.0530   -6.7570 C   0  0  0  0  0  0  0  0  0  0  0  0
    1.4630   11.3010   -7.3900 O   0  0  0  0  0  0  0  0  0  0  0  0
    0.7180   11.7770   -3.3050 C   0  0  0  0  0  0  0  0  0  0  0  0
   -0.5770   10.0250   -7.1190 C   0  0  0  0  0  0  0  0  0  0  0  0
    0.6190   10.6330   -2.9000 O   0  0  0  0  0  0  0  0  0  0  0  0
    0.4110   12.9110   -2.4090 C   0  0  0  0  0  0  0  0  0  0  0  0
   -1.0300    9.9620   -8.5520 C   0  0  0  0  0  0  0  0  0  0  0  0
   -0.2340    8.5840   -6.8080 C   0  0  0  0  0  0  0  0  0  0  0  0
    0.4930   12.8490   -1.1840 O   0  0  0  0  0  0  0  0  0  0  0  0
   -1.9820    8.7700   -8.4810 C   0  0  0  0  0  0  0  0  0  0  0  0
   -1.4950    7.9030   -7.3050 C   0  0  0  0  0  0  0  0  0  0  0  0
   -0.0140   14.0380   -3.2770 C   0  0  0  0  0  0  0  0  0  0  0  0
   -1.4990   14.3130   -3.2830 C   0  0  0  0  0  0  0  0  0  0  0  0
    0.8050   15.2970   -3.1260 C   0  0  0  0  0  0  0  0  0  0  0  0
   -1.7740   15.1150   -4.5430 C   0  0  0  0  0  0  0  0  0  0  0  0
    0.6050   16.1190   -4.3870 C   0  0  0  0  0  0  0  0  0  0  0  0
   -0.8240   16.2350   -4.7470 N   0  0  0  0  0  0  0  0  0  0  0  0
   -1.2780   17.5080   -4.8590 C   0  0  0  0  0  0  0  0  0  0  0  0
   -0.3440   18.4710   -4.9000 N   0  0  0  0  0  0  0  0  0  0  0  0
   -2.4390   17.8230   -4.9030 O   0  0  0  0  0  0  0  0  0  0  0  0
  1  2  1  0
  2  3  1  1
  1  4  1  0
  4  5  2  0
  2  6  1  0
  4  7  1  0
  6  8  2  0
  6  9  1  0
  7 10  1  0
  7 11  1  0
  9 12  2  0
 10 13  1  0
 11 14  1  0
 13 14  1  0
  9 15  1  0
 15 16  1  0
 15 17  1  0
 16 18  1  0
 17 19  1  0
 18 20  1  0
 19 20  1  0
 20 21  1  0
 21 22  1  0
 21 23  2  0
M  END
