x0724_0_A_α-x0895_0_A_α
     RDKit          3D

 15 16  0  0  0  0  0  0  0  0999 V2000
   -8.2800   13.6720    4.4340 N   0  0  0  0  0  0  0  0  0  0  0  0
   -8.7010   13.8690    5.8120 C   0  0  0  0  0  0  0  0  0  0  0  0
   -8.6160   14.8310    3.6200 C   0  0  0  0  0  0  0  0  0  0  0  0
   -7.8530   14.7640    2.3490 C   0  0  0  0  0  0  0  0  0  0  0  0
   -6.4930   14.8980    2.1720 C   0  0  0  0  0  0  0  0  0  0  0  0
   -8.3420   14.5590    1.0370 C   0  0  0  0  0  0  0  0  0  0  0  0
   -7.3770   14.5760    0.1140 N   0  0  0  0  0  0  0  0  0  0  0  0
   -6.2560   14.7940    0.8370 N   0  0  0  0  0  0  0  0  0  0  0  0
   -4.9710   14.9070    0.1580 C   0  0  1  0  0  0  0  0  0  0  0  0
   -3.7840   14.4380    0.9850 C   0  0  0  0  0  0  0  0  0  0  0  0
   -4.9720   14.3650   -1.2690 C   0  0  0  0  0  0  0  0  0  0  0  0
   -2.4790   14.5870    0.2470 C   0  0  0  0  0  0  0  0  0  0  0  0
   -3.6450   14.5880   -1.9280 C   0  0  0  0  0  0  0  0  0  0  0  0
   -1.4080   14.6020    0.8610 O   0  0  0  0  0  0  0  0  0  0  0  0
   -2.4970   14.6940   -1.2400 C   0  0  0  0  0  0  0  0  0  0  0  0
  1  2  1  0
  1  3  1  0
  3  4  1  0
  4  5  2  0
  4  6  1  0
  6  7  2  0
  5  8  1  0
  7  8  1  0
  9  8  1  1
  9 10  1  0
  9 11  1  0
 10 12  1  0
 11 13  1  0
 12 14  2  0
 12 15  1  0
 13 15  2  0
M  END
