x0724_0_A-x0685_1_A
     RDKit          3D

 29 31  0  0  0  0  0  0  0  0999 V2000
   -8.2720   13.7650    4.4180 N   0  0  0  0  0  0  0  0  0  0  0  0
   -8.6580   13.9450    5.8130 C   0  0  0  0  0  0  0  0  0  0  0  0
   -8.4650   14.9930    3.6600 C   0  0  0  0  0  0  0  0  0  0  0  0
   -7.7730   14.8490    2.3570 C   0  0  0  0  0  0  0  0  0  0  0  0
   -6.4130   14.8570    2.1090 C   0  0  0  0  0  0  0  0  0  0  0  0
   -8.3350   14.6790    1.0720 C   0  0  0  0  0  0  0  0  0  0  0  0
   -7.4150   14.5940    0.1080 N   0  0  0  0  0  0  0  0  0  0  0  0
   -6.2250   14.7100    0.7550 N   0  0  0  0  0  0  0  0  0  0  0  0
   -4.9870   14.6790    0.0600 C   0  0  0  0  0  0  0  0  0  0  0  0
   -3.7720   14.7710    0.7540 C   0  0  0  0  0  0  0  0  0  0  0  0
   -4.9800   14.5570   -1.3350 C   0  0  0  0  0  0  0  0  0  0  0  0
   -2.5630   14.7330    0.0550 C   0  0  0  0  0  0  0  0  0  0  0  0
   -3.7710   14.5200   -2.0290 C   0  0  0  0  0  0  0  0  0  0  0  0
   -2.5520   14.6030   -1.3420 C   0  0  0  0  0  0  0  0  0  0  0  0
   -1.2550   14.5450   -2.1120 C   0  0  0  0  0  0  0  0  0  0  0  0
   -0.0690   14.1100   -1.2510 C   0  0  0  0  0  0  0  0  0  0  0  0
    0.0180   12.6930   -1.3340 O   0  0  0  0  0  0  0  0  0  0  0  0
    0.6640   11.9840   -2.6260 S   0  0  0  0  0  0  0  0  0  0  0  0
   -0.0760   12.5830   -4.1520 C   0  0  0  0  0  0  0  0  0  0  0  0
    2.2210   12.3170   -2.8110 O   0  0  0  0  0  0  0  0  0  0  0  0
    0.3840   10.3990   -2.5720 O   0  0  0  0  0  0  0  0  0  0  0  0
   -1.4620   11.9970   -4.4220 C   0  0  0  0  0  0  0  0  0  0  0  0
   -1.4010   10.5800   -4.8390 N   0  0  0  0  0  0  0  0  0  0  0  0
   -0.7440   10.3490   -6.1460 C   0  0  0  0  0  0  0  0  0  0  0  0
   -0.5490    8.8530   -6.4510 C   0  0  0  0  0  0  0  0  0  0  0  0
   -1.6120   10.9660   -7.2650 C   0  0  0  0  0  0  0  0  0  0  0  0
    0.1190    8.6320   -7.8050 C   0  0  0  0  0  0  0  0  0  0  0  0
   -1.0460   10.7210   -8.6680 C   0  0  0  0  0  0  0  0  0  0  0  0
   -0.7200    9.2490   -8.9230 C   0  0  0  0  0  0  0  0  0  0  0  0
  1  2  1  0
  1  3  1  0
  3  4  1  0
  4  5  2  0
  4  6  1  0
  6  7  2  0
  5  8  1  0
  7  8  1  0
  8  9  1  0
  9 10  2  0
  9 11  1  0
 10 12  1  0
 11 13  2  0
 12 14  2  0
 13 14  1  0
 14 15  1  0
 15 16  1  0
 16 17  1  0
 18 17  1  0
 18 19  1  0
 18 20  1  0
 18 21  1  0
 19 22  1  0
 22 23  1  0
 23 24  1  0
 24 25  1  0
 24 26  1  0
 25 27  1  0
 26 28  1  0
 27 29  1  0
 28 29  1  0
M  END
