x0729_2_B-x0910_2_B
     RDKit          3D

 20 21  0  0  0  0  0  0  0  0999 V2000
  -13.8570   23.8700    1.8020 C   0  0  0  0  0  0  0  0  0  0  0  0
  -15.1760   24.3950    1.3100 C   0  0  2  0  0  0  0  0  0  0  0  0
  -15.9410   25.0420    2.4230 N   0  0  0  0  0  0  0  0  0  0  0  0
  -16.0620   23.3600    0.6060 C   0  0  2  0  0  0  0  0  0  0  0  0
  -15.3070   22.3860   -0.2320 C   0  0  0  0  0  0  0  0  0  0  0  0
  -15.7950   24.5420    4.0550 S   0  0  0  0  0  0  0  0  0  0  0  0
  -17.2660   25.5690    2.0240 C   0  0  0  0  0  0  0  0  0  0  0  0
  -17.1370   24.1500   -0.1420 C   0  0  0  0  0  0  0  0  0  0  0  0
  -16.2660   25.6380    4.8740 O   0  0  0  0  0  0  0  0  0  0  0  0
  -14.7790   21.4770   -0.8530 C   0  0  0  0  0  0  0  0  0  0  0  0
  -14.4630   24.0180    4.2200 O   0  0  0  0  0  0  0  0  0  0  0  0
  -16.9510   23.2070    4.2640 C   0  0  0  0  0  0  0  0  0  0  0  0
  -17.4380   25.5170    0.5020 C   0  0  0  0  0  0  0  0  0  0  0  0
  -14.0970   20.4990   -1.7380 C   0  0  0  0  0  0  0  0  0  0  0  0
  -12.9510   21.1230   -2.3740 N   0  0  0  0  0  0  0  0  0  0  0  0
  -12.7050   22.3920   -2.0480 C   0  0  0  0  0  0  0  0  0  0  0  0
  -11.5720   23.1170   -2.2840 N   0  0  0  0  0  0  0  0  0  0  0  0
  -13.5670   23.1370   -1.4220 N   0  0  0  0  0  0  0  0  0  0  0  0
  -11.7060   24.3640   -1.7970 N   0  0  0  0  0  0  0  0  0  0  0  0
  -12.9360   24.3160   -1.2860 C   0  0  0  0  0  0  0  0  0  0  0  0
  2  1  1  1
  2  3  1  0
  2  4  1  0
  4  5  1  6
  3  6  1  0
  3  7  1  0
  4  8  1  0
  6  9  2  0
  5 10  3  0
  6 11  2  0
  6 12  1  0
  7 13  1  0
  8 13  1  0
 10 14  1  0
 14 15  1  0
 15 16  1  0
 16 17  1  0
 16 18  2  0
 17 19  1  0
 18 20  1  0
 19 20  2  0
M  END
