x0724_0_A-x0587_0_A
     RDKit          3D

 19 20  0  0  0  0  0  0  0  0999 V2000
   -8.9990   14.4520    3.9170 C   0  0  0  0  0  0  0  0  0  0  0  0
   -8.5600   14.0360    5.3020 C   0  0  0  0  0  0  0  0  0  0  0  0
   -7.9610   15.1260    3.0470 C   0  0  0  0  0  0  0  0  0  0  0  0
  -10.1460   14.2630    3.5200 O   0  0  0  0  0  0  0  0  0  0  0  0
   -7.1670   14.2710    2.0610 C   0  0  2  0  0  0  0  0  0  0  0  0
   -5.6890   14.6090    1.9610 C   0  0  0  0  0  0  0  0  0  0  0  0
   -7.6400   14.1800    0.5970 C   0  0  0  0  0  0  0  0  0  0  0  0
   -6.6270   14.9020   -0.2180 N   0  0  0  0  0  0  0  0  0  0  0  0
   -5.5430   15.2390    0.6540 N   0  0  0  0  0  0  0  0  0  0  0  0
   -6.0550   14.1100   -1.3330 C   0  0  0  0  0  0  0  0  0  0  0  0
   -4.2750   15.0480    0.1020 C   0  0  0  0  0  0  0  0  0  0  0  0
   -4.7370   13.8630   -1.0910 F   0  0  0  0  0  0  0  0  0  0  0  0
   -6.6130   12.8940   -1.4900 F   0  0  0  0  0  0  0  0  0  0  0  0
   -6.1080   14.7590   -2.5200 F   0  0  0  0  0  0  0  0  0  0  0  0
   -3.1710   14.6460    0.8620 C   0  0  0  0  0  0  0  0  0  0  0  0
   -4.0910   15.2520   -1.2750 C   0  0  0  0  0  0  0  0  0  0  0  0
   -1.9250   14.4470    0.2600 C   0  0  0  0  0  0  0  0  0  0  0  0
   -2.8570   15.0510   -1.8820 C   0  0  0  0  0  0  0  0  0  0  0  0
   -1.7740   14.6460   -1.1100 C   0  0  0  0  0  0  0  0  0  0  0  0
  1  2  1  0
  1  3  1  0
  1  4  2  0
  5  3  1  1
  5  6  1  0
  5  7  1  0
  7  8  1  0
  6  9  1  0
  8  9  1  0
  8 10  1  0
  9 11  1  0
 10 12  1  0
 10 13  1  0
 10 14  1  0
 11 15  2  0
 11 16  1  0
 15 17  1  0
 16 18  2  0
 17 19  2  0
 18 19  1  0
M  END
