x0724_0_A_α-x0855_0_A_α
     RDKit          3D

 27 29  0  0  0  0  0  0  0  0999 V2000
   -8.6570   13.8340    4.3300 N   0  0  0  0  0  0  0  0  0  0  0  0
   -8.4730   13.9540    5.7690 C   0  0  0  0  0  0  0  0  0  0  0  0
   -8.4180   15.0920    3.6260 C   0  0  0  0  0  0  0  0  0  0  0  0
   -7.7600   14.8680    2.3070 C   0  0  0  0  0  0  0  0  0  0  0  0
   -6.4210   14.9360    2.0180 C   0  0  0  0  0  0  0  0  0  0  0  0
   -8.3440   14.5460    1.0630 C   0  0  0  0  0  0  0  0  0  0  0  0
   -7.4420   14.4250    0.0820 N   0  0  0  0  0  0  0  0  0  0  0  0
   -6.2450   14.6700    0.6830 N   0  0  0  0  0  0  0  0  0  0  0  0
   -5.0080   14.6380   -0.0200 C   0  0  0  0  0  0  0  0  0  0  0  0
   -3.8100   14.7330    0.7080 C   0  0  0  0  0  0  0  0  0  0  0  0
   -4.9550   14.5050   -1.4110 C   0  0  0  0  0  0  0  0  0  0  0  0
   -2.5760   14.6830    0.0550 C   0  0  0  0  0  0  0  0  0  0  0  0
   -3.7160   14.4570   -2.0620 C   0  0  0  0  0  0  0  0  0  0  0  0
   -2.5160   14.5380   -1.3370 C   0  0  0  0  0  0  0  0  0  0  0  0
   -1.1790   14.4610   -2.0470 C   0  0  0  0  0  0  0  0  0  0  0  0
   -0.0500   13.7750   -1.2540 C   0  0  0  0  0  0  0  0  0  0  0  0
    1.3440   14.0330   -1.8350 C   0  0  0  0  0  0  0  0  0  0  0  0
    1.8700   12.8980   -2.5440 O   0  0  0  0  0  0  0  0  0  0  0  0
    0.9960   12.0860   -3.1950 C   0  0  0  0  0  0  0  0  0  0  0  0
    0.5440   11.0500   -2.7100 O   0  0  0  0  0  0  0  0  0  0  0  0
    0.6220   12.5500   -4.5770 C   0  0  0  0  0  0  0  0  0  0  0  0
   -0.4280   11.7120   -5.1130 N   0  0  0  0  0  0  0  0  0  0  0  0
   -0.3090   10.7740   -6.0970 C   0  0  0  0  0  0  0  0  0  0  0  0
   -1.6840   11.8150   -4.6220 N   0  0  0  0  0  0  0  0  0  0  0  0
   -1.5540   10.2340   -6.2400 C   0  0  0  0  0  0  0  0  0  0  0  0
   -2.3700   10.9030   -5.3180 C   0  0  0  0  0  0  0  0  0  0  0  0
   -2.0900    8.8820   -7.4050 Br  0  0  0  0  0  0  0  0  0  0  0  0
  1  2  1  0
  1  3  1  0
  3  4  1  0
  4  5  2  0
  4  6  1  0
  6  7  2  0
  5  8  1  0
  7  8  1  0
  8  9  1  0
  9 10  2  0
  9 11  1  0
 10 12  1  0
 11 13  2  0
 12 14  2  0
 13 14  1  0
 14 15  1  0
 15 16  1  0
 16 17  1  0
 17 18  1  0
 18 19  1  0
 19 20  2  0
 19 21  1  0
 21 22  1  0
 22 23  1  0
 22 24  1  0
 23 25  2  0
 24 26  2  0
 25 26  1  0
 25 27  1  0
M  END
