x0724_0_A-x0852_0_B
     RDKit          3D

 23 25  0  0  0  0  0  0  0  0999 V2000
   -7.6790   13.6550    4.6060 N   0  0  0  0  0  0  0  0  0  0  0  0
   -7.9260   14.7230    5.5450 C   0  0  0  0  0  0  0  0  0  0  0  0
   -8.7510   15.5710    4.6410 C   0  0  0  0  0  0  0  0  0  0  0  0
   -8.5540   13.9660    3.4590 C   0  0  0  0  0  0  0  0  0  0  0  0
   -7.8050   14.1270    2.1600 C   0  0  0  0  0  0  0  0  0  0  0  0
   -6.5090   14.5070    1.8920 C   0  0  0  0  0  0  0  0  0  0  0  0
   -8.3240   13.8900    0.8700 C   0  0  0  0  0  0  0  0  0  0  0  0
   -8.7250   15.1160    3.3230 C   0  0  0  0  0  0  0  0  0  0  0  0
   -9.5120   16.6990    4.9600 C   0  0  0  0  0  0  0  0  0  0  0  0
   -9.5900   17.2410    6.2860 C   0  0  0  0  0  0  0  0  0  0  0  0
   -7.4350   14.0740   -0.1010 N   0  0  0  0  0  0  0  0  0  0  0  0
   -6.3050   14.4360    0.5410 N   0  0  0  0  0  0  0  0  0  0  0  0
   -9.4390   15.7300    2.3190 C   0  0  0  0  0  0  0  0  0  0  0  0
  -10.2370   17.3210    3.9320 C   0  0  0  0  0  0  0  0  0  0  0  0
   -9.6940   17.6900    7.3550 N   0  0  0  0  0  0  0  0  0  0  0  0
   -5.1020   14.6590   -0.1590 C   0  0  0  0  0  0  0  0  0  0  0  0
  -10.1960   16.8220    2.6230 C   0  0  0  0  0  0  0  0  0  0  0  0
  -11.1660   17.6010    1.2030 Br  0  0  0  0  0  0  0  0  0  0  0  0
   -3.9030   14.7280    0.5630 C   0  0  0  0  0  0  0  0  0  0  0  0
   -5.0860   14.7790   -1.5520 C   0  0  0  0  0  0  0  0  0  0  0  0
   -2.6970   14.9040   -0.1030 C   0  0  0  0  0  0  0  0  0  0  0  0
   -3.8740   14.9560   -2.2130 C   0  0  0  0  0  0  0  0  0  0  0  0
   -2.6840   15.0140   -1.4950 C   0  0  0  0  0  0  0  0  0  0  0  0
  1  2  1  0
  2  3  1  0
  1  4  1  0
  4  5  1  0
  5  6  2  0
  5  7  1  0
  3  8  2  0
  3  9  1  0
  9 10  1  0
  7 11  2  0
  6 12  1  0
 11 12  1  0
  8 13  1  0
  9 14  2  0
 10 15  3  0
 12 16  1  0
 13 17  2  0
 14 17  1  0
 17 18  1  0
 16 19  2  0
 16 20  1  0
 19 21  1  0
 20 22  2  0
 21 23  2  0
 22 23  1  0
M  END
