x0724_0_A-x0900_0_A
     RDKit          3D

 15 16  0  0  0  0  0  0  0  0999 V2000
   -8.5750   13.4940    4.4130 N   0  0  0  0  0  0  0  0  0  0  0  0
   -8.5470   13.5620    5.8660 C   0  0  0  0  0  0  0  0  0  0  0  0
   -8.3460   14.8020    3.8230 C   0  0  0  0  0  0  0  0  0  0  0  0
   -7.7090   14.7350    2.4830 C   0  0  0  0  0  0  0  0  0  0  0  0
   -6.4090   15.0320    2.1700 C   0  0  0  0  0  0  0  0  0  0  0  0
   -8.2760   14.3750    1.2330 C   0  0  0  0  0  0  0  0  0  0  0  0
   -7.4000   14.4570    0.2250 N   0  0  0  0  0  0  0  0  0  0  0  0
   -6.2610   14.8760    0.8310 N   0  0  0  0  0  0  0  0  0  0  0  0
   -5.0570   15.1410    0.0530 C   0  0  1  0  0  0  0  0  0  0  0  0
   -3.7470   14.7800    0.6980 C   0  0  0  0  0  0  0  0  0  0  0  0
   -5.1780   14.6610   -1.3680 C   0  0  0  0  0  0  0  0  0  0  0  0
   -6.2480   14.3040   -1.8650 O   0  0  0  0  0  0  0  0  0  0  0  0
   -2.6630   14.5380   -0.0500 C   0  0  0  0  0  0  0  0  0  0  0  0
   -3.9160   14.6620   -2.1540 C   0  0  0  0  0  0  0  0  0  0  0  0
   -2.7430   14.6080   -1.4950 C   0  0  0  0  0  0  0  0  0  0  0  0
  1  2  1  0
  1  3  1  0
  3  4  1  0
  4  5  2  0
  4  6  1  0
  6  7  2  0
  5  8  1  0
  7  8  1  0
  9  8  1  1
  9 10  1  0
  9 11  1  0
 11 12  2  0
 10 13  2  0
 11 14  1  0
 13 15  1  0
 14 15  2  0
M  END
