x0729_1_B-x0301_0_B
     RDKit          3D

 23 25  0  0  0  0  0  0  0  0999 V2000
   20.0530   25.7770    5.9660 C   0  0  0  0  0  0  0  0  0  0  0  0
   20.0260   26.6270    4.7620 C   0  0  2  0  0  0  0  0  0  0  0  0
   19.7250   28.0310    5.2060 C   0  0  1  0  0  0  0  0  0  0  0  0
   20.5180   27.0030    6.7190 C   0  0  1  0  0  0  0  0  0  0  0  0
   19.1850   26.4140    3.6340 C   0  0  0  0  0  0  0  0  0  0  0  0
   20.5550   26.8340    8.1950 N   0  0  0  0  0  0  0  0  0  0  0  0
   21.7130   27.6900    5.9070 C   0  0  1  0  0  0  0  0  0  0  0  0
   21.0550   28.5450    4.8130 C   0  0  1  0  0  0  0  0  0  0  0  0
   19.0860   27.3230    8.9730 S   0  0  0  0  0  0  0  0  0  0  0  0
   18.4960   28.6350    4.7510 N   0  0  0  0  0  0  0  0  0  0  0  0
   21.7800   27.3080    8.8980 C   0  0  0  0  0  0  0  0  0  0  0  0
   22.6120   28.4580    6.8160 C   0  0  0  0  0  0  0  0  0  0  0  0
   19.4530   28.3140    9.9570 O   0  0  0  0  0  0  0  0  0  0  0  0
   21.3230   28.2280    3.3850 N   0  0  0  0  0  0  0  0  0  0  0  0
   18.3470   26.1390    9.3450 O   0  0  0  0  0  0  0  0  0  0  0  0
   18.1120   28.1490    7.7250 C   0  0  0  0  0  0  0  0  0  0  0  0
   22.9620   27.5690    7.9830 C   0  0  0  0  0  0  0  0  0  0  0  0
   18.0710   29.9000    4.7170 C   0  0  0  0  0  0  0  0  0  0  0  0
   18.5250   30.6840    3.6900 N   0  0  0  0  0  0  0  0  0  0  0  0
   17.2180   30.5400    5.5230 N   0  0  0  0  0  0  0  0  0  0  0  0
   17.1740   31.7310    4.9120 N   0  0  0  0  0  0  0  0  0  0  0  0
   17.9410   31.8610    3.8220 N   0  0  0  0  0  0  0  0  0  0  0  0
   16.3490   32.8040    5.3870 C   0  0  0  0  0  0  0  0  0  0  0  0
  1  2  1  0
  2  3  1  0
  4  1  1  6
  2  5  1  6
  4  6  1  0
  4  7  1  0
  3  8  1  0
  7  8  1  0
  6  9  1  0
  3 10  1  6
  6 11  1  0
  7 12  1  1
  9 13  2  0
  8 14  1  6
  9 15  2  0
  9 16  1  0
 11 17  1  0
 12 17  1  0
 10 18  1  0
 18 19  1  0
 18 20  2  0
 20 21  1  0
 19 22  2  0
 21 22  1  0
 21 23  1  0
M  END
