x0724_0_A-x0591_0_A
     RDKit          3D

 22 23  0  0  0  0  0  0  0  0999 V2000
   -8.7820   13.7200    4.2800 N   0  0  0  0  0  0  0  0  0  0  0  0
   -8.8180   13.5630    5.7310 C   0  0  0  0  0  0  0  0  0  0  0  0
   -8.0730   14.9400    3.9170 C   0  0  0  0  0  0  0  0  0  0  0  0
   -7.4670   14.8980    2.5570 C   0  0  0  0  0  0  0  0  0  0  0  0
   -6.1230   14.9990    2.2370 C   0  0  0  0  0  0  0  0  0  0  0  0
   -8.0970   14.7640    1.3050 C   0  0  0  0  0  0  0  0  0  0  0  0
   -7.2250   14.7940    0.2920 N   0  0  0  0  0  0  0  0  0  0  0  0
   -5.9890   14.9460    0.8700 N   0  0  0  0  0  0  0  0  0  0  0  0
   -4.7690   15.0520    0.1000 C   0  0  0  0  0  0  0  0  0  0  0  0
   -3.6120   15.5380    0.7050 C   0  0  0  0  0  0  0  0  0  0  0  0
   -4.7580   14.6790   -1.2470 C   0  0  0  0  0  0  0  0  0  0  0  0
   -6.1010   14.1870   -1.5410 C   0  0  0  0  0  0  0  0  0  0  0  0
   -2.4460   15.6610   -0.0420 C   0  0  0  0  0  0  0  0  0  0  0  0
   -3.5410   14.8170   -2.0710 C   0  0  0  0  0  0  0  0  0  0  0  0
   -6.4320   13.0540   -0.7890 N   0  0  0  0  0  0  0  0  0  0  0  0
   -6.8380   14.7590   -2.3170 O   0  0  0  0  0  0  0  0  0  0  0  0
   -3.1580   14.4720   -3.8350 S   0  0  0  0  0  0  0  0  0  0  0  0
   -2.4120   15.3160   -1.3940 C   0  0  0  0  0  0  0  0  0  0  0  0
   -5.9990   12.8400    0.5990 C   0  0  0  0  0  0  0  0  0  0  0  0
   -1.7420   15.3630   -4.0840 N   0  0  0  0  0  0  0  0  0  0  0  0
   -2.6510   13.1250   -4.0170 O   0  0  0  0  0  0  0  0  0  0  0  0
   -4.0690   15.0410   -4.7980 O   0  0  0  0  0  0  0  0  0  0  0  0
  1  2  1  0
  1  3  1  0
  3  4  1  0
  4  5  2  0
  4  6  1  0
  6  7  2  0
  5  8  1  0
  7  8  1  0
  8  9  1  0
  9 10  2  0
  9 11  1  0
 11 12  1  0
 10 13  1  0
 11 14  2  0
 12 15  1  0
 12 16  2  0
 14 17  1  0
 13 18  2  0
 14 18  1  0
 15 19  1  0
 17 20  1  0
 17 21  2  0
 17 22  2  0
M  END
