x0724_0_A-x0628_0_A
     RDKit          3D

 28 30  0  0  0  0  0  0  0  0999 V2000
   -8.4740   13.7450    4.3760 N   0  0  0  0  0  0  0  0  0  0  0  0
   -8.5230   13.9610    5.8230 C   0  0  0  0  0  0  0  0  0  0  0  0
   -8.3870   15.0020    3.6340 C   0  0  0  0  0  0  0  0  0  0  0  0
   -7.7520   14.8130    2.2970 C   0  0  0  0  0  0  0  0  0  0  0  0
   -6.4170   14.9160    1.9910 C   0  0  0  0  0  0  0  0  0  0  0  0
   -8.3400   14.4970    1.0550 C   0  0  0  0  0  0  0  0  0  0  0  0
   -7.4490   14.4130    0.0600 N   0  0  0  0  0  0  0  0  0  0  0  0
   -6.2560   14.6780    0.6510 N   0  0  0  0  0  0  0  0  0  0  0  0
   -5.0260   14.7020   -0.0680 C   0  0  0  0  0  0  0  0  0  0  0  0
   -3.8200   14.7710    0.6440 C   0  0  0  0  0  0  0  0  0  0  0  0
   -4.9960   14.6620   -1.4700 C   0  0  0  0  0  0  0  0  0  0  0  0
   -2.6040   14.7980   -0.0330 C   0  0  0  0  0  0  0  0  0  0  0  0
   -3.7660   14.6890   -2.1580 C   0  0  0  0  0  0  0  0  0  0  0  0
   -3.7440   14.6460   -3.6700 C   0  0  0  0  0  0  0  0  0  0  0  0
   -2.5790   14.7550   -1.4290 C   0  0  0  0  0  0  0  0  0  0  0  0
   -2.5040   13.9590   -4.2810 C   0  0  0  0  0  0  0  0  0  0  0  0
   -2.3180   12.4550   -3.9820 C   0  0  0  0  0  0  0  0  0  0  0  0
   -1.5410   11.6920   -5.0140 C   0  0  0  0  0  0  0  0  0  0  0  0
   -1.9050   10.5510   -5.5770 N   0  0  0  0  0  0  0  0  0  0  0  0
   -0.3190   12.0580   -5.5400 N   0  0  0  0  0  0  0  0  0  0  0  0
    0.5130   13.2140   -5.2630 C   0  0  0  0  0  0  0  0  0  0  0  0
   -0.8790   10.2600   -6.4330 C   0  0  0  0  0  0  0  0  0  0  0  0
    0.1100   11.1570   -6.4470 N   0  0  0  0  0  0  0  0  0  0  0  0
   -0.8620    9.0530   -7.2770 C   0  0  0  0  0  0  0  0  0  0  0  0
    1.6540   12.9010   -4.3100 C   0  0  0  0  0  0  0  0  0  0  0  0
    1.1200   12.2610   -3.0610 C   0  0  0  0  0  0  0  0  0  0  0  0
    0.6540   11.1360   -2.9610 O   0  0  0  0  0  0  0  0  0  0  0  0
    1.2020   13.0650   -1.9940 O   0  0  0  0  0  0  0  0  0  0  0  0
  1  2  1  0
  1  3  1  0
  3  4  1  0
  4  5  2  0
  4  6  1  0
  6  7  2  0
  5  8  1  0
  7  8  1  0
  8  9  1  0
  9 10  2  0
  9 11  1  0
 10 12  1  0
 11 13  2  0
 13 14  1  0
 12 15  2  0
 13 15  1  0
 14 16  1  0
 16 17  1  0
 17 18  1  0
 18 19  2  0
 18 20  1  0
 20 21  1  0
 19 22  1  0
 20 23  1  0
 22 23  2  0
 22 24  1  0
 21 25  1  0
 25 26  1  0
 26 27  2  0
 26 28  1  0
M  END
