x0724_0_A_α-x0950_0_A_α
     RDKit          3D

 22 23  0  0  0  0  0  0  0  0999 V2000
   -8.7660   13.8030    4.2480 N   0  0  0  0  0  0  0  0  0  0  0  0
   -8.7120   13.7700    5.7040 C   0  0  0  0  0  0  0  0  0  0  0  0
   -8.2430   15.0710    3.7420 C   0  0  0  0  0  0  0  0  0  0  0  0
   -7.6160   14.8670    2.4040 C   0  0  0  0  0  0  0  0  0  0  0  0
   -6.2720   14.8690    2.0980 C   0  0  0  0  0  0  0  0  0  0  0  0
   -8.2340   14.6410    1.1560 C   0  0  0  0  0  0  0  0  0  0  0  0
   -7.3550   14.5190    0.1540 N   0  0  0  0  0  0  0  0  0  0  0  0
   -6.1330   14.6650    0.7460 N   0  0  0  0  0  0  0  0  0  0  0  0
   -4.9170   14.6030    0.0040 C   0  0  0  0  0  0  0  0  0  0  0  0
   -3.6890   14.6820    0.6860 C   0  0  0  0  0  0  0  0  0  0  0  0
   -4.9110   14.4600   -1.3880 C   0  0  0  0  0  0  0  0  0  0  0  0
   -2.4770   14.6070   -0.0150 C   0  0  0  0  0  0  0  0  0  0  0  0
   -3.6960   14.3860   -2.0840 C   0  0  0  0  0  0  0  0  0  0  0  0
   -2.4640   14.4520   -1.4120 C   0  0  0  0  0  0  0  0  0  0  0  0
   -1.1600   14.3490   -2.2030 C   0  0  0  0  0  0  0  0  0  0  0  0
    0.1010   13.9920   -1.3820 C   0  0  0  0  0  0  0  0  0  0  0  0
    0.5350   12.6070   -1.5090 O   0  0  0  0  0  0  0  0  0  0  0  0
    0.6760   12.0250   -2.7520 C   0  0  0  0  0  0  0  0  0  0  0  0
    1.2840   12.9340   -3.8400 C   0  0  1  0  0  0  0  0  0  0  0  0
    0.3520   10.8680   -2.9900 O   0  0  0  0  0  0  0  0  0  0  0  0
    2.8030   12.9830   -3.7550 C   0  0  0  0  0  0  0  0  0  0  0  0
    0.9350   12.4550   -5.1460 O   0  0  0  0  0  0  0  0  0  0  0  0
  1  2  1  0
  1  3  1  0
  3  4  1  0
  4  5  2  0
  4  6  1  0
  6  7  2  0
  5  8  1  0
  7  8  1  0
  8  9  1  0
  9 10  2  0
  9 11  1  0
 10 12  1  0
 11 13  2  0
 12 14  2  0
 13 14  1  0
 14 15  1  0
 15 16  1  0
 16 17  1  0
 17 18  1  0
 18 19  1  0
 18 20  2  0
 19 21  1  6
 19 22  1  0
M  END
