x0722_0_A-x0465_0_A
     RDKit          3D

 27 28  0  0  0  0  0  0  0  0999 V2000
   -4.5520   15.7020    2.2330 C   0  0  0  0  0  0  0  0  0  0  0  0
   -3.4980   15.2270    1.3780 C   0  0  0  0  0  0  0  0  0  0  0  0
   -2.3800   14.8710    1.9520 N   0  0  0  0  0  0  0  0  0  0  0  0
   -3.4760   15.0990   -0.0230 C   0  0  0  0  0  0  0  0  0  0  0  0
   -4.5830   15.4080   -0.9830 C   0  0  0  0  0  0  0  0  0  0  0  0
   -2.1810   14.6420   -0.2520 C   0  0  0  0  0  0  0  0  0  0  0  0
   -1.5910   14.5280    0.9730 N   0  0  0  0  0  0  0  0  0  0  0  0
   -0.2600   14.1030    1.3160 C   0  0  0  0  0  0  0  0  0  0  0  0
   -1.4550   14.3190   -1.4940 C   0  0  0  0  0  0  0  0  0  0  0  0
   -5.8950   14.7200   -0.6320 C   0  0  0  0  0  0  0  0  0  0  0  0
   -7.0030   15.2220   -0.8050 O   0  0  0  0  0  0  0  0  0  0  0  0
   -5.7930   13.4690   -0.0870 N   0  0  0  0  0  0  0  0  0  0  0  0
   -0.0110   14.8010   -1.3030 C   0  0  0  0  0  0  0  0  0  0  0  0
    0.9690   13.6470   -1.3940 C   0  0  0  0  0  0  0  0  0  0  0  0
    0.9880   13.4030   -2.7940 N   0  0  0  0  0  0  0  0  0  0  0  0
    0.7500   12.3290   -3.4100 C   0  0  0  0  0  0  0  0  0  0  0  0
    0.8000   12.4310   -4.9180 C   0  0  1  0  0  0  0  0  0  0  0  0
    0.4470   11.1190   -2.8850 O   0  0  0  0  0  0  0  0  0  0  0  0
    2.1760   12.9750   -5.2230 C   0  0  0  0  0  0  0  0  0  0  0  0
    0.6290   11.2330   -5.6410 O   0  0  0  0  0  0  0  0  0  0  0  0
   -0.6100   10.6800   -5.7060 C   0  0  0  0  0  0  0  0  0  0  0  0
   -0.7400    9.6330   -6.6220 C   0  0  0  0  0  0  0  0  0  0  0  0
   -1.7240   11.0590   -4.9570 C   0  0  0  0  0  0  0  0  0  0  0  0
    0.3140    9.2490   -7.3600 F   0  0  0  0  0  0  0  0  0  0  0  0
   -1.9430    8.9670   -6.7960 C   0  0  0  0  0  0  0  0  0  0  0  0
   -2.9400   10.3920   -5.1270 C   0  0  0  0  0  0  0  0  0  0  0  0
   -3.0510    9.3470   -6.0450 C   0  0  0  0  0  0  0  0  0  0  0  0
  1  2  1  0
  2  3  2  0
  2  4  1  0
  4  5  1  0
  4  6  2  0
  3  7  1  0
  6  7  1  0
  7  8  1  0
  6  9  1  0
  5 10  1  0
 10 11  2  0
 10 12  1  0
  9 13  1  0
 13 14  1  0
 14 15  1  0
 15 16  2  3
 16 17  1  0
 16 18  1  0
 17 19  1  1
 17 20  1  0
 20 21  1  0
 21 22  2  0
 21 23  1  0
 22 24  1  0
 22 25  1  0
 23 26  2  0
 25 27  2  0
 26 27  1  0
M  END
