x0724_0_A_α-x0805_0_A_β
     RDKit          3D

 25 27  0  0  0  0  0  0  0  0999 V2000
   -8.7590   13.7020    4.2800 N   0  0  0  0  0  0  0  0  0  0  0  0
   -8.6380   13.8670    5.7240 C   0  0  0  0  0  0  0  0  0  0  0  0
   -8.6460   14.9880    3.5980 C   0  0  0  0  0  0  0  0  0  0  0  0
   -7.8970   14.8240    2.3220 C   0  0  0  0  0  0  0  0  0  0  0  0
   -6.5400   14.8450    2.1420 C   0  0  0  0  0  0  0  0  0  0  0  0
   -8.3900   14.6230    1.0120 C   0  0  0  0  0  0  0  0  0  0  0  0
   -7.4200   14.5340    0.0900 N   0  0  0  0  0  0  0  0  0  0  0  0
   -6.2730   14.6800    0.8060 N   0  0  0  0  0  0  0  0  0  0  0  0
   -4.9680   14.6750    0.2600 C   0  0  0  0  0  0  0  0  0  0  0  0
   -3.9320   14.8230    1.1740 C   0  0  0  0  0  0  0  0  0  0  0  0
   -4.6760   14.5380   -1.1120 C   0  0  0  0  0  0  0  0  0  0  0  0
   -2.6260   14.8390    0.7610 C   0  0  0  0  0  0  0  0  0  0  0  0
   -3.3320   14.5550   -1.5320 C   0  0  0  0  0  0  0  0  0  0  0  0
   -2.2990   14.7080   -0.5710 C   0  0  0  0  0  0  0  0  0  0  0  0
   -0.8250   14.7500   -0.8630 C   0  0  0  0  0  0  0  0  0  0  0  0
   -0.1390   13.3960   -0.8900 C   0  0  0  0  0  0  0  0  0  0  0  0
    0.2560   13.2720   -2.2570 N   0  0  0  0  0  0  0  0  0  0  0  0
    0.4320   12.2710   -2.9880 C   0  0  0  0  0  0  0  0  0  0  0  0
    0.3280   10.9620   -2.6740 O   0  0  0  0  0  0  0  0  0  0  0  0
    0.7550   12.5890   -4.4100 C   0  0  1  0  0  0  0  0  0  0  0  0
   -0.2050   13.7090   -4.8430 C   0  0  0  0  0  0  0  0  0  0  0  0
    2.1930   13.0630   -4.5780 C   0  0  0  0  0  0  0  0  0  0  0  0
    2.4270   14.3050   -3.8970 O   0  0  0  0  0  0  0  0  0  0  0  0
    0.1110   15.0300   -4.1360 C   0  0  0  0  0  0  0  0  0  0  0  0
    1.5740   15.3820   -4.3090 C   0  0  0  0  0  0  0  0  0  0  0  0
  1  2  1  0
  1  3  1  0
  3  4  1  0
  4  5  2  0
  4  6  1  0
  6  7  2  0
  5  8  1  0
  7  8  1  0
  8  9  1  0
  9 10  2  0
  9 11  1  0
 10 12  1  0
 11 13  2  0
 12 14  2  0
 13 14  1  0
 14 15  1  0
 15 16  1  0
 16 17  1  0
 17 18  2  3
 18 19  1  0
 20 18  1  1
 20 21  1  0
 20 22  1  0
 22 23  1  0
 21 24  1  0
 23 25  1  0
 24 25  1  0
M  END
