x0727_0_A_α-x0905_0_A_α
     RDKit          3D

 23 24  0  0  0  0  0  0  0  0999 V2000
    0.1520   11.8200   -5.4770 N   0  0  0  0  0  0  0  0  0  0  0  0
    1.0830   12.5270   -4.6120 C   0  0  1  0  0  0  0  0  0  0  0  0
    0.9240   14.0240   -4.7920 C   0  0  0  0  0  0  0  0  0  0  0  0
    0.5020   11.1880   -6.6380 C   0  0  0  0  0  0  0  0  0  0  0  0
    1.5210   11.4100   -7.2640 O   0  0  0  0  0  0  0  0  0  0  0  0
    0.7740   12.1060   -3.1620 C   0  0  0  0  0  0  0  0  0  0  0  0
   -0.5660   10.1770   -6.9940 C   0  0  0  0  0  0  0  0  0  0  0  0
    0.3630   10.9930   -2.8350 O   0  0  0  0  0  0  0  0  0  0  0  0
    1.0130   13.1380   -2.2950 O   0  0  0  0  0  0  0  0  0  0  0  0
   -1.0000   10.1030   -8.4430 C   0  0  0  0  0  0  0  0  0  0  0  0
   -0.2150    8.7240   -6.7240 C   0  0  0  0  0  0  0  0  0  0  0  0
    0.1290   13.2660   -1.1590 C   0  0  0  0  0  0  0  0  0  0  0  0
   -1.9570    8.9090   -8.3930 C   0  0  0  0  0  0  0  0  0  0  0  0
   -1.4810    8.0480   -7.2150 C   0  0  0  0  0  0  0  0  0  0  0  0
   -0.6370   14.5890   -1.1180 C   0  0  0  0  0  0  0  0  0  0  0  0
   -1.4930   14.7140    0.1590 C   0  0  0  0  0  0  0  0  0  0  0  0
   -2.9730   14.8890   -0.1290 C   0  0  0  0  0  0  0  0  0  0  0  0
   -3.9120   14.8220    0.8980 C   0  0  0  0  0  0  0  0  0  0  0  0
   -3.4660   15.1210   -1.4240 C   0  0  0  0  0  0  0  0  0  0  0  0
   -5.2480   14.9570    0.7210 N   0  0  0  0  0  0  0  0  0  0  0  0
   -4.8360   15.2630   -1.6320 C   0  0  0  0  0  0  0  0  0  0  0  0
   -5.6560   15.1670   -0.5350 C   0  0  0  0  0  0  0  0  0  0  0  0
   -7.0020   15.2790   -0.6570 O   0  0  0  0  0  0  0  0  0  0  0  0
  1  2  1  0
  2  3  1  1
  1  4  1  0
  4  5  2  0
  2  6  1  0
  4  7  1  0
  6  8  2  0
  6  9  1  0
  7 10  1  0
  7 11  1  0
  9 12  1  0
 10 13  1  0
 11 14  1  0
 13 14  1  0
 12 15  1  0
 15 16  1  0
 16 17  1  0
 17 18  2  0
 17 19  1  0
 18 20  1  0
 19 21  2  0
 20 22  2  0
 21 22  1  0
 22 23  1  0
M  END
