x0727_0_A_α-x0950_0_A_α
     RDKit          3D

 14 14  0  0  0  0  0  0  0  0999 V2000
    0.0250   11.5750   -5.6730 N   0  0  0  0  0  0  0  0  0  0  0  0
    0.8970   12.2110   -4.6870 C   0  0  1  0  0  0  0  0  0  0  0  0
    0.9420   13.7150   -4.7850 C   0  0  0  0  0  0  0  0  0  0  0  0
    0.6590   11.1460   -6.8140 C   0  0  0  0  0  0  0  0  0  0  0  0
    1.6610   11.6890   -7.1960 O   0  0  0  0  0  0  0  0  0  0  0  0
    0.5160   11.7730   -3.2790 C   0  0  0  0  0  0  0  0  0  0  0  0
    0.0390    9.9530   -7.5220 C   0  0  0  0  0  0  0  0  0  0  0  0
   -0.1180   10.7720   -2.9840 O   0  0  0  0  0  0  0  0  0  0  0  0
    0.9630   12.6170   -2.3290 O   0  0  0  0  0  0  0  0  0  0  0  0
    2.2750   14.1360   -4.1900 C   0  0  0  0  0  0  0  0  0  0  0  0
   -1.2810   10.2960   -8.2130 C   0  0  0  0  0  0  0  0  0  0  0  0
   -0.2590    8.7700   -6.5800 C   0  0  0  0  0  0  0  0  0  0  0  0
   -2.1420    9.0520   -8.0450 C   0  0  0  0  0  0  0  0  0  0  0  0
   -1.7550    8.5280   -6.6740 C   0  0  0  0  0  0  0  0  0  0  0  0
  1  2  1  0
  2  3  1  1
  1  4  1  0
  4  5  2  0
  2  6  1  0
  4  7  1  0
  6  8  2  0
  6  9  1  0
  3 10  1  0
  7 11  1  0
  7 12  1  0
 11 13  1  0
 12 14  1  0
 13 14  1  0
M  END
