x0727_0_A-x0900_1_A
     RDKit          3D

 14 14  0  0  0  0  0  0  0  0999 V2000
    0.0800   11.3790   -5.6670 N   0  0  0  0  0  0  0  0  0  0  0  0
    0.8260   12.3120   -4.8170 C   0  0  1  0  0  0  0  0  0  0  0  0
    0.3520   13.7430   -5.0030 C   0  0  0  0  0  0  0  0  0  0  0  0
    0.6520   10.9930   -6.8510 C   0  0  0  0  0  0  0  0  0  0  0  0
    1.5560   11.6500   -7.3020 O   0  0  0  0  0  0  0  0  0  0  0  0
    0.7100   11.8840   -3.3520 C   0  0  0  0  0  0  0  0  0  0  0  0
    0.1620    9.7170   -7.5140 C   0  0  2  0  0  0  0  0  0  0  0  0
    0.1690   10.8520   -2.9920 O   0  0  0  0  0  0  0  0  0  0  0  0
    1.2730   12.7560   -2.4810 O   0  0  0  0  0  0  0  0  0  0  0  0
   -1.0070    9.8550   -8.4490 C   0  0  0  0  0  0  0  0  0  0  0  0
   -0.3580    8.6240   -6.5680 C   0  0  0  0  0  0  0  0  0  0  0  0
   -0.9250   10.2540   -9.6060 O   0  0  0  0  0  0  0  0  0  0  0  0
   -2.3000    9.4240   -7.8160 C   0  0  0  0  0  0  0  0  0  0  0  0
   -1.8660    8.8140   -6.4870 C   0  0  0  0  0  0  0  0  0  0  0  0
  1  2  1  0
  2  3  1  1
  1  4  1  0
  4  5  2  0
  2  6  1  0
  7  4  1  1
  6  8  2  0
  6  9  1  0
  7 10  1  0
  7 11  1  0
 10 12  2  0
 10 13  1  0
 11 14  1  0
 13 14  1  0
M  END
