x0727_0_A-x0724_0_A
     RDKit          3D

 30 32  0  0  0  0  0  0  0  0999 V2000
    0.1270   11.4240   -5.5770 N   0  0  0  0  0  0  0  0  0  0  0  0
    0.9020   12.3310   -4.7200 C   0  0  1  0  0  0  0  0  0  0  0  0
    0.4420   13.7650   -4.9160 C   0  0  0  0  0  0  0  0  0  0  0  0
    0.7050   11.1040   -6.7860 C   0  0  0  0  0  0  0  0  0  0  0  0
    1.6400   11.7400   -7.1990 O   0  0  0  0  0  0  0  0  0  0  0  0
    0.7730   11.8890   -3.2500 C   0  0  0  0  0  0  0  0  0  0  0  0
    0.1290    9.8980   -7.5290 C   0  0  0  0  0  0  0  0  0  0  0  0
   -0.0220   11.0420   -2.8450 O   0  0  0  0  0  0  0  0  0  0  0  0
    1.6780   12.5380   -2.4550 O   0  0  0  0  0  0  0  0  0  0  0  0
   -1.1390   10.2200   -8.3240 C   0  0  0  0  0  0  0  0  0  0  0  0
   -0.2380    8.7530   -6.5690 C   0  0  0  0  0  0  0  0  0  0  0  0
    1.2570   13.7790   -1.8630 C   0  0  0  0  0  0  0  0  0  0  0  0
   -2.2800    9.5100   -7.6050 C   0  0  0  0  0  0  0  0  0  0  0  0
   -1.6380    8.3060   -6.9400 C   0  0  0  0  0  0  0  0  0  0  0  0
   -0.1370   13.6020   -1.2700 C   0  0  0  0  0  0  0  0  0  0  0  0
   -1.1890   14.4360   -2.0060 C   0  0  0  0  0  0  0  0  0  0  0  0
   -2.5110   14.5220   -1.2810 C   0  0  0  0  0  0  0  0  0  0  0  0
   -2.5500   14.6710    0.1110 C   0  0  0  0  0  0  0  0  0  0  0  0
   -3.7170   14.4490   -1.9910 C   0  0  0  0  0  0  0  0  0  0  0  0
   -3.7680   14.7330    0.7900 C   0  0  0  0  0  0  0  0  0  0  0  0
   -4.9390   14.5110   -1.3170 C   0  0  0  0  0  0  0  0  0  0  0  0
   -4.9710   14.6480    0.0780 C   0  0  0  0  0  0  0  0  0  0  0  0
   -6.2190   14.6980    0.7570 N   0  0  0  0  0  0  0  0  0  0  0  0
   -7.4040   14.6000    0.0990 N   0  0  0  0  0  0  0  0  0  0  0  0
   -6.4180   14.8470    2.1120 C   0  0  0  0  0  0  0  0  0  0  0  0
   -7.7780   14.8580    2.3430 C   0  0  0  0  0  0  0  0  0  0  0  0
   -8.3310   14.6970    1.0560 C   0  0  0  0  0  0  0  0  0  0  0  0
   -8.4870   15.0110    3.6400 C   0  0  0  0  0  0  0  0  0  0  0  0
   -8.2680   13.8070    4.4270 N   0  0  0  0  0  0  0  0  0  0  0  0
   -8.7200   13.9870    5.8000 C   0  0  0  0  0  0  0  0  0  0  0  0
  1  2  1  0
  2  3  1  1
  1  4  1  0
  4  5  2  0
  2  6  1  0
  4  7  1  0
  6  8  2  0
  6  9  1  0
  7 10  1  0
  7 11  1  0
  9 12  1  0
 10 13  1  0
 11 14  1  0
 13 14  1  0
 12 15  1  0
 15 16  1  0
 16 17  1  0
 17 18  2  0
 17 19  1  0
 18 20  1  0
 19 21  2  0
 20 22  2  0
 21 22  1  0
 22 23  1  0
 23 24  1  0
 23 25  1  0
 25 26  2  0
 24 27  2  0
 26 27  1  0
 26 28  1  0
 28 29  1  0
 29 30  1  0
M  END
