x0727_0_A-x0628_0_A
     RDKit          3D

 20 21  0  0  0  0  0  0  0  0999 V2000
    1.3230   11.8060   -6.1720 N   0  0  0  0  0  0  0  0  0  0  0  0
    1.0520   12.8310   -5.1450 C   0  0  1  0  0  0  0  0  0  0  0  0
   -0.4220   13.2000   -5.1390 C   0  0  0  0  0  0  0  0  0  0  0  0
    0.3610   11.5410   -7.1260 C   0  0  0  0  0  0  0  0  0  0  0  0
   -0.6240   12.2490   -7.2100 O   0  0  0  0  0  0  0  0  0  0  0  0
    1.4040   12.3140   -3.7500 C   0  0  0  0  0  0  0  0  0  0  0  0
    0.5700   10.3370   -8.0410 C   0  0  0  0  0  0  0  0  0  0  0  0
    0.7750   11.4750   -3.1170 O   0  0  0  0  0  0  0  0  0  0  0  0
    2.5030   12.8760   -3.2230 O   0  0  0  0  0  0  0  0  0  0  0  0
   -0.4890   10.3240   -9.1470 C   0  0  0  0  0  0  0  0  0  0  0  0
    0.4400    8.9630   -7.3520 C   0  0  0  0  0  0  0  0  0  0  0  0
   -1.2770   12.0250   -5.0820 N   0  0  0  0  0  0  0  0  0  0  0  0
   -1.5130    9.2990   -8.6840 C   0  0  0  0  0  0  0  0  0  0  0  0
   -0.6350    8.2000   -8.1180 C   0  0  0  0  0  0  0  0  0  0  0  0
   -0.8310   10.8250   -5.5090 N   0  0  0  0  0  0  0  0  0  0  0  0
   -2.5640   11.9280   -4.6300 C   0  0  0  0  0  0  0  0  0  0  0  0
   -3.3420   13.0630   -4.0930 C   0  0  0  0  0  0  0  0  0  0  0  0
   -2.9710   10.6810   -4.7570 N   0  0  0  0  0  0  0  0  0  0  0  0
   -1.8910   10.0400   -5.2950 C   0  0  0  0  0  0  0  0  0  0  0  0
   -1.9110    8.5990   -5.6080 C   0  0  0  0  0  0  0  0  0  0  0  0
  1  2  1  0
  2  3  1  1
  1  4  1  0
  4  5  2  0
  2  6  1  0
  4  7  1  0
  6  8  2  0
  6  9  1  0
  7 10  1  0
  7 11  1  0
  3 12  1  0
 10 13  1  0
 11 14  1  0
 13 14  1  0
 12 15  1  0
 12 16  1  0
 16 17  1  0
 16 18  2  0
 15 19  2  0
 18 19  1  0
 19 20  1  0
M  END
