x0729_0_A_α-x0091_0_B_α
     RDKit          3D

 30 32  0  0  0  0  0  0  0  0999 V2000
   19.7960   25.4190    5.9190 C   0  0  0  0  0  0  0  0  0  0  0  0
   19.9040   26.9200    6.1700 C   0  0  1  0  0  0  0  0  0  0  0  0
   20.2470   27.0930    7.6160 N   0  0  0  0  0  0  0  0  0  0  0  0
   20.9090   27.5410    5.1900 C   0  0  1  0  0  0  0  0  0  0  0  0
   20.3040   27.7170    3.8540 C   0  0  0  0  0  0  0  0  0  0  0  0
   19.0030   27.1450    8.7990 S   0  0  0  0  0  0  0  0  0  0  0  0
   21.6200   27.5740    7.9820 C   0  0  0  0  0  0  0  0  0  0  0  0
   21.5660   28.8090    5.7070 C   0  0  0  0  0  0  0  0  0  0  0  0
   17.7570   27.1210    8.0750 O   0  0  0  0  0  0  0  0  0  0  0  0
   19.8660   27.7770    2.7820 N   0  0  0  0  0  0  0  0  0  0  0  0
   19.3250   28.2510    9.6780 O   0  0  0  0  0  0  0  0  0  0  0  0
   19.0910   25.6160    9.7630 C   0  0  0  0  0  0  0  0  0  0  0  0
   22.3190   28.5330    7.0000 C   0  0  0  0  0  0  0  0  0  0  0  0
   17.7600   25.3780   10.5230 C   0  0  0  0  0  0  0  0  0  0  0  0
   17.2710   23.9110   10.5980 C   0  0  0  0  0  0  0  0  0  0  0  0
   16.7000   23.4990   11.9480 C   0  0  2  0  0  0  0  0  0  0  0  0
   15.2000   23.4730   12.2210 C   0  0  2  0  0  0  0  0  0  0  0  0
   16.0730   24.5510   12.8170 C   0  0  0  0  0  0  0  0  0  0  0  0
   14.5820   22.5430   13.1370 N   0  0  0  0  0  0  0  0  0  0  0  0
   13.7900   21.4790   12.7410 C   0  0  0  0  0  0  0  0  0  0  0  0
   12.7910   21.0910   13.6280 N   0  0  0  0  0  0  0  0  0  0  0  0
   13.9690   20.9010   11.6760 O   0  0  0  0  0  0  0  0  0  0  0  0
   12.1890   21.9360   14.6520 C   0  0  0  0  0  0  0  0  0  0  0  0
   12.2800   19.7130   13.5310 C   0  0  0  0  0  0  0  0  0  0  0  0
   13.1830   18.7490   14.2460 C   0  0  0  0  0  0  0  0  0  0  0  0
   12.6830   17.7460   14.9870 N   0  0  0  0  0  0  0  0  0  0  0  0
   14.6010   18.7220   14.2640 C   0  0  0  0  0  0  0  0  0  0  0  0
   13.7750   17.0570   15.4920 O   0  0  0  0  0  0  0  0  0  0  0  0
   14.9180   17.6460   15.0570 C   0  0  0  0  0  0  0  0  0  0  0  0
   16.1910   17.0420   15.4980 C   0  0  0  0  0  0  0  0  0  0  0  0
  2  1  1  6
  2  3  1  0
  2  4  1  0
  4  5  1  6
  3  6  1  0
  3  7  1  0
  4  8  1  0
  6  9  2  0
  5 10  3  0
  6 11  2  0
  6 12  1  0
  7 13  1  0
  8 13  1  0
 12 14  1  0
 14 15  1  0
 16 15  1  6
 16 17  1  0
 16 18  1  0
 17 18  1  0
 17 19  1  1
 19 20  1  0
 20 21  1  0
 20 22  2  0
 21 23  1  0
 21 24  1  0
 24 25  1  0
 25 26  2  0
 25 27  1  0
 26 28  1  0
 27 29  2  0
 28 29  1  0
 29 30  1  0
M  END
