x0727_0_A_α-x0805_0_A_α
     RDKit          3D

 22 23  0  0  0  0  0  0  0  0999 V2000
    0.0820   11.5660   -5.5610 N   0  0  0  0  0  0  0  0  0  0  0  0
    0.8550   12.4100   -4.6370 C   0  0  1  0  0  0  0  0  0  0  0  0
    0.3700   13.8690   -4.5940 C   0  0  0  0  0  0  0  0  0  0  0  0
    0.6730   11.1910   -6.7440 C   0  0  0  0  0  0  0  0  0  0  0  0
    1.6510   11.7590   -7.1550 O   0  0  0  0  0  0  0  0  0  0  0  0
    0.7330   11.8250   -3.2350 C   0  0  0  0  0  0  0  0  0  0  0  0
    0.0390   10.0060   -7.4760 C   0  0  0  0  0  0  0  0  0  0  0  0
    0.1390   10.8000   -2.9290 O   0  0  0  0  0  0  0  0  0  0  0  0
    1.3720   12.5630   -2.3070 O   0  0  0  0  0  0  0  0  0  0  0  0
   -1.1350   14.0900   -4.8310 C   0  0  0  0  0  0  0  0  0  0  0  0
   -1.2630   10.3900   -8.1800 C   0  0  0  0  0  0  0  0  0  0  0  0
   -0.3180    8.8550   -6.5180 C   0  0  0  0  0  0  0  0  0  0  0  0
   -2.1710    9.1740   -8.0570 C   0  0  0  0  0  0  0  0  0  0  0  0
   -1.7820    8.5100   -6.7470 C   0  0  0  0  0  0  0  0  0  0  0  0
   -2.0800   13.9590   -3.6410 C   0  0  0  0  0  0  0  0  0  0  0  0
   -3.1370   13.0480   -3.7250 C   0  0  0  0  0  0  0  0  0  0  0  0
   -1.9520   14.7210   -2.4560 C   0  0  0  0  0  0  0  0  0  0  0  0
   -4.0410   12.8960   -2.6780 C   0  0  0  0  0  0  0  0  0  0  0  0
   -2.8660   14.5720   -1.3970 C   0  0  0  0  0  0  0  0  0  0  0  0
   -2.8410   15.2600   -0.2080 O   0  0  0  0  0  0  0  0  0  0  0  0
   -3.9080   13.6570   -1.5180 C   0  0  0  0  0  0  0  0  0  0  0  0
   -4.0920   15.5390    0.4280 C   0  0  0  0  0  0  0  0  0  0  0  0
  1  2  1  0
  2  3  1  1
  1  4  1  0
  4  5  2  0
  2  6  1  0
  4  7  1  0
  6  8  2  0
  6  9  1  0
  3 10  1  0
  7 11  1  0
  7 12  1  0
 11 13  1  0
 12 14  1  0
 13 14  1  0
 10 15  1  0
 15 16  2  0
 15 17  1  0
 16 18  1  0
 17 19  2  0
 19 20  1  0
 18 21  2  0
 19 21  1  0
 20 22  1  0
M  END
