x0727_0_A-x0628_0_A
     RDKit          3D

 20 21  0  0  0  0  0  0  0  0999 V2000
    1.0600   11.7250   -6.0020 N   0  0  0  0  0  0  0  0  0  0  0  0
    0.7070   12.8030   -5.0630 C   0  0  1  0  0  0  0  0  0  0  0  0
   -0.7720   13.1810   -5.0990 C   0  0  0  0  0  0  0  0  0  0  0  0
    0.2400   11.3610   -7.0430 C   0  0  0  0  0  0  0  0  0  0  0  0
   -0.6150   12.1160   -7.4670 O   0  0  0  0  0  0  0  0  0  0  0  0
    1.0640   12.3330   -3.6590 C   0  0  0  0  0  0  0  0  0  0  0  0
    0.4750    9.9640   -7.6150 C   0  0  0  0  0  0  0  0  0  0  0  0
    0.6440   11.3280   -3.1130 O   0  0  0  0  0  0  0  0  0  0  0  0
    1.9150   13.1450   -3.0150 O   0  0  0  0  0  0  0  0  0  0  0  0
   -0.2440    9.7680   -8.9590 C   0  0  0  0  0  0  0  0  0  0  0  0
   -0.0130    8.8120   -6.7180 C   0  0  0  0  0  0  0  0  0  0  0  0
   -1.6660   12.0490   -5.2610 N   0  0  0  0  0  0  0  0  0  0  0  0
   -1.0510    8.4790   -8.8360 C   0  0  0  0  0  0  0  0  0  0  0  0
   -1.2940    8.3000   -7.3500 C   0  0  0  0  0  0  0  0  0  0  0  0
   -2.2220   11.8210   -6.4650 N   0  0  0  0  0  0  0  0  0  0  0  0
   -2.0740   11.1100   -4.3440 C   0  0  0  0  0  0  0  0  0  0  0  0
   -1.6580   11.0650   -2.9210 C   0  0  0  0  0  0  0  0  0  0  0  0
   -2.8950   10.2660   -4.9420 N   0  0  0  0  0  0  0  0  0  0  0  0
   -2.9550   10.7320   -6.2290 C   0  0  0  0  0  0  0  0  0  0  0  0
   -3.7680   10.0820   -7.2750 C   0  0  0  0  0  0  0  0  0  0  0  0
  1  2  1  0
  2  3  1  1
  1  4  1  0
  4  5  2  0
  2  6  1  0
  4  7  1  0
  6  8  2  0
  6  9  1  0
  7 10  1  0
  7 11  1  0
  3 12  1  0
 10 13  1  0
 11 14  1  0
 13 14  1  0
 12 15  1  0
 12 16  1  0
 16 17  1  0
 16 18  2  0
 15 19  2  0
 18 19  1  0
 19 20  1  0
M  END
