x0727_0_A_α-x0631_0_A_β
     RDKit          3D

 21 23  0  0  0  0  0  0  0  0999 V2000
   -0.1090   11.8570   -5.2430 N   0  0  0  0  0  0  0  0  0  0  0  0
    0.9340   12.5130   -4.4950 C   0  0  1  0  0  0  0  0  0  0  0  0
    0.7990   14.0200   -4.6710 C   0  0  0  0  0  0  0  0  0  0  0  0
    0.0930   11.3860   -6.4850 C   0  0  0  0  0  0  0  0  0  0  0  0
    0.9530   11.8940   -7.1750 O   0  0  0  0  0  0  0  0  0  0  0  0
    0.8740   12.0770   -3.0230 C   0  0  0  0  0  0  0  0  0  0  0  0
   -0.8220   10.2140   -6.8120 C   0  0  1  0  0  0  0  0  0  0  0  0
    0.2330   11.1120   -2.6290 O   0  0  0  0  0  0  0  0  0  0  0  0
    1.5890   12.8560   -2.1840 O   0  0  0  0  0  0  0  0  0  0  0  0
   -2.1520   10.5090   -7.4790 C   0  0  0  0  0  0  0  0  0  0  0  0
   -0.4000    9.2360   -7.8690 C   0  0  2  0  0  0  0  0  0  0  0  0
   -2.6780    9.0700   -7.6800 C   0  0  1  0  0  0  0  0  0  0  0  0
   -1.4310    8.1620   -7.5750 C   0  0  2  0  0  0  0  0  0  0  0  0
    1.0050    9.0950   -7.9900 N   0  0  0  0  0  0  0  0  0  0  0  0
    1.3730    8.8550   -9.3340 N   0  0  0  0  0  0  0  0  0  0  0  0
    1.5030   10.3600   -7.7570 N   0  0  0  0  0  0  0  0  0  0  0  0
   -1.4680    7.5720   -6.1740 C   0  0  0  0  0  0  0  0  0  0  0  0
   -3.6640    8.5880   -6.6250 C   0  0  0  0  0  0  0  0  0  0  0  0
    1.1650   10.1750   -9.9620 C   0  0  0  0  0  0  0  0  0  0  0  0
    0.9130   11.0830   -8.8520 N   0  0  0  0  0  0  0  0  0  0  0  0
   -2.9600    7.4710   -5.8500 C   0  0  0  0  0  0  0  0  0  0  0  0
  1  2  1  0
  2  3  1  1
  1  4  1  0
  4  5  2  0
  2  6  1  0
  7  4  1  6
  6  8  2  0
  6  9  1  0
  7 10  1  0
  7 11  1  0
 12 10  1  1
 11 13  1  0
 12 13  1  0
 11 14  1  1
 14 15  1  0
 14 16  1  0
 13 17  1  1
 12 18  1  0
 15 19  1  0
 16 20  1  0
 19 20  1  0
 17 21  1  0
 18 21  1  0
M  END
