x0729_1_B-x0259_0_A
     RDKit          3D

 26 28  0  0  0  0  0  0  0  0999 V2000
   19.6570   24.3360    7.0770 C   0  0  0  0  0  0  0  0  0  0  0  0
   19.9870   25.8080    6.8430 C   0  0  1  0  0  0  0  0  0  0  0  0
   20.1110   26.4800    8.1840 N   0  0  0  0  0  0  0  0  0  0  0  0
   21.1810   25.8810    5.8750 C   0  0  1  0  0  0  0  0  0  0  0  0
   20.6580   26.1970    4.5470 C   0  0  0  0  0  0  0  0  0  0  0  0
   18.8230   27.5040    8.6300 S   0  0  0  0  0  0  0  0  0  0  0  0
   21.4710   26.8860    8.6180 C   0  0  0  0  0  0  0  0  0  0  0  0
   22.3670   26.7820    6.2550 C   0  0  0  0  0  0  0  0  0  0  0  0
   19.2960   28.3320    9.7250 O   0  0  0  0  0  0  0  0  0  0  0  0
   20.1930   26.4470    3.5310 N   0  0  0  0  0  0  0  0  0  0  0  0
   17.6480   26.6740    8.7920 O   0  0  0  0  0  0  0  0  0  0  0  0
   18.6070   28.6200    7.1510 C   0  0  2  0  0  0  0  0  0  0  0  0
   22.1830   27.6330    7.5090 C   0  0  0  0  0  0  0  0  0  0  0  0
   19.8930   29.0320    6.5340 N   0  0  0  0  0  0  0  0  0  0  0  0
   17.5880   29.7650    7.2200 C   0  0  2  0  0  0  0  0  0  0  0  0
   20.2150   28.6930    5.2260 C   0  0  0  0  0  0  0  0  0  0  0  0
   17.4040   30.4230    8.5750 C   0  0  0  0  0  0  0  0  0  0  0  0
   16.1450   29.3970    6.9300 C   0  0  0  0  0  0  0  0  0  0  0  0
   19.2510   28.1830    4.4450 N   0  0  0  0  0  0  0  0  0  0  0  0
   21.5150   28.8850    4.7460 C   0  0  0  0  0  0  0  0  0  0  0  0
   15.4060   30.5680    7.3090 O   0  0  0  0  0  0  0  0  0  0  0  0
   16.1370   31.2260    8.3490 C   0  0  0  0  0  0  0  0  0  0  0  0
   22.8030   29.5400    5.6890 Cl  0  0  0  0  0  0  0  0  0  0  0  0
   19.5820   27.8670    3.1840 C   0  0  0  0  0  0  0  0  0  0  0  0
   21.7450   28.5210    3.4360 C   0  0  0  0  0  0  0  0  0  0  0  0
   20.7950   28.0100    2.6280 N   0  0  0  0  0  0  0  0  0  0  0  0
  2  1  1  1
  2  3  1  0
  2  4  1  0
  4  5  1  6
  6  3  1  0
  3  7  1  0
  4  8  1  0
  6  9  2  0
  5 10  3  0
  6 11  2  0
  6 12  1  0
  7 13  1  0
  8 13  1  0
 12 14  1  1
 12 15  1  0
 14 16  1  0
 15 17  1  1
 15 18  1  0
 16 19  2  0
 16 20  1  0
 18 21  1  0
 17 22  1  0
 21 22  1  0
 20 23  1  0
 19 24  1  0
 20 25  2  0
 24 26  2  0
 25 26  1  0
M  END
