x0724_0_A-x0895_1_A
     RDKit          3D

 16 17  0  0  0  0  0  0  0  0999 V2000
   -8.6630   13.7430    4.3710 N   0  0  0  0  0  0  0  0  0  0  0  0
   -8.4950   13.8390    5.8190 C   0  0  0  0  0  0  0  0  0  0  0  0
   -8.3730   15.0130    3.7100 C   0  0  0  0  0  0  0  0  0  0  0  0
   -7.8310   14.8110    2.3410 C   0  0  0  0  0  0  0  0  0  0  0  0
   -6.5280   14.8760    1.9310 C   0  0  0  0  0  0  0  0  0  0  0  0
   -8.5110   14.5160    1.1490 C   0  0  0  0  0  0  0  0  0  0  0  0
   -7.7030   14.4140    0.0940 N   0  0  0  0  0  0  0  0  0  0  0  0
   -6.4470   14.6390    0.5620 N   0  0  0  0  0  0  0  0  0  0  0  0
   -5.2440   14.6680   -0.1600 C   0  0  0  0  0  0  0  0  0  0  0  0
   -4.0510   15.1100    0.5900 C   0  0  0  0  0  0  0  0  0  0  0  0
   -5.0470   14.3540   -1.4530 C   0  0  0  0  0  0  0  0  0  0  0  0
   -4.1570   15.6790    1.6460 O   0  0  0  0  0  0  0  0  0  0  0  0
   -2.6800   14.8430    0.0020 C   0  0  0  0  0  0  0  0  0  0  0  0
   -3.7690   14.4290   -2.1190 C   0  0  0  0  0  0  0  0  0  0  0  0
   -1.6700   14.7890    0.6970 O   0  0  0  0  0  0  0  0  0  0  0  0
   -2.6260   14.6610   -1.4620 C   0  0  0  0  0  0  0  0  0  0  0  0
  1  2  1  0
  1  3  1  0
  3  4  1  0
  4  5  2  0
  4  6  1  0
  6  7  2  0
  5  8  1  0
  7  8  1  0
  8  9  1  0
  9 10  1  0
  9 11  2  0
 10 12  2  0
 10 13  1  0
 11 14  1  0
 13 15  2  0
 13 16  1  0
 14 16  2  0
M  END
