x0724_0_A_α-x0910_0_A_α
     RDKit          3D

 19 21  0  0  0  0  0  0  0  0999 V2000
   -8.6730   13.7370    4.3250 N   0  0  0  0  0  0  0  0  0  0  0  0
   -8.3850   14.0400    5.7220 C   0  0  0  0  0  0  0  0  0  0  0  0
   -8.8880   14.9570    3.5580 C   0  0  0  0  0  0  0  0  0  0  0  0
   -8.2180   14.8230    2.2360 C   0  0  0  0  0  0  0  0  0  0  0  0
   -6.8850   14.8170    1.9940 C   0  0  0  0  0  0  0  0  0  0  0  0
   -8.7790   14.6770    0.9490 C   0  0  0  0  0  0  0  0  0  0  0  0
   -7.8610   14.5900   -0.0290 N   0  0  0  0  0  0  0  0  0  0  0  0
   -6.6940   14.6840    0.6400 N   0  0  0  0  0  0  0  0  0  0  0  0
   -5.4110   14.6590    0.0820 C   0  0  0  0  0  0  0  0  0  0  0  0
   -4.4580   14.8820    1.0280 C   0  0  0  0  0  0  0  0  0  0  0  0
   -5.0540   14.4360   -1.2740 C   0  0  0  0  0  0  0  0  0  0  0  0
   -3.1700   14.8790    0.6960 C   0  0  0  0  0  0  0  0  0  0  0  0
   -3.6790   14.4370   -1.6190 C   0  0  0  0  0  0  0  0  0  0  0  0
   -2.7530   14.6600   -0.5860 C   0  0  0  0  0  0  0  0  0  0  0  0
   -1.3440   14.7240   -0.4930 C   0  0  0  0  0  0  0  0  0  0  0  0
   -0.8700   15.0870    0.7220 N   0  0  0  0  0  0  0  0  0  0  0  0
   -0.3470   14.5070   -1.3100 N   0  0  0  0  0  0  0  0  0  0  0  0
    0.4340   15.1240    0.7560 N   0  0  0  0  0  0  0  0  0  0  0  0
    0.7200   14.7650   -0.4950 C   0  0  0  0  0  0  0  0  0  0  0  0
  1  2  1  0
  1  3  1  0
  3  4  1  0
  4  5  2  0
  4  6  1  0
  6  7  2  0
  5  8  1  0
  7  8  1  0
  8  9  1  0
  9 10  2  0
  9 11  1  0
 10 12  1  0
 11 13  2  0
 12 14  2  0
 13 14  1  0
 14 15  1  0
 15 16  1  0
 15 17  2  0
 16 18  1  0
 17 19  1  0
 18 19  2  0
M  END
