x0724_0_A-x0969_0_A
     RDKit          3D

 14 15  0  0  0  0  0  0  0  0999 V2000
   -8.2560   13.7550    4.4440 N   0  0  0  0  0  0  0  0  0  0  0  0
   -8.7110   13.9430    5.8140 C   0  0  0  0  0  0  0  0  0  0  0  0
   -8.4520   14.9670    3.6660 C   0  0  0  0  0  0  0  0  0  0  0  0
   -7.7550   14.8210    2.3600 C   0  0  0  0  0  0  0  0  0  0  0  0
   -6.3970   14.8480    2.0970 C   0  0  0  0  0  0  0  0  0  0  0  0
   -8.3290   14.6280    1.0890 C   0  0  0  0  0  0  0  0  0  0  0  0
   -7.4270   14.5490    0.1120 N   0  0  0  0  0  0  0  0  0  0  0  0
   -6.2250   14.6920    0.7390 N   0  0  0  0  0  0  0  0  0  0  0  0
   -5.0050   14.6820    0.0130 C   0  0  0  0  0  0  0  0  0  0  0  0
   -3.7890   14.7930    0.7060 C   0  0  0  0  0  0  0  0  0  0  0  0
   -4.9950   14.5740   -1.3840 C   0  0  0  0  0  0  0  0  0  0  0  0
   -2.5830   14.7960    0.0060 C   0  0  0  0  0  0  0  0  0  0  0  0
   -3.7850   14.5770   -2.0770 C   0  0  0  0  0  0  0  0  0  0  0  0
   -2.5830   14.6890   -1.3840 C   0  0  0  0  0  0  0  0  0  0  0  0
  1  2  1  0
  1  3  1  0
  3  4  1  0
  4  5  2  0
  4  6  1  0
  6  7  2  0
  5  8  1  0
  7  8  1  0
  8  9  1  0
  9 10  2  0
  9 11  1  0
 10 12  1  0
 11 13  2  0
 12 14  2  0
 13 14  1  0
M  END
