x0724_0_A-x0253_0_A
     RDKit          3D

 31 33  0  0  0  0  0  0  0  0999 V2000
   -8.2640   13.7770    4.4320 N   0  0  0  0  0  0  0  0  0  0  0  0
   -8.6660   13.9540    5.8220 C   0  0  0  0  0  0  0  0  0  0  0  0
   -8.4980   14.9860    3.6500 C   0  0  0  0  0  0  0  0  0  0  0  0
   -7.7910   14.8410    2.3450 C   0  0  0  0  0  0  0  0  0  0  0  0
   -6.4330   14.8550    2.1060 C   0  0  0  0  0  0  0  0  0  0  0  0
   -8.3470   14.6630    1.0640 C   0  0  0  0  0  0  0  0  0  0  0  0
   -7.4290   14.5800    0.1030 N   0  0  0  0  0  0  0  0  0  0  0  0
   -6.2400   14.7050    0.7530 N   0  0  0  0  0  0  0  0  0  0  0  0
   -4.9970   14.6810    0.0660 C   0  0  0  0  0  0  0  0  0  0  0  0
   -3.7950   14.7760    0.7770 C   0  0  0  0  0  0  0  0  0  0  0  0
   -4.9660   14.5600   -1.3340 C   0  0  0  0  0  0  0  0  0  0  0  0
   -2.5760   14.7450    0.1020 C   0  0  0  0  0  0  0  0  0  0  0  0
   -3.7450   14.5300   -2.0090 C   0  0  0  0  0  0  0  0  0  0  0  0
   -2.5380   14.6180   -1.2950 C   0  0  0  0  0  0  0  0  0  0  0  0
   -1.2160   14.5740   -2.0270 C   0  0  0  0  0  0  0  0  0  0  0  0
   -0.0160   14.6630   -1.0700 C   0  0  0  0  0  0  0  0  0  0  0  0
    1.1690   13.8740   -1.6040 C   0  0  0  0  0  0  0  0  0  0  0  0
    0.7570   12.4810   -1.7240 N   0  0  0  0  0  0  0  0  0  0  0  0
    0.6780   11.9820   -2.9120 C   0  0  0  0  0  0  0  0  0  0  0  0
    0.2800   10.6930   -3.0040 O   0  0  0  0  0  0  0  0  0  0  0  0
    0.9740   12.6620   -4.2610 C   0  0  0  0  0  0  0  0  0  0  0  0
    0.3500   11.9000   -5.3410 N   0  0  0  0  0  0  0  0  0  0  0  0
    1.0730   11.6620   -6.4970 C   0  0  0  0  0  0  0  0  0  0  0  0
    2.1730   12.1590   -6.6390 O   0  0  0  0  0  0  0  0  0  0  0  0
    0.4590   10.7510   -7.5080 C   0  0  0  0  0  0  0  0  0  0  0  0
   -0.5250    9.8370   -7.1110 C   0  0  0  0  0  0  0  0  0  0  0  0
    0.8530   10.7930   -8.8500 C   0  0  0  0  0  0  0  0  0  0  0  0
   -1.1090    8.9770   -8.0460 C   0  0  0  0  0  0  0  0  0  0  0  0
    0.2760    9.9370   -9.7830 C   0  0  0  0  0  0  0  0  0  0  0  0
   -2.1680    7.9960   -7.6250 C   0  0  0  0  0  0  0  0  0  0  0  0
   -0.7040    9.0310   -9.3850 C   0  0  0  0  0  0  0  0  0  0  0  0
  1  2  1  0
  1  3  1  0
  3  4  1  0
  4  5  2  0
  4  6  1  0
  6  7  2  0
  5  8  1  0
  7  8  1  0
  8  9  1  0
  9 10  2  0
  9 11  1  0
 10 12  1  0
 11 13  2  0
 12 14  2  0
 13 14  1  0
 14 15  1  0
 15 16  1  0
 16 17  1  0
 17 18  1  0
 18 19  2  3
 19 20  1  0
 19 21  1  0
 21 22  1  0
 22 23  1  0
 23 24  2  0
 23 25  1  0
 25 26  2  0
 25 27  1  0
 26 28  1  0
 27 29  2  0
 28 30  1  0
 28 31  2  0
 29 31  1  0
M  END
