x0722_0_A-x0689_0_A
     RDKit          3D

 12 12  0  0  0  0  0  0  0  0999 V2000
   -4.4210   15.7680    2.2540 C   0  0  0  0  0  0  0  0  0  0  0  0
   -3.4320   15.2680    1.3160 C   0  0  0  0  0  0  0  0  0  0  0  0
   -2.2590   14.9030    1.7980 N   0  0  0  0  0  0  0  0  0  0  0  0
   -3.5170   15.1140   -0.0830 C   0  0  0  0  0  0  0  0  0  0  0  0
   -4.6950   15.4260   -0.9680 C   0  0  0  0  0  0  0  0  0  0  0  0
   -2.2670   14.6250   -0.4320 C   0  0  0  0  0  0  0  0  0  0  0  0
   -1.5620   14.5260    0.7430 N   0  0  0  0  0  0  0  0  0  0  0  0
   -0.2080   14.0850    0.9490 C   0  0  0  0  0  0  0  0  0  0  0  0
   -1.6930   14.2600   -1.7470 C   0  0  0  0  0  0  0  0  0  0  0  0
   -5.9650   14.6670   -0.6210 C   0  0  0  0  0  0  0  0  0  0  0  0
   -7.0870   15.1450   -0.7730 O   0  0  0  0  0  0  0  0  0  0  0  0
   -5.8360   13.4010   -0.1250 N   0  0  0  0  0  0  0  0  0  0  0  0
  1  2  1  0
  2  3  2  0
  2  4  1  0
  4  5  1  0
  4  6  2  0
  3  7  1  0
  6  7  1  0
  7  8  1  0
  6  9  1  0
  5 10  1  0
 10 11  2  0
 10 12  1  0
M  END
