x0724_0_A-x0895_1_A
     RDKit          3D

 16 17  0  0  0  0  0  0  0  0999 V2000
   -8.6570   13.7450    4.3700 N   0  0  0  0  0  0  0  0  0  0  0  0
   -8.4970   13.8470    5.8180 C   0  0  0  0  0  0  0  0  0  0  0  0
   -8.3720   15.0200    3.7120 C   0  0  0  0  0  0  0  0  0  0  0  0
   -7.8290   14.8190    2.3440 C   0  0  0  0  0  0  0  0  0  0  0  0
   -6.5230   14.8840    1.9390 C   0  0  0  0  0  0  0  0  0  0  0  0
   -8.5110   14.5350    1.1510 C   0  0  0  0  0  0  0  0  0  0  0  0
   -7.7010   14.4330    0.0950 N   0  0  0  0  0  0  0  0  0  0  0  0
   -6.4440   14.6530    0.5670 N   0  0  0  0  0  0  0  0  0  0  0  0
   -5.2400   14.6740   -0.1550 C   0  0  0  0  0  0  0  0  0  0  0  0
   -4.0470   15.1110    0.5960 C   0  0  0  0  0  0  0  0  0  0  0  0
   -5.0450   14.3600   -1.4490 C   0  0  0  0  0  0  0  0  0  0  0  0
   -4.1530   15.6730    1.6550 O   0  0  0  0  0  0  0  0  0  0  0  0
   -2.6740   14.8450    0.0070 C   0  0  0  0  0  0  0  0  0  0  0  0
   -3.7640   14.4270   -2.1130 C   0  0  0  0  0  0  0  0  0  0  0  0
   -1.6640   14.7970    0.7010 O   0  0  0  0  0  0  0  0  0  0  0  0
   -2.6200   14.6560   -1.4560 C   0  0  0  0  0  0  0  0  0  0  0  0
  1  2  1  0
  1  3  1  0
  3  4  1  0
  4  5  2  0
  4  6  1  0
  6  7  2  0
  5  8  1  0
  7  8  1  0
  8  9  1  0
  9 10  1  0
  9 11  2  0
 10 12  2  0
 10 13  1  0
 11 14  1  0
 13 15  2  0
 13 16  1  0
 14 16  2  0
M  END
