x0722_0_A-x0933_0_A
     RDKit          3D

 12 12  0  0  0  0  0  0  0  0999 V2000
   -4.4270   15.7660    2.2570 C   0  0  0  0  0  0  0  0  0  0  0  0
   -3.4370   15.2750    1.3210 C   0  0  0  0  0  0  0  0  0  0  0  0
   -2.2650   14.9160    1.8020 N   0  0  0  0  0  0  0  0  0  0  0  0
   -3.5260   15.1250   -0.0810 C   0  0  0  0  0  0  0  0  0  0  0  0
   -4.7050   15.4390   -0.9570 C   0  0  0  0  0  0  0  0  0  0  0  0
   -2.2690   14.6360   -0.4260 C   0  0  0  0  0  0  0  0  0  0  0  0
   -1.5660   14.5410    0.7490 N   0  0  0  0  0  0  0  0  0  0  0  0
   -0.2130   14.1050    0.9720 C   0  0  0  0  0  0  0  0  0  0  0  0
   -1.6890   14.2670   -1.7380 C   0  0  0  0  0  0  0  0  0  0  0  0
   -5.9760   14.6770   -0.6150 C   0  0  0  0  0  0  0  0  0  0  0  0
   -7.0990   15.1510   -0.7730 O   0  0  0  0  0  0  0  0  0  0  0  0
   -5.8450   13.4110   -0.1150 N   0  0  0  0  0  0  0  0  0  0  0  0
  1  2  1  0
  2  3  2  0
  2  4  1  0
  4  5  1  0
  4  6  2  0
  3  7  1  0
  6  7  1  0
  7  8  1  0
  6  9  1  0
  5 10  1  0
 10 11  2  0
 10 12  1  0
M  END
