x0724_0_A-x0864_0_A
     RDKit          3D

 29 31  0  0  0  0  0  0  0  0999 V2000
   -8.2600   13.7830    4.4340 N   0  0  0  0  0  0  0  0  0  0  0  0
   -8.7090   13.9640    5.8080 C   0  0  0  0  0  0  0  0  0  0  0  0
   -8.4600   14.9960    3.6570 C   0  0  0  0  0  0  0  0  0  0  0  0
   -7.7530   14.8490    2.3520 C   0  0  0  0  0  0  0  0  0  0  0  0
   -6.3940   14.8560    2.1050 C   0  0  0  0  0  0  0  0  0  0  0  0
   -8.3190   14.6750    1.0740 C   0  0  0  0  0  0  0  0  0  0  0  0
   -7.4050   14.5890    0.1060 N   0  0  0  0  0  0  0  0  0  0  0  0
   -6.2080   14.7070    0.7480 N   0  0  0  0  0  0  0  0  0  0  0  0
   -4.9770   14.6770    0.0400 C   0  0  0  0  0  0  0  0  0  0  0  0
   -3.7680   14.7610    0.7530 C   0  0  0  0  0  0  0  0  0  0  0  0
   -4.9440   14.5690   -1.3550 C   0  0  0  0  0  0  0  0  0  0  0  0
   -2.5480   14.7290    0.0770 C   0  0  0  0  0  0  0  0  0  0  0  0
   -3.7210   14.5380   -2.0260 C   0  0  0  0  0  0  0  0  0  0  0  0
   -2.5120   14.6150   -1.3200 C   0  0  0  0  0  0  0  0  0  0  0  0
   -1.1970   14.5680   -2.0690 C   0  0  0  0  0  0  0  0  0  0  0  0
    0.0630   14.6960   -1.1940 C   0  0  0  0  0  0  0  0  0  0  0  0
    1.3060   14.0870   -1.8410 C   0  0  0  0  0  0  0  0  0  0  0  0
    1.0610   12.6600   -1.9440 N   0  0  0  0  0  0  0  0  0  0  0  0
    0.7070   12.1070   -3.0410 C   0  0  0  0  0  0  0  0  0  0  0  0
    0.4860   12.7380   -4.4150 C   0  0  0  0  0  0  0  0  0  0  0  0
    0.4920   10.7740   -2.9720 O   0  0  0  0  0  0  0  0  0  0  0  0
   -0.2120   11.8170   -5.3130 N   0  0  0  0  0  0  0  0  0  0  0  0
   -1.3840   11.2100   -4.8990 C   0  0  0  0  0  0  0  0  0  0  0  0
    0.4850   11.3820   -6.4290 C   0  0  0  0  0  0  0  0  0  0  0  0
    1.5430   11.8880   -6.7880 O   0  0  0  0  0  0  0  0  0  0  0  0
   -1.8960   10.1740   -5.5760 C   0  0  0  0  0  0  0  0  0  0  0  0
   -0.0900   10.2430   -7.1810 C   0  0  0  0  0  0  0  0  0  0  0  0
   -1.2280    9.6780   -6.7550 C   0  0  0  0  0  0  0  0  0  0  0  0
   -2.0040    8.2350   -7.6490 Br  0  0  0  0  0  0  0  0  0  0  0  0
  1  2  1  0
  1  3  1  0
  3  4  1  0
  4  5  2  0
  4  6  1  0
  6  7  2  0
  5  8  1  0
  7  8  1  0
  8  9  1  0
  9 10  2  0
  9 11  1  0
 10 12  1  0
 11 13  2  0
 12 14  2  0
 13 14  1  0
 14 15  1  0
 15 16  1  0
 16 17  1  0
 17 18  1  0
 18 19  2  3
 19 20  1  0
 19 21  1  0
 20 22  1  0
 22 23  1  0
 22 24  1  0
 24 25  2  0
 23 26  2  0
 24 27  1  0
 26 28  1  0
 27 28  2  0
 28 29  1  0
M  END
