x0724_0_A-x0685_0_A
     RDKit          3D

 16 18  0  0  0  0  0  0  0  0999 V2000
   -7.2680   13.7180    3.8680 N   0  0  0  0  0  0  0  0  0  0  0  0
   -8.4540   14.1860    4.5870 C   0  0  0  0  0  0  0  0  0  0  0  0
   -6.8340   14.5600    2.7280 C   0  0  1  0  0  0  0  0  0  0  0  0
   -5.4210   14.2160    2.3650 N   0  0  0  0  0  0  0  0  0  0  0  0
   -7.7780   14.3400    1.5020 C   0  0  2  0  0  0  0  0  0  0  0  0
   -7.1510   14.4140    0.1230 N   0  0  0  0  0  0  0  0  0  0  0  0
   -8.8520   15.3970    1.4150 C   0  0  0  0  0  0  0  0  0  0  0  0
   -4.8550   15.0030    1.1960 C   0  0  1  0  0  0  0  0  0  0  0  0
   -8.1390   15.0410   -0.6960 N   0  0  0  0  0  0  0  0  0  0  0  0
   -3.4130   14.6020    0.8350 C   0  0  0  0  0  0  0  0  0  0  0  0
   -5.8070   15.0110   -0.0540 C   0  0  1  0  0  0  0  0  0  0  0  0
   -8.9940   15.7380    0.1300 C   0  0  0  0  0  0  0  0  0  0  0  0
   -2.9340   14.6130   -0.4380 C   0  0  0  0  0  0  0  0  0  0  0  0
   -5.1830   14.3840   -1.3300 C   0  0  0  0  0  0  0  0  0  0  0  0
   -3.8100   15.0080   -1.5720 C   0  0  2  0  0  0  0  0  0  0  0  0
   -3.2540   14.6420   -2.8790 N   0  0  0  0  0  0  0  0  0  0  0  0
  1  2  1  0
  3  1  1  1
  3  4  1  0
  3  5  1  0
  5  6  1  0
  5  7  1  6
  4  8  1  0
  6  9  1  0
  8 10  1  6
  6 11  1  0
  8 11  1  0
  7 12  2  0
  9 12  1  0
 10 13  2  0
 11 14  1  6
 13 15  1  0
 14 15  1  0
 15 16  1  6
M  END
