x0724_0_A-x0910_1_A
     RDKit          3D

 14 15  0  0  0  0  0  0  0  0999 V2000
   -8.2620   13.7640    4.4480 N   0  0  0  0  0  0  0  0  0  0  0  0
   -8.7140   13.9450    5.8240 C   0  0  0  0  0  0  0  0  0  0  0  0
   -8.4550   14.9730    3.6650 C   0  0  0  0  0  0  0  0  0  0  0  0
   -7.7550   14.8250    2.3570 C   0  0  0  0  0  0  0  0  0  0  0  0
   -6.3990   14.8490    2.0920 C   0  0  0  0  0  0  0  0  0  0  0  0
   -8.3310   14.6330    1.0850 C   0  0  0  0  0  0  0  0  0  0  0  0
   -7.4260   14.5530    0.1080 N   0  0  0  0  0  0  0  0  0  0  0  0
   -6.2270   14.6940    0.7350 N   0  0  0  0  0  0  0  0  0  0  0  0
   -5.0020   14.6830    0.0090 C   0  0  0  0  0  0  0  0  0  0  0  0
   -3.7870   14.7920    0.7050 C   0  0  0  0  0  0  0  0  0  0  0  0
   -4.9930   14.5750   -1.3860 C   0  0  0  0  0  0  0  0  0  0  0  0
   -2.5810   14.7920    0.0050 C   0  0  0  0  0  0  0  0  0  0  0  0
   -3.7810   14.5750   -2.0780 C   0  0  0  0  0  0  0  0  0  0  0  0
   -2.5800   14.6850   -1.3850 C   0  0  0  0  0  0  0  0  0  0  0  0
  1  2  1  0
  1  3  1  0
  3  4  1  0
  4  5  2  0
  4  6  1  0
  6  7  2  0
  5  8  1  0
  7  8  1  0
  8  9  1  0
  9 10  2  0
  9 11  1  0
 10 12  1  0
 11 13  2  0
 12 14  2  0
 13 14  1  0
M  END
