x0729_2_B_α-x0471_0_A_α
     RDKit          3D

 35 37  0  0  0  0  0  0  0  0999 V2000
  -13.7350   24.0320    1.7250 C   0  0  0  0  0  0  0  0  0  0  0  0
  -15.0670   24.6470    1.4010 C   0  0  2  0  0  0  0  0  0  0  0  0
  -16.1850   24.4670    2.4160 N   0  0  0  0  0  0  0  0  0  0  0  0
  -15.5190   24.1790    0.0010 C   0  0  1  0  0  0  0  0  0  0  0  0
  -14.9780   22.8660   -0.4560 C   0  0  0  0  0  0  0  0  0  0  0  0
  -15.7710   24.4780    4.0850 S   0  0  0  0  0  0  0  0  0  0  0  0
  -17.2090   25.5190    2.1150 C   0  0  0  0  0  0  0  0  0  0  0  0
  -17.0380   24.2550   -0.0750 C   0  0  0  0  0  0  0  0  0  0  0  0
  -16.3230   25.6760    4.6900 O   0  0  0  0  0  0  0  0  0  0  0  0
  -14.4620   21.8700   -0.9050 C   0  0  0  0  0  0  0  0  0  0  0  0
  -14.3680   24.1870    4.1550 O   0  0  0  0  0  0  0  0  0  0  0  0
  -16.6900   23.1260    4.7890 C   0  0  0  0  0  0  0  0  0  0  0  0
  -17.5410   25.5190    0.6260 C   0  0  0  0  0  0  0  0  0  0  0  0
  -13.7520   20.7120   -1.4870 C   0  0  0  0  0  0  0  0  0  0  0  0
  -13.3250   19.7230   -0.4060 C   0  0  0  0  0  0  0  0  0  0  0  0
  -11.9150   19.1390   -0.5800 C   0  0  0  0  0  0  0  0  0  0  0  0
  -11.7890   17.7060   -0.0220 C   0  0  0  0  0  0  0  0  0  0  0  0
  -10.5750   17.5330    0.9010 C   0  0  0  0  0  0  0  0  0  0  0  0
  -10.2780   16.1350    1.4850 C   0  0  0  0  0  0  0  0  0  0  0  0
   -9.8740   16.1030    2.9110 N   0  0  0  0  0  0  0  0  0  0  0  0
   -9.3010   15.0410    3.4220 C   0  0  0  0  0  0  0  0  0  0  0  0
   -9.0620   13.9820    2.5860 N   0  0  0  0  0  0  0  0  0  0  0  0
   -8.8410   14.7680    4.8820 C   0  0  0  0  0  0  0  0  0  0  0  0
   -9.8020   13.8330    5.6180 C   0  0  0  0  0  0  0  0  0  0  0  0
   -8.4610   15.9940    5.7000 C   0  0  0  0  0  0  0  0  0  0  0  0
   -8.8790   14.0990    1.1530 C   0  0  0  0  0  0  0  0  0  0  0  0
   -7.4830   14.3970    0.7330 C   0  0  0  0  0  0  0  0  0  0  0  0
   -7.1660   14.6890   -0.5700 N   0  0  0  0  0  0  0  0  0  0  0  0
   -6.4140   14.4170    1.4950 N   0  0  0  0  0  0  0  0  0  0  0  0
   -5.3670   14.7210    0.6630 C   0  0  0  0  0  0  0  0  0  0  0  0
   -5.8140   14.8980   -0.6380 C   0  0  0  0  0  0  0  0  0  0  0  0
   -4.9640   15.2130   -1.6940 C   0  0  0  0  0  0  0  0  0  0  0  0
   -4.0060   14.8600    0.9550 C   0  0  0  0  0  0  0  0  0  0  0  0
   -3.6100   15.3420   -1.3870 C   0  0  0  0  0  0  0  0  0  0  0  0
   -3.1350   15.1680   -0.0860 C   0  0  0  0  0  0  0  0  0  0  0  0
  2  1  1  1
  2  3  1  0
  2  4  1  0
  4  5  1  1
  3  6  1  0
  3  7  1  0
  4  8  1  0
  6  9  2  0
  5 10  3  0
  6 11  2  0
  6 12  1  0
  7 13  1  0
  8 13  1  0
 10 14  1  0
 14 15  1  0
 15 16  1  0
 16 17  1  0
 17 18  1  0
 18 19  1  0
 19 20  1  0
 20 21  2  3
 21 22  1  0
 21 23  1  0
 23 24  1  0
 23 25  1  0
 22 26  1  0
 26 27  1  0
 27 28  1  0
 27 29  2  0
 29 30  1  0
 28 31  1  0
 30 31  2  0
 31 32  1  0
 30 33  1  0
 32 34  2  0
 33 35  2  0
 34 35  1  0
M  END
