x0727_0_A_α-x0628_0_A_α
     RDKit          3D

 20 21  0  0  0  0  0  0  0  0999 V2000
    1.3280   11.8010   -6.1810 N   0  0  0  0  0  0  0  0  0  0  0  0
    1.0560   12.8260   -5.1550 C   0  0  1  0  0  0  0  0  0  0  0  0
   -0.4140   13.1980   -5.1450 C   0  0  0  0  0  0  0  0  0  0  0  0
    0.3650   11.5320   -7.1300 C   0  0  0  0  0  0  0  0  0  0  0  0
   -0.6270   12.2330   -7.2180 O   0  0  0  0  0  0  0  0  0  0  0  0
    1.4040   12.3140   -3.7610 C   0  0  0  0  0  0  0  0  0  0  0  0
    0.5760   10.3240   -8.0390 C   0  0  0  0  0  0  0  0  0  0  0  0
    0.7690   11.4840   -3.1200 O   0  0  0  0  0  0  0  0  0  0  0  0
    2.5070   12.8690   -3.2390 O   0  0  0  0  0  0  0  0  0  0  0  0
   -0.4850   10.3130   -9.1450 C   0  0  0  0  0  0  0  0  0  0  0  0
    0.4400    8.9540   -7.3480 C   0  0  0  0  0  0  0  0  0  0  0  0
   -1.2710   12.0270   -5.0840 N   0  0  0  0  0  0  0  0  0  0  0  0
   -1.5130    9.2920   -8.6770 C   0  0  0  0  0  0  0  0  0  0  0  0
   -0.6390    8.1920   -8.1080 C   0  0  0  0  0  0  0  0  0  0  0  0
   -0.8280   10.8270   -5.5120 N   0  0  0  0  0  0  0  0  0  0  0  0
   -2.5550   11.9360   -4.6270 C   0  0  0  0  0  0  0  0  0  0  0  0
   -3.3340   13.0720   -4.0840 C   0  0  0  0  0  0  0  0  0  0  0  0
   -2.9680   10.6900   -4.7520 N   0  0  0  0  0  0  0  0  0  0  0  0
   -1.8900   10.0450   -5.2930 C   0  0  0  0  0  0  0  0  0  0  0  0
   -1.9160    8.6030   -5.6020 C   0  0  0  0  0  0  0  0  0  0  0  0
  1  2  1  0
  2  3  1  1
  1  4  1  0
  4  5  2  0
  2  6  1  0
  4  7  1  0
  6  8  2  0
  6  9  1  0
  7 10  1  0
  7 11  1  0
  3 12  1  0
 10 13  1  0
 11 14  1  0
 13 14  1  0
 12 15  1  0
 12 16  1  0
 16 17  1  0
 16 18  2  0
 15 19  2  0
 18 19  1  0
 19 20  1  0
M  END
