x0724_0_A-x0662_0_A
     RDKit          3D

 35 38  0  0  0  0  0  0  0  0999 V2000
   -8.6700   13.8430    4.3370 N   0  0  0  0  0  0  0  0  0  0  0  0
   -8.4750   13.9230    5.7760 C   0  0  0  0  0  0  0  0  0  0  0  0
   -8.3940   15.1340    3.7040 C   0  0  0  0  0  0  0  0  0  0  0  0
   -7.7670   14.9020    2.3760 C   0  0  0  0  0  0  0  0  0  0  0  0
   -6.4320   14.9560    2.0560 C   0  0  0  0  0  0  0  0  0  0  0  0
   -8.3780   14.5860    1.1470 C   0  0  0  0  0  0  0  0  0  0  0  0
   -7.5030   14.4540    0.1460 N   0  0  0  0  0  0  0  0  0  0  0  0
   -6.2860   14.6860    0.7210 N   0  0  0  0  0  0  0  0  0  0  0  0
   -5.0760   14.6350   -0.0150 C   0  0  0  0  0  0  0  0  0  0  0  0
   -3.8290   14.7160    0.6220 C   0  0  0  0  0  0  0  0  0  0  0  0
   -5.1310   14.4910   -1.4040 C   0  0  0  0  0  0  0  0  0  0  0  0
   -2.6530   14.6340   -0.1300 C   0  0  0  0  0  0  0  0  0  0  0  0
   -3.9580   14.4110   -2.1450 C   0  0  0  0  0  0  0  0  0  0  0  0
   -2.7090   14.4700   -1.5220 C   0  0  0  0  0  0  0  0  0  0  0  0
   -1.4670   14.3400   -2.3590 C   0  0  0  0  0  0  0  0  0  0  0  0
   -1.3520   12.9220   -2.9650 C   0  0  0  0  0  0  0  0  0  0  0  0
   -0.1720   12.6570   -3.9080 C   0  0  0  0  0  0  0  0  0  0  0  0
   -0.5460   11.7330   -4.9880 N   0  0  0  0  0  0  0  0  0  0  0  0
    0.3400   11.5910   -5.9190 C   0  0  0  0  0  0  0  0  0  0  0  0
    1.4660   12.1150   -6.0340 O   0  0  0  0  0  0  0  0  0  0  0  0
    0.0680   10.6600   -7.1170 C   0  0  0  0  0  0  0  0  0  0  0  0
   -0.8860    9.6280   -7.1410 C   0  0  0  0  0  0  0  0  0  0  0  0
    0.8310   10.8580   -8.2770 C   0  0  0  0  0  0  0  0  0  0  0  0
   -1.0580    8.8410   -8.2860 C   0  0  0  0  0  0  0  0  0  0  0  0
    0.6770   10.0890   -9.4350 C   0  0  0  0  0  0  0  0  0  0  0  0
    1.4210   10.2620  -10.6260 N   0  0  0  0  0  0  0  0  0  0  0  0
   -0.2810    9.0720   -9.4240 C   0  0  0  0  0  0  0  0  0  0  0  0
    2.2050    9.3460  -11.3040 C   0  0  0  0  0  0  0  0  0  0  0  0
    2.3800    8.1730  -11.0070 O   0  0  0  0  0  0  0  0  0  0  0  0
    2.8900    9.9080  -12.4990 C   0  0  0  0  0  0  0  0  0  0  0  0
    2.6910   11.1790  -13.1150 C   0  0  0  0  0  0  0  0  0  0  0  0
    3.8420    9.2060  -13.1550 N   0  0  0  0  0  0  0  0  0  0  0  0
    4.2310   10.0230  -14.1510 N   0  0  0  0  0  0  0  0  0  0  0  0
    3.5720   11.2170  -14.1720 C   0  0  0  0  0  0  0  0  0  0  0  0
    5.2630    9.5810  -15.0580 C   0  0  0  0  0  0  0  0  0  0  0  0
  1  2  1  0
  1  3  1  0
  3  4  1  0
  4  5  2  0
  4  6  1  0
  6  7  2  0
  5  8  1  0
  7  8  1  0
  8  9  1  0
  9 10  2  0
  9 11  1  0
 10 12  1  0
 11 13  2  0
 12 14  2  0
 13 14  1  0
 14 15  1  0
 15 16  1  0
 16 17  1  0
 17 18  1  0
 18 19  2  3
 19 20  1  0
 19 21  1  0
 21 22  2  0
 21 23  1  0
 22 24  1  0
 23 25  2  0
 25 26  1  0
 24 27  2  0
 25 27  1  0
 26 28  1  0
 28 29  2  0
 28 30  1  0
 30 31  1  0
 30 32  2  0
 32 33  1  0
 31 34  2  0
 33 34  1  0
 33 35  1  0
M  CHG  1  20  -1
M  END
