x0727_0_A-x0290_0_A
     RDKit          3D

 28 29  0  0  0  0  0  0  0  0999 V2000
    0.1240   11.4110   -5.6130 N   0  0  0  0  0  0  0  0  0  0  0  0
    0.8940   12.3100   -4.7430 C   0  0  1  0  0  0  0  0  0  0  0  0
    0.4470   13.7630   -4.8910 C   0  0  0  0  0  0  0  0  0  0  0  0
    0.6980   11.0790   -6.8130 C   0  0  0  0  0  0  0  0  0  0  0  0
    1.6400   11.6970   -7.2270 O   0  0  0  0  0  0  0  0  0  0  0  0
    0.7230   11.8280   -3.3000 C   0  0  0  0  0  0  0  0  0  0  0  0
    0.0910    9.8850   -7.5460 C   0  0  0  0  0  0  0  0  0  0  0  0
    0.0360   10.8840   -2.9330 O   0  0  0  0  0  0  0  0  0  0  0  0
    1.4320   12.5510   -2.4120 O   0  0  0  0  0  0  0  0  0  0  0  0
    1.1450   14.7080   -3.9050 C   0  0  0  0  0  0  0  0  0  0  0  0
   -1.2090   10.2750   -8.2560 C   0  0  0  0  0  0  0  0  0  0  0  0
   -0.2610    8.6990   -6.6260 C   0  0  0  0  0  0  0  0  0  0  0  0
    0.1950   15.4230   -2.9410 C   0  0  0  0  0  0  0  0  0  0  0  0
   -2.1580    9.1070   -8.0290 C   0  0  0  0  0  0  0  0  0  0  0  0
   -1.7750    8.5780   -6.6600 C   0  0  0  0  0  0  0  0  0  0  0  0
   -1.0540   14.6240   -2.5060 C   0  0  0  0  0  0  0  0  0  0  0  0
   -1.2990   14.6020   -1.0080 C   0  0  0  0  0  0  0  0  0  0  0  0
   -0.2320   14.5310   -0.1110 C   0  0  0  0  0  0  0  0  0  0  0  0
   -2.6020   14.6550   -0.4730 C   0  0  0  0  0  0  0  0  0  0  0  0
   -0.5030   14.5110    1.2420 C   0  0  0  0  0  0  0  0  0  0  0  0
   -2.7810   14.6310    0.9160 C   0  0  0  0  0  0  0  0  0  0  0  0
   -4.0840   14.6820    1.4170 N   0  0  0  0  0  0  0  0  0  0  0  0
   -1.7420   14.5590    1.7640 N   0  0  0  0  0  0  0  0  0  0  0  0
   -5.2710   14.4130    0.8060 C   0  0  0  0  0  0  0  0  0  0  0  0
   -5.3110   14.4260   -0.4320 O   0  0  0  0  0  0  0  0  0  0  0  0
   -6.5100   14.0980    1.6620 C   0  0  0  0  0  0  0  0  0  0  0  0
   -7.6810   13.8170    0.8010 N   0  0  0  0  0  0  0  0  0  0  0  0
   -8.5990   14.9410    0.7520 C   0  0  0  0  0  0  0  0  0  0  0  0
  1  2  1  0
  2  3  1  1
  1  4  1  0
  4  5  2  0
  2  6  1  0
  4  7  1  0
  6  8  2  0
  6  9  1  0
  3 10  1  0
  7 11  1  0
  7 12  1  0
 10 13  1  0
 11 14  1  0
 12 15  1  0
 14 15  1  0
 13 16  1  0
 16 17  1  0
 17 18  2  0
 17 19  1  0
 18 20  1  0
 19 21  2  0
 21 22  1  0
 20 23  2  0
 21 23  1  0
 22 24  1  0
 24 25  2  0
 24 26  1  0
 26 27  1  0
 27 28  1  0
M  END
