x0724_0_A_α-x0926_0_A_α
     RDKit          3D

 15 16  0  0  0  0  0  0  0  0999 V2000
   -8.5770   13.5020    4.4100 N   0  0  0  0  0  0  0  0  0  0  0  0
   -8.5470   13.5700    5.8650 C   0  0  0  0  0  0  0  0  0  0  0  0
   -8.3520   14.8100    3.8200 C   0  0  0  0  0  0  0  0  0  0  0  0
   -7.7120   14.7420    2.4820 C   0  0  0  0  0  0  0  0  0  0  0  0
   -6.4090   15.0370    2.1780 C   0  0  0  0  0  0  0  0  0  0  0  0
   -8.2750   14.3840    1.2340 C   0  0  0  0  0  0  0  0  0  0  0  0
   -7.3930   14.4650    0.2280 N   0  0  0  0  0  0  0  0  0  0  0  0
   -6.2540   14.8810    0.8380 N   0  0  0  0  0  0  0  0  0  0  0  0
   -5.0430   15.1430    0.0610 C   0  0  1  0  0  0  0  0  0  0  0  0
   -3.7310   14.8110    0.7240 C   0  0  0  0  0  0  0  0  0  0  0  0
   -5.1390   14.6110   -1.3400 C   0  0  0  0  0  0  0  0  0  0  0  0
   -6.1890   14.1960   -1.8210 O   0  0  0  0  0  0  0  0  0  0  0  0
   -2.6370   14.5700   -0.0130 C   0  0  0  0  0  0  0  0  0  0  0  0
   -3.8780   14.6280   -2.1250 C   0  0  0  0  0  0  0  0  0  0  0  0
   -2.7080   14.6120   -1.4600 C   0  0  0  0  0  0  0  0  0  0  0  0
  1  2  1  0
  1  3  1  0
  3  4  1  0
  4  5  2  0
  4  6  1  0
  6  7  2  0
  5  8  1  0
  7  8  1  0
  9  8  1  1
  9 10  1  0
  9 11  1  0
 11 12  2  0
 10 13  2  0
 11 14  1  0
 13 15  1  0
 14 15  2  0
M  END
