x0724_0_A-x1015_0_A
     RDKit          3D

 30 33  0  0  0  0  0  0  0  0999 V2000
   -8.2390   13.6800    4.4870 N   0  0  0  0  0  0  0  0  0  0  0  0
   -8.7040   13.8380    5.8550 C   0  0  0  0  0  0  0  0  0  0  0  0
   -8.3820   14.9290    3.7620 C   0  0  0  0  0  0  0  0  0  0  0  0
   -7.7360   14.7950    2.4320 C   0  0  0  0  0  0  0  0  0  0  0  0
   -6.3900   14.8710    2.1080 C   0  0  0  0  0  0  0  0  0  0  0  0
   -8.3630   14.5690    1.1940 C   0  0  0  0  0  0  0  0  0  0  0  0
   -7.5070   14.5180    0.1810 N   0  0  0  0  0  0  0  0  0  0  0  0
   -6.2860   14.7140    0.7440 N   0  0  0  0  0  0  0  0  0  0  0  0
   -5.1360   14.7550   -0.0830 C   0  0  0  0  0  0  0  0  0  0  0  0
   -3.8320   14.7820    0.4360 C   0  0  0  0  0  0  0  0  0  0  0  0
   -5.3330   14.7890   -1.4640 C   0  0  0  0  0  0  0  0  0  0  0  0
   -2.7420   14.8500   -0.4440 C   0  0  0  0  0  0  0  0  0  0  0  0
   -4.2550   14.8580   -2.3260 C   0  0  0  0  0  0  0  0  0  0  0  0
   -2.9600   14.8950   -1.8430 C   0  0  0  0  0  0  0  0  0  0  0  0
   -1.8450   14.9990   -2.8510 C   0  0  0  0  0  0  0  0  0  0  0  0
   -1.6100   13.8090   -3.7600 C   0  0  0  0  0  0  0  0  0  0  0  0
   -0.1180   13.5250   -3.9040 C   0  0  2  0  0  0  0  0  0  0  0  0
    0.1210   12.0990   -3.9720 N   0  0  0  0  0  0  0  0  0  0  0  0
    0.5720   13.8280   -2.5810 C   0  0  0  0  0  0  0  0  0  0  0  0
    0.9790   14.9150   -2.1970 O   0  0  0  0  0  0  0  0  0  0  0  0
    0.3560   11.6100   -2.6810 C   0  0  0  0  0  0  0  0  0  0  0  0
    0.6670   12.6730   -1.8870 N   0  0  0  0  0  0  0  0  0  0  0  0
   -0.3550   11.3400   -5.0670 C   0  0  0  0  0  0  0  0  0  0  0  0
    0.3110   10.4520   -2.2740 O   0  0  0  0  0  0  0  0  0  0  0  0
    0.1470   11.5430   -6.3570 C   0  0  0  0  0  0  0  0  0  0  0  0
   -1.3470   10.3590   -4.8920 C   0  0  0  0  0  0  0  0  0  0  0  0
   -0.3170   10.7930   -7.4400 C   0  0  0  0  0  0  0  0  0  0  0  0
   -1.8150    9.6040   -5.9720 C   0  0  0  0  0  0  0  0  0  0  0  0
   -1.2970    9.8260   -7.2420 C   0  0  0  0  0  0  0  0  0  0  0  0
   -1.8700    8.9000   -8.5710 Cl  0  0  0  0  0  0  0  0  0  0  0  0
  1  2  1  0
  1  3  1  0
  3  4  1  0
  4  5  2  0
  4  6  1  0
  6  7  2  0
  5  8  1  0
  7  8  1  0
  8  9  1  0
  9 10  2  0
  9 11  1  0
 10 12  1  0
 11 13  2  0
 12 14  2  0
 13 14  1  0
 14 15  1  0
 15 16  1  0
 17 16  1  1
 17 18  1  0
 17 19  1  0
 19 20  2  0
 18 21  1  0
 19 22  1  0
 21 22  1  0
 18 23  1  0
 21 24  2  0
 23 25  2  0
 23 26  1  0
 25 27  1  0
 26 28  2  0
 27 29  2  0
 28 29  1  0
 29 30  1  0
M  END
