x0729_0_A_α-x0158_0_B_α
     RDKit          3D

 33 34  0  0  0  0  0  0  0  0999 V2000
   19.7090   25.4390    5.9180 C   0  0  0  0  0  0  0  0  0  0  0  0
   20.6760   26.5510    6.2300 C   0  0  2  0  0  0  0  0  0  0  0  0
   20.6850   26.9520    7.6790 N   0  0  0  0  0  0  0  0  0  0  0  0
   20.4380   27.8510    5.4190 C   0  0  2  0  0  0  0  0  0  0  0  0
   20.0830   27.6300    3.9980 C   0  0  0  0  0  0  0  0  0  0  0  0
   19.2630   27.1990    8.6270 S   0  0  0  0  0  0  0  0  0  0  0  0
   21.8210   27.8990    7.9770 C   0  0  0  0  0  0  0  0  0  0  0  0
   21.7190   28.6810    5.5190 C   0  0  0  0  0  0  0  0  0  0  0  0
   18.1080   27.1540    7.7650 O   0  0  0  0  0  0  0  0  0  0  0  0
   19.8000   27.5030    2.8800 N   0  0  0  0  0  0  0  0  0  0  0  0
   19.4970   28.3440    9.4850 O   0  0  0  0  0  0  0  0  0  0  0  0
   19.2110   25.7530    9.6840 C   0  0  0  0  0  0  0  0  0  0  0  0
   22.0000   29.0530    6.9770 C   0  0  0  0  0  0  0  0  0  0  0  0
   17.7750   25.2540    9.9030 C   0  0  0  0  0  0  0  0  0  0  0  0
   17.4690   23.8830    9.2770 C   0  0  0  0  0  0  0  0  0  0  0  0
   16.9310   22.8550   10.2850 C   0  0  0  0  0  0  0  0  0  0  0  0
   17.7890   21.5910   10.5000 C   0  0  0  0  0  0  0  0  0  0  0  0
   17.2310   20.6230   11.5570 C   0  0  0  0  0  0  0  0  0  0  0  0
   18.1180   19.3770   11.7550 C   0  0  0  0  0  0  0  0  0  0  0  0
   17.4790   18.0180   11.3780 C   0  0  0  0  0  0  0  0  0  0  0  0
   16.4710   17.4260   12.3820 C   0  0  0  0  0  0  0  0  0  0  0  0
   16.1260   16.0440   12.1590 O   0  0  0  0  0  0  0  0  0  0  0  0
   15.9090   15.2690   13.2740 C   0  0  0  0  0  0  0  0  0  0  0  0
   15.7790   15.7290   14.3940 O   0  0  0  0  0  0  0  0  0  0  0  0
   15.8630   13.7660   12.9080 C   0  0  0  0  0  0  0  0  0  0  0  0
   14.5710   13.1010   13.2580 N   0  0  0  0  0  0  0  0  0  0  0  0
   14.3430   11.8400   12.5290 C   0  0  0  0  0  0  0  0  0  0  0  0
   13.4700   13.9960   12.9250 C   0  0  0  0  0  0  0  0  0  0  0  0
   13.3390   10.9740   13.2600 C   0  0  0  0  0  0  0  0  0  0  0  0
   12.1740   13.5740   13.5600 C   0  0  0  0  0  0  0  0  0  0  0  0
   11.8090   11.8240   13.5600 S   0  0  0  0  0  0  0  0  0  0  0  0
   11.3790   11.4420   14.8960 O   0  0  0  0  0  0  0  0  0  0  0  0
   10.9180   11.5750   12.4490 O   0  0  0  0  0  0  0  0  0  0  0  0
  2  1  1  1
  2  3  1  0
  2  4  1  0
  4  5  1  6
  3  6  1  0
  3  7  1  0
  4  8  1  0
  6  9  2  0
  5 10  3  0
  6 11  2  0
  6 12  1  0
  7 13  1  0
  8 13  1  0
 12 14  1  0
 14 15  1  0
 15 16  1  0
 16 17  1  0
 17 18  1  0
 18 19  1  0
 19 20  1  0
 20 21  1  0
 21 22  1  0
 22 23  1  0
 23 24  2  0
 23 25  1  0
 25 26  1  0
 26 27  1  0
 26 28  1  0
 27 29  1  0
 28 30  1  0
 31 29  1  0
 30 31  1  0
 31 32  2  0
 31 33  2  0
M  END
