x0727_0_A_α-x0962_1_A_α
     RDKit          3D

 23 24  0  0  0  0  0  0  0  0999 V2000
    0.1120   11.4760   -5.6160 N   0  0  0  0  0  0  0  0  0  0  0  0
    0.8170   12.3830   -4.7030 C   0  0  1  0  0  0  0  0  0  0  0  0
    0.3090   13.8220   -4.8520 C   0  0  0  0  0  0  0  0  0  0  0  0
    0.7070   11.1150   -6.7890 C   0  0  0  0  0  0  0  0  0  0  0  0
    1.6710   11.7370   -7.1670 O   0  0  0  0  0  0  0  0  0  0  0  0
    0.6870   11.8890   -3.2470 C   0  0  0  0  0  0  0  0  0  0  0  0
    0.1150    9.9220   -7.5210 C   0  0  0  0  0  0  0  0  0  0  0  0
    0.0940   10.8750   -2.9160 O   0  0  0  0  0  0  0  0  0  0  0  0
    1.2960   12.6870   -2.3390 O   0  0  0  0  0  0  0  0  0  0  0  0
   -1.2130   13.9300   -4.6460 C   0  0  0  0  0  0  0  0  0  0  0  0
   -1.1910   10.3040   -8.2270 C   0  0  0  0  0  0  0  0  0  0  0  0
   -0.2310    8.7550   -6.5780 C   0  0  0  0  0  0  0  0  0  0  0  0
   -1.5730   14.6940   -3.3590 C   0  0  0  0  0  0  0  0  0  0  0  0
   -2.1270    9.1180   -8.0390 C   0  0  0  0  0  0  0  0  0  0  0  0
   -1.7170    8.4810   -6.7230 C   0  0  0  0  0  0  0  0  0  0  0  0
   -2.9670   15.3310   -3.4230 C   0  0  0  0  0  0  0  0  0  0  0  0
   -3.7600   15.2110   -2.1820 C   0  0  0  0  0  0  0  0  0  0  0  0
   -4.5000   15.0870   -1.2400 C   0  0  0  0  0  0  0  0  0  0  0  0
   -5.4610   14.8850   -0.2160 C   0  0  0  0  0  0  0  0  0  0  0  0
   -5.2470   14.8840    1.1300 N   0  0  0  0  0  0  0  0  0  0  0  0
   -6.8080   14.6450   -0.3620 C   0  0  0  0  0  0  0  0  0  0  0  0
   -6.4530   14.6430    1.7390 C   0  0  0  0  0  0  0  0  0  0  0  0
   -7.4190   14.4960    0.8580 N   0  0  0  0  0  0  0  0  0  0  0  0
  1  2  1  0
  2  3  1  1
  1  4  1  0
  4  5  2  0
  2  6  1  0
  4  7  1  0
  6  8  2  0
  6  9  1  0
  3 10  1  0
  7 11  1  0
  7 12  1  0
 10 13  1  0
 11 14  1  0
 12 15  1  0
 14 15  1  0
 13 16  1  0
 16 17  1  0
 17 18  3  0
 18 19  1  0
 19 20  1  0
 19 21  2  0
 20 22  1  0
 21 23  1  0
 22 23  2  0
M  END
