x0727_0_A-x0104_0_A
     RDKit          3D

 33 35  0  0  0  0  0  0  0  0999 V2000
    0.1870   11.4870   -5.6460 N   0  0  0  0  0  0  0  0  0  0  0  0
    0.8090   12.4340   -4.7100 C   0  0  1  0  0  0  0  0  0  0  0  0
    0.4190   13.8950   -5.0050 C   0  0  0  0  0  0  0  0  0  0  0  0
    0.6810   11.0530   -6.8280 C   0  0  0  0  0  0  0  0  0  0  0  0
    1.6400   11.6570   -7.2400 O   0  0  0  0  0  0  0  0  0  0  0  0
    0.7030   11.9370   -3.2720 C   0  0  0  0  0  0  0  0  0  0  0  0
    0.1010    9.8640   -7.5840 C   0  0  0  0  0  0  0  0  0  0  0  0
    0.2410   10.8580   -2.9410 O   0  0  0  0  0  0  0  0  0  0  0  0
    1.1750   12.7790   -2.3360 O   0  0  0  0  0  0  0  0  0  0  0  0
   -0.6550   14.4750   -4.0590 C   0  0  0  0  0  0  0  0  0  0  0  0
   -1.2070   10.2570   -8.2900 C   0  0  0  0  0  0  0  0  0  0  0  0
   -0.2880    8.6920   -6.6500 C   0  0  0  0  0  0  0  0  0  0  0  0
   -2.0520   14.5150   -4.6940 C   0  0  0  0  0  0  0  0  0  0  0  0
   -2.2250    9.1840   -7.9210 C   0  0  0  0  0  0  0  0  0  0  0  0
   -1.7960    8.7430   -6.5330 C   0  0  0  0  0  0  0  0  0  0  0  0
   -3.0800   15.4450   -4.0250 C   0  0  0  0  0  0  0  0  0  0  0  0
   -3.4270   15.1520   -2.5620 C   0  0  0  0  0  0  0  0  0  0  0  0
   -4.7530   14.6390   -2.5080 O   0  0  0  0  0  0  0  0  0  0  0  0
   -5.2550   14.6790   -1.2270 C   0  0  0  0  0  0  0  0  0  0  0  0
   -4.3570   14.7670   -0.2300 N   0  0  0  0  0  0  0  0  0  0  0  0
   -6.6260   14.6260   -1.0280 C   0  0  0  0  0  0  0  0  0  0  0  0
   -4.8540   14.8040    1.0260 C   0  0  0  0  0  0  0  0  0  0  0  0
   -7.1140   14.6610    0.2780 C   0  0  0  0  0  0  0  0  0  0  0  0
   -6.2160   14.7520    1.3410 C   0  0  0  0  0  0  0  0  0  0  0  0
   -6.7290   14.7890    2.6500 N   0  0  0  0  0  0  0  0  0  0  0  0
   -7.9440   14.9970    3.2520 C   0  0  0  0  0  0  0  0  0  0  0  0
   -8.0300   14.7580    4.5890 N   0  0  0  0  0  0  0  0  0  0  0  0
   -8.9010   15.3820    2.5740 O   0  0  0  0  0  0  0  0  0  0  0  0
   -9.1680   14.9620    5.3700 C   0  0  0  0  0  0  0  0  0  0  0  0
   -9.3100   15.2040    6.7170 C   0  0  0  0  0  0  0  0  0  0  0  0
  -10.6630   14.8980    4.5590 S   0  0  0  0  0  0  0  0  0  0  0  0
  -11.5310   15.1910    6.0120 C   0  0  0  0  0  0  0  0  0  0  0  0
  -10.6890   15.3370    7.0890 C   0  0  0  0  0  0  0  0  0  0  0  0
  1  2  1  0
  2  3  1  1
  1  4  1  0
  4  5  2  0
  2  6  1  0
  4  7  1  0
  6  8  2  0
  6  9  1  0
  3 10  1  0
  7 11  1  0
  7 12  1  0
 10 13  1  0
 11 14  1  0
 12 15  1  0
 14 15  1  0
 13 16  1  0
 16 17  1  0
 17 18  1  0
 18 19  1  0
 19 20  2  0
 19 21  1  0
 20 22  1  0
 21 23  2  0
 22 24  2  0
 23 24  1  0
 24 25  1  0
 25 26  1  0
 26 27  1  0
 26 28  2  0
 27 29  1  0
 29 30  2  0
 29 31  1  0
 31 32  1  0
 30 33  1  0
 32 33  2  0
M  END
