x0722_0_A_α-x0631_0_A_β
     RDKit          3D

 25 26  0  0  0  0  0  0  0  0999 V2000
   -4.4310   15.7620    2.1950 C   0  0  0  0  0  0  0  0  0  0  0  0
   -3.4300   15.2500    1.2770 C   0  0  0  0  0  0  0  0  0  0  0  0
   -2.2670   14.9090    1.7900 N   0  0  0  0  0  0  0  0  0  0  0  0
   -3.4880   15.0610   -0.1240 C   0  0  0  0  0  0  0  0  0  0  0  0
   -4.6410   15.3430   -1.0420 C   0  0  0  0  0  0  0  0  0  0  0  0
   -2.2200   14.5640   -0.4320 C   0  0  0  0  0  0  0  0  0  0  0  0
   -1.5460   14.5070    0.7610 N   0  0  0  0  0  0  0  0  0  0  0  0
   -0.1970   14.0850    1.0340 C   0  0  0  0  0  0  0  0  0  0  0  0
   -1.6110   14.1560   -1.7420 C   0  0  0  0  0  0  0  0  0  0  0  0
   -5.9300   14.6650   -0.6110 C   0  0  0  0  0  0  0  0  0  0  0  0
   -7.0460   15.1670   -0.7340 O   0  0  0  0  0  0  0  0  0  0  0  0
   -5.8040   13.4180   -0.0620 N   0  0  0  0  0  0  0  0  0  0  0  0
   -1.2700   12.6560   -1.7350 C   0  0  0  0  0  0  0  0  0  0  0  0
   -0.2970   12.2480   -2.8510 C   0  0  0  0  0  0  0  0  0  0  0  0
   -0.4960   10.8070   -3.3550 C   0  0  0  0  0  0  0  0  0  0  0  0
   -0.5750   10.6130   -4.8900 C   0  0  0  0  0  0  0  0  0  0  0  0
   -0.6700    9.1280   -5.2890 C   0  0  0  0  0  0  0  0  0  0  0  0
   -0.2550    8.7000   -6.7300 C   0  0  1  0  0  0  0  0  0  0  0  0
   -1.5320    8.3190   -7.5250 C   0  0  0  0  0  0  0  0  0  0  0  0
    0.5880    9.6840   -7.4530 N   0  0  0  0  0  0  0  0  0  0  0  0
   -2.5670    9.4260   -7.6280 C   0  0  0  0  0  0  0  0  0  0  0  0
    0.9000    9.2860   -8.7960 N   0  0  0  0  0  0  0  0  0  0  0  0
    0.1050   11.0230   -7.4890 N   0  0  0  0  0  0  0  0  0  0  0  0
    1.2740   10.5600   -9.3570 C   0  0  0  0  0  0  0  0  0  0  0  0
    0.2650   11.4620   -8.8500 N   0  0  0  0  0  0  0  0  0  0  0  0
  1  2  1  0
  2  3  2  0
  2  4  1  0
  4  5  1  0
  4  6  2  0
  3  7  1  0
  6  7  1  0
  7  8  1  0
  6  9  1  0
  5 10  1  0
 10 11  2  0
 10 12  1  0
  9 13  1  0
 13 14  1  0
 14 15  1  0
 15 16  1  0
 16 17  1  0
 18 17  1  1
 18 19  1  0
 18 20  1  0
 19 21  1  0
 20 22  1  0
 20 23  1  0
 22 24  1  0
 23 25  1  0
 24 25  1  0
M  END
