x0727_0_A-x0837_0_A
     RDKit          3D

 24 25  0  0  0  0  0  0  0  0999 V2000
    0.1090   12.0720   -5.5220 N   0  0  0  0  0  0  0  0  0  0  0  0
    1.1020   12.6210   -4.6820 C   0  0  1  0  0  0  0  0  0  0  0  0
    1.2590   14.0410   -4.4700 C   0  0  0  0  0  0  0  0  0  0  0  0
    0.3810   11.1780   -6.5710 C   0  0  0  0  0  0  0  0  0  0  0  0
    1.4840   11.3000   -7.2050 O   0  0  0  0  0  0  0  0  0  0  0  0
    0.9210   11.9930   -3.2890 C   0  0  0  0  0  0  0  0  0  0  0  0
   -0.5310   10.1230   -6.9520 C   0  0  0  0  0  0  0  0  0  0  0  0
    0.2960   10.9300   -3.1570 O   0  0  0  0  0  0  0  0  0  0  0  0
    1.4530   12.6060   -2.1770 O   0  0  0  0  0  0  0  0  0  0  0  0
    0.7450   14.7760   -3.3360 C   0  0  0  0  0  0  0  0  0  0  0  0
   -0.9020   10.1100   -8.4340 C   0  0  0  0  0  0  0  0  0  0  0  0
   -0.1740    8.6990   -6.7700 C   0  0  0  0  0  0  0  0  0  0  0  0
   -0.6270   14.7150   -2.8440 C   0  0  0  0  0  0  0  0  0  0  0  0
   -1.9890    9.0260   -8.3260 C   0  0  0  0  0  0  0  0  0  0  0  0
   -1.4760    8.0750   -7.2630 C   0  0  0  0  0  0  0  0  0  0  0  0
   -1.6860   15.2390   -3.7160 C   0  0  0  0  0  0  0  0  0  0  0  0
   -3.6890   14.7890   -3.1440 I   0  0  0  0  0  0  0  0  0  0  0  0
   -4.2740   14.4750   -1.1100 C   0  0  1  0  0  0  0  0  0  0  0  0
   -3.4230   14.9530   -0.0330 C   0  0  0  0  0  0  0  0  0  0  0  0
   -5.6260   15.1120   -0.9790 C   0  0  0  0  0  0  0  0  0  0  0  0
   -3.9540   15.0960    1.1690 C   0  0  0  0  0  0  0  0  0  0  0  0
   -6.2420   14.7970    0.3300 C   0  0  0  0  0  0  0  0  0  0  0  0
   -7.4500   14.5520    0.4970 O   0  0  0  0  0  0  0  0  0  0  0  0
   -5.3220   14.8060    1.4580 N   0  0  0  0  0  0  0  0  0  0  0  0
  1  2  1  0
  2  3  1  1
  1  4  1  0
  4  5  2  0
  2  6  1  0
  4  7  1  0
  6  8  2  0
  6  9  1  0
  3 10  1  0
  7 11  1  0
  7 12  1  0
 10 13  1  0
 11 14  1  0
 12 15  1  0
 14 15  1  0
 13 16  1  0
 16 17  1  0
 18 17  1  6
 18 19  1  0
 18 20  1  0
 19 21  2  0
 20 22  1  0
 22 23  2  0
 21 24  1  0
 22 24  1  0
M  END
