x0724_0_A-x0471_0_A
     RDKit          3D

 17 18  0  0  0  0  0  0  0  0999 V2000
   -8.2040   14.0550    4.5050 N   0  0  0  0  0  0  0  0  0  0  0  0
   -8.7540   14.0600    5.8490 C   0  0  0  0  0  0  0  0  0  0  0  0
  -10.2080   13.6160    5.9290 C   0  0  0  0  0  0  0  0  0  0  0  0
   -8.4470   14.9420    3.4970 C   0  0  0  0  0  0  0  0  0  0  0  0
   -9.2850   15.8310    3.6770 O   0  0  0  0  0  0  0  0  0  0  0  0
   -8.5020   15.3980    6.5360 C   0  0  0  0  0  0  0  0  0  0  0  0
   -7.7410   14.8380    2.2590 C   0  0  0  0  0  0  0  0  0  0  0  0
   -6.3820   14.8710    2.0470 C   0  0  0  0  0  0  0  0  0  0  0  0
   -8.2870   14.6810    0.9760 C   0  0  0  0  0  0  0  0  0  0  0  0
   -7.3570   14.6290    0.0240 N   0  0  0  0  0  0  0  0  0  0  0  0
   -6.1790   14.7510    0.6920 N   0  0  0  0  0  0  0  0  0  0  0  0
   -4.9430   14.7570    0.0040 C   0  0  0  0  0  0  0  0  0  0  0  0
   -3.7300   14.8330    0.7000 C   0  0  0  0  0  0  0  0  0  0  0  0
   -4.9420   14.6900   -1.3960 C   0  0  0  0  0  0  0  0  0  0  0  0
   -2.5290   14.8400   -0.0080 C   0  0  0  0  0  0  0  0  0  0  0  0
   -3.7390   14.6960   -2.0960 C   0  0  0  0  0  0  0  0  0  0  0  0
   -2.5340   14.7730   -1.4030 C   0  0  0  0  0  0  0  0  0  0  0  0
  1  2  1  0
  2  3  1  0
  1  4  1  0
  4  5  2  0
  2  6  1  0
  4  7  1  0
  7  8  2  0
  7  9  1  0
  9 10  2  0
  8 11  1  0
 10 11  1  0
 11 12  1  0
 12 13  2  0
 12 14  1  0
 13 15  1  0
 14 16  2  0
 15 17  2  0
 16 17  1  0
M  END
