x0722_0_A-x0962_2_B
     RDKit          3D

 21 22  0  0  0  0  0  0  0  0999 V2000
   -4.8630   15.2260    1.8860 C   0  0  0  0  0  0  0  0  0  0  0  0
   -3.6210   14.9710    1.1710 C   0  0  0  0  0  0  0  0  0  0  0  0
   -2.4850   14.7320    1.8170 N   0  0  0  0  0  0  0  0  0  0  0  0
   -3.4650   14.9430   -0.2280 C   0  0  0  0  0  0  0  0  0  0  0  0
   -4.5290   15.1700   -1.2590 C   0  0  0  0  0  0  0  0  0  0  0  0
   -2.1210   14.6640   -0.4120 C   0  0  0  0  0  0  0  0  0  0  0  0
   -1.5880   14.5510    0.8470 N   0  0  0  0  0  0  0  0  0  0  0  0
   -0.2200   14.2690    1.1990 C   0  0  0  0  0  0  0  0  0  0  0  0
   -1.3140   14.4970   -1.6500 C   0  0  0  0  0  0  0  0  0  0  0  0
   -5.9330   14.7440   -0.7800 C   0  0  0  0  0  0  0  0  0  0  0  0
   -6.8760   15.5710   -1.1180 N   0  0  0  0  0  0  0  0  0  0  0  0
   -6.0460   13.5650   -0.0790 N   0  0  0  0  0  0  0  0  0  0  0  0
   -8.3040   15.4090   -0.8120 C   0  0  0  0  0  0  0  0  0  0  0  0
   -8.5110   14.6890    0.5200 C   0  0  0  0  0  0  0  0  0  0  0  0
   -9.5780   15.2640    1.4830 C   0  0  2  0  0  0  0  0  0  0  0  0
  -10.0690   16.5750    1.0570 N   0  0  0  0  0  0  0  0  0  0  0  0
   -9.0090   15.2960    2.8500 C   0  0  0  0  0  0  0  0  0  0  0  0
   -9.1380   16.3300    3.7500 N   0  0  0  0  0  0  0  0  0  0  0  0
   -8.2550   14.3560    3.5080 C   0  0  0  0  0  0  0  0  0  0  0  0
   -8.4620   15.9600    4.8820 C   0  0  0  0  0  0  0  0  0  0  0  0
   -7.9250   14.7730    4.7650 N   0  0  0  0  0  0  0  0  0  0  0  0
  1  2  1  0
  2  3  2  0
  2  4  1  0
  4  5  1  0
  4  6  2  0
  3  7  1  0
  6  7  1  0
  7  8  1  0
  6  9  1  0
  5 10  1  0
 10 11  2  3
 10 12  1  0
 11 13  1  0
 13 14  1  0
 14 15  1  0
 15 16  1  6
 15 17  1  0
 17 18  1  0
 17 19  2  0
 18 20  1  0
 19 21  1  0
 20 21  2  0
M  END
