x0727_0_A-x0681_0_A
     RDKit          3D

 27 29  0  0  0  0  0  0  0  0999 V2000
    0.1040   11.9640   -5.5930 N   0  0  0  0  0  0  0  0  0  0  0  0
    1.0280   12.5750   -4.6400 C   0  0  1  0  0  0  0  0  0  0  0  0
    0.7740   14.0880   -4.6210 C   0  0  0  0  0  0  0  0  0  0  0  0
    0.4780   11.1980   -6.6520 C   0  0  0  0  0  0  0  0  0  0  0  0
    1.5410   11.3530   -7.2340 O   0  0  0  0  0  0  0  0  0  0  0  0
    0.8450   11.9500   -3.2400 C   0  0  0  0  0  0  0  0  0  0  0  0
   -0.5540   10.1540   -6.9980 C   0  0  0  0  0  0  0  0  0  0  0  0
    0.2710   10.8980   -2.9940 O   0  0  0  0  0  0  0  0  0  0  0  0
    1.3940   12.7000   -2.2530 O   0  0  0  0  0  0  0  0  0  0  0  0
   -0.6890   14.5420   -4.3970 C   0  0  0  0  0  0  0  0  0  0  0  0
   -1.0250   10.1030   -8.4320 C   0  0  0  0  0  0  0  0  0  0  0  0
   -0.2040    8.7050   -6.7180 C   0  0  0  0  0  0  0  0  0  0  0  0
   -1.2750   14.4210   -2.9750 C   0  0  0  0  0  0  0  0  0  0  0  0
   -1.9640    8.8960   -8.3850 C   0  0  0  0  0  0  0  0  0  0  0  0
   -1.4570    8.0150   -7.2300 C   0  0  0  0  0  0  0  0  0  0  0  0
   -2.6270   14.9770   -3.0210 N   0  0  0  0  0  0  0  0  0  0  0  0
   -3.5170   14.9430   -2.0710 C   0  0  0  0  0  0  0  0  0  0  0  0
   -4.7000   15.5470   -2.3930 N   0  0  0  0  0  0  0  0  0  0  0  0
   -3.4300   14.3320   -0.6670 C   0  0  2  0  0  0  0  0  0  0  0  0
   -4.5570   13.3300   -0.5280 C   0  0  0  0  0  0  0  0  0  0  0  0
   -3.5350   15.5020    0.3350 C   0  0  0  0  0  0  0  0  0  0  0  0
   -5.5500   13.4670    0.4000 N   0  0  0  0  0  0  0  0  0  0  0  0
   -4.2210   15.1010    1.6070 C   0  0  0  0  0  0  0  0  0  0  0  0
   -4.7620   12.2360   -1.2360 N   0  0  0  0  0  0  0  0  0  0  0  0
   -5.6170   14.5570    1.3180 C   0  0  0  0  0  0  0  0  0  0  0  0
   -6.4190   12.4270    0.2880 C   0  0  0  0  0  0  0  0  0  0  0  0
   -5.9110   11.6730   -0.7380 C   0  0  0  0  0  0  0  0  0  0  0  0
  1  2  1  0
  2  3  1  1
  1  4  1  0
  4  5  2  0
  2  6  1  0
  4  7  1  0
  6  8  2  0
  6  9  1  0
  3 10  1  0
  7 11  1  0
  7 12  1  0
 10 13  1  0
 11 14  1  0
 12 15  1  0
 14 15  1  0
 13 16  1  0
 16 17  2  3
 17 18  1  0
 19 17  1  6
 19 20  1  0
 19 21  1  0
 20 22  1  0
 21 23  1  0
 20 24  2  0
 22 25  1  0
 23 25  1  0
 22 26  1  0
 24 27  1  0
 26 27  2  0
M  END
