x0729_2_B_α-x0967_0_A_α
     RDKit          3D

 30 32  0  0  0  0  0  0  0  0999 V2000
  -13.7800   24.0570    1.8720 C   0  0  0  0  0  0  0  0  0  0  0  0
  -15.0520   24.6610    1.3530 C   0  0  2  0  0  0  0  0  0  0  0  0
  -16.1670   24.5370    2.3680 N   0  0  0  0  0  0  0  0  0  0  0  0
  -15.4800   24.0820    0.0040 C   0  0  1  0  0  0  0  0  0  0  0  0
  -14.9060   22.7330   -0.2640 C   0  0  0  0  0  0  0  0  0  0  0  0
  -15.7740   24.5150    4.0370 S   0  0  0  0  0  0  0  0  0  0  0  0
  -17.2530   25.4990    2.0490 C   0  0  0  0  0  0  0  0  0  0  0  0
  -17.0030   24.1690   -0.1190 C   0  0  0  0  0  0  0  0  0  0  0  0
  -16.3230   25.7100    4.6430 O   0  0  0  0  0  0  0  0  0  0  0  0
  -14.3690   21.6690   -0.4960 C   0  0  0  0  0  0  0  0  0  0  0  0
  -14.3770   24.1960    4.1330 O   0  0  0  0  0  0  0  0  0  0  0  0
  -16.6680   23.1100    4.6670 C   0  0  0  0  0  0  0  0  0  0  0  0
  -17.5620   25.4340    0.5580 C   0  0  0  0  0  0  0  0  0  0  0  0
  -13.7670   20.3350   -0.7410 C   0  0  0  0  0  0  0  0  0  0  0  0
  -12.2250   20.3620   -0.8070 C   0  0  0  0  0  0  0  0  0  0  0  0
  -11.6030   19.0370   -0.3170 C   0  0  0  0  0  0  0  0  0  0  0  0
  -10.8330   18.2380   -1.3880 C   0  0  0  0  0  0  0  0  0  0  0  0
   -9.6950   17.3270   -0.8850 C   0  0  0  0  0  0  0  0  0  0  0  0
   -9.7860   15.8770   -1.3940 C   0  0  0  0  0  0  0  0  0  0  0  0
   -9.4500   14.8010   -0.3370 C   0  0  0  0  0  0  0  0  0  0  0  0
   -7.9890   14.7940    0.0370 C   0  0  0  0  0  0  0  0  0  0  0  0
   -7.0990   14.8320   -0.9810 N   0  0  0  0  0  0  0  0  0  0  0  0
   -7.5940   14.7600    1.3610 C   0  0  0  0  0  0  0  0  0  0  0  0
   -5.7890   14.8510   -0.7350 C   0  0  0  0  0  0  0  0  0  0  0  0
   -6.2410   14.7820    1.6300 C   0  0  0  0  0  0  0  0  0  0  0  0
   -5.3060   14.8290    0.5830 C   0  0  0  0  0  0  0  0  0  0  0  0
   -4.9530   14.8950   -1.7730 N   0  0  0  0  0  0  0  0  0  0  0  0
   -3.6250   14.9220   -1.5430 C   0  0  0  0  0  0  0  0  0  0  0  0
   -3.9170   14.8570    0.8010 C   0  0  0  0  0  0  0  0  0  0  0  0
   -3.0620   14.9040   -0.2840 C   0  0  0  0  0  0  0  0  0  0  0  0
  2  1  1  1
  2  3  1  0
  2  4  1  0
  4  5  1  1
  3  6  1  0
  3  7  1  0
  4  8  1  0
  6  9  2  0
  5 10  3  0
  6 11  2  0
  6 12  1  0
  7 13  1  0
  8 13  1  0
 10 14  1  0
 14 15  1  0
 15 16  1  0
 16 17  1  0
 17 18  1  0
 18 19  1  0
 19 20  1  0
 20 21  1  0
 21 22  2  0
 21 23  1  0
 22 24  1  0
 23 25  2  0
 24 26  2  0
 25 26  1  0
 24 27  1  0
 27 28  2  0
 26 29  1  0
 28 30  1  0
 29 30  2  0
M  END
