x0729_2_B_α-x0837_0_A_α
     RDKit          3D

 28 29  0  0  0  0  0  0  0  0999 V2000
  -13.7980   23.9140    1.7130 C   0  0  0  0  0  0  0  0  0  0  0  0
  -15.1750   24.4370    1.4020 C   0  0  2  0  0  0  0  0  0  0  0  0
  -16.1820   24.5620    2.4780 N   0  0  0  0  0  0  0  0  0  0  0  0
  -15.9180   23.5060    0.4400 C   0  0  2  0  0  0  0  0  0  0  0  0
  -14.9850   22.6770   -0.3720 C   0  0  0  0  0  0  0  0  0  0  0  0
  -15.7960   24.5610    4.1360 S   0  0  0  0  0  0  0  0  0  0  0  0
  -17.2190   25.5360    2.0160 C   0  0  0  0  0  0  0  0  0  0  0  0
  -16.9010   24.3920   -0.3330 C   0  0  0  0  0  0  0  0  0  0  0  0
  -16.3240   25.7690    4.7350 O   0  0  0  0  0  0  0  0  0  0  0  0
  -14.2060   21.9620   -0.9550 C   0  0  0  0  0  0  0  0  0  0  0  0
  -14.4020   24.2170    4.2010 O   0  0  0  0  0  0  0  0  0  0  0  0
  -16.7580   23.2220    4.8090 C   0  0  0  0  0  0  0  0  0  0  0  0
  -17.2650   25.6650    0.4700 C   0  0  0  0  0  0  0  0  0  0  0  0
  -13.2170   21.0820   -1.6180 C   0  0  0  0  0  0  0  0  0  0  0  0
  -13.0610   19.7110   -0.9380 C   0  0  0  0  0  0  0  0  0  0  0  0
  -11.6110   19.3830   -0.5600 C   0  0  0  0  0  0  0  0  0  0  0  0
  -10.9720   18.2330   -1.3620 C   0  0  0  0  0  0  0  0  0  0  0  0
  -10.1390   17.2120   -0.5660 C   0  0  0  0  0  0  0  0  0  0  0  0
   -8.9030   16.6400   -1.2890 C   0  0  0  0  0  0  0  0  0  0  0  0
   -8.5670   15.1570   -1.0200 C   0  0  0  0  0  0  0  0  0  0  0  0
   -7.7000   15.0480    0.1560 N   0  0  0  0  0  0  0  0  0  0  0  0
   -6.4200   14.8300    0.0440 C   0  0  0  0  0  0  0  0  0  0  0  0
   -5.6460   14.7760    1.1830 N   0  0  0  0  0  0  0  0  0  0  0  0
   -5.6560   14.6400   -1.2580 C   0  0  0  0  0  0  0  0  0  0  0  0
   -4.2850   14.9740    1.2040 C   0  0  0  0  0  0  0  0  0  0  0  0
   -4.3070   15.3670   -1.2040 C   0  0  2  0  0  0  0  0  0  0  0  0
   -3.0330   14.7350   -2.8290 I   0  0  0  0  0  0  0  0  0  0  0  0
   -3.5890   15.2460    0.1080 C   0  0  0  0  0  0  0  0  0  0  0  0
  2  1  1  1
  2  3  1  0
  2  4  1  0
  4  5  1  6
  3  6  1  0
  3  7  1  0
  4  8  1  0
  6  9  2  0
  5 10  3  0
  6 11  2  0
  6 12  1  0
  7 13  1  0
  8 13  1  0
 10 14  1  0
 14 15  1  0
 15 16  1  0
 16 17  1  0
 17 18  1  0
 18 19  1  0
 19 20  1  0
 20 21  1  0
 21 22  2  3
 22 23  1  0
 22 24  1  0
 23 25  1  0
 24 26  1  0
 26 27  1  6
 25 28  2  0
 26 28  1  0
M  END
