x0727_0_A_α-x0689_0_A_α
     RDKit          3D

 22 23  0  0  0  0  0  0  0  0999 V2000
    0.1250   11.9800   -5.4400 N   0  0  0  0  0  0  0  0  0  0  0  0
    0.9730   12.5480   -4.3820 C   0  0  1  0  0  0  0  0  0  0  0  0
    0.9850   14.0670   -4.4760 C   0  0  0  0  0  0  0  0  0  0  0  0
    0.5570   11.2650   -6.5370 C   0  0  0  0  0  0  0  0  0  0  0  0
    1.6110   11.4410   -7.1120 O   0  0  0  0  0  0  0  0  0  0  0  0
    0.6180   11.9890   -2.9640 C   0  0  0  0  0  0  0  0  0  0  0  0
   -0.4920   10.2300   -6.9060 C   0  0  0  0  0  0  0  0  0  0  0  0
   -0.1240   11.0210   -2.8270 O   0  0  0  0  0  0  0  0  0  0  0  0
    1.2040   12.6000   -1.8620 O   0  0  0  0  0  0  0  0  0  0  0  0
   -0.9640   10.1840   -8.3440 C   0  0  0  0  0  0  0  0  0  0  0  0
   -0.1430    8.7730   -6.6560 C   0  0  0  0  0  0  0  0  0  0  0  0
    0.9680   13.9830   -1.4680 C   0  0  0  0  0  0  0  0  0  0  0  0
   -1.9340    9.0010   -8.2860 C   0  0  0  0  0  0  0  0  0  0  0  0
   -1.3920    8.0830   -7.1760 C   0  0  0  0  0  0  0  0  0  0  0  0
   -0.2460   14.2450   -0.5810 C   0  0  0  0  0  0  0  0  0  0  0  0
   -1.4660   14.5450   -1.1240 C   0  0  0  0  0  0  0  0  0  0  0  0
   -0.2730   14.2300    0.8180 C   0  0  0  0  0  0  0  0  0  0  0  0
   -2.5750   14.8070   -0.4000 N   0  0  0  0  0  0  0  0  0  0  0  0
   -1.3530   14.4900    1.5870 N   0  0  0  0  0  0  0  0  0  0  0  0
   -2.4740   14.7770    0.9380 C   0  0  0  0  0  0  0  0  0  0  0  0
   -3.6380   15.0810    1.6190 N   0  0  0  0  0  0  0  0  0  0  0  0
   -4.7720   15.2730    0.7570 C   0  0  0  0  0  0  0  0  0  0  0  0
  1  2  1  0
  2  3  1  1
  1  4  1  0
  4  5  2  0
  2  6  1  0
  4  7  1  0
  6  8  2  0
  6  9  1  0
  7 10  1  0
  7 11  1  0
  9 12  1  0
 10 13  1  0
 11 14  1  0
 13 14  1  0
 12 15  1  0
 15 16  2  0
 15 17  1  0
 16 18  1  0
 17 19  2  0
 18 20  2  0
 19 20  1  0
 20 21  1  0
 21 22  1  0
M  END
