x0724_0_A-x0592_0_A
     RDKit          3D

 24 26  0  0  0  0  0  0  0  0999 V2000
   -7.7430   13.7110    4.1510 N   0  0  0  0  0  0  0  0  0  0  0  0
   -8.1130   14.8920    4.9160 C   0  0  0  0  0  0  0  0  0  0  0  0
   -8.3550   13.5220    2.8180 C   0  0  1  0  0  0  0  0  0  0  0  0
   -9.0380   14.7360    2.1840 C   0  0  0  0  0  0  0  0  0  0  0  0
   -7.3450   13.0820    1.8240 C   0  0  0  0  0  0  0  0  0  0  0  0
   -9.0280   14.6110    0.6450 C   0  0  0  0  0  0  0  0  0  0  0  0
   -6.1280   13.6410    1.5470 C   0  0  0  0  0  0  0  0  0  0  0  0
   -7.4200   12.0030    0.9240 C   0  0  0  0  0  0  0  0  0  0  0  0
   -6.3400   11.9010    0.1450 N   0  0  0  0  0  0  0  0  0  0  0  0
   -5.5430   12.9260    0.5380 N   0  0  0  0  0  0  0  0  0  0  0  0
   -7.7690   14.9660   -0.0160 N   0  0  0  0  0  0  0  0  0  0  0  0
   -4.2820   13.2090   -0.0390 C   0  0  0  0  0  0  0  0  0  0  0  0
   -7.7920   15.3460   -1.3020 N   0  0  0  0  0  0  0  0  0  0  0  0
   -6.4990   14.9760    0.5110 C   0  0  0  0  0  0  0  0  0  0  0  0
   -3.2190   13.6860    0.7460 C   0  0  0  0  0  0  0  0  0  0  0  0
   -4.0900   13.0230   -1.4150 C   0  0  0  0  0  0  0  0  0  0  0  0
   -5.6470   15.4080   -0.4920 C   0  0  0  0  0  0  0  0  0  0  0  0
   -6.5120   15.6100   -1.5870 C   0  0  0  0  0  0  0  0  0  0  0  0
   -4.2120   15.6220   -0.4670 C   0  0  0  0  0  0  0  0  0  0  0  0
   -1.9860   13.9740    0.1590 C   0  0  0  0  0  0  0  0  0  0  0  0
   -2.8560   13.3120   -1.9970 C   0  0  0  0  0  0  0  0  0  0  0  0
   -3.6590   15.8700    0.7600 N   0  0  0  0  0  0  0  0  0  0  0  0
   -3.5130   15.5920   -1.4740 O   0  0  0  0  0  0  0  0  0  0  0  0
   -1.8050   13.7880   -1.2100 C   0  0  0  0  0  0  0  0  0  0  0  0
  1  2  1  0
  1  3  1  0
  3  4  1  6
  3  5  1  0
  4  6  1  0
  5  7  2  0
  5  8  1  0
  8  9  2  0
  7 10  1  0
  9 10  1  0
  6 11  1  0
 10 12  1  0
 11 13  1  0
 11 14  1  0
 12 15  2  0
 12 16  1  0
 14 17  2  0
 13 18  2  0
 17 18  1  0
 17 19  1  0
 15 20  1  0
 16 21  2  0
 19 22  1  0
 19 23  2  0
 20 24  2  0
 21 24  1  0
M  END
