x0724_0_A-x0438_0_A
     RDKit          3D

 17 18  0  0  0  0  0  0  0  0999 V2000
   -8.4240   13.7440    4.3190 N   0  0  0  0  0  0  0  0  0  0  0  0
   -8.4210   14.0940    5.7350 C   0  0  0  0  0  0  0  0  0  0  0  0
   -8.5020   14.9120    3.3950 C   0  0  2  0  0  0  0  0  0  0  0  0
  -10.1110   15.4610    2.7560 S   0  0  0  0  0  0  0  0  0  0  0  0
   -7.6740   14.7410    2.1780 C   0  0  0  0  0  0  0  0  0  0  0  0
  -11.1480   15.2060    3.7230 O   0  0  0  0  0  0  0  0  0  0  0  0
   -9.9750   16.7290    2.0650 O   0  0  0  0  0  0  0  0  0  0  0  0
   -6.3380   14.9040    1.9470 C   0  0  0  0  0  0  0  0  0  0  0  0
   -8.1840   14.3560    0.9270 C   0  0  0  0  0  0  0  0  0  0  0  0
   -7.2540   14.2860   -0.0130 N   0  0  0  0  0  0  0  0  0  0  0  0
   -6.1080   14.6290    0.6240 N   0  0  0  0  0  0  0  0  0  0  0  0
   -4.8790   14.6750   -0.0620 C   0  0  0  0  0  0  0  0  0  0  0  0
   -3.6700   14.7290    0.6380 C   0  0  0  0  0  0  0  0  0  0  0  0
   -4.8860   14.6660   -1.4610 C   0  0  0  0  0  0  0  0  0  0  0  0
   -2.4680   14.7710   -0.0720 C   0  0  0  0  0  0  0  0  0  0  0  0
   -3.6840   14.7080   -2.1620 C   0  0  0  0  0  0  0  0  0  0  0  0
   -2.4810   14.7590   -1.4680 C   0  0  0  0  0  0  0  0  0  0  0  0
  1  2  1  0
  3  1  1  6
  3  4  1  0
  3  5  1  0
  4  6  2  0
  4  7  2  0
  5  8  2  0
  5  9  1  0
  9 10  2  0
  8 11  1  0
 10 11  1  0
 11 12  1  0
 12 13  2  0
 12 14  1  0
 13 15  1  0
 14 16  2  0
 15 17  2  0
 16 17  1  0
M  END
