x0729_2_B_α-x1018_0_A_α
     RDKit          3D

 30 32  0  0  0  0  0  0  0  0999 V2000
  -13.8740   24.4240    1.5840 C   0  0  0  0  0  0  0  0  0  0  0  0
  -15.2100   23.7120    1.7470 C   0  0  1  0  0  0  0  0  0  0  0  0
  -16.2000   24.4040    2.5950 N   0  0  0  0  0  0  0  0  0  0  0  0
  -15.8620   23.2880    0.4260 C   0  0  2  0  0  0  0  0  0  0  0  0
  -14.9300   22.5030   -0.4060 C   0  0  0  0  0  0  0  0  0  0  0  0
  -15.9010   24.4840    4.2330 S   0  0  0  0  0  0  0  0  0  0  0  0
  -16.7930   25.6090    1.9440 C   0  0  0  0  0  0  0  0  0  0  0  0
  -16.4500   24.5110   -0.3030 C   0  0  0  0  0  0  0  0  0  0  0  0
  -16.3480   25.7620    4.7460 O   0  0  0  0  0  0  0  0  0  0  0  0
  -14.1370   21.8490   -1.0310 C   0  0  0  0  0  0  0  0  0  0  0  0
  -14.5480   24.0310    4.3730 O   0  0  0  0  0  0  0  0  0  0  0  0
  -16.9700   23.2500    4.9340 C   0  0  0  0  0  0  0  0  0  0  0  0
  -17.4220   25.2950    0.5880 C   0  0  0  0  0  0  0  0  0  0  0  0
  -13.1260   21.0550   -1.7520 C   0  0  0  0  0  0  0  0  0  0  0  0
  -12.2310   20.2240   -0.8250 C   0  0  0  0  0  0  0  0  0  0  0  0
  -11.6040   18.9740   -1.4720 C   0  0  0  0  0  0  0  0  0  0  0  0
  -11.8090   17.6780   -0.6860 C   0  0  0  0  0  0  0  0  0  0  0  0
  -10.5510   17.3080    0.0990 C   0  0  0  0  0  0  0  0  0  0  0  0
   -9.4420   16.6760   -0.7610 C   0  0  0  0  0  0  0  0  0  0  0  0
   -9.1790   15.1700   -0.5800 C   0  0  0  0  0  0  0  0  0  0  0  0
   -8.2910   14.7630    0.6180 C   0  0  0  0  0  0  0  0  0  0  0  0
   -6.8040   14.7620    0.2650 C   0  0  0  0  0  0  0  0  0  0  0  0
   -6.4710   14.7910   -0.9880 N   0  0  0  0  0  0  0  0  0  0  0  0
   -5.8230   14.7430    1.3980 C   0  0  0  0  0  0  0  0  0  0  0  0
   -5.1270   14.8060   -1.1820 N   0  0  0  0  0  0  0  0  0  0  0  0
   -4.5090   14.7630    1.1070 C   0  0  0  0  0  0  0  0  0  0  0  0
   -4.5780   14.8390   -2.4050 N   0  0  0  0  0  0  0  0  0  0  0  0
   -4.1240   14.7950   -0.2420 C   0  0  0  0  0  0  0  0  0  0  0  0
   -2.9650   14.8190   -0.8600 N   0  0  0  0  0  0  0  0  0  0  0  0
   -3.2650   14.8470   -2.2050 N   0  0  0  0  0  0  0  0  0  0  0  0
  2  1  1  6
  2  3  1  0
  2  4  1  0
  4  5  1  6
  3  6  1  0
  3  7  1  0
  4  8  1  0
  6  9  2  0
  5 10  3  0
  6 11  2  0
  6 12  1  0
  7 13  1  0
  8 13  1  0
 10 14  1  0
 14 15  1  0
 15 16  1  0
 16 17  1  0
 17 18  1  0
 18 19  1  0
 19 20  1  0
 20 21  1  0
 21 22  1  0
 22 23  2  0
 22 24  1  0
 23 25  1  0
 24 26  2  0
 25 27  1  0
 25 28  1  0
 26 28  1  0
 28 29  2  0
 27 30  2  0
 29 30  1  0
M  END
