x0724_0_A-x0628_0_A
     RDKit          3D

 28 30  0  0  0  0  0  0  0  0999 V2000
   -8.4640   13.7430    4.3690 N   0  0  0  0  0  0  0  0  0  0  0  0
   -8.5170   13.9670    5.8140 C   0  0  0  0  0  0  0  0  0  0  0  0
   -8.3820   15.0020    3.6310 C   0  0  0  0  0  0  0  0  0  0  0  0
   -7.7460   14.8150    2.2980 C   0  0  0  0  0  0  0  0  0  0  0  0
   -6.4120   14.9180    1.9940 C   0  0  0  0  0  0  0  0  0  0  0  0
   -8.3370   14.5050    1.0570 C   0  0  0  0  0  0  0  0  0  0  0  0
   -7.4470   14.4220    0.0600 N   0  0  0  0  0  0  0  0  0  0  0  0
   -6.2530   14.6840    0.6500 N   0  0  0  0  0  0  0  0  0  0  0  0
   -5.0250   14.7060   -0.0700 C   0  0  0  0  0  0  0  0  0  0  0  0
   -3.8230   14.7760    0.6450 C   0  0  0  0  0  0  0  0  0  0  0  0
   -4.9930   14.6630   -1.4710 C   0  0  0  0  0  0  0  0  0  0  0  0
   -2.6050   14.8010   -0.0290 C   0  0  0  0  0  0  0  0  0  0  0  0
   -3.7640   14.6880   -2.1550 C   0  0  0  0  0  0  0  0  0  0  0  0
   -3.7420   14.6430   -3.6660 C   0  0  0  0  0  0  0  0  0  0  0  0
   -2.5780   14.7560   -1.4230 C   0  0  0  0  0  0  0  0  0  0  0  0
   -2.5040   13.9580   -4.2800 C   0  0  0  0  0  0  0  0  0  0  0  0
   -2.3200   12.4560   -3.9800 C   0  0  0  0  0  0  0  0  0  0  0  0
   -1.5430   11.6930   -5.0120 C   0  0  0  0  0  0  0  0  0  0  0  0
   -1.9080   10.5520   -5.5750 N   0  0  0  0  0  0  0  0  0  0  0  0
   -0.3200   12.0590   -5.5370 N   0  0  0  0  0  0  0  0  0  0  0  0
    0.5120   13.2160   -5.2600 C   0  0  0  0  0  0  0  0  0  0  0  0
   -0.8830   10.2620   -6.4320 C   0  0  0  0  0  0  0  0  0  0  0  0
    0.1070   11.1590   -6.4440 N   0  0  0  0  0  0  0  0  0  0  0  0
   -0.8660    9.0550   -7.2760 C   0  0  0  0  0  0  0  0  0  0  0  0
    1.6540   12.9020   -4.3090 C   0  0  0  0  0  0  0  0  0  0  0  0
    1.1220   12.2640   -3.0600 C   0  0  0  0  0  0  0  0  0  0  0  0
    0.6560   11.1390   -2.9580 O   0  0  0  0  0  0  0  0  0  0  0  0
    1.2040   13.0680   -1.9910 O   0  0  0  0  0  0  0  0  0  0  0  0
  1  2  1  0
  1  3  1  0
  3  4  1  0
  4  5  2  0
  4  6  1  0
  6  7  2  0
  5  8  1  0
  7  8  1  0
  8  9  1  0
  9 10  2  0
  9 11  1  0
 10 12  1  0
 11 13  2  0
 13 14  1  0
 12 15  2  0
 13 15  1  0
 14 16  1  0
 16 17  1  0
 17 18  1  0
 18 19  2  0
 18 20  1  0
 20 21  1  0
 19 22  1  0
 20 23  1  0
 22 23  2  0
 22 24  1  0
 21 25  1  0
 25 26  1  0
 26 27  2  0
 26 28  1  0
M  END
