x0722_0_A_α-x0855_0_A_α
     RDKit          3D

 24 25  0  0  0  0  0  0  0  0999 V2000
   -4.5180   15.7140    2.1710 C   0  0  0  0  0  0  0  0  0  0  0  0
   -3.4650   15.2350    1.3050 C   0  0  0  0  0  0  0  0  0  0  0  0
   -2.3410   14.9030    1.8900 N   0  0  0  0  0  0  0  0  0  0  0  0
   -3.4330   15.0730   -0.0950 C   0  0  0  0  0  0  0  0  0  0  0  0
   -4.5450   15.3520   -1.0630 C   0  0  0  0  0  0  0  0  0  0  0  0
   -2.1320   14.6140   -0.3210 C   0  0  0  0  0  0  0  0  0  0  0  0
   -1.5450   14.5390    0.9180 N   0  0  0  0  0  0  0  0  0  0  0  0
   -0.2120   14.1340    1.2740 C   0  0  0  0  0  0  0  0  0  0  0  0
   -1.3740   14.2470   -1.5560 C   0  0  0  0  0  0  0  0  0  0  0  0
   -5.8620   14.7140   -0.6510 C   0  0  0  0  0  0  0  0  0  0  0  0
   -6.9630   15.2410   -0.8000 O   0  0  0  0  0  0  0  0  0  0  0  0
   -5.7780   13.4740   -0.0800 N   0  0  0  0  0  0  0  0  0  0  0  0
    0.1390   14.3480   -1.2830 C   0  0  0  0  0  0  0  0  0  0  0  0
    1.0050   14.3410   -2.5360 C   0  0  0  0  0  0  0  0  0  0  0  0
    1.6420   13.0570   -2.6580 O   0  0  0  0  0  0  0  0  0  0  0  0
    0.9590   12.0960   -3.3170 C   0  0  0  0  0  0  0  0  0  0  0  0
    0.6250   11.0220   -2.8220 O   0  0  0  0  0  0  0  0  0  0  0  0
    0.6360   12.4750   -4.7340 C   0  0  0  0  0  0  0  0  0  0  0  0
   -0.4370   11.6460   -5.2200 N   0  0  0  0  0  0  0  0  0  0  0  0
   -0.3520   10.6790   -6.1770 C   0  0  0  0  0  0  0  0  0  0  0  0
   -1.6830   11.7890   -4.7070 N   0  0  0  0  0  0  0  0  0  0  0  0
   -1.6090   10.1600   -6.2800 C   0  0  0  0  0  0  0  0  0  0  0  0
   -2.3960   10.8690   -5.3660 C   0  0  0  0  0  0  0  0  0  0  0  0
   -2.1920    8.7900   -7.3950 Br  0  0  0  0  0  0  0  0  0  0  0  0
  1  2  1  0
  2  3  2  0
  2  4  1  0
  4  5  1  0
  4  6  2  0
  3  7  1  0
  6  7  1  0
  7  8  1  0
  6  9  1  0
  5 10  1  0
 10 11  2  0
 10 12  1  0
  9 13  1  0
 13 14  1  0
 14 15  1  0
 15 16  1  0
 16 17  2  0
 16 18  1  0
 18 19  1  0
 19 20  1  0
 19 21  1  0
 20 22  2  0
 21 23  2  0
 22 23  1  0
 22 24  1  0
M  END
