x0727_0_A-x0950_0_A
     RDKit          3D

 14 14  0  0  0  0  0  0  0  0999 V2000
    0.0290   11.5750   -5.6740 N   0  0  0  0  0  0  0  0  0  0  0  0
    0.8950   12.2130   -4.6840 C   0  0  1  0  0  0  0  0  0  0  0  0
    0.9410   13.7130   -4.7830 C   0  0  0  0  0  0  0  0  0  0  0  0
    0.6590   11.1440   -6.8160 C   0  0  0  0  0  0  0  0  0  0  0  0
    1.6650   11.6780   -7.1980 O   0  0  0  0  0  0  0  0  0  0  0  0
    0.5040   11.7730   -3.2790 C   0  0  0  0  0  0  0  0  0  0  0  0
    0.0350    9.9520   -7.5280 C   0  0  0  0  0  0  0  0  0  0  0  0
   -0.1550   10.7860   -2.9910 O   0  0  0  0  0  0  0  0  0  0  0  0
    0.9630   12.5970   -2.3190 O   0  0  0  0  0  0  0  0  0  0  0  0
    2.2720   14.1380   -4.1860 C   0  0  0  0  0  0  0  0  0  0  0  0
   -1.2860   10.2950   -8.2190 C   0  0  0  0  0  0  0  0  0  0  0  0
   -0.2680    8.7710   -6.5830 C   0  0  0  0  0  0  0  0  0  0  0  0
   -2.1480    9.0530   -8.0510 C   0  0  0  0  0  0  0  0  0  0  0  0
   -1.7630    8.5280   -6.6790 C   0  0  0  0  0  0  0  0  0  0  0  0
  1  2  1  0
  2  3  1  1
  1  4  1  0
  4  5  2  0
  2  6  1  0
  4  7  1  0
  6  8  2  0
  6  9  1  0
  3 10  1  0
  7 11  1  0
  7 12  1  0
 11 13  1  0
 12 14  1  0
 13 14  1  0
M  END
