x0729_2_B_α-x0910_2_B_α
     RDKit          3D

 20 21  0  0  0  0  0  0  0  0999 V2000
  -13.8550   23.8730    1.8030 C   0  0  0  0  0  0  0  0  0  0  0  0
  -15.1730   24.3960    1.3110 C   0  0  2  0  0  0  0  0  0  0  0  0
  -15.9430   25.0420    2.4260 N   0  0  0  0  0  0  0  0  0  0  0  0
  -16.0610   23.3630    0.6100 C   0  0  2  0  0  0  0  0  0  0  0  0
  -15.3010   22.3850   -0.2300 C   0  0  0  0  0  0  0  0  0  0  0  0
  -15.7970   24.5410    4.0570 S   0  0  0  0  0  0  0  0  0  0  0  0
  -17.2670   25.5690    2.0240 C   0  0  0  0  0  0  0  0  0  0  0  0
  -17.1330   24.1480   -0.1420 C   0  0  0  0  0  0  0  0  0  0  0  0
  -16.2700   25.6380    4.8740 O   0  0  0  0  0  0  0  0  0  0  0  0
  -14.7780   21.4770   -0.8510 C   0  0  0  0  0  0  0  0  0  0  0  0
  -14.4650   24.0170    4.2200 O   0  0  0  0  0  0  0  0  0  0  0  0
  -16.9550   23.2050    4.2670 C   0  0  0  0  0  0  0  0  0  0  0  0
  -17.4380   25.5180    0.5060 C   0  0  0  0  0  0  0  0  0  0  0  0
  -14.0950   20.4980   -1.7380 C   0  0  0  0  0  0  0  0  0  0  0  0
  -12.9500   21.1230   -2.3770 N   0  0  0  0  0  0  0  0  0  0  0  0
  -12.7030   22.3900   -2.0510 C   0  0  0  0  0  0  0  0  0  0  0  0
  -11.5720   23.1190   -2.2870 N   0  0  0  0  0  0  0  0  0  0  0  0
  -13.5660   23.1350   -1.4250 N   0  0  0  0  0  0  0  0  0  0  0  0
  -11.7060   24.3660   -1.7990 N   0  0  0  0  0  0  0  0  0  0  0  0
  -12.9370   24.3140   -1.2880 C   0  0  0  0  0  0  0  0  0  0  0  0
  2  1  1  1
  2  3  1  0
  2  4  1  0
  4  5  1  6
  3  6  1  0
  3  7  1  0
  4  8  1  0
  6  9  2  0
  5 10  3  0
  6 11  2  0
  6 12  1  0
  7 13  1  0
  8 13  1  0
 10 14  1  0
 14 15  1  0
 15 16  1  0
 16 17  1  0
 16 18  2  0
 17 19  1  0
 18 20  1  0
 19 20  2  0
M  END
