x0727_0_A-x0592_0_A
     RDKit          3D

 27 28  0  0  0  0  0  0  0  0999 V2000
    0.1620   11.4610   -5.5750 N   0  0  0  0  0  0  0  0  0  0  0  0
    0.9310   12.3570   -4.7120 C   0  0  1  0  0  0  0  0  0  0  0  0
    0.4600   13.7970   -4.8720 C   0  0  0  0  0  0  0  0  0  0  0  0
    0.6920   11.1140   -6.7850 C   0  0  0  0  0  0  0  0  0  0  0  0
    1.6420   11.7100   -7.2170 O   0  0  0  0  0  0  0  0  0  0  0  0
    0.8260   11.8840   -3.2570 C   0  0  0  0  0  0  0  0  0  0  0  0
    0.0430    9.9400   -7.5040 C   0  0  0  0  0  0  0  0  0  0  0  0
    0.0960   10.9720   -2.8720 O   0  0  0  0  0  0  0  0  0  0  0  0
    1.6670   12.6020   -2.4580 O   0  0  0  0  0  0  0  0  0  0  0  0
   -1.2610   10.3180   -8.2090 C   0  0  0  0  0  0  0  0  0  0  0  0
   -0.3070    8.7670   -6.5680 C   0  0  0  0  0  0  0  0  0  0  0  0
    1.1050   13.7540   -1.8080 C   0  0  0  0  0  0  0  0  0  0  0  0
   -2.1370    9.0800   -8.0900 C   0  0  0  0  0  0  0  0  0  0  0  0
   -1.7980    8.5260   -6.7180 C   0  0  0  0  0  0  0  0  0  0  0  0
   -0.3340   13.4460   -1.4230 C   0  0  0  0  0  0  0  0  0  0  0  0
   -0.9230   14.4580   -0.4550 C   0  0  0  0  0  0  0  0  0  0  0  0
   -2.3410   14.6010   -0.7560 N   0  0  0  0  0  0  0  0  0  0  0  0
   -3.2570   14.7010    0.1280 C   0  0  0  0  0  0  0  0  0  0  0  0
   -2.9070   14.6890    1.4580 N   0  0  0  0  0  0  0  0  0  0  0  0
   -4.6830   14.8130   -0.1000 C   0  0  0  0  0  0  0  0  0  0  0  0
   -5.4300   15.2300   -1.2310 C   0  0  0  0  0  0  0  0  0  0  0  0
   -5.6560   14.5020    0.8200 C   0  0  0  0  0  0  0  0  0  0  0  0
   -6.7560   15.1800   -1.0290 N   0  0  0  0  0  0  0  0  0  0  0  0
   -6.8570   14.7320    0.2340 N   0  0  0  0  0  0  0  0  0  0  0  0
   -8.1470   14.5340    0.8640 C   0  0  0  0  0  0  0  0  0  0  0  0
   -7.9850   14.1050    2.3230 C   0  0  0  0  0  0  0  0  0  0  0  0
   -7.2110   15.0470    3.0660 O   0  0  0  0  0  0  0  0  0  0  0  0
  1  2  1  0
  2  3  1  1
  1  4  1  0
  4  5  2  0
  2  6  1  0
  4  7  1  0
  6  8  2  0
  6  9  1  0
  7 10  1  0
  7 11  1  0
  9 12  1  0
 10 13  1  0
 11 14  1  0
 13 14  1  0
 12 15  1  0
 15 16  1  0
 16 17  1  0
 17 18  2  3
 18 19  1  0
 18 20  1  0
 20 21  1  0
 20 22  2  0
 21 23  2  0
 22 24  1  0
 23 24  1  0
 24 25  1  0
 25 26  1  0
 26 27  1  0
M  END
