x0727_0_A-x0592_0_A
     RDKit          3D

 27 28  0  0  0  0  0  0  0  0999 V2000
    0.1400   11.4300   -5.6040 N   0  0  0  0  0  0  0  0  0  0  0  0
    0.8930   12.3840   -4.7950 C   0  0  1  0  0  0  0  0  0  0  0  0
    0.4010   13.8040   -5.0220 C   0  0  0  0  0  0  0  0  0  0  0  0
    0.6750   11.0790   -6.8140 C   0  0  0  0  0  0  0  0  0  0  0  0
    1.6250   11.6730   -7.2440 O   0  0  0  0  0  0  0  0  0  0  0  0
    0.8150   12.0150   -3.3110 C   0  0  0  0  0  0  0  0  0  0  0  0
    0.0240    9.9030   -7.5270 C   0  0  0  0  0  0  0  0  0  0  0  0
    0.1810   11.0690   -2.8420 O   0  0  0  0  0  0  0  0  0  0  0  0
    1.5810   12.9020   -2.6160 O   0  0  0  0  0  0  0  0  0  0  0  0
   -1.2790   10.2800   -8.2320 C   0  0  0  0  0  0  0  0  0  0  0  0
   -0.3180    8.7340   -6.5870 C   0  0  0  0  0  0  0  0  0  0  0  0
    1.0450   13.5120   -1.4300 C   0  0  0  0  0  0  0  0  0  0  0  0
   -2.1670    9.0520   -8.0840 C   0  0  0  0  0  0  0  0  0  0  0  0
   -1.8140    8.5110   -6.7110 C   0  0  0  0  0  0  0  0  0  0  0  0
   -0.0970   14.4720   -1.6910 C   0  0  0  0  0  0  0  0  0  0  0  0
   -0.9410   14.5890   -0.4280 C   0  0  0  0  0  0  0  0  0  0  0  0
   -2.3490   14.6870   -0.7700 N   0  0  0  0  0  0  0  0  0  0  0  0
   -3.2750   14.7430    0.1120 C   0  0  0  0  0  0  0  0  0  0  0  0
   -2.9210   14.7150    1.4410 N   0  0  0  0  0  0  0  0  0  0  0  0
   -4.6980   14.8250   -0.1140 C   0  0  0  0  0  0  0  0  0  0  0  0
   -5.4560   15.2000   -1.2540 C   0  0  0  0  0  0  0  0  0  0  0  0
   -5.6650   14.5230    0.8170 C   0  0  0  0  0  0  0  0  0  0  0  0
   -6.7790   15.1340   -1.0470 N   0  0  0  0  0  0  0  0  0  0  0  0
   -6.8700   14.7180    0.2290 N   0  0  0  0  0  0  0  0  0  0  0  0
   -8.1540   14.5160    0.8670 C   0  0  0  0  0  0  0  0  0  0  0  0
   -7.9790   14.0970    2.3280 C   0  0  0  0  0  0  0  0  0  0  0  0
   -7.2030   15.0470    3.0590 O   0  0  0  0  0  0  0  0  0  0  0  0
  1  2  1  0
  2  3  1  1
  1  4  1  0
  4  5  2  0
  2  6  1  0
  4  7  1  0
  6  8  2  0
  6  9  1  0
  7 10  1  0
  7 11  1  0
  9 12  1  0
 10 13  1  0
 11 14  1  0
 13 14  1  0
 12 15  1  0
 15 16  1  0
 16 17  1  0
 17 18  2  3
 18 19  1  0
 18 20  1  0
 20 21  1  0
 20 22  2  0
 21 23  2  0
 22 24  1  0
 23 24  1  0
 24 25  1  0
 25 26  1  0
 26 27  1  0
M  END
