x0727_0_A-x0290_0_A
     RDKit          3D

 28 29  0  0  0  0  0  0  0  0999 V2000
    0.1290   11.4150   -5.6130 N   0  0  0  0  0  0  0  0  0  0  0  0
    0.8910   12.3150   -4.7430 C   0  0  1  0  0  0  0  0  0  0  0  0
    0.4440   13.7680   -4.8930 C   0  0  0  0  0  0  0  0  0  0  0  0
    0.7000   11.0790   -6.8150 C   0  0  0  0  0  0  0  0  0  0  0  0
    1.6430   11.6960   -7.2260 O   0  0  0  0  0  0  0  0  0  0  0  0
    0.7160   11.8310   -3.3010 C   0  0  0  0  0  0  0  0  0  0  0  0
    0.0970    9.8840   -7.5450 C   0  0  0  0  0  0  0  0  0  0  0  0
    0.0270   10.8890   -2.9370 O   0  0  0  0  0  0  0  0  0  0  0  0
    1.4220   12.5540   -2.4100 O   0  0  0  0  0  0  0  0  0  0  0  0
    1.1460   14.7100   -3.9100 C   0  0  0  0  0  0  0  0  0  0  0  0
   -1.2090   10.2720   -8.2550 C   0  0  0  0  0  0  0  0  0  0  0  0
   -0.2510    8.6960   -6.6300 C   0  0  0  0  0  0  0  0  0  0  0  0
    0.1990   15.4260   -2.9420 C   0  0  0  0  0  0  0  0  0  0  0  0
   -2.1550    9.1060   -8.0170 C   0  0  0  0  0  0  0  0  0  0  0  0
   -1.7640    8.5790   -6.6490 C   0  0  0  0  0  0  0  0  0  0  0  0
   -1.0510   14.6230   -2.5100 C   0  0  0  0  0  0  0  0  0  0  0  0
   -1.2940   14.6030   -1.0120 C   0  0  0  0  0  0  0  0  0  0  0  0
   -0.2290   14.5220   -0.1130 C   0  0  0  0  0  0  0  0  0  0  0  0
   -2.5980   14.6660   -0.4790 C   0  0  0  0  0  0  0  0  0  0  0  0
   -0.5020   14.5030    1.2390 C   0  0  0  0  0  0  0  0  0  0  0  0
   -2.7800   14.6420    0.9070 C   0  0  0  0  0  0  0  0  0  0  0  0
   -4.0810   14.7040    1.4080 N   0  0  0  0  0  0  0  0  0  0  0  0
   -1.7420   14.5590    1.7590 N   0  0  0  0  0  0  0  0  0  0  0  0
   -5.2730   14.4240    0.8030 C   0  0  0  0  0  0  0  0  0  0  0  0
   -5.3170   14.4310   -0.4340 O   0  0  0  0  0  0  0  0  0  0  0  0
   -6.5050   14.1070    1.6680 C   0  0  0  0  0  0  0  0  0  0  0  0
   -7.6780   13.8140    0.8130 N   0  0  0  0  0  0  0  0  0  0  0  0
   -8.5940   14.9380    0.7460 C   0  0  0  0  0  0  0  0  0  0  0  0
  1  2  1  0
  2  3  1  1
  1  4  1  0
  4  5  2  0
  2  6  1  0
  4  7  1  0
  6  8  2  0
  6  9  1  0
  3 10  1  0
  7 11  1  0
  7 12  1  0
 10 13  1  0
 11 14  1  0
 12 15  1  0
 14 15  1  0
 13 16  1  0
 16 17  1  0
 17 18  2  0
 17 19  1  0
 18 20  1  0
 19 21  2  0
 21 22  1  0
 20 23  2  0
 21 23  1  0
 22 24  1  0
 24 25  2  0
 24 26  1  0
 26 27  1  0
 27 28  1  0
M  END
