x0722_0_A-x1012_0_A
     RDKit          3D

 24 25  0  0  0  0  0  0  0  0999 V2000
   -4.3160   15.9290    2.0830 C   0  0  0  0  0  0  0  0  0  0  0  0
   -3.3950   15.2760    1.1640 C   0  0  0  0  0  0  0  0  0  0  0  0
   -2.2090   14.9260    1.6180 N   0  0  0  0  0  0  0  0  0  0  0  0
   -3.5760   14.9490   -0.2010 C   0  0  0  0  0  0  0  0  0  0  0  0
   -4.8020   15.2270   -1.0310 C   0  0  0  0  0  0  0  0  0  0  0  0
   -2.3790   14.3250   -0.5590 C   0  0  0  0  0  0  0  0  0  0  0  0
   -1.5970   14.3680    0.5910 N   0  0  0  0  0  0  0  0  0  0  0  0
   -0.2580   13.9170    0.8570 C   0  0  0  0  0  0  0  0  0  0  0  0
   -1.9720   13.7120   -1.8880 C   0  0  0  0  0  0  0  0  0  0  0  0
   -6.0920   14.6000   -0.5340 C   0  0  0  0  0  0  0  0  0  0  0  0
   -7.2010   15.1140   -0.6470 O   0  0  0  0  0  0  0  0  0  0  0  0
   -5.9790   13.3800    0.0720 N   0  0  0  0  0  0  0  0  0  0  0  0
   -1.0330   14.4380   -2.8760 C   0  0  2  0  0  0  0  0  0  0  0  0
   -1.7170   15.0960   -4.0590 C   0  0  0  0  0  0  0  0  0  0  0  0
    0.0910   13.6170   -3.5030 C   0  0  2  0  0  0  0  0  0  0  0  0
    0.5830   12.5450   -2.5720 C   0  0  0  0  0  0  0  0  0  0  0  0
    1.1730   14.6020   -3.9630 C   0  0  0  0  0  0  0  0  0  0  0  0
   -0.8010   16.0180   -4.7390 N   0  0  0  0  0  0  0  0  0  0  0  0
   -1.2410   17.3120   -4.7960 C   0  0  0  0  0  0  0  0  0  0  0  0
    0.0950   11.3130   -2.8150 O   0  0  0  0  0  0  0  0  0  0  0  0
    1.3500   12.7240   -1.6610 O   0  0  0  0  0  0  0  0  0  0  0  0
    0.6020   15.5960   -4.9780 C   0  0  0  0  0  0  0  0  0  0  0  0
   -0.3160   18.2840   -4.7250 N   0  0  0  0  0  0  0  0  0  0  0  0
   -2.4170   17.6300   -4.8850 O   0  0  0  0  0  0  0  0  0  0  0  0
  1  2  1  0
  2  3  2  0
  2  4  1  0
  4  5  1  0
  4  6  2  0
  3  7  1  0
  6  7  1  0
  7  8  1  0
  6  9  1  0
  5 10  1  0
 10 11  2  0
 10 12  1  0
 13  9  1  6
 13 14  1  0
 13 15  1  0
 15 16  1  1
 15 17  1  0
 14 18  1  0
 18 19  1  0
 16 20  1  0
 16 21  2  0
 17 22  1  0
 18 22  1  0
 19 23  1  0
 19 24  2  0
M  END
