x0724_0_A-x0849_0_A
     RDKit          3D

 20 22  0  0  0  0  0  0  0  0999 V2000
   -8.8150   13.8400    4.3310 N   0  0  0  0  0  0  0  0  0  0  0  0
   -8.6580   13.8600    5.7810 C   0  0  0  0  0  0  0  0  0  0  0  0
   -8.4040   15.1070    3.7220 C   0  0  0  0  0  0  0  0  0  0  0  0
   -7.7590   14.9040    2.3940 C   0  0  0  0  0  0  0  0  0  0  0  0
   -6.4110   14.8320    2.1190 C   0  0  0  0  0  0  0  0  0  0  0  0
   -8.3650   14.7490    1.1250 C   0  0  0  0  0  0  0  0  0  0  0  0
   -7.4720   14.5960    0.1360 N   0  0  0  0  0  0  0  0  0  0  0  0
   -6.2870   14.6530    0.7760 N   0  0  0  0  0  0  0  0  0  0  0  0
   -5.0310   14.5260    0.0490 C   0  0  2  0  0  0  0  0  0  0  0  0
   -3.9780   15.6060    0.2780 C   0  0  0  0  0  0  0  0  0  0  0  0
   -5.1710   14.3390   -1.4550 C   0  0  0  0  0  0  0  0  0  0  0  0
   -2.6100   14.9040    0.1490 C   0  0  1  0  0  0  0  0  0  0  0  0
   -3.7890   14.0190   -2.0180 C   0  0  1  0  0  0  0  0  0  0  0  0
   -3.1520   15.4270   -3.2090 Br  0  0  0  0  0  0  0  0  0  0  0  0
   -2.7500   13.7730   -0.9210 C   0  0  0  0  0  0  0  0  0  0  0  0
   -1.3760   15.7740   -0.2430 C   0  0  0  0  0  0  0  0  0  0  0  0
   -2.3160   14.3060    1.5520 C   0  0  0  0  0  0  0  0  0  0  0  0
   -0.8970   14.0140    1.7350 N   0  0  0  0  0  0  0  0  0  0  0  0
   -0.2060   14.8720   -0.3290 C   0  0  0  0  0  0  0  0  0  0  0  0
   -0.0530   14.0320    0.6730 C   0  0  0  0  0  0  0  0  0  0  0  0
  1  2  1  0
  1  3  1  0
  3  4  1  0
  4  5  2  0
  4  6  1  0
  6  7  2  0
  5  8  1  0
  7  8  1  0
  9  8  1  6
  9 10  1  0
  9 11  1  0
 12 10  1  1
 11 13  1  0
 13 14  1  1
 12 15  1  0
 13 15  1  0
 12 16  1  0
 12 17  1  0
 17 18  1  0
 16 19  1  0
 18 20  1  0
 19 20  2  0
M  END
