x0722_0_A-x0282_0_A
     RDKit          3D

 24 26  0  0  0  0  0  0  0  0999 V2000
   -4.7760   15.5720    1.8910 C   0  0  0  0  0  0  0  0  0  0  0  0
   -4.0270   15.6680    0.6260 C   0  0  0  0  0  0  0  0  0  0  0  0
   -2.7150   15.8420    0.7570 N   0  0  0  0  0  0  0  0  0  0  0  0
   -4.4370   15.5990   -0.7660 C   0  0  0  0  0  0  0  0  0  0  0  0
   -5.7980   15.4160   -1.4620 C   0  0  0  0  0  0  0  0  0  0  0  0
   -3.2170   15.7340   -1.4380 C   0  0  0  0  0  0  0  0  0  0  0  0
   -2.2470   15.8780   -0.4820 N   0  0  0  0  0  0  0  0  0  0  0  0
   -0.8280   16.0540   -0.6730 C   0  0  0  0  0  0  0  0  0  0  0  0
   -2.8920   15.7340   -2.8840 C   0  0  0  0  0  0  0  0  0  0  0  0
   -7.1410   15.3380   -0.7040 C   0  0  0  0  0  0  0  0  0  0  0  0
   -8.0320   16.1770   -0.8370 O   0  0  0  0  0  0  0  0  0  0  0  0
   -7.2630   14.2570    0.1070 N   0  0  0  0  0  0  0  0  0  0  0  0
   -6.0020   13.6330    0.3330 C   0  0  0  0  0  0  0  0  0  0  0  0
   -5.6800   13.1820    1.7100 C   0  0  0  0  0  0  0  0  0  0  0  0
   -5.6680   12.5340   -0.6330 C   0  0  0  0  0  0  0  0  0  0  0  0
   -4.1570   13.2230    1.7550 C   0  0  0  0  0  0  0  0  0  0  0  0
   -4.1580   12.5500   -0.7680 C   0  0  0  0  0  0  0  0  0  0  0  0
   -3.5560   13.2520    0.3860 N   0  0  0  0  0  0  0  0  0  0  0  0
   -2.2140   13.5880    0.2690 C   0  0  0  0  0  0  0  0  0  0  0  0
   -1.6710   13.3360   -0.9400 N   0  0  0  0  0  0  0  0  0  0  0  0
   -1.5080   14.1240    1.3040 N   0  0  0  0  0  0  0  0  0  0  0  0
   -0.3870   13.6260   -1.1330 C   0  0  0  0  0  0  0  0  0  0  0  0
   -0.2150   14.3920    1.0500 C   0  0  0  0  0  0  0  0  0  0  0  0
    0.3980   14.1630   -0.1670 C   0  0  0  0  0  0  0  0  0  0  0  0
  1  2  1  0
  2  3  2  0
  2  4  1  0
  4  5  1  0
  4  6  2  0
  3  7  1  0
  6  7  1  0
  7  8  1  0
  6  9  1  0
  5 10  1  0
 10 11  2  0
 10 12  1  0
 12 13  1  0
 13 14  1  0
 13 15  1  0
 14 16  1  0
 15 17  1  0
 16 18  1  0
 17 18  1  0
 18 19  1  0
 19 20  2  0
 19 21  1  0
 20 22  1  0
 21 23  2  0
 22 24  2  0
 23 24  1  0
M  END
