x0722_0_A-x0962_2_B
     RDKit          3D

 21 22  0  0  0  0  0  0  0  0999 V2000
   -4.8660   15.2220    1.8800 C   0  0  0  0  0  0  0  0  0  0  0  0
   -3.6260   14.9700    1.1630 C   0  0  0  0  0  0  0  0  0  0  0  0
   -2.4870   14.7300    1.8080 N   0  0  0  0  0  0  0  0  0  0  0  0
   -3.4730   14.9450   -0.2360 C   0  0  0  0  0  0  0  0  0  0  0  0
   -4.5340   15.1720   -1.2730 C   0  0  0  0  0  0  0  0  0  0  0  0
   -2.1300   14.6640   -0.4190 C   0  0  0  0  0  0  0  0  0  0  0  0
   -1.5920   14.5500    0.8370 N   0  0  0  0  0  0  0  0  0  0  0  0
   -0.2210   14.2650    1.1860 C   0  0  0  0  0  0  0  0  0  0  0  0
   -1.3280   14.4980   -1.6580 C   0  0  0  0  0  0  0  0  0  0  0  0
   -5.9350   14.7480   -0.7890 C   0  0  0  0  0  0  0  0  0  0  0  0
   -6.8810   15.5730   -1.1230 N   0  0  0  0  0  0  0  0  0  0  0  0
   -6.0350   13.5690   -0.0870 N   0  0  0  0  0  0  0  0  0  0  0  0
   -8.3080   15.4080   -0.8150 C   0  0  0  0  0  0  0  0  0  0  0  0
   -8.5130   14.6860    0.5160 C   0  0  0  0  0  0  0  0  0  0  0  0
   -9.5740   15.2600    1.4820 C   0  0  2  0  0  0  0  0  0  0  0  0
  -10.0580   16.5730    1.0540 N   0  0  0  0  0  0  0  0  0  0  0  0
   -9.0080   15.2920    2.8500 C   0  0  0  0  0  0  0  0  0  0  0  0
   -9.1380   16.3260    3.7500 N   0  0  0  0  0  0  0  0  0  0  0  0
   -8.2520   14.3550    3.5110 C   0  0  0  0  0  0  0  0  0  0  0  0
   -8.4640   15.9610    4.8810 C   0  0  0  0  0  0  0  0  0  0  0  0
   -7.9220   14.7730    4.7650 N   0  0  0  0  0  0  0  0  0  0  0  0
  1  2  1  0
  2  3  2  0
  2  4  1  0
  4  5  1  0
  4  6  2  0
  3  7  1  0
  6  7  1  0
  7  8  1  0
  6  9  1  0
  5 10  1  0
 10 11  2  3
 10 12  1  0
 11 13  1  0
 13 14  1  0
 14 15  1  0
 15 16  1  6
 15 17  1  0
 17 18  1  0
 17 19  2  0
 18 20  1  0
 19 21  1  0
 20 21  2  0
M  END
