x0724_0_A_α-x0471_0_A_α
     RDKit          3D

 17 18  0  0  0  0  0  0  0  0999 V2000
   -8.1950   14.0440    4.5080 N   0  0  0  0  0  0  0  0  0  0  0  0
   -8.7200   14.0850    5.8600 C   0  0  0  0  0  0  0  0  0  0  0  0
  -10.1740   13.6440    5.9730 C   0  0  0  0  0  0  0  0  0  0  0  0
   -8.4530   14.9100    3.4860 C   0  0  0  0  0  0  0  0  0  0  0  0
   -9.2950   15.7920    3.6580 O   0  0  0  0  0  0  0  0  0  0  0  0
   -8.4470   15.4370    6.5140 C   0  0  0  0  0  0  0  0  0  0  0  0
   -7.7510   14.7970    2.2470 C   0  0  0  0  0  0  0  0  0  0  0  0
   -6.3960   14.8300    2.0310 C   0  0  0  0  0  0  0  0  0  0  0  0
   -8.2980   14.6330    0.9650 C   0  0  0  0  0  0  0  0  0  0  0  0
   -7.3680   14.5750    0.0130 N   0  0  0  0  0  0  0  0  0  0  0  0
   -6.1910   14.7040    0.6810 N   0  0  0  0  0  0  0  0  0  0  0  0
   -4.9540   14.7070   -0.0060 C   0  0  0  0  0  0  0  0  0  0  0  0
   -3.7410   14.7650    0.6950 C   0  0  0  0  0  0  0  0  0  0  0  0
   -4.9500   14.6580   -1.4050 C   0  0  0  0  0  0  0  0  0  0  0  0
   -2.5380   14.7710   -0.0120 C   0  0  0  0  0  0  0  0  0  0  0  0
   -3.7450   14.6640   -2.1020 C   0  0  0  0  0  0  0  0  0  0  0  0
   -2.5410   14.7200   -1.4070 C   0  0  0  0  0  0  0  0  0  0  0  0
  1  2  1  0
  2  3  1  0
  1  4  1  0
  4  5  2  0
  2  6  1  0
  4  7  1  0
  7  8  2  0
  7  9  1  0
  9 10  2  0
  8 11  1  0
 10 11  1  0
 11 12  1  0
 12 13  2  0
 12 14  1  0
 13 15  1  0
 14 16  2  0
 15 17  2  0
 16 17  1  0
M  END
