x0724_0_A-x0910_0_A
     RDKit          3D

 19 21  0  0  0  0  0  0  0  0999 V2000
   -8.6790   13.7390    4.3280 N   0  0  0  0  0  0  0  0  0  0  0  0
   -8.3940   14.0280    5.7300 C   0  0  0  0  0  0  0  0  0  0  0  0
   -8.8910   14.9660    3.5580 C   0  0  0  0  0  0  0  0  0  0  0  0
   -8.2220   14.8260    2.2360 C   0  0  0  0  0  0  0  0  0  0  0  0
   -6.8880   14.8200    1.9900 C   0  0  0  0  0  0  0  0  0  0  0  0
   -8.7830   14.6730    0.9460 C   0  0  0  0  0  0  0  0  0  0  0  0
   -7.8630   14.5830   -0.0280 N   0  0  0  0  0  0  0  0  0  0  0  0
   -6.6950   14.6810    0.6410 N   0  0  0  0  0  0  0  0  0  0  0  0
   -5.4120   14.6540    0.0820 C   0  0  0  0  0  0  0  0  0  0  0  0
   -4.4600   14.8720    1.0300 C   0  0  0  0  0  0  0  0  0  0  0  0
   -5.0560   14.4350   -1.2720 C   0  0  0  0  0  0  0  0  0  0  0  0
   -3.1690   14.8680    0.6990 C   0  0  0  0  0  0  0  0  0  0  0  0
   -3.6840   14.4360   -1.6170 C   0  0  0  0  0  0  0  0  0  0  0  0
   -2.7540   14.6530   -0.5820 C   0  0  0  0  0  0  0  0  0  0  0  0
   -1.3450   14.7150   -0.4950 C   0  0  0  0  0  0  0  0  0  0  0  0
   -0.8680   15.0830    0.7180 N   0  0  0  0  0  0  0  0  0  0  0  0
   -0.3530   14.4940   -1.3110 N   0  0  0  0  0  0  0  0  0  0  0  0
    0.4370   15.1170    0.7500 N   0  0  0  0  0  0  0  0  0  0  0  0
    0.7180   14.7520   -0.4990 C   0  0  0  0  0  0  0  0  0  0  0  0
  1  2  1  0
  1  3  1  0
  3  4  1  0
  4  5  2  0
  4  6  1  0
  6  7  2  0
  5  8  1  0
  7  8  1  0
  8  9  1  0
  9 10  2  0
  9 11  1  0
 10 12  1  0
 11 13  2  0
 12 14  2  0
 13 14  1  0
 14 15  1  0
 15 16  1  0
 15 17  2  0
 16 18  1  0
 17 19  1  0
 18 19  2  0
M  END
