x0727_0_A-x0766_0_A
     RDKit          3D

 23 25  0  0  0  0  0  0  0  0999 V2000
    0.2900   11.1260   -5.6710 N   0  0  0  0  0  0  0  0  0  0  0  0
    1.0550   12.1030   -4.9030 C   0  0  1  0  0  0  0  0  0  0  0  0
    1.1860   13.3470   -5.7370 C   0  0  0  0  0  0  0  0  0  0  0  0
    0.6940   10.8780   -6.9420 C   0  0  0  0  0  0  0  0  0  0  0  0
    1.5550   11.5540   -7.4310 O   0  0  0  0  0  0  0  0  0  0  0  0
    0.5180   12.3080   -3.4850 C   0  0  0  0  0  0  0  0  0  0  0  0
    0.0620    9.7270   -7.6840 C   0  0  0  0  0  0  0  0  0  0  0  0
   -0.1710   11.1650   -2.9700 O   0  0  0  0  0  0  0  0  0  0  0  0
    1.5570   12.5910   -2.5630 O   0  0  0  0  0  0  0  0  0  0  0  0
   -1.2560   10.1480   -8.3430 C   0  0  0  0  0  0  0  0  0  0  0  0
   -0.2560    8.5180   -6.7890 C   0  0  0  0  0  0  0  0  0  0  0  0
   -0.3770   13.4920   -3.7390 C   0  0  2  0  0  0  0  0  0  0  0  0
   -2.2640    9.0710   -7.9650 C   0  0  0  0  0  0  0  0  0  0  0  0
   -1.7640    8.5350   -6.6340 C   0  0  0  0  0  0  0  0  0  0  0  0
   -0.0020   14.1800   -5.0640 C   0  0  0  0  0  0  0  0  0  0  0  0
   -0.2320   14.6270   -2.7270 C   0  0  1  0  0  0  0  0  0  0  0  0
    1.0130   15.2310   -4.6490 C   0  0  0  0  0  0  0  0  0  0  0  0
    0.1850   15.8470   -3.5610 C   0  0  0  0  0  0  0  0  0  0  0  0
   -1.5100   14.7320   -1.9480 C   0  0  0  0  0  0  0  0  0  0  0  0
   -2.7680   14.8890   -2.5090 C   0  0  0  0  0  0  0  0  0  0  0  0
   -1.5880   14.6810   -0.5220 C   0  0  0  0  0  0  0  0  0  0  0  0
   -2.8750   14.8060   -0.0590 C   0  0  0  0  0  0  0  0  0  0  0  0
   -4.0000   14.9830   -1.3310 S   0  0  0  0  0  0  0  0  0  0  0  0
  1  2  1  0
  2  3  1  6
  1  4  1  0
  4  5  2  0
  2  6  1  0
  4  7  1  0
  6  8  1  0
  6  9  1  0
  7 10  1  0
  7 11  1  0
 12  6  1  1
 10 13  1  0
 11 14  1  0
 13 14  1  0
 12 15  1  0
 12 16  1  0
 15 17  1  0
 16 18  1  0
 17 18  1  0
 16 19  1  6
 19 20  2  0
 19 21  1  0
 21 22  2  0
 20 23  1  0
 22 23  1  0
M  END
