x0729_1_B-x0091_0_B
     RDKit          3D

 30 32  0  0  0  0  0  0  0  0999 V2000
   19.8420   24.8880    6.1300 C   0  0  0  0  0  0  0  0  0  0  0  0
   19.9110   26.4160    6.2270 C   0  0  1  0  0  0  0  0  0  0  0  0
   20.0850   26.8730    7.6140 N   0  0  0  0  0  0  0  0  0  0  0  0
   20.9860   26.8910    5.2180 C   0  0  1  0  0  0  0  0  0  0  0  0
   20.3750   27.0420    3.8820 C   0  0  0  0  0  0  0  0  0  0  0  0
   18.8290   27.4390    8.6240 S   0  0  2  0  0  0  0  0  0  0  0  0
   21.4850   27.0500    7.9740 C   0  0  0  0  0  0  0  0  0  0  0  0
   21.6350   28.1960    5.6650 C   0  0  0  0  0  0  0  0  0  0  0  0
   19.5020   28.3790    9.4940 O   0  0  0  0  0  0  0  0  0  0  0  0
   19.8980   27.1410    2.8300 N   0  0  0  0  0  0  0  0  0  0  0  0
   18.1020   26.1660    9.0980 N   0  0  0  0  0  0  0  0  0  0  0  0
   17.6780   28.3670    7.6410 C   0  0  0  0  0  0  0  0  0  0  0  0
   22.1400   28.1340    7.1130 C   0  0  0  0  0  0  0  0  0  0  0  0
   17.9300   25.8770   10.5460 C   0  0  0  0  0  0  0  0  0  0  0  0
   17.0180   24.6520   10.6760 C   0  0  0  0  0  0  0  0  0  0  0  0
   16.2940   24.2970   11.9700 C   0  0  2  0  0  0  0  0  0  0  0  0
   16.6810   22.9890   12.5860 C   0  0  0  0  0  0  0  0  0  0  0  0
   15.3050   23.1370   11.9940 C   0  0  1  0  0  0  0  0  0  0  0  0
   14.2350   22.8350   12.9100 N   0  0  0  0  0  0  0  0  0  0  0  0
   13.6750   21.5710   12.7600 C   0  0  0  0  0  0  0  0  0  0  0  0
   12.7670   21.1200   13.7120 N   0  0  0  0  0  0  0  0  0  0  0  0
   13.9860   20.8490   11.8150 O   0  0  0  0  0  0  0  0  0  0  0  0
   12.2100   22.0550   14.6700 C   0  0  0  0  0  0  0  0  0  0  0  0
   12.2090   19.7570   13.7000 C   0  0  0  0  0  0  0  0  0  0  0  0
   13.1570   18.7790   14.3360 C   0  0  0  0  0  0  0  0  0  0  0  0
   12.6820   17.7380   15.0410 N   0  0  0  0  0  0  0  0  0  0  0  0
   14.5750   18.7650   14.3180 C   0  0  0  0  0  0  0  0  0  0  0  0
   13.7880   17.0380   15.4870 O   0  0  0  0  0  0  0  0  0  0  0  0
   14.9190   17.6540   15.0550 C   0  0  0  0  0  0  0  0  0  0  0  0
   16.1940   17.0300   15.4500 C   0  0  0  0  0  0  0  0  0  0  0  0
  2  1  1  1
  2  3  1  0
  2  4  1  0
  4  5  1  6
  3  6  1  0
  3  7  1  0
  4  8  1  0
  6  9  2  0
  5 10  3  0
  6 11  2  0
  6 12  1  6
  7 13  1  0
  8 13  1  0
 11 14  1  0
 14 15  1  0
 16 15  1  6
 16 17  1  0
 16 18  1  0
 17 18  1  0
 18 19  1  1
 19 20  1  0
 20 21  1  0
 20 22  2  0
 21 23  1  0
 21 24  1  0
 24 25  1  0
 25 26  2  0
 25 27  1  0
 26 28  1  0
 27 29  2  0
 28 29  1  0
 29 30  1  0
M  END
