x0724_0_A_α-x0895_1_A_α
     RDKit          3D

 16 17  0  0  0  0  0  0  0  0999 V2000
   -8.6490   13.7040    4.3710 N   0  0  0  0  0  0  0  0  0  0  0  0
   -8.4860   13.8280    5.8180 C   0  0  0  0  0  0  0  0  0  0  0  0
   -8.3920   14.9750    3.6910 C   0  0  0  0  0  0  0  0  0  0  0  0
   -7.8570   14.7740    2.3190 C   0  0  0  0  0  0  0  0  0  0  0  0
   -6.5540   14.8450    1.9090 C   0  0  0  0  0  0  0  0  0  0  0  0
   -8.5420   14.4800    1.1270 C   0  0  0  0  0  0  0  0  0  0  0  0
   -7.7290   14.3850    0.0690 N   0  0  0  0  0  0  0  0  0  0  0  0
   -6.4760   14.6160    0.5410 N   0  0  0  0  0  0  0  0  0  0  0  0
   -5.2650   14.6490   -0.1770 C   0  0  0  0  0  0  0  0  0  0  0  0
   -4.0790   15.0850    0.5860 C   0  0  0  0  0  0  0  0  0  0  0  0
   -5.0600   14.3510   -1.4730 C   0  0  0  0  0  0  0  0  0  0  0  0
   -4.1940   15.6540    1.6420 O   0  0  0  0  0  0  0  0  0  0  0  0
   -2.7030   14.8140    0.0110 C   0  0  0  0  0  0  0  0  0  0  0  0
   -3.7740   14.4380   -2.1250 C   0  0  0  0  0  0  0  0  0  0  0  0
   -1.7020   14.7330    0.7150 O   0  0  0  0  0  0  0  0  0  0  0  0
   -2.6350   14.6570   -1.4540 C   0  0  0  0  0  0  0  0  0  0  0  0
  1  2  1  0
  1  3  1  0
  3  4  1  0
  4  5  2  0
  4  6  1  0
  6  7  2  0
  5  8  1  0
  7  8  1  0
  8  9  1  0
  9 10  1  0
  9 11  2  0
 10 12  2  0
 10 13  1  0
 11 14  1  0
 13 15  2  0
 13 16  1  0
 14 16  2  0
M  END
