x0724_0_A_α-x0967_0_A_α
     RDKit          3D

 14 15  0  0  0  0  0  0  0  0999 V2000
   -8.2600   13.7540    4.4440 N   0  0  0  0  0  0  0  0  0  0  0  0
   -8.7110   13.9400    5.8160 C   0  0  0  0  0  0  0  0  0  0  0  0
   -8.4500   14.9670    3.6650 C   0  0  0  0  0  0  0  0  0  0  0  0
   -7.7590   14.8150    2.3540 C   0  0  0  0  0  0  0  0  0  0  0  0
   -6.4050   14.8530    2.0870 C   0  0  0  0  0  0  0  0  0  0  0  0
   -8.3350   14.6010    1.0870 C   0  0  0  0  0  0  0  0  0  0  0  0
   -7.4330   14.5170    0.1090 N   0  0  0  0  0  0  0  0  0  0  0  0
   -6.2350   14.6780    0.7320 N   0  0  0  0  0  0  0  0  0  0  0  0
   -5.0130   14.6670    0.0070 C   0  0  0  0  0  0  0  0  0  0  0  0
   -3.7990   14.7800    0.7030 C   0  0  0  0  0  0  0  0  0  0  0  0
   -4.9990   14.5540   -1.3890 C   0  0  0  0  0  0  0  0  0  0  0  0
   -2.5900   14.7780    0.0090 C   0  0  0  0  0  0  0  0  0  0  0  0
   -3.7860   14.5540   -2.0780 C   0  0  0  0  0  0  0  0  0  0  0  0
   -2.5860   14.6670   -1.3820 C   0  0  0  0  0  0  0  0  0  0  0  0
  1  2  1  0
  1  3  1  0
  3  4  1  0
  4  5  2  0
  4  6  1  0
  6  7  2  0
  5  8  1  0
  7  8  1  0
  8  9  1  0
  9 10  2  0
  9 11  1  0
 10 12  1  0
 11 13  2  0
 12 14  2  0
 13 14  1  0
M  END
