x0727_0_A-x1018_0_A
     RDKit          3D

 26 28  0  0  0  0  0  0  0  0999 V2000
    0.2160   11.4500   -5.6120 N   0  0  0  0  0  0  0  0  0  0  0  0
    0.9140   12.3640   -4.7150 C   0  0  1  0  0  0  0  0  0  0  0  0
    0.4550   13.7990   -4.9370 C   0  0  0  0  0  0  0  0  0  0  0  0
    0.6850   11.0450   -6.8170 C   0  0  0  0  0  0  0  0  0  0  0  0
    1.6280   11.6670   -7.2410 O   0  0  0  0  0  0  0  0  0  0  0  0
    0.7010   11.9470   -3.2590 C   0  0  0  0  0  0  0  0  0  0  0  0
    0.0820    9.8650   -7.5540 C   0  0  0  0  0  0  0  0  0  0  0  0
    0.2120   10.8830   -2.8860 O   0  0  0  0  0  0  0  0  0  0  0  0
    1.1450   12.9340   -2.4320 O   0  0  0  0  0  0  0  0  0  0  0  0
   -1.2200   10.2540   -8.2650 C   0  0  0  0  0  0  0  0  0  0  0  0
   -0.2710    8.6680   -6.6450 C   0  0  0  0  0  0  0  0  0  0  0  0
    0.2970   13.1750   -1.3050 C   0  0  0  0  0  0  0  0  0  0  0  0
   -2.1840    9.1090   -8.0050 C   0  0  0  0  0  0  0  0  0  0  0  0
   -1.7860    8.5890   -6.6360 C   0  0  0  0  0  0  0  0  0  0  0  0
   -0.6190   14.3650   -1.5370 C   0  0  0  0  0  0  0  0  0  0  0  0
   -1.6450   14.4440   -0.3960 C   0  0  0  0  0  0  0  0  0  0  0  0
   -2.9210   15.0600   -0.8170 N   0  0  0  0  0  0  0  0  0  0  0  0
   -3.2400   14.8060   -2.2380 N   0  0  0  0  0  0  0  0  0  0  0  0
   -4.0980   14.4690   -0.1880 C   0  0  2  0  0  0  0  0  0  0  0  0
   -4.6820   14.7410   -2.3810 N   0  0  0  0  0  0  0  0  0  0  0  0
   -5.1430   14.9150   -1.0850 N   0  0  0  0  0  0  0  0  0  0  0  0
   -4.4870   14.7460    1.2120 C   0  0  0  0  0  0  0  0  0  0  0  0
   -6.4710   14.7030   -0.8320 N   0  0  0  0  0  0  0  0  0  0  0  0
   -5.7840   14.8420    1.5410 C   0  0  0  0  0  0  0  0  0  0  0  0
   -6.7660   14.6710    0.4350 C   0  0  0  0  0  0  0  0  0  0  0  0
   -8.4300   14.4280    0.8290 Cl  0  0  0  0  0  0  0  0  0  0  0  0
  1  2  1  0
  2  3  1  1
  1  4  1  0
  4  5  2  0
  2  6  1  0
  4  7  1  0
  6  8  2  0
  6  9  1  0
  7 10  1  0
  7 11  1  0
  9 12  1  0
 10 13  1  0
 11 14  1  0
 13 14  1  0
 12 15  1  0
 15 16  1  0
 16 17  1  0
 17 18  1  0
 17 19  1  0
 18 20  1  0
 19 21  1  0
 20 21  1  0
 19 22  1  1
 21 23  1  0
 22 24  2  0
 23 25  2  0
 24 25  1  0
 25 26  1  0
M  END
