x0729_0_A-x0301_0_B
     RDKit          3D

 23 25  0  0  0  0  0  0  0  0999 V2000
   21.1900   25.8830    6.0560 C   0  0  0  0  0  0  0  0  0  0  0  0
   19.7500   26.1460    5.7800 C   0  0  2  0  0  0  0  0  0  0  0  0
   19.6840   27.6830    5.4170 C   0  0  1  0  0  0  0  0  0  0  0  0
   21.5770   27.2410    6.6050 C   0  0  1  0  0  0  0  0  0  0  0  0
   19.0960   25.7960    7.1210 C   0  0  0  0  0  0  0  0  0  0  0  0
   22.1710   27.2260    7.9710 N   0  0  0  0  0  0  0  0  0  0  0  0
   22.1570   28.0840    5.4600 C   0  0  1  0  0  0  0  0  0  0  0  0
   20.9130   28.1940    4.5530 C   0  0  1  0  0  0  0  0  0  0  0  0
   20.9280   27.3360    9.1800 S   0  0  0  0  0  0  0  0  0  0  0  0
   18.4020   28.2430    4.9930 N   0  0  0  0  0  0  0  0  0  0  0  0
   23.2440   28.2340    8.1330 C   0  0  0  0  0  0  0  0  0  0  0  0
   22.7560   29.4160    5.9410 C   0  0  0  0  0  0  0  0  0  0  0  0
   19.6470   27.5210    8.5320 O   0  0  0  0  0  0  0  0  0  0  0  0
   21.0110   27.5370    3.2360 N   0  0  0  0  0  0  0  0  0  0  0  0
   21.3410   28.2550   10.2150 O   0  0  0  0  0  0  0  0  0  0  0  0
   20.9560   25.6970    9.8770 C   0  0  0  0  0  0  0  0  0  0  0  0
   22.8170   29.5300    7.4630 C   0  0  0  0  0  0  0  0  0  0  0  0
   18.0420   29.5450    5.0150 C   0  0  0  0  0  0  0  0  0  0  0  0
   18.7020   30.4300    4.1930 N   0  0  0  0  0  0  0  0  0  0  0  0
   17.0820   30.1420    5.7320 N   0  0  0  0  0  0  0  0  0  0  0  0
   17.1980   31.4050    5.2930 N   0  0  0  0  0  0  0  0  0  0  0  0
   18.1500   31.6230    4.3780 N   0  0  0  0  0  0  0  0  0  0  0  0
   16.3450   32.4580    5.7700 C   0  0  0  0  0  0  0  0  0  0  0  0
  1  2  1  0
  2  3  1  0
  4  1  1  6
  2  5  1  1
  4  6  1  0
  4  7  1  0
  3  8  1  0
  7  8  1  0
  6  9  1  0
  3 10  1  6
  6 11  1  0
  7 12  1  1
  9 13  2  0
  8 14  1  6
  9 15  2  0
  9 16  1  0
 11 17  1  0
 12 17  1  0
 10 18  1  0
 18 19  1  0
 18 20  2  0
 20 21  1  0
 19 22  2  0
 21 22  1  0
 21 23  1  0
M  END
