x0722_0_A-x0926_0_A
     RDKit          3D

 12 12  0  0  0  0  0  0  0  0999 V2000
   -4.4180   15.7700    2.2500 C   0  0  0  0  0  0  0  0  0  0  0  0
   -3.4280   15.2700    1.3140 C   0  0  0  0  0  0  0  0  0  0  0  0
   -2.2560   14.9070    1.7960 N   0  0  0  0  0  0  0  0  0  0  0  0
   -3.5200   15.1160   -0.0830 C   0  0  0  0  0  0  0  0  0  0  0  0
   -4.6920   15.4240   -0.9680 C   0  0  0  0  0  0  0  0  0  0  0  0
   -2.2690   14.6260   -0.4320 C   0  0  0  0  0  0  0  0  0  0  0  0
   -1.5630   14.5280    0.7410 N   0  0  0  0  0  0  0  0  0  0  0  0
   -0.2120   14.0850    0.9470 C   0  0  0  0  0  0  0  0  0  0  0  0
   -1.6970   14.2610   -1.7460 C   0  0  0  0  0  0  0  0  0  0  0  0
   -5.9650   14.6660   -0.6210 C   0  0  0  0  0  0  0  0  0  0  0  0
   -7.0880   15.1440   -0.7760 O   0  0  0  0  0  0  0  0  0  0  0  0
   -5.8360   13.3980   -0.1250 N   0  0  0  0  0  0  0  0  0  0  0  0
  1  2  1  0
  2  3  2  0
  2  4  1  0
  4  5  1  0
  4  6  2  0
  3  7  1  0
  6  7  1  0
  7  8  1  0
  6  9  1  0
  5 10  1  0
 10 11  2  0
 10 12  1  0
M  END
