x0724_0_A_α-x0910_2_B_α
     RDKit          3D

 26 28  0  0  0  0  0  0  0  0999 V2000
   -8.2560   13.7630    4.4000 N   0  0  0  0  0  0  0  0  0  0  0  0
   -8.7160   13.9070    5.7740 C   0  0  0  0  0  0  0  0  0  0  0  0
   -8.4840   14.9870    3.6500 C   0  0  0  0  0  0  0  0  0  0  0  0
   -7.7980   14.8910    2.3270 C   0  0  0  0  0  0  0  0  0  0  0  0
   -6.4380   14.8220    2.0900 C   0  0  0  0  0  0  0  0  0  0  0  0
   -8.3670   14.8650    1.0270 C   0  0  0  0  0  0  0  0  0  0  0  0
   -9.8050   14.9250    0.6230 C   0  0  0  0  0  0  0  0  0  0  0  0
   -7.4330   14.7850    0.0720 N   0  0  0  0  0  0  0  0  0  0  0  0
   -6.2470   14.7700    0.7290 N   0  0  0  0  0  0  0  0  0  0  0  0
  -10.0020   15.8320   -0.6020 C   0  0  0  0  0  0  0  0  0  0  0  0
   -5.0160   14.7260    0.0190 C   0  0  0  0  0  0  0  0  0  0  0  0
  -10.6160   17.1880   -0.2410 C   0  0  0  0  0  0  0  0  0  0  0  0
   -3.8040   14.7900    0.7280 C   0  0  0  0  0  0  0  0  0  0  0  0
   -4.9980   14.6310   -1.3760 C   0  0  0  0  0  0  0  0  0  0  0  0
  -10.6800   18.1400   -1.4400 C   0  0  0  0  0  0  0  0  0  0  0  0
   -2.5900   14.7590    0.0370 C   0  0  0  0  0  0  0  0  0  0  0  0
   -3.7800   14.6000   -2.0610 C   0  0  0  0  0  0  0  0  0  0  0  0
  -11.6320   19.3280   -1.2430 C   0  0  0  0  0  0  0  0  0  0  0  0
   -2.5820   14.6640   -1.3530 C   0  0  0  0  0  0  0  0  0  0  0  0
  -12.2320   19.7900   -2.5770 C   0  0  0  0  0  0  0  0  0  0  0  0
  -11.8090   21.1460   -2.9150 N   0  0  0  0  0  0  0  0  0  0  0  0
  -12.2760   22.1790   -2.1830 C   0  0  0  0  0  0  0  0  0  0  0  0
  -11.7750   23.4430   -2.3470 N   0  0  0  0  0  0  0  0  0  0  0  0
  -13.2050   22.2080   -1.2530 N   0  0  0  0  0  0  0  0  0  0  0  0
  -12.3750   24.3090   -1.5210 N   0  0  0  0  0  0  0  0  0  0  0  0
  -13.2320   23.5170   -0.8780 C   0  0  0  0  0  0  0  0  0  0  0  0
  1  2  1  0
  1  3  1  0
  3  4  1  0
  4  5  2  0
  4  6  1  0
  6  7  1  0
  6  8  2  0
  5  9  1  0
  8  9  1  0
  7 10  1  0
  9 11  1  0
 10 12  1  0
 11 13  2  0
 11 14  1  0
 12 15  1  0
 13 16  1  0
 14 17  2  0
 15 18  1  0
 16 19  2  0
 17 19  1  0
 18 20  1  0
 20 21  1  0
 21 22  1  0
 22 23  1  0
 22 24  2  0
 23 25  1  0
 24 26  1  0
 25 26  2  0
M  END
