x0727_0_A-x0837_0_A
     RDKit          3D

 24 25  0  0  0  0  0  0  0  0999 V2000
    0.1040   12.0790   -5.5300 N   0  0  0  0  0  0  0  0  0  0  0  0
    1.1000   12.6140   -4.6880 C   0  0  1  0  0  0  0  0  0  0  0  0
    1.2500   14.0340   -4.4520 C   0  0  0  0  0  0  0  0  0  0  0  0
    0.3720   11.1820   -6.5770 C   0  0  0  0  0  0  0  0  0  0  0  0
    1.4740   11.2990   -7.2110 O   0  0  0  0  0  0  0  0  0  0  0  0
    0.9180   11.9640   -3.3040 C   0  0  0  0  0  0  0  0  0  0  0  0
   -0.5400   10.1260   -6.9490 C   0  0  0  0  0  0  0  0  0  0  0  0
    0.2830   10.9070   -3.1870 O   0  0  0  0  0  0  0  0  0  0  0  0
    1.4600   12.5480   -2.1870 O   0  0  0  0  0  0  0  0  0  0  0  0
    0.7400   14.7440   -3.2990 C   0  0  0  0  0  0  0  0  0  0  0  0
   -0.9070   10.1110   -8.4350 C   0  0  0  0  0  0  0  0  0  0  0  0
   -0.1820    8.7040   -6.7660 C   0  0  0  0  0  0  0  0  0  0  0  0
   -0.6380   14.6950   -2.8230 C   0  0  0  0  0  0  0  0  0  0  0  0
   -1.9940    9.0240   -8.3270 C   0  0  0  0  0  0  0  0  0  0  0  0
   -1.4820    8.0760   -7.2650 C   0  0  0  0  0  0  0  0  0  0  0  0
   -1.6850   15.2230   -3.7090 C   0  0  0  0  0  0  0  0  0  0  0  0
   -3.6940   14.8000   -3.1380 I   0  0  0  0  0  0  0  0  0  0  0  0
   -4.2760   14.4700   -1.1060 C   0  0  1  0  0  0  0  0  0  0  0  0
   -3.4270   14.9470   -0.0270 C   0  0  0  0  0  0  0  0  0  0  0  0
   -5.6270   15.1050   -0.9750 C   0  0  0  0  0  0  0  0  0  0  0  0
   -3.9580   15.0910    1.1740 C   0  0  0  0  0  0  0  0  0  0  0  0
   -6.2470   14.7960    0.3350 C   0  0  0  0  0  0  0  0  0  0  0  0
   -7.4560   14.5580    0.5020 O   0  0  0  0  0  0  0  0  0  0  0  0
   -5.3240   14.8030    1.4610 N   0  0  0  0  0  0  0  0  0  0  0  0
  1  2  1  0
  2  3  1  1
  1  4  1  0
  4  5  2  0
  2  6  1  0
  4  7  1  0
  6  8  2  0
  6  9  1  0
  3 10  1  0
  7 11  1  0
  7 12  1  0
 10 13  1  0
 11 14  1  0
 12 15  1  0
 14 15  1  0
 13 16  1  0
 16 17  1  0
 18 17  1  6
 18 19  1  0
 18 20  1  0
 19 21  2  0
 20 22  1  0
 22 23  2  0
 21 24  1  0
 22 24  1  0
M  END
