x0727_0_A-x0631_0_A
     RDKit          3D

 29 32  0  0  0  0  0  0  0  0999 V2000
   -0.0800   11.9090   -5.3550 N   0  0  0  0  0  0  0  0  0  0  0  0
    0.9290   12.5540   -4.5400 C   0  0  1  0  0  0  0  0  0  0  0  0
    0.7540   14.0620   -4.6150 C   0  0  0  0  0  0  0  0  0  0  0  0
    0.3250   11.5130   -6.5840 C   0  0  0  0  0  0  0  0  0  0  0  0
    1.3980   11.8850   -7.0430 O   0  0  0  0  0  0  0  0  0  0  0  0
    0.7370   12.0330   -3.1220 C   0  0  0  0  0  0  0  0  0  0  0  0
   -0.5410   10.5580   -7.3700 C   0  0  2  0  0  0  0  0  0  0  0  0
    0.1530   10.9980   -2.8230 O   0  0  0  0  0  0  0  0  0  0  0  0
    1.2810   12.8220   -2.1890 O   0  0  0  0  0  0  0  0  0  0  0  0
   -2.0660   10.5810   -7.2830 C   0  0  0  0  0  0  0  0  0  0  0  0
   -0.1640    9.1260   -7.0000 C   0  0  1  0  0  0  0  0  0  0  0  0
   -2.3460    9.2370   -7.9430 C   0  0  1  0  0  0  0  0  0  0  0  0
   -1.4900    8.3320   -7.0920 C   0  0  1  0  0  0  0  0  0  0  0  0
    0.9740    8.8430   -7.8350 N   0  0  0  0  0  0  0  0  0  0  0  0
    1.8020   10.0020   -7.6690 N   0  0  0  0  0  0  0  0  0  0  0  0
    0.5770    8.8860   -9.2300 N   0  0  0  0  0  0  0  0  0  0  0  0
   -3.6800    8.5110   -7.8270 C   0  0  0  0  0  0  0  0  0  0  0  0
   -1.7330    7.0150   -7.8250 C   0  0  0  0  0  0  0  0  0  0  0  0
    1.6350   10.8660   -8.7910 N   0  0  0  0  0  0  0  0  0  0  0  0
    1.5120    9.8490   -9.7740 C   0  0  2  0  0  0  0  0  0  0  0  0
   -3.2630    7.0380   -8.0310 C   0  0  0  0  0  0  0  0  0  0  0  0
    1.2360   10.3630  -11.0670 N   0  0  0  0  0  0  0  0  0  0  0  0
    2.0140    9.7430  -12.1110 C   0  0  2  0  0  0  0  0  0  0  0  0
    2.7550    8.7120  -11.4580 O   0  0  0  0  0  0  0  0  0  0  0  0
    2.9850   10.6750  -12.8450 C   0  0  1  0  0  0  0  0  0  0  0  0
    4.1100    9.9000  -13.3320 O   0  0  0  0  0  0  0  0  0  0  0  0
    2.4370   11.4610  -14.0090 C   0  0  0  0  0  0  0  0  0  0  0  0
    3.6880   11.6960  -14.8140 C   0  0  0  0  0  0  0  0  0  0  0  0
    4.4600   10.4080  -14.6210 C   0  0  0  0  0  0  0  0  0  0  0  0
  1  2  1  0
  2  3  1  1
  1  4  1  0
  4  5  2  0
  2  6  1  0
  7  4  1  1
  6  8  2  0
  6  9  1  0
  7 10  1  0
  7 11  1  0
 12 10  1  1
 11 13  1  0
 12 13  1  0
 11 14  1  6
 14 15  1  0
 14 16  1  0
 12 17  1  0
 13 18  1  6
 15 19  1  0
 16 20  1  0
 19 20  1  0
 17 21  1  0
 18 21  1  0
 20 22  1  6
 22 23  1  0
 23 24  1  1
 23 25  1  0
 25 26  1  0
 25 27  1  6
 27 28  1  0
 26 29  1  0
 28 29  1  0
M  END
