x0727_0_A-x0805_0_A
     RDKit          3D

 27 29  0  0  0  0  0  0  0  0999 V2000
    0.2380   10.8080   -5.9820 N   0  0  0  0  0  0  0  0  0  0  0  0
    0.9670   11.8540   -5.3230 C   0  0  1  0  0  0  0  0  0  0  0  0
    0.4700   13.1020   -6.0420 C   0  0  0  0  0  0  0  0  0  0  0  0
    0.6400   10.6060   -7.2560 C   0  0  0  0  0  0  0  0  0  0  0  0
    1.4520   11.3340   -7.7450 O   0  0  0  0  0  0  0  0  0  0  0  0
    0.6760   11.9790   -3.8260 C   0  0  0  0  0  0  0  0  0  0  0  0
    0.0220    9.4320   -7.9570 C   0  0  0  0  0  0  0  0  0  0  0  0
   -0.1240   10.9470   -3.2570 O   0  0  0  0  0  0  0  0  0  0  0  0
    1.8180   12.1900   -3.0010 O   0  0  0  0  0  0  0  0  0  0  0  0
   -1.3340    9.8120   -8.5510 C   0  0  0  0  0  0  0  0  0  0  0  0
   -0.2600    8.2630   -7.0190 C   0  0  0  0  0  0  0  0  0  0  0  0
   -0.0610   13.2550   -3.9990 C   0  0  2  0  0  0  0  0  0  0  0  0
   -2.3930    9.2010   -7.6330 C   0  0  0  0  0  0  0  0  0  0  0  0
   -1.6490    8.5340   -6.4830 C   0  0  0  0  0  0  0  0  0  0  0  0
    0.7530   14.0800   -5.0030 C   0  0  0  0  0  0  0  0  0  0  0  0
   -0.2990   14.0240   -2.7520 C   0  0  2  0  0  0  0  0  0  0  0  0
   -1.7650   14.0700   -2.4290 C   0  0  0  0  0  0  0  0  0  0  0  0
    2.0010   14.3280   -4.3890 O   0  0  0  0  0  0  0  0  0  0  0  0
    0.3820   15.3880   -2.8650 C   0  0  0  0  0  0  0  0  0  0  0  0
   -2.7220   13.3500   -3.1650 C   0  0  0  0  0  0  0  0  0  0  0  0
   -2.1660   14.8450   -1.3760 C   0  0  0  0  0  0  0  0  0  0  0  0
    1.8030   15.3140   -3.4120 C   0  0  0  0  0  0  0  0  0  0  0  0
   -3.4870   14.9570   -1.0180 C   0  0  0  0  0  0  0  0  0  0  0  0
   -4.0670   13.4390   -2.8120 C   0  0  0  0  0  0  0  0  0  0  0  0
   -3.9340   15.7330    0.0090 O   0  0  0  0  0  0  0  0  0  0  0  0
   -4.4470   14.2470   -1.7380 C   0  0  0  0  0  0  0  0  0  0  0  0
   -4.4090   15.0870    1.1770 C   0  0  0  0  0  0  0  0  0  0  0  0
  1  2  1  0
  2  3  1  6
  1  4  1  0
  4  5  2  0
  2  6  1  0
  4  7  1  0
  6  8  1  0
  6  9  1  0
  7 10  1  0
  7 11  1  0
 12  6  1  1
 10 13  1  0
 11 14  1  0
 13 14  1  0
 12 15  1  0
 12 16  1  0
 16 17  1  6
 15 18  1  0
 16 19  1  0
 17 20  2  0
 17 21  1  0
 18 22  1  0
 19 22  1  0
 21 23  2  0
 20 24  1  0
 23 25  1  0
 23 26  1  0
 24 26  2  0
 25 27  1  0
M  END
