x0729_1_B-x0933_4_B
     RDKit          3D

 20 21  0  0  0  0  0  0  0  0999 V2000
   20.5930   24.9550    5.9080 C   0  0  0  0  0  0  0  0  0  0  0  0
   20.0510   26.3560    6.2160 C   0  0  1  0  0  0  0  0  0  0  0  0
   20.2710   26.7040    7.6630 N   0  0  0  0  0  0  0  0  0  0  0  0
   20.5340   27.4860    5.3010 C   0  0  2  0  0  0  0  0  0  0  0  0
   20.2420   27.2200    3.8830 C   0  0  0  0  0  0  0  0  0  0  0  0
   18.9680   27.4540    8.4900 S   0  0  0  0  0  0  0  0  0  0  0  0
   21.6620   27.1320    7.9920 C   0  0  0  0  0  0  0  0  0  0  0  0
   22.0170   27.7400    5.5360 C   0  0  0  0  0  0  0  0  0  0  0  0
   19.5610   28.2720    9.5230 O   0  0  0  0  0  0  0  0  0  0  0  0
   20.0110   27.0470    2.7650 N   0  0  0  0  0  0  0  0  0  0  0  0
   18.0210   26.4170    8.8330 O   0  0  0  0  0  0  0  0  0  0  0  0
   18.2390   28.5400    7.2420 C   0  0  0  0  0  0  0  0  0  0  0  0
   22.2440   28.1360    6.9940 C   0  0  0  0  0  0  0  0  0  0  0  0
   16.8250   29.0450    7.5580 C   0  0  1  0  0  0  0  0  0  0  0  0
   16.8190   29.8160    8.8850 C   0  0  0  0  0  0  0  0  0  0  0  0
   16.2330   29.9220    6.4460 C   0  0  0  0  0  0  0  0  0  0  0  0
   17.5640   31.0800    8.8140 N   0  0  0  0  0  0  0  0  0  0  0  0
   16.4030   31.3400    6.7430 N   0  0  0  0  0  0  0  0  0  0  0  0
   17.5770   31.6270    7.4900 C   0  0  1  0  0  0  0  0  0  0  0  0
   17.5990   33.0360    7.6910 N   0  0  0  0  0  0  0  0  0  0  0  0
  2  1  1  6
  2  3  1  0
  2  4  1  0
  4  5  1  6
  3  6  1  0
  3  7  1  0
  4  8  1  0
  6  9  2  0
  5 10  3  0
  6 11  2  0
  6 12  1  0
  7 13  1  0
  8 13  1  0
 14 12  1  6
 14 15  1  0
 14 16  1  0
 15 17  1  0
 16 18  1  0
 17 19  1  0
 18 19  1  0
 19 20  1  1
M  END
