x0727_0_A-x0962_0_A
     RDKit          3D

 22 23  0  0  0  0  0  0  0  0999 V2000
    0.1260   11.4790   -5.6040 N   0  0  0  0  0  0  0  0  0  0  0  0
    0.8700   12.3750   -4.7130 C   0  0  1  0  0  0  0  0  0  0  0  0
    0.4300   13.8350   -4.9130 C   0  0  0  0  0  0  0  0  0  0  0  0
    0.6860   11.1040   -6.7870 C   0  0  0  0  0  0  0  0  0  0  0  0
    1.6520   11.7110   -7.1850 O   0  0  0  0  0  0  0  0  0  0  0  0
    0.7280   11.9220   -3.2430 C   0  0  0  0  0  0  0  0  0  0  0  0
    0.0990    9.9260   -7.5440 C   0  0  0  0  0  0  0  0  0  0  0  0
    0.0910   10.9380   -2.8890 O   0  0  0  0  0  0  0  0  0  0  0  0
    1.3770   12.7080   -2.3530 O   0  0  0  0  0  0  0  0  0  0  0  0
   -0.2080   14.5440   -3.7040 C   0  0  0  0  0  0  0  0  0  0  0  0
   -1.1960   10.2740   -8.2840 C   0  0  0  0  0  0  0  0  0  0  0  0
   -0.2270    8.7330   -6.6290 C   0  0  0  0  0  0  0  0  0  0  0  0
   -1.6910   14.8840   -3.8860 C   0  0  0  0  0  0  0  0  0  0  0  0
   -2.1290    9.0930   -8.0480 C   0  0  0  0  0  0  0  0  0  0  0  0
   -1.7360    8.5710   -6.6770 C   0  0  0  0  0  0  0  0  0  0  0  0
   -2.4370   14.9000   -2.6160 C   0  0  0  0  0  0  0  0  0  0  0  0
   -3.0750   14.9500   -1.6030 C   0  0  0  0  0  0  0  0  0  0  0  0
   -3.8730   15.0500   -0.4440 C   0  0  0  0  0  0  0  0  0  0  0  0
   -3.4300   15.3770    0.8030 N   0  0  0  0  0  0  0  0  0  0  0  0
   -5.2250   14.8540   -0.3090 C   0  0  0  0  0  0  0  0  0  0  0  0
   -4.5100   15.3680    1.6330 C   0  0  0  0  0  0  0  0  0  0  0  0
   -5.6120   15.0500    0.9870 N   0  0  0  0  0  0  0  0  0  0  0  0
  1  2  1  0
  2  3  1  1
  1  4  1  0
  4  5  2  0
  2  6  1  0
  4  7  1  0
  6  8  2  0
  6  9  1  0
  3 10  1  0
  7 11  1  0
  7 12  1  0
 10 13  1  0
 11 14  1  0
 12 15  1  0
 14 15  1  0
 13 16  1  0
 16 17  3  0
 17 18  1  0
 18 19  1  0
 18 20  2  0
 19 21  1  0
 20 22  1  0
 21 22  2  0
M  END
