x0724_0_A-x0864_0_A
     RDKit          3D

 29 31  0  0  0  0  0  0  0  0999 V2000
   -8.2620   13.7800    4.4330 N   0  0  0  0  0  0  0  0  0  0  0  0
   -8.7200   13.9610    5.8040 C   0  0  0  0  0  0  0  0  0  0  0  0
   -8.4570   14.9950    3.6550 C   0  0  0  0  0  0  0  0  0  0  0  0
   -7.7530   14.8490    2.3530 C   0  0  0  0  0  0  0  0  0  0  0  0
   -6.3940   14.8560    2.1030 C   0  0  0  0  0  0  0  0  0  0  0  0
   -8.3170   14.6770    1.0740 C   0  0  0  0  0  0  0  0  0  0  0  0
   -7.4040   14.5920    0.1040 N   0  0  0  0  0  0  0  0  0  0  0  0
   -6.2080   14.7080    0.7480 N   0  0  0  0  0  0  0  0  0  0  0  0
   -4.9750   14.6780    0.0390 C   0  0  0  0  0  0  0  0  0  0  0  0
   -3.7690   14.7620    0.7550 C   0  0  0  0  0  0  0  0  0  0  0  0
   -4.9430   14.5700   -1.3550 C   0  0  0  0  0  0  0  0  0  0  0  0
   -2.5470   14.7310    0.0770 C   0  0  0  0  0  0  0  0  0  0  0  0
   -3.7200   14.5400   -2.0270 C   0  0  0  0  0  0  0  0  0  0  0  0
   -2.5110   14.6160   -1.3180 C   0  0  0  0  0  0  0  0  0  0  0  0
   -1.1960   14.5690   -2.0690 C   0  0  0  0  0  0  0  0  0  0  0  0
    0.0630   14.6980   -1.1940 C   0  0  0  0  0  0  0  0  0  0  0  0
    1.3060   14.0900   -1.8430 C   0  0  0  0  0  0  0  0  0  0  0  0
    1.0610   12.6610   -1.9430 N   0  0  0  0  0  0  0  0  0  0  0  0
    0.7060   12.1080   -3.0390 C   0  0  0  0  0  0  0  0  0  0  0  0
    0.4870   12.7380   -4.4130 C   0  0  0  0  0  0  0  0  0  0  0  0
    0.4910   10.7740   -2.9730 O   0  0  0  0  0  0  0  0  0  0  0  0
   -0.2120   11.8180   -5.3120 N   0  0  0  0  0  0  0  0  0  0  0  0
   -1.3850   11.2100   -4.8990 C   0  0  0  0  0  0  0  0  0  0  0  0
    0.4850   11.3820   -6.4290 C   0  0  0  0  0  0  0  0  0  0  0  0
    1.5420   11.8910   -6.7880 O   0  0  0  0  0  0  0  0  0  0  0  0
   -1.8960   10.1740   -5.5760 C   0  0  0  0  0  0  0  0  0  0  0  0
   -0.0880   10.2440   -7.1800 C   0  0  0  0  0  0  0  0  0  0  0  0
   -1.2270    9.6780   -6.7540 C   0  0  0  0  0  0  0  0  0  0  0  0
   -2.0000    8.2340   -7.6490 Br  0  0  0  0  0  0  0  0  0  0  0  0
  1  2  1  0
  1  3  1  0
  3  4  1  0
  4  5  2  0
  4  6  1  0
  6  7  2  0
  5  8  1  0
  7  8  1  0
  8  9  1  0
  9 10  2  0
  9 11  1  0
 10 12  1  0
 11 13  2  0
 12 14  2  0
 13 14  1  0
 14 15  1  0
 15 16  1  0
 16 17  1  0
 17 18  1  0
 18 19  2  3
 19 20  1  0
 19 21  1  0
 20 22  1  0
 22 23  1  0
 22 24  1  0
 24 25  2  0
 23 26  2  0
 24 27  1  0
 26 28  1  0
 27 28  2  0
 28 29  1  0
M  END
