x0727_0_A_α-x0587_0_A_α
     RDKit          3D

 29 30  0  0  0  0  0  0  0  0999 V2000
    0.2260   11.4080   -5.5560 N   0  0  0  0  0  0  0  0  0  0  0  0
    0.9380   12.3320   -4.6750 C   0  0  1  0  0  0  0  0  0  0  0  0
    0.5140   13.7670   -4.9450 C   0  0  0  0  0  0  0  0  0  0  0  0
    0.7490   11.0860   -6.7720 C   0  0  0  0  0  0  0  0  0  0  0  0
    1.6790   11.7030   -7.2100 O   0  0  0  0  0  0  0  0  0  0  0  0
    0.6770   11.9360   -3.2160 C   0  0  0  0  0  0  0  0  0  0  0  0
    0.1490    9.9100   -7.5240 C   0  0  0  0  0  0  0  0  0  0  0  0
    0.2350   10.8450   -2.8570 O   0  0  0  0  0  0  0  0  0  0  0  0
    1.0090   12.9550   -2.3730 O   0  0  0  0  0  0  0  0  0  0  0  0
   -1.1480   10.2840   -8.2470 C   0  0  0  0  0  0  0  0  0  0  0  0
   -0.1860    8.7030   -6.6250 C   0  0  0  0  0  0  0  0  0  0  0  0
    0.1250   13.1130   -1.2530 C   0  0  0  0  0  0  0  0  0  0  0  0
   -2.1030    9.1210   -7.9990 C   0  0  0  0  0  0  0  0  0  0  0  0
   -1.7000    8.5900   -6.6350 C   0  0  0  0  0  0  0  0  0  0  0  0
   -0.8570   14.2540   -1.4830 C   0  0  0  0  0  0  0  0  0  0  0  0
   -2.1930   14.0020   -0.7770 C   0  0  0  0  0  0  0  0  0  0  0  0
   -3.1200   15.0430   -1.0920 O   0  0  0  0  0  0  0  0  0  0  0  0
   -4.4380   14.5930   -1.4530 C   0  0  0  0  0  0  0  0  0  0  0  0
   -4.2950   13.3190   -1.9250 F   0  0  0  0  0  0  0  0  0  0  0  0
   -4.8250   15.3200   -2.5410 F   0  0  0  0  0  0  0  0  0  0  0  0
   -5.4670   14.6650   -0.3040 C   0  0  0  0  0  0  0  0  0  0  0  0
   -6.7940   14.5680   -0.5920 N   0  0  0  0  0  0  0  0  0  0  0  0
   -4.9930   14.8180    0.9560 N   0  0  0  0  0  0  0  0  0  0  0  0
   -7.6630   14.6470    0.4430 C   0  0  0  0  0  0  0  0  0  0  0  0
   -5.9080   14.8940    1.9480 C   0  0  0  0  0  0  0  0  0  0  0  0
   -7.2690   14.8110    1.7540 C   0  0  0  0  0  0  0  0  0  0  0  0
   -8.2590   14.9130    2.8350 C   0  0  0  0  0  0  0  0  0  0  0  0
   -7.7990   14.8460    4.1140 N   0  0  0  0  0  0  0  0  0  0  0  0
   -9.4520   15.0710    2.5940 O   0  0  0  0  0  0  0  0  0  0  0  0
  1  2  1  0
  2  3  1  1
  1  4  1  0
  4  5  2  0
  2  6  1  0
  4  7  1  0
  6  8  2  0
  6  9  1  0
  7 10  1  0
  7 11  1  0
  9 12  1  0
 10 13  1  0
 11 14  1  0
 13 14  1  0
 12 15  1  0
 15 16  1  0
 16 17  1  0
 17 18  1  0
 18 19  1  0
 18 20  1  0
 18 21  1  0
 21 22  2  0
 21 23  1  0
 22 24  1  0
 23 25  2  0
 24 26  2  0
 25 26  1  0
 26 27  1  0
 27 28  1  0
 27 29  2  0
M  END
