x0724_0_A-x0587_0_A
     RDKit          3D

 19 20  0  0  0  0  0  0  0  0999 V2000
   -8.9670   14.4310    3.9240 C   0  0  0  0  0  0  0  0  0  0  0  0
   -8.4990   13.9770    5.2890 C   0  0  0  0  0  0  0  0  0  0  0  0
   -7.9460   15.1190    3.0530 C   0  0  0  0  0  0  0  0  0  0  0  0
  -10.1250   14.2610    3.5480 O   0  0  0  0  0  0  0  0  0  0  0  0
   -7.1550   14.2670    2.0570 C   0  0  2  0  0  0  0  0  0  0  0  0
   -5.6810   14.6090    1.9530 C   0  0  0  0  0  0  0  0  0  0  0  0
   -7.6370   14.1750    0.5980 C   0  0  0  0  0  0  0  0  0  0  0  0
   -6.6260   14.8900   -0.2280 N   0  0  0  0  0  0  0  0  0  0  0  0
   -5.5450   15.2320    0.6400 N   0  0  0  0  0  0  0  0  0  0  0  0
   -6.0570   14.0960   -1.3460 C   0  0  0  0  0  0  0  0  0  0  0  0
   -4.2760   15.0430    0.0890 C   0  0  0  0  0  0  0  0  0  0  0  0
   -4.7410   13.8450   -1.1060 F   0  0  0  0  0  0  0  0  0  0  0  0
   -6.6210   12.8840   -1.5050 F   0  0  0  0  0  0  0  0  0  0  0  0
   -6.1090   14.7500   -2.5320 F   0  0  0  0  0  0  0  0  0  0  0  0
   -3.1750   14.6420    0.8510 C   0  0  0  0  0  0  0  0  0  0  0  0
   -4.0920   15.2500   -1.2880 C   0  0  0  0  0  0  0  0  0  0  0  0
   -1.9280   14.4470    0.2540 C   0  0  0  0  0  0  0  0  0  0  0  0
   -2.8550   15.0510   -1.8910 C   0  0  0  0  0  0  0  0  0  0  0  0
   -1.7730   14.6480   -1.1170 C   0  0  0  0  0  0  0  0  0  0  0  0
  1  2  1  0
  1  3  1  0
  1  4  2  0
  5  3  1  1
  5  6  1  0
  5  7  1  0
  7  8  1  0
  6  9  1  0
  8  9  1  0
  8 10  1  0
  9 11  1  0
 10 12  1  0
 10 13  1  0
 10 14  1  0
 11 15  2  0
 11 16  1  0
 15 17  1  0
 16 18  2  0
 17 19  2  0
 18 19  1  0
M  END
