x0722_0_A-x0104_0_A
     RDKit          3D

 27 30  0  0  0  0  0  0  0  0999 V2000
   -5.5910   14.5190    2.3310 C   0  0  2  0  0  0  0  0  0  0  0  0
   -6.9000   15.0900    3.1420 C   0  0  0  0  0  0  0  0  0  0  0  0
   -7.1030   15.0910    4.5290 N   0  0  0  0  0  0  0  0  0  0  0  0
   -4.1790   15.1670    1.8040 C   0  0  1  0  0  0  0  0  0  0  0  0
   -6.4740   14.3320    1.1550 C   0  0  1  0  0  0  0  0  0  0  0  0
   -7.8590   15.4570    2.4470 O   0  0  0  0  0  0  0  0  0  0  0  0
   -2.9020   14.5660    2.3030 N   0  0  0  0  0  0  0  0  0  0  0  0
   -3.8000   14.8780    0.2920 C   0  0  1  0  0  0  0  0  0  0  0  0
   -5.9090   14.1350   -0.2080 C   0  0  1  0  0  0  0  0  0  0  0  0
   -7.5050   13.3020    1.3090 C   0  0  0  0  0  0  0  0  0  0  0  0
   -2.3890   14.3200    0.2060 C   0  0  2  0  0  0  0  0  0  0  0  0
   -1.8160   14.9250    1.3620 N   0  0  0  0  0  0  0  0  0  0  0  0
   -8.3630   15.1160    5.1950 C   0  0  0  0  0  0  0  0  0  0  0  0
   -4.5350   13.6760   -0.2050 C   0  0  0  0  0  0  0  0  0  0  0  0
   -7.7230   12.7000    0.1570 C   0  0  0  0  0  0  0  0  0  0  0  0
   -6.8430   13.2200   -0.9250 C   0  0  1  0  0  0  0  0  0  0  0  0
   -0.5190   14.2560    1.5910 C   0  0  0  0  0  0  0  0  0  0  0  0
   -1.5240   14.5210   -1.0670 C   0  0  0  0  0  0  0  0  0  0  0  0
   -8.7020   15.2090    6.5340 C   0  0  0  0  0  0  0  0  0  0  0  0
   -9.7770   15.0110    4.2250 S   0  0  0  0  0  0  0  0  0  0  0  0
   -7.3920   14.2480   -1.8340 C   0  0  0  0  0  0  0  0  0  0  0  0
  -10.8290   15.0880    5.5850 C   0  0  0  0  0  0  0  0  0  0  0  0
  -10.1220   15.1940    6.7620 C   0  0  0  0  0  0  0  0  0  0  0  0
   -8.3060   15.0150   -1.5990 O   0  0  0  0  0  0  0  0  0  0  0  0
   -6.6970   14.2740   -2.9800 N   0  0  0  0  0  0  0  0  0  0  0  0
   -2.2330   14.5720   -2.4320 C   0  0  0  0  0  0  0  0  0  0  0  0
   -3.5640   15.2990   -2.4760 C   0  0  0  0  0  0  0  0  0  0  0  0
  1  2  1  1
  2  3  1  0
  1  4  1  0
  1  5  1  0
  2  6  2  0
  4  7  1  1
  4  8  1  0
  5  9  1  0
  5 10  1  1
  8 11  1  0
  7 12  1  0
 11 12  1  0
  3 13  1  0
  8 14  1  1
  9 14  1  1
 10 15  2  0
  9 16  1  0
 15 16  1  0
 12 17  1  0
 11 18  1  6
 13 19  2  0
 13 20  1  0
 16 21  1  6
 20 22  1  0
 19 23  1  0
 22 23  2  0
 21 24  2  0
 21 25  1  0
 18 26  1  0
 26 27  1  0
M  END
