x0724_0_A-x0722_0_A
     RDKit          3D

 21 22  0  0  0  0  0  0  0  0999 V2000
   -8.4000   13.6360    4.5170 N   0  0  0  0  0  0  0  0  0  0  0  0
   -8.6780   13.7890    5.9400 C   0  0  0  0  0  0  0  0  0  0  0  0
   -8.3500   14.9270    3.8450 C   0  0  0  0  0  0  0  0  0  0  0  0
   -7.6300   14.8540    2.5500 C   0  0  0  0  0  0  0  0  0  0  0  0
   -6.2730   14.9370    2.3130 C   0  0  0  0  0  0  0  0  0  0  0  0
   -8.1780   14.6960    1.2660 C   0  0  0  0  0  0  0  0  0  0  0  0
   -7.2530   14.6960    0.3090 N   0  0  0  0  0  0  0  0  0  0  0  0
   -6.0610   14.8520    0.9510 N   0  0  0  0  0  0  0  0  0  0  0  0
   -4.8010   14.9300    0.2510 C   0  0  0  0  0  0  0  0  0  0  0  0
   -3.6090   14.8540    0.9750 C   0  0  0  0  0  0  0  0  0  0  0  0
   -4.7430   15.0900   -1.1380 C   0  0  0  0  0  0  0  0  0  0  0  0
   -3.6960   14.6900    2.4590 C   0  0  0  0  0  0  0  0  0  0  0  0
   -5.9390   15.1860   -1.9810 C   0  0  0  0  0  0  0  0  0  0  0  0
   -2.3430   14.9310    0.3030 C   0  0  0  0  0  0  0  0  0  0  0  0
   -3.5210   15.1660   -1.7950 C   0  0  0  0  0  0  0  0  0  0  0  0
   -1.0080   14.8440    1.0280 C   0  0  0  0  0  0  0  0  0  0  0  0
   -6.9190   14.2010   -1.4370 C   0  0  0  0  0  0  0  0  0  0  0  0
   -2.3260   15.0880   -1.0960 C   0  0  0  0  0  0  0  0  0  0  0  0
   -1.0460   15.1720   -1.8660 C   0  0  0  0  0  0  0  0  0  0  0  0
   -8.1180   14.4200   -1.3950 O   0  0  0  0  0  0  0  0  0  0  0  0
   -6.3670   13.0360   -0.9700 N   0  0  0  0  0  0  0  0  0  0  0  0
  1  2  1  0
  1  3  1  0
  3  4  1  0
  4  5  2  0
  4  6  1  0
  6  7  2  0
  5  8  1  0
  7  8  1  0
  8  9  1  0
  9 10  2  0
  9 11  1  0
 10 12  1  0
 11 13  1  0
 10 14  1  0
 11 15  2  0
 14 16  1  0
 13 17  1  0
 14 18  2  0
 15 18  1  0
 18 19  1  0
 17 20  2  0
 17 21  1  0
M  END
