x0724_0_A_α-x0587_0_A_α
     RDKit          3D

 19 20  0  0  0  0  0  0  0  0999 V2000
   -8.9860   14.4360    3.9200 C   0  0  0  0  0  0  0  0  0  0  0  0
   -8.5240   13.9680    5.2810 C   0  0  0  0  0  0  0  0  0  0  0  0
   -7.9530   15.1200    3.0520 C   0  0  0  0  0  0  0  0  0  0  0  0
  -10.1420   14.2830    3.5410 O   0  0  0  0  0  0  0  0  0  0  0  0
   -7.1610   14.2650    2.0600 C   0  0  2  0  0  0  0  0  0  0  0  0
   -5.6850   14.6130    1.9600 C   0  0  0  0  0  0  0  0  0  0  0  0
   -7.6350   14.1800    0.5950 C   0  0  0  0  0  0  0  0  0  0  0  0
   -6.6230   14.8990   -0.2230 N   0  0  0  0  0  0  0  0  0  0  0  0
   -5.5430   15.2350    0.6500 N   0  0  0  0  0  0  0  0  0  0  0  0
   -6.0480   14.1100   -1.3400 C   0  0  0  0  0  0  0  0  0  0  0  0
   -4.2730   15.0450    0.1010 C   0  0  0  0  0  0  0  0  0  0  0  0
   -4.7300   13.8630   -1.1060 F   0  0  0  0  0  0  0  0  0  0  0  0
   -6.6040   12.8920   -1.4970 F   0  0  0  0  0  0  0  0  0  0  0  0
   -6.1080   14.7590   -2.5280 F   0  0  0  0  0  0  0  0  0  0  0  0
   -3.1730   14.6470    0.8600 C   0  0  0  0  0  0  0  0  0  0  0  0
   -4.0930   15.2530   -1.2770 C   0  0  0  0  0  0  0  0  0  0  0  0
   -1.9270   14.4520    0.2580 C   0  0  0  0  0  0  0  0  0  0  0  0
   -2.8580   15.0550   -1.8820 C   0  0  0  0  0  0  0  0  0  0  0  0
   -1.7740   14.6530   -1.1130 C   0  0  0  0  0  0  0  0  0  0  0  0
  1  2  1  0
  1  3  1  0
  1  4  2  0
  5  3  1  1
  5  6  1  0
  5  7  1  0
  7  8  1  0
  6  9  1  0
  8  9  1  0
  8 10  1  0
  9 11  1  0
 10 12  1  0
 10 13  1  0
 10 14  1  0
 11 15  2  0
 11 16  1  0
 15 17  1  0
 16 18  2  0
 17 19  2  0
 18 19  1  0
M  END
