x0727_0_A-x0438_0_A
     RDKit          3D

 30 32  0  0  0  0  0  0  0  0999 V2000
    0.1500   11.4330   -5.4840 N   0  0  0  0  0  0  0  0  0  0  0  0
    0.8890   12.3630   -4.6170 C   0  0  1  0  0  0  0  0  0  0  0  0
    0.5030   13.8000   -4.9330 C   0  0  0  0  0  0  0  0  0  0  0  0
    0.7210   11.1350   -6.7070 C   0  0  0  0  0  0  0  0  0  0  0  0
    1.6600   11.7730   -7.1220 O   0  0  0  0  0  0  0  0  0  0  0  0
    0.5890   12.0340   -3.1410 C   0  0  0  0  0  0  0  0  0  0  0  0
    0.1210    9.9550   -7.4720 C   0  0  0  0  0  0  0  0  0  0  0  0
    0.1610   10.9430   -2.7570 O   0  0  0  0  0  0  0  0  0  0  0  0
    0.8660   13.1020   -2.3240 O   0  0  0  0  0  0  0  0  0  0  0  0
   -1.1750   10.3140   -8.2120 C   0  0  0  0  0  0  0  0  0  0  0  0
   -0.2280    8.7710   -6.5470 C   0  0  0  0  0  0  0  0  0  0  0  0
   -0.0540   13.3300   -1.2270 C   0  0  0  0  0  0  0  0  0  0  0  0
   -2.0990    9.1240   -8.0050 C   0  0  0  0  0  0  0  0  0  0  0  0
   -1.7370    8.6110   -6.6250 C   0  0  0  0  0  0  0  0  0  0  0  0
   -0.6400   14.7480   -1.2950 C   0  0  0  0  0  0  0  0  0  0  0  0
   -1.4270   15.1650   -0.0340 C   0  0  0  0  0  0  0  0  0  0  0  0
   -2.9420   15.1180   -0.1930 C   0  0  0  0  0  0  0  0  0  0  0  0
   -3.5550   15.5010   -1.4030 C   0  0  0  0  0  0  0  0  0  0  0  0
   -3.7560   14.6780    0.8790 C   0  0  0  0  0  0  0  0  0  0  0  0
   -5.1520   14.6240    0.7050 C   0  0  0  0  0  0  0  0  0  0  0  0
   -4.9460   15.4520   -1.5800 C   0  0  0  0  0  0  0  0  0  0  0  0
   -6.1390   14.2290    1.5750 N   0  0  0  0  0  0  0  0  0  0  0  0
   -5.7110   15.0060   -0.5060 C   0  0  0  0  0  0  0  0  0  0  0  0
   -7.0660   14.8240   -0.3350 N   0  0  0  0  0  0  0  0  0  0  0  0
   -7.2810   14.3490    0.9350 C   0  0  0  0  0  0  0  0  0  0  0  0
   -8.6290   14.0120    1.4780 C   0  0  0  0  0  0  0  0  0  0  0  0
   -9.3010   15.2850    2.5350 S   0  0  0  0  0  0  0  0  0  0  0  0
   -8.1200   15.5260    3.8540 C   0  0  0  0  0  0  0  0  0  0  0  0
  -10.5300   14.7630    3.1190 O   0  0  0  0  0  0  0  0  0  0  0  0
   -9.3820   16.4980    1.7490 O   0  0  0  0  0  0  0  0  0  0  0  0
  1  2  1  0
  2  3  1  6
  1  4  1  0
  4  5  2  0
  2  6  1  0
  4  7  1  0
  6  8  2  0
  6  9  1  0
  7 10  1  0
  7 11  1  0
  9 12  1  0
 10 13  1  0
 11 14  1  0
 13 14  1  0
 12 15  1  0
 15 16  1  0
 16 17  1  0
 17 18  2  0
 17 19  1  0
 19 20  2  0
 18 21  1  0
 20 22  1  0
 20 23  1  0
 21 23  2  0
 23 24  1  0
 22 25  2  0
 24 25  1  0
 25 26  1  0
 27 26  1  0
 27 28  1  0
 27 29  2  0
 27 30  2  0
M  END
