x0722_0_A-x0905_0_A
     RDKit          3D

 18 19  0  0  0  0  0  0  0  0999 V2000
   -5.1720   14.7690    2.1400 C   0  0  0  0  0  0  0  0  0  0  0  0
   -3.9240   14.4630    1.3960 C   0  0  0  0  0  0  0  0  0  0  0  0
   -2.7140   14.7600    1.9170 N   0  0  0  0  0  0  0  0  0  0  0  0
   -3.8130   13.8560    0.1200 C   0  0  0  0  0  0  0  0  0  0  0  0
   -4.9240   13.3490   -0.7780 C   0  0  0  0  0  0  0  0  0  0  0  0
   -2.4350   13.8290   -0.1200 C   0  0  0  0  0  0  0  0  0  0  0  0
   -1.8350   14.3680    0.9840 N   0  0  0  0  0  0  0  0  0  0  0  0
   -0.4120   14.5310    1.1960 C   0  0  0  0  0  0  0  0  0  0  0  0
   -1.6580   13.3390   -1.2830 C   0  0  0  0  0  0  0  0  0  0  0  0
   -6.3480   13.9650   -0.6590 C   0  0  0  0  0  0  0  0  0  0  0  0
   -6.5390   15.2220   -0.7150 N   0  0  0  0  0  0  0  0  0  0  0  0
   -7.4090   13.1310   -0.5030 N   0  0  0  0  0  0  0  0  0  0  0  0
   -5.2400   15.5380   -0.7940 C   0  0  0  0  0  0  0  0  0  0  0  0
   -4.7180   15.8950    0.3710 N   0  0  0  0  0  0  0  0  0  0  0  0
   -4.5460   15.4350   -1.9770 C   0  0  0  0  0  0  0  0  0  0  0  0
   -3.4170   16.1450    0.3790 C   0  0  0  0  0  0  0  0  0  0  0  0
   -3.1930   15.7030   -1.9420 C   0  0  0  0  0  0  0  0  0  0  0  0
   -2.6090   16.0590   -0.7380 C   0  0  0  0  0  0  0  0  0  0  0  0
  1  2  1  0
  2  3  2  0
  2  4  1  0
  4  5  1  0
  4  6  2  0
  3  7  1  0
  6  7  1  0
  7  8  1  0
  6  9  1  0
  5 10  1  0
 10 11  2  3
 10 12  1  0
 11 13  1  0
 13 14  2  0
 13 15  1  0
 14 16  1  0
 15 17  2  0
 16 18  2  0
 17 18  1  0
M  END
