x0724_0_A-x0805_0_A
     RDKit          3D

 30 33  0  0  0  0  0  0  0  0999 V2000
   -8.2810   13.7660    4.9070 N   0  0  0  0  0  0  0  0  0  0  0  0
   -8.6400   13.7490    6.3100 C   0  0  0  0  0  0  0  0  0  0  0  0
   -8.3210   15.1170    4.3940 C   0  0  0  0  0  0  0  0  0  0  0  0
   -7.8840   15.0010    3.0060 C   0  0  0  0  0  0  0  0  0  0  0  0
   -6.5930   15.0020    2.5140 C   0  0  0  0  0  0  0  0  0  0  0  0
   -8.6970   14.8620    1.8800 C   0  0  0  0  0  0  0  0  0  0  0  0
   -8.0060   14.7860    0.7770 N   0  0  0  0  0  0  0  0  0  0  0  0
   -6.7090   14.8820    1.1780 N   0  0  0  0  0  0  0  0  0  0  0  0
   -5.8430   14.8330    0.1210 C   0  0  0  0  0  0  0  0  0  0  0  0
   -4.5780   14.2930    0.0270 C   0  0  0  0  0  0  0  0  0  0  0  0
   -6.4830   15.4210   -0.9630 C   0  0  0  0  0  0  0  0  0  0  0  0
   -4.1220   14.3580   -1.2840 C   0  0  0  0  0  0  0  0  0  0  0  0
   -5.9410   15.4880   -2.1740 C   0  0  0  0  0  0  0  0  0  0  0  0
   -3.8090   13.6560    1.1370 C   0  0  0  0  0  0  0  0  0  0  0  0
   -4.7610   14.9440   -2.3310 C   0  0  0  0  0  0  0  0  0  0  0  0
   -3.0730   13.8570   -1.9440 C   0  0  0  0  0  0  0  0  0  0  0  0
   -3.4420   12.5420   -2.1200 C   0  0  0  0  0  0  0  0  0  0  0  0
   -1.9370   14.3950   -2.4310 C   0  0  0  0  0  0  0  0  0  0  0  0
   -2.6810   11.6920   -2.8200 C   0  0  0  0  0  0  0  0  0  0  0  0
   -1.1600   13.5230   -3.1650 C   0  0  0  0  0  0  0  0  0  0  0  0
   -1.5340   12.1890   -3.3520 C   0  0  0  0  0  0  0  0  0  0  0  0
    0.0840   13.9710   -3.7840 C   0  0  2  0  0  0  0  0  0  0  0  0
    1.2180   13.3270   -3.0640 C   0  0  1  0  0  0  0  0  0  0  0  0
    0.3840   15.4290   -3.9230 C   0  0  0  0  0  0  0  0  0  0  0  0
    0.7410   12.1590   -2.2650 C   0  0  0  0  0  0  0  0  0  0  0  0
    2.2640   13.0730   -4.0800 C   0  0  0  0  0  0  0  0  0  0  0  0
    1.7850   15.4610   -4.4610 C   0  0  0  0  0  0  0  0  0  0  0  0
    0.6410   10.9720   -2.9020 O   0  0  0  0  0  0  0  0  0  0  0  0
    0.4370   12.3110   -1.1060 O   0  0  0  0  0  0  0  0  0  0  0  0
    2.2130   14.1670   -4.9720 O   0  0  0  0  0  0  0  0  0  0  0  0
  1  2  1  0
  1  3  1  0
  3  4  1  0
  4  5  2  0
  4  6  1  0
  6  7  2  0
  5  8  1  0
  7  8  1  0
  8  9  1  0
  9 10  2  0
  9 11  1  0
 10 12  1  0
 11 13  2  0
 10 14  1  0
 12 15  2  0
 13 15  1  0
 12 16  1  0
 16 17  2  0
 16 18  1  0
 17 19  1  0
 18 20  2  0
 19 21  2  0
 20 21  1  0
 22 20  1  1
 22 23  1  0
 22 24  1  0
 23 25  1  6
 23 26  1  0
 24 27  1  0
 25 28  1  0
 25 29  2  0
 26 30  1  0
 27 30  1  0
M  END
