x0722_0_A_α-EU0342_0_A_α
     RDKit          3D

 19 20  0  0  0  0  0  0  0  0999 V2000
   -4.4110   16.0050    2.6280 C   0  0  0  0  0  0  0  0  0  0  0  0
   -3.6410   15.2960    1.5650 C   0  0  1  0  0  0  0  0  0  0  0  0
   -2.7100   14.2960    2.1130 N   0  0  0  0  0  0  0  0  0  0  0  0
   -4.5930   14.7840    0.5830 C   0  0  0  0  0  0  0  0  0  0  0  0
   -5.3030   15.5280   -0.2480 C   0  0  0  0  0  0  0  0  0  0  0  0
   -1.7420   13.9060    1.1190 N   0  0  0  0  0  0  0  0  0  0  0  0
   -1.8620   14.8890    0.1260 C   0  0  0  0  0  0  0  0  0  0  0  0
   -6.2650   14.8600   -1.1050 C   0  0  1  0  0  0  0  0  0  0  0  0
   -0.3730   14.0700    1.5650 C   0  0  0  0  0  0  0  0  0  0  0  0
   -5.6350   13.7230   -1.5750 O   0  0  0  0  0  0  0  0  0  0  0  0
   -7.4050   14.4210   -0.3430 N   0  0  0  0  0  0  0  0  0  0  0  0
   -2.1270   14.4050   -1.2750 C   0  0  2  0  0  0  0  0  0  0  0  0
   -0.8270   14.4810   -2.0760 C   0  0  0  0  0  0  0  0  0  0  0  0
   -3.3990   14.9140   -2.0450 C   0  0  2  0  0  0  0  0  0  0  0  0
   -4.5320   13.8970   -2.4560 C   0  0  2  0  0  0  0  0  0  0  0  0
    0.4070   14.7140   -1.1810 C   0  0  0  0  0  0  0  0  0  0  0  0
   -3.0060   15.4180   -3.4270 C   0  0  0  0  0  0  0  0  0  0  0  0
   -5.0580   14.3850   -3.8110 C   0  0  0  0  0  0  0  0  0  0  0  0
   -3.8990   15.1280   -4.3680 C   0  0  0  0  0  0  0  0  0  0  0  0
  2  1  1  1
  2  3  1  0
  2  4  1  0
  4  5  2  0
  3  6  1  0
  6  7  1  0
  5  8  1  0
  6  9  1  0
  8 10  1  0
  8 11  1  1
  7 12  1  0
 12 13  1  6
 12 14  1  0
 10 15  1  0
 14 15  1  0
 13 16  1  0
 14 17  1  6
 15 18  1  6
 17 19  2  0
 18 19  1  0
M  END
