x0727_0_A-x0910_0_A
     RDKit          3D

 22 23  0  0  0  0  0  0  0  0999 V2000
    0.2070   11.6180   -5.5010 N   0  0  0  0  0  0  0  0  0  0  0  0
    1.1180   12.4400   -4.7390 C   0  0  1  0  0  0  0  0  0  0  0  0
    0.7960   13.8870   -5.0660 C   0  0  0  0  0  0  0  0  0  0  0  0
    0.5070   11.1060   -6.7280 C   0  0  0  0  0  0  0  0  0  0  0  0
    1.4780   11.4050   -7.3920 O   0  0  0  0  0  0  0  0  0  0  0  0
    0.8570   12.0160   -3.2750 C   0  0  0  0  0  0  0  0  0  0  0  0
   -0.5670   10.1080   -7.0790 C   0  0  0  0  0  0  0  0  0  0  0  0
    0.2390   10.9920   -2.9790 O   0  0  0  0  0  0  0  0  0  0  0  0
    1.3760   12.8600   -2.3370 O   0  0  0  0  0  0  0  0  0  0  0  0
   -0.9730   10.0110   -8.5300 C   0  0  0  0  0  0  0  0  0  0  0  0
   -0.2380    8.6600   -6.7630 C   0  0  0  0  0  0  0  0  0  0  0  0
    1.5630   14.2620   -2.6050 C   0  0  0  0  0  0  0  0  0  0  0  0
   -1.9810    8.8650   -8.4370 C   0  0  0  0  0  0  0  0  0  0  0  0
   -1.4970    7.9840   -7.2730 C   0  0  0  0  0  0  0  0  0  0  0  0
    0.2410   15.0360   -2.7920 C   0  0  0  0  0  0  0  0  0  0  0  0
   -1.0370   14.1750   -2.9090 C   0  0  0  0  0  0  0  0  0  0  0  0
   -2.0160   14.5650   -1.8940 N   0  0  0  0  0  0  0  0  0  0  0  0
   -1.5040   14.6580   -0.6600 C   0  0  0  0  0  0  0  0  0  0  0  0
   -2.2730   14.7110    0.4670 N   0  0  0  0  0  0  0  0  0  0  0  0
   -0.2470   14.7150   -0.3220 N   0  0  0  0  0  0  0  0  0  0  0  0
   -1.5050   14.8010    1.5600 N   0  0  0  0  0  0  0  0  0  0  0  0
   -0.2890   14.8000    1.0280 C   0  0  0  0  0  0  0  0  0  0  0  0
  1  2  1  0
  2  3  1  1
  1  4  1  0
  4  5  2  0
  2  6  1  0
  4  7  1  0
  6  8  2  0
  6  9  1  0
  7 10  1  0
  7 11  1  0
  9 12  1  0
 10 13  1  0
 11 14  1  0
 13 14  1  0
 12 15  1  0
 15 16  1  0
 16 17  1  0
 17 18  1  0
 18 19  1  0
 18 20  2  0
 19 21  1  0
 20 22  1  0
 21 22  2  0
M  END
