x0727_0_A-x0855_0_A
     RDKit          3D

 19 20  0  0  0  0  0  0  0  0999 V2000
    0.8680   11.4610   -5.5090 N   0  0  0  0  0  0  0  0  0  0  0  0
   -0.1000   12.2670   -4.8100 C   0  0  2  0  0  0  0  0  0  0  0  0
    0.0240   13.7480   -5.2160 C   0  0  0  0  0  0  0  0  0  0  0  0
    0.8530   11.1110   -6.8350 C   0  0  0  0  0  0  0  0  0  0  0  0
    1.5070   11.7240   -7.5750 O   0  0  0  0  0  0  0  0  0  0  0  0
    0.3200   12.1350   -3.3100 C   0  0  0  0  0  0  0  0  0  0  0  0
    0.1040    9.9070   -7.4200 C   0  0  0  0  0  0  0  0  0  0  0  0
   -1.4120   11.6860   -5.0450 N   0  0  0  0  0  0  0  0  0  0  0  0
   -0.0220   11.1990   -2.5900 O   0  0  0  0  0  0  0  0  0  0  0  0
    1.1080   13.1140   -2.8030 O   0  0  0  0  0  0  0  0  0  0  0  0
   -1.2740   10.2370   -7.9740 C   0  0  0  0  0  0  0  0  0  0  0  0
   -0.0620    8.6630   -6.5420 C   0  0  0  0  0  0  0  0  0  0  0  0
   -1.6470   10.3930   -5.3840 C   0  0  0  0  0  0  0  0  0  0  0  0
   -2.5430   12.4340   -4.9430 N   0  0  0  0  0  0  0  0  0  0  0  0
   -1.9350    8.8720   -8.0980 C   0  0  0  0  0  0  0  0  0  0  0  0
   -1.4080    8.0530   -6.9160 C   0  0  0  0  0  0  0  0  0  0  0  0
   -2.9900   10.2790   -5.5220 C   0  0  0  0  0  0  0  0  0  0  0  0
   -3.5040   11.5490   -5.2420 C   0  0  0  0  0  0  0  0  0  0  0  0
   -3.9820    8.7740   -5.9860 Br  0  0  0  0  0  0  0  0  0  0  0  0
  1  2  1  0
  2  3  1  6
  1  4  1  0
  4  5  2  0
  2  6  1  0
  4  7  1  0
  2  8  1  0
  6  9  2  0
  6 10  1  0
  7 11  1  0
  7 12  1  0
  8 13  1  0
  8 14  1  0
 11 15  1  0
 12 16  1  0
 15 16  1  0
 13 17  2  0
 14 18  2  0
 17 18  1  0
 17 19  1  0
M  END
