x0724_0_A-x0910_1_A
     RDKit          3D

 14 15  0  0  0  0  0  0  0  0999 V2000
   -8.2540   13.7900    4.4430 N   0  0  0  0  0  0  0  0  0  0  0  0
   -8.7140   13.9660    5.8130 C   0  0  0  0  0  0  0  0  0  0  0  0
   -8.4300   15.0170    3.6810 C   0  0  0  0  0  0  0  0  0  0  0  0
   -7.7350   14.8680    2.3750 C   0  0  0  0  0  0  0  0  0  0  0  0
   -6.3780   14.8880    2.1120 C   0  0  0  0  0  0  0  0  0  0  0  0
   -8.3130   14.6800    1.1060 C   0  0  0  0  0  0  0  0  0  0  0  0
   -7.4110   14.5970    0.1280 N   0  0  0  0  0  0  0  0  0  0  0  0
   -6.2090   14.7320    0.7530 N   0  0  0  0  0  0  0  0  0  0  0  0
   -4.9890   14.7150    0.0210 C   0  0  0  0  0  0  0  0  0  0  0  0
   -3.7740   14.8460    0.7100 C   0  0  0  0  0  0  0  0  0  0  0  0
   -4.9820   14.5750   -1.3730 C   0  0  0  0  0  0  0  0  0  0  0  0
   -2.5690   14.8400    0.0090 C   0  0  0  0  0  0  0  0  0  0  0  0
   -3.7720   14.5680   -2.0680 C   0  0  0  0  0  0  0  0  0  0  0  0
   -2.5700   14.7000   -1.3790 C   0  0  0  0  0  0  0  0  0  0  0  0
  1  2  1  0
  1  3  1  0
  3  4  1  0
  4  5  2  0
  4  6  1  0
  6  7  2  0
  5  8  1  0
  7  8  1  0
  8  9  1  0
  9 10  2  0
  9 11  1  0
 10 12  1  0
 11 13  2  0
 12 14  2  0
 13 14  1  0
M  END
