x0722_0_A_α-x0962_3_A_α
     RDKit          3D

 25 26  0  0  0  0  0  0  0  0999 V2000
   -4.8060   15.3030    2.0580 C   0  0  0  0  0  0  0  0  0  0  0  0
   -3.5930   15.0150    1.2810 C   0  0  0  0  0  0  0  0  0  0  0  0
   -2.4510   14.7360    1.8960 N   0  0  0  0  0  0  0  0  0  0  0  0
   -3.4680   14.9880   -0.1250 C   0  0  0  0  0  0  0  0  0  0  0  0
   -4.5610   15.2610   -1.1180 C   0  0  0  0  0  0  0  0  0  0  0  0
   -2.1220   14.6540   -0.3440 C   0  0  0  0  0  0  0  0  0  0  0  0
   -1.5740   14.5220    0.9080 N   0  0  0  0  0  0  0  0  0  0  0  0
   -0.2140   14.1910    1.2620 C   0  0  0  0  0  0  0  0  0  0  0  0
   -1.3590   14.4600   -1.6270 C   0  0  0  0  0  0  0  0  0  0  0  0
   -5.9160   14.6740   -0.7340 C   0  0  0  0  0  0  0  0  0  0  0  0
   -6.9750   15.2890   -0.8660 O   0  0  0  0  0  0  0  0  0  0  0  0
   -5.9280   13.4080   -0.2300 N   0  0  0  0  0  0  0  0  0  0  0  0
    0.1080   14.9250   -1.5470 C   0  0  0  0  0  0  0  0  0  0  0  0
    1.1260   13.8250   -1.9110 C   0  0  0  0  0  0  0  0  0  0  0  0
    1.4730   13.7910   -3.4160 C   0  0  0  0  0  0  0  0  0  0  0  0
    0.4320   13.0720   -4.2940 C   0  0  0  0  0  0  0  0  0  0  0  0
    0.6720   13.1720   -5.8140 C   0  0  0  0  0  0  0  0  0  0  0  0
    1.0430   11.8030   -6.4200 C   0  0  0  0  0  0  0  0  0  0  0  0
    0.3760   11.3070   -7.7280 C   0  0  1  0  0  0  0  0  0  0  0  0
    1.2210   11.2040   -8.8860 N   0  0  0  0  0  0  0  0  0  0  0  0
   -0.2940   10.0100   -7.5910 C   0  0  0  0  0  0  0  0  0  0  0  0
    0.1000    8.8510   -8.2080 N   0  0  0  0  0  0  0  0  0  0  0  0
   -1.4040    9.6740   -6.8660 C   0  0  0  0  0  0  0  0  0  0  0  0
   -0.7800    7.8800   -7.8320 C   0  0  0  0  0  0  0  0  0  0  0  0
   -1.7010    8.3520   -7.0210 N   0  0  0  0  0  0  0  0  0  0  0  0
  1  2  1  0
  2  3  2  0
  2  4  1  0
  4  5  1  0
  4  6  2  0
  3  7  1  0
  6  7  1  0
  7  8  1  0
  6  9  1  0
  5 10  1  0
 10 11  2  0
 10 12  1  0
  9 13  1  0
 13 14  1  0
 14 15  1  0
 15 16  1  0
 16 17  1  0
 17 18  1  0
 18 19  1  0
 19 20  1  6
 19 21  1  0
 21 22  1  0
 21 23  2  0
 22 24  1  0
 23 25  1  0
 24 25  2  0
M  END
