x0724_0_A_α-x0104_0_A_β
     RDKit          3D

 16 17  0  0  0  0  0  0  0  0999 V2000
   -8.9220   14.0790    4.2140 N   0  0  0  0  0  0  0  0  0  0  0  0
   -8.5640   14.3930    5.5880 C   0  0  0  0  0  0  0  0  0  0  0  0
   -8.3020   14.9320    3.1870 C   0  0  0  0  0  0  0  0  0  0  0  0
   -7.5610   14.2300    2.0370 C   0  0  2  0  0  0  0  0  0  0  0  0
   -6.0650   14.4760    1.9810 C   0  0  0  0  0  0  0  0  0  0  0  0
   -8.0480   14.4210    0.5840 C   0  0  0  0  0  0  0  0  0  0  0  0
   -6.9450   15.0890   -0.1740 N   0  0  0  0  0  0  0  0  0  0  0  0
   -5.8200   14.9840    0.6500 N   0  0  0  0  0  0  0  0  0  0  0  0
   -6.6140   14.3740   -1.4230 O   0  0  0  0  0  0  0  0  0  0  0  0
   -4.5700   14.8090    0.0680 C   0  0  0  0  0  0  0  0  0  0  0  0
   -5.8200   15.2390   -2.2530 C   0  0  0  0  0  0  0  0  0  0  0  0
   -3.4000   15.0050    0.8020 C   0  0  0  0  0  0  0  0  0  0  0  0
   -4.4330   14.4360   -1.2740 C   0  0  0  0  0  0  0  0  0  0  0  0
   -2.1500   14.8360    0.2110 C   0  0  0  0  0  0  0  0  0  0  0  0
   -3.1960   14.2690   -1.8760 C   0  0  0  0  0  0  0  0  0  0  0  0
   -2.0460   14.4700   -1.1290 C   0  0  0  0  0  0  0  0  0  0  0  0
  1  2  1  0
  1  3  1  0
  4  3  1  1
  4  5  1  0
  4  6  1  0
  6  7  1  0
  5  8  1  0
  7  8  1  0
  7  9  1  0
  8 10  1  0
  9 11  1  0
 10 12  2  0
 10 13  1  0
 12 14  1  0
 13 15  2  0
 14 16  2  0
 15 16  1  0
M  END
