x0724_0_A-x0905_0_A
     RDKit          3D

 15 16  0  0  0  0  0  0  0  0999 V2000
   -8.2750   13.7860    4.5280 N   0  0  0  0  0  0  0  0  0  0  0  0
   -8.7070   13.9350    5.9080 C   0  0  0  0  0  0  0  0  0  0  0  0
   -8.4520   15.0290    3.7970 C   0  0  0  0  0  0  0  0  0  0  0  0
   -7.7650   14.8850    2.4930 C   0  0  0  0  0  0  0  0  0  0  0  0
   -6.4100   14.9200    2.2320 C   0  0  0  0  0  0  0  0  0  0  0  0
   -8.3460   14.6910    1.2300 C   0  0  0  0  0  0  0  0  0  0  0  0
   -7.4480   14.6160    0.2550 N   0  0  0  0  0  0  0  0  0  0  0  0
   -6.2380   14.7630    0.8770 N   0  0  0  0  0  0  0  0  0  0  0  0
   -5.0570   14.7500    0.0910 C   0  0  0  0  0  0  0  0  0  0  0  0
   -3.7920   14.7680    0.7120 C   0  0  0  0  0  0  0  0  0  0  0  0
   -5.1340   14.7280   -1.2910 C   0  0  0  0  0  0  0  0  0  0  0  0
   -6.3600   14.7140   -1.9010 O   0  0  0  0  0  0  0  0  0  0  0  0
   -2.6270   14.7620   -0.0570 C   0  0  0  0  0  0  0  0  0  0  0  0
   -3.9670   14.7190   -2.0680 C   0  0  0  0  0  0  0  0  0  0  0  0
   -2.7160   14.7380   -1.4490 C   0  0  0  0  0  0  0  0  0  0  0  0
  1  2  1  0
  1  3  1  0
  3  4  1  0
  4  5  2  0
  4  6  1  0
  6  7  2  0
  5  8  1  0
  7  8  1  0
  8  9  1  0
  9 10  2  0
  9 11  1  0
 11 12  1  0
 10 13  1  0
 11 14  2  0
 13 15  2  0
 14 15  1  0
M  END
