x0727_0_A_α-x0104_0_A_β
     RDKit          3D

 25 26  0  0  0  0  0  0  0  0999 V2000
    0.1370   11.4270   -5.6120 N   0  0  0  0  0  0  0  0  0  0  0  0
    0.9150   12.3470   -4.7800 C   0  0  1  0  0  0  0  0  0  0  0  0
    0.4220   13.7780   -4.9590 C   0  0  0  0  0  0  0  0  0  0  0  0
    0.6880   11.0830   -6.8200 C   0  0  0  0  0  0  0  0  0  0  0  0
    1.6280   11.6910   -7.2480 O   0  0  0  0  0  0  0  0  0  0  0  0
    0.7560   11.9270   -3.3190 C   0  0  0  0  0  0  0  0  0  0  0  0
    0.0570    9.8880   -7.5260 C   0  0  0  0  0  0  0  0  0  0  0  0
    0.3230   10.8540   -2.9270 O   0  0  0  0  0  0  0  0  0  0  0  0
    1.1550   12.8760   -2.4490 O   0  0  0  0  0  0  0  0  0  0  0  0
   -0.9580   14.0140   -4.3470 C   0  0  0  0  0  0  0  0  0  0  0  0
   -1.2290   10.2900   -8.2540 C   0  0  0  0  0  0  0  0  0  0  0  0
   -0.3280    8.7390   -6.5760 C   0  0  0  0  0  0  0  0  0  0  0  0
   -1.5180   15.4290   -4.4460 C   0  0  0  0  0  0  0  0  0  0  0  0
   -2.1970    9.1390   -8.0160 C   0  0  0  0  0  0  0  0  0  0  0  0
   -1.8430    8.6310   -6.6310 C   0  0  0  0  0  0  0  0  0  0  0  0
   -3.0080   15.5180   -4.1000 C   0  0  0  0  0  0  0  0  0  0  0  0
   -3.3330   15.1180   -2.6520 C   0  0  0  0  0  0  0  0  0  0  0  0
   -4.6720   14.6540   -2.5050 O   0  0  0  0  0  0  0  0  0  0  0  0
   -5.1530   14.6900   -1.2130 C   0  0  0  0  0  0  0  0  0  0  0  0
   -4.3080   14.7650   -0.1670 N   0  0  0  0  0  0  0  0  0  0  0  0
   -6.5330   14.6440   -1.0880 C   0  0  0  0  0  0  0  0  0  0  0  0
   -4.8790   14.7920    1.0580 C   0  0  0  0  0  0  0  0  0  0  0  0
   -7.0850   14.6700    0.1900 C   0  0  0  0  0  0  0  0  0  0  0  0
   -6.2570   14.7460    1.2980 C   0  0  0  0  0  0  0  0  0  0  0  0
   -6.7890   14.7760    2.5870 N   0  0  0  0  0  0  0  0  0  0  0  0
  1  2  1  0
  2  3  1  1
  1  4  1  0
  4  5  2  0
  2  6  1  0
  4  7  1  0
  6  8  2  0
  6  9  1  0
  3 10  1  0
  7 11  1  0
  7 12  1  0
 10 13  1  0
 11 14  1  0
 12 15  1  0
 14 15  1  0
 13 16  1  0
 16 17  1  0
 17 18  1  0
 18 19  1  0
 19 20  2  0
 19 21  1  0
 20 22  1  0
 21 23  2  0
 22 24  2  0
 23 24  1  0
 24 25  1  0
M  END
