x0722_0_A_α-x0950_0_A_α
     RDKit          3D

 20 20  0  0  0  0  0  0  0  0999 V2000
   -4.4700   15.7700    2.2690 C   0  0  0  0  0  0  0  0  0  0  0  0
   -3.4780   15.2960    1.3310 C   0  0  0  0  0  0  0  0  0  0  0  0
   -2.3170   14.9410    1.8230 N   0  0  0  0  0  0  0  0  0  0  0  0
   -3.5500   15.1630   -0.0680 C   0  0  0  0  0  0  0  0  0  0  0  0
   -4.7210   15.4780   -0.9530 C   0  0  0  0  0  0  0  0  0  0  0  0
   -2.2880   14.6900   -0.4120 C   0  0  0  0  0  0  0  0  0  0  0  0
   -1.5990   14.5850    0.7850 N   0  0  0  0  0  0  0  0  0  0  0  0
   -0.2570   14.1690    1.0810 C   0  0  0  0  0  0  0  0  0  0  0  0
   -1.7370   14.3580   -1.7650 C   0  0  0  0  0  0  0  0  0  0  0  0
   -5.9730   14.6910   -0.6000 C   0  0  0  0  0  0  0  0  0  0  0  0
   -7.1080   15.1290   -0.7630 O   0  0  0  0  0  0  0  0  0  0  0  0
   -5.7860   13.4400   -0.0840 N   0  0  0  0  0  0  0  0  0  0  0  0
   -0.2160   14.5000   -1.8740 C   0  0  0  0  0  0  0  0  0  0  0  0
    0.5100   13.3450   -1.2110 C   0  0  0  0  0  0  0  0  0  0  0  0
    1.4580   12.7520   -2.0950 O   0  0  0  0  0  0  0  0  0  0  0  0
    0.9230   12.0560   -3.1260 C   0  0  0  0  0  0  0  0  0  0  0  0
    1.2540   12.7430   -4.4480 C   0  0  1  0  0  0  0  0  0  0  0  0
    0.2810   11.0140   -3.0250 O   0  0  0  0  0  0  0  0  0  0  0  0
    2.7380   13.0060   -4.5560 C   0  0  0  0  0  0  0  0  0  0  0  0
    0.8460   11.9590   -5.5680 O   0  0  0  0  0  0  0  0  0  0  0  0
  1  2  1  0
  2  3  2  0
  2  4  1  0
  4  5  1  0
  4  6  2  0
  3  7  1  0
  6  7  1  0
  7  8  1  0
  6  9  1  0
  5 10  1  0
 10 11  2  0
 10 12  1  0
  9 13  1  0
 13 14  1  0
 14 15  1  0
 15 16  1  0
 16 17  1  0
 16 18  2  0
 17 19  1  6
 17 20  1  0
M  END
