x0727_0_A-x0662_0_A
     RDKit          3D

 23 24  0  0  0  0  0  0  0  0999 V2000
    0.1410   11.4880   -5.7040 C   0  0  0  0  0  0  0  0  0  0  0  0
    0.8840   12.4100   -4.7570 C   0  0  1  0  0  0  0  0  0  0  0  0
    0.4290   13.8520   -4.9290 C   0  0  0  0  0  0  0  0  0  0  0  0
    0.9570   11.1590   -6.9370 C   0  0  0  0  0  0  0  0  0  0  0  0
   -0.9810   11.0450   -5.5300 O   0  0  0  0  0  0  0  0  0  0  0  0
    1.8450   11.9290   -7.1420 O   0  0  0  0  0  0  0  0  0  0  0  0
    0.7160   11.9580   -3.3280 C   0  0  0  0  0  0  0  0  0  0  0  0
    0.6790    9.9170   -7.7740 C   0  0  2  0  0  0  0  0  0  0  0  0
    0.2330   10.8840   -3.0100 O   0  0  0  0  0  0  0  0  0  0  0  0
    1.1600   12.8520   -2.4160 O   0  0  0  0  0  0  0  0  0  0  0  0
   -0.0540   10.2160   -9.1030 C   0  0  1  0  0  0  0  0  0  0  0  0
   -0.1130    8.8430   -7.0080 C   0  0  0  0  0  0  0  0  0  0  0  0
    0.8140   10.3450  -10.3540 N   0  0  0  0  0  0  0  0  0  0  0  0
   -1.1430    9.1130   -9.1430 C   0  0  0  0  0  0  0  0  0  0  0  0
   -1.4650    8.7960   -7.6810 C   0  0  0  0  0  0  0  0  0  0  0  0
    1.7670    9.4450  -10.9160 C   0  0  0  0  0  0  0  0  0  0  0  0
    1.9870    8.3250  -10.4690 O   0  0  0  0  0  0  0  0  0  0  0  0
    2.5330    9.9470  -12.1250 C   0  0  0  0  0  0  0  0  0  0  0  0
    2.4020   11.1880  -12.8240 C   0  0  0  0  0  0  0  0  0  0  0  0
    3.5170    9.2010  -12.7110 N   0  0  0  0  0  0  0  0  0  0  0  0
    3.9780    9.9640  -13.7340 N   0  0  0  0  0  0  0  0  0  0  0  0
    3.3390   11.1610  -13.8410 C   0  0  0  0  0  0  0  0  0  0  0  0
    5.0510    9.4760  -14.5790 C   0  0  0  0  0  0  0  0  0  0  0  0
  1  2  1  0
  2  3  1  1
  1  4  1  0
  1  5  2  0
  4  6  2  0
  2  7  1  0
  8  4  1  1
  7  9  2  0
  7 10  1  0
  8 11  1  0
  8 12  1  0
 11 13  1  6
 11 14  1  0
 12 15  1  0
 14 15  1  0
 13 16  1  0
 16 17  2  0
 16 18  1  0
 18 19  1  0
 18 20  2  0
 20 21  1  0
 19 22  2  0
 21 22  1  0
 21 23  1  0
M  END
