x0727_0_A-x0371_0_A
     RDKit          3D

 34 37  0  0  0  0  0  0  0  0999 V2000
    0.1310   11.7790   -5.4400 N   0  0  0  0  0  0  0  0  0  0  0  0
    1.0280   12.5360   -4.5830 C   0  0  1  0  0  0  0  0  0  0  0  0
    0.9450   14.0370   -4.8400 C   0  0  0  0  0  0  0  0  0  0  0  0
    0.4890   11.1790   -6.6170 C   0  0  0  0  0  0  0  0  0  0  0  0
    1.4990   11.4190   -7.2540 O   0  0  0  0  0  0  0  0  0  0  0  0
    0.8020   12.0800   -3.1220 C   0  0  0  0  0  0  0  0  0  0  0  0
   -0.5410   10.1530   -7.0190 C   0  0  0  0  0  0  0  0  0  0  0  0
    0.3260   10.9840   -2.8140 O   0  0  0  0  0  0  0  0  0  0  0  0
    1.1880   13.0280   -2.2240 O   0  0  0  0  0  0  0  0  0  0  0  0
   -0.9800   10.0920   -8.4640 C   0  0  0  0  0  0  0  0  0  0  0  0
   -0.1930    8.7070   -6.7280 C   0  0  0  0  0  0  0  0  0  0  0  0
    0.2240   13.4450   -1.2330 C   0  0  0  0  0  0  0  0  0  0  0  0
   -1.9280    8.8910   -8.4140 C   0  0  0  0  0  0  0  0  0  0  0  0
   -1.4470    8.0200   -7.2370 C   0  0  0  0  0  0  0  0  0  0  0  0
   -0.4650   14.7370   -1.6910 C   0  0  0  0  0  0  0  0  0  0  0  0
   -1.2000   15.5030   -0.5760 C   0  0  0  0  0  0  0  0  0  0  0  0
   -2.7150   15.3510   -0.6050 C   0  0  0  0  0  0  0  0  0  0  0  0
   -3.4150   15.0100    0.5680 C   0  0  0  0  0  0  0  0  0  0  0  0
   -3.4260   15.5430   -1.8070 C   0  0  0  0  0  0  0  0  0  0  0  0
   -4.8040   14.8720    0.4690 C   0  0  0  0  0  0  0  0  0  0  0  0
   -4.8220   15.3980   -1.8660 C   0  0  0  0  0  0  0  0  0  0  0  0
   -5.7570   14.5500    1.3920 N   0  0  0  0  0  0  0  0  0  0  0  0
   -5.5160   15.0550   -0.7050 C   0  0  0  0  0  0  0  0  0  0  0  0
   -6.9910   14.5420    0.7720 C   0  0  0  0  0  0  0  0  0  0  0  0
   -6.8610   14.8510   -0.5040 N   0  0  0  0  0  0  0  0  0  0  0  0
   -8.2700   14.2280    1.4690 C   0  0  0  0  0  0  0  0  0  0  0  0
   -8.1700   14.5270    2.8750 N   0  0  0  0  0  0  0  0  0  0  0  0
   -8.8030   15.4970    3.6080 C   0  0  0  0  0  0  0  0  0  0  0  0
   -9.4830   16.2990    2.9590 O   0  0  0  0  0  0  0  0  0  0  0  0
   -8.6730   15.5550    5.0480 C   0  0  0  0  0  0  0  0  0  0  0  0
   -8.0620   14.4750    5.6380 O   0  0  0  0  0  0  0  0  0  0  0  0
   -9.0200   16.4530    6.0370 C   0  0  0  0  0  0  0  0  0  0  0  0
   -8.6010   15.8950    7.2760 C   0  0  0  0  0  0  0  0  0  0  0  0
   -8.0230   14.6890    6.9700 C   0  0  0  0  0  0  0  0  0  0  0  0
  1  2  1  0
  2  3  1  1
  1  4  1  0
  4  5  2  0
  2  6  1  0
  4  7  1  0
  6  8  2  0
  6  9  1  0
  7 10  1  0
  7 11  1  0
  9 12  1  0
 10 13  1  0
 11 14  1  0
 13 14  1  0
 12 15  1  0
 15 16  1  0
 16 17  1  0
 17 18  2  0
 17 19  1  0
 18 20  1  0
 19 21  2  0
 20 22  1  0
 20 23  2  0
 21 23  1  0
 22 24  1  0
 23 25  1  0
 24 25  2  0
 24 26  1  0
 26 27  1  0
 27 28  1  0
 28 29  2  0
 28 30  1  0
 30 31  1  0
 30 32  2  0
 32 33  1  0
 31 34  1  0
 33 34  2  0
M  END
