x0724_0_A-x0852_0_B
     RDKit          3D

 23 25  0  0  0  0  0  0  0  0999 V2000
   -7.7310   13.7500    4.7490 N   0  0  0  0  0  0  0  0  0  0  0  0
   -8.7240   14.2150    5.6720 C   0  0  0  0  0  0  0  0  0  0  0  0
   -9.3140   15.1850    4.7140 C   0  0  0  0  0  0  0  0  0  0  0  0
   -7.5140   14.9540    3.9130 C   0  0  0  0  0  0  0  0  0  0  0  0
   -7.2050   14.7150    2.4750 C   0  0  0  0  0  0  0  0  0  0  0  0
   -5.9870   14.8960    1.9210 C   0  0  0  0  0  0  0  0  0  0  0  0
   -7.9910   14.2880    1.3700 C   0  0  0  0  0  0  0  0  0  0  0  0
   -9.4530   14.6260    3.4400 C   0  0  0  0  0  0  0  0  0  0  0  0
   -9.7060   16.5150    4.9400 C   0  0  0  0  0  0  0  0  0  0  0  0
   -9.6000   17.1600    6.2220 C   0  0  0  0  0  0  0  0  0  0  0  0
   -7.2890   14.2160    0.2290 N   0  0  0  0  0  0  0  0  0  0  0  0
   -6.0400   14.5950    0.6060 N   0  0  0  0  0  0  0  0  0  0  0  0
   -9.9690   15.3470    2.3930 C   0  0  0  0  0  0  0  0  0  0  0  0
  -10.2280   17.2410    3.8620 C   0  0  0  0  0  0  0  0  0  0  0  0
   -9.5850   17.6680    7.2680 N   0  0  0  0  0  0  0  0  0  0  0  0
   -4.9250   14.6690   -0.2400 C   0  0  0  0  0  0  0  0  0  0  0  0
  -10.3560   16.6460    2.5980 C   0  0  0  0  0  0  0  0  0  0  0  0
  -11.0680   17.5670    1.1110 Br  0  0  0  0  0  0  0  0  0  0  0  0
   -3.6760   14.6820    0.3940 C   0  0  0  0  0  0  0  0  0  0  0  0
   -5.0090   14.7250   -1.6310 C   0  0  0  0  0  0  0  0  0  0  0  0
   -2.5110   14.7440   -0.3560 C   0  0  0  0  0  0  0  0  0  0  0  0
   -3.8360   14.7890   -2.3800 C   0  0  0  0  0  0  0  0  0  0  0  0
   -2.5900   14.7980   -1.7460 C   0  0  0  0  0  0  0  0  0  0  0  0
  1  2  1  0
  2  3  1  0
  1  4  1  0
  4  5  1  0
  5  6  2  0
  5  7  1  0
  3  8  2  0
  3  9  1  0
  9 10  1  0
  7 11  2  0
  6 12  1  0
 11 12  1  0
  8 13  1  0
  9 14  2  0
 10 15  3  0
 12 16  1  0
 13 17  2  0
 14 17  1  0
 17 18  1  0
 16 19  2  0
 16 20  1  0
 19 21  1  0
 20 22  2  0
 21 23  2  0
 22 23  1  0
M  END
