x0724_0_A_α-x0371_0_A_β
     RDKit          3D

 14 15  0  0  0  0  0  0  0  0999 V2000
   -8.2540   13.7540    4.4380 N   0  0  0  0  0  0  0  0  0  0  0  0
   -8.7090   13.9410    5.8070 C   0  0  0  0  0  0  0  0  0  0  0  0
   -8.4560   14.9650    3.6610 C   0  0  0  0  0  0  0  0  0  0  0  0
   -7.7590   14.8170    2.3550 C   0  0  0  0  0  0  0  0  0  0  0  0
   -6.4040   14.8490    2.0940 C   0  0  0  0  0  0  0  0  0  0  0  0
   -8.3330   14.6150    1.0840 C   0  0  0  0  0  0  0  0  0  0  0  0
   -7.4260   14.5360    0.1080 N   0  0  0  0  0  0  0  0  0  0  0  0
   -6.2300   14.6870    0.7380 N   0  0  0  0  0  0  0  0  0  0  0  0
   -5.0070   14.6780    0.0120 C   0  0  0  0  0  0  0  0  0  0  0  0
   -3.7930   14.7850    0.7080 C   0  0  0  0  0  0  0  0  0  0  0  0
   -5.0000   14.5730   -1.3830 C   0  0  0  0  0  0  0  0  0  0  0  0
   -2.5880   14.7860    0.0070 C   0  0  0  0  0  0  0  0  0  0  0  0
   -3.7920   14.5760   -2.0770 C   0  0  0  0  0  0  0  0  0  0  0  0
   -2.5880   14.6820   -1.3820 C   0  0  0  0  0  0  0  0  0  0  0  0
  1  2  1  0
  1  3  1  0
  3  4  1  0
  4  5  2  0
  4  6  1  0
  6  7  2  0
  5  8  1  0
  7  8  1  0
  8  9  1  0
  9 10  2  0
  9 11  1  0
 10 12  1  0
 11 13  2  0
 12 14  2  0
 13 14  1  0
M  END
