x0727_0_A-x0631_0_A
     RDKit          3D

 29 32  0  0  0  0  0  0  0  0999 V2000
   -0.1220   11.8750   -5.3160 N   0  0  0  0  0  0  0  0  0  0  0  0
    0.9110   12.5280   -4.5310 C   0  0  1  0  0  0  0  0  0  0  0  0
    0.7390   14.0350   -4.6150 C   0  0  0  0  0  0  0  0  0  0  0  0
    0.2400   11.4810   -6.5560 C   0  0  0  0  0  0  0  0  0  0  0  0
    1.2940   11.8590   -7.0550 O   0  0  0  0  0  0  0  0  0  0  0  0
    0.7480   12.0140   -3.1050 C   0  0  0  0  0  0  0  0  0  0  0  0
   -0.6510   10.5220   -7.3230 C   0  0  2  0  0  0  0  0  0  0  0  0
    0.1420   10.9970   -2.7890 O   0  0  0  0  0  0  0  0  0  0  0  0
    1.3380   12.7860   -2.1850 O   0  0  0  0  0  0  0  0  0  0  0  0
   -2.1730   10.5660   -7.2070 C   0  0  0  0  0  0  0  0  0  0  0  0
   -0.2890    9.0730   -6.9970 C   0  0  1  0  0  0  0  0  0  0  0  0
   -2.4790    9.2380   -7.8860 C   0  0  1  0  0  0  0  0  0  0  0  0
   -1.6300    8.3020   -7.0650 C   0  0  1  0  0  0  0  0  0  0  0  0
    0.8000    8.7980   -7.8900 N   0  0  0  0  0  0  0  0  0  0  0  0
    1.5110   10.0260   -7.7740 N   0  0  0  0  0  0  0  0  0  0  0  0
    0.3800    8.7790   -9.2910 N   0  0  0  0  0  0  0  0  0  0  0  0
   -3.8280    8.5380   -7.7650 C   0  0  0  0  0  0  0  0  0  0  0  0
   -1.9120    7.0030   -7.8110 C   0  0  0  0  0  0  0  0  0  0  0  0
    1.2320   10.8160   -8.9360 N   0  0  0  0  0  0  0  0  0  0  0  0
    1.3180    9.7330   -9.8430 C   0  0  2  0  0  0  0  0  0  0  0  0
   -3.4440    7.0600   -8.0020 C   0  0  0  0  0  0  0  0  0  0  0  0
    1.2280   10.1210  -11.2150 N   0  0  0  0  0  0  0  0  0  0  0  0
    2.0820    9.3430  -12.0970 C   0  0  2  0  0  0  0  0  0  0  0  0
    2.7830    8.4590  -11.2310 O   0  0  0  0  0  0  0  0  0  0  0  0
    3.1110   10.1190  -12.9500 C   0  0  1  0  0  0  0  0  0  0  0  0
    3.4830    9.4130  -14.1340 O   0  0  0  0  0  0  0  0  0  0  0  0
    2.7120   11.5060  -13.4240 C   0  0  0  0  0  0  0  0  0  0  0  0
    3.6100   11.7060  -14.6330 C   0  0  0  0  0  0  0  0  0  0  0  0
    4.3010   10.3650  -14.8100 C   0  0  0  0  0  0  0  0  0  0  0  0
  1  2  1  0
  2  3  1  1
  1  4  1  0
  4  5  2  0
  2  6  1  0
  7  4  1  1
  6  8  2  0
  6  9  1  0
  7 10  1  0
  7 11  1  0
 12 10  1  1
 11 13  1  0
 12 13  1  0
 11 14  1  6
 14 15  1  0
 14 16  1  0
 12 17  1  0
 13 18  1  6
 15 19  1  0
 16 20  1  0
 19 20  1  0
 17 21  1  0
 18 21  1  0
 20 22  1  6
 22 23  1  0
 23 24  1  1
 23 25  1  0
 25 26  1  0
 25 27  1  6
 27 28  1  0
 26 29  1  0
 28 29  1  0
M  END
