x0737_0_B-x0918_4_B
     RDKit          3D

 24 25  0  0  0  0  0  0  0  0999 V2000
   15.6020   15.5560   11.9270 N   0  0  0  0  0  0  0  0  0  0  0  0
   16.3350   16.7430   12.3200 C   0  0  0  0  0  0  0  0  0  0  0  0
   15.3950   17.7640   12.9410 C   0  0  0  0  0  0  0  0  0  0  0  0
   16.2640   14.3720   11.6920 C   0  0  0  0  0  0  0  0  0  0  0  0
   17.4110   14.3550   11.2610 O   0  0  0  0  0  0  0  0  0  0  0  0
   15.5790   13.0280   11.9890 C   0  0  1  0  0  0  0  0  0  0  0  0
   15.0750   18.9300   12.0100 C   0  0  0  0  0  0  0  0  0  0  0  0
   14.8080   12.8890   13.3030 C   0  0  1  0  0  0  0  0  0  0  0  0
   14.7800   12.4910   10.8080 C   0  0  0  0  0  0  0  0  0  0  0  0
   14.7690   14.1930   14.0790 C   0  0  0  0  0  0  0  0  0  0  0  0
   13.4860   12.2620   12.9970 N   0  0  0  0  0  0  0  0  0  0  0  0
   14.2120   11.0910   10.9850 C   0  0  0  0  0  0  0  0  0  0  0  0
   14.0380   19.8400   12.6000 C   0  0  0  0  0  0  0  0  0  0  0  0
   12.0560   12.6490   13.7860 S   0  0  0  0  0  0  0  0  0  0  0  0
   13.5450   10.9260   12.3280 C   0  0  0  0  0  0  0  0  0  0  0  0
   12.8670   19.2720   12.9540 N   0  0  0  0  0  0  0  0  0  0  0  0
   14.3040   21.1960   12.7750 C   0  0  0  0  0  0  0  0  0  0  0  0
   12.0720   14.0850   13.9640 O   0  0  0  0  0  0  0  0  0  0  0  0
   11.8200   11.7330   14.8750 O   0  0  0  0  0  0  0  0  0  0  0  0
   11.0120   12.2500   12.4400 C   0  0  0  0  0  0  0  0  0  0  0  0
   13.3350   22.0080   13.3460 C   0  0  0  0  0  0  0  0  0  0  0  0
   11.9410   20.0810   13.5060 C   0  0  0  0  0  0  0  0  0  0  0  0
   13.5700   23.3720   13.5470 N   0  0  0  0  0  0  0  0  0  0  0  0
   12.1300   21.4360   13.7210 C   0  0  0  0  0  0  0  0  0  0  0  0
  1  2  1  0
  2  3  1  0
  1  4  1  0
  4  5  2  0
  6  4  1  6
  3  7  1  0
  6  8  1  0
  6  9  1  0
  8 10  1  6
  8 11  1  0
  9 12  1  0
  7 13  1  0
 11 14  1  0
 11 15  1  0
 12 15  1  0
 13 16  2  0
 13 17  1  0
 14 18  2  0
 14 19  2  0
 14 20  1  0
 17 21  2  0
 16 22  1  0
 21 23  1  0
 21 24  1  0
 22 24  2  0
M  END
