x0737_0_B_α-x0918_3_A_α
     RDKit          3D

 26 27  0  0  0  0  0  0  0  0999 V2000
   15.6430   15.7830   11.8720 N   0  0  0  0  0  0  0  0  0  0  0  0
   16.5710   16.8650   12.0850 C   0  0  0  0  0  0  0  0  0  0  0  0
   16.0950   14.4740   11.7260 C   0  0  0  0  0  0  0  0  0  0  0  0
   17.2830   14.1900   11.6220 O   0  0  0  0  0  0  0  0  0  0  0  0
   14.9790   13.4280   11.7090 C   0  0  2  0  0  0  0  0  0  0  0  0
   14.5710   12.9750   13.0930 C   0  0  1  0  0  0  0  0  0  0  0  0
   15.3550   12.1720   10.9220 C   0  0  0  0  0  0  0  0  0  0  0  0
   14.3420   14.1170   14.0800 C   0  0  0  0  0  0  0  0  0  0  0  0
   13.3860   12.1410   12.9460 N   0  0  0  0  0  0  0  0  0  0  0  0
   14.1470   11.2450   10.7110 C   0  0  1  0  0  0  0  0  0  0  0  0
   12.0300   12.6160   13.7450 S   0  0  0  0  0  0  0  0  0  0  0  0
   14.4140    9.7230   10.8960 C   0  0  0  0  0  0  0  0  0  0  0  0
   13.0190   11.6740   11.6070 C   0  0  0  0  0  0  0  0  0  0  0  0
   11.8850   14.0290   13.4750 O   0  0  0  0  0  0  0  0  0  0  0  0
   12.0180   12.0300   15.0690 O   0  0  0  0  0  0  0  0  0  0  0  0
   10.9230   11.6850   12.7430 C   0  0  0  0  0  0  0  0  0  0  0  0
   15.7960    9.2410   11.3700 C   0  0  0  0  0  0  0  0  0  0  0  0
   15.8900    7.7060   11.3670 C   0  0  0  0  0  0  0  0  0  0  0  0
   16.5330    7.0740   10.1170 C   0  0  0  0  0  0  0  0  0  0  0  0
   15.5980    6.3660    9.2380 N   0  0  0  0  0  0  0  0  0  0  0  0
   15.3360    5.0060    9.4290 C   0  0  0  0  0  0  0  0  0  0  0  0
   15.4720    3.9950    8.4710 C   0  0  0  0  0  0  0  0  0  0  0  0
   14.9020    4.6180   10.6900 C   0  0  0  0  0  0  0  0  0  0  0  0
   15.1700    2.6830    8.8160 C   0  0  0  0  0  0  0  0  0  0  0  0
   14.6270    3.2860   10.9480 C   0  0  0  0  0  0  0  0  0  0  0  0
   14.7510    2.3040   10.0370 N   0  0  0  0  0  0  0  0  0  0  0  0
  1  2  1  0
  1  3  1  0
  3  4  2  0
  5  3  1  1
  5  6  1  0
  5  7  1  0
  6  8  1  1
  6  9  1  0
  7 10  1  0
  9 11  1  0
 10 12  1  1
  9 13  1  0
 10 13  1  0
 11 14  2  0
 11 15  2  0
 11 16  1  0
 12 17  1  0
 17 18  1  0
 18 19  1  0
 19 20  1  0
 20 21  1  0
 21 22  2  0
 21 23  1  0
 22 24  1  0
 23 25  2  0
 24 26  2  0
 25 26  1  0
M  END
