x0737_0_B_α-x0299_0_A_α
     RDKit          3D

 32 34  0  0  0  0  0  0  0  0999 V2000
   15.5730   15.7580   11.9030 N   0  0  0  0  0  0  0  0  0  0  0  0
   16.4940   16.8490   12.1320 C   0  0  0  0  0  0  0  0  0  0  0  0
   16.0360   14.4640   11.7380 C   0  0  0  0  0  0  0  0  0  0  0  0
   17.2230   14.1950   11.5720 O   0  0  0  0  0  0  0  0  0  0  0  0
   14.9450   13.3870   11.7830 C   0  0  2  0  0  0  0  0  0  0  0  0
   14.6330   13.0210   13.2370 C   0  0  1  0  0  0  0  0  0  0  0  0
   15.2510   12.0770   11.0310 C   0  0  0  0  0  0  0  0  0  0  0  0
   14.4330   14.2620   14.0940 C   0  0  0  0  0  0  0  0  0  0  0  0
   13.4490   12.1200   13.3410 N   0  0  0  0  0  0  0  0  0  0  0  0
   14.5360   10.8520   11.6220 C   0  0  2  0  0  0  0  0  0  0  0  0
   12.0070   12.7400   13.8850 S   0  0  0  0  0  0  0  0  0  0  0  0
   14.2080    9.5850   10.8000 C   0  0  0  0  0  0  0  0  0  0  0  0
   13.2200   11.2850   12.1790 C   0  0  0  0  0  0  0  0  0  0  0  0
   12.1000   14.1810   13.9390 O   0  0  0  0  0  0  0  0  0  0  0  0
   11.5790   11.9290   15.0030 O   0  0  0  0  0  0  0  0  0  0  0  0
   11.0310   12.3130   12.4760 C   0  0  0  0  0  0  0  0  0  0  0  0
   14.9490    8.3340   11.2600 C   0  0  1  0  0  0  0  0  0  0  0  0
   14.3670    7.9910   12.5360 N   0  0  0  0  0  0  0  0  0  0  0  0
   15.0110    7.0170   10.5240 C   0  0  0  0  0  0  0  0  0  0  0  0
   15.0580    8.3070   13.6680 C   0  0  0  0  0  0  0  0  0  0  0  0
   14.5820    5.8810   11.1820 N   0  0  0  0  0  0  0  0  0  0  0  0
   15.4470    6.7170    9.3120 N   0  0  0  0  0  0  0  0  0  0  0  0
   16.2330    8.6540   13.6390 O   0  0  0  0  0  0  0  0  0  0  0  0
   14.2320    8.1780   14.9220 C   0  0  0  0  0  0  0  0  0  0  0  0
   15.3270    5.3310    9.2230 C   0  0  0  0  0  0  0  0  0  0  0  0
   14.7780    4.7970   10.3760 C   0  0  0  0  0  0  0  0  0  0  0  0
   15.0400    7.5440   16.0460 C   0  0  0  0  0  0  0  0  0  0  0  0
   14.5330    3.4330   10.5580 C   0  0  0  0  0  0  0  0  0  0  0  0
   15.6720    4.4490    8.1820 C   0  0  0  0  0  0  0  0  0  0  0  0
   15.9520    8.5580   16.7070 C   0  0  0  0  0  0  0  0  0  0  0  0
   14.8770    2.5800    9.5030 C   0  0  0  0  0  0  0  0  0  0  0  0
   15.4400    3.0790    8.3320 C   0  0  0  0  0  0  0  0  0  0  0  0
  1  2  1  0
  1  3  1  0
  3  4  2  0
  5  3  1  1
  5  6  1  0
  5  7  1  0
  6  8  1  1
  6  9  1  0
  7 10  1  0
  9 11  1  0
 10 12  1  6
  9 13  1  0
 10 13  1  0
 11 14  2  0
 11 15  2  0
 11 16  1  0
 17 12  1  6
 17 18  1  0
 17 19  1  0
 18 20  1  0
 19 21  1  0
 19 22  2  0
 20 23  2  0
 20 24  1  0
 22 25  1  0
 21 26  1  0
 25 26  2  0
 24 27  1  0
 26 28  1  0
 25 29  1  0
 27 30  1  0
 28 31  2  0
 29 32  2  0
 31 32  1  0
M  END
