x0737_0_B-x0158_0_B
     RDKit          3D

 18 18  0  0  0  0  0  0  0  0999 V2000
   15.8350   15.9010   12.2910 N   0  0  0  0  0  0  0  0  0  0  0  0
   16.3790   17.2380   11.9970 C   0  0  0  0  0  0  0  0  0  0  0  0
   17.8130   17.2630   11.4810 C   0  0  0  0  0  0  0  0  0  0  0  0
   16.1000   14.6680   11.7080 C   0  0  0  0  0  0  0  0  0  0  0  0
   15.3940   15.8080   13.5870 C   0  0  0  0  0  0  0  0  0  0  0  0
   17.2190   14.3690   11.2850 O   0  0  0  0  0  0  0  0  0  0  0  0
   16.1050   15.5550   14.5500 O   0  0  0  0  0  0  0  0  0  0  0  0
   14.9470   13.6450   11.6450 C   0  0  2  0  0  0  0  0  0  0  0  0
   14.4140   13.3760   13.0640 C   0  0  2  0  0  0  0  0  0  0  0  0
   15.2560   12.3080   10.9730 C   0  0  0  0  0  0  0  0  0  0  0  0
   15.4730   13.1150   14.1350 C   0  0  0  0  0  0  0  0  0  0  0  0
   13.4780   12.2080   13.1370 N   0  0  0  0  0  0  0  0  0  0  0  0
   13.9890   11.4760   10.8310 C   0  0  0  0  0  0  0  0  0  0  0  0
   12.0220   12.5650   13.8400 S   0  0  0  0  0  0  0  0  0  0  0  0
   13.5240   11.0530   12.2050 C   0  0  0  0  0  0  0  0  0  0  0  0
   12.0370   13.9960   14.0360 O   0  0  0  0  0  0  0  0  0  0  0  0
   11.7420   11.6090   14.8850 O   0  0  0  0  0  0  0  0  0  0  0  0
   11.0190   12.2000   12.4550 C   0  0  0  0  0  0  0  0  0  0  0  0
  1  2  1  0
  2  3  1  0
  1  4  1  0
  1  5  1  0
  4  6  2  0
  5  7  2  0
  8  4  1  1
  8  9  1  0
  8 10  1  0
  9 11  1  1
  9 12  1  0
 10 13  1  0
 12 14  1  0
 12 15  1  0
 13 15  1  0
 14 16  2  0
 14 17  2  0
 14 18  1  0
M  END
