x0737_0_B-x0814_0_B
     RDKit          3D

 15 15  0  0  0  0  0  0  0  0999 V2000
   15.6520   15.8410   11.9690 N   0  0  0  0  0  0  0  0  0  0  0  0
   16.6000   16.9060   12.1690 C   0  0  0  0  0  0  0  0  0  0  0  0
   16.0610   14.5320   11.7810 C   0  0  0  0  0  0  0  0  0  0  0  0
   17.2320   14.1930   11.6160 O   0  0  0  0  0  0  0  0  0  0  0  0
   14.9270   13.5060   11.8040 C   0  0  2  0  0  0  0  0  0  0  0  0
   14.4210   13.3070   13.2240 C   0  0  2  0  0  0  0  0  0  0  0  0
   15.2910   12.1520   11.1950 C   0  0  0  0  0  0  0  0  0  0  0  0
   15.5840   13.2570   14.1970 C   0  0  0  0  0  0  0  0  0  0  0  0
   13.4710   12.1470   13.3310 N   0  0  0  0  0  0  0  0  0  0  0  0
   14.0440   11.3400   10.9850 C   0  0  0  0  0  0  0  0  0  0  0  0
   11.9580   12.5170   13.9130 S   0  0  0  0  0  0  0  0  0  0  0  0
   13.4770   11.0000   12.3410 C   0  0  0  0  0  0  0  0  0  0  0  0
   12.0060   13.9370   14.1620 O   0  0  0  0  0  0  0  0  0  0  0  0
   11.6080   11.5490   14.9280 O   0  0  0  0  0  0  0  0  0  0  0  0
   11.0390   12.2010   12.4530 C   0  0  0  0  0  0  0  0  0  0  0  0
  1  2  1  0
  1  3  1  0
  3  4  2  0
  5  3  1  1
  5  6  1  0
  5  7  1  0
  6  8  1  1
  6  9  1  0
  7 10  1  0
  9 11  1  0
  9 12  1  0
 10 12  1  0
 11 13  2  0
 11 14  2  0
 11 15  1  0
M  END
