x0737_0_B_α-x0729_1_B_α
     RDKit          3D

 35 36  0  0  0  0  0  0  0  0999 V2000
   15.6910   15.6670   13.0630 N   0  0  0  0  0  0  0  0  0  0  0  0
   15.8520   16.9570   12.3650 C   0  0  0  0  0  0  0  0  0  0  0  0
   17.2700   17.5490   12.1570 C   0  0  0  0  0  0  0  0  0  0  0  0
   16.0690   14.4260   12.5280 C   0  0  0  0  0  0  0  0  0  0  0  0
   17.1810   14.2740   12.0250 O   0  0  0  0  0  0  0  0  0  0  0  0
   15.0930   13.2100   12.5810 C   0  0  1  0  0  0  0  0  0  0  0  0
   17.3340   19.0920   11.9490 C   0  0  0  0  0  0  0  0  0  0  0  0
   14.7700   12.6650   13.9520 C   0  0  1  0  0  0  0  0  0  0  0  0
   13.7120   13.2730   11.9540 C   0  0  0  0  0  0  0  0  0  0  0  0
   14.5870   13.7470   14.9990 C   0  0  0  0  0  0  0  0  0  0  0  0
   18.0240   19.6160   10.6570 C   0  0  0  0  0  0  0  0  0  0  0  0
   13.5380   11.7660   13.7870 N   0  0  0  0  0  0  0  0  0  0  0  0
   13.3900   11.8540   11.4330 C   0  0  0  0  0  0  0  0  0  0  0  0
   12.0130   12.4370   14.1280 S   0  0  0  0  0  0  0  0  0  0  0  0
   18.3670   21.1380   10.6380 C   0  0  0  0  0  0  0  0  0  0  0  0
   13.5510   10.9100   12.5800 C   0  0  0  0  0  0  0  0  0  0  0  0
   12.1390   13.8770   14.1030 O   0  0  0  0  0  0  0  0  0  0  0  0
   11.5120   11.7330   15.2800 O   0  0  0  0  0  0  0  0  0  0  0  0
   10.9780   11.9520   12.7580 C   0  0  0  0  0  0  0  0  0  0  0  0
   17.9090   22.0200    9.4420 C   0  0  0  0  0  0  0  0  0  0  0  0
   18.8080   23.1860    8.9500 C   0  0  0  0  0  0  0  0  0  0  0  0
   18.5100   24.6010    9.5090 C   0  0  0  0  0  0  0  0  0  0  0  0
   18.1410   25.6000    8.4630 N   0  0  0  0  0  0  0  0  0  0  0  0
   18.7850   27.0160    8.4170 S   0  0  2  0  0  0  0  0  0  0  0  0
   19.1750   27.7850    9.5820 O   0  0  0  0  0  0  0  0  0  0  0  0
   17.7430   28.0890    7.4590 C   0  0  0  0  0  0  0  0  0  0  0  0
   20.2900   26.8140    7.5800 N   0  0  0  0  0  0  0  0  0  0  0  0
   21.4790   27.4920    8.0880 C   0  0  0  0  0  0  0  0  0  0  0  0
   20.6110   25.9930    6.3780 C   0  0  1  0  0  0  0  0  0  0  0  0
   19.6270   24.8920    6.0220 C   0  0  0  0  0  0  0  0  0  0  0  0
   22.2790   28.1560    6.9690 C   0  0  0  0  0  0  0  0  0  0  0  0
   21.0780   26.8760    5.1900 C   0  0  1  0  0  0  0  0  0  0  0  0
   20.1630   26.9520    4.0380 C   0  0  0  0  0  0  0  0  0  0  0  0
   21.4950   28.2630    5.6660 C   0  0  0  0  0  0  0  0  0  0  0  0
   19.4830   27.0170    3.1020 N   0  0  0  0  0  0  0  0  0  0  0  0
  1  2  1  0
  2  3  1  0
  1  4  1  0
  4  5  2  0
  6  4  1  1
  3  7  1  0
  6  8  1  0
  6  9  1  0
  8 10  1  1
  7 11  1  0
  8 12  1  0
  9 13  1  0
 12 14  1  0
 11 15  1  0
 12 16  1  0
 13 16  1  0
 14 17  2  0
 14 18  2  0
 14 19  1  0
 15 20  1  0
 20 21  1  0
 21 22  1  0
 22 23  1  0
 23 24  2  0
 24 25  2  0
 24 26  1  6
 24 27  1  0
 27 28  1  0
 27 29  1  0
 29 30  1  6
 28 31  1  0
 29 32  1  0
 32 33  1  6
 31 34  1  0
 32 34  1  0
 33 35  3  0
M  END
