x0737_0_B-x0905_1_B
     RDKit          3D

 24 25  0  0  0  0  0  0  0  0999 V2000
   15.7650   15.8130   11.9490 N   0  0  0  0  0  0  0  0  0  0  0  0
   16.7490   16.8930   12.1270 C   0  0  0  0  0  0  0  0  0  0  0  0
   16.1900   18.2880   12.4490 C   0  0  0  0  0  0  0  0  0  0  0  0
   16.2600   14.5340   11.6820 C   0  0  0  0  0  0  0  0  0  0  0  0
   17.3940   14.3870   11.2450 O   0  0  0  0  0  0  0  0  0  0  0  0
   15.3830   13.2910   11.9620 C   0  0  1  0  0  0  0  0  0  0  0  0
   14.7690   18.5050   11.9540 C   0  0  0  0  0  0  0  0  0  0  0  0
   14.4250   13.4380   13.1250 C   0  0  2  0  0  0  0  0  0  0  0  0
   14.6520   12.7230   10.7590 C   0  0  0  0  0  0  0  0  0  0  0  0
   15.1950   13.6820   14.4210 C   0  0  0  0  0  0  0  0  0  0  0  0
   14.4050   19.8630   11.7310 O   0  0  0  0  0  0  0  0  0  0  0  0
   13.5980   12.2120   13.3600 N   0  0  0  0  0  0  0  0  0  0  0  0
   13.8650   11.4410   10.9940 C   0  0  0  0  0  0  0  0  0  0  0  0
   12.0490   12.5910   13.8900 S   0  0  0  0  0  0  0  0  0  0  0  0
   13.7350   11.0370   12.4510 C   0  0  0  0  0  0  0  0  0  0  0  0
   13.5800   20.4230   12.6830 C   0  0  0  0  0  0  0  0  0  0  0  0
   12.0270   14.0330   13.9690 O   0  0  0  0  0  0  0  0  0  0  0  0
   11.7150   11.7250   14.9950 O   0  0  0  0  0  0  0  0  0  0  0  0
   11.1290   12.1080   12.4790 C   0  0  0  0  0  0  0  0  0  0  0  0
   12.6650   19.6830   13.3440 N   0  0  0  0  0  0  0  0  0  0  0  0
   13.7750   21.7760   12.8910 C   0  0  0  0  0  0  0  0  0  0  0  0
   11.9160   20.3330   14.2550 C   0  0  0  0  0  0  0  0  0  0  0  0
   12.9890   22.4180   13.8380 C   0  0  0  0  0  0  0  0  0  0  0  0
   12.0410   21.6850   14.5360 C   0  0  0  0  0  0  0  0  0  0  0  0
  1  2  1  0
  2  3  1  0
  1  4  1  0
  4  5  2  0
  6  4  1  6
  3  7  1  0
  6  8  1  0
  6  9  1  0
  8 10  1  1
  7 11  1  0
  8 12  1  0
  9 13  1  0
 12 14  1  0
 12 15  1  0
 13 15  1  0
 11 16  1  0
 14 17  2  0
 14 18  2  0
 14 19  1  0
 16 20  2  0
 16 21  1  0
 20 22  1  0
 21 23  2  0
 22 24  2  0
 23 24  1  0
M  END
