x0737_0_B_α-x0729_0_A_α
     RDKit          3D

 35 36  0  0  0  0  0  0  0  0999 V2000
   15.8050   15.5620   11.9130 N   0  0  0  0  0  0  0  0  0  0  0  0
   16.3840   16.7750   12.5060 C   0  0  0  0  0  0  0  0  0  0  0  0
   17.6790   17.3500   11.8890 C   0  0  0  0  0  0  0  0  0  0  0  0
   16.4580   14.3140   11.9230 C   0  0  0  0  0  0  0  0  0  0  0  0
   17.6260   14.2050   11.5880 O   0  0  0  0  0  0  0  0  0  0  0  0
   15.6630   13.0600   12.3840 C   0  0  1  0  0  0  0  0  0  0  0  0
   17.6000   18.8390   11.4600 C   0  0  0  0  0  0  0  0  0  0  0  0
   14.5460   13.4300   13.3220 C   0  0  2  0  0  0  0  0  0  0  0  0
   15.1090   12.1560   11.2590 C   0  0  0  0  0  0  0  0  0  0  0  0
   15.0570   13.6130   14.7390 C   0  0  0  0  0  0  0  0  0  0  0  0
   18.2470   19.2140   10.1070 C   0  0  0  0  0  0  0  0  0  0  0  0
   13.4610   12.4290   13.2030 N   0  0  0  0  0  0  0  0  0  0  0  0
   14.5620   10.8210   11.6780 C   0  0  0  0  0  0  0  0  0  0  0  0
   11.9900   12.7120   13.8470 S   0  0  0  0  0  0  0  0  0  0  0  0
   18.8760   20.6340   10.0880 C   0  0  0  0  0  0  0  0  0  0  0  0
   13.7980   11.0020   12.9630 C   0  0  0  0  0  0  0  0  0  0  0  0
   11.9690   14.1520   13.9890 O   0  0  0  0  0  0  0  0  0  0  0  0
   11.7000   11.7990   14.9270 O   0  0  0  0  0  0  0  0  0  0  0  0
   11.0420   12.2630   12.4490 C   0  0  0  0  0  0  0  0  0  0  0  0
   18.1180   21.7040    9.2660 C   0  0  0  0  0  0  0  0  0  0  0  0
   18.9720   22.9030    8.7920 C   0  0  0  0  0  0  0  0  0  0  0  0
   18.3870   24.3080    9.0530 C   0  0  0  0  0  0  0  0  0  0  0  0
   19.4430   25.3580    9.4750 C   0  0  0  0  0  0  0  0  0  0  0  0
   19.2590   26.9130    8.5850 S   0  0  0  0  0  0  0  0  0  0  0  0
   18.0570   26.8200    7.8050 O   0  0  0  0  0  0  0  0  0  0  0  0
   19.4180   27.9930    9.5380 O   0  0  0  0  0  0  0  0  0  0  0  0
   20.6220   26.9560    7.5590 N   0  0  0  0  0  0  0  0  0  0  0  0
   21.7590   27.8110    7.9390 C   0  0  0  0  0  0  0  0  0  0  0  0
   20.6540   26.5380    6.1340 C   0  0  1  0  0  0  0  0  0  0  0  0
   19.7560   25.3680    5.7600 C   0  0  0  0  0  0  0  0  0  0  0  0
   21.9680   28.9990    6.9770 C   0  0  0  0  0  0  0  0  0  0  0  0
   20.4940   27.8130    5.2840 C   0  0  2  0  0  0  0  0  0  0  0  0
   20.2670   27.5320    3.8520 C   0  0  0  0  0  0  0  0  0  0  0  0
   21.7430   28.6810    5.4890 C   0  0  0  0  0  0  0  0  0  0  0  0
   20.0780   27.3600    2.7190 N   0  0  0  0  0  0  0  0  0  0  0  0
  1  2  1  0
  2  3  1  0
  1  4  1  0
  4  5  2  0
  6  4  1  6
  3  7  1  0
  6  8  1  0
  6  9  1  0
  8 10  1  1
  7 11  1  0
  8 12  1  0
  9 13  1  0
 12 14  1  0
 11 15  1  0
 12 16  1  0
 13 16  1  0
 14 17  2  0
 14 18  2  0
 14 19  1  0
 15 20  1  0
 20 21  1  0
 21 22  1  0
 22 23  1  0
 24 23  1  0
 24 25  2  0
 24 26  2  0
 24 27  1  0
 27 28  1  0
 27 29  1  0
 29 30  1  1
 28 31  1  0
 29 32  1  0
 32 33  1  6
 31 34  1  0
 32 34  1  0
 33 35  3  0
M  END
