x0737_0_B_α-x0905_0_B_α
     RDKit          3D

 24 25  0  0  0  0  0  0  0  0999 V2000
   15.5010   15.6190   12.0930 N   0  0  0  0  0  0  0  0  0  0  0  0
   16.1720   16.8430   12.5110 C   0  0  0  0  0  0  0  0  0  0  0  0
   15.1340   17.9390   12.7780 C   0  0  0  0  0  0  0  0  0  0  0  0
   16.1940   14.4610   11.7750 C   0  0  0  0  0  0  0  0  0  0  0  0
   17.3440   14.4630   11.3560 O   0  0  0  0  0  0  0  0  0  0  0  0
   15.4150   13.1550   12.0000 C   0  0  1  0  0  0  0  0  0  0  0  0
   14.8070   18.6100   11.4580 C   0  0  0  0  0  0  0  0  0  0  0  0
   14.4400   13.2710   13.1570 C   0  0  2  0  0  0  0  0  0  0  0  0
   14.6950   12.6250   10.7740 C   0  0  0  0  0  0  0  0  0  0  0  0
   15.1790   13.4350   14.4820 C   0  0  0  0  0  0  0  0  0  0  0  0
   14.0100   19.8080   11.4670 O   0  0  0  0  0  0  0  0  0  0  0  0
   13.5520   12.0790   13.3030 N   0  0  0  0  0  0  0  0  0  0  0  0
   13.8790   11.3520   10.9600 C   0  0  0  0  0  0  0  0  0  0  0  0
   11.9670   12.4980   13.6780 S   0  0  0  0  0  0  0  0  0  0  0  0
   13.7640   10.9140   12.4050 C   0  0  0  0  0  0  0  0  0  0  0  0
   13.3530   20.2620   12.5890 C   0  0  0  0  0  0  0  0  0  0  0  0
   11.7880   13.8430   13.1640 O   0  0  0  0  0  0  0  0  0  0  0  0
   11.7480   12.1410   15.0620 O   0  0  0  0  0  0  0  0  0  0  0  0
   11.0250   11.3980   12.6850 C   0  0  0  0  0  0  0  0  0  0  0  0
   12.5400   19.4740   13.3200 N   0  0  0  0  0  0  0  0  0  0  0  0
   13.5990   21.5980   12.8850 C   0  0  0  0  0  0  0  0  0  0  0  0
   11.9430   20.0530   14.3850 C   0  0  0  0  0  0  0  0  0  0  0  0
   12.9730   22.1610   13.9870 C   0  0  0  0  0  0  0  0  0  0  0  0
   12.1250   21.3770   14.7560 C   0  0  0  0  0  0  0  0  0  0  0  0
  1  2  1  0
  2  3  1  0
  1  4  1  0
  4  5  2  0
  6  4  1  6
  3  7  1  0
  6  8  1  0
  6  9  1  0
  8 10  1  1
  7 11  1  0
  8 12  1  0
  9 13  1  0
 12 14  1  0
 12 15  1  0
 13 15  1  0
 11 16  1  0
 14 17  2  0
 14 18  2  0
 14 19  1  0
 16 20  2  0
 16 21  1  0
 20 22  1  0
 21 23  2  0
 22 24  2  0
 23 24  1  0
M  END
