x0737_0_B-x0905_1_B
     RDKit          3D

 24 25  0  0  0  0  0  0  0  0999 V2000
   15.5600   15.6360   11.9230 N   0  0  0  0  0  0  0  0  0  0  0  0
   16.2970   16.7840   12.4220 C   0  0  0  0  0  0  0  0  0  0  0  0
   15.3460   17.8550   12.9510 C   0  0  0  0  0  0  0  0  0  0  0  0
   16.1950   14.4370   11.6690 C   0  0  0  0  0  0  0  0  0  0  0  0
   17.3540   14.3840   11.2720 O   0  0  0  0  0  0  0  0  0  0  0  0
   15.3820   13.1650   11.9310 C   0  0  1  0  0  0  0  0  0  0  0  0
   15.2790   19.0140   11.9730 C   0  0  0  0  0  0  0  0  0  0  0  0
   14.4240   13.3190   13.0910 C   0  0  2  0  0  0  0  0  0  0  0  0
   14.6460   12.6220   10.7210 C   0  0  0  0  0  0  0  0  0  0  0  0
   15.1850   13.5050   14.4010 C   0  0  0  0  0  0  0  0  0  0  0  0
   13.9590   19.4880   11.6800 O   0  0  0  0  0  0  0  0  0  0  0  0
   13.5460   12.1210   13.2700 N   0  0  0  0  0  0  0  0  0  0  0  0
   13.8520   11.3400   10.9370 C   0  0  0  0  0  0  0  0  0  0  0  0
   11.9710   12.5400   13.6740 S   0  0  0  0  0  0  0  0  0  0  0  0
   13.7420   10.9370   12.3910 C   0  0  0  0  0  0  0  0  0  0  0  0
   13.3350   20.2190   12.6650 C   0  0  0  0  0  0  0  0  0  0  0  0
   11.7870   13.8860   13.1750 O   0  0  0  0  0  0  0  0  0  0  0  0
   11.7770   12.1750   15.0590 O   0  0  0  0  0  0  0  0  0  0  0  0
   11.0200   11.4450   12.6840 C   0  0  0  0  0  0  0  0  0  0  0  0
   12.4390   19.6300   13.4770 N   0  0  0  0  0  0  0  0  0  0  0  0
   13.6860   21.5590   12.7530 C   0  0  0  0  0  0  0  0  0  0  0  0
   11.8670   20.4050   14.4140 C   0  0  0  0  0  0  0  0  0  0  0  0
   13.0760   22.3370   13.7310 C   0  0  0  0  0  0  0  0  0  0  0  0
   12.1470   21.7530   14.5800 C   0  0  0  0  0  0  0  0  0  0  0  0
  1  2  1  0
  2  3  1  0
  1  4  1  0
  4  5  2  0
  6  4  1  6
  3  7  1  0
  6  8  1  0
  6  9  1  0
  8 10  1  1
  7 11  1  0
  8 12  1  0
  9 13  1  0
 12 14  1  0
 12 15  1  0
 13 15  1  0
 11 16  1  0
 14 17  2  0
 14 18  2  0
 14 19  1  0
 16 20  2  0
 16 21  1  0
 20 22  1  0
 21 23  2  0
 22 24  2  0
 23 24  1  0
M  END
