x0737_0_B_α-x0142_0_A_β
     RDKit          3D

 23 24  0  0  0  0  0  0  0  0999 V2000
   15.4580   15.6600   11.9630 N   0  0  0  0  0  0  0  0  0  0  0  0
   16.1610   16.9060   12.1780 C   0  0  0  0  0  0  0  0  0  0  0  0
   16.2100   14.5300   11.6800 C   0  0  0  0  0  0  0  0  0  0  0  0
   17.3290   14.6250   11.1910 O   0  0  0  0  0  0  0  0  0  0  0  0
   15.6490   13.1420   12.0350 C   0  0  1  0  0  0  0  0  0  0  0  0
   14.7220   13.0560   13.2530 C   0  0  2  0  0  0  0  0  0  0  0  0
   15.3010   12.2270   10.8560 C   0  0  0  0  0  0  0  0  0  0  0  0
   15.4440   12.1930   14.3350 C   0  0  1  0  0  0  0  0  0  0  0  0
   13.4440   12.3120   12.9890 N   0  0  0  0  0  0  0  0  0  0  0  0
   13.8450   11.8860   10.6570 C   0  0  0  0  0  0  0  0  0  0  0  0
   12.0320   12.7610   13.7540 S   0  0  0  0  0  0  0  0  0  0  0  0
   15.0420   12.4190   15.7950 C   0  0  0  0  0  0  0  0  0  0  0  0
   13.3160   11.2930   11.9210 C   0  0  0  0  0  0  0  0  0  0  0  0
   15.3000   10.7540   13.8330 C   0  0  0  0  0  0  0  0  0  0  0  0
   12.0510   14.2050   13.8490 O   0  0  0  0  0  0  0  0  0  0  0  0
   11.7850   11.8850   14.8810 O   0  0  0  0  0  0  0  0  0  0  0  0
   10.9710   12.2930   12.4440 C   0  0  0  0  0  0  0  0  0  0  0  0
   14.5590    9.7580   14.4830 C   0  0  0  0  0  0  0  0  0  0  0  0
   15.9410   10.4080   12.6290 C   0  0  0  0  0  0  0  0  0  0  0  0
   14.4600    8.4710   13.9370 C   0  0  0  0  0  0  0  0  0  0  0  0
   15.8380    9.1280   12.0870 C   0  0  0  0  0  0  0  0  0  0  0  0
   15.0930    8.1480   12.7350 C   0  0  0  0  0  0  0  0  0  0  0  0
   14.9810    6.8620   12.1910 N   0  0  0  0  0  0  0  0  0  0  0  0
  1  2  1  0
  1  3  1  0
  3  4  2  0
  5  3  1  6
  5  6  1  0
  5  7  1  0
  6  8  1  0
  6  9  1  6
  7 10  1  0
  9 11  1  0
  8 12  1  1
  9 13  1  0
 10 13  1  0
  8 14  1  0
 11 15  2  0
 11 16  2  0
 11 17  1  0
 14 18  2  0
 14 19  1  0
 18 20  1  0
 19 21  2  0
 20 22  2  0
 21 22  1  0
 22 23  1  0
M  END
