x0742_0_A-x1012_0_A
     RDKit          3D

 29 32  0  0  0  0  0  0  0  0999 V2000
   -5.5700   12.2710   -0.4840 C   0  0  0  0  0  0  0  0  0  0  0  0
   -6.6020   11.6430    0.4160 C   0  0  0  0  0  0  0  0  0  0  0  0
   -5.0860   11.6290   -1.4220 O   0  0  0  0  0  0  0  0  0  0  0  0
   -5.1800   13.7280   -0.1760 C   0  0  2  0  0  0  0  0  0  0  0  0
   -4.9650   13.8730    1.3440 C   0  0  0  0  0  0  0  0  0  0  0  0
   -6.3440   14.5770   -0.7160 C   0  0  0  0  0  0  0  0  0  0  0  0
   -3.9350   14.1990   -1.0000 C   0  0  1  0  0  0  0  0  0  0  0  0
   -4.3590   15.3740   -1.8740 C   0  0  0  0  0  0  0  0  0  0  0  0
   -2.6350   14.2030   -0.2560 C   0  0  0  0  0  0  0  0  0  0  0  0
   -3.8910   14.9050    1.6960 C   0  0  0  0  0  0  0  0  0  0  0  0
   -5.7010   15.8190   -1.3140 C   0  0  0  0  0  0  0  0  0  0  0  0
   -1.4530   13.8730   -0.8460 C   0  0  0  0  0  0  0  0  0  0  0  0
   -2.6060   14.5490    1.0730 C   0  0  0  0  0  0  0  0  0  0  0  0
   -1.4960   14.5790    1.8310 N   0  0  0  0  0  0  0  0  0  0  0  0
   -0.2880   13.8900   -0.1120 C   0  0  0  0  0  0  0  0  0  0  0  0
    0.9140   13.5130   -0.8610 C   0  0  0  0  0  0  0  0  0  0  0  0
   -0.3490   14.2470    1.2250 C   0  0  0  0  0  0  0  0  0  0  0  0
    0.6570   13.9040   -2.1260 N   0  0  0  0  0  0  0  0  0  0  0  0
    0.3140   13.1250   -3.0050 C   0  0  0  0  0  0  0  0  0  0  0  0
    0.2230   11.7850   -2.8170 O   0  0  0  0  0  0  0  0  0  0  0  0
   -0.0420   13.7600   -4.2400 C   0  0  0  0  0  0  0  0  0  0  0  0
   -1.3380   13.4650   -4.8970 C   0  0  0  0  0  0  0  0  0  0  0  0
    1.0400   14.3590   -5.0540 C   0  0  0  0  0  0  0  0  0  0  0  0
   -1.9210   14.8540   -5.1240 C   0  0  0  0  0  0  0  0  0  0  0  0
    0.5710   15.7940   -5.1510 C   0  0  0  0  0  0  0  0  0  0  0  0
   -0.9150   15.9810   -5.0990 N   0  0  0  0  0  0  0  0  0  0  0  0
   -1.2930   17.2760   -4.8770 C   0  0  0  0  0  0  0  0  0  0  0  0
   -0.3220   18.2060   -4.7610 N   0  0  0  0  0  0  0  0  0  0  0  0
   -2.4500   17.6340   -4.7780 O   0  0  0  0  0  0  0  0  0  0  0  0
  1  2  1  0
  1  3  2  0
  4  1  1  1
  4  5  1  0
  4  6  1  0
  4  7  1  0
  7  8  1  1
  7  9  1  0
  5 10  1  0
  6 11  1  0
  8 11  1  0
  9 12  1  0
  9 13  2  0
 10 13  1  0
 13 14  1  0
 12 15  2  0
 15 16  1  0
 14 17  2  0
 15 17  1  0
 16 18  1  0
 18 19  2  3
 19 20  1  0
 19 21  1  0
 21 22  1  0
 21 23  1  0
 22 24  1  0
 23 25  1  0
 24 26  1  0
 25 26  1  0
 26 27  1  0
 27 28  1  0
 27 29  2  0
M  END
