x0742_0_A-x0895_1_A
     RDKit          3D

 18 20  0  0  0  0  0  0  0  0999 V2000
   -5.4870   12.2530   -0.5490 C   0  0  0  0  0  0  0  0  0  0  0  0
   -6.4500   11.8490    0.5380 C   0  0  0  0  0  0  0  0  0  0  0  0
   -5.2720   11.4660   -1.4790 O   0  0  0  0  0  0  0  0  0  0  0  0
   -4.7820   13.6300   -0.5230 C   0  0  2  0  0  0  0  0  0  0  0  0
   -4.5900   14.3540    0.8210 C   0  0  2  0  0  0  0  0  0  0  0  0
   -5.6760   14.6490   -1.2460 C   0  0  0  0  0  0  0  0  0  0  0  0
   -3.4040   13.4400   -1.2230 C   0  0  0  0  0  0  0  0  0  0  0  0
   -5.8210   14.6480    1.5310 O   0  0  0  0  0  0  0  0  0  0  0  0
   -4.1730   15.6580    0.2850 C   0  0  0  0  0  0  0  0  0  0  0  0
   -2.2120   13.8490   -0.3700 C   0  0  0  0  0  0  0  0  0  0  0  0
   -3.5830   13.7830    1.7270 C   0  0  0  0  0  0  0  0  0  0  0  0
   -4.9670   15.9790   -0.9610 C   0  0  0  0  0  0  0  0  0  0  0  0
   -3.2800   16.3020    0.8120 O   0  0  0  0  0  0  0  0  0  0  0  0
   -0.9770   14.0820   -0.9730 C   0  0  0  0  0  0  0  0  0  0  0  0
   -2.2960   14.0030    1.0150 C   0  0  0  0  0  0  0  0  0  0  0  0
   -1.2670   14.3570    1.7910 N   0  0  0  0  0  0  0  0  0  0  0  0
    0.1000   14.4560   -0.1880 C   0  0  0  0  0  0  0  0  0  0  0  0
   -0.1050   14.5780    1.1740 C   0  0  0  0  0  0  0  0  0  0  0  0
  1  2  1  0
  1  3  2  0
  4  1  1  1
  4  5  1  0
  4  6  1  0
  4  7  1  0
  5  8  1  1
  5  9  1  0
  7 10  1  0
  5 11  1  0
  6 12  1  0
  9 12  1  0
  9 13  2  0
 10 14  2  0
 10 15  1  0
 11 15  1  0
 15 16  2  0
 14 17  1  0
 16 18  1  0
 17 18  2  0
M  END
