x0742_0_A_α-x0471_0_A_α
     RDKit          3D

 27 30  0  0  0  0  0  0  0  0999 V2000
   -5.1670   11.9680   -0.8400 C   0  0  0  0  0  0  0  0  0  0  0  0
   -6.2870   11.5380    0.0820 C   0  0  0  0  0  0  0  0  0  0  0  0
   -4.5670   11.1360   -1.5170 O   0  0  0  0  0  0  0  0  0  0  0  0
   -4.8070   13.4410   -1.0020 C   0  0  2  0  0  0  0  0  0  0  0  0
   -5.2120   14.2760    0.2250 C   0  0  2  0  0  0  0  0  0  0  0  0
   -5.6720   13.7890   -2.2340 C   0  0  0  0  0  0  0  0  0  0  0  0
   -3.4150   13.8380   -1.5510 C   0  0  1  0  0  0  0  0  0  0  0  0
   -3.6610   15.1390   -2.3300 C   0  0  0  0  0  0  0  0  0  0  0  0
   -2.3400   14.0300   -0.5350 C   0  0  0  0  0  0  0  0  0  0  0  0
   -4.0580   14.7180    1.1940 C   0  0  0  0  0  0  0  0  0  0  0  0
   -6.2910   13.6410    1.0480 N   0  0  0  0  0  0  0  0  0  0  0  0
   -6.0200   15.3820   -0.3930 C   0  0  0  0  0  0  0  0  0  0  0  0
   -5.0680   15.0150   -2.8770 C   0  0  0  0  0  0  0  0  0  0  0  0
   -1.0120   13.8030   -0.8860 C   0  0  0  0  0  0  0  0  0  0  0  0
   -2.6270   14.4340    0.7620 C   0  0  0  0  0  0  0  0  0  0  0  0
   -7.2790   15.3060   -0.1120 N   0  0  0  0  0  0  0  0  0  0  0  0
   -7.3840   14.2870    0.7800 C   0  0  0  0  0  0  0  0  0  0  0  0
   -8.7250   13.9820    1.4310 C   0  0  0  0  0  0  0  0  0  0  0  0
   -1.6440   14.5990    1.6940 N   0  0  0  0  0  0  0  0  0  0  0  0
   -0.0080   13.9720    0.0440 C   0  0  0  0  0  0  0  0  0  0  0  0
   -8.5610   14.0250    2.8870 N   0  0  0  0  0  0  0  0  0  0  0  0
   -0.3690   14.3650    1.3170 C   0  0  0  0  0  0  0  0  0  0  0  0
   -9.0810   15.0830    3.6180 C   0  0  0  0  0  0  0  0  0  0  0  0
   -9.4040   16.1400    3.0920 O   0  0  0  0  0  0  0  0  0  0  0  0
   -9.2500   14.8320    5.1210 C   0  0  0  0  0  0  0  0  0  0  0  0
   -9.6460   13.3910    5.4220 C   0  0  0  0  0  0  0  0  0  0  0  0
   -7.9980   15.2380    5.8940 C   0  0  0  0  0  0  0  0  0  0  0  0
  1  2  1  0
  1  3  2  0
  4  1  1  1
  4  5  1  0
  4  6  1  0
  4  7  1  0
  7  8  1  1
  7  9  1  0
  5 10  1  1
  5 11  1  0
  5 12  1  0
  6 13  1  0
  8 13  1  0
  9 14  1  0
  9 15  2  0
 10 15  1  0
 12 16  2  0
 11 17  2  0
 16 17  1  0
 17 18  1  0
 15 19  1  0
 14 20  2  0
 18 21  1  0
 19 22  2  0
 20 22  1  0
 21 23  1  0
 23 24  2  0
 23 25  1  0
 25 26  1  0
 25 27  1  0
M  END
