x0742_0_A-x0852_0_B
     RDKit          3D

 29 32  0  0  0  0  0  0  0  0999 V2000
   -5.4610   12.1960   -0.6160 C   0  0  0  0  0  0  0  0  0  0  0  0
   -6.3970   11.4940    0.3660 C   0  0  0  0  0  0  0  0  0  0  0  0
   -7.8490   11.9720    0.4120 C   0  0  0  0  0  0  0  0  0  0  0  0
   -5.1180   11.6530   -1.6680 O   0  0  0  0  0  0  0  0  0  0  0  0
   -4.9540   13.5970   -0.2430 C   0  0  2  0  0  0  0  0  0  0  0  0
   -4.6610   13.5590    1.2610 C   0  0  0  0  0  0  0  0  0  0  0  0
   -6.0370   14.6530   -0.5300 C   0  0  0  0  0  0  0  0  0  0  0  0
   -3.7220   14.0050   -1.1520 C   0  0  1  0  0  0  0  0  0  0  0  0
   -8.0190   13.4940    0.4390 C   0  0  0  0  0  0  0  0  0  0  0  0
   -4.1920   15.2470   -1.9280 C   0  0  0  0  0  0  0  0  0  0  0  0
   -2.4160   14.1410   -0.3740 C   0  0  0  0  0  0  0  0  0  0  0  0
   -3.7730   14.7150    1.6360 C   0  0  0  0  0  0  0  0  0  0  0  0
   -5.3420   15.8320   -1.1390 C   0  0  0  0  0  0  0  0  0  0  0  0
   -7.9640   14.0590    1.8650 C   0  0  0  0  0  0  0  0  0  0  0  0
   -1.1430   13.9460   -0.9200 C   0  0  0  0  0  0  0  0  0  0  0  0
   -2.4630   14.4840    0.9850 C   0  0  0  0  0  0  0  0  0  0  0  0
   -1.3950   14.6250    1.7690 N   0  0  0  0  0  0  0  0  0  0  0  0
   -0.0180   14.0940   -0.1160 C   0  0  0  0  0  0  0  0  0  0  0  0
   -8.9290   15.1930    2.1570 C   0  0  0  0  0  0  0  0  0  0  0  0
   -0.2070   14.4300    1.2140 C   0  0  0  0  0  0  0  0  0  0  0  0
   -8.2400   14.9200    3.4030 C   0  0  0  0  0  0  0  0  0  0  0  0
   -9.7740   16.2650    2.6320 C   0  0  0  0  0  0  0  0  0  0  0  0
  -10.9350   17.0230    1.3260 Br  0  0  0  0  0  0  0  0  0  0  0  0
   -8.3310   15.4810    4.6780 C   0  0  0  0  0  0  0  0  0  0  0  0
   -9.9280   16.8830    3.8800 C   0  0  0  0  0  0  0  0  0  0  0  0
   -7.5160   14.9710    5.6470 O   0  0  0  0  0  0  0  0  0  0  0  0
   -9.1970   16.4920    4.9470 C   0  0  0  0  0  0  0  0  0  0  0  0
   -9.3720   17.1250    6.2220 C   0  0  0  0  0  0  0  0  0  0  0  0
   -9.5940   17.6260    7.2510 N   0  0  0  0  0  0  0  0  0  0  0  0
  1  2  1  0
  2  3  1  0
  1  4  2  0
  5  1  1  6
  5  6  1  0
  5  7  1  0
  5  8  1  0
  3  9  1  0
  8 10  1  1
  8 11  1  0
  6 12  1  0
  7 13  1  0
 10 13  1  0
  9 14  1  0
 11 15  1  0
 11 16  2  0
 12 16  1  0
 16 17  1  0
 15 18  2  0
 14 19  1  0
 17 20  2  0
 18 20  1  0
 19 21  2  0
 19 22  1  0
 22 23  1  0
 21 24  1  0
 22 25  2  0
 24 26  1  0
 24 27  2  0
 25 27  1  0
 27 28  1  0
 28 29  3  0
M  END
