x0742_0_A-x0962_0_A
     RDKit          3D

 18 20  0  0  0  0  0  0  0  0999 V2000
   -5.3960   12.4500   -0.8670 C   0  0  0  0  0  0  0  0  0  0  0  0
   -6.3430   11.9900    0.2170 C   0  0  0  0  0  0  0  0  0  0  0  0
   -5.4140   11.8410   -1.9380 O   0  0  0  0  0  0  0  0  0  0  0  0
   -4.3860   13.6210   -0.6470 C   0  0  2  0  0  0  0  0  0  0  0  0
   -4.4320   14.3800    0.6610 C   0  0  1  0  0  0  0  0  0  0  0  0
   -4.6710   14.9700   -1.2360 C   0  0  1  0  0  0  0  0  0  0  0  0
   -3.0220   13.1350   -1.1070 C   0  0  0  0  0  0  0  0  0  0  0  0
   -4.1380   15.1640   -2.5670 C   0  0  0  0  0  0  0  0  0  0  0  0
   -5.9270   14.6500    0.7310 C   0  0  0  0  0  0  0  0  0  0  0  0
   -1.9450   13.7040   -0.2710 C   0  0  0  0  0  0  0  0  0  0  0  0
   -3.4920   13.9210    1.7250 C   0  0  0  0  0  0  0  0  0  0  0  0
   -6.1190   15.1740   -0.7430 C   0  0  0  0  0  0  0  0  0  0  0  0
   -3.5740   15.2980   -3.5670 N   0  0  0  0  0  0  0  0  0  0  0  0
   -0.7110   13.8700   -0.8610 C   0  0  0  0  0  0  0  0  0  0  0  0
   -2.1450   14.0700    1.0630 C   0  0  0  0  0  0  0  0  0  0  0  0
   -1.1680   14.5730    1.8040 N   0  0  0  0  0  0  0  0  0  0  0  0
    0.2990   14.3920   -0.1110 C   0  0  0  0  0  0  0  0  0  0  0  0
    0.0170   14.7170    1.1960 C   0  0  0  0  0  0  0  0  0  0  0  0
  1  2  1  0
  1  3  2  0
  4  1  1  1
  4  5  1  0
  4  6  1  0
  4  7  1  0
  6  8  1  6
  5  9  1  1
  7 10  1  0
  5 11  1  0
  6 12  1  0
  9 12  1  0
  8 13  3  0
 10 14  2  0
 10 15  1  0
 11 15  1  0
 15 16  2  0
 14 17  1  0
 16 18  1  0
 17 18  2  0
M  END
