x0742_0_A_α-x0895_0_A_α
     RDKit          3D

 18 20  0  0  0  0  0  0  0  0999 V2000
   -5.1340   12.4230   -0.7300 C   0  0  0  0  0  0  0  0  0  0  0  0
   -6.1250   11.7900    0.2210 C   0  0  0  0  0  0  0  0  0  0  0  0
   -4.5440   11.6930   -1.5340 O   0  0  0  0  0  0  0  0  0  0  0  0
   -4.8980   13.9690   -0.7230 C   0  0  2  0  0  0  0  0  0  0  0  0
   -4.8880   14.7340    0.6020 C   0  0  1  0  0  0  0  0  0  0  0  0
   -6.2240   14.6100   -1.1620 C   0  0  0  0  0  0  0  0  0  0  0  0
   -3.6140   14.3570   -1.5450 C   0  0  0  0  0  0  0  0  0  0  0  0
   -6.1450   14.2900    1.3060 C   0  0  0  0  0  0  0  0  0  0  0  0
   -2.3470   14.1980   -0.7040 C   0  0  0  0  0  0  0  0  0  0  0  0
   -3.5650   15.1560    1.2030 C   0  0  0  0  0  0  0  0  0  0  0  0
   -7.1160   14.4370    0.1080 C   0  0  0  0  0  0  0  0  0  0  0  0
   -3.3650   15.0480    2.5830 O   0  0  0  0  0  0  0  0  0  0  0  0
   -3.5310   16.5090    0.8500 O   0  0  0  0  0  0  0  0  0  0  0  0
   -1.1440   13.6940   -1.1880 C   0  0  0  0  0  0  0  0  0  0  0  0
   -2.3570   14.5680    0.6170 C   0  0  0  0  0  0  0  0  0  0  0  0
   -1.3450   14.4800    1.5020 N   0  0  0  0  0  0  0  0  0  0  0  0
   -0.0590   13.5910   -0.3160 C   0  0  0  0  0  0  0  0  0  0  0  0
   -0.2250   13.9890    1.0090 C   0  0  0  0  0  0  0  0  0  0  0  0
  1  2  1  0
  1  3  2  0
  4  1  1  1
  4  5  1  0
  4  6  1  0
  4  7  1  0
  5  8  1  1
  7  9  1  0
  5 10  1  0
  6 11  1  0
  8 11  1  0
 10 12  1  0
 10 13  1  0
  9 14  2  0
  9 15  1  0
 10 15  1  0
 15 16  2  0
 14 17  1  0
 16 18  1  0
 17 18  2  0
M  END
