x0742_0_A-x0471_0_A
     RDKit          3D

 27 30  0  0  0  0  0  0  0  0999 V2000
   -5.1600   11.9680   -0.8470 C   0  0  0  0  0  0  0  0  0  0  0  0
   -6.2860   11.5340    0.0600 C   0  0  0  0  0  0  0  0  0  0  0  0
   -4.5410   11.1410   -1.5130 O   0  0  0  0  0  0  0  0  0  0  0  0
   -4.8140   13.4410   -1.0080 C   0  0  2  0  0  0  0  0  0  0  0  0
   -5.2260   14.2760    0.2190 C   0  0  2  0  0  0  0  0  0  0  0  0
   -5.6810   13.7830   -2.2410 C   0  0  0  0  0  0  0  0  0  0  0  0
   -3.4250   13.8340   -1.5580 C   0  0  1  0  0  0  0  0  0  0  0  0
   -3.6700   15.1330   -2.3380 C   0  0  0  0  0  0  0  0  0  0  0  0
   -2.3470   14.0230   -0.5400 C   0  0  0  0  0  0  0  0  0  0  0  0
   -4.0670   14.7140    1.1890 C   0  0  0  0  0  0  0  0  0  0  0  0
   -6.3020   13.6370    1.0410 N   0  0  0  0  0  0  0  0  0  0  0  0
   -6.0380   15.3840   -0.3920 C   0  0  0  0  0  0  0  0  0  0  0  0
   -5.0780   15.0080   -2.8840 C   0  0  0  0  0  0  0  0  0  0  0  0
   -1.0190   13.7920   -0.8930 C   0  0  0  0  0  0  0  0  0  0  0  0
   -2.6370   14.4280    0.7550 C   0  0  0  0  0  0  0  0  0  0  0  0
   -7.2970   15.3050   -0.1060 N   0  0  0  0  0  0  0  0  0  0  0  0
   -7.3980   14.2830    0.7810 C   0  0  0  0  0  0  0  0  0  0  0  0
   -8.7390   13.9710    1.4330 C   0  0  0  0  0  0  0  0  0  0  0  0
   -1.6520   14.5920    1.6910 N   0  0  0  0  0  0  0  0  0  0  0  0
   -0.0160   13.9590    0.0400 C   0  0  0  0  0  0  0  0  0  0  0  0
   -8.5700   14.0200    2.8900 N   0  0  0  0  0  0  0  0  0  0  0  0
   -0.3780   14.3540    1.3120 C   0  0  0  0  0  0  0  0  0  0  0  0
   -9.0880   15.0840    3.6170 C   0  0  0  0  0  0  0  0  0  0  0  0
   -9.3970   16.1450    3.0930 O   0  0  0  0  0  0  0  0  0  0  0  0
   -9.2640   14.8310    5.1220 C   0  0  0  0  0  0  0  0  0  0  0  0
   -9.6170   13.3760    5.4190 C   0  0  0  0  0  0  0  0  0  0  0  0
   -8.0360   15.2780    5.9070 C   0  0  0  0  0  0  0  0  0  0  0  0
  1  2  1  0
  1  3  2  0
  4  1  1  1
  4  5  1  0
  4  6  1  0
  4  7  1  0
  7  8  1  1
  7  9  1  0
  5 10  1  1
  5 11  1  0
  5 12  1  0
  6 13  1  0
  8 13  1  0
  9 14  1  0
  9 15  2  0
 10 15  1  0
 12 16  2  0
 11 17  2  0
 16 17  1  0
 17 18  1  0
 15 19  1  0
 14 20  2  0
 18 21  1  0
 19 22  2  0
 20 22  1  0
 21 23  1  0
 23 24  2  0
 23 25  1  0
 25 26  1  0
 25 27  1  0
M  END
