x0742_0_A-x0950_1_A
     RDKit          3D

 23 25  0  0  0  0  0  0  0  0999 V2000
   -5.5380   12.2010   -0.5930 C   0  0  0  0  0  0  0  0  0  0  0  0
   -6.6260   11.5900    0.2520 C   0  0  0  0  0  0  0  0  0  0  0  0
   -5.0660   11.5780   -1.5480 O   0  0  0  0  0  0  0  0  0  0  0  0
   -5.0710   13.6150   -0.2070 C   0  0  2  0  0  0  0  0  0  0  0  0
   -4.7450   13.5980    1.2950 C   0  0  0  0  0  0  0  0  0  0  0  0
   -6.2420   14.5460   -0.5530 C   0  0  0  0  0  0  0  0  0  0  0  0
   -3.8800   14.1300   -1.0940 C   0  0  1  0  0  0  0  0  0  0  0  0
   -4.4220   15.2710   -1.9530 C   0  0  0  0  0  0  0  0  0  0  0  0
   -2.5450   14.2630   -0.4300 C   0  0  0  0  0  0  0  0  0  0  0  0
   -3.7270   14.6640    1.6840 C   0  0  0  0  0  0  0  0  0  0  0  0
   -5.6150   15.7890   -1.1660 C   0  0  0  0  0  0  0  0  0  0  0  0
   -1.3630   14.1440   -1.1280 C   0  0  0  0  0  0  0  0  0  0  0  0
   -2.4770   14.5230    0.9230 C   0  0  0  0  0  0  0  0  0  0  0  0
   -1.3390   14.6640    1.6150 N   0  0  0  0  0  0  0  0  0  0  0  0
   -0.1570   14.2900   -0.4660 C   0  0  0  0  0  0  0  0  0  0  0  0
    1.0930   14.1650   -1.2760 C   0  0  0  0  0  0  0  0  0  0  0  0
   -0.2080   14.5500    0.9070 C   0  0  0  0  0  0  0  0  0  0  0  0
    0.7190   13.7380   -2.5940 O   0  0  0  0  0  0  0  0  0  0  0  0
    0.8710   12.4470   -3.0240 C   0  0  0  0  0  0  0  0  0  0  0  0
    1.3630   12.5240   -4.4720 C   0  0  2  0  0  0  0  0  0  0  0  0
    0.6410   11.4130   -2.4020 O   0  0  0  0  0  0  0  0  0  0  0  0
    1.1810   13.9410   -4.9760 C   0  0  0  0  0  0  0  0  0  0  0  0
    0.6950   11.6400   -5.3690 O   0  0  0  0  0  0  0  0  0  0  0  0
  1  2  1  0
  1  3  2  0
  4  1  1  6
  4  5  1  0
  4  6  1  0
  4  7  1  0
  7  8  1  1
  7  9  1  0
  5 10  1  0
  6 11  1  0
  8 11  1  0
  9 12  1  0
  9 13  2  0
 10 13  1  0
 13 14  1  0
 12 15  2  0
 15 16  1  0
 14 17  2  0
 15 17  1  0
 16 18  1  0
 18 19  1  0
 19 20  1  0
 19 21  2  0
 20 22  1  6
 20 23  1  0
M  END
