x0742_0_A-x0837_0_A
     RDKit          3D

 18 20  0  0  0  0  0  0  0  0999 V2000
   -5.4840   12.0870   -1.0710 C   0  0  0  0  0  0  0  0  0  0  0  0
   -6.5690   11.7000   -0.0960 C   0  0  0  0  0  0  0  0  0  0  0  0
   -5.2970   11.4080   -2.0780 O   0  0  0  0  0  0  0  0  0  0  0  0
   -4.6080   13.3130   -0.7860 C   0  0  2  0  0  0  0  0  0  0  0  0
   -4.8380   13.7560    0.6860 C   0  0  2  0  0  0  0  0  0  0  0  0
   -5.0410   14.5170   -1.6820 C   0  0  2  0  0  0  0  0  0  0  0  0
   -3.1780   12.9200   -1.1680 C   0  0  0  0  0  0  0  0  0  0  0  0
   -3.5380   15.0910   -3.0800 I   0  0  0  0  0  0  0  0  0  0  0  0
   -5.8880   14.7950    0.3720 C   0  0  0  0  0  0  0  0  0  0  0  0
   -2.1000   13.5910   -0.3670 C   0  0  0  0  0  0  0  0  0  0  0  0
   -3.6530   14.1960    1.5470 C   0  0  0  0  0  0  0  0  0  0  0  0
   -5.4110   15.6570   -0.7380 C   0  0  0  0  0  0  0  0  0  0  0  0
   -6.9940   14.8860    0.8970 O   0  0  0  0  0  0  0  0  0  0  0  0
   -0.8210   13.6280   -0.9050 C   0  0  0  0  0  0  0  0  0  0  0  0
   -2.3070   14.1730    0.8900 C   0  0  0  0  0  0  0  0  0  0  0  0
   -1.3170   14.7440    1.5950 N   0  0  0  0  0  0  0  0  0  0  0  0
    0.2010   14.2170   -0.1970 C   0  0  0  0  0  0  0  0  0  0  0  0
   -0.0940   14.7490    1.0350 C   0  0  0  0  0  0  0  0  0  0  0  0
  1  2  1  0
  1  3  2  0
  4  1  1  6
  4  5  1  0
  4  6  1  0
  4  7  1  0
  6  8  1  6
  5  9  1  0
  7 10  1  0
  5 11  1  6
  6 12  1  0
  9 12  1  0
  9 13  2  0
 10 14  2  0
 10 15  1  0
 11 15  1  0
 15 16  2  0
 14 17  1  0
 16 18  1  0
 17 18  2  0
M  END
