x0742_0_A_α-x0631_0_A_β
     RDKit          3D

 29 32  0  0  0  0  0  0  0  0999 V2000
   -5.2030   12.7530   -0.7820 C   0  0  0  0  0  0  0  0  0  0  0  0
   -4.9480   12.0290   -1.8240 N   0  0  0  0  0  0  0  0  0  0  0  0
   -5.1960   10.6370   -2.1170 C   0  0  0  0  0  0  0  0  0  0  0  0
   -5.8950   12.0440    0.3750 C   0  0  0  0  0  0  0  0  0  0  0  0
   -4.8780   14.2830   -0.6870 C   0  0  2  0  0  0  0  0  0  0  0  0
   -5.0340   14.8400    0.7370 C   0  0  0  0  0  0  0  0  0  0  0  0
   -5.6680   15.0300   -1.7860 C   0  0  0  0  0  0  0  0  0  0  0  0
   -3.5330   14.7050   -1.2670 C   0  0  2  0  0  0  0  0  0  0  0  0
   -3.9410   10.0700   -2.8000 C   0  0  0  0  0  0  0  0  0  0  0  0
   -3.5670   14.1530   -2.6860 C   0  0  0  0  0  0  0  0  0  0  0  0
   -2.3380   14.4910   -0.3960 C   0  0  0  0  0  0  0  0  0  0  0  0
   -3.8620   14.4480    1.6500 C   0  0  0  0  0  0  0  0  0  0  0  0
   -5.0260   14.4520   -3.0730 C   0  0  0  0  0  0  0  0  0  0  0  0
   -4.1630    8.8090   -3.6440 C   0  0  0  0  0  0  0  0  0  0  0  0
   -1.0450   14.4030   -0.9190 C   0  0  0  0  0  0  0  0  0  0  0  0
   -2.5050   14.3910    0.9850 C   0  0  0  0  0  0  0  0  0  0  0  0
   -3.1280    8.6160   -4.7580 C   0  0  0  0  0  0  0  0  0  0  0  0
   -1.4760   14.2310    1.8280 N   0  0  0  0  0  0  0  0  0  0  0  0
    0.0250   14.2260   -0.0490 C   0  0  0  0  0  0  0  0  0  0  0  0
   -3.6630    9.0280   -6.1330 C   0  0  0  0  0  0  0  0  0  0  0  0
   -0.2540   14.1490    1.3050 C   0  0  0  0  0  0  0  0  0  0  0  0
   -2.6420    8.8320   -7.2630 C   0  0  0  0  0  0  0  0  0  0  0  0
   -1.5070    7.8570   -6.9060 C   0  0  0  0  0  0  0  0  0  0  0  0
   -0.1680    8.5760   -6.7400 C   0  0  0  0  0  0  0  0  0  0  0  0
   -0.0170    9.5890   -7.7930 N   0  0  0  0  0  0  0  0  0  0  0  0
    0.8870    9.1970   -8.8350 N   0  0  0  0  0  0  0  0  0  0  0  0
    0.5220   10.8010   -7.3280 N   0  0  0  0  0  0  0  0  0  0  0  0
    0.9910   10.4640   -9.5520 C   0  0  0  0  0  0  0  0  0  0  0  0
    0.7140   11.5050   -8.5560 N   0  0  0  0  0  0  0  0  0  0  0  0
  1  2  2  3
  2  3  1  0
  1  4  1  0
  5  1  1  1
  5  6  1  0
  5  7  1  0
  5  8  1  0
  3  9  1  0
  8 10  1  6
  8 11  1  0
  6 12  1  0
  7 13  1  0
 10 13  1  0
  9 14  1  0
 11 15  1  0
 11 16  2  0
 12 16  1  0
 14 17  1  0
 16 18  1  0
 15 19  2  0
 17 20  1  0
 18 21  2  0
 19 21  1  0
 20 22  1  0
 22 23  1  0
 23 24  1  0
 24 25  1  0
 25 26  1  0
 25 27  1  0
 26 28  1  0
 27 29  1  0
 28 29  1  0
M  END
