x0742_0_A-x0128_0_A
     RDKit          3D

 26 29  0  0  0  0  0  0  0  0999 V2000
   -5.4920   12.2560   -0.7080 C   0  0  0  0  0  0  0  0  0  0  0  0
   -6.6380   11.3820   -0.2810 C   0  0  0  0  0  0  0  0  0  0  0  0
   -4.8540   11.9600   -1.7270 O   0  0  0  0  0  0  0  0  0  0  0  0
   -5.1590   13.4860    0.1500 C   0  0  2  0  0  0  0  0  0  0  0  0
   -4.5220   13.1910    1.4680 C   0  0  0  0  0  0  0  0  0  0  0  0
   -6.4530   14.3310    0.3870 C   0  0  1  0  0  0  0  0  0  0  0  0
   -4.2760   14.5430   -0.5280 C   0  0  2  0  0  0  0  0  0  0  0  0
   -6.5880   14.8310    1.8230 N   0  0  0  0  0  0  0  0  0  0  0  0
   -5.1210   14.9350   -1.7040 C   0  0  0  0  0  0  0  0  0  0  0  0
   -2.7780   14.5060   -0.3430 C   0  0  0  0  0  0  0  0  0  0  0  0
   -3.5870   14.3250    1.9100 C   0  0  0  0  0  0  0  0  0  0  0  0
   -6.3590   15.3340   -0.8530 C   0  0  0  0  0  0  0  0  0  0  0  0
   -7.7920   15.1390    2.5070 C   0  0  0  0  0  0  0  0  0  0  0  0
   -1.7210   14.5600   -1.2550 C   0  0  0  0  0  0  0  0  0  0  0  0
   -2.4640   14.4110    0.9800 C   0  0  0  0  0  0  0  0  0  0  0  0
   -8.8460   15.3280    1.9190 O   0  0  0  0  0  0  0  0  0  0  0  0
   -7.5990   15.2080    3.8990 N   0  0  0  0  0  0  0  0  0  0  0  0
   -1.2510   14.3810    1.5200 N   0  0  0  0  0  0  0  0  0  0  0  0
   -0.4180   14.5250   -0.7390 C   0  0  0  0  0  0  0  0  0  0  0  0
   -0.2610   14.4430    0.6360 C   0  0  0  0  0  0  0  0  0  0  0  0
   -8.3490   15.9140    4.9170 C   0  0  0  0  0  0  0  0  0  0  0  0
   -9.0790   17.0700    4.5910 C   0  0  0  0  0  0  0  0  0  0  0  0
   -8.4190   15.5380    6.2690 C   0  0  0  0  0  0  0  0  0  0  0  0
   -9.8160   17.8180    5.4560 N   0  0  0  0  0  0  0  0  0  0  0  0
   -9.1740   16.2900    7.1850 C   0  0  0  0  0  0  0  0  0  0  0  0
   -9.8490   17.4140    6.7360 C   0  0  0  0  0  0  0  0  0  0  0  0
  1  2  1  0
  1  3  2  0
  4  1  1  6
  4  5  1  0
  4  6  1  0
  4  7  1  0
  6  8  1  1
  7  9  1  6
  7 10  1  0
  5 11  1  0
  6 12  1  0
  9 12  1  0
  8 13  1  0
 10 14  1  0
 10 15  2  0
 11 15  1  0
 13 16  2  0
 13 17  1  0
 15 18  1  0
 14 19  2  0
 18 20  2  0
 19 20  1  0
 17 21  1  0
 21 22  2  0
 21 23  1  0
 22 24  1  0
 23 25  2  0
 24 26  2  0
 25 26  1  0
M  END
