x0742_0_A_α-x0574_0_A_α
     RDKit          3D

 18 20  0  0  0  0  0  0  0  0999 V2000
   -5.2650   12.3270   -0.8560 C   0  0  0  0  0  0  0  0  0  0  0  0
   -6.2180   12.0330    0.2840 C   0  0  0  0  0  0  0  0  0  0  0  0
   -5.0740   11.4610   -1.7120 O   0  0  0  0  0  0  0  0  0  0  0  0
   -4.5540   13.6970   -0.9730 C   0  0  2  0  0  0  0  0  0  0  0  0
   -4.4400   14.4710    0.3230 C   0  0  1  0  0  0  0  0  0  0  0  0
   -5.3950   14.6890   -1.8280 C   0  0  0  0  0  0  0  0  0  0  0  0
   -3.1220   13.4830   -1.5140 C   0  0  0  0  0  0  0  0  0  0  0  0
   -5.8020   15.0080    0.5630 C   0  0  1  0  0  0  0  0  0  0  0  0
   -2.0290   13.8510   -0.5190 C   0  0  0  0  0  0  0  0  0  0  0  0
   -3.6250   13.8210    1.3950 C   0  0  0  0  0  0  0  0  0  0  0  0
   -6.1160   15.5970   -0.8170 C   0  0  0  0  0  0  0  0  0  0  0  0
   -6.8280   14.1820    1.0420 O   0  0  0  0  0  0  0  0  0  0  0  0
   -0.7380   14.0530   -0.9740 C   0  0  0  0  0  0  0  0  0  0  0  0
   -2.2540   14.0050    0.8720 C   0  0  0  0  0  0  0  0  0  0  0  0
   -7.1320   14.4720    2.4010 C   0  0  0  0  0  0  0  0  0  0  0  0
   -1.3160   14.3220    1.7620 N   0  0  0  0  0  0  0  0  0  0  0  0
    0.2470   14.3880   -0.0700 C   0  0  0  0  0  0  0  0  0  0  0  0
   -0.0950   14.5050    1.2680 C   0  0  0  0  0  0  0  0  0  0  0  0
  1  2  1  0
  1  3  2  0
  4  1  1  1
  4  5  1  0
  4  6  1  0
  4  7  1  0
  5  8  1  0
  7  9  1  0
  5 10  1  1
  6 11  1  0
  8 11  1  0
  8 12  1  6
  9 13  2  0
  9 14  1  0
 10 14  1  0
 12 15  1  0
 14 16  2  0
 13 17  1  0
 16 18  1  0
 17 18  2  0
M  END
