x0742_0_A_α-x0524_0_A_α
     RDKit          3D

 37 41  0  0  0  0  0  0  0  0999 V2000
   -5.3840   12.1620   -0.7120 C   0  0  0  0  0  0  0  0  0  0  0  0
   -5.1920   11.3110   -1.6850 N   0  0  0  0  0  0  0  0  0  0  0  0
   -4.3280   11.5220   -2.8550 C   0  0  0  0  0  0  0  0  0  0  0  0
   -6.2990   11.8630    0.4630 C   0  0  0  0  0  0  0  0  0  0  0  0
   -4.6880   13.5500   -0.7240 C   0  0  2  0  0  0  0  0  0  0  0  0
   -4.6800   14.2970    0.6400 C   0  0  2  0  0  0  0  0  0  0  0  0
   -5.5400   14.5150   -1.5600 C   0  0  0  0  0  0  0  0  0  0  0  0
   -3.2640   13.4040   -1.3090 C   0  0  0  0  0  0  0  0  0  0  0  0
   -3.2490   10.4160   -2.8910 C   0  0  0  0  0  0  0  0  0  0  0  0
   -4.3740   15.7200    0.2100 C   0  0  0  0  0  0  0  0  0  0  0  0
   -2.1310   13.8370   -0.4070 C   0  0  0  0  0  0  0  0  0  0  0  0
   -3.6150   13.8580    1.6140 C   0  0  0  0  0  0  0  0  0  0  0  0
   -5.0700   15.8920   -1.1310 C   0  0  0  0  0  0  0  0  0  0  0  0
   -2.1640   10.6050   -3.9730 C   0  0  0  0  0  0  0  0  0  0  0  0
   -0.8690   14.0380   -0.9520 C   0  0  0  0  0  0  0  0  0  0  0  0
   -2.2890   14.0420    0.9720 C   0  0  0  0  0  0  0  0  0  0  0  0
   -2.6020   10.3450   -5.4270 C   0  0  0  0  0  0  0  0  0  0  0  0
   -1.2910   14.4060    1.7820 N   0  0  0  0  0  0  0  0  0  0  0  0
    0.1700   14.4250   -0.1270 C   0  0  0  0  0  0  0  0  0  0  0  0
   -1.8860    9.1620   -6.1110 C   0  0  0  0  0  0  0  0  0  0  0  0
   -0.0990   14.5890    1.2130 C   0  0  0  0  0  0  0  0  0  0  0  0
   -0.8530    9.5610   -7.1540 C   0  0  0  0  0  0  0  0  0  0  0  0
   -0.4840    8.6780   -8.1320 N   0  0  0  0  0  0  0  0  0  0  0  0
   -0.3160   10.6730   -7.1630 O   0  0  0  0  0  0  0  0  0  0  0  0
    0.5820    8.6190   -9.0500 C   0  0  0  0  0  0  0  0  0  0  0  0
    1.6790    7.7760   -8.9380 C   0  0  0  0  0  0  0  0  0  0  0  0
    0.5110    9.4770  -10.1500 C   0  0  0  0  0  0  0  0  0  0  0  0
    2.6910    7.7900   -9.9120 C   0  0  0  0  0  0  0  0  0  0  0  0
    1.5210    9.4890  -11.1250 C   0  0  0  0  0  0  0  0  0  0  0  0
    2.6290    8.6400  -11.0160 C   0  0  0  0  0  0  0  0  0  0  0  0
    3.6250    8.6740  -12.0140 N   0  0  0  0  0  0  0  0  0  0  0  0
    3.8600    9.5620  -13.0740 C   0  0  0  0  0  0  0  0  0  0  0  0
    3.1690   10.7660  -13.2390 C   0  0  0  0  0  0  0  0  0  0  0  0
    4.8380    9.2310  -14.0160 C   0  0  0  0  0  0  0  0  0  0  0  0
    3.4470   11.6160  -14.3080 C   0  0  0  0  0  0  0  0  0  0  0  0
    5.1210   10.0800  -15.0890 C   0  0  0  0  0  0  0  0  0  0  0  0
    4.4260   11.2730  -15.2340 C   0  0  0  0  0  0  0  0  0  0  0  0
  1  2  2  3
  2  3  1  0
  1  4  1  0
  5  1  1  1
  5  6  1  0
  5  7  1  0
  5  8  1  0
  3  9  1  0
  6 10  1  6
  8 11  1  0
  6 12  1  0
  7 13  1  0
 10 13  1  0
  9 14  1  0
 11 15  2  0
 11 16  1  0
 12 16  1  0
 14 17  1  0
 16 18  2  0
 15 19  1  0
 17 20  1  0
 18 21  1  0
 19 21  2  0
 20 22  1  0
 22 23  1  0
 22 24  2  0
 23 25  1  0
 25 26  2  0
 25 27  1  0
 26 28  1  0
 27 29  2  0
 28 30  2  0
 29 30  1  0
 30 31  1  0
 31 32  1  0
 32 33  2  0
 32 34  1  0
 33 35  1  0
 34 36  2  0
 35 37  2  0
 36 37  1  0
M  END
