x0742_0_A-x0421_0_A
     RDKit          3D

 21 24  0  0  0  0  0  0  0  0999 V2000
   -5.0390   12.3320    0.1840 C   0  0  0  0  0  0  0  0  0  0  0  0
   -6.0250   11.7590    1.1620 C   0  0  0  0  0  0  0  0  0  0  0  0
   -5.0200   11.6020   -0.9290 O   0  0  0  0  0  0  0  0  0  0  0  0
   -4.1020   13.6820    0.0990 C   0  0  1  0  0  0  0  0  0  0  0  0
   -5.3480   14.3340    0.7630 S   0  0  0  0  0  0  0  0  0  0  0  0
   -4.1680   14.6800   -0.9970 C   0  0  2  0  0  0  0  0  0  0  0  0
   -3.5780   12.8100   -1.0230 C   0  0  0  0  0  0  0  0  0  0  0  0
   -3.4200   14.7750   -2.2310 C   0  0  0  0  0  0  0  0  0  0  0  0
   -4.6940   16.0920    0.3510 C   0  0  0  0  0  0  0  0  0  0  0  0
   -2.3110   13.3540   -0.5040 C   0  0  0  0  0  0  0  0  0  0  0  0
   -3.9780   13.4010    1.1460 C   0  0  0  0  0  0  0  0  0  0  0  0
   -7.0970   14.4190    1.4510 C   0  0  0  0  0  0  0  0  0  0  0  0
   -7.1380   13.8080    0.2200 C   0  0  0  0  0  0  0  0  0  0  0  0
   -3.5850   15.7940   -0.2440 C   0  0  0  0  0  0  0  0  0  0  0  0
   -3.7710   14.7820   -3.6040 N   0  0  0  0  0  0  0  0  0  0  0  0
   -2.1350   14.9140   -2.1710 O   0  0  0  0  0  0  0  0  0  0  0  0
   -1.0730   13.5700   -0.9590 C   0  0  0  0  0  0  0  0  0  0  0  0
   -2.5570   13.7010    0.8220 C   0  0  0  0  0  0  0  0  0  0  0  0
   -1.6450   14.2350    1.7060 N   0  0  0  0  0  0  0  0  0  0  0  0
   -0.1380   14.0980   -0.1350 C   0  0  0  0  0  0  0  0  0  0  0  0
   -0.4680   14.4010    1.1530 C   0  0  0  0  0  0  0  0  0  0  0  0
  1  2  1  0
  1  3  2  0
  4  1  1  6
  4  5  1  0
  4  6  1  0
  4  7  1  0
  6  8  1  6
  5  9  1  0
  7 10  1  0
  5 11  1  0
  5 12  1  0
  5 13  1  0
 12 13  1  0
  6 14  1  0
  9 14  1  0
  8 15  1  0
  8 16  2  0
 10 17  2  0
 10 18  1  0
 11 18  1  0
 18 19  2  0
 17 20  1  0
 19 21  1  0
 20 21  2  0
M  END
