x0742_0_A-x0900_0_A
     RDKit          3D

 17 19  0  0  0  0  0  0  0  0999 V2000
   -5.3460   12.1450   -1.0130 C   0  0  0  0  0  0  0  0  0  0  0  0
   -6.3940   11.7630    0.0160 C   0  0  0  0  0  0  0  0  0  0  0  0
   -5.0900   11.3860   -1.9430 O   0  0  0  0  0  0  0  0  0  0  0  0
   -4.6110   13.4820   -0.8580 C   0  0  2  0  0  0  0  0  0  0  0  0
   -4.9060   13.9600    0.5980 C   0  0  2  0  0  0  0  0  0  0  0  0
   -5.1940   14.5850   -1.8030 C   0  0  0  0  0  0  0  0  0  0  0  0
   -3.1650   13.2150   -1.2600 C   0  0  0  0  0  0  0  0  0  0  0  0
   -6.0210   14.9040    0.2070 C   0  0  0  0  0  0  0  0  0  0  0  0
   -2.1050   13.7400   -0.3710 C   0  0  0  0  0  0  0  0  0  0  0  0
   -3.7520   14.5440    1.4240 C   0  0  0  0  0  0  0  0  0  0  0  0
   -5.5830   15.7440   -0.9250 C   0  0  0  0  0  0  0  0  0  0  0  0
   -7.1450   14.9560    0.6810 O   0  0  0  0  0  0  0  0  0  0  0  0
   -0.7960   13.6250   -0.8060 C   0  0  0  0  0  0  0  0  0  0  0  0
   -2.3590   14.3400    0.8700 C   0  0  0  0  0  0  0  0  0  0  0  0
   -1.3560   14.7760    1.6530 N   0  0  0  0  0  0  0  0  0  0  0  0
    0.2220   14.0850   -0.0200 C   0  0  0  0  0  0  0  0  0  0  0  0
   -0.1040   14.6350    1.1950 C   0  0  0  0  0  0  0  0  0  0  0  0
  1  2  1  0
  1  3  2  0
  4  1  1  6
  4  5  1  0
  4  6  1  0
  4  7  1  0
  5  8  1  0
  7  9  1  0
  5 10  1  6
  6 11  1  0
  8 11  1  0
  8 12  2  0
  9 13  2  0
  9 14  1  0
 10 14  1  0
 14 15  2  0
 13 16  1  0
 15 17  1  0
 16 17  2  0
M  END
