x0742_0_A-x0685_0_A
     RDKit          3D

 21 23  0  0  0  0  0  0  0  0999 V2000
   -5.3290   12.0590   -0.5090 C   0  0  0  0  0  0  0  0  0  0  0  0
   -6.5760   11.3450   -0.0520 C   0  0  0  0  0  0  0  0  0  0  0  0
   -4.6210   11.5790   -1.3980 O   0  0  0  0  0  0  0  0  0  0  0  0
   -5.0300   13.3970    0.1670 C   0  0  2  0  0  0  0  0  0  0  0  0
   -4.5670   13.2880    1.6290 C   0  0  0  0  0  0  0  0  0  0  0  0
   -6.2960   14.2660    0.0890 C   0  0  1  0  0  0  0  0  0  0  0  0
   -4.0940   14.3540   -0.5610 C   0  0  2  0  0  0  0  0  0  0  0  0
   -6.3160   14.9320    1.4070 N   0  0  0  0  0  0  0  0  0  0  0  0
   -4.7690   14.4520   -1.8870 C   0  0  1  0  0  0  0  0  0  0  0  0
   -2.6240   14.3250   -0.2730 C   0  0  0  0  0  0  0  0  0  0  0  0
   -3.5860   14.4270    1.9320 C   0  0  0  0  0  0  0  0  0  0  0  0
   -6.0290   15.1160   -1.2390 C   0  0  0  0  0  0  0  0  0  0  0  0
   -7.5020   14.7810    2.2780 C   0  0  0  0  0  0  0  0  0  0  0  0
   -3.9530   15.2090   -2.8400 C   0  0  0  0  0  0  0  0  0  0  0  0
   -1.5120   14.2670   -1.1210 C   0  0  0  0  0  0  0  0  0  0  0  0
   -2.4160   14.3810    1.0600 C   0  0  0  0  0  0  0  0  0  0  0  0
   -7.7560   13.3200    2.6170 C   0  0  0  0  0  0  0  0  0  0  0  0
   -3.2680   15.7360   -3.6100 N   0  0  0  0  0  0  0  0  0  0  0  0
   -1.2540   14.3990    1.6710 N   0  0  0  0  0  0  0  0  0  0  0  0
   -0.2550   14.2820   -0.5160 C   0  0  0  0  0  0  0  0  0  0  0  0
   -0.2120   14.3540    0.8710 C   0  0  0  0  0  0  0  0  0  0  0  0
  1  2  1  0
  1  3  2  0
  4  1  1  6
  4  5  1  0
  4  6  1  0
  4  7  1  0
  6  8  1  1
  7  9  1  0
  7 10  1  6
  5 11  1  0
  6 12  1  0
  9 12  1  0
  8 13  1  0
  9 14  1  6
 10 15  1  0
 10 16  2  0
 11 16  1  0
 13 17  1  0
 14 18  3  0
 16 19  1  0
 15 20  2  0
 19 21  2  0
 20 21  1  0
M  END
