x0742_0_A_α-x0900_0_A_α
     RDKit          3D

 17 19  0  0  0  0  0  0  0  0999 V2000
   -5.3510   12.1170   -1.0320 C   0  0  0  0  0  0  0  0  0  0  0  0
   -6.4180   11.7500   -0.0160 C   0  0  0  0  0  0  0  0  0  0  0  0
   -5.0530   11.3350   -1.9270 O   0  0  0  0  0  0  0  0  0  0  0  0
   -4.6560   13.4760   -0.9050 C   0  0  2  0  0  0  0  0  0  0  0  0
   -4.9360   13.9540    0.5510 C   0  0  2  0  0  0  0  0  0  0  0  0
   -5.3000   14.5420   -1.8480 C   0  0  0  0  0  0  0  0  0  0  0  0
   -3.2080   13.2660   -1.3400 C   0  0  0  0  0  0  0  0  0  0  0  0
   -6.0770   14.8770    0.1830 C   0  0  0  0  0  0  0  0  0  0  0  0
   -2.1470   13.7610   -0.4340 C   0  0  0  0  0  0  0  0  0  0  0  0
   -3.7860   14.5760    1.3540 C   0  0  0  0  0  0  0  0  0  0  0  0
   -5.6920   15.7070   -0.9760 C   0  0  0  0  0  0  0  0  0  0  0  0
   -7.1800   14.9270    0.6980 O   0  0  0  0  0  0  0  0  0  0  0  0
   -0.8350   13.6260   -0.8570 C   0  0  0  0  0  0  0  0  0  0  0  0
   -2.3980   14.3490    0.8120 C   0  0  0  0  0  0  0  0  0  0  0  0
   -1.4000   14.7610    1.6140 N   0  0  0  0  0  0  0  0  0  0  0  0
    0.1820   14.0550   -0.0510 C   0  0  0  0  0  0  0  0  0  0  0  0
   -0.1440   14.6050    1.1660 C   0  0  0  0  0  0  0  0  0  0  0  0
  1  2  1  0
  1  3  2  0
  4  1  1  1
  4  5  1  0
  4  6  1  0
  4  7  1  0
  5  8  1  0
  7  9  1  0
  5 10  1  6
  6 11  1  0
  8 11  1  0
  8 12  2  0
  9 13  2  0
  9 14  1  0
 10 14  1  0
 14 15  2  0
 13 16  1  0
 15 17  1  0
 16 17  2  0
M  END
