x0742_0_A_α-x0837_0_A_α
     RDKit          3D

 18 20  0  0  0  0  0  0  0  0999 V2000
   -5.4850   12.0840   -1.0710 C   0  0  0  0  0  0  0  0  0  0  0  0
   -6.5710   11.6970   -0.0980 C   0  0  0  0  0  0  0  0  0  0  0  0
   -5.2960   11.4060   -2.0770 O   0  0  0  0  0  0  0  0  0  0  0  0
   -4.6080   13.3110   -0.7860 C   0  0  2  0  0  0  0  0  0  0  0  0
   -4.8390   13.7570    0.6890 C   0  0  2  0  0  0  0  0  0  0  0  0
   -5.0380   14.5120   -1.6820 C   0  0  2  0  0  0  0  0  0  0  0  0
   -3.1820   12.9160   -1.1650 C   0  0  0  0  0  0  0  0  0  0  0  0
   -3.5350   15.0870   -3.0810 I   0  0  0  0  0  0  0  0  0  0  0  0
   -5.8860   14.7940    0.3690 C   0  0  0  0  0  0  0  0  0  0  0  0
   -2.1000   13.5890   -0.3670 C   0  0  0  0  0  0  0  0  0  0  0  0
   -3.6490   14.1950    1.5460 C   0  0  0  0  0  0  0  0  0  0  0  0
   -5.4110   15.6550   -0.7420 C   0  0  0  0  0  0  0  0  0  0  0  0
   -6.9930   14.8860    0.8960 O   0  0  0  0  0  0  0  0  0  0  0  0
   -0.8210   13.6260   -0.9090 C   0  0  0  0  0  0  0  0  0  0  0  0
   -2.3080   14.1720    0.8900 C   0  0  0  0  0  0  0  0  0  0  0  0
   -1.3150   14.7460    1.5930 N   0  0  0  0  0  0  0  0  0  0  0  0
    0.1990   14.2190   -0.2020 C   0  0  0  0  0  0  0  0  0  0  0  0
   -0.0910   14.7530    1.0270 C   0  0  0  0  0  0  0  0  0  0  0  0
  1  2  1  0
  1  3  2  0
  4  1  1  6
  4  5  1  0
  4  6  1  0
  4  7  1  0
  6  8  1  6
  5  9  1  0
  7 10  1  0
  5 11  1  6
  6 12  1  0
  9 12  1  0
  9 13  2  0
 10 14  2  0
 10 15  1  0
 11 15  1  0
 15 16  2  0
 14 17  1  0
 16 18  1  0
 17 18  2  0
M  END
