x0742_0_A-x0465_0_A
     RDKit          3D

 30 33  0  0  0  0  0  0  0  0999 V2000
   -5.5240   12.2610   -0.5130 C   0  0  0  0  0  0  0  0  0  0  0  0
   -6.5830   11.5790    0.3100 C   0  0  0  0  0  0  0  0  0  0  0  0
   -4.9780   11.6590   -1.4430 O   0  0  0  0  0  0  0  0  0  0  0  0
   -5.1960   13.7140   -0.1490 C   0  0  2  0  0  0  0  0  0  0  0  0
   -4.8920   13.8070    1.3590 C   0  0  0  0  0  0  0  0  0  0  0  0
   -6.4280   14.5890   -0.4910 C   0  0  0  0  0  0  0  0  0  0  0  0
   -4.0510   14.2390   -1.0500 C   0  0  1  0  0  0  0  0  0  0  0  0
   -4.4600   15.6790   -1.3310 C   0  0  0  0  0  0  0  0  0  0  0  0
   -2.7040   14.1860   -0.4000 C   0  0  0  0  0  0  0  0  0  0  0  0
   -3.8120   14.8410    1.6810 C   0  0  0  0  0  0  0  0  0  0  0  0
   -5.9670   15.6330   -1.4960 C   0  0  0  0  0  0  0  0  0  0  0  0
   -1.5750   13.8430   -1.1110 C   0  0  0  0  0  0  0  0  0  0  0  0
   -2.5790   14.4810    0.9460 C   0  0  0  0  0  0  0  0  0  0  0  0
   -1.4220   14.4590    1.6240 N   0  0  0  0  0  0  0  0  0  0  0  0
   -0.3630   13.7960   -0.4690 C   0  0  0  0  0  0  0  0  0  0  0  0
    0.8470   13.3950   -1.2380 C   0  0  0  0  0  0  0  0  0  0  0  0
   -0.3460   14.1170    0.9010 C   0  0  0  0  0  0  0  0  0  0  0  0
    0.7500   13.5580   -2.6640 N   0  0  0  0  0  0  0  0  0  0  0  0
    0.6610   12.4810   -3.3600 C   0  0  0  0  0  0  0  0  0  0  0  0
    0.5800   12.6000   -4.8690 C   0  0  1  0  0  0  0  0  0  0  0  0
    0.6440   11.2270   -2.8490 O   0  0  0  0  0  0  0  0  0  0  0  0
    1.8380   13.3200   -5.2860 C   0  0  0  0  0  0  0  0  0  0  0  0
    0.6020   11.3410   -5.5360 O   0  0  0  0  0  0  0  0  0  0  0  0
   -0.6110   10.7330   -5.6730 C   0  0  0  0  0  0  0  0  0  0  0  0
   -0.7130    9.6970   -6.6070 C   0  0  0  0  0  0  0  0  0  0  0  0
   -1.7240   11.1020   -4.9260 C   0  0  0  0  0  0  0  0  0  0  0  0
    0.3550    9.3360   -7.3330 F   0  0  0  0  0  0  0  0  0  0  0  0
   -1.9110    9.0290   -6.7960 C   0  0  0  0  0  0  0  0  0  0  0  0
   -2.9340   10.4320   -5.1150 C   0  0  0  0  0  0  0  0  0  0  0  0
   -3.0270    9.3940   -6.0490 C   0  0  0  0  0  0  0  0  0  0  0  0
  1  2  1  0
  1  3  2  0
  4  1  1  6
  4  5  1  0
  4  6  1  0
  4  7  1  0
  7  8  1  1
  7  9  1  0
  5 10  1  0
  6 11  1  0
  8 11  1  0
  9 12  1  0
  9 13  2  0
 10 13  1  0
 13 14  1  0
 12 15  2  0
 15 16  1  0
 14 17  2  0
 15 17  1  0
 16 18  1  0
 18 19  2  3
 19 20  1  0
 19 21  1  0
 20 22  1  6
 20 23  1  0
 23 24  1  0
 24 25  2  0
 24 26  1  0
 25 27  1  0
 25 28  1  0
 26 29  2  0
 28 30  2  0
 29 30  1  0
M  END
