x0742_0_A-x1018_0_A
     RDKit          3D

 17 19  0  0  0  0  0  0  0  0999 V2000
   -5.4490   12.0560   -0.9050 C   0  0  0  0  0  0  0  0  0  0  0  0
   -6.5390   11.6630    0.0630 C   0  0  0  0  0  0  0  0  0  0  0  0
   -5.1930   11.3360   -1.8670 O   0  0  0  0  0  0  0  0  0  0  0  0
   -4.6720   13.3620   -0.6650 C   0  0  2  0  0  0  0  0  0  0  0  0
   -4.7960   13.7910    0.8410 C   0  0  2  0  0  0  0  0  0  0  0  0
   -5.4040   14.4690   -1.4410 C   0  0  0  0  0  0  0  0  0  0  0  0
   -3.2460   13.1690   -1.2020 C   0  0  0  0  0  0  0  0  0  0  0  0
   -5.7480   14.9630    0.8530 C   0  0  1  0  0  0  0  0  0  0  0  0
   -2.1320   13.7420   -0.3780 C   0  0  0  0  0  0  0  0  0  0  0  0
   -3.5520   13.9470    1.7030 C   0  0  0  0  0  0  0  0  0  0  0  0
   -5.4350   15.6470   -0.4800 C   0  0  0  0  0  0  0  0  0  0  0  0
   -7.4700   14.4730    0.9760 Cl  0  0  0  0  0  0  0  0  0  0  0  0
   -0.8930   13.9180   -0.9910 C   0  0  0  0  0  0  0  0  0  0  0  0
   -2.2680   14.0980    0.9570 C   0  0  0  0  0  0  0  0  0  0  0  0
   -1.2540   14.5970    1.6800 N   0  0  0  0  0  0  0  0  0  0  0  0
    0.1580   14.4330   -0.2600 C   0  0  0  0  0  0  0  0  0  0  0  0
   -0.0750   14.7500    1.0560 C   0  0  0  0  0  0  0  0  0  0  0  0
  1  2  1  0
  1  3  2  0
  4  1  1  1
  4  5  1  0
  4  6  1  0
  4  7  1  0
  5  8  1  0
  7  9  1  0
  5 10  1  6
  6 11  1  0
  8 11  1  0
  8 12  1  6
  9 13  2  0
  9 14  1  0
 10 14  1  0
 14 15  2  0
 13 16  1  0
 15 17  1  0
 16 17  2  0
M  END
