x0742_0_A_α-x0910_2_B_α
     RDKit          3D

 29 32  0  0  0  0  0  0  0  0999 V2000
   -5.2330   12.7780   -0.4250 C   0  0  0  0  0  0  0  0  0  0  0  0
   -6.0350   12.2140    0.7230 C   0  0  0  0  0  0  0  0  0  0  0  0
   -4.8020   11.9920   -1.2840 O   0  0  0  0  0  0  0  0  0  0  0  0
   -4.9940   14.3320   -0.5110 C   0  0  2  0  0  0  0  0  0  0  0  0
   -4.9690   14.9620    0.8820 C   0  0  0  0  0  0  0  0  0  0  0  0
   -5.9560   14.9310   -1.5770 C   0  0  2  0  0  0  0  0  0  0  0  0
   -3.6640   14.6670   -1.2180 C   0  0  2  0  0  0  0  0  0  0  0  0
   -7.4710   14.6290   -1.4240 C   0  0  0  0  0  0  0  0  0  0  0  0
   -3.8670   14.0230   -2.5850 C   0  0  0  0  0  0  0  0  0  0  0  0
   -2.4080   14.4800   -0.3970 C   0  0  0  0  0  0  0  0  0  0  0  0
   -3.8090   14.4510    1.7280 C   0  0  0  0  0  0  0  0  0  0  0  0
   -5.3650   14.2850   -2.8660 C   0  0  0  0  0  0  0  0  0  0  0  0
   -8.4420   15.6890   -1.9550 C   0  0  0  0  0  0  0  0  0  0  0  0
   -1.1230   14.3970   -0.9530 C   0  0  0  0  0  0  0  0  0  0  0  0
   -2.5020   14.3960    0.9960 C   0  0  0  0  0  0  0  0  0  0  0  0
   -9.6790   15.9640   -1.0900 C   0  0  0  0  0  0  0  0  0  0  0  0
   -1.4480   14.2590    1.8060 N   0  0  0  0  0  0  0  0  0  0  0  0
   -0.0190   14.2450   -0.1170 C   0  0  0  0  0  0  0  0  0  0  0  0
   -9.7520   17.4150   -0.6210 C   0  0  0  0  0  0  0  0  0  0  0  0
   -0.2470   14.1860    1.2470 C   0  0  0  0  0  0  0  0  0  0  0  0
  -11.0570   18.2010   -0.8260 C   0  0  0  0  0  0  0  0  0  0  0  0
  -11.2740   18.7490   -2.2420 C   0  0  0  0  0  0  0  0  0  0  0  0
  -12.3800   19.7940   -2.4150 C   0  0  0  0  0  0  0  0  0  0  0  0
  -11.8850   21.0950   -2.8820 N   0  0  0  0  0  0  0  0  0  0  0  0
  -12.2950   22.1760   -2.1790 C   0  0  0  0  0  0  0  0  0  0  0  0
  -11.7680   23.4250   -2.3810 N   0  0  0  0  0  0  0  0  0  0  0  0
  -13.2060   22.2550   -1.2310 N   0  0  0  0  0  0  0  0  0  0  0  0
  -12.3310   24.3220   -1.5650 N   0  0  0  0  0  0  0  0  0  0  0  0
  -13.1940   23.5720   -0.8840 C   0  0  0  0  0  0  0  0  0  0  0  0
  1  2  1  0
  1  3  2  0
  4  1  1  1
  4  5  1  0
  4  6  1  0
  4  7  1  0
  6  8  1  1
  7  9  1  6
  7 10  1  0
  5 11  1  0
  6 12  1  0
  9 12  1  0
  8 13  1  0
 10 14  1  0
 10 15  2  0
 11 15  1  0
 13 16  1  0
 15 17  1  0
 14 18  2  0
 16 19  1  0
 17 20  2  0
 18 20  1  0
 19 21  1  0
 21 22  1  0
 22 23  1  0
 23 24  1  0
 24 25  1  0
 25 26  1  0
 25 27  2  0
 26 28  1  0
 27 29  1  0
 28 29  2  0
M  END
