x0742_0_A-x0591_0_A
     RDKit          3D

 30 33  0  0  0  0  0  0  0  0999 V2000
   -5.3210   11.4940   -0.3060 C   0  0  0  0  0  0  0  0  0  0  0  0
   -6.6400   11.0030    0.2460 C   0  0  0  0  0  0  0  0  0  0  0  0
   -4.7290   10.8720   -1.1950 O   0  0  0  0  0  0  0  0  0  0  0  0
   -4.8200   12.8240    0.1760 C   0  0  2  0  0  0  0  0  0  0  0  0
   -4.6010   13.1210    1.6850 C   0  0  0  0  0  0  0  0  0  0  0  0
   -6.1200   13.3930   -0.2410 C   0  0  1  0  0  0  0  0  0  0  0  0
   -3.9750   13.6980   -0.7320 C   0  0  2  0  0  0  0  0  0  0  0  0
   -6.4280   14.6950    0.2250 N   0  0  0  0  0  0  0  0  0  0  0  0
   -4.4210   13.0650   -2.0380 C   0  0  0  0  0  0  0  0  0  0  0  0
   -2.5510   13.9180   -0.2820 C   0  0  0  0  0  0  0  0  0  0  0  0
   -3.7320   14.3860    1.8020 C   0  0  0  0  0  0  0  0  0  0  0  0
   -5.9610   13.1600   -1.7870 C   0  0  0  0  0  0  0  0  0  0  0  0
   -7.1850   14.6960    1.4840 C   0  0  0  0  0  0  0  0  0  0  0  0
   -6.5790   15.4950   -0.8510 C   0  0  0  0  0  0  0  0  0  0  0  0
   -1.3600   13.8150   -1.0100 C   0  0  0  0  0  0  0  0  0  0  0  0
   -2.4700   14.2760    1.0370 C   0  0  0  0  0  0  0  0  0  0  0  0
   -7.5130   16.2510   -1.0360 O   0  0  0  0  0  0  0  0  0  0  0  0
   -1.3400   14.5400    1.6940 N   0  0  0  0  0  0  0  0  0  0  0  0
   -0.1520   14.0910   -0.3490 C   0  0  0  0  0  0  0  0  0  0  0  0
   -5.5210   15.3170   -1.8640 C   0  0  0  0  0  0  0  0  0  0  0  0
   -0.2190   14.4480    0.9940 C   0  0  0  0  0  0  0  0  0  0  0  0
   -4.1670   15.4640   -1.5220 C   0  0  0  0  0  0  0  0  0  0  0  0
   -5.8830   14.9840   -3.1620 C   0  0  0  0  0  0  0  0  0  0  0  0
   -3.1810   15.2750   -2.5040 C   0  0  0  0  0  0  0  0  0  0  0  0
   -4.9010   14.8000   -4.1380 C   0  0  0  0  0  0  0  0  0  0  0  0
   -3.5590   14.9520   -3.8080 C   0  0  0  0  0  0  0  0  0  0  0  0
   -2.3460   14.7360   -5.0870 S   0  0  0  0  0  0  0  0  0  0  0  0
   -1.5410   13.3430   -4.6720 N   0  0  0  0  0  0  0  0  0  0  0  0
   -1.3610   15.7450   -4.9670 O   0  0  0  0  0  0  0  0  0  0  0  0
   -3.0470   14.5010   -6.3250 O   0  0  0  0  0  0  0  0  0  0  0  0
  1  2  1  0
  1  3  2  0
  4  1  1  1
  4  5  1  0
  4  6  1  0
  4  7  1  0
  6  8  1  6
  7  9  1  6
  7 10  1  0
  5 11  1  0
  6 12  1  0
  9 12  1  0
  8 13  1  0
  8 14  1  0
 10 15  1  0
 10 16  2  0
 11 16  1  0
 14 17  2  0
 16 18  1  0
 15 19  2  0
 14 20  1  0
 18 21  2  0
 19 21  1  0
 20 22  2  0
 20 23  1  0
 22 24  1  0
 23 25  2  0
 24 26  2  0
 25 26  1  0
 26 27  1  0
 27 28  1  0
 27 29  2  0
 27 30  2  0
M  END
