x0742_0_A-x0689_0_A
     RDKit          3D

 18 20  0  0  0  0  0  0  0  0999 V2000
   -5.3460   12.5330   -0.9950 C   0  0  0  0  0  0  0  0  0  0  0  0
   -6.2130   11.8150    0.0130 C   0  0  0  0  0  0  0  0  0  0  0  0
   -4.8840   11.8920   -1.9450 O   0  0  0  0  0  0  0  0  0  0  0  0
   -5.0480   14.0510   -0.8160 C   0  0  2  0  0  0  0  0  0  0  0  0
   -4.8470   14.4510    0.6270 C   0  0  1  0  0  0  0  0  0  0  0  0
   -6.3480   14.8260   -1.1340 C   0  0  0  0  0  0  0  0  0  0  0  0
   -3.7970   14.5140   -1.5980 C   0  0  0  0  0  0  0  0  0  0  0  0
   -6.2410   14.2800    1.2510 C   0  0  0  0  0  0  0  0  0  0  0  0
   -2.4760   13.9270   -1.0210 C   0  0  1  0  0  0  0  0  0  0  0  0
   -3.7110   13.6600    1.2810 C   0  0  0  0  0  0  0  0  0  0  0  0
   -7.2200   14.5540    0.0930 C   0  0  0  0  0  0  0  0  0  0  0  0
   -1.1310   14.4090   -1.6220 C   0  0  0  0  0  0  0  0  0  0  0  0
   -2.3830   13.7870    0.5070 C   0  0  2  0  0  0  0  0  0  0  0  0
   -1.5600   14.7610    1.1350 N   0  0  0  0  0  0  0  0  0  0  0  0
   -0.0230   14.6870   -0.6350 C   0  0  0  0  0  0  0  0  0  0  0  0
   -2.2330   15.9180    1.5010 N   0  0  0  0  0  0  0  0  0  0  0  0
   -0.2850   14.8490    0.6590 C   0  0  0  0  0  0  0  0  0  0  0  0
   -3.6720   15.9690    1.2590 C   0  0  0  0  0  0  0  0  0  0  0  0
  1  2  1  0
  1  3  2  0
  4  1  1  1
  4  5  1  0
  4  6  1  0
  4  7  1  0
  5  8  1  1
  9  7  1  1
  5 10  1  0
  6 11  1  0
  8 11  1  0
  9 12  1  0
  9 13  1  0
 13 10  1  1
 13 14  1  0
 12 15  1  0
 14 16  1  0
 14 17  1  0
 15 17  2  0
 16 18  1  0
M  END
