x0742_0_A-x0900_0_A
     RDKit          3D

 17 19  0  0  0  0  0  0  0  0999 V2000
   -5.3480   12.1460   -1.0180 C   0  0  0  0  0  0  0  0  0  0  0  0
   -6.3900   11.7700    0.0170 C   0  0  0  0  0  0  0  0  0  0  0  0
   -5.1000   11.3910   -1.9520 O   0  0  0  0  0  0  0  0  0  0  0  0
   -4.6110   13.4800   -0.8600 C   0  0  2  0  0  0  0  0  0  0  0  0
   -4.8990   13.9570    0.5950 C   0  0  2  0  0  0  0  0  0  0  0  0
   -5.1940   14.5810   -1.8060 C   0  0  0  0  0  0  0  0  0  0  0  0
   -3.1650   13.2160   -1.2670 C   0  0  0  0  0  0  0  0  0  0  0  0
   -6.0190   14.9010    0.2070 C   0  0  0  0  0  0  0  0  0  0  0  0
   -2.1030   13.7370   -0.3770 C   0  0  0  0  0  0  0  0  0  0  0  0
   -3.7470   14.5450    1.4190 C   0  0  0  0  0  0  0  0  0  0  0  0
   -5.5800   15.7410   -0.9250 C   0  0  0  0  0  0  0  0  0  0  0  0
   -7.1410   14.9550    0.6830 O   0  0  0  0  0  0  0  0  0  0  0  0
   -0.7930   13.6230   -0.8140 C   0  0  0  0  0  0  0  0  0  0  0  0
   -2.3560   14.3360    0.8650 C   0  0  0  0  0  0  0  0  0  0  0  0
   -1.3550   14.7680    1.6500 N   0  0  0  0  0  0  0  0  0  0  0  0
    0.2240   14.0730   -0.0220 C   0  0  0  0  0  0  0  0  0  0  0  0
   -0.1020   14.6310    1.1900 C   0  0  0  0  0  0  0  0  0  0  0  0
  1  2  1  0
  1  3  2  0
  4  1  1  6
  4  5  1  0
  4  6  1  0
  4  7  1  0
  5  8  1  0
  7  9  1  0
  5 10  1  6
  6 11  1  0
  8 11  1  0
  8 12  2  0
  9 13  2  0
  9 14  1  0
 10 14  1  0
 14 15  2  0
 13 16  1  0
 15 17  1  0
 16 17  2  0
M  END
