x0742_0_A_α-x1012_0_A_α
     RDKit          3D

 29 32  0  0  0  0  0  0  0  0999 V2000
   -5.5740   12.2710   -0.4860 C   0  0  0  0  0  0  0  0  0  0  0  0
   -6.6060   11.6370    0.4120 C   0  0  0  0  0  0  0  0  0  0  0  0
   -5.0950   11.6330   -1.4280 O   0  0  0  0  0  0  0  0  0  0  0  0
   -5.1800   13.7270   -0.1740 C   0  0  2  0  0  0  0  0  0  0  0  0
   -4.9650   13.8760    1.3450 C   0  0  0  0  0  0  0  0  0  0  0  0
   -6.3380   14.5780   -0.7130 C   0  0  0  0  0  0  0  0  0  0  0  0
   -3.9320   14.1970   -1.0020 C   0  0  1  0  0  0  0  0  0  0  0  0
   -4.3540   15.3710   -1.8750 C   0  0  0  0  0  0  0  0  0  0  0  0
   -2.6310   14.2010   -0.2550 C   0  0  0  0  0  0  0  0  0  0  0  0
   -3.8890   14.9030    1.6980 C   0  0  0  0  0  0  0  0  0  0  0  0
   -5.6950   15.8190   -1.3120 C   0  0  0  0  0  0  0  0  0  0  0  0
   -1.4510   13.8710   -0.8460 C   0  0  0  0  0  0  0  0  0  0  0  0
   -2.6030   14.5460    1.0720 C   0  0  0  0  0  0  0  0  0  0  0  0
   -1.4920   14.5790    1.8320 N   0  0  0  0  0  0  0  0  0  0  0  0
   -0.2870   13.8860   -0.1100 C   0  0  0  0  0  0  0  0  0  0  0  0
    0.9110   13.5080   -0.8600 C   0  0  0  0  0  0  0  0  0  0  0  0
   -0.3480   14.2440    1.2250 C   0  0  0  0  0  0  0  0  0  0  0  0
    0.6550   13.9030   -2.1230 N   0  0  0  0  0  0  0  0  0  0  0  0
    0.3170   13.1240   -3.0040 C   0  0  0  0  0  0  0  0  0  0  0  0
    0.2300   11.7830   -2.8210 O   0  0  0  0  0  0  0  0  0  0  0  0
   -0.0400   13.7640   -4.2410 C   0  0  0  0  0  0  0  0  0  0  0  0
   -1.3370   13.4650   -4.8920 C   0  0  0  0  0  0  0  0  0  0  0  0
    1.0420   14.3580   -5.0500 C   0  0  0  0  0  0  0  0  0  0  0  0
   -1.9250   14.8530   -5.1250 C   0  0  0  0  0  0  0  0  0  0  0  0
    0.5670   15.7930   -5.1560 C   0  0  0  0  0  0  0  0  0  0  0  0
   -0.9170   15.9810   -5.0990 N   0  0  0  0  0  0  0  0  0  0  0  0
   -1.2940   17.2780   -4.8770 C   0  0  0  0  0  0  0  0  0  0  0  0
   -0.3170   18.2040   -4.7650 N   0  0  0  0  0  0  0  0  0  0  0  0
   -2.4460   17.6420   -4.7710 O   0  0  0  0  0  0  0  0  0  0  0  0
  1  2  1  0
  1  3  2  0
  4  1  1  1
  4  5  1  0
  4  6  1  0
  4  7  1  0
  7  8  1  1
  7  9  1  0
  5 10  1  0
  6 11  1  0
  8 11  1  0
  9 12  1  0
  9 13  2  0
 10 13  1  0
 13 14  1  0
 12 15  2  0
 15 16  1  0
 14 17  2  0
 15 17  1  0
 16 18  1  0
 18 19  2  3
 19 20  1  0
 19 21  1  0
 21 22  1  0
 21 23  1  0
 22 24  1  0
 23 25  1  0
 24 26  1  0
 25 26  1  0
 26 27  1  0
 27 28  1  0
 27 29  2  0
M  END
