x0742_0_A-x0253_0_A
     RDKit          3D

 31 34  0  0  0  0  0  0  0  0999 V2000
   -5.5970   12.1780   -0.4180 C   0  0  0  0  0  0  0  0  0  0  0  0
   -6.4030   11.9290    0.8310 C   0  0  0  0  0  0  0  0  0  0  0  0
   -5.5100   11.3190   -1.3020 O   0  0  0  0  0  0  0  0  0  0  0  0
   -4.9130   13.5200   -0.6080 C   0  0  2  0  0  0  0  0  0  0  0  0
   -4.7900   14.4120    0.6500 C   0  0  2  0  0  0  0  0  0  0  0  0
   -5.8440   14.3910   -1.4630 C   0  0  0  0  0  0  0  0  0  0  0  0
   -3.5500   13.3410   -1.2970 C   0  0  0  0  0  0  0  0  0  0  0  0
   -4.4720   15.7580    0.0060 C   0  0  0  0  0  0  0  0  0  0  0  0
   -2.3510   13.7590   -0.4960 C   0  0  0  0  0  0  0  0  0  0  0  0
   -3.6730   14.0190    1.5850 C   0  0  0  0  0  0  0  0  0  0  0  0
   -5.3470   15.8100   -1.2390 C   0  0  0  0  0  0  0  0  0  0  0  0
   -1.1410   13.8230   -1.1570 C   0  0  0  0  0  0  0  0  0  0  0  0
   -2.3900   14.0810    0.8600 C   0  0  0  0  0  0  0  0  0  0  0  0
   -1.3100   14.4590    1.5680 N   0  0  0  0  0  0  0  0  0  0  0  0
   -0.0070   14.2020   -0.4830 C   0  0  0  0  0  0  0  0  0  0  0  0
    1.2950   14.2710   -1.2220 C   0  0  0  0  0  0  0  0  0  0  0  0
   -0.1520   14.5150    0.8790 C   0  0  0  0  0  0  0  0  0  0  0  0
    1.4290   13.6850   -2.5590 N   0  0  0  0  0  0  0  0  0  0  0  0
    0.9850   12.5570   -3.0050 C   0  0  0  0  0  0  0  0  0  0  0  0
    0.2500   11.6160   -2.3640 O   0  0  0  0  0  0  0  0  0  0  0  0
    1.3910   12.2710   -4.4330 C   0  0  0  0  0  0  0  0  0  0  0  0
    0.3720   11.9400   -5.4170 N   0  0  0  0  0  0  0  0  0  0  0  0
    0.9350   11.7040   -6.6450 C   0  0  0  0  0  0  0  0  0  0  0  0
    2.0500   12.1440   -6.8120 O   0  0  0  0  0  0  0  0  0  0  0  0
    0.2500   10.8640   -7.6760 C   0  0  0  0  0  0  0  0  0  0  0  0
   -0.9140   10.1410   -7.3880 C   0  0  0  0  0  0  0  0  0  0  0  0
    0.7950   10.7790   -8.9660 C   0  0  0  0  0  0  0  0  0  0  0  0
   -1.5070    9.3280   -8.3570 C   0  0  0  0  0  0  0  0  0  0  0  0
    0.2020    9.9800   -9.9390 C   0  0  0  0  0  0  0  0  0  0  0  0
   -2.7350    8.5410   -8.0120 C   0  0  0  0  0  0  0  0  0  0  0  0
   -0.9450    9.2520   -9.6330 C   0  0  0  0  0  0  0  0  0  0  0  0
  1  2  1  0
  1  3  2  0
  4  1  1  1
  4  5  1  0
  4  6  1  0
  4  7  1  0
  5  8  1  6
  7  9  1  0
  5 10  1  0
  6 11  1  0
  8 11  1  0
  9 12  2  0
  9 13  1  0
 10 13  1  0
 13 14  2  0
 12 15  1  0
 15 16  1  0
 14 17  1  0
 15 17  2  0
 16 18  1  0
 18 19  2  3
 19 20  1  0
 19 21  1  0
 21 22  1  0
 22 23  1  0
 23 24  2  0
 23 25  1  0
 25 26  2  0
 25 27  1  0
 26 28  1  0
 27 29  2  0
 28 30  1  0
 28 31  2  0
 29 31  1  0
M  END
