x0742_0_A-x0926_0_A
     RDKit          3D

 17 19  0  0  0  0  0  0  0  0999 V2000
   -5.1950   12.2390   -1.0500 C   0  0  0  0  0  0  0  0  0  0  0  0
   -6.2410   11.8000   -0.0420 C   0  0  0  0  0  0  0  0  0  0  0  0
   -4.7700   11.4480   -1.8880 O   0  0  0  0  0  0  0  0  0  0  0  0
   -4.7100   13.6970   -0.9970 C   0  0  2  0  0  0  0  0  0  0  0  0
   -4.9580   14.1750    0.4680 C   0  0  2  0  0  0  0  0  0  0  0  0
   -5.6050   14.5920   -1.9070 C   0  0  0  0  0  0  0  0  0  0  0  0
   -3.2730   13.7900   -1.5240 C   0  0  0  0  0  0  0  0  0  0  0  0
   -6.2310   14.9310    0.1780 C   0  0  0  0  0  0  0  0  0  0  0  0
   -2.2060   14.0130   -0.5140 C   0  0  0  0  0  0  0  0  0  0  0  0
   -3.8560   15.0090    1.1170 C   0  0  0  0  0  0  0  0  0  0  0  0
   -6.0640   15.7390   -1.0490 C   0  0  0  0  0  0  0  0  0  0  0  0
   -7.2680   14.8800    0.8030 O   0  0  0  0  0  0  0  0  0  0  0  0
   -0.9120   13.6570   -0.8350 C   0  0  0  0  0  0  0  0  0  0  0  0
   -2.4630   14.5680    0.7420 C   0  0  0  0  0  0  0  0  0  0  0  0
   -1.4890   14.7460    1.6610 N   0  0  0  0  0  0  0  0  0  0  0  0
    0.0870   13.8480    0.0860 C   0  0  0  0  0  0  0  0  0  0  0  0
   -0.2460   14.3830    1.3120 C   0  0  0  0  0  0  0  0  0  0  0  0
  1  2  1  0
  1  3  2  0
  4  1  1  1
  4  5  1  0
  4  6  1  0
  4  7  1  0
  5  8  1  0
  7  9  1  0
  5 10  1  6
  6 11  1  0
  8 11  1  0
  8 12  2  0
  9 13  2  0
  9 14  1  0
 10 14  1  0
 14 15  2  0
 13 16  1  0
 15 17  1  0
 16 17  2  0
M  END
