x0742_0_A-x0910_1_A
     RDKit          3D

 17 19  0  0  0  0  0  0  0  0999 V2000
   -5.3980   12.0500   -0.8730 C   0  0  0  0  0  0  0  0  0  0  0  0
   -6.5090   11.6570    0.0720 C   0  0  0  0  0  0  0  0  0  0  0  0
   -5.0960   11.3110   -1.8100 O   0  0  0  0  0  0  0  0  0  0  0  0
   -4.6600   13.3670   -0.6450 C   0  0  2  0  0  0  0  0  0  0  0  0
   -4.8020   13.7190    0.8720 C   0  0  2  0  0  0  0  0  0  0  0  0
   -5.3110   14.5410   -1.4120 C   0  0  0  0  0  0  0  0  0  0  0  0
   -3.2430   13.1230   -1.1890 C   0  0  0  0  0  0  0  0  0  0  0  0
   -5.7200   14.9350    0.9100 C   0  0  1  0  0  0  0  0  0  0  0  0
   -2.1140   13.7140   -0.4000 C   0  0  0  0  0  0  0  0  0  0  0  0
   -3.5280   13.9310    1.6900 C   0  0  0  0  0  0  0  0  0  0  0  0
   -5.4040   15.6610   -0.4050 C   0  0  0  0  0  0  0  0  0  0  0  0
   -7.1310   14.4890    0.9310 N   0  0  0  0  0  0  0  0  0  0  0  0
   -0.8820   13.8970   -1.0100 C   0  0  0  0  0  0  0  0  0  0  0  0
   -2.2470   14.0880    0.9460 C   0  0  0  0  0  0  0  0  0  0  0  0
   -1.2370   14.6040    1.6630 N   0  0  0  0  0  0  0  0  0  0  0  0
    0.1650   14.4280   -0.2860 C   0  0  0  0  0  0  0  0  0  0  0  0
   -0.0650   14.7590    1.0310 C   0  0  0  0  0  0  0  0  0  0  0  0
  1  2  1  0
  1  3  2  0
  4  1  1  1
  4  5  1  0
  4  6  1  0
  4  7  1  0
  5  8  1  0
  7  9  1  0
  5 10  1  6
  6 11  1  0
  8 11  1  0
  8 12  1  6
  9 13  2  0
  9 14  1  0
 10 14  1  0
 14 15  2  0
 13 16  1  0
 15 17  1  0
 16 17  2  0
M  END
