x0742_0_A-x1018_0_A
     RDKit          3D

 17 19  0  0  0  0  0  0  0  0999 V2000
   -5.4470   12.0550   -0.9050 C   0  0  0  0  0  0  0  0  0  0  0  0
   -6.5370   11.6620    0.0650 C   0  0  0  0  0  0  0  0  0  0  0  0
   -5.1890   11.3330   -1.8640 O   0  0  0  0  0  0  0  0  0  0  0  0
   -4.6720   13.3620   -0.6650 C   0  0  2  0  0  0  0  0  0  0  0  0
   -4.7980   13.7930    0.8410 C   0  0  2  0  0  0  0  0  0  0  0  0
   -5.4070   14.4700   -1.4420 C   0  0  0  0  0  0  0  0  0  0  0  0
   -3.2460   13.1700   -1.2010 C   0  0  0  0  0  0  0  0  0  0  0  0
   -5.7470   14.9640    0.8540 C   0  0  1  0  0  0  0  0  0  0  0  0
   -2.1340   13.7440   -0.3790 C   0  0  0  0  0  0  0  0  0  0  0  0
   -3.5520   13.9470    1.7020 C   0  0  0  0  0  0  0  0  0  0  0  0
   -5.4350   15.6470   -0.4810 C   0  0  0  0  0  0  0  0  0  0  0  0
   -7.4690   14.4750    0.9770 Cl  0  0  0  0  0  0  0  0  0  0  0  0
   -0.8930   13.9190   -0.9910 C   0  0  0  0  0  0  0  0  0  0  0  0
   -2.2700   14.0980    0.9560 C   0  0  0  0  0  0  0  0  0  0  0  0
   -1.2550   14.5960    1.6830 N   0  0  0  0  0  0  0  0  0  0  0  0
    0.1550   14.4310   -0.2580 C   0  0  0  0  0  0  0  0  0  0  0  0
   -0.0760   14.7480    1.0570 C   0  0  0  0  0  0  0  0  0  0  0  0
  1  2  1  0
  1  3  2  0
  4  1  1  1
  4  5  1  0
  4  6  1  0
  4  7  1  0
  5  8  1  0
  7  9  1  0
  5 10  1  6
  6 11  1  0
  8 11  1  0
  8 12  1  6
  9 13  2  0
  9 14  1  0
 10 14  1  0
 14 15  2  0
 13 16  1  0
 15 17  1  0
 16 17  2  0
M  END
