x0742_0_A-x0967_0_A
     RDKit          3D

 21 24  0  0  0  0  0  0  0  0999 V2000
   -5.2620   11.8440   -0.7810 C   0  0  0  0  0  0  0  0  0  0  0  0
   -6.3340   11.4470    0.2070 C   0  0  0  0  0  0  0  0  0  0  0  0
   -4.8610   11.0080   -1.6000 O   0  0  0  0  0  0  0  0  0  0  0  0
   -4.7300   13.3040   -0.8500 C   0  0  2  0  0  0  0  0  0  0  0  0
   -5.0060   14.1320    0.4440 C   0  0  1  0  0  0  0  0  0  0  0  0
   -5.4590   13.7610   -2.1470 C   0  0  0  0  0  0  0  0  0  0  0  0
   -3.3540   13.6880   -1.4430 C   0  0  2  0  0  0  0  0  0  0  0  0
   -3.2730   12.8030   -2.6810 C   0  0  0  0  0  0  0  0  0  0  0  0
   -2.2090   13.9430   -0.5150 C   0  0  0  0  0  0  0  0  0  0  0  0
   -3.7950   14.1630    1.4300 C   0  0  0  0  0  0  0  0  0  0  0  0
   -5.3200   15.5310   -0.1130 C   0  0  0  0  0  0  0  0  0  0  0  0
   -6.1790   13.7270    1.3230 C   0  0  0  0  0  0  0  0  0  0  0  0
   -4.6810   13.0120   -3.2580 C   0  0  0  0  0  0  0  0  0  0  0  0
   -0.8960   13.9760   -0.9750 C   0  0  0  0  0  0  0  0  0  0  0  0
   -2.4260   14.1620    0.8420 C   0  0  0  0  0  0  0  0  0  0  0  0
   -6.6510   15.5950   -0.7770 N   0  0  0  0  0  0  0  0  0  0  0  0
   -7.4210   14.1280    1.0940 C   0  0  0  0  0  0  0  0  0  0  0  0
   -1.4420   14.3860    1.7280 N   0  0  0  0  0  0  0  0  0  0  0  0
    0.1310   14.2180   -0.0810 C   0  0  0  0  0  0  0  0  0  0  0  0
   -7.7890   14.9920   -0.0550 C   0  0  0  0  0  0  0  0  0  0  0  0
   -0.1950   14.4130    1.2490 C   0  0  0  0  0  0  0  0  0  0  0  0
  1  2  1  0
  1  3  2  0
  4  1  1  1
  4  5  1  0
  4  6  1  0
  4  7  1  0
  7  8  1  6
  7  9  1  0
  5 10  1  1
  5 11  1  0
  5 12  1  0
  6 13  1  0
  8 13  1  0
  9 14  1  0
  9 15  2  0
 10 15  1  0
 11 16  1  0
 12 17  2  0
 15 18  1  0
 14 19  2  0
 16 20  1  0
 17 20  1  0
 18 21  2  0
 19 21  1  0
M  END
