x0742_0_A-x0910_0_A
     RDKit          3D

 17 19  0  0  0  0  0  0  0  0999 V2000
   -5.3250   12.5780   -0.6080 C   0  0  0  0  0  0  0  0  0  0  0  0
   -6.1960   11.9300    0.4410 C   0  0  0  0  0  0  0  0  0  0  0  0
   -4.8880   11.8810   -1.5320 O   0  0  0  0  0  0  0  0  0  0  0  0
   -5.0260   14.1080   -0.5490 C   0  0  2  0  0  0  0  0  0  0  0  0
   -5.0030   14.7260    0.8540 C   0  0  1  0  0  0  0  0  0  0  0  0
   -6.2900   14.8120   -1.0700 C   0  0  0  0  0  0  0  0  0  0  0  0
   -3.7340   14.4940   -1.2870 C   0  0  0  0  0  0  0  0  0  0  0  0
   -6.4200   14.4380    1.3530 C   0  0  0  0  0  0  0  0  0  0  0  0
   -2.4890   14.4440   -0.4100 C   0  0  0  0  0  0  0  0  0  0  0  0
   -3.8590   14.2440    1.7240 C   0  0  0  0  0  0  0  0  0  0  0  0
   -7.2880   14.6400    0.0920 C   0  0  0  0  0  0  0  0  0  0  0  0
   -1.2280   14.5080   -0.9750 C   0  0  0  0  0  0  0  0  0  0  0  0
   -2.5540   14.3350    1.0000 C   0  0  0  0  0  0  0  0  0  0  0  0
   -1.1120   14.6160   -2.3580 N   0  0  0  0  0  0  0  0  0  0  0  0
   -1.4750   14.3040    1.7960 N   0  0  0  0  0  0  0  0  0  0  0  0
   -0.0960   14.4690   -0.1550 C   0  0  0  0  0  0  0  0  0  0  0  0
   -0.2830   14.3700    1.2130 C   0  0  0  0  0  0  0  0  0  0  0  0
  1  2  1  0
  1  3  2  0
  4  1  1  1
  4  5  1  0
  4  6  1  0
  4  7  1  0
  5  8  1  1
  7  9  1  0
  5 10  1  0
  6 11  1  0
  8 11  1  0
  9 12  2  0
  9 13  1  0
 10 13  1  0
 12 14  1  0
 13 15  2  0
 12 16  1  0
 15 17  1  0
 16 17  2  0
M  END
