x0742_0_A_α-x0727_0_A_α
     RDKit          3D

 30 33  0  0  0  0  0  0  0  0999 V2000
   -5.6360   12.1940   -0.3110 C   0  0  0  0  0  0  0  0  0  0  0  0
   -6.4220   11.9500    0.9510 C   0  0  0  0  0  0  0  0  0  0  0  0
   -5.5810   11.3380   -1.2000 O   0  0  0  0  0  0  0  0  0  0  0  0
   -4.9360   13.5300   -0.5110 C   0  0  2  0  0  0  0  0  0  0  0  0
   -4.7590   14.4320    0.7350 C   0  0  2  0  0  0  0  0  0  0  0  0
   -5.8570   14.4120   -1.3650 C   0  0  0  0  0  0  0  0  0  0  0  0
   -3.6000   13.2750   -1.2300 C   0  0  0  0  0  0  0  0  0  0  0  0
   -4.4480   15.7690    0.0770 C   0  0  0  0  0  0  0  0  0  0  0  0
   -2.3700   13.7100   -0.4990 C   0  0  0  0  0  0  0  0  0  0  0  0
   -3.6100   14.0480    1.6330 C   0  0  0  0  0  0  0  0  0  0  0  0
   -5.3430   15.8270   -1.1550 C   0  0  0  0  0  0  0  0  0  0  0  0
   -1.1960   13.7330   -1.2220 C   0  0  0  0  0  0  0  0  0  0  0  0
   -2.3490   14.0810    0.8450 C   0  0  0  0  0  0  0  0  0  0  0  0
   -1.2290   14.4820    1.4750 N   0  0  0  0  0  0  0  0  0  0  0  0
   -0.0200   14.1230   -0.6400 C   0  0  0  0  0  0  0  0  0  0  0  0
    1.2340   14.1180   -1.4970 C   0  0  0  0  0  0  0  0  0  0  0  0
   -0.1010   14.5010    0.7200 C   0  0  0  0  0  0  0  0  0  0  0  0
    1.5620   12.8130   -2.0960 O   0  0  0  0  0  0  0  0  0  0  0  0
    0.7320   12.1110   -2.9700 C   0  0  0  0  0  0  0  0  0  0  0  0
    0.9740   12.4680   -4.4650 C   0  0  1  0  0  0  0  0  0  0  0  0
   -0.0820   11.2680   -2.6060 O   0  0  0  0  0  0  0  0  0  0  0  0
    0.2120   11.5540   -5.3520 N   0  0  0  0  0  0  0  0  0  0  0  0
    0.5790   13.9040   -4.7540 C   0  0  0  0  0  0  0  0  0  0  0  0
    0.7400   11.2300   -6.5930 C   0  0  0  0  0  0  0  0  0  0  0  0
    1.6820   11.8340   -7.0530 O   0  0  0  0  0  0  0  0  0  0  0  0
    0.1250   10.0560   -7.3680 C   0  0  0  0  0  0  0  0  0  0  0  0
   -1.1590   10.4240   -8.1180 C   0  0  0  0  0  0  0  0  0  0  0  0
   -0.2180    8.8340   -6.4960 C   0  0  0  0  0  0  0  0  0  0  0  0
   -2.0460    9.1860   -8.0290 C   0  0  0  0  0  0  0  0  0  0  0  0
   -1.7080    8.5850   -6.6760 C   0  0  0  0  0  0  0  0  0  0  0  0
  1  2  1  0
  1  3  2  0
  4  1  1  1
  4  5  1  0
  4  6  1  0
  4  7  1  0
  5  8  1  6
  7  9  1  0
  5 10  1  0
  6 11  1  0
  8 11  1  0
  9 12  2  0
  9 13  1  0
 10 13  1  0
 13 14  2  0
 12 15  1  0
 15 16  1  0
 14 17  1  0
 15 17  2  0
 16 18  1  0
 18 19  1  0
 19 20  1  0
 19 21  2  0
 20 22  1  0
 20 23  1  1
 22 24  1  0
 24 25  2  0
 24 26  1  0
 26 27  1  0
 26 28  1  0
 27 29  1  0
 28 30  1  0
 29 30  1  0
M  END
