x0742_0_A_α-x0662_0_A_β
     RDKit          3D

 30 33  0  0  0  0  0  0  0  0999 V2000
   -5.5850   12.2450   -0.8720 C   0  0  0  0  0  0  0  0  0  0  0  0
   -4.8930   11.4100   -1.5680 N   0  0  0  0  0  0  0  0  0  0  0  0
   -3.4630   11.6070   -1.8010 C   0  0  0  0  0  0  0  0  0  0  0  0
   -7.0450   12.0190   -0.5420 C   0  0  0  0  0  0  0  0  0  0  0  0
   -4.9570   13.5480   -0.3020 C   0  0  2  0  0  0  0  0  0  0  0  0
   -4.6100   13.2910    1.1670 C   0  0  0  0  0  0  0  0  0  0  0  0
   -6.0650   14.6110   -0.4350 C   0  0  0  0  0  0  0  0  0  0  0  0
   -3.7370   14.1770   -1.1130 C   0  0  1  0  0  0  0  0  0  0  0  0
   -3.0730   12.0820   -3.1810 C   0  0  0  0  0  0  0  0  0  0  0  0
   -4.3150   15.3650   -1.8680 C   0  0  0  0  0  0  0  0  0  0  0  0
   -2.4100   14.3040   -0.4010 C   0  0  0  0  0  0  0  0  0  0  0  0
   -3.6850   14.3740    1.6920 C   0  0  0  0  0  0  0  0  0  0  0  0
   -5.3540   15.8730   -0.8840 C   0  0  0  0  0  0  0  0  0  0  0  0
   -1.5440   12.1310   -3.2290 C   0  0  0  0  0  0  0  0  0  0  0  0
   -1.1650   14.3370   -1.0390 C   0  0  0  0  0  0  0  0  0  0  0  0
   -2.4140   14.3980    0.9730 C   0  0  0  0  0  0  0  0  0  0  0  0
   -0.9670   12.8260   -4.4470 C   0  0  0  0  0  0  0  0  0  0  0  0
   -1.3340   14.5080    1.7460 N   0  0  0  0  0  0  0  0  0  0  0  0
   -0.0150   14.4610   -0.2590 C   0  0  0  0  0  0  0  0  0  0  0  0
   -0.9910   11.8780   -5.5400 N   0  0  0  0  0  0  0  0  0  0  0  0
   -0.1700   14.5440    1.1150 C   0  0  0  0  0  0  0  0  0  0  0  0
    0.1210   11.5580   -6.0850 C   0  0  0  0  0  0  0  0  0  0  0  0
    1.3020   11.8960   -5.8760 O   0  0  0  0  0  0  0  0  0  0  0  0
    0.0090   10.5820   -7.2310 C   0  0  0  0  0  0  0  0  0  0  0  0
    0.8190   10.7920   -8.3380 C   0  0  0  0  0  0  0  0  0  0  0  0
   -0.8680    9.4870   -7.2470 C   0  0  0  0  0  0  0  0  0  0  0  0
    0.7850    9.9660   -9.4580 C   0  0  0  0  0  0  0  0  0  0  0  0
   -0.9180    8.6400   -8.3570 C   0  0  0  0  0  0  0  0  0  0  0  0
    1.6180   10.2290  -10.5550 N   0  0  0  0  0  0  0  0  0  0  0  0
   -0.0950    8.8820   -9.4590 C   0  0  0  0  0  0  0  0  0  0  0  0
  1  2  2  3
  2  3  1  0
  1  4  1  0
  5  1  1  6
  5  6  1  0
  5  7  1  0
  5  8  1  0
  3  9  1  0
  8 10  1  1
  8 11  1  0
  6 12  1  0
  7 13  1  0
 10 13  1  0
  9 14  1  0
 11 15  1  0
 11 16  2  0
 12 16  1  0
 14 17  1  0
 16 18  1  0
 15 19  2  0
 17 20  1  0
 18 21  2  0
 19 21  1  0
 20 22  2  3
 22 23  1  0
 22 24  1  0
 24 25  2  0
 24 26  1  0
 25 27  1  0
 26 28  2  0
 27 29  1  0
 27 30  2  0
 28 30  1  0
M  CHG  1  23  -1
M  END
