x0742_0_A_α-x0421_0_A_α
     RDKit          3D

 21 24  0  0  0  0  0  0  0  0999 V2000
   -5.0350   12.3350    0.1910 C   0  0  0  0  0  0  0  0  0  0  0  0
   -6.0240   11.7630    1.1650 C   0  0  0  0  0  0  0  0  0  0  0  0
   -5.0110   11.6010   -0.9210 O   0  0  0  0  0  0  0  0  0  0  0  0
   -4.0970   13.6840    0.1030 C   0  0  1  0  0  0  0  0  0  0  0  0
   -5.3450   14.3360    0.7620 S   0  0  0  0  0  0  0  0  0  0  0  0
   -4.1640   14.6790   -0.9940 C   0  0  2  0  0  0  0  0  0  0  0  0
   -3.5750   12.8120   -1.0230 C   0  0  0  0  0  0  0  0  0  0  0  0
   -3.4140   14.7740   -2.2300 C   0  0  0  0  0  0  0  0  0  0  0  0
   -4.6940   16.0930    0.3490 C   0  0  0  0  0  0  0  0  0  0  0  0
   -2.3090   13.3540   -0.4990 C   0  0  0  0  0  0  0  0  0  0  0  0
   -3.9770   13.3970    1.1470 C   0  0  0  0  0  0  0  0  0  0  0  0
   -7.0960   14.4150    1.4500 C   0  0  0  0  0  0  0  0  0  0  0  0
   -7.1350   13.8050    0.2190 C   0  0  0  0  0  0  0  0  0  0  0  0
   -3.5830   15.7960   -0.2440 C   0  0  0  0  0  0  0  0  0  0  0  0
   -3.7680   14.7910   -3.6000 N   0  0  0  0  0  0  0  0  0  0  0  0
   -2.1290   14.9050   -2.1710 O   0  0  0  0  0  0  0  0  0  0  0  0
   -1.0710   13.5710   -0.9570 C   0  0  0  0  0  0  0  0  0  0  0  0
   -2.5550   13.6980    0.8270 C   0  0  0  0  0  0  0  0  0  0  0  0
   -1.6410   14.2300    1.7100 N   0  0  0  0  0  0  0  0  0  0  0  0
   -0.1350   14.0970   -0.1300 C   0  0  0  0  0  0  0  0  0  0  0  0
   -0.4640   14.3980    1.1600 C   0  0  0  0  0  0  0  0  0  0  0  0
  1  2  1  0
  1  3  2  0
  4  1  1  6
  4  5  1  0
  4  6  1  0
  4  7  1  0
  6  8  1  6
  5  9  1  0
  7 10  1  0
  5 11  1  0
  5 12  1  0
  5 13  1  0
 12 13  1  0
  6 14  1  0
  9 14  1  0
  8 15  1  0
  8 16  2  0
 10 17  2  0
 10 18  1  0
 11 18  1  0
 18 19  2  0
 17 20  1  0
 19 21  1  0
 20 21  2  0
M  END
