x0742_0_A-x0910_1_A
     RDKit          3D

 17 19  0  0  0  0  0  0  0  0999 V2000
   -5.4000   12.0500   -0.8700 C   0  0  0  0  0  0  0  0  0  0  0  0
   -6.5170   11.6680    0.0740 C   0  0  0  0  0  0  0  0  0  0  0  0
   -5.1010   11.3030   -1.8040 O   0  0  0  0  0  0  0  0  0  0  0  0
   -4.6580   13.3640   -0.6470 C   0  0  2  0  0  0  0  0  0  0  0  0
   -4.8020   13.7180    0.8720 C   0  0  2  0  0  0  0  0  0  0  0  0
   -5.2970   14.5470   -1.4150 C   0  0  0  0  0  0  0  0  0  0  0  0
   -3.2380   13.1200   -1.1870 C   0  0  0  0  0  0  0  0  0  0  0  0
   -5.7390   14.9220    0.9000 C   0  0  1  0  0  0  0  0  0  0  0  0
   -2.1100   13.7130   -0.3990 C   0  0  0  0  0  0  0  0  0  0  0  0
   -3.5310   13.9430    1.6850 C   0  0  0  0  0  0  0  0  0  0  0  0
   -5.4090   15.6590   -0.4020 C   0  0  0  0  0  0  0  0  0  0  0  0
   -7.1450   14.4620    0.8900 N   0  0  0  0  0  0  0  0  0  0  0  0
   -0.8740   13.8920   -1.0050 C   0  0  0  0  0  0  0  0  0  0  0  0
   -2.2470   14.0950    0.9450 C   0  0  0  0  0  0  0  0  0  0  0  0
   -1.2400   14.6140    1.6610 N   0  0  0  0  0  0  0  0  0  0  0  0
    0.1710   14.4280   -0.2790 C   0  0  0  0  0  0  0  0  0  0  0  0
   -0.0660   14.7640    1.0320 C   0  0  0  0  0  0  0  0  0  0  0  0
  1  2  1  0
  1  3  2  0
  4  1  1  1
  4  5  1  0
  4  6  1  0
  4  7  1  0
  5  8  1  0
  7  9  1  0
  5 10  1  6
  6 11  1  0
  8 11  1  0
  8 12  1  6
  9 13  2  0
  9 14  1  0
 10 14  1  0
 14 15  2  0
 13 16  1  0
 15 17  1  0
 16 17  2  0
M  END
