x0742_0_A-x0855_0_A
     RDKit          3D

 27 30  0  0  0  0  0  0  0  0999 V2000
   -5.2740   12.7640   -0.4050 C   0  0  0  0  0  0  0  0  0  0  0  0
   -6.0750   12.1310    0.7130 C   0  0  0  0  0  0  0  0  0  0  0  0
   -4.7920   12.0280   -1.2760 O   0  0  0  0  0  0  0  0  0  0  0  0
   -5.1190   14.3180   -0.4220 C   0  0  2  0  0  0  0  0  0  0  0  0
   -5.0240   14.9450    0.9740 C   0  0  0  0  0  0  0  0  0  0  0  0
   -6.1660   14.9120   -1.3930 C   0  0  0  0  0  0  0  0  0  0  0  0
   -3.8840   14.7420   -1.2050 C   0  0  2  0  0  0  0  0  0  0  0  0
   -4.1590   14.1100   -2.5690 C   0  0  0  0  0  0  0  0  0  0  0  0
   -2.5840   14.5040   -0.4890 C   0  0  0  0  0  0  0  0  0  0  0  0
   -3.7840   14.4570    1.7370 C   0  0  0  0  0  0  0  0  0  0  0  0
   -5.6590   14.4040   -2.7570 C   0  0  0  0  0  0  0  0  0  0  0  0
   -1.3950   14.4100   -1.2030 C   0  0  0  0  0  0  0  0  0  0  0  0
   -2.5410   14.3880    0.8990 C   0  0  0  0  0  0  0  0  0  0  0  0
   -1.4010   14.2040    1.5830 N   0  0  0  0  0  0  0  0  0  0  0  0
   -0.1950   14.2100   -0.5440 C   0  0  0  0  0  0  0  0  0  0  0  0
    1.0740   14.1120   -1.3520 C   0  0  0  0  0  0  0  0  0  0  0  0
   -0.2730   14.1170    0.8570 C   0  0  0  0  0  0  0  0  0  0  0  0
    0.7800   13.7990   -2.7340 O   0  0  0  0  0  0  0  0  0  0  0  0
    0.8150   12.5240   -3.2370 C   0  0  0  0  0  0  0  0  0  0  0  0
    0.9040   11.4780   -2.5930 O   0  0  0  0  0  0  0  0  0  0  0  0
    0.7030   12.5480   -4.7390 C   0  0  0  0  0  0  0  0  0  0  0  0
   -0.3600   11.6830   -5.1960 N   0  0  0  0  0  0  0  0  0  0  0  0
   -0.2800   10.7190   -6.1580 C   0  0  0  0  0  0  0  0  0  0  0  0
   -1.5920   11.7880   -4.6450 N   0  0  0  0  0  0  0  0  0  0  0  0
   -1.5260   10.1670   -6.2230 C   0  0  0  0  0  0  0  0  0  0  0  0
   -2.3030   10.8530   -5.2820 C   0  0  0  0  0  0  0  0  0  0  0  0
   -2.1120    8.7820   -7.3210 Br  0  0  0  0  0  0  0  0  0  0  0  0
  1  2  1  0
  1  3  2  0
  4  1  1  1
  4  5  1  0
  4  6  1  0
  4  7  1  0
  7  8  1  6
  7  9  1  0
  5 10  1  0
  6 11  1  0
  8 11  1  0
  9 12  1  0
  9 13  2  0
 10 13  1  0
 13 14  1  0
 12 15  2  0
 15 16  1  0
 14 17  2  0
 15 17  1  0
 16 18  1  0
 18 19  1  0
 19 20  2  0
 19 21  1  0
 21 22  1  0
 22 23  1  0
 22 24  1  0
 23 25  2  0
 24 26  2  0
 25 26  1  0
 25 27  1  0
M  END
