x0742_0_A_α-x0805_0_A_α
     RDKit          3D

 23 26  0  0  0  0  0  0  0  0999 V2000
   -5.7830   12.1500   -0.1660 C   0  0  0  0  0  0  0  0  0  0  0  0
   -6.8470   11.5600    0.7030 C   0  0  0  0  0  0  0  0  0  0  0  0
   -5.3920   11.5240   -1.1640 O   0  0  0  0  0  0  0  0  0  0  0  0
   -5.1750   13.5240    0.1600 C   0  0  2  0  0  0  0  0  0  0  0  0
   -4.7410   13.5360    1.6280 C   0  0  0  0  0  0  0  0  0  0  0  0
   -6.2780   14.5810   -0.0660 C   0  0  0  0  0  0  0  0  0  0  0  0
   -4.0120   13.9860   -0.7640 C   0  0  1  0  0  0  0  0  0  0  0  0
   -4.5910   15.1960   -1.5090 C   0  0  1  0  0  0  0  0  0  0  0  0
   -2.6090   14.0610   -0.1600 C   0  0  0  0  0  0  0  0  0  0  0  0
   -3.8100   14.7290    1.8210 C   0  0  0  0  0  0  0  0  0  0  0  0
   -5.5020   15.8200   -0.5040 C   0  0  0  0  0  0  0  0  0  0  0  0
   -1.3980   13.7820   -0.8100 C   0  0  0  0  0  0  0  0  0  0  0  0
   -2.5400   14.4480    1.1450 C   0  0  0  0  0  0  0  0  0  0  0  0
   -3.4340   15.8790   -1.8100 O   0  0  0  0  0  0  0  0  0  0  0  0
   -1.4150   14.5820    1.8470 N   0  0  0  0  0  0  0  0  0  0  0  0
   -0.2020   13.9160   -0.1030 C   0  0  0  0  0  0  0  0  0  0  0  0
   -2.7970   14.9290   -2.4930 C   0  0  0  0  0  0  0  0  0  0  0  0
   -0.2780   14.3190    1.2170 C   0  0  0  0  0  0  0  0  0  0  0  0
   -3.7020   13.9020   -2.7800 C   0  0  0  0  0  0  0  0  0  0  0  0
   -1.4830   14.8360   -2.9110 C   0  0  0  0  0  0  0  0  0  0  0  0
   -1.0880   13.7060   -3.6200 C   0  0  0  0  0  0  0  0  0  0  0  0
   -3.3100   12.7830   -3.4800 C   0  0  0  0  0  0  0  0  0  0  0  0
   -1.9970   12.6840   -3.9020 C   0  0  0  0  0  0  0  0  0  0  0  0
  1  2  1  0
  1  3  2  0
  4  1  1  6
  4  5  1  0
  4  6  1  0
  4  7  1  0
  7  8  1  0
  7  9  1  1
  5 10  1  0
  6 11  1  0
  8 11  1  0
  9 12  1  0
  9 13  2  0
 10 13  1  0
  8 14  1  1
 13 15  1  0
 12 16  2  0
 14 17  1  0
 15 18  2  0
 16 18  1  0
 17 19  2  0
 17 20  1  0
 20 21  2  0
 19 22  1  0
 21 23  1  0
 22 23  2  0
M  END
