x0742_0_A_α-x0900_1_A_α
     RDKit          3D

 26 29  0  0  0  0  0  0  0  0999 V2000
   -5.3260   12.0220   -0.7300 C   0  0  0  0  0  0  0  0  0  0  0  0
   -4.7830   11.2850   -1.6650 N   0  0  0  0  0  0  0  0  0  0  0  0
   -3.6540   11.6590   -2.5280 C   0  0  0  0  0  0  0  0  0  0  0  0
   -6.4880   11.5080    0.1020 C   0  0  0  0  0  0  0  0  0  0  0  0
   -4.8690   13.4590   -0.3700 C   0  0  2  0  0  0  0  0  0  0  0  0
   -4.6300   13.4490    1.1600 C   0  0  0  0  0  0  0  0  0  0  0  0
   -5.9970   14.4830   -0.6630 C   0  0  0  0  0  0  0  0  0  0  0  0
   -3.6490   13.9760   -1.2130 C   0  0  1  0  0  0  0  0  0  0  0  0
   -3.0140   10.3730   -3.0970 C   0  0  0  0  0  0  0  0  0  0  0  0
   -4.1350   15.2900   -1.8630 C   0  0  0  0  0  0  0  0  0  0  0  0
   -2.3780   14.1650   -0.4100 C   0  0  0  0  0  0  0  0  0  0  0  0
   -3.7400   14.5910    1.6040 C   0  0  0  0  0  0  0  0  0  0  0  0
   -5.2830   15.7650   -0.9950 C   0  0  0  0  0  0  0  0  0  0  0  0
   -2.7170   10.3240   -4.6200 C   0  0  0  0  0  0  0  0  0  0  0  0
   -1.1050   14.0530   -0.9900 C   0  0  0  0  0  0  0  0  0  0  0  0
   -2.4310   14.4570    0.9390 C   0  0  0  0  0  0  0  0  0  0  0  0
   -1.9370    9.0540   -5.0290 C   0  0  0  0  0  0  0  0  0  0  0  0
   -1.3630   14.6350    1.7190 N   0  0  0  0  0  0  0  0  0  0  0  0
    0.0240   14.2380   -0.1970 C   0  0  0  0  0  0  0  0  0  0  0  0
   -0.1720   14.5250    1.1420 C   0  0  0  0  0  0  0  0  0  0  0  0
   -1.8020    8.7400   -6.5290 C   0  0  1  0  0  0  0  0  0  0  0  0
   -1.9180    9.9250   -7.4990 C   0  0  0  0  0  0  0  0  0  0  0  0
   -0.4340    8.1150   -6.8350 C   0  0  0  0  0  0  0  0  0  0  0  0
    0.0870    8.8630   -7.9430 N   0  0  0  0  0  0  0  0  0  0  0  0
   -0.8970    9.6000   -8.5520 C   0  0  0  0  0  0  0  0  0  0  0  0
   -0.9210    9.9210   -9.7270 O   0  0  0  0  0  0  0  0  0  0  0  0
  1  2  2  3
  2  3  1  0
  1  4  1  0
  5  1  1  6
  5  6  1  0
  5  7  1  0
  5  8  1  0
  3  9  1  0
  8 10  1  1
  8 11  1  0
  6 12  1  0
  7 13  1  0
 10 13  1  0
  9 14  1  0
 11 15  1  0
 11 16  2  0
 12 16  1  0
 14 17  1  0
 16 18  1  0
 15 19  2  0
 18 20  2  0
 19 20  1  0
 21 17  1  1
 21 22  1  0
 21 23  1  0
 23 24  1  0
 22 25  1  0
 24 25  1  0
 25 26  2  0
M  END
