x0742_0_A-x0587_0_A
     RDKit          3D

 28 31  0  0  0  0  0  0  0  0999 V2000
   -5.2870   12.4920   -1.6640 C   0  0  0  0  0  0  0  0  0  0  0  0
   -6.1570   13.2190   -2.1880 N   0  0  0  0  0  0  0  0  0  0  0  0
   -6.0100   14.6250   -1.8610 C   0  0  0  0  0  0  0  0  0  0  0  0
   -5.2260   10.9910   -1.7550 C   0  0  0  0  0  0  0  0  0  0  0  0
   -4.2170   13.3190   -0.8860 C   0  0  2  0  0  0  0  0  0  0  0  0
   -4.3680   13.0400    0.6230 C   0  0  0  0  0  0  0  0  0  0  0  0
   -4.2340   14.8150   -1.3040 C   0  0  0  0  0  0  0  0  0  0  0  0
   -2.7910   13.0910   -1.3440 C   0  0  1  0  0  0  0  0  0  0  0  0
   -4.7070   15.0300   -1.9630 F   0  0  0  0  0  0  0  0  0  0  0  0
   -6.6770   15.3310   -2.8050 F   0  0  0  0  0  0  0  0  0  0  0  0
   -2.8620   13.4770   -2.8140 C   0  0  0  0  0  0  0  0  0  0  0  0
   -1.7700   13.7210   -0.4930 C   0  0  0  0  0  0  0  0  0  0  0  0
   -3.4060   13.8930    1.4570 C   0  0  0  0  0  0  0  0  0  0  0  0
   -6.6170   14.7420   -0.4510 C   0  0  0  0  0  0  0  0  0  0  0  0
   -3.6110   14.8090   -2.7220 C   0  0  0  0  0  0  0  0  0  0  0  0
   -0.5170   13.9420   -1.0170 C   0  0  0  0  0  0  0  0  0  0  0  0
   -2.0530   14.1020    0.8340 C   0  0  0  0  0  0  0  0  0  0  0  0
   -7.9580   14.7210   -0.3750 N   0  0  0  0  0  0  0  0  0  0  0  0
   -5.8060   14.8350    0.6350 N   0  0  0  0  0  0  0  0  0  0  0  0
   -1.1270   14.6750    1.6170 N   0  0  0  0  0  0  0  0  0  0  0  0
    0.4290   14.5270   -0.2340 C   0  0  0  0  0  0  0  0  0  0  0  0
   -8.4970   14.7950    0.8510 C   0  0  0  0  0  0  0  0  0  0  0  0
   -6.3980   14.9040    1.8420 C   0  0  0  0  0  0  0  0  0  0  0  0
    0.0800   14.8670    1.0510 C   0  0  0  0  0  0  0  0  0  0  0  0
   -7.7630   14.8900    2.0060 C   0  0  0  0  0  0  0  0  0  0  0  0
   -8.4610   14.9790    3.2850 C   0  0  0  0  0  0  0  0  0  0  0  0
   -7.7210   15.0200    4.4250 N   0  0  0  0  0  0  0  0  0  0  0  0
   -9.6850   15.0290    3.3150 O   0  0  0  0  0  0  0  0  0  0  0  0
  1  2  2  3
  2  3  1  0
  1  4  1  0
  5  1  1  6
  5  6  1  0
  5  7  1  0
  5  8  1  0
  3  9  1  0
  3 10  1  0
  8 11  1  6
  8 12  1  0
  6 13  1  0
  3 14  1  0
  7 15  1  0
 11 15  1  0
 12 16  1  0
 12 17  2  0
 13 17  1  0
 14 18  2  0
 14 19  1  0
 17 20  1  0
 16 21  2  0
 18 22  1  0
 19 23  2  0
 20 24  2  0
 21 24  1  0
 22 25  2  0
 23 25  1  0
 25 26  1  0
 26 27  1  0
 26 28  2  0
M  END
