x0742_0_A-x0727_0_A
     RDKit          3D

 30 33  0  0  0  0  0  0  0  0999 V2000
   -5.6430   12.2010   -0.3250 C   0  0  0  0  0  0  0  0  0  0  0  0
   -6.4290   11.9360    0.9320 C   0  0  0  0  0  0  0  0  0  0  0  0
   -5.5690   11.3500   -1.2190 O   0  0  0  0  0  0  0  0  0  0  0  0
   -4.9590   13.5470   -0.5100 C   0  0  2  0  0  0  0  0  0  0  0  0
   -4.7960   14.4470    0.7400 C   0  0  2  0  0  0  0  0  0  0  0  0
   -5.8870   14.4270   -1.3610 C   0  0  0  0  0  0  0  0  0  0  0  0
   -3.6170   13.3290   -1.2190 C   0  0  0  0  0  0  0  0  0  0  0  0
   -4.4640   15.7770    0.0730 C   0  0  0  0  0  0  0  0  0  0  0  0
   -2.3980   13.7430   -0.4510 C   0  0  0  0  0  0  0  0  0  0  0  0
   -3.6630   14.0660    1.6600 C   0  0  0  0  0  0  0  0  0  0  0  0
   -5.3570   15.8350   -1.1590 C   0  0  0  0  0  0  0  0  0  0  0  0
   -1.2120   13.7690   -1.1390 C   0  0  0  0  0  0  0  0  0  0  0  0
   -2.3950   14.0940    0.8970 C   0  0  0  0  0  0  0  0  0  0  0  0
   -1.2860   14.4710    1.5610 N   0  0  0  0  0  0  0  0  0  0  0  0
   -0.0490   14.1380   -0.5210 C   0  0  0  0  0  0  0  0  0  0  0  0
    1.1940   14.1310   -1.3690 C   0  0  0  0  0  0  0  0  0  0  0  0
   -0.1400   14.4900    0.8390 C   0  0  0  0  0  0  0  0  0  0  0  0
    0.8570   13.7140   -2.7210 O   0  0  0  0  0  0  0  0  0  0  0  0
    0.7720   12.4010   -3.1610 C   0  0  0  0  0  0  0  0  0  0  0  0
    1.0080   12.4460   -4.6820 C   0  0  1  0  0  0  0  0  0  0  0  0
    0.5430   11.3870   -2.4990 O   0  0  0  0  0  0  0  0  0  0  0  0
    0.2240   11.4520   -5.4330 N   0  0  0  0  0  0  0  0  0  0  0  0
    0.6570   13.8320   -5.1890 C   0  0  0  0  0  0  0  0  0  0  0  0
    0.7130   11.1240   -6.6800 C   0  0  0  0  0  0  0  0  0  0  0  0
    1.6400   11.7380   -7.1560 O   0  0  0  0  0  0  0  0  0  0  0  0
    0.0910    9.9530   -7.4390 C   0  0  0  0  0  0  0  0  0  0  0  0
   -1.2050   10.3260   -8.1630 C   0  0  0  0  0  0  0  0  0  0  0  0
   -0.2420    8.7410   -6.5450 C   0  0  0  0  0  0  0  0  0  0  0  0
   -2.1190    9.1150   -8.0120 C   0  0  0  0  0  0  0  0  0  0  0  0
   -1.7440    8.5360   -6.6590 C   0  0  0  0  0  0  0  0  0  0  0  0
  1  2  1  0
  1  3  2  0
  4  1  1  1
  4  5  1  0
  4  6  1  0
  4  7  1  0
  5  8  1  6
  7  9  1  0
  5 10  1  0
  6 11  1  0
  8 11  1  0
  9 12  2  0
  9 13  1  0
 10 13  1  0
 13 14  2  0
 12 15  1  0
 15 16  1  0
 14 17  1  0
 15 17  2  0
 16 18  1  0
 18 19  1  0
 19 20  1  0
 19 21  2  0
 20 22  1  0
 20 23  1  6
 22 24  1  0
 24 25  2  0
 24 26  1  0
 26 27  1  0
 26 28  1  0
 27 29  1  0
 28 30  1  0
 29 30  1  0
M  END
