x0742_0_A-x0933_0_A
     RDKit          3D

 17 19  0  0  0  0  0  0  0  0999 V2000
   -5.2340   11.9730   -0.9530 C   0  0  0  0  0  0  0  0  0  0  0  0
   -6.3390   11.4800   -0.0440 C   0  0  0  0  0  0  0  0  0  0  0  0
   -4.7840   11.2450   -1.8310 O   0  0  0  0  0  0  0  0  0  0  0  0
   -4.7140   13.3950   -0.7460 C   0  0  2  0  0  0  0  0  0  0  0  0
   -4.8160   13.6810    0.7820 C   0  0  2  0  0  0  0  0  0  0  0  0
   -5.6460   14.4330   -1.4280 C   0  0  0  0  0  0  0  0  0  0  0  0
   -3.3090   13.4960   -1.3850 C   0  0  0  0  0  0  0  0  0  0  0  0
   -6.2340   14.2470    0.8620 C   0  0  2  0  0  0  0  0  0  0  0  0
   -2.1830   13.8690   -0.4610 C   0  0  0  0  0  0  0  0  0  0  0  0
   -3.7570   14.6170    1.3580 C   0  0  0  0  0  0  0  0  0  0  0  0
   -6.2090   15.2470   -0.2900 C   0  0  0  0  0  0  0  0  0  0  0  0
   -6.4330   14.9020    2.1450 N   0  0  0  0  0  0  0  0  0  0  0  0
   -0.8780   13.7040   -0.8920 C   0  0  0  0  0  0  0  0  0  0  0  0
   -2.3850   14.3830    0.8300 C   0  0  0  0  0  0  0  0  0  0  0  0
   -1.3840   14.7030    1.6600 N   0  0  0  0  0  0  0  0  0  0  0  0
    0.1600   14.0350   -0.0550 C   0  0  0  0  0  0  0  0  0  0  0  0
   -0.1450   14.5230    1.2020 C   0  0  0  0  0  0  0  0  0  0  0  0
  1  2  1  0
  1  3  2  0
  4  1  1  1
  4  5  1  0
  4  6  1  0
  4  7  1  0
  5  8  1  0
  7  9  1  0
  5 10  1  6
  6 11  1  0
  8 11  1  0
  8 12  1  1
  9 13  2  0
  9 14  1  0
 10 14  1  0
 14 15  2  0
 13 16  1  0
 15 17  1  0
 16 17  2  0
M  END
