x0742_0_A_α-x0910_1_A_α
     RDKit          3D

 17 19  0  0  0  0  0  0  0  0999 V2000
   -5.3980   12.0530   -0.8690 C   0  0  0  0  0  0  0  0  0  0  0  0
   -6.5050   11.6630    0.0800 C   0  0  0  0  0  0  0  0  0  0  0  0
   -5.1010   11.3130   -1.8090 O   0  0  0  0  0  0  0  0  0  0  0  0
   -4.6590   13.3690   -0.6440 C   0  0  2  0  0  0  0  0  0  0  0  0
   -4.8000   13.7210    0.8730 C   0  0  2  0  0  0  0  0  0  0  0  0
   -5.3110   14.5450   -1.4130 C   0  0  0  0  0  0  0  0  0  0  0  0
   -3.2430   13.1230   -1.1890 C   0  0  0  0  0  0  0  0  0  0  0  0
   -5.7210   14.9350    0.9060 C   0  0  1  0  0  0  0  0  0  0  0  0
   -2.1160   13.7140   -0.3990 C   0  0  0  0  0  0  0  0  0  0  0  0
   -3.5270   13.9320    1.6910 C   0  0  0  0  0  0  0  0  0  0  0  0
   -5.4000   15.6650   -0.4050 C   0  0  0  0  0  0  0  0  0  0  0  0
   -7.1300   14.4850    0.9200 N   0  0  0  0  0  0  0  0  0  0  0  0
   -0.8820   13.8960   -1.0120 C   0  0  0  0  0  0  0  0  0  0  0  0
   -2.2440   14.0890    0.9460 C   0  0  0  0  0  0  0  0  0  0  0  0
   -1.2360   14.6070    1.6600 N   0  0  0  0  0  0  0  0  0  0  0  0
    0.1620   14.4280   -0.2890 C   0  0  0  0  0  0  0  0  0  0  0  0
   -0.0630   14.7620    1.0260 C   0  0  0  0  0  0  0  0  0  0  0  0
  1  2  1  0
  1  3  2  0
  4  1  1  1
  4  5  1  0
  4  6  1  0
  4  7  1  0
  5  8  1  0
  7  9  1  0
  5 10  1  6
  6 11  1  0
  8 11  1  0
  8 12  1  6
  9 13  2  0
  9 14  1  0
 10 14  1  0
 14 15  2  0
 13 16  1  0
 15 17  1  0
 16 17  2  0
M  END
