x0742_0_A-x0685_1_A
     RDKit          3D

 29 32  0  0  0  0  0  0  0  0999 V2000
   -5.4420   12.5950   -0.5380 C   0  0  0  0  0  0  0  0  0  0  0  0
   -6.3820   11.8560    0.3820 C   0  0  0  0  0  0  0  0  0  0  0  0
   -4.9690   11.9950   -1.5140 O   0  0  0  0  0  0  0  0  0  0  0  0
   -5.0950   14.0900   -0.2760 C   0  0  2  0  0  0  0  0  0  0  0  0
   -4.9870   14.2890    1.2510 C   0  0  0  0  0  0  0  0  0  0  0  0
   -6.2000   14.9150   -0.9550 C   0  0  0  0  0  0  0  0  0  0  0  0
   -3.9160   14.7690   -1.0060 C   0  0  2  0  0  0  0  0  0  0  0  0
   -4.3030   14.7200   -2.4810 C   0  0  0  0  0  0  0  0  0  0  0  0
   -2.5810   14.4160   -0.4490 C   0  0  0  0  0  0  0  0  0  0  0  0
   -3.6780   14.9640    1.6920 C   0  0  0  0  0  0  0  0  0  0  0  0
   -5.8450   14.7410   -2.4360 C   0  0  0  0  0  0  0  0  0  0  0  0
   -1.4870   14.0030   -1.1980 C   0  0  0  0  0  0  0  0  0  0  0  0
   -2.4720   14.5240    0.9240 C   0  0  0  0  0  0  0  0  0  0  0  0
   -1.3510   14.2550    1.6070 N   0  0  0  0  0  0  0  0  0  0  0  0
   -0.3070   13.7070   -0.5420 C   0  0  0  0  0  0  0  0  0  0  0  0
    0.7420   13.3020   -1.3400 O   0  0  0  0  0  0  0  0  0  0  0  0
   -0.2990   13.8490    0.8560 C   0  0  0  0  0  0  0  0  0  0  0  0
    0.7360   12.2380   -2.5860 S   0  0  0  0  0  0  0  0  0  0  0  0
   -0.1730   12.9140   -3.9820 C   0  0  0  0  0  0  0  0  0  0  0  0
    2.2120   12.1500   -3.2190 O   0  0  0  0  0  0  0  0  0  0  0  0
    0.1550   10.7600   -2.2780 O   0  0  0  0  0  0  0  0  0  0  0  0
   -1.4150   12.1220   -4.4320 C   0  0  0  0  0  0  0  0  0  0  0  0
   -1.1640   10.6950   -4.7450 N   0  0  0  0  0  0  0  0  0  0  0  0
   -0.6550   10.4010   -6.1060 C   0  0  0  0  0  0  0  0  0  0  0  0
   -0.5580    8.8960   -6.4060 C   0  0  0  0  0  0  0  0  0  0  0  0
   -1.5630   11.0400   -7.1800 C   0  0  0  0  0  0  0  0  0  0  0  0
    0.0410    8.6290   -7.7820 C   0  0  0  0  0  0  0  0  0  0  0  0
   -1.0780   10.7620   -8.6110 C   0  0  0  0  0  0  0  0  0  0  0  0
   -0.8140    9.2770   -8.8730 C   0  0  0  0  0  0  0  0  0  0  0  0
  1  2  1  0
  1  3  2  0
  4  1  1  1
  4  5  1  0
  4  6  1  0
  4  7  1  0
  7  8  1  6
  7  9  1  0
  5 10  1  0
  6 11  1  0
  8 11  1  0
  9 12  1  0
  9 13  2  0
 10 13  1  0
 13 14  1  0
 12 15  2  0
 15 16  1  0
 14 17  2  0
 15 17  1  0
 18 16  1  0
 18 19  1  0
 18 20  1  0
 18 21  1  0
 19 22  1  0
 22 23  1  0
 23 24  1  0
 24 25  1  0
 24 26  1  0
 25 27  1  0
 26 28  1  0
 27 29  1  0
 28 29  1  0
M  END
