x0742_0_A-x0685_0_A
     RDKit          3D

 21 23  0  0  0  0  0  0  0  0999 V2000
   -5.3270   12.0610   -0.5080 C   0  0  0  0  0  0  0  0  0  0  0  0
   -6.5730   11.3460   -0.0510 C   0  0  0  0  0  0  0  0  0  0  0  0
   -4.6200   11.5790   -1.3980 O   0  0  0  0  0  0  0  0  0  0  0  0
   -5.0300   13.3990    0.1690 C   0  0  2  0  0  0  0  0  0  0  0  0
   -4.5660   13.2930    1.6320 C   0  0  0  0  0  0  0  0  0  0  0  0
   -6.2940   14.2630    0.0860 C   0  0  1  0  0  0  0  0  0  0  0  0
   -4.0910   14.3570   -0.5620 C   0  0  2  0  0  0  0  0  0  0  0  0
   -6.3200   14.9330    1.4070 N   0  0  0  0  0  0  0  0  0  0  0  0
   -4.7680   14.4500   -1.8880 C   0  0  1  0  0  0  0  0  0  0  0  0
   -2.6220   14.3260   -0.2750 C   0  0  0  0  0  0  0  0  0  0  0  0
   -3.5830   14.4280    1.9320 C   0  0  0  0  0  0  0  0  0  0  0  0
   -6.0280   15.1120   -1.2410 C   0  0  0  0  0  0  0  0  0  0  0  0
   -7.5010   14.7780    2.2790 C   0  0  0  0  0  0  0  0  0  0  0  0
   -3.9480   15.2000   -2.8440 C   0  0  0  0  0  0  0  0  0  0  0  0
   -1.5110   14.2680   -1.1220 C   0  0  0  0  0  0  0  0  0  0  0  0
   -2.4140   14.3820    1.0590 C   0  0  0  0  0  0  0  0  0  0  0  0
   -7.7590   13.3160    2.6220 C   0  0  0  0  0  0  0  0  0  0  0  0
   -3.2670   15.7280   -3.6130 N   0  0  0  0  0  0  0  0  0  0  0  0
   -1.2520   14.4000    1.6710 N   0  0  0  0  0  0  0  0  0  0  0  0
   -0.2500   14.2840   -0.5130 C   0  0  0  0  0  0  0  0  0  0  0  0
   -0.2120   14.3550    0.8730 C   0  0  0  0  0  0  0  0  0  0  0  0
  1  2  1  0
  1  3  2  0
  4  1  1  6
  4  5  1  0
  4  6  1  0
  4  7  1  0
  6  8  1  1
  7  9  1  0
  7 10  1  6
  5 11  1  0
  6 12  1  0
  9 12  1  0
  8 13  1  0
  9 14  1  6
 10 15  1  0
 10 16  2  0
 11 16  1  0
 13 17  1  0
 14 18  3  0
 16 19  1  0
 15 20  2  0
 19 21  2  0
 20 21  1  0
M  END
