x0742_0_A_α-x0685_0_A_α
     RDKit          3D

 21 23  0  0  0  0  0  0  0  0999 V2000
   -5.3270   12.0580   -0.5100 C   0  0  0  0  0  0  0  0  0  0  0  0
   -6.5740   11.3490   -0.0520 C   0  0  0  0  0  0  0  0  0  0  0  0
   -4.6180   11.5760   -1.3980 O   0  0  0  0  0  0  0  0  0  0  0  0
   -5.0320   13.3990    0.1670 C   0  0  2  0  0  0  0  0  0  0  0  0
   -4.5660   13.2910    1.6290 C   0  0  0  0  0  0  0  0  0  0  0  0
   -6.2970   14.2650    0.0850 C   0  0  1  0  0  0  0  0  0  0  0  0
   -4.0940   14.3530   -0.5610 C   0  0  2  0  0  0  0  0  0  0  0  0
   -6.3190   14.9310    1.4050 N   0  0  0  0  0  0  0  0  0  0  0  0
   -4.7710   14.4520   -1.8860 C   0  0  1  0  0  0  0  0  0  0  0  0
   -2.6240   14.3250   -0.2750 C   0  0  0  0  0  0  0  0  0  0  0  0
   -3.5860   14.4290    1.9310 C   0  0  0  0  0  0  0  0  0  0  0  0
   -6.0300   15.1150   -1.2400 C   0  0  0  0  0  0  0  0  0  0  0  0
   -7.5020   14.7800    2.2780 C   0  0  0  0  0  0  0  0  0  0  0  0
   -3.9530   15.2070   -2.8420 C   0  0  0  0  0  0  0  0  0  0  0  0
   -1.5100   14.2680   -1.1220 C   0  0  0  0  0  0  0  0  0  0  0  0
   -2.4160   14.3820    1.0600 C   0  0  0  0  0  0  0  0  0  0  0  0
   -7.7580   13.3180    2.6230 C   0  0  0  0  0  0  0  0  0  0  0  0
   -3.2680   15.7280   -3.6140 N   0  0  0  0  0  0  0  0  0  0  0  0
   -1.2530   14.4000    1.6720 N   0  0  0  0  0  0  0  0  0  0  0  0
   -0.2520   14.2840   -0.5130 C   0  0  0  0  0  0  0  0  0  0  0  0
   -0.2110   14.3570    0.8730 C   0  0  0  0  0  0  0  0  0  0  0  0
  1  2  1  0
  1  3  2  0
  4  1  1  6
  4  5  1  0
  4  6  1  0
  4  7  1  0
  6  8  1  1
  7  9  1  0
  7 10  1  6
  5 11  1  0
  6 12  1  0
  9 12  1  0
  8 13  1  0
  9 14  1  6
 10 15  1  0
 10 16  2  0
 11 16  1  0
 13 17  1  0
 14 18  3  0
 16 19  1  0
 15 20  2  0
 19 21  2  0
 20 21  1  0
M  END
