x0742_0_A_α-x0592_0_A_α
     RDKit          3D

 22 24  0  0  0  0  0  0  0  0999 V2000
   -5.1310   12.0800   -0.6120 C   0  0  0  0  0  0  0  0  0  0  0  0
   -6.2930   11.1590   -0.3410 C   0  0  0  0  0  0  0  0  0  0  0  0
   -4.2000   11.7270   -1.3290 O   0  0  0  0  0  0  0  0  0  0  0  0
   -5.2830   13.4450    0.0510 C   0  0  2  0  0  0  0  0  0  0  0  0
   -5.1270   13.3380    1.5880 C   0  0  0  0  0  0  0  0  0  0  0  0
   -6.5950   14.0210   -0.6030 C   0  0  1  0  0  0  0  0  0  0  0  0
   -4.2920   14.5630   -0.1500 C   0  0  2  0  0  0  0  0  0  0  0  0
   -7.7400   14.5170    0.3680 C   0  0  0  0  0  0  0  0  0  0  0  0
   -4.7520   15.5760   -1.1170 C   0  0  2  0  0  0  0  0  0  0  0  0
   -2.8190   14.3850    0.0270 C   0  0  0  0  0  0  0  0  0  0  0  0
   -3.8380   14.0560    2.1490 C   0  0  0  0  0  0  0  0  0  0  0  0
   -6.0260   14.9780   -1.7170 C   0  0  0  0  0  0  0  0  0  0  0  0
   -3.4520   15.7270   -1.8180 C   0  0  0  0  0  0  0  0  0  0  0  0
   -7.7310   14.0850    1.8530 C   0  0  0  0  0  0  0  0  0  0  0  0
   -1.7140   14.4320   -0.8600 C   0  0  0  0  0  0  0  0  0  0  0  0
   -2.6120   14.1630    1.3040 C   0  0  0  0  0  0  0  0  0  0  0  0
   -2.4750   16.0940   -0.9260 N   0  0  0  0  0  0  0  0  0  0  0  0
   -3.2000   15.5400   -2.9850 O   0  0  0  0  0  0  0  0  0  0  0  0
   -7.2050   15.0740    2.7410 O   0  0  0  0  0  0  0  0  0  0  0  0
   -1.4140   14.0220    1.8670 N   0  0  0  0  0  0  0  0  0  0  0  0
   -0.4370   14.2660   -0.3140 C   0  0  0  0  0  0  0  0  0  0  0  0
   -0.3610   14.0720    1.0550 C   0  0  0  0  0  0  0  0  0  0  0  0
  1  2  1  0
  1  3  2  0
  4  1  1  6
  4  5  1  0
  4  6  1  0
  4  7  1  0
  6  8  1  1
  7  9  1  0
  7 10  1  6
  5 11  1  0
  6 12  1  0
  9 12  1  0
  9 13  1  6
  8 14  1  0
 10 15  1  0
 10 16  2  0
 11 16  1  0
 13 17  1  0
 13 18  2  0
 14 19  1  0
 16 20  1  0
 15 21  2  0
 20 22  2  0
 21 22  1  0
M  END
