x0766_0_A-x0371_0_A
     RDKit          3D

 29 33  0  0  0  0  0  0  0  0999 V2000
    0.5990   12.2480   -2.8070 C   0  0  0  0  0  0  0  0  0  0  0  0
   -0.1420   11.1300   -2.9500 O   0  0  0  0  0  0  0  0  0  0  0  0
    1.4510   12.3220   -1.9560 O   0  0  0  0  0  0  0  0  0  0  0  0
    0.2340   13.3370   -3.7790 C   0  0  2  0  0  0  0  0  0  0  0  0
    1.3610   13.6510   -4.7740 C   0  0  0  0  0  0  0  0  0  0  0  0
    0.0330   14.6240   -2.9520 C   0  0  1  0  0  0  0  0  0  0  0  0
    1.6000   15.1560   -4.6770 C   0  0  0  0  0  0  0  0  0  0  0  0
    0.4620   15.7370   -3.8890 C   0  0  0  0  0  0  0  0  0  0  0  0
   -1.3740   14.7330   -2.4750 C   0  0  0  0  0  0  0  0  0  0  0  0
   -2.4620   14.9580   -3.2670 C   0  0  0  0  0  0  0  0  0  0  0  0
   -1.6340   14.5970   -0.9790 C   0  0  0  0  0  0  0  0  0  0  0  0
   -2.9450   14.7030   -0.6290 C   0  0  0  0  0  0  0  0  0  0  0  0
   -3.7340   14.9350   -2.1230 S   0  0  0  0  0  0  0  0  0  0  0  0
   -3.7360   14.6520    0.5680 C   0  0  0  0  0  0  0  0  0  0  0  0
   -5.4690   15.0530   -2.1130 C   0  0  0  0  0  0  0  0  0  0  0  0
   -5.9640   14.8720   -0.7530 C   0  0  0  0  0  0  0  0  0  0  0  0
   -5.1110   14.7190    0.4790 C   0  0  0  0  0  0  0  0  0  0  0  0
   -6.0130   14.6240    1.4950 N   0  0  0  0  0  0  0  0  0  0  0  0
   -7.2130   14.7800   -0.4670 N   0  0  0  0  0  0  0  0  0  0  0  0
   -7.1790   14.6160    0.9060 C   0  0  0  0  0  0  0  0  0  0  0  0
   -8.5010   14.4550    1.6060 C   0  0  0  0  0  0  0  0  0  0  0  0
   -8.3000   14.5630    3.0260 N   0  0  0  0  0  0  0  0  0  0  0  0
   -8.8920   15.6050    3.6980 C   0  0  0  0  0  0  0  0  0  0  0  0
   -9.5270   16.4670    3.0990 O   0  0  0  0  0  0  0  0  0  0  0  0
   -8.7060   15.5800    5.1280 C   0  0  0  0  0  0  0  0  0  0  0  0
   -8.0860   14.4860    5.6650 O   0  0  0  0  0  0  0  0  0  0  0  0
   -9.0310   16.4570    6.1430 C   0  0  0  0  0  0  0  0  0  0  0  0
   -8.5840   15.8650    7.3520 C   0  0  0  0  0  0  0  0  0  0  0  0
   -8.0150   14.6670    7.0020 C   0  0  0  0  0  0  0  0  0  0  0  0
  1  2  1  0
  1  3  2  0
  4  1  1  1
  4  5  1  0
  4  6  1  0
  5  7  1  0
  6  8  1  0
  7  8  1  0
  6  9  1  6
  9 10  2  0
  9 11  1  0
 11 12  2  0
 10 13  1  0
 12 13  1  0
 12 14  1  0
 13 15  2  0
 15 16  1  0
 14 17  2  0
 16 17  1  0
 17 18  1  0
 16 19  2  0
 18 20  2  0
 19 20  1  0
 20 21  1  0
 21 22  1  0
 22 23  1  0
 23 24  2  0
 23 25  1  0
 25 26  1  0
 25 27  2  0
 27 28  1  0
 26 29  1  0
 28 29  2  0
M  END
