x0766_0_A_α-x0950_0_A_α
     RDKit          3D

 16 17  0  0  0  0  0  0  0  0999 V2000
    0.7850   12.6110   -3.2420 C   0  0  0  0  0  0  0  0  0  0  0  0
    1.4260   11.9380   -2.2000 O   0  0  0  0  0  0  0  0  0  0  0  0
   -0.5260   12.0790   -3.2850 O   0  0  0  0  0  0  0  0  0  0  0  0
    1.5020   12.3820   -4.5990 C   0  0  1  0  0  0  0  0  0  0  0  0
    0.9300   14.0810   -2.9610 C   0  0  1  0  0  0  0  0  0  0  0  0
    2.9320   11.8750   -4.4970 C   0  0  0  0  0  0  0  0  0  0  0  0
    0.6880   11.5150   -5.4020 O   0  0  0  0  0  0  0  0  0  0  0  0
    1.9270   14.7300   -3.9140 C   0  0  0  0  0  0  0  0  0  0  0  0
   -0.2250   15.0620   -3.0180 C   0  0  1  0  0  0  0  0  0  0  0  0
    1.0700   15.2820   -5.0400 C   0  0  0  0  0  0  0  0  0  0  0  0
   -0.3680   15.2790   -4.5160 C   0  0  0  0  0  0  0  0  0  0  0  0
   -1.4740   14.8330   -2.2170 C   0  0  0  0  0  0  0  0  0  0  0  0
   -2.7680   14.8270   -2.7180 C   0  0  0  0  0  0  0  0  0  0  0  0
   -1.4880   14.6090   -0.8020 C   0  0  0  0  0  0  0  0  0  0  0  0
   -2.7510   14.4530   -0.2930 C   0  0  0  0  0  0  0  0  0  0  0  0
   -3.9440   14.5710   -1.5060 S   0  0  0  0  0  0  0  0  0  0  0  0
  1  2  1  0
  1  3  1  0
  1  4  1  0
  5  1  1  6
  4  6  1  1
  4  7  1  0
  5  8  1  0
  5  9  1  0
  8 10  1  0
  9 11  1  0
 10 11  1  0
  9 12  1  6
 12 13  2  0
 12 14  1  0
 14 15  2  0
 13 16  1  0
 15 16  1  0
M  END
