x0766_0_A-x0837_0_A
     RDKit          3D

 20 22  0  0  0  0  0  0  0  0999 V2000
    0.4170   12.2210   -2.9010 C   0  0  0  0  0  0  0  0  0  0  0  0
   -0.2190   11.0360   -2.9610 O   0  0  0  0  0  0  0  0  0  0  0  0
    1.3510   12.4010   -2.1450 O   0  0  0  0  0  0  0  0  0  0  0  0
   -0.1660   13.2450   -3.8420 C   0  0  2  0  0  0  0  0  0  0  0  0
    0.8400   13.6670   -4.9370 C   0  0  0  0  0  0  0  0  0  0  0  0
   -0.3670   14.5320   -3.0320 C   0  0  1  0  0  0  0  0  0  0  0  0
    0.9630   15.1950   -4.8250 C   0  0  0  0  0  0  0  0  0  0  0  0
   -0.2900   15.6430   -4.0610 C   0  0  0  0  0  0  0  0  0  0  0  0
   -1.2230   14.4900   -1.7390 C   0  0  0  0  0  0  0  0  0  0  0  0
   -2.5200   14.8100   -1.1450 C   0  0  0  0  0  0  0  0  0  0  0  0
   -0.4240   13.9360   -0.6860 C   0  0  0  0  0  0  0  0  0  0  0  0
   -1.0080   13.8380    0.5290 C   0  0  0  0  0  0  0  0  0  0  0  0
   -2.5660   14.3920    0.5130 S   0  0  0  0  0  0  0  0  0  0  0  0
   -3.9360   15.3750   -1.2150 C   0  0  2  0  0  0  0  0  0  0  0  0
   -4.0130   15.9020    0.2270 C   0  0  0  0  0  0  0  0  0  0  0  0
   -5.1450   14.4540   -1.5150 C   0  0  0  0  0  0  0  0  0  0  0  0
   -4.8330   15.4510    1.1670 C   0  0  0  0  0  0  0  0  0  0  0  0
   -6.1910   14.4200   -0.3980 C   0  0  0  0  0  0  0  0  0  0  0  0
   -7.4080   14.3550   -0.5880 O   0  0  0  0  0  0  0  0  0  0  0  0
   -5.7050   14.4920    0.8620 N   0  0  0  0  0  0  0  0  0  0  0  0
  1  2  1  0
  1  3  2  0
  4  1  1  1
  4  5  1  0
  4  6  1  0
  5  7  1  0
  6  8  1  0
  7  8  1  0
  6  9  1  6
  9 10  2  0
  9 11  1  0
 11 12  2  0
 10 13  1  0
 12 13  1  0
 14 10  1  1
 14 15  1  0
 14 16  1  0
 15 17  2  0
 16 18  1  0
 18 19  2  0
 17 20  1  0
 18 20  1  0
M  END
