x0766_0_A_α-x0685_0_A_α
     RDKit          3D

 24 26  0  0  0  0  0  0  0  0999 V2000
    0.5050   12.3330   -2.9530 C   0  0  0  0  0  0  0  0  0  0  0  0
   -0.1680   11.1600   -2.8800 O   0  0  0  0  0  0  0  0  0  0  0  0
    1.3510   12.6210   -2.1280 O   0  0  0  0  0  0  0  0  0  0  0  0
    0.1010   13.2120   -4.1350 C   0  0  2  0  0  0  0  0  0  0  0  0
    1.3350   13.6110   -4.9540 C   0  0  0  0  0  0  0  0  0  0  0  0
   -0.5420   14.5350   -3.6420 C   0  0  2  0  0  0  0  0  0  0  0  0
    1.5990   15.0860   -4.6600 C   0  0  0  0  0  0  0  0  0  0  0  0
    0.6090   15.5370   -3.6160 C   0  0  0  0  0  0  0  0  0  0  0  0
   -1.1170   14.4700   -2.2490 C   0  0  0  0  0  0  0  0  0  0  0  0
   -2.4140   14.7260   -1.8100 C   0  0  0  0  0  0  0  0  0  0  0  0
   -0.3050   14.1150   -1.1120 C   0  0  0  0  0  0  0  0  0  0  0  0
   -3.7330   15.1520   -2.3660 C   0  0  1  0  0  0  0  0  0  0  0  0
   -0.9720   14.0980    0.0760 C   0  0  0  0  0  0  0  0  0  0  0  0
   -2.5760   14.4970   -0.1220 S   0  0  0  0  0  0  0  0  0  0  0  0
   -4.1160   14.3220   -3.5030 N   0  0  0  0  0  0  0  0  0  0  0  0
   -4.5130   15.0610   -1.0630 C   0  0  0  0  0  0  0  0  0  0  0  0
   -3.8150   15.3680    0.1170 C   0  0  0  0  0  0  0  0  0  0  0  0
   -5.8360   14.6870   -0.8880 C   0  0  0  0  0  0  0  0  0  0  0  0
   -4.4070   15.2830    1.3540 C   0  0  0  0  0  0  0  0  0  0  0  0
   -6.4450   14.5960    0.3320 N   0  0  0  0  0  0  0  0  0  0  0  0
   -5.7100   14.8900    1.4300 C   0  0  0  0  0  0  0  0  0  0  0  0
   -6.3230   14.7790    2.6650 N   0  0  0  0  0  0  0  0  0  0  0  0
   -7.7660   14.8400    2.7490 C   0  0  0  0  0  0  0  0  0  0  0  0
   -8.2700   13.4540    3.1040 C   0  0  0  0  0  0  0  0  0  0  0  0
  1  2  1  0
  1  3  2  0
  4  1  1  1
  4  5  1  0
  4  6  1  0
  5  7  1  0
  6  8  1  0
  7  8  1  0
  6  9  1  1
  9 10  2  0
  9 11  1  0
 10 12  1  0
 11 13  2  0
 10 14  1  0
 13 14  1  0
 12 15  1  6
 12 16  1  0
 16 17  2  0
 16 18  1  0
 17 19  1  0
 18 20  2  0
 19 21  2  0
 20 21  1  0
 21 22  1  0
 22 23  1  0
 23 24  1  0
M  END
