x0766_0_A-x0592_0_A
     RDKit          3D

 23 25  0  0  0  0  0  0  0  0999 V2000
    0.5570   12.3150   -2.7940 C   0  0  0  0  0  0  0  0  0  0  0  0
   -0.0560   11.1110   -2.7880 O   0  0  0  0  0  0  0  0  0  0  0  0
    1.2220   12.6730   -1.8430 O   0  0  0  0  0  0  0  0  0  0  0  0
    0.3290   13.1120   -4.0630 C   0  0  2  0  0  0  0  0  0  0  0  0
    1.6440   13.4690   -4.7400 C   0  0  0  0  0  0  0  0  0  0  0  0
   -0.2680   14.5180   -3.8640 C   0  0  2  0  0  0  0  0  0  0  0  0
    2.1310   14.6640   -3.9200 C   0  0  0  0  0  0  0  0  0  0  0  0
    0.9000   15.2990   -3.2910 C   0  0  0  0  0  0  0  0  0  0  0  0
   -1.5140   14.5740   -3.0350 C   0  0  0  0  0  0  0  0  0  0  0  0
   -2.7810   14.7180   -3.5320 C   0  0  0  0  0  0  0  0  0  0  0  0
   -1.5270   14.4820   -1.6000 C   0  0  0  0  0  0  0  0  0  0  0  0
   -2.8090   14.5590   -1.0990 C   0  0  0  0  0  0  0  0  0  0  0  0
   -3.9600   14.7430   -2.3290 S   0  0  0  0  0  0  0  0  0  0  0  0
   -3.3290   14.5010    0.2830 C   0  0  1  0  0  0  0  0  0  0  0  0
   -2.7220   15.4980    1.1350 N   0  0  0  0  0  0  0  0  0  0  0  0
   -4.8220   14.6870    0.1440 C   0  0  0  0  0  0  0  0  0  0  0  0
   -5.5300   15.3680   -0.8990 C   0  0  0  0  0  0  0  0  0  0  0  0
   -5.8260   14.2520    0.9650 C   0  0  0  0  0  0  0  0  0  0  0  0
   -6.8550   15.3440   -0.7340 N   0  0  0  0  0  0  0  0  0  0  0  0
   -6.9970   14.6610    0.4150 N   0  0  0  0  0  0  0  0  0  0  0  0
   -8.3030   14.4150    0.9750 C   0  0  0  0  0  0  0  0  0  0  0  0
   -8.1750   14.0880    2.4570 C   0  0  0  0  0  0  0  0  0  0  0  0
   -7.3150   15.0240    3.1070 O   0  0  0  0  0  0  0  0  0  0  0  0
  1  2  1  0
  1  3  2  0
  4  1  1  1
  4  5  1  0
  4  6  1  0
  5  7  1  0
  6  8  1  0
  7  8  1  0
  6  9  1  1
  9 10  2  0
  9 11  1  0
 11 12  2  0
 10 13  1  0
 12 13  1  0
 12 14  1  0
 14 15  1  1
 14 16  1  0
 16 17  1  0
 16 18  2  0
 17 19  2  0
 18 20  1  0
 19 20  1  0
 20 21  1  0
 21 22  1  0
 22 23  1  0
M  END
