x0766_1_B-x0380_0_B
     RDKit          3D

 19 20  0  0  0  0  0  0  0  0999 V2000
   -7.4340   26.4640  -13.7410 C   0  0  0  0  0  0  0  0  0  0  0  0
   -6.3910   26.0070  -14.4580 O   0  0  0  0  0  0  0  0  0  0  0  0
   -8.5120   26.6540  -14.2720 O   0  0  0  0  0  0  0  0  0  0  0  0
   -7.0850   26.6920  -12.2920 C   0  0  2  0  0  0  0  0  0  0  0  0
   -8.1630   26.2390  -11.3110 C   0  0  0  0  0  0  0  0  0  0  0  0
   -6.9960   28.1830  -12.0150 C   0  0  2  0  0  0  0  0  0  0  0  0
   -9.0880   27.4460  -11.0980 C   0  0  0  0  0  0  0  0  0  0  0  0
   -8.4350   28.6260  -11.8180 C   0  0  0  0  0  0  0  0  0  0  0  0
   -6.1890   28.9140  -13.0510 C   0  0  0  0  0  0  0  0  0  0  0  0
   -5.0880   29.5050  -12.6610 C   0  0  0  0  0  0  0  0  0  0  0  0
   -6.3510   29.1270  -14.4650 C   0  0  0  0  0  0  0  0  0  0  0  0
   -4.6710   29.4480  -11.0770 Cl  0  0  0  0  0  0  0  0  0  0  0  0
   -5.2910   29.8720  -14.9360 C   0  0  0  0  0  0  0  0  0  0  0  0
   -4.1640   30.2960  -13.7860 S   0  0  0  0  0  0  0  0  0  0  0  0
   -4.8600   30.3880  -16.0820 N   0  0  0  0  0  0  0  0  0  0  0  0
   -3.8920   31.3540  -15.9530 C   0  0  0  0  0  0  0  0  0  0  0  0
   -4.0760   32.5020  -15.5750 O   0  0  0  0  0  0  0  0  0  0  0  0
   -2.4970   30.8510  -16.3210 C   0  0  0  0  0  0  0  0  0  0  0  0
   -2.0450   31.5040  -17.5650 N   0  0  0  0  0  0  0  0  0  0  0  0
  1  2  1  0
  1  3  2  0
  4  1  1  6
  4  5  1  0
  4  6  1  0
  5  7  1  0
  6  8  1  0
  7  8  1  0
  6  9  1  6
  9 10  2  0
  9 11  1  0
 10 12  1  0
 11 13  2  0
 10 14  1  0
 13 14  1  0
 13 15  1  0
 15 16  1  0
 16 17  2  0
 16 18  1  0
 18 19  1  0
M  END
