x0766_0_A_α-x0662_0_A_α
     RDKit          3D

 26 28  0  0  0  0  0  0  0  0999 V2000
    0.3900   12.1540   -2.8210 C   0  0  0  0  0  0  0  0  0  0  0  0
    0.0190   11.0190   -3.4420 O   0  0  0  0  0  0  0  0  0  0  0  0
    0.6650   12.1960   -1.6210 O   0  0  0  0  0  0  0  0  0  0  0  0
    0.4960   13.4180   -3.6450 C   0  0  1  0  0  0  0  0  0  0  0  0
    0.6070   13.5020   -5.1790 C   0  0  2  0  0  0  0  0  0  0  0  0
   -0.6650   14.4080   -3.5980 C   0  0  2  0  0  0  0  0  0  0  0  0
    1.5250   12.5150   -5.9350 C   0  0  0  0  0  0  0  0  0  0  0  0
    1.0940   14.9720   -5.0810 C   0  0  0  0  0  0  0  0  0  0  0  0
    0.1390   15.6210   -4.0630 C   0  0  0  0  0  0  0  0  0  0  0  0
   -1.5340   14.5780   -2.3860 C   0  0  0  0  0  0  0  0  0  0  0  0
    0.9640   11.2550   -6.6820 C   0  0  0  0  0  0  0  0  0  0  0  0
   -2.9120   14.7020   -2.4850 C   0  0  0  0  0  0  0  0  0  0  0  0
   -1.1290   14.6410   -1.0070 C   0  0  0  0  0  0  0  0  0  0  0  0
    0.1390   11.2620   -7.9810 C   0  0  0  0  0  0  0  0  0  0  0  0
   -2.2000   14.8020   -0.1480 C   0  0  0  0  0  0  0  0  0  0  0  0
   -3.6890   14.8870   -0.9790 S   0  0  0  0  0  0  0  0  0  0  0  0
    0.6480   10.2140   -9.0140 C   0  0  0  0  0  0  0  0  0  0  0  0
    1.1670   10.6950  -10.3960 C   0  0  0  0  0  0  0  0  0  0  0  0
    1.9870    9.6510  -11.1950 C   0  0  0  0  0  0  0  0  0  0  0  0
    2.0500    8.4710  -10.8390 O   0  0  0  0  0  0  0  0  0  0  0  0
    2.7370   10.0800  -12.4070 C   0  0  0  0  0  0  0  0  0  0  0  0
    3.6630    9.2920  -13.0000 N   0  0  0  0  0  0  0  0  0  0  0  0
    2.6240   11.3170  -13.1070 C   0  0  0  0  0  0  0  0  0  0  0  0
    4.1220   10.0210  -14.0360 N   0  0  0  0  0  0  0  0  0  0  0  0
    3.5260   11.2450  -14.1450 C   0  0  0  0  0  0  0  0  0  0  0  0
    5.1470    9.4740  -14.8980 C   0  0  0  0  0  0  0  0  0  0  0  0
  1  2  1  0
  1  3  2  0
  4  1  1  6
  4  5  1  0
  4  6  1  0
  5  7  1  1
  5  8  1  0
  6  9  1  0
  8  9  1  0
  6 10  1  1
  7 11  1  0
 10 12  2  0
 10 13  1  0
 11 14  1  0
 13 15  2  0
 12 16  1  0
 15 16  1  0
 14 17  1  0
 17 18  1  0
 18 19  1  0
 19 20  2  0
 19 21  1  0
 21 22  2  0
 21 23  1  0
 22 24  1  0
 23 25  2  0
 24 25  1  0
 24 26  1  0
M  END
