x0766_0_A-x1018_0_A
     RDKit          3D

 19 21  0  0  0  0  0  0  0  0999 V2000
    0.3600   12.2680   -2.3230 C   0  0  0  0  0  0  0  0  0  0  0  0
    0.1710   11.1010   -2.9580 O   0  0  0  0  0  0  0  0  0  0  0  0
    0.3160   12.3590   -1.1150 O   0  0  0  0  0  0  0  0  0  0  0  0
    0.6400   13.5210   -3.1010 C   0  0  1  0  0  0  0  0  0  0  0  0
    1.4420   13.5000   -4.3880 C   0  0  0  0  0  0  0  0  0  0  0  0
   -0.6230   14.2900   -3.5070 C   0  0  2  0  0  0  0  0  0  0  0  0
    1.3510   14.9720   -4.7810 C   0  0  0  0  0  0  0  0  0  0  0  0
    0.1060   15.5230   -4.0700 C   0  0  0  0  0  0  0  0  0  0  0  0
   -1.6700   14.5520   -2.4140 C   0  0  0  0  0  0  0  0  0  0  0  0
   -2.8950   13.9810   -2.2220 C   0  0  0  0  0  0  0  0  0  0  0  0
   -1.3890   15.5560   -1.3940 C   0  0  0  0  0  0  0  0  0  0  0  0
   -2.3750   15.7520   -0.5020 C   0  0  0  0  0  0  0  0  0  0  0  0
   -3.6780   14.7340   -0.8840 S   0  0  1  0  0  0  0  0  0  0  0  0
   -5.0360   15.5500   -1.4560 N   0  0  0  0  0  0  0  0  0  0  0  0
   -4.0330   13.8350    0.5260 C   0  0  0  0  0  0  0  0  0  0  0  0
   -6.2170   15.5040   -0.6080 N   0  0  0  0  0  0  0  0  0  0  0  0
   -5.3340   13.6730    0.8340 C   0  0  0  0  0  0  0  0  0  0  0  0
   -6.4720   14.2080    0.0110 C   0  0  1  0  0  0  0  0  0  0  0  0
   -7.9370   14.4550    1.0040 Cl  0  0  0  0  0  0  0  0  0  0  0  0
  1  2  1  0
  1  3  2  0
  4  1  1  6
  4  5  1  0
  4  6  1  0
  5  7  1  0
  6  8  1  0
  7  8  1  0
  6  9  1  1
  9 10  2  0
  9 11  1  0
 11 12  2  0
 13 10  1  6
 12 13  1  0
 13 14  1  0
 13 15  1  0
 14 16  1  0
 15 17  2  0
 16 18  1  0
 17 18  1  0
 18 19  1  1
M  END
