x0766_0_A_α-x0895_0_A_α
     RDKit          3D

 20 22  0  0  0  0  0  0  0  0999 V2000
    0.7530   12.3050   -3.0690 C   0  0  0  0  0  0  0  0  0  0  0  0
    0.1000   11.1230   -3.0370 O   0  0  0  0  0  0  0  0  0  0  0  0
    1.7210   12.4760   -2.3550 O   0  0  0  0  0  0  0  0  0  0  0  0
    0.1510   13.3170   -4.0160 C   0  0  2  0  0  0  0  0  0  0  0  0
    1.1710   13.8040   -5.0610 C   0  0  0  0  0  0  0  0  0  0  0  0
   -0.1570   14.6050   -3.2550 C   0  0  1  0  0  0  0  0  0  0  0  0
    1.1170   15.3420   -4.9730 C   0  0  0  0  0  0  0  0  0  0  0  0
   -0.2370   15.6520   -4.3260 C   0  0  0  0  0  0  0  0  0  0  0  0
   -1.0590   14.3640   -2.0640 C   0  0  0  0  0  0  0  0  0  0  0  0
   -2.4280   14.5220   -1.7150 C   0  0  0  0  0  0  0  0  0  0  0  0
   -0.3600   13.8330   -0.9420 C   0  0  0  0  0  0  0  0  0  0  0  0
   -3.6380   14.9360   -2.0910 N   0  0  0  0  0  0  0  0  0  0  0  0
   -1.1180   13.5920    0.1430 C   0  0  0  0  0  0  0  0  0  0  0  0
   -2.7210   13.9690   -0.1260 S   0  0  0  0  0  0  0  0  0  0  0  0
   -3.8410   15.2880   -0.8520 C   0  0  0  0  0  0  0  0  0  0  0  0
   -4.7860   15.8000   -0.0080 N   0  0  0  0  0  0  0  0  0  0  0  0
   -2.7130   15.1050   -0.1250 N   0  0  0  0  0  0  0  0  0  0  0  0
   -4.3630   15.5380    1.3920 C   0  0  0  0  0  0  0  0  0  0  0  0
   -2.9250   15.0690    1.2110 C   0  0  0  0  0  0  0  0  0  0  0  0
   -2.0750   14.7370    2.0390 O   0  0  0  0  0  0  0  0  0  0  0  0
  1  2  1  0
  1  3  2  0
  4  1  1  1
  4  5  1  0
  4  6  1  0
  5  7  1  0
  6  8  1  0
  7  8  1  0
  6  9  1  6
  9 10  2  0
  9 11  1  0
 10 12  1  0
 11 13  2  0
 10 14  1  0
 13 14  1  0
 12 15  2  3
 15 16  1  0
 15 17  1  0
 16 18  1  0
 17 19  1  0
 18 19  1  0
 19 20  2  0
M  END
