x0766_0_A-x0282_0_A
     RDKit          3D

 26 29  0  0  0  0  0  0  0  0999 V2000
    0.6300   12.1050   -2.8810 C   0  0  0  0  0  0  0  0  0  0  0  0
   -0.0180   10.9230   -2.8690 O   0  0  0  0  0  0  0  0  0  0  0  0
    1.4120   12.4160   -2.0060 O   0  0  0  0  0  0  0  0  0  0  0  0
    0.3040   13.0160   -4.0390 C   0  0  2  0  0  0  0  0  0  0  0  0
    1.5600   13.5690   -4.7230 C   0  0  0  0  0  0  0  0  0  0  0  0
   -0.4840   14.2440   -3.5470 C   0  0  2  0  0  0  0  0  0  0  0  0
    1.6830   15.0140   -4.2350 C   0  0  0  0  0  0  0  0  0  0  0  0
    0.6700   15.1520   -3.1060 C   0  0  0  0  0  0  0  0  0  0  0  0
   -1.6080   13.8060   -2.5410 C   0  0  2  0  0  0  0  0  0  0  0  0
   -2.8100   14.6520   -2.7270 C   0  0  0  0  0  0  0  0  0  0  0  0
   -1.3360   13.4080   -1.0740 C   0  0  0  0  0  0  0  0  0  0  0  0
   -3.5240   15.9200   -1.6570 S   0  0  0  0  0  0  0  0  0  0  0  0
   -2.1520   14.1280    0.0390 C   0  0  1  0  0  0  0  0  0  0  0  0
   -2.1030   15.5350   -0.4960 C   0  0  1  0  0  0  0  0  0  0  0  0
   -3.5160   13.6410    0.3130 N   0  0  0  0  0  0  0  0  0  0  0  0
   -1.4360   14.2110    1.3130 N   0  0  0  0  0  0  0  0  0  0  0  0
   -3.9960   13.8450    1.6870 C   0  0  0  0  0  0  0  0  0  0  0  0
   -4.5460   13.6540   -0.7490 C   0  0  0  0  0  0  0  0  0  0  0  0
   -0.7040   15.6900   -1.0200 C   0  0  0  0  0  0  0  0  0  0  0  0
   -0.0300   14.3780    1.0260 C   0  0  0  0  0  0  0  0  0  0  0  0
   -5.2540   14.6920    1.8370 C   0  0  0  0  0  0  0  0  0  0  0  0
   -5.8060   14.4890   -0.4880 C   0  0  0  0  0  0  0  0  0  0  0  0
    0.2740   15.1180   -0.2590 C   0  0  0  0  0  0  0  0  0  0  0  0
   -6.2810   14.1130    0.9010 C   0  0  0  0  0  0  0  0  0  0  0  0
   -7.7280   14.4550    1.2560 C   0  0  0  0  0  0  0  0  0  0  0  0
   -8.5100   14.6900    0.0980 O   0  0  0  0  0  0  0  0  0  0  0  0
  1  2  1  0
  1  3  2  0
  4  1  1  1
  4  5  1  0
  4  6  1  0
  5  7  1  0
  6  8  1  1
  7  8  1  0
  6  9  1  0
  9 10  1  1
  9 11  1  0
 10 12  2  0
 11 13  1  0
 12 14  1  0
 13 14  1  0
 13 15  1  1
 13 16  1  0
 15 17  1  0
 15 18  1  0
 14 19  1  6
 16 20  1  0
 17 21  1  0
 18 22  1  0
 19 23  2  0
 20 23  1  0
 21 24  1  0
 22 24  1  0
 24 25  1  0
 25 26  1  0
M  END
