x0766_0_A-x0805_0_A
     RDKit          3D

 15 16  0  0  0  0  0  0  0  0999 V2000
    0.4410   12.2470   -2.4460 C   0  0  0  0  0  0  0  0  0  0  0  0
   -0.0070   11.1780   -3.1230 O   0  0  0  0  0  0  0  0  0  0  0  0
    0.4630   12.2640   -1.2340 O   0  0  0  0  0  0  0  0  0  0  0  0
    0.9210   13.4280   -3.2230 C   0  0  1  0  0  0  0  0  0  0  0  0
    1.0520   13.3560   -4.7350 C   0  0  0  0  0  0  0  0  0  0  0  0
    0.1660   14.7430   -2.9480 C   0  0  1  0  0  0  0  0  0  0  0  0
    1.3310   14.8210   -5.0050 C   0  0  0  0  0  0  0  0  0  0  0  0
    0.2370   15.5280   -4.2480 C   0  0  0  0  0  0  0  0  0  0  0  0
   -1.1850   14.7290   -2.2760 C   0  0  0  0  0  0  0  0  0  0  0  0
   -2.4270   14.7030   -2.8970 C   0  0  0  0  0  0  0  0  0  0  0  0
   -1.3420   14.7590   -0.8590 C   0  0  0  0  0  0  0  0  0  0  0  0
   -2.6500   14.7710   -0.4470 C   0  0  0  0  0  0  0  0  0  0  0  0
   -3.7190   14.7300   -1.7830 S   0  0  0  0  0  0  0  0  0  0  0  0
   -3.1730   14.8130    0.7660 O   0  0  0  0  0  0  0  0  0  0  0  0
   -4.2560   15.7060    0.9630 C   0  0  0  0  0  0  0  0  0  0  0  0
  1  2  1  0
  1  3  2  0
  4  1  1  6
  4  5  1  0
  4  6  1  0
  5  7  1  0
  6  8  1  0
  7  8  1  0
  6  9  1  6
  9 10  2  0
  9 11  1  0
 11 12  2  0
 10 13  1  0
 12 13  1  0
 12 14  1  0
 14 15  1  0
M  END
