x0766_0_A-x0742_0_A
     RDKit          3D

 26 29  0  0  0  0  0  0  0  0999 V2000
    0.4230   12.1730   -2.7560 C   0  0  0  0  0  0  0  0  0  0  0  0
   -0.1380   11.3790   -3.6840 O   0  0  0  0  0  0  0  0  0  0  0  0
    0.5890   11.7860   -1.6180 O   0  0  0  0  0  0  0  0  0  0  0  0
    0.8230   13.5160   -3.2690 C   0  0  1  0  0  0  0  0  0  0  0  0
    1.0480   13.6660   -4.7640 C   0  0  0  0  0  0  0  0  0  0  0  0
    0.0150   14.7710   -2.8030 C   0  0  1  0  0  0  0  0  0  0  0  0
    1.3390   15.1490   -4.8240 C   0  0  0  0  0  0  0  0  0  0  0  0
    0.2550   15.7670   -3.9560 C   0  0  0  0  0  0  0  0  0  0  0  0
   -1.4540   14.7780   -2.3470 C   0  0  0  0  0  0  0  0  0  0  0  0
   -1.9860   14.4620   -1.1500 C   0  0  0  0  0  0  0  0  0  0  0  0
   -2.4950   15.2080   -3.2580 C   0  0  0  0  0  0  0  0  0  0  0  0
   -3.7470   15.2250   -2.7550 C   0  0  0  0  0  0  0  0  0  0  0  0
   -3.6490   14.7110   -1.1970 S   0  0  1  0  0  0  0  0  0  0  0  0
   -4.7350   13.7770   -0.3920 N   0  0  0  0  0  0  0  0  0  0  0  0
   -4.2550   15.8130   -0.0170 C   0  0  0  0  0  0  0  0  0  0  0  0
   -5.1770   12.4960   -0.6360 C   0  0  0  0  0  0  0  0  0  0  0  0
   -4.6680   14.5800    0.8510 C   0  0  2  0  0  0  0  0  0  0  0  0
   -4.8190   11.7900   -1.5770 O   0  0  0  0  0  0  0  0  0  0  0  0
   -6.1830   11.9890    0.3650 C   0  0  0  0  0  0  0  0  0  0  0  0
   -3.5960   14.0820    1.8030 C   0  0  0  0  0  0  0  0  0  0  0  0
   -2.2680   14.0720    1.1180 C   0  0  0  0  0  0  0  0  0  0  0  0
   -1.2590   14.6850    1.7470 N   0  0  0  0  0  0  0  0  0  0  0  0
   -2.1120   13.4470   -0.1110 C   0  0  0  0  0  0  0  0  0  0  0  0
   -0.0610   14.6810    1.1240 C   0  0  0  0  0  0  0  0  0  0  0  0
   -0.8680   13.4600   -0.7230 C   0  0  0  0  0  0  0  0  0  0  0  0
    0.1840   14.0900   -0.0970 C   0  0  0  0  0  0  0  0  0  0  0  0
  1  2  1  0
  1  3  2  0
  4  1  1  6
  4  5  1  0
  4  6  1  0
  5  7  1  0
  6  8  1  0
  7  8  1  0
  6  9  1  6
  9 10  2  0
  9 11  1  0
 11 12  2  0
 13 10  1  1
 12 13  1  0
 13 14  1  0
 13 15  1  0
 14 16  1  0
 14 17  1  0
 15 17  1  0
 16 18  2  0
 16 19  1  0
 17 20  1  1
 20 21  1  0
 21 22  2  0
 21 23  1  0
 22 24  1  0
 23 25  2  0
 24 26  2  0
 25 26  1  0
M  END
