x0766_0_A-x0724_0_A
     RDKit          3D

 20 22  0  0  0  0  0  0  0  0999 V2000
    0.2230   12.3840   -2.5790 C   0  0  0  0  0  0  0  0  0  0  0  0
   -0.0810   11.0720   -2.5490 O   0  0  0  0  0  0  0  0  0  0  0  0
    1.0230   12.8430   -1.7910 O   0  0  0  0  0  0  0  0  0  0  0  0
   -0.5190   13.1280   -3.6680 C   0  0  2  0  0  0  0  0  0  0  0  0
    0.5330   13.5650   -4.7050 C   0  0  0  0  0  0  0  0  0  0  0  0
   -1.2110   14.4620   -3.2270 C   0  0  2  0  0  0  0  0  0  0  0  0
    1.1260   14.8370   -4.1230 C   0  0  0  0  0  0  0  0  0  0  0  0
    0.0320   15.4200   -3.2100 C   0  0  0  0  0  0  0  0  0  0  0  0
   -2.2050   14.5440   -1.9980 C   0  0  0  0  0  0  0  0  0  0  0  0
   -3.5860   14.4850   -1.8440 C   0  0  0  0  0  0  0  0  0  0  0  0
   -1.7660   14.7350   -0.7220 C   0  0  0  0  0  0  0  0  0  0  0  0
   -2.7810   14.8020    0.1370 C   0  0  0  0  0  0  0  0  0  0  0  0
   -4.5390   14.6410   -0.2340 S   0  0  0  0  0  0  0  0  0  0  0  0
   -5.8980   14.4480   -1.0120 N   0  0  0  0  0  0  0  0  0  0  0  0
   -4.8950   14.8360    1.3530 C   0  0  0  0  0  0  0  0  0  0  0  0
   -6.3430   14.7480    1.4230 C   0  0  0  0  0  0  0  0  0  0  0  0
   -6.8370   14.5270    0.0200 C   0  0  0  0  0  0  0  0  0  0  0  0
   -7.2330   14.8800    2.6920 C   0  0  0  0  0  0  0  0  0  0  0  0
   -7.8510   13.6640    3.2630 N   0  0  0  0  0  0  0  0  0  0  0  0
   -8.2700   13.8450    4.6630 C   0  0  0  0  0  0  0  0  0  0  0  0
  1  2  1  0
  1  3  2  0
  4  1  1  1
  4  5  1  0
  4  6  1  0
  5  7  1  0
  6  8  1  0
  7  8  1  0
  6  9  1  1
  9 10  2  0
  9 11  1  0
 11 12  2  0
 10 13  1  0
 12 13  1  0
 13 14  1  0
 13 15  1  0
 15 16  2  0
 14 17  2  0
 16 17  1  0
 16 18  1  0
 18 19  1  0
 19 20  1  0
M  END
