x0766_0_A-x0950_1_A
     RDKit          3D

 16 17  0  0  0  0  0  0  0  0999 V2000
    0.5200   12.3300   -3.3390 C   0  0  0  0  0  0  0  0  0  0  0  0
   -0.8350   12.5530   -3.3880 O   0  0  0  0  0  0  0  0  0  0  0  0
    0.6970   11.1910   -2.5010 O   0  0  0  0  0  0  0  0  0  0  0  0
    1.0430   12.0740   -4.7670 C   0  0  2  0  0  0  0  0  0  0  0  0
    1.0800   13.5820   -2.7370 C   0  0  1  0  0  0  0  0  0  0  0  0
    1.1760   13.3160   -5.6150 C   0  0  0  0  0  0  0  0  0  0  0  0
    0.0690   11.2560   -5.4340 O   0  0  0  0  0  0  0  0  0  0  0  0
    2.2240   14.1750   -3.5730 C   0  0  0  0  0  0  0  0  0  0  0  0
    0.1450   14.7890   -2.5480 C   0  0  1  0  0  0  0  0  0  0  0  0
    1.6260   15.4240   -4.2380 C   0  0  0  0  0  0  0  0  0  0  0  0
    0.1520   15.4010   -3.9330 C   0  0  0  0  0  0  0  0  0  0  0  0
   -1.2300   14.7010   -1.9350 C   0  0  0  0  0  0  0  0  0  0  0  0
   -2.4280   14.6600   -2.6370 C   0  0  0  0  0  0  0  0  0  0  0  0
   -1.4740   14.6650   -0.5300 C   0  0  0  0  0  0  0  0  0  0  0  0
   -2.8080   14.6040   -0.2150 C   0  0  0  0  0  0  0  0  0  0  0  0
   -3.7920   14.5890   -1.6050 S   0  0  0  0  0  0  0  0  0  0  0  0
  1  2  1  0
  1  3  1  0
  1  4  1  0
  5  1  1  6
  4  6  1  6
  4  7  1  0
  5  8  1  0
  5  9  1  0
  8 10  1  0
  9 11  1  0
 10 11  1  0
  9 12  1  6
 12 13  2  0
 12 14  1  0
 14 15  2  0
 13 16  1  0
 15 16  1  0
M  END
