x0766_0_A_α-x0855_0_A_α
     RDKit          3D

 20 22  0  0  0  0  0  0  0  0999 V2000
    0.6020   12.4730   -3.0650 C   0  0  0  0  0  0  0  0  0  0  0  0
    1.6980   12.7310   -2.2110 O   0  0  0  0  0  0  0  0  0  0  0  0
   -0.3680   11.7790   -2.2710 O   0  0  0  0  0  0  0  0  0  0  0  0
    0.8620   11.5720   -4.1950 C   0  0  0  0  0  0  0  0  0  0  0  0
    0.0670   13.6880   -3.7660 C   0  0  2  0  0  0  0  0  0  0  0  0
    1.0310   14.1460   -4.8960 C   0  0  0  0  0  0  0  0  0  0  0  0
   -0.1100   14.8770   -2.8640 C   0  0  1  0  0  0  0  0  0  0  0  0
   -0.3250   11.2100   -4.9340 N   0  0  0  0  0  0  0  0  0  0  0  0
    1.3980   15.5720   -4.5520 C   0  0  0  0  0  0  0  0  0  0  0  0
    0.1730   16.0520   -3.7990 C   0  0  0  0  0  0  0  0  0  0  0  0
   -1.4460   14.8600   -2.1510 C   0  0  0  0  0  0  0  0  0  0  0  0
   -0.4500   10.9260   -6.2560 C   0  0  0  0  0  0  0  0  0  0  0  0
   -1.4920   11.1140   -4.2610 N   0  0  0  0  0  0  0  0  0  0  0  0
   -2.7220   14.9850   -2.6760 C   0  0  0  0  0  0  0  0  0  0  0  0
   -1.5030   14.6960   -0.7270 C   0  0  0  0  0  0  0  0  0  0  0  0
   -1.7570   10.5840   -6.4300 C   0  0  0  0  0  0  0  0  0  0  0  0
   -2.3670   10.7270   -5.1840 C   0  0  0  0  0  0  0  0  0  0  0  0
   -2.5920   10.0200   -7.9860 Br  0  0  0  0  0  0  0  0  0  0  0  0
   -2.7830   14.7110   -0.2330 C   0  0  0  0  0  0  0  0  0  0  0  0
   -3.9380   14.9170   -1.4710 S   0  0  0  0  0  0  0  0  0  0  0  0
  1  2  1  0
  1  3  1  0
  1  4  1  0
  5  1  1  1
  5  6  1  0
  5  7  1  0
  4  8  1  0
  6  9  1  0
  7 10  1  0
  9 10  1  0
  7 11  1  6
  8 12  1  0
  8 13  1  0
 11 14  2  0
 11 15  1  0
 12 16  2  0
 13 17  2  0
 16 17  1  0
 16 18  1  0
 15 19  2  0
 14 20  1  0
 19 20  1  0
M  END
