x0766_0_A-x0592_0_A
     RDKit          3D

 23 25  0  0  0  0  0  0  0  0999 V2000
    0.5630   12.3250   -2.7920 C   0  0  0  0  0  0  0  0  0  0  0  0
   -0.0490   11.1190   -2.7820 O   0  0  0  0  0  0  0  0  0  0  0  0
    1.2340   12.6860   -1.8470 O   0  0  0  0  0  0  0  0  0  0  0  0
    0.3250   13.1200   -4.0620 C   0  0  2  0  0  0  0  0  0  0  0  0
    1.6340   13.4940   -4.7410 C   0  0  0  0  0  0  0  0  0  0  0  0
   -0.2960   14.5170   -3.8570 C   0  0  2  0  0  0  0  0  0  0  0  0
    2.0910   14.7360   -3.9790 C   0  0  0  0  0  0  0  0  0  0  0  0
    0.8640   15.3090   -3.2810 C   0  0  0  0  0  0  0  0  0  0  0  0
   -1.5380   14.5550   -3.0280 C   0  0  0  0  0  0  0  0  0  0  0  0
   -2.8110   14.6530   -3.5220 C   0  0  0  0  0  0  0  0  0  0  0  0
   -1.5420   14.4930   -1.5930 C   0  0  0  0  0  0  0  0  0  0  0  0
   -2.8210   14.5430   -1.0880 C   0  0  0  0  0  0  0  0  0  0  0  0
   -3.9840   14.6690   -2.3150 S   0  0  0  0  0  0  0  0  0  0  0  0
   -3.3360   14.5010    0.2950 C   0  0  1  0  0  0  0  0  0  0  0  0
   -2.7210   15.5110    1.1340 N   0  0  0  0  0  0  0  0  0  0  0  0
   -4.8220   14.6890    0.1510 C   0  0  0  0  0  0  0  0  0  0  0  0
   -5.5250   15.3690   -0.8980 C   0  0  0  0  0  0  0  0  0  0  0  0
   -5.8310   14.2560    0.9650 C   0  0  0  0  0  0  0  0  0  0  0  0
   -6.8510   15.3420   -0.7410 N   0  0  0  0  0  0  0  0  0  0  0  0
   -6.9990   14.6610    0.4090 N   0  0  0  0  0  0  0  0  0  0  0  0
   -8.3060   14.4110    0.9670 C   0  0  0  0  0  0  0  0  0  0  0  0
   -8.1750   14.0880    2.4500 C   0  0  0  0  0  0  0  0  0  0  0  0
   -7.3110   15.0230    3.0990 O   0  0  0  0  0  0  0  0  0  0  0  0
  1  2  1  0
  1  3  2  0
  4  1  1  1
  4  5  1  0
  4  6  1  0
  5  7  1  0
  6  8  1  0
  7  8  1  0
  6  9  1  1
  9 10  2  0
  9 11  1  0
 11 12  2  0
 10 13  1  0
 12 13  1  0
 12 14  1  0
 14 15  1  1
 14 16  1  0
 16 17  1  0
 16 18  2  0
 17 19  2  0
 18 20  1  0
 19 20  1  0
 20 21  1  0
 21 22  1  0
 22 23  1  0
M  END
