x0766_0_A-x0689_0_A
     RDKit          3D

 19 21  0  0  0  0  0  0  0  0999 V2000
    0.5830   12.1260   -2.9330 C   0  0  0  0  0  0  0  0  0  0  0  0
   -0.1160   10.9790   -3.0050 O   0  0  0  0  0  0  0  0  0  0  0  0
    1.4670   12.2490   -2.1160 O   0  0  0  0  0  0  0  0  0  0  0  0
    0.1400   13.1760   -3.9180 C   0  0  2  0  0  0  0  0  0  0  0  0
    1.2370   13.5140   -4.9430 C   0  0  0  0  0  0  0  0  0  0  0  0
   -0.0430   14.4810   -3.1600 C   0  0  1  0  0  0  0  0  0  0  0  0
    1.4530   15.0330   -4.8520 C   0  0  0  0  0  0  0  0  0  0  0  0
    0.2610   15.5930   -4.1310 C   0  0  0  0  0  0  0  0  0  0  0  0
   -1.2700   14.6510   -2.3240 C   0  0  0  0  0  0  0  0  0  0  0  0
   -2.5510   14.8720   -2.7990 C   0  0  0  0  0  0  0  0  0  0  0  0
   -1.2250   14.6100   -0.8920 C   0  0  0  0  0  0  0  0  0  0  0  0
   -2.4740   14.8160   -0.3220 C   0  0  0  0  0  0  0  0  0  0  0  0
   -3.6810   15.0440   -1.5470 S   0  0  0  0  0  0  0  0  0  0  0  0
   -0.1290   14.4030   -0.0250 C   0  0  0  0  0  0  0  0  0  0  0  0
   -2.6500   14.8280    1.0710 C   0  0  0  0  0  0  0  0  0  0  0  0
   -0.3720   14.4100    1.3260 C   0  0  0  0  0  0  0  0  0  0  0  0
   -3.8850   15.0630    1.6450 N   0  0  0  0  0  0  0  0  0  0  0  0
   -1.5750   14.6080    1.8610 N   0  0  0  0  0  0  0  0  0  0  0  0
   -5.0010   15.1330    0.7420 C   0  0  0  0  0  0  0  0  0  0  0  0
  1  2  1  0
  1  3  2  0
  4  1  1  1
  4  5  1  0
  4  6  1  0
  5  7  1  0
  6  8  1  0
  7  8  1  0
  6  9  1  6
  9 10  2  0
  9 11  1  0
 11 12  2  0
 10 13  1  0
 12 13  1  0
 11 14  1  0
 12 15  1  0
 14 16  2  0
 15 17  1  0
 15 18  2  0
 16 18  1  0
 17 19  1  0
M  END
