x0766_1_B-x0918_0_B
     RDKit          3D

 14 15  0  0  0  0  0  0  0  0999 V2000
   -7.1710   26.5790  -14.0990 C   0  0  0  0  0  0  0  0  0  0  0  0
   -5.8730   26.2250  -14.2260 O   0  0  0  0  0  0  0  0  0  0  0  0
   -8.0040   26.3460  -14.9510 O   0  0  0  0  0  0  0  0  0  0  0  0
   -7.4980   27.2900  -12.8240 C   0  0  1  0  0  0  0  0  0  0  0  0
   -7.9360   26.4040  -11.6800 C   0  0  0  0  0  0  0  0  0  0  0  0
   -6.3380   28.0530  -12.2030 C   0  0  2  0  0  0  0  0  0  0  0  0
   -7.9890   27.4060  -10.5620 C   0  0  0  0  0  0  0  0  0  0  0  0
   -7.0720   28.5900  -10.9840 C   0  0  0  0  0  0  0  0  0  0  0  0
   -5.6920   29.0570  -13.1320 C   0  0  0  0  0  0  0  0  0  0  0  0
   -4.3510   29.2100  -13.4830 C   0  0  0  0  0  0  0  0  0  0  0  0
   -6.4880   30.0330  -13.8200 C   0  0  0  0  0  0  0  0  0  0  0  0
   -3.2700   28.5200  -13.0980 N   0  0  0  0  0  0  0  0  0  0  0  0
   -5.7480   30.8600  -14.6270 C   0  0  0  0  0  0  0  0  0  0  0  0
   -4.0920   30.4810  -14.5830 S   0  0  0  0  0  0  0  0  0  0  0  0
  1  2  1  0
  1  3  2  0
  4  1  1  6
  4  5  1  0
  4  6  1  0
  5  7  1  0
  6  8  1  0
  7  8  1  0
  6  9  1  6
  9 10  2  0
  9 11  1  0
 10 12  1  0
 11 13  2  0
 10 14  1  0
 13 14  1  0
M  END
