x0766_0_A_α-x0962_1_A_α
     RDKit          3D

 20 22  0  0  0  0  0  0  0  0999 V2000
    0.4170   12.2970   -2.8800 C   0  0  0  0  0  0  0  0  0  0  0  0
   -0.1650   11.0830   -2.8250 O   0  0  0  0  0  0  0  0  0  0  0  0
    1.2260   12.6050   -2.0260 O   0  0  0  0  0  0  0  0  0  0  0  0
   -0.0040   13.1870   -4.0340 C   0  0  2  0  0  0  0  0  0  0  0  0
    1.2230   13.6530   -4.8360 C   0  0  0  0  0  0  0  0  0  0  0  0
   -0.7450   14.4900   -3.6160 C   0  0  2  0  0  0  0  0  0  0  0  0
    1.5210   15.0390   -4.2870 C   0  0  0  0  0  0  0  0  0  0  0  0
    0.1510   15.6520   -4.0680 C   0  0  0  0  0  0  0  0  0  0  0  0
   -1.1890   14.5770   -2.1700 C   0  0  0  0  0  0  0  0  0  0  0  0
   -2.4020   14.6970   -1.4710 C   0  0  0  0  0  0  0  0  0  0  0  0
   -0.1390   14.5360   -1.1820 C   0  0  0  0  0  0  0  0  0  0  0  0
   -3.7700   14.8010   -1.6540 C   0  0  0  0  0  0  0  0  0  0  0  0
   -0.5640   14.6150    0.1190 C   0  0  0  0  0  0  0  0  0  0  0  0
   -2.2270   14.7350    0.2200 S   0  0  0  0  0  0  0  0  0  0  0  0
   -4.8760   14.8390   -1.2660 C   0  0  0  0  0  0  0  0  0  0  0  0
   -5.9690   14.7670   -0.3900 C   0  0  0  0  0  0  0  0  0  0  0  0
   -5.8000   14.6320    0.9680 N   0  0  0  0  0  0  0  0  0  0  0  0
   -7.3210   14.7940   -0.5810 C   0  0  0  0  0  0  0  0  0  0  0  0
   -7.0320   14.5810    1.5390 C   0  0  0  0  0  0  0  0  0  0  0  0
   -7.9770   14.6750    0.6260 N   0  0  0  0  0  0  0  0  0  0  0  0
  1  2  1  0
  1  3  2  0
  4  1  1  1
  4  5  1  0
  4  6  1  0
  5  7  1  0
  6  8  1  0
  7  8  1  0
  6  9  1  1
  9 10  2  0
  9 11  1  0
 10 12  1  0
 11 13  2  0
 10 14  1  0
 13 14  1  0
 12 15  3  0
 15 16  1  0
 16 17  1  0
 16 18  2  0
 17 19  1  0
 18 20  1  0
 19 20  2  0
M  END
