x0766_1_B-x0797_0_B
     RDKit          3D

 14 15  0  0  0  0  0  0  0  0999 V2000
   -7.2260   26.3440  -13.8890 C   0  0  0  0  0  0  0  0  0  0  0  0
   -6.2000   25.8250  -14.6030 O   0  0  0  0  0  0  0  0  0  0  0  0
   -8.3550   26.4430  -14.3420 O   0  0  0  0  0  0  0  0  0  0  0  0
   -6.8110   26.7950  -12.5160 C   0  0  2  0  0  0  0  0  0  0  0  0
   -7.7170   26.2200  -11.4260 C   0  0  0  0  0  0  0  0  0  0  0  0
   -7.0210   28.2950  -12.4390 C   0  0  1  0  0  0  0  0  0  0  0  0
   -8.3680   27.4360  -10.7800 C   0  0  0  0  0  0  0  0  0  0  0  0
   -7.3460   28.5610  -11.0010 C   0  0  0  0  0  0  0  0  0  0  0  0
   -5.9970   29.0530  -13.2290 C   0  0  0  0  0  0  0  0  0  0  0  0
   -4.6320   29.0160  -13.0060 C   0  0  0  0  0  0  0  0  0  0  0  0
   -6.3260   29.9040  -14.3410 C   0  0  0  0  0  0  0  0  0  0  0  0
   -7.7040   30.1760  -14.8570 C   0  0  0  0  0  0  0  0  0  0  0  0
   -5.1980   30.4510  -14.9010 C   0  0  0  0  0  0  0  0  0  0  0  0
   -3.7670   29.9730  -14.1210 S   0  0  0  0  0  0  0  0  0  0  0  0
  1  2  1  0
  1  3  2  0
  4  1  1  6
  4  5  1  0
  4  6  1  0
  5  7  1  0
  6  8  1  0
  7  8  1  0
  6  9  1  1
  9 10  2  0
  9 11  1  0
 11 12  1  0
 11 13  2  0
 10 14  1  0
 13 14  1  0
M  END
