x0766_0_A_α-x0631_0_A_β
     RDKit          3D

 24 26  0  0  0  0  0  0  0  0999 V2000
    0.5820   12.3950   -2.6240 C   0  0  0  0  0  0  0  0  0  0  0  0
   -0.1880   11.3070   -2.2960 O   0  0  0  0  0  0  0  0  0  0  0  0
   -1.1560   10.8880   -3.2660 C   0  0  0  0  0  0  0  0  0  0  0  0
    1.5440   12.7570   -1.9690 O   0  0  0  0  0  0  0  0  0  0  0  0
    0.1100   13.1140   -3.8830 C   0  0  2  0  0  0  0  0  0  0  0  0
    1.3290   13.4610   -4.7610 C   0  0  0  0  0  0  0  0  0  0  0  0
   -0.5270   14.4870   -3.6200 C   0  0  2  0  0  0  0  0  0  0  0  0
   -0.4010   10.2260   -4.4130 C   0  0  0  0  0  0  0  0  0  0  0  0
    1.6570   14.9310   -4.4690 C   0  0  0  0  0  0  0  0  0  0  0  0
    0.6810   15.3940   -3.4090 C   0  0  0  0  0  0  0  0  0  0  0  0
   -1.5870   14.5980   -2.5520 C   0  0  0  0  0  0  0  0  0  0  0  0
   -1.3150    9.5910   -5.4730 C   0  0  0  0  0  0  0  0  0  0  0  0
   -2.9470   14.7630   -2.7550 C   0  0  0  0  0  0  0  0  0  0  0  0
   -1.2970   14.5530   -1.1430 C   0  0  0  0  0  0  0  0  0  0  0  0
   -0.5770    8.7130   -6.5240 C   0  0  1  0  0  0  0  0  0  0  0  0
   -2.4220   14.6850   -0.3570 C   0  0  0  0  0  0  0  0  0  0  0  0
   -3.8360   14.8650   -1.2960 S   0  0  0  0  0  0  0  0  0  0  0  0
   -1.6110    7.9580   -7.3820 C   0  0  0  0  0  0  0  0  0  0  0  0
    0.3960    9.5040   -7.3230 N   0  0  0  0  0  0  0  0  0  0  0  0
   -2.7110    8.8810   -7.8860 C   0  0  0  0  0  0  0  0  0  0  0  0
    0.5640    9.0970   -8.6990 N   0  0  0  0  0  0  0  0  0  0  0  0
    0.2360   10.9030   -7.2920 N   0  0  0  0  0  0  0  0  0  0  0  0
    0.8840   10.3480   -9.3900 C   0  0  0  0  0  0  0  0  0  0  0  0
    1.1240   11.2910   -8.3220 N   0  0  0  0  0  0  0  0  0  0  0  0
  1  2  1  0
  2  3  1  0
  1  4  2  0
  5  1  1  1
  5  6  1  0
  5  7  1  0
  3  8  1  0
  6  9  1  0
  7 10  1  0
  9 10  1  0
  7 11  1  1
  8 12  1  0
 11 13  2  0
 11 14  1  0
 15 12  1  1
 14 16  2  0
 13 17  1  0
 16 17  1  0
 15 18  1  0
 15 19  1  0
 18 20  1  0
 19 21  1  0
 19 22  1  0
 21 23  1  0
 22 24  1  0
 23 24  1  0
M  END
