x0766_0_A_α-x0900_1_A_α
     RDKit          3D

 21 23  0  0  0  0  0  0  0  0999 V2000
    0.3950   12.2030   -2.5680 C   0  0  0  0  0  0  0  0  0  0  0  0
   -0.1640   11.2560   -3.3810 O   0  0  0  0  0  0  0  0  0  0  0  0
    0.5050   10.9090   -4.6140 C   0  0  0  0  0  0  0  0  0  0  0  0
    0.6490   12.0410   -1.3930 O   0  0  0  0  0  0  0  0  0  0  0  0
    0.6580   13.5310   -3.2320 C   0  0  1  0  0  0  0  0  0  0  0  0
    1.4430   13.5740   -4.5270 C   0  0  0  0  0  0  0  0  0  0  0  0
   -0.5620   14.3600   -3.6170 C   0  0  2  0  0  0  0  0  0  0  0  0
   -0.0080    9.5520   -5.1010 C   0  0  0  0  0  0  0  0  0  0  0  0
    1.4430   15.0850   -4.7580 C   0  0  0  0  0  0  0  0  0  0  0  0
    0.1800   15.6180   -4.0750 C   0  0  0  0  0  0  0  0  0  0  0  0
   -1.5600   14.5620   -2.4970 C   0  0  0  0  0  0  0  0  0  0  0  0
   -2.9090   14.8060   -2.7140 C   0  0  0  0  0  0  0  0  0  0  0  0
   -1.2820   14.5350   -1.0880 C   0  0  0  0  0  0  0  0  0  0  0  0
   -0.7050    9.6070   -6.4510 C   0  0  1  0  0  0  0  0  0  0  0  0
   -2.4020   14.7540   -0.3140 C   0  0  0  0  0  0  0  0  0  0  0  0
   -3.7980   14.9970   -1.2680 S   0  0  0  0  0  0  0  0  0  0  0  0
    0.0590    9.3260   -7.6280 N   0  0  0  0  0  0  0  0  0  0  0  0
   -1.8130    8.5900   -6.6380 C   0  0  0  0  0  0  0  0  0  0  0  0
   -0.8520    9.3460   -8.6680 C   0  0  0  0  0  0  0  0  0  0  0  0
   -2.1580    8.8190   -8.1080 C   0  0  0  0  0  0  0  0  0  0  0  0
   -0.6490    9.7300   -9.8040 O   0  0  0  0  0  0  0  0  0  0  0  0
  1  2  1  0
  2  3  1  0
  1  4  2  0
  5  1  1  6
  5  6  1  0
  5  7  1  0
  3  8  1  0
  6  9  1  0
  7 10  1  0
  9 10  1  0
  7 11  1  1
 11 12  2  0
 11 13  1  0
 14  8  1  1
 13 15  2  0
 12 16  1  0
 15 16  1  0
 14 17  1  0
 14 18  1  0
 17 19  1  0
 18 20  1  0
 19 20  1  0
 19 21  2  0
M  END
