x0766_0_A_α-x0104_0_A_β
     RDKit          3D

 21 23  0  0  0  0  0  0  0  0999 V2000
    0.6150   12.3960   -2.8160 C   0  0  0  0  0  0  0  0  0  0  0  0
    0.1020   11.1480   -2.8030 O   0  0  0  0  0  0  0  0  0  0  0  0
    1.2360   12.7990   -1.8530 O   0  0  0  0  0  0  0  0  0  0  0  0
    0.3390   13.1600   -4.0830 C   0  0  2  0  0  0  0  0  0  0  0  0
    1.6120   13.6030   -4.8070 C   0  0  0  0  0  0  0  0  0  0  0  0
   -0.4190   14.4850   -3.8900 C   0  0  2  0  0  0  0  0  0  0  0  0
    1.8550   15.0400   -4.3300 C   0  0  0  0  0  0  0  0  0  0  0  0
    0.7070   15.3970   -3.4170 C   0  0  0  0  0  0  0  0  0  0  0  0
   -1.5520   14.4250   -2.9310 C   0  0  0  0  0  0  0  0  0  0  0  0
   -2.8290   14.1490   -3.1750 C   0  0  0  0  0  0  0  0  0  0  0  0
   -1.3740   14.6850   -1.5170 C   0  0  0  0  0  0  0  0  0  0  0  0
   -2.5520   14.5660   -0.9050 C   0  0  0  0  0  0  0  0  0  0  0  0
   -3.6140   14.1850   -1.9170 C   0  0  1  0  0  0  0  0  0  0  0  0
   -4.6280   15.1560   -1.9790 O   0  0  0  0  0  0  0  0  0  0  0  0
   -5.2570   15.0480   -0.7970 C   0  0  0  0  0  0  0  0  0  0  0  0
   -4.5160   15.2590    0.2870 N   0  0  0  0  0  0  0  0  0  0  0  0
   -6.5990   14.7180   -0.7930 C   0  0  0  0  0  0  0  0  0  0  0  0
   -5.1340   15.1290    1.4530 C   0  0  0  0  0  0  0  0  0  0  0  0
   -7.2190   14.5890    0.4470 C   0  0  0  0  0  0  0  0  0  0  0  0
   -6.4780   14.7940    1.6060 C   0  0  0  0  0  0  0  0  0  0  0  0
   -7.0330   14.6840    2.8720 N   0  0  0  0  0  0  0  0  0  0  0  0
  1  2  1  0
  1  3  2  0
  4  1  1  1
  4  5  1  0
  4  6  1  0
  5  7  1  0
  6  8  1  0
  7  8  1  0
  6  9  1  1
  9 10  2  0
  9 11  1  0
 11 12  2  0
 10 13  1  0
 12 13  1  0
 13 14  1  6
 14 15  1  0
 15 16  2  0
 15 17  1  0
 16 18  1  0
 17 19  2  0
 18 20  2  0
 19 20  1  0
 20 21  1  0
M  END
