x0766_0_A_α-x0689_0_A_α
     RDKit          3D

 19 21  0  0  0  0  0  0  0  0999 V2000
    0.3870   12.1400   -2.5810 C   0  0  0  0  0  0  0  0  0  0  0  0
    0.2850   10.8390   -2.8910 O   0  0  0  0  0  0  0  0  0  0  0  0
    0.6000   12.4800   -1.4290 O   0  0  0  0  0  0  0  0  0  0  0  0
    0.1750   13.0830   -3.7410 C   0  0  2  0  0  0  0  0  0  0  0  0
    1.4190   13.3160   -4.6110 C   0  0  0  0  0  0  0  0  0  0  0  0
   -0.0460   14.4560   -3.1430 C   0  0  1  0  0  0  0  0  0  0  0  0
    1.4590   14.8300   -4.8710 C   0  0  0  0  0  0  0  0  0  0  0  0
    0.2370   15.4490   -4.2350 C   0  0  0  0  0  0  0  0  0  0  0  0
   -1.2760   14.6450   -2.3140 C   0  0  0  0  0  0  0  0  0  0  0  0
   -2.5540   14.8770   -2.7920 C   0  0  0  0  0  0  0  0  0  0  0  0
   -1.2330   14.6070   -0.8810 C   0  0  0  0  0  0  0  0  0  0  0  0
   -2.4810   14.8240   -0.3150 C   0  0  0  0  0  0  0  0  0  0  0  0
   -3.6850   15.0600   -1.5400 S   0  0  0  0  0  0  0  0  0  0  0  0
   -0.1410   14.3910   -0.0150 C   0  0  0  0  0  0  0  0  0  0  0  0
   -2.6560   14.8360    1.0820 C   0  0  0  0  0  0  0  0  0  0  0  0
   -0.3820   14.4010    1.3370 C   0  0  0  0  0  0  0  0  0  0  0  0
   -3.8900   15.0790    1.6530 N   0  0  0  0  0  0  0  0  0  0  0  0
   -1.5840   14.6090    1.8700 N   0  0  0  0  0  0  0  0  0  0  0  0
   -5.0000   15.1410    0.7440 C   0  0  0  0  0  0  0  0  0  0  0  0
  1  2  1  0
  1  3  2  0
  4  1  1  1
  4  5  1  0
  4  6  1  0
  5  7  1  0
  6  8  1  0
  7  8  1  0
  6  9  1  6
  9 10  2  0
  9 11  1  0
 11 12  2  0
 10 13  1  0
 12 13  1  0
 11 14  1  0
 12 15  1  0
 14 16  2  0
 15 17  1  0
 15 18  2  0
 16 18  1  0
 17 19  1  0
M  END
