x0766_0_A-x0900_1_A
     RDKit          3D

 21 23  0  0  0  0  0  0  0  0999 V2000
    0.4250   12.2060   -2.5660 C   0  0  0  0  0  0  0  0  0  0  0  0
   -0.1360   11.2560   -3.3770 O   0  0  0  0  0  0  0  0  0  0  0  0
    0.5700   10.8720   -4.5780 C   0  0  0  0  0  0  0  0  0  0  0  0
    0.6740   12.0470   -1.3910 O   0  0  0  0  0  0  0  0  0  0  0  0
    0.6950   13.5310   -3.2340 C   0  0  1  0  0  0  0  0  0  0  0  0
    1.4860   13.5620   -4.5260 C   0  0  0  0  0  0  0  0  0  0  0  0
   -0.5220   14.3630   -3.6270 C   0  0  2  0  0  0  0  0  0  0  0  0
    0.0560    9.5190   -5.0690 C   0  0  0  0  0  0  0  0  0  0  0  0
    1.4810   15.0730   -4.7780 C   0  0  0  0  0  0  0  0  0  0  0  0
    0.2210   15.6130   -4.1020 C   0  0  0  0  0  0  0  0  0  0  0  0
   -1.5270   14.5720   -2.5110 C   0  0  0  0  0  0  0  0  0  0  0  0
   -2.8790   14.7850   -2.7330 C   0  0  0  0  0  0  0  0  0  0  0  0
   -1.2460   14.5860   -1.1010 C   0  0  0  0  0  0  0  0  0  0  0  0
   -0.6700    9.5910   -6.4050 C   0  0  1  0  0  0  0  0  0  0  0  0
   -2.3720   14.8070   -0.3340 C   0  0  0  0  0  0  0  0  0  0  0  0
   -3.7740   14.9940   -1.2910 S   0  0  0  0  0  0  0  0  0  0  0  0
    0.0790    9.3230   -7.5980 N   0  0  0  0  0  0  0  0  0  0  0  0
   -1.7830    8.5800   -6.5880 C   0  0  0  0  0  0  0  0  0  0  0  0
   -0.8440    9.3420   -8.6280 C   0  0  0  0  0  0  0  0  0  0  0  0
   -2.1440    8.8250   -8.0540 C   0  0  0  0  0  0  0  0  0  0  0  0
   -0.6450    9.7150   -9.7700 O   0  0  0  0  0  0  0  0  0  0  0  0
  1  2  1  0
  2  3  1  0
  1  4  2  0
  5  1  1  6
  5  6  1  0
  5  7  1  0
  3  8  1  0
  6  9  1  0
  7 10  1  0
  9 10  1  0
  7 11  1  1
 11 12  2  0
 11 13  1  0
 14  8  1  1
 13 15  2  0
 12 16  1  0
 15 16  1  0
 14 17  1  0
 14 18  1  0
 17 19  1  0
 18 20  1  0
 19 20  1  0
 19 21  2  0
M  END
