x0766_0_A_α-x0465_0_A_α
     RDKit          3D

 23 25  0  0  0  0  0  0  0  0999 V2000
    0.6450   12.3320   -3.5640 C   0  0  0  0  0  0  0  0  0  0  0  0
    1.5700   12.5610   -2.5060 O   0  0  0  0  0  0  0  0  0  0  0  0
   -0.0230   11.1050   -3.2980 O   0  0  0  0  0  0  0  0  0  0  0  0
    1.2530   12.4510   -4.9810 C   0  0  1  0  0  0  0  0  0  0  0  0
   -0.2900   13.4830   -3.7960 C   0  0  2  0  0  0  0  0  0  0  0  0
    2.7330   12.8130   -4.8800 C   0  0  0  0  0  0  0  0  0  0  0  0
    0.9480   11.3530   -5.8490 O   0  0  0  0  0  0  0  0  0  0  0  0
    0.1860   14.1710   -5.1120 C   0  0  0  0  0  0  0  0  0  0  0  0
   -0.2470   14.5990   -2.7710 C   0  0  1  0  0  0  0  0  0  0  0  0
    1.0790   15.2930   -4.6260 C   0  0  0  0  0  0  0  0  0  0  0  0
    0.1470   15.8490   -3.5810 C   0  0  0  0  0  0  0  0  0  0  0  0
   -1.5470   14.7140   -2.0300 C   0  0  0  0  0  0  0  0  0  0  0  0
   -0.2940   10.7550   -6.0070 C   0  0  0  0  0  0  0  0  0  0  0  0
   -2.8190   14.8230   -2.5590 C   0  0  0  0  0  0  0  0  0  0  0  0
   -1.5850   14.7150   -0.6010 C   0  0  0  0  0  0  0  0  0  0  0  0
   -0.5370    9.5600   -6.6920 C   0  0  0  0  0  0  0  0  0  0  0  0
   -1.3950   11.4060   -5.4360 C   0  0  0  0  0  0  0  0  0  0  0  0
    0.4460    8.8700   -7.2830 F   0  0  0  0  0  0  0  0  0  0  0  0
   -2.8580   14.8280   -0.1030 C   0  0  0  0  0  0  0  0  0  0  0  0
   -4.0170   14.9300   -1.3480 S   0  0  0  0  0  0  0  0  0  0  0  0
   -1.8170    9.0190   -6.8010 C   0  0  0  0  0  0  0  0  0  0  0  0
   -2.6910   10.8650   -5.5480 C   0  0  0  0  0  0  0  0  0  0  0  0
   -2.8990    9.6720   -6.2260 C   0  0  0  0  0  0  0  0  0  0  0  0
  1  2  1  0
  1  3  1  0
  1  4  1  0
  5  1  1  1
  4  6  1  1
  4  7  1  0
  5  8  1  0
  5  9  1  0
  8 10  1  0
  9 11  1  0
 10 11  1  0
  9 12  1  6
  7 13  1  0
 12 14  2  0
 12 15  1  0
 13 16  2  0
 13 17  1  0
 16 18  1  0
 15 19  2  0
 14 20  1  0
 19 20  1  0
 16 21  1  0
 17 22  2  0
 21 23  2  0
 22 23  1  0
M  END
