x0766_0_A-x0895_1_A
     RDKit          3D

 19 21  0  0  0  0  0  0  0  0999 V2000
    0.6220   12.2760   -2.2080 C   0  0  0  0  0  0  0  0  0  0  0  0
    0.9640   12.2400   -3.5110 O   0  0  0  0  0  0  0  0  0  0  0  0
    0.1270   11.3130   -1.6700 O   0  0  0  0  0  0  0  0  0  0  0  0
    0.9320   13.6000   -1.5790 C   0  0  1  0  0  0  0  0  0  0  0  0
    2.1750   14.2190   -2.1840 C   0  0  0  0  0  0  0  0  0  0  0  0
   -0.1380   14.6860   -1.7520 C   0  0  1  0  0  0  0  0  0  0  0  0
    1.6440   14.9120   -3.4370 C   0  0  0  0  0  0  0  0  0  0  0  0
    0.1340   15.1070   -3.2090 C   0  0  0  0  0  0  0  0  0  0  0  0
   -1.6130   14.3400   -1.3290 C   0  0  2  0  0  0  0  0  0  0  0  0
   -2.6850   15.1140   -2.0980 C   0  0  0  0  0  0  0  0  0  0  0  0
   -1.7910   14.5510    0.2200 C   0  0  0  0  0  0  0  0  0  0  0  0
   -2.9580   14.7040    0.9600 C   0  0  0  0  0  0  0  0  0  0  0  0
   -4.2360   15.3890   -1.2580 S   0  0  0  0  0  0  0  0  0  0  0  0
   -4.3590   14.6820    0.4040 C   0  0  1  0  0  0  0  0  0  0  0  0
   -2.9800   14.2990   -0.5730 C   0  0  0  0  0  0  0  0  0  0  0  0
   -1.8890   14.7490   -0.2950 O   0  0  0  0  0  0  0  0  0  0  0  0
   -3.4830   13.0160   -0.4650 N   0  0  0  0  0  0  0  0  0  0  0  0
   -4.6370   13.2440    0.1430 C   0  0  0  0  0  0  0  0  0  0  0  0
   -5.5850   12.5010    0.3780 O   0  0  0  0  0  0  0  0  0  0  0  0
  1  2  1  0
  1  3  2  0
  4  1  1  6
  4  5  1  0
  4  6  1  0
  5  7  1  0
  6  8  1  6
  7  8  1  0
  6  9  1  0
  9 10  1  6
  9 11  1  0
 11 12  2  0
 10 13  2  0
 14 12  1  6
 13 14  1  0
 13 15  1  6
 15 16  2  0
 15 17  1  0
 14 18  1  0
 17 18  1  0
 18 19  2  0
M  END
