x0766_0_A-x0626_0_A
     RDKit          3D

 19 20  0  0  0  0  0  0  0  0999 V2000
    0.5720   12.2490   -2.4780 C   0  0  0  0  0  0  0  0  0  0  0  0
    0.1900   11.2050   -3.2240 O   0  0  0  0  0  0  0  0  0  0  0  0
    0.6640   12.1710   -1.2790 O   0  0  0  0  0  0  0  0  0  0  0  0
    0.8690   13.5260   -3.1700 C   0  0  1  0  0  0  0  0  0  0  0  0
    0.9490   13.6220   -4.6850 C   0  0  0  0  0  0  0  0  0  0  0  0
    0.0730   14.7670   -2.6950 C   0  0  1  0  0  0  0  0  0  0  0  0
    1.2410   15.1070   -4.8060 C   0  0  0  0  0  0  0  0  0  0  0  0
    0.2300   15.7560   -3.8620 C   0  0  0  0  0  0  0  0  0  0  0  0
   -1.3350   14.7120   -2.0420 C   0  0  0  0  0  0  0  0  0  0  0  0
   -2.4740   14.7060   -2.8370 C   0  0  0  0  0  0  0  0  0  0  0  0
   -1.7270   14.6770   -0.5940 C   0  0  0  0  0  0  0  0  0  0  0  0
   -0.7630   14.6730    0.5750 C   0  0  0  0  0  0  0  0  0  0  0  0
   -3.1420   14.6550   -0.4610 C   0  0  0  0  0  0  0  0  0  0  0  0
   -3.9230   14.6720   -1.9630 S   0  0  0  0  0  0  0  0  0  0  0  0
   -4.1500   14.6250    0.5360 N   0  0  0  0  0  0  0  0  0  0  0  0
   -5.5330   14.6940    0.2710 C   0  0  0  0  0  0  0  0  0  0  0  0
   -6.0490   14.9620   -0.8030 O   0  0  0  0  0  0  0  0  0  0  0  0
   -6.4230   14.3870    1.4750 C   0  0  0  0  0  0  0  0  0  0  0  0
   -7.9120   14.5040    1.1380 C   0  0  0  0  0  0  0  0  0  0  0  0
  1  2  1  0
  1  3  2  0
  4  1  1  6
  4  5  1  0
  4  6  1  0
  5  7  1  0
  6  8  1  0
  7  8  1  0
  6  9  1  6
  9 10  2  0
  9 11  1  0
 11 12  1  0
 11 13  2  0
 10 14  1  0
 13 14  1  0
 13 15  1  0
 15 16  1  0
 16 17  2  0
 16 18  1  0
 18 19  1  0
M  END
