x0766_1_B-x0417_0_B
     RDKit          3D

 21 23  0  0  0  0  0  0  0  0999 V2000
   -7.3410   26.4170  -13.8110 C   0  0  0  0  0  0  0  0  0  0  0  0
   -6.2570   25.9750  -14.4810 O   0  0  0  0  0  0  0  0  0  0  0  0
   -8.4520   26.4190  -14.3090 O   0  0  0  0  0  0  0  0  0  0  0  0
   -6.9910   26.9090  -12.4240 C   0  0  2  0  0  0  0  0  0  0  0  0
   -7.9770   26.4410  -11.3580 C   0  0  0  0  0  0  0  0  0  0  0  0
   -7.1210   28.4440  -12.4350 C   0  0  1  0  0  0  0  0  0  0  0  0
   -8.5780   27.7410  -10.8450 C   0  0  0  0  0  0  0  0  0  0  0  0
   -7.4290   28.7480  -11.0010 C   0  0  0  0  0  0  0  0  0  0  0  0
   -6.0120   28.9790  -13.2460 C   0  0  0  0  0  0  0  0  0  0  0  0
   -4.7490   29.3150  -12.9630 C   0  0  0  0  0  0  0  0  0  0  0  0
   -6.3830   29.1580  -14.6480 C   0  0  0  0  0  0  0  0  0  0  0  0
   -4.1620   29.2840  -11.7650 F   0  0  0  0  0  0  0  0  0  0  0  0
   -5.4070   29.5520  -15.4410 C   0  0  0  0  0  0  0  0  0  0  0  0
   -4.0660   29.6670  -14.4660 S   0  0  2  0  0  0  0  0  0  0  0  0
   -2.7520   28.6240  -14.8260 C   0  0  0  0  0  0  0  0  0  0  0  0
   -3.1830   31.0880  -14.8090 C   0  0  0  0  0  0  0  0  0  0  0  0
   -3.3980   32.0960  -14.2130 O   0  0  0  0  0  0  0  0  0  0  0  0
   -2.1770   30.8710  -15.9350 C   0  0  1  0  0  0  0  0  0  0  0  0
   -2.0650   29.3100  -16.0360 C   0  0  0  0  0  0  0  0  0  0  0  0
   -2.5520   31.5960  -17.1500 N   0  0  0  0  0  0  0  0  0  0  0  0
   -1.4280   31.9440  -18.0030 C   0  0  0  0  0  0  0  0  0  0  0  0
  1  2  1  0
  1  3  2  0
  4  1  1  6
  4  5  1  0
  4  6  1  0
  5  7  1  0
  6  8  1  0
  7  8  1  0
  6  9  1  1
  9 10  2  0
  9 11  1  0
 10 12  1  0
 11 13  2  0
 14 10  1  0
 14 13  1  6
 14 15  1  0
 14 16  1  0
 16 17  2  0
 16 18  1  0
 15 19  1  0
 18 19  1  0
 18 20  1  6
 20 21  1  0
M  END
