x0766_1_B_α-x0380_0_B_α
     RDKit          3D

 19 20  0  0  0  0  0  0  0  0999 V2000
   -7.4230   26.4540  -13.7280 C   0  0  0  0  0  0  0  0  0  0  0  0
   -6.3770   25.9900  -14.4460 O   0  0  0  0  0  0  0  0  0  0  0  0
   -8.5050   26.6340  -14.2610 O   0  0  0  0  0  0  0  0  0  0  0  0
   -7.0790   26.7040  -12.2840 C   0  0  2  0  0  0  0  0  0  0  0  0
   -8.1580   26.2510  -11.2980 C   0  0  0  0  0  0  0  0  0  0  0  0
   -7.0030   28.1960  -12.0190 C   0  0  2  0  0  0  0  0  0  0  0  0
   -9.0810   27.4590  -11.0820 C   0  0  0  0  0  0  0  0  0  0  0  0
   -8.4400   28.6390  -11.8070 C   0  0  0  0  0  0  0  0  0  0  0  0
   -6.2000   28.9240  -13.0610 C   0  0  0  0  0  0  0  0  0  0  0  0
   -5.0980   29.5070  -12.6640 C   0  0  0  0  0  0  0  0  0  0  0  0
   -6.3640   29.1400  -14.4680 C   0  0  0  0  0  0  0  0  0  0  0  0
   -4.6800   29.4430  -11.0810 Cl  0  0  0  0  0  0  0  0  0  0  0  0
   -5.3000   29.8810  -14.9400 C   0  0  0  0  0  0  0  0  0  0  0  0
   -4.1710   30.3030  -13.7860 S   0  0  0  0  0  0  0  0  0  0  0  0
   -4.8610   30.3980  -16.0820 N   0  0  0  0  0  0  0  0  0  0  0  0
   -3.8890   31.3610  -15.9540 C   0  0  0  0  0  0  0  0  0  0  0  0
   -4.0660   32.5130  -15.5870 O   0  0  0  0  0  0  0  0  0  0  0  0
   -2.4970   30.8500  -16.3170 C   0  0  0  0  0  0  0  0  0  0  0  0
   -2.0530   31.5000  -17.5620 N   0  0  0  0  0  0  0  0  0  0  0  0
  1  2  1  0
  1  3  2  0
  4  1  1  6
  4  5  1  0
  4  6  1  0
  5  7  1  0
  6  8  1  0
  7  8  1  0
  6  9  1  6
  9 10  2  0
  9 11  1  0
 10 12  1  0
 11 13  2  0
 10 14  1  0
 13 14  1  0
 13 15  1  0
 15 16  1  0
 16 17  2  0
 16 18  1  0
 18 19  1  0
M  END
