x0766_0_A-x0727_0_A
     RDKit          3D

 23 25  0  0  0  0  0  0  0  0999 V2000
    0.5940   12.3230   -3.4070 C   0  0  0  0  0  0  0  0  0  0  0  0
    1.7840   11.9560   -2.7560 O   0  0  0  0  0  0  0  0  0  0  0  0
   -0.4120   11.5510   -2.7600 O   0  0  0  0  0  0  0  0  0  0  0  0
    0.7660   12.1170   -4.9540 C   0  0  1  0  0  0  0  0  0  0  0  0
    0.5630   13.7810   -3.0540 C   0  0  1  0  0  0  0  0  0  0  0  0
    0.1380   11.0270   -5.6740 N   0  0  0  0  0  0  0  0  0  0  0  0
    0.4750   13.3600   -5.7720 C   0  0  0  0  0  0  0  0  0  0  0  0
    1.7780   14.4850   -3.6940 C   0  0  0  0  0  0  0  0  0  0  0  0
   -0.6680   14.5920   -3.4720 C   0  0  2  0  0  0  0  0  0  0  0  0
    0.6380   10.8230   -6.9270 C   0  0  0  0  0  0  0  0  0  0  0  0
    1.1840   15.4990   -4.6450 C   0  0  0  0  0  0  0  0  0  0  0  0
   -0.0470   15.9270   -3.9010 C   0  0  0  0  0  0  0  0  0  0  0  0
   -1.7030   14.7010   -2.3920 C   0  0  0  0  0  0  0  0  0  0  0  0
    1.5220   11.5360   -7.3500 O   0  0  0  0  0  0  0  0  0  0  0  0
   -3.0470   14.9110   -2.6270 C   0  0  0  0  0  0  0  0  0  0  0  0
   -1.4510   14.6050   -0.9760 C   0  0  0  0  0  0  0  0  0  0  0  0
    0.0570    9.6740   -7.7160 C   0  0  0  0  0  0  0  0  0  0  0  0
   -2.5950   14.7450   -0.2230 C   0  0  0  0  0  0  0  0  0  0  0  0
   -3.9740   14.9940   -1.1980 S   0  0  0  0  0  0  0  0  0  0  0  0
   -1.2570   10.0250   -8.4240 C   0  0  0  0  0  0  0  0  0  0  0  0
   -0.2550    8.4440   -6.8550 C   0  0  0  0  0  0  0  0  0  0  0  0
   -2.3110    9.0770   -7.8630 C   0  0  0  0  0  0  0  0  0  0  0  0
   -1.7310    8.5770   -6.5530 C   0  0  0  0  0  0  0  0  0  0  0  0
  1  2  1  0
  1  3  1  0
  1  4  1  0
  5  1  1  6
  4  6  1  0
  4  7  1  6
  5  8  1  0
  5  9  1  0
  6 10  1  0
  8 11  1  0
  9 12  1  0
 11 12  1  0
  9 13  1  1
 10 14  2  0
 13 15  2  0
 13 16  1  0
 10 17  1  0
 16 18  2  0
 15 19  1  0
 18 19  1  0
 17 20  1  0
 17 21  1  0
 20 22  1  0
 21 23  1  0
 22 23  1  0
M  END
