x0766_0_A_α-x0128_0_A_α
     RDKit          3D

 28 31  0  0  0  0  0  0  0  0999 V2000
    0.4080   12.0610   -2.7730 C   0  0  0  0  0  0  0  0  0  0  0  0
   -0.2590   10.9070   -2.9260 O   0  0  0  0  0  0  0  0  0  0  0  0
    1.3180   12.1730   -1.9790 O   0  0  0  0  0  0  0  0  0  0  0  0
   -0.0780   13.1900   -3.6410 C   0  0  2  0  0  0  0  0  0  0  0  0
    0.9640   13.5840   -4.7210 C   0  0  0  0  0  0  0  0  0  0  0  0
   -0.3120   14.4560   -2.7850 C   0  0  1  0  0  0  0  0  0  0  0  0
    1.3500   15.0370   -4.4340 C   0  0  0  0  0  0  0  0  0  0  0  0
    0.1360   15.6010   -3.7070 C   0  0  0  0  0  0  0  0  0  0  0  0
   -1.6040   14.6250   -1.9720 C   0  0  0  0  0  0  0  0  0  0  0  0
   -2.8200   13.9860   -1.9920 C   0  0  0  0  0  0  0  0  0  0  0  0
   -1.5570   15.6520   -0.9470 C   0  0  0  0  0  0  0  0  0  0  0  0
   -2.6830   15.8130   -0.2420 C   0  0  0  0  0  0  0  0  0  0  0  0
   -3.8580   14.7430   -0.8180 S   0  0  1  0  0  0  0  0  0  0  0  0
   -5.1420   15.5750   -1.6160 C   0  0  0  0  0  0  0  0  0  0  0  0
   -4.5310   13.9160    0.6260 C   0  0  0  0  0  0  0  0  0  0  0  0
   -6.4910   15.1100   -1.1860 C   0  0  0  0  0  0  0  0  0  0  0  0
   -5.7840   14.7030    1.1360 C   0  0  2  0  0  0  0  0  0  0  0  0
   -6.5650   14.3200    2.3340 N   0  0  0  0  0  0  0  0  0  0  0  0
   -6.8010   14.7210    0.0430 C   0  0  0  0  0  0  0  0  0  0  0  0
   -7.6660   15.0390    2.8360 C   0  0  0  0  0  0  0  0  0  0  0  0
   -8.6020   15.4260    2.1410 O   0  0  0  0  0  0  0  0  0  0  0  0
   -7.5290   15.2340    4.2040 N   0  0  0  0  0  0  0  0  0  0  0  0
   -8.3410   15.9650    5.1360 C   0  0  0  0  0  0  0  0  0  0  0  0
   -9.0230   17.1170    4.7240 C   0  0  0  0  0  0  0  0  0  0  0  0
   -8.5150   15.6110    6.4760 C   0  0  0  0  0  0  0  0  0  0  0  0
   -9.8170   17.8900    5.5130 N   0  0  0  0  0  0  0  0  0  0  0  0
   -9.3280   16.3870    7.3150 C   0  0  0  0  0  0  0  0  0  0  0  0
   -9.9510   17.5080    6.7920 C   0  0  0  0  0  0  0  0  0  0  0  0
  1  2  1  0
  1  3  2  0
  4  1  1  1
  4  5  1  0
  4  6  1  0
  5  7  1  0
  6  8  1  0
  7  8  1  0
  6  9  1  6
  9 10  2  0
  9 11  1  0
 11 12  2  0
 13 10  1  6
 12 13  1  0
 13 14  1  0
 13 15  1  0
 14 16  1  0
 15 17  1  0
 17 18  1  1
 16 19  2  0
 17 19  1  0
 18 20  1  0
 20 21  2  0
 20 22  1  0
 22 23  1  0
 23 24  2  0
 23 25  1  0
 24 26  1  0
 25 27  2  0
 26 28  2  0
 27 28  1  0
M  END
