x0766_1_B-x0918_1_B
     RDKit          3D

 20 22  0  0  0  0  0  0  0  0999 V2000
   -7.2080   26.5170  -14.1520 C   0  0  0  0  0  0  0  0  0  0  0  0
   -5.9970   26.9080  -14.6930 O   0  0  0  0  0  0  0  0  0  0  0  0
   -4.8820   26.1400  -14.3480 N   0  0  0  0  0  0  0  0  0  0  0  0
   -7.9620   25.6840  -14.6080 O   0  0  0  0  0  0  0  0  0  0  0  0
   -7.5560   27.2850  -12.9010 C   0  0  1  0  0  0  0  0  0  0  0  0
   -8.1120   26.4350  -11.7790 C   0  0  0  0  0  0  0  0  0  0  0  0
   -6.4050   27.9820  -12.2040 C   0  0  2  0  0  0  0  0  0  0  0  0
   -8.1260   27.4240  -10.6300 C   0  0  0  0  0  0  0  0  0  0  0  0
   -7.1930   28.5890  -11.0560 C   0  0  0  0  0  0  0  0  0  0  0  0
   -5.6690   28.9060  -13.1270 C   0  0  0  0  0  0  0  0  0  0  0  0
   -4.8470   25.6960  -13.0470 C   0  0  0  0  0  0  0  0  0  0  0  0
   -3.6840   26.4360  -14.9940 C   0  0  0  0  0  0  0  0  0  0  0  0
   -4.3070   29.1060  -13.1100 C   0  0  0  0  0  0  0  0  0  0  0  0
   -6.2910   29.6870  -14.1520 C   0  0  0  0  0  0  0  0  0  0  0  0
   -3.7180   25.6020  -12.3430 C   0  0  0  0  0  0  0  0  0  0  0  0
   -2.4900   26.3750  -14.3930 C   0  0  0  0  0  0  0  0  0  0  0  0
   -5.3880   30.4330  -14.8680 C   0  0  0  0  0  0  0  0  0  0  0  0
   -3.7920   30.2060  -14.3130 S   0  0  0  0  0  0  0  0  0  0  0  0
   -2.3840   25.9680  -12.9660 C   0  0  0  0  0  0  0  0  0  0  0  0
   -1.6090   26.9270  -12.2510 N   0  0  0  0  0  0  0  0  0  0  0  0
  1  2  1  0
  2  3  1  0
  1  4  2  0
  5  1  1  6
  5  6  1  0
  5  7  1  0
  6  8  1  0
  7  9  1  0
  8  9  1  0
  7 10  1  6
  3 11  1  0
  3 12  1  0
 10 13  2  0
 10 14  1  0
 11 15  2  0
 12 16  2  0
 14 17  2  0
 13 18  1  0
 17 18  1  0
 15 19  1  0
 16 19  1  0
 19 20  1  0
M  END
