x0766_0_A-x0685_1_A
     RDKit          3D

 23 25  0  0  0  0  0  0  0  0999 V2000
    0.3910   12.5360   -2.7600 S   0  0  0  0  0  0  0  0  0  0  0  0
   -0.6190   11.5890   -2.3300 O   0  0  0  0  0  0  0  0  0  0  0  0
    1.0630   12.4900   -1.4530 O   0  0  0  0  0  0  0  0  0  0  0  0
    0.1030   12.2920   -4.3340 C   0  0  0  0  0  0  0  0  0  0  0  0
    2.1000   11.8630   -3.2200 O   0  0  0  0  0  0  0  0  0  0  0  0
    0.7690   14.0740   -2.9360 C   0  0  1  0  0  0  0  0  0  0  0  0
   -1.2830   11.8220   -4.6990 C   0  0  0  0  0  0  0  0  0  0  0  0
    1.7140   14.4430   -4.0920 C   0  0  0  0  0  0  0  0  0  0  0  0
   -0.3230   15.1060   -3.1000 C   0  0  1  0  0  0  0  0  0  0  0  0
   -1.2910   10.5940   -5.3020 N   0  0  0  0  0  0  0  0  0  0  0  0
    1.0630   15.5520   -4.8180 C   0  0  0  0  0  0  0  0  0  0  0  0
   -0.4260   15.3140   -4.5520 C   0  0  0  0  0  0  0  0  0  0  0  0
   -1.5600   14.8530   -2.3430 C   0  0  0  0  0  0  0  0  0  0  0  0
   -2.8110   14.8130   -2.8920 C   0  0  0  0  0  0  0  0  0  0  0  0
   -1.4650   14.6610   -1.0010 C   0  0  0  0  0  0  0  0  0  0  0  0
   -0.8730   10.4330   -6.5940 C   0  0  0  0  0  0  0  0  0  0  0  0
   -2.6260   14.4520   -0.3260 C   0  0  0  0  0  0  0  0  0  0  0  0
   -3.8110   14.5250   -1.5380 S   0  0  0  0  0  0  0  0  0  0  0  0
   -0.2520    9.0680   -6.8430 C   0  0  0  0  0  0  0  0  0  0  0  0
   -1.7920   10.7820   -7.7000 C   0  0  0  0  0  0  0  0  0  0  0  0
   -0.8620    8.3150   -7.9930 C   0  0  0  0  0  0  0  0  0  0  0  0
   -0.9790   10.5610   -8.9970 C   0  0  0  0  0  0  0  0  0  0  0  0
   -0.7930    9.1090   -9.2620 C   0  0  0  0  0  0  0  0  0  0  0  0
  1  2  1  0
  1  3  2  0
  1  4  1  0
  1  5  1  0
  6  1  1  6
  4  7  1  0
  6  8  1  0
  6  9  1  0
  7 10  1  0
  8 11  1  0
  9 12  1  0
 11 12  1  0
  9 13  1  6
 13 14  2  0
 13 15  1  0
 10 16  1  0
 15 17  2  0
 14 18  1  0
 17 18  1  0
 16 19  1  0
 16 20  1  0
 19 21  1  0
 20 22  1  0
 21 23  1  0
 22 23  1  0
M  END
