x0766_0_A-x0685_0_A
     RDKit          3D

 24 26  0  0  0  0  0  0  0  0999 V2000
    0.5170   12.3410   -2.9530 C   0  0  0  0  0  0  0  0  0  0  0  0
   -0.1290   11.1520   -2.8870 O   0  0  0  0  0  0  0  0  0  0  0  0
    1.3500   12.6470   -2.1220 O   0  0  0  0  0  0  0  0  0  0  0  0
    0.1030   13.2100   -4.1390 C   0  0  2  0  0  0  0  0  0  0  0  0
    1.3340   13.6160   -4.9610 C   0  0  0  0  0  0  0  0  0  0  0  0
   -0.5430   14.5350   -3.6460 C   0  0  2  0  0  0  0  0  0  0  0  0
    1.6010   15.0880   -4.6590 C   0  0  0  0  0  0  0  0  0  0  0  0
    0.6090   15.5340   -3.6160 C   0  0  0  0  0  0  0  0  0  0  0  0
   -1.1170   14.4690   -2.2520 C   0  0  0  0  0  0  0  0  0  0  0  0
   -2.4160   14.7270   -1.8130 C   0  0  0  0  0  0  0  0  0  0  0  0
   -0.3090   14.1130   -1.1160 C   0  0  0  0  0  0  0  0  0  0  0  0
   -3.7360   15.1520   -2.3670 C   0  0  1  0  0  0  0  0  0  0  0  0
   -0.9710   14.0950    0.0740 C   0  0  0  0  0  0  0  0  0  0  0  0
   -2.5760   14.4980   -0.1230 S   0  0  0  0  0  0  0  0  0  0  0  0
   -4.1230   14.3250   -3.5060 N   0  0  0  0  0  0  0  0  0  0  0  0
   -4.5150   15.0580   -1.0650 C   0  0  0  0  0  0  0  0  0  0  0  0
   -3.8180   15.3660    0.1140 C   0  0  0  0  0  0  0  0  0  0  0  0
   -5.8390   14.6820   -0.8900 C   0  0  0  0  0  0  0  0  0  0  0  0
   -4.4070   15.2820    1.3520 C   0  0  0  0  0  0  0  0  0  0  0  0
   -6.4470   14.5910    0.3300 N   0  0  0  0  0  0  0  0  0  0  0  0
   -5.7130   14.8870    1.4280 C   0  0  0  0  0  0  0  0  0  0  0  0
   -6.3250   14.7780    2.6640 N   0  0  0  0  0  0  0  0  0  0  0  0
   -7.7680   14.8360    2.7470 C   0  0  0  0  0  0  0  0  0  0  0  0
   -8.2650   13.4490    3.1060 C   0  0  0  0  0  0  0  0  0  0  0  0
  1  2  1  0
  1  3  2  0
  4  1  1  1
  4  5  1  0
  4  6  1  0
  5  7  1  0
  6  8  1  0
  7  8  1  0
  6  9  1  1
  9 10  2  0
  9 11  1  0
 10 12  1  0
 11 13  2  0
 10 14  1  0
 13 14  1  0
 12 15  1  6
 12 16  1  0
 16 17  2  0
 16 18  1  0
 17 19  1  0
 18 20  2  0
 19 21  2  0
 20 21  1  0
 21 22  1  0
 22 23  1  0
 23 24  1  0
M  END
