x0766_0_A_α-x0159_0_B_α
     RDKit          3D

 26 28  0  0  0  0  0  0  0  0999 V2000
    0.5300   12.3190   -2.7250 C   0  0  0  0  0  0  0  0  0  0  0  0
   -0.1110   11.1180   -2.6480 O   0  0  0  0  0  0  0  0  0  0  0  0
   -0.6150   10.6260   -3.9000 C   0  0  0  0  0  0  0  0  0  0  0  0
    1.3540   12.7110   -1.9120 O   0  0  0  0  0  0  0  0  0  0  0  0
    0.1360   13.1570   -3.9320 C   0  0  2  0  0  0  0  0  0  0  0  0
    1.3800   13.5060   -4.7680 C   0  0  0  0  0  0  0  0  0  0  0  0
   -0.5060   14.5230   -3.6250 C   0  0  2  0  0  0  0  0  0  0  0  0
    0.5550   10.1340   -4.7440 C   0  0  0  0  0  0  0  0  0  0  0  0
    1.6780   14.9780   -4.4830 C   0  0  0  0  0  0  0  0  0  0  0  0
    0.7100   15.4200   -3.4050 C   0  0  0  0  0  0  0  0  0  0  0  0
   -1.5490   14.6150   -2.5380 C   0  0  0  0  0  0  0  0  0  0  0  0
    0.1810    9.6080   -6.1400 C   0  0  0  0  0  0  0  0  0  0  0  0
   -2.9060   14.7770   -2.7720 C   0  0  0  0  0  0  0  0  0  0  0  0
   -1.2950   14.5590   -1.1260 C   0  0  0  0  0  0  0  0  0  0  0  0
    0.9370   10.2430   -7.3170 C   0  0  0  0  0  0  0  0  0  0  0  0
   -2.4390   14.6800   -0.3650 C   0  0  0  0  0  0  0  0  0  0  0  0
   -3.8300   14.8640   -1.3360 S   0  0  0  0  0  0  0  0  0  0  0  0
    0.8390    9.5510   -8.6900 C   0  0  0  0  0  0  0  0  0  0  0  0
    1.7130    8.2980   -8.9100 C   0  0  0  0  0  0  0  0  0  0  0  0
    0.9980    7.0090   -9.3180 C   0  0  0  0  0  0  0  0  0  0  0  0
    1.3920    5.7920   -8.5260 C   0  0  0  0  0  0  0  0  0  0  0  0
    0.8520    5.5580   -7.2600 C   0  0  0  0  0  0  0  0  0  0  0  0
    2.3110    4.8750   -9.0500 C   0  0  0  0  0  0  0  0  0  0  0  0
    1.2290    4.4340   -6.5450 C   0  0  0  0  0  0  0  0  0  0  0  0
    2.6860    3.7510   -8.3280 C   0  0  0  0  0  0  0  0  0  0  0  0
    2.1460    3.5320   -7.0770 C   0  0  0  0  0  0  0  0  0  0  0  0
  1  2  1  0
  2  3  1  0
  1  4  2  0
  5  1  1  1
  5  6  1  0
  5  7  1  0
  3  8  1  0
  6  9  1  0
  7 10  1  0
  9 10  1  0
  7 11  1  1
  8 12  1  0
 11 13  2  0
 11 14  1  0
 12 15  1  0
 14 16  2  0
 13 17  1  0
 16 17  1  0
 15 18  1  0
 18 19  1  0
 19 20  1  0
 20 21  1  0
 21 22  2  0
 21 23  1  0
 22 24  1  0
 23 25  2  0
 24 26  2  0
 25 26  1  0
M  END
