x0766_0_A_α-x0587_0_A_α
     RDKit          3D

 26 28  0  0  0  0  0  0  0  0999 V2000
    0.7370   12.1080   -2.8980 C   0  0  0  0  0  0  0  0  0  0  0  0
   -0.0060   10.9970   -3.0760 O   0  0  0  0  0  0  0  0  0  0  0  0
    1.5500   12.1830   -2.0120 O   0  0  0  0  0  0  0  0  0  0  0  0
    0.4440   13.2100   -3.8570 C   0  0  2  0  0  0  0  0  0  0  0  0
    1.5470   13.5270   -4.8540 C   0  0  0  0  0  0  0  0  0  0  0  0
    0.2480   14.4910   -3.0670 C   0  0  1  0  0  0  0  0  0  0  0  0
    1.6670   15.0500   -4.8410 C   0  0  0  0  0  0  0  0  0  0  0  0
    0.6140   15.6260   -3.9690 C   0  0  0  0  0  0  0  0  0  0  0  0
   -1.1140   14.6720   -2.6370 C   0  0  0  0  0  0  0  0  0  0  0  0
   -2.1070   14.8800   -3.5560 C   0  0  0  0  0  0  0  0  0  0  0  0
   -1.5830   14.6640   -1.3130 C   0  0  0  0  0  0  0  0  0  0  0  0
   -2.9110   14.8680   -1.3020 C   0  0  0  0  0  0  0  0  0  0  0  0
   -3.5910   15.0710   -2.8450 S   0  0  0  0  0  0  0  0  0  0  0  0
   -3.8050   14.9450   -0.4310 O   0  0  0  0  0  0  0  0  0  0  0  0
   -5.0050   14.5250   -1.0420 C   0  0  0  0  0  0  0  0  0  0  0  0
   -4.8210   13.3010   -1.6330 F   0  0  0  0  0  0  0  0  0  0  0  0
   -5.2980   15.3950   -2.0590 F   0  0  0  0  0  0  0  0  0  0  0  0
   -6.0130   14.5940    0.0280 C   0  0  0  0  0  0  0  0  0  0  0  0
   -7.3190   14.4740   -0.2600 N   0  0  0  0  0  0  0  0  0  0  0  0
   -5.4720   14.7950    1.2370 N   0  0  0  0  0  0  0  0  0  0  0  0
   -8.1380   14.5830    0.7950 C   0  0  0  0  0  0  0  0  0  0  0  0
   -6.3300   14.8930    2.2350 C   0  0  0  0  0  0  0  0  0  0  0  0
   -7.6790   14.7990    2.0730 C   0  0  0  0  0  0  0  0  0  0  0  0
   -8.5840   14.9310    3.1900 C   0  0  0  0  0  0  0  0  0  0  0  0
   -8.0180   14.8310    4.4240 N   0  0  0  0  0  0  0  0  0  0  0  0
   -9.7780   15.1250    3.0200 O   0  0  0  0  0  0  0  0  0  0  0  0
  1  2  1  0
  1  3  2  0
  4  1  1  1
  4  5  1  0
  4  6  1  0
  5  7  1  0
  6  8  1  0
  7  8  1  0
  6  9  1  6
  9 10  2  0
  9 11  1  0
 11 12  2  0
 10 13  1  0
 12 13  1  0
 12 14  1  0
 14 15  1  0
 15 16  1  0
 15 17  1  0
 15 18  1  0
 18 19  2  0
 18 20  1  0
 19 21  1  0
 20 22  2  0
 21 23  2  0
 22 23  1  0
 23 24  1  0
 24 25  1  0
 24 26  2  0
M  END
