x0766_0_A-x0722_0_A
     RDKit          3D

 24 26  0  0  0  0  0  0  0  0999 V2000
    0.5570   12.2830   -2.3850 C   0  0  0  0  0  0  0  0  0  0  0  0
    0.3200   11.1960   -3.1480 O   0  0  0  0  0  0  0  0  0  0  0  0
    0.4650   12.2630   -1.1820 O   0  0  0  0  0  0  0  0  0  0  0  0
    0.9640   13.5570   -3.0710 C   0  0  1  0  0  0  0  0  0  0  0  0
    1.1700   13.5470   -4.5730 C   0  0  0  0  0  0  0  0  0  0  0  0
    0.0600   14.7780   -2.7970 C   0  0  1  0  0  0  0  0  0  0  0  0
    1.4360   15.0220   -4.8020 C   0  0  0  0  0  0  0  0  0  0  0  0
    0.4870   15.7690   -3.8830 C   0  0  0  0  0  0  0  0  0  0  0  0
   -1.4300   14.5500   -2.8040 C   0  0  0  0  0  0  0  0  0  0  0  0
   -2.1230   14.2660   -3.9630 C   0  0  0  0  0  0  0  0  0  0  0  0
   -2.3940   14.5810   -1.7230 C   0  0  0  0  0  0  0  0  0  0  0  0
   -3.6490   14.3300   -2.1320 C   0  0  0  0  0  0  0  0  0  0  0  0
   -3.7940   14.0560   -3.7650 S   0  0  0  0  0  0  0  0  0  0  0  0
   -2.4590   14.8290   -0.2210 C   0  0  0  0  0  0  0  0  0  0  0  0
   -3.6390   15.3610    0.2400 C   0  0  0  0  0  0  0  0  0  0  0  0
   -1.6300   14.6620    0.8460 N   0  0  0  0  0  0  0  0  0  0  0  0
   -0.2850   14.1600    0.9630 C   0  0  0  0  0  0  0  0  0  0  0  0
   -4.8770   15.7450   -0.5240 C   0  0  0  0  0  0  0  0  0  0  0  0
   -2.2290   15.0540    1.9560 N   0  0  0  0  0  0  0  0  0  0  0  0
   -3.4290   15.4800    1.6040 C   0  0  0  0  0  0  0  0  0  0  0  0
   -4.3490   16.0100    2.6120 C   0  0  0  0  0  0  0  0  0  0  0  0
   -6.0670   14.7940   -0.4240 C   0  0  0  0  0  0  0  0  0  0  0  0
   -7.1950   15.1240   -0.7780 O   0  0  0  0  0  0  0  0  0  0  0  0
   -5.8690   13.5410    0.0770 N   0  0  0  0  0  0  0  0  0  0  0  0
  1  2  1  0
  1  3  2  0
  4  1  1  6
  4  5  1  0
  4  6  1  0
  5  7  1  0
  6  8  1  0
  7  8  1  0
  6  9  1  6
  9 10  2  0
  9 11  1  0
 11 12  2  0
 10 13  1  0
 12 13  1  0
 11 14  1  0
 14 15  2  0
 14 16  1  0
 16 17  1  0
 15 18  1  0
 16 19  1  0
 15 20  1  0
 19 20  2  0
 20 21  1  0
 18 22  1  0
 22 23  2  0
 22 24  1  0
M  END
