x0766_0_A-x0895_1_A
     RDKit          3D

 19 21  0  0  0  0  0  0  0  0999 V2000
    0.6080   12.2810   -2.2610 C   0  0  0  0  0  0  0  0  0  0  0  0
    0.9120   12.2430   -3.5750 O   0  0  0  0  0  0  0  0  0  0  0  0
    0.1170   11.3200   -1.7120 O   0  0  0  0  0  0  0  0  0  0  0  0
    0.9350   13.6010   -1.6280 C   0  0  1  0  0  0  0  0  0  0  0  0
    2.1810   14.2330   -2.2250 C   0  0  0  0  0  0  0  0  0  0  0  0
   -0.1350   14.6880   -1.7830 C   0  0  1  0  0  0  0  0  0  0  0  0
    1.6450   14.9340   -3.4730 C   0  0  0  0  0  0  0  0  0  0  0  0
    0.1350   15.1190   -3.2400 C   0  0  0  0  0  0  0  0  0  0  0  0
   -1.6130   14.3440   -1.3590 C   0  0  2  0  0  0  0  0  0  0  0  0
   -2.6950   15.1090   -2.1280 C   0  0  0  0  0  0  0  0  0  0  0  0
   -1.7970   14.5580    0.1900 C   0  0  0  0  0  0  0  0  0  0  0  0
   -2.9680   14.7020    0.9270 C   0  0  0  0  0  0  0  0  0  0  0  0
   -4.2510   15.3680   -1.2910 S   0  0  0  0  0  0  0  0  0  0  0  0
   -4.3710   14.6640    0.3720 C   0  0  1  0  0  0  0  0  0  0  0  0
   -2.9920   14.2910   -0.5980 C   0  0  0  0  0  0  0  0  0  0  0  0
   -1.9060   14.7530   -0.3170 O   0  0  0  0  0  0  0  0  0  0  0  0
   -3.4790   13.0030   -0.4820 N   0  0  0  0  0  0  0  0  0  0  0  0
   -4.6390   13.2220    0.1190 C   0  0  0  0  0  0  0  0  0  0  0  0
   -5.5820   12.4750    0.3560 O   0  0  0  0  0  0  0  0  0  0  0  0
  1  2  1  0
  1  3  2  0
  4  1  1  6
  4  5  1  0
  4  6  1  0
  5  7  1  0
  6  8  1  6
  7  8  1  0
  6  9  1  0
  9 10  1  6
  9 11  1  0
 11 12  2  0
 10 13  2  0
 14 12  1  6
 13 14  1  0
 13 15  1  6
 15 16  2  0
 15 17  1  0
 14 18  1  0
 17 18  1  0
 18 19  2  0
M  END
