x0766_0_A_α-x0471_0_A_α
     RDKit          3D

 27 30  0  0  0  0  0  0  0  0999 V2000
    0.3960   12.2450   -2.4520 C   0  0  0  0  0  0  0  0  0  0  0  0
    0.2940   10.9640   -2.8460 O   0  0  0  0  0  0  0  0  0  0  0  0
    0.5640   12.5160   -1.2770 O   0  0  0  0  0  0  0  0  0  0  0  0
    0.2300   13.2590   -3.5520 C   0  0  2  0  0  0  0  0  0  0  0  0
    1.5010   13.4880   -4.3750 C   0  0  0  0  0  0  0  0  0  0  0  0
   -0.0230   14.6070   -2.8560 C   0  0  1  0  0  0  0  0  0  0  0  0
    1.5410   14.9980   -4.6410 C   0  0  0  0  0  0  0  0  0  0  0  0
    0.3880   15.6450   -3.8860 C   0  0  0  0  0  0  0  0  0  0  0  0
   -1.4260   14.7280   -2.3260 C   0  0  0  0  0  0  0  0  0  0  0  0
   -2.4980   14.9730   -3.1400 C   0  0  0  0  0  0  0  0  0  0  0  0
   -1.7330   14.5790   -0.8330 C   0  0  0  0  0  0  0  0  0  0  0  0
   -3.0610   14.6880   -0.5070 C   0  0  0  0  0  0  0  0  0  0  0  0
   -3.8080   14.9510   -2.0180 S   0  0  0  0  0  0  0  0  0  0  0  0
   -5.5450   15.0870   -2.0320 C   0  0  0  0  0  0  0  0  0  0  0  0
   -3.8980   14.6230    0.6820 C   0  0  0  0  0  0  0  0  0  0  0  0
   -5.2790   14.7080    0.5670 C   0  0  0  0  0  0  0  0  0  0  0  0
   -6.0930   14.8960   -0.6850 C   0  0  0  0  0  0  0  0  0  0  0  0
   -7.3560   14.8330   -0.4380 N   0  0  0  0  0  0  0  0  0  0  0  0
   -6.2270   14.6080    1.5590 N   0  0  0  0  0  0  0  0  0  0  0  0
   -7.3830   14.6460    0.9360 C   0  0  0  0  0  0  0  0  0  0  0  0
   -8.7460   14.5160    1.5830 C   0  0  0  0  0  0  0  0  0  0  0  0
   -8.6050   14.3060    3.0110 N   0  0  0  0  0  0  0  0  0  0  0  0
   -9.0630   15.2700    3.8720 C   0  0  0  0  0  0  0  0  0  0  0  0
   -9.3130   16.4080    3.5020 O   0  0  0  0  0  0  0  0  0  0  0  0
   -9.2430   14.8290    5.3220 C   0  0  0  0  0  0  0  0  0  0  0  0
   -9.6790   13.3690    5.4360 C   0  0  0  0  0  0  0  0  0  0  0  0
   -7.9690   15.1000    6.1080 C   0  0  0  0  0  0  0  0  0  0  0  0
  1  2  1  0
  1  3  2  0
  4  1  1  1
  4  5  1  0
  4  6  1  0
  5  7  1  0
  6  8  1  0
  7  8  1  0
  6  9  1  6
  9 10  2  0
  9 11  1  0
 11 12  2  0
 10 13  1  0
 12 13  1  0
 13 14  2  0
 12 15  1  0
 15 16  2  0
 14 17  1  0
 16 17  1  0
 17 18  2  0
 16 19  1  0
 18 20  1  0
 19 20  2  0
 20 21  1  0
 21 22  1  0
 22 23  1  0
 23 24  2  0
 23 25  1  0
 25 26  1  0
 25 27  1  0
M  END
