x0766_0_A-x0591_0_A
     RDKit          3D

 27 29  0  0  0  0  0  0  0  0999 V2000
    0.4350   12.1210   -2.3340 C   0  0  0  0  0  0  0  0  0  0  0  0
    0.1320   10.8450   -2.6230 O   0  0  0  0  0  0  0  0  0  0  0  0
    0.6870   12.4620   -1.2020 O   0  0  0  0  0  0  0  0  0  0  0  0
    0.3710   13.0580   -3.4940 C   0  0  2  0  0  0  0  0  0  0  0  0
    1.6180   13.8310   -3.9210 C   0  0  0  0  0  0  0  0  0  0  0  0
   -0.7310   14.1070   -3.2750 C   0  0  2  0  0  0  0  0  0  0  0  0
    1.0450   14.9900   -4.7340 C   0  0  0  0  0  0  0  0  0  0  0  0
   -0.2980   15.3400   -4.0600 C   0  0  1  0  0  0  0  0  0  0  0  0
   -1.2640   14.4060   -1.8680 C   0  0  0  0  0  0  0  0  0  0  0  0
   -1.3700   15.5550   -5.0530 N   0  0  0  0  0  0  0  0  0  0  0  0
   -2.5820   14.8100   -1.6680 C   0  0  0  0  0  0  0  0  0  0  0  0
   -0.5980   14.3360   -0.5960 C   0  0  0  0  0  0  0  0  0  0  0  0
   -2.5050   14.3330   -5.3990 S   0  0  0  0  0  0  0  0  0  0  0  0
   -1.4210   14.6680    0.4650 C   0  0  0  0  0  0  0  0  0  0  0  0
   -3.0010   15.0690   -0.0320 S   0  0  0  0  0  0  0  0  0  0  0  0
   -1.7690   13.0950   -5.5100 O   0  0  0  0  0  0  0  0  0  0  0  0
   -3.3110   14.8210   -6.4940 O   0  0  0  0  0  0  0  0  0  0  0  0
   -3.5680   14.2300   -3.9570 C   0  0  0  0  0  0  0  0  0  0  0  0
   -3.2370   13.5650   -2.7610 C   0  0  0  0  0  0  0  0  0  0  0  0
   -4.7860   14.8560   -4.0610 C   0  0  0  0  0  0  0  0  0  0  0  0
   -4.1480   13.5750   -1.6810 C   0  0  0  0  0  0  0  0  0  0  0  0
   -5.6920   14.8730   -2.9930 C   0  0  0  0  0  0  0  0  0  0  0  0
   -5.3800   14.2410   -1.7920 C   0  0  0  0  0  0  0  0  0  0  0  0
   -6.3340   14.2660   -0.6420 C   0  0  0  0  0  0  0  0  0  0  0  0
   -5.7980   14.2230    0.6260 N   0  0  0  0  0  0  0  0  0  0  0  0
   -7.5400   14.3330   -0.8490 O   0  0  0  0  0  0  0  0  0  0  0  0
   -6.6480   14.4200    1.7750 C   0  0  0  0  0  0  0  0  0  0  0  0
  1  2  1  0
  1  3  2  0
  4  1  1  1
  4  5  1  0
  4  6  1  0
  5  7  1  0
  6  8  1  0
  7  8  1  0
  6  9  1  1
  8 10  1  6
  9 11  2  0
  9 12  1  0
 13 10  1  0
 12 14  2  0
 11 15  1  0
 14 15  1  0
 13 16  2  0
 13 17  2  0
 13 18  1  0
 18 19  2  0
 18 20  1  0
 19 21  1  0
 20 22  2  0
 21 23  2  0
 22 23  1  0
 23 24  1  0
 24 25  1  0
 24 26  2  0
 25 27  1  0
M  END
