x0766_0_A_α-x0371_0_A_α
     RDKit          3D

 25 27  0  0  0  0  0  0  0  0999 V2000
    0.5550   12.3610   -2.4020 C   0  0  0  0  0  0  0  0  0  0  0  0
    0.2840   11.2460   -3.1000 O   0  0  0  0  0  0  0  0  0  0  0  0
    0.6570   12.3350   -1.2010 O   0  0  0  0  0  0  0  0  0  0  0  0
    0.7160   13.6360   -3.1620 C   0  0  1  0  0  0  0  0  0  0  0  0
    1.4720   13.6120   -4.4760 C   0  0  0  0  0  0  0  0  0  0  0  0
   -0.5820   14.3260   -3.5980 C   0  0  2  0  0  0  0  0  0  0  0  0
    1.3640   15.0930   -4.8220 C   0  0  0  0  0  0  0  0  0  0  0  0
    0.0710   15.5910   -4.1650 C   0  0  0  0  0  0  0  0  0  0  0  0
   -1.6670   14.5570   -2.5400 C   0  0  0  0  0  0  0  0  0  0  0  0
   -2.9430   14.7470   -2.8700 C   0  0  0  0  0  0  0  0  0  0  0  0
   -1.5630   14.6170   -1.1050 C   0  0  0  0  0  0  0  0  0  0  0  0
   -2.6770   14.8470   -0.2120 C   0  0  0  0  0  0  0  0  0  0  0  0
   -3.8580   14.9740   -1.4880 S   0  0  0  0  0  0  0  0  0  0  0  0
   -3.9680   15.0990    0.5580 C   0  0  0  0  0  0  0  0  0  0  0  0
   -4.9340   13.8890    0.5940 C   0  0  0  0  0  0  0  0  0  0  0  0
   -6.4330   14.2370    0.8420 C   0  0  0  0  0  0  0  0  0  0  0  0
   -6.9000   14.2570    2.3190 C   0  0  0  0  0  0  0  0  0  0  0  0
   -8.3150   14.5070    2.5490 N   0  0  0  0  0  0  0  0  0  0  0  0
   -8.8140   15.5470    3.3370 C   0  0  0  0  0  0  0  0  0  0  0  0
   -9.4170   16.4840    2.8300 O   0  0  0  0  0  0  0  0  0  0  0  0
   -8.6060   15.4670    4.7830 C   0  0  0  0  0  0  0  0  0  0  0  0
   -8.0260   14.3610    5.3500 O   0  0  0  0  0  0  0  0  0  0  0  0
   -8.9150   16.3770    5.7850 C   0  0  0  0  0  0  0  0  0  0  0  0
   -7.9650   14.5720    6.6940 C   0  0  0  0  0  0  0  0  0  0  0  0
   -8.5020   15.7950    7.0120 C   0  0  0  0  0  0  0  0  0  0  0  0
  1  2  1  0
  1  3  2  0
  4  1  1  6
  4  5  1  0
  4  6  1  0
  5  7  1  0
  6  8  1  0
  7  8  1  0
  6  9  1  1
  9 10  2  0
  9 11  1  0
 11 12  2  0
 10 13  1  0
 12 13  1  0
 12 14  1  0
 14 15  1  0
 15 16  1  0
 16 17  1  0
 17 18  1  0
 18 19  1  0
 19 20  2  0
 19 21  1  0
 21 22  1  0
 21 23  2  0
 22 24  1  0
 23 25  1  0
 24 25  2  0
M  END
