x0766_0_A_α-x0681_0_A_α
     RDKit          3D

 24 27  0  0  0  0  0  0  0  0999 V2000
    0.3820   12.1850   -2.5840 C   0  0  0  0  0  0  0  0  0  0  0  0
   -0.0440   10.9150   -2.7530 O   0  0  0  0  0  0  0  0  0  0  0  0
    0.7210   12.5970   -1.4830 O   0  0  0  0  0  0  0  0  0  0  0  0
    0.3640   12.9770   -3.8780 C   0  0  2  0  0  0  0  0  0  0  0  0
    1.7480   13.2680   -4.4860 C   0  0  0  0  0  0  0  0  0  0  0  0
   -0.3030   14.3690   -3.8290 C   0  0  2  0  0  0  0  0  0  0  0  0
    1.8570   14.7930   -4.4980 C   0  0  0  0  0  0  0  0  0  0  0  0
    0.8720   15.2600   -3.4870 C   0  0  0  0  0  0  0  0  0  0  0  0
   -1.3880   14.6360   -2.8720 C   0  0  0  0  0  0  0  0  0  0  0  0
   -2.5490   15.2030   -3.1440 C   0  0  0  0  0  0  0  0  0  0  0  0
   -1.3040   14.3170   -1.4590 C   0  0  0  0  0  0  0  0  0  0  0  0
   -2.4260   14.7040   -0.8620 C   0  0  0  0  0  0  0  0  0  0  0  0
   -3.3140   15.3530   -1.8960 C   0  0  2  0  0  0  0  0  0  0  0  0
   -4.7450   15.0110   -1.9520 C   0  0  1  0  0  0  0  0  0  0  0  0
   -4.9850   13.8160   -2.7650 N   0  0  0  0  0  0  0  0  0  0  0  0
   -5.2740   14.9460   -0.5450 C   0  0  1  0  0  0  0  0  0  0  0  0
   -5.6480   13.5430   -0.3240 C   0  0  0  0  0  0  0  0  0  0  0  0
   -4.3370   15.5190    0.5430 C   0  0  0  0  0  0  0  0  0  0  0  0
   -5.9450   13.1640    0.9070 N   0  0  0  0  0  0  0  0  0  0  0  0
   -4.5970   14.9250    1.9230 C   0  0  0  0  0  0  0  0  0  0  0  0
   -5.7480   12.5640   -1.1920 N   0  0  0  0  0  0  0  0  0  0  0  0
   -5.8820   14.0880    1.9930 C   0  0  0  0  0  0  0  0  0  0  0  0
   -6.2790   11.8560    0.8840 C   0  0  0  0  0  0  0  0  0  0  0  0
   -6.1500   11.4970   -0.4420 C   0  0  0  0  0  0  0  0  0  0  0  0
  1  2  1  0
  1  3  2  0
  4  1  1  1
  4  5  1  0
  4  6  1  0
  5  7  1  0
  6  8  1  0
  7  8  1  0
  6  9  1  1
  9 10  2  0
  9 11  1  0
 11 12  2  0
 13 10  1  6
 12 13  1  0
 13 14  1  0
 14 15  1  1
 14 16  1  0
 16 17  1  0
 16 18  1  1
 17 19  1  0
 18 20  1  0
 17 21  2  0
 19 22  1  0
 20 22  1  0
 19 23  1  0
 21 24  1  0
 23 24  2  0
M  END
