x0766_0_A-x0969_0_A
     RDKit          3D

 21 24  0  0  0  0  0  0  0  0999 V2000
    0.6050   12.2590   -2.4680 C   0  0  0  0  0  0  0  0  0  0  0  0
    0.2910   11.2190   -3.2520 O   0  0  0  0  0  0  0  0  0  0  0  0
    0.5450   12.1880   -1.2640 O   0  0  0  0  0  0  0  0  0  0  0  0
    1.0190   13.5410   -3.1130 C   0  0  1  0  0  0  0  0  0  0  0  0
    1.2050   13.5280   -4.6230 C   0  0  0  0  0  0  0  0  0  0  0  0
    0.0370   14.6850   -2.8210 C   0  0  1  0  0  0  0  0  0  0  0  0
    1.2280   15.0220   -4.8950 C   0  0  0  0  0  0  0  0  0  0  0  0
    0.0950   15.5950   -4.0520 C   0  0  0  0  0  0  0  0  0  0  0  0
   -1.3370   14.3010   -2.2370 C   0  0  2  0  0  0  0  0  0  0  0  0
   -2.6160   14.8160   -2.8940 C   0  0  0  0  0  0  0  0  0  0  0  0
   -1.5630   14.4100   -0.7110 C   0  0  0  0  0  0  0  0  0  0  0  0
   -3.0860   14.1780   -0.5160 C   0  0  2  0  0  0  0  0  0  0  0  0
   -3.7060   14.3670   -1.9220 C   0  0  1  0  0  0  0  0  0  0  0  0
   -4.8760   15.3240   -1.8600 C   0  0  0  0  0  0  0  0  0  0  0  0
   -3.8080   14.9290    0.6600 C   0  0  0  0  0  0  0  0  0  0  0  0
   -5.7390   14.6830   -0.8270 C   0  0  1  0  0  0  0  0  0  0  0  0
   -5.2750   15.0750    0.4720 N   0  0  0  0  0  0  0  0  0  0  0  0
   -6.2170   14.3260    1.2680 C   0  0  1  0  0  0  0  0  0  0  0  0
   -7.1290   15.0480   -0.7600 N   0  0  0  0  0  0  0  0  0  0  0  0
   -6.4460   15.0190    2.4800 N   0  0  0  0  0  0  0  0  0  0  0  0
   -7.4890   14.4680    0.5430 N   0  0  0  0  0  0  0  0  0  0  0  0
  1  2  1  0
  1  3  2  0
  4  1  1  6
  4  5  1  0
  4  6  1  0
  5  7  1  0
  6  8  1  6
  7  8  1  0
  6  9  1  0
  9 10  1  6
  9 11  1  0
 12 11  1  6
 13 10  1  6
 12 13  1  0
 13 14  1  0
 12 15  1  0
 16 14  1  6
 15 17  1  0
 16 17  1  0
 17 18  1  0
 16 19  1  0
 18 20  1  1
 18 21  1  0
 19 21  1  0
M  END
