x0766_0_A-x0969_0_A
     RDKit          3D

 21 24  0  0  0  0  0  0  0  0999 V2000
    0.6480   12.2730   -2.4160 C   0  0  0  0  0  0  0  0  0  0  0  0
    0.4450   11.1830   -3.1620 O   0  0  0  0  0  0  0  0  0  0  0  0
    0.5090   12.2510   -1.2150 O   0  0  0  0  0  0  0  0  0  0  0  0
    1.0390   13.5490   -3.0880 C   0  0  1  0  0  0  0  0  0  0  0  0
    1.2130   13.5100   -4.6050 C   0  0  0  0  0  0  0  0  0  0  0  0
    0.0420   14.6810   -2.8190 C   0  0  1  0  0  0  0  0  0  0  0  0
    1.2250   15.0010   -4.8970 C   0  0  0  0  0  0  0  0  0  0  0  0
    0.0950   15.5810   -4.0570 C   0  0  0  0  0  0  0  0  0  0  0  0
   -1.3350   14.2940   -2.2400 C   0  0  2  0  0  0  0  0  0  0  0  0
   -2.6110   14.8120   -2.9000 C   0  0  0  0  0  0  0  0  0  0  0  0
   -1.5580   14.4070   -0.7170 C   0  0  0  0  0  0  0  0  0  0  0  0
   -3.0800   14.1830   -0.5180 C   0  0  2  0  0  0  0  0  0  0  0  0
   -3.7020   14.3740   -1.9260 C   0  0  1  0  0  0  0  0  0  0  0  0
   -4.8700   15.3340   -1.8590 C   0  0  0  0  0  0  0  0  0  0  0  0
   -3.8000   14.9380    0.6550 C   0  0  0  0  0  0  0  0  0  0  0  0
   -5.7300   14.6890   -0.8280 C   0  0  1  0  0  0  0  0  0  0  0  0
   -5.2660   15.0850    0.4710 N   0  0  0  0  0  0  0  0  0  0  0  0
   -6.2030   14.3370    1.2700 C   0  0  1  0  0  0  0  0  0  0  0  0
   -7.1230   15.0460   -0.7580 N   0  0  0  0  0  0  0  0  0  0  0  0
   -6.4230   15.0320    2.4810 N   0  0  0  0  0  0  0  0  0  0  0  0
   -7.4780   14.4760    0.5520 N   0  0  0  0  0  0  0  0  0  0  0  0
  1  2  1  0
  1  3  2  0
  4  1  1  6
  4  5  1  0
  4  6  1  0
  5  7  1  0
  6  8  1  6
  7  8  1  0
  6  9  1  0
  9 10  1  6
  9 11  1  0
 12 11  1  6
 13 10  1  6
 12 13  1  0
 13 14  1  0
 12 15  1  0
 16 14  1  6
 15 17  1  0
 16 17  1  0
 17 18  1  0
 16 19  1  0
 18 20  1  1
 18 21  1  0
 19 21  1  0
M  END
