x0766_1_B-x0436_0_B
     RDKit          3D

 20 21  0  0  0  0  0  0  0  0999 V2000
   -7.1680   26.4430  -13.7310 C   0  0  0  0  0  0  0  0  0  0  0  0
   -6.0820   26.0900  -14.4580 O   0  0  0  0  0  0  0  0  0  0  0  0
   -8.3000   26.3000  -14.1580 O   0  0  0  0  0  0  0  0  0  0  0  0
   -6.8360   27.0210  -12.3810 C   0  0  2  0  0  0  0  0  0  0  0  0
   -7.8370   26.6530  -11.2730 C   0  0  0  0  0  0  0  0  0  0  0  0
   -6.8160   28.5510  -12.3260 C   0  0  2  0  0  0  0  0  0  0  0  0
   -5.9870   29.0730  -10.8490 Cl  0  0  0  0  0  0  0  0  0  0  0  0
   -8.8570   27.7990  -11.2310 C   0  0  0  0  0  0  0  0  0  0  0  0
   -8.3600   28.8680  -12.2230 C   0  0  2  0  0  0  0  0  0  0  0  0
   -5.9220   29.2570  -13.3180 C   0  0  0  0  0  0  0  0  0  0  0  0
   -9.1370   28.7830  -13.4500 O   0  0  0  0  0  0  0  0  0  0  0  0
   -4.5360   29.2720  -13.2500 C   0  0  0  0  0  0  0  0  0  0  0  0
   -6.3510   30.0200  -14.4560 C   0  0  0  0  0  0  0  0  0  0  0  0
   -9.6530   29.9700  -14.1010 C   0  0  2  0  0  0  0  0  0  0  0  0
   -5.3070   30.5560  -15.1710 C   0  0  0  0  0  0  0  0  0  0  0  0
   -3.7930   30.1600  -14.4980 S   0  0  0  0  0  0  0  0  0  0  0  0
  -10.9970   30.3430  -13.4750 C   0  0  0  0  0  0  0  0  0  0  0  0
   -9.8940   29.6750  -15.5950 C   0  0  0  0  0  0  0  0  0  0  0  0
  -10.4520   28.4560  -15.8650 N   0  0  0  0  0  0  0  0  0  0  0  0
   -9.6160   30.4540  -16.5030 O   0  0  0  0  0  0  0  0  0  0  0  0
  1  2  1  0
  1  3  2  0
  4  1  1  6
  4  5  1  0
  4  6  1  0
  6  7  1  1
  5  8  1  0
  6  9  1  0
  8  9  1  0
  6 10  1  0
  9 11  1  6
 10 12  2  0
 10 13  1  0
 11 14  1  0
 13 15  2  0
 12 16  1  0
 15 16  1  0
 14 17  1  1
 14 18  1  0
 18 19  1  0
 18 20  2  0
M  END
