x0766_0_A-x0837_0_A
     RDKit          3D

 20 22  0  0  0  0  0  0  0  0999 V2000
    0.4180   12.2220   -2.9010 C   0  0  0  0  0  0  0  0  0  0  0  0
   -0.2180   11.0380   -2.9590 O   0  0  0  0  0  0  0  0  0  0  0  0
    1.3540   12.4050   -2.1470 O   0  0  0  0  0  0  0  0  0  0  0  0
   -0.1670   13.2440   -3.8420 C   0  0  2  0  0  0  0  0  0  0  0  0
    0.8410   13.6690   -4.9360 C   0  0  0  0  0  0  0  0  0  0  0  0
   -0.3680   14.5320   -3.0300 C   0  0  1  0  0  0  0  0  0  0  0  0
    0.9620   15.1960   -4.8240 C   0  0  0  0  0  0  0  0  0  0  0  0
   -0.2900   15.6430   -4.0580 C   0  0  0  0  0  0  0  0  0  0  0  0
   -1.2240   14.4890   -1.7380 C   0  0  0  0  0  0  0  0  0  0  0  0
   -2.5190   14.8080   -1.1430 C   0  0  0  0  0  0  0  0  0  0  0  0
   -0.4250   13.9330   -0.6840 C   0  0  0  0  0  0  0  0  0  0  0  0
   -1.0100   13.8350    0.5290 C   0  0  0  0  0  0  0  0  0  0  0  0
   -2.5680   14.3890    0.5140 S   0  0  0  0  0  0  0  0  0  0  0  0
   -3.9360   15.3750   -1.2140 C   0  0  2  0  0  0  0  0  0  0  0  0
   -4.0130   15.9010    0.2310 C   0  0  0  0  0  0  0  0  0  0  0  0
   -5.1470   14.4570   -1.5110 C   0  0  0  0  0  0  0  0  0  0  0  0
   -4.8350   15.4490    1.1700 C   0  0  0  0  0  0  0  0  0  0  0  0
   -6.1940   14.4230   -0.3960 C   0  0  0  0  0  0  0  0  0  0  0  0
   -7.4110   14.3590   -0.5880 O   0  0  0  0  0  0  0  0  0  0  0  0
   -5.7090   14.4920    0.8650 N   0  0  0  0  0  0  0  0  0  0  0  0
  1  2  1  0
  1  3  2  0
  4  1  1  1
  4  5  1  0
  4  6  1  0
  5  7  1  0
  6  8  1  0
  7  8  1  0
  6  9  1  6
  9 10  2  0
  9 11  1  0
 11 12  2  0
 10 13  1  0
 12 13  1  0
 14 10  1  1
 14 15  1  0
 14 16  1  0
 15 17  2  0
 16 18  1  0
 18 19  2  0
 17 20  1  0
 18 20  1  0
M  END
