x0766_0_A_α-x0722_0_A_α
     RDKit          3D

 24 26  0  0  0  0  0  0  0  0999 V2000
    0.5150   12.2810   -2.3960 C   0  0  0  0  0  0  0  0  0  0  0  0
    0.1510   11.2330   -3.1640 O   0  0  0  0  0  0  0  0  0  0  0  0
    0.5060   12.2390   -1.1910 O   0  0  0  0  0  0  0  0  0  0  0  0
    0.9400   13.5510   -3.0780 C   0  0  1  0  0  0  0  0  0  0  0  0
    1.1520   13.5420   -4.5800 C   0  0  0  0  0  0  0  0  0  0  0  0
    0.0480   14.7780   -2.8060 C   0  0  1  0  0  0  0  0  0  0  0  0
    1.4280   15.0150   -4.8080 C   0  0  0  0  0  0  0  0  0  0  0  0
    0.4770   15.7660   -3.8900 C   0  0  0  0  0  0  0  0  0  0  0  0
   -1.4430   14.5530   -2.8040 C   0  0  0  0  0  0  0  0  0  0  0  0
   -2.1410   14.2680   -3.9640 C   0  0  0  0  0  0  0  0  0  0  0  0
   -2.4010   14.5850   -1.7250 C   0  0  0  0  0  0  0  0  0  0  0  0
   -3.6560   14.3320   -2.1220 C   0  0  0  0  0  0  0  0  0  0  0  0
   -3.8080   14.0570   -3.7560 S   0  0  0  0  0  0  0  0  0  0  0  0
   -2.4550   14.8340   -0.2200 C   0  0  0  0  0  0  0  0  0  0  0  0
   -3.6300   15.3600    0.2470 C   0  0  0  0  0  0  0  0  0  0  0  0
   -1.6210   14.6720    0.8410 N   0  0  0  0  0  0  0  0  0  0  0  0
   -0.2700   14.1770    0.9450 C   0  0  0  0  0  0  0  0  0  0  0  0
   -4.8760   15.7420   -0.5080 C   0  0  0  0  0  0  0  0  0  0  0  0
   -2.2160   15.0610    1.9550 N   0  0  0  0  0  0  0  0  0  0  0  0
   -3.4210   15.4800    1.6080 C   0  0  0  0  0  0  0  0  0  0  0  0
   -4.3430   16.0050    2.6150 C   0  0  0  0  0  0  0  0  0  0  0  0
   -6.0610   14.7930   -0.3890 C   0  0  0  0  0  0  0  0  0  0  0  0
   -7.1890   15.1120   -0.7610 O   0  0  0  0  0  0  0  0  0  0  0  0
   -5.8640   13.5560    0.1480 N   0  0  0  0  0  0  0  0  0  0  0  0
  1  2  1  0
  1  3  2  0
  4  1  1  6
  4  5  1  0
  4  6  1  0
  5  7  1  0
  6  8  1  0
  7  8  1  0
  6  9  1  6
  9 10  2  0
  9 11  1  0
 11 12  2  0
 10 13  1  0
 12 13  1  0
 11 14  1  0
 14 15  2  0
 14 16  1  0
 16 17  1  0
 15 18  1  0
 16 19  1  0
 15 20  1  0
 19 20  2  0
 20 21  1  0
 18 22  1  0
 22 23  2  0
 22 24  1  0
M  END
