x0766_0_A-x0864_0_A
     RDKit          3D

 22 24  0  0  0  0  0  0  0  0999 V2000
    0.1760   12.2960   -2.8480 C   0  0  0  0  0  0  0  0  0  0  0  0
   -0.5040   12.3300   -1.5970 O   0  0  0  0  0  0  0  0  0  0  0  0
    0.8450   11.0670   -2.8240 O   0  0  0  0  0  0  0  0  0  0  0  0
   -0.7160   12.4850   -4.1070 C   0  0  0  0  0  0  0  0  0  0  0  0
    1.0780   13.4850   -2.8520 C   0  0  1  0  0  0  0  0  0  0  0  0
    1.9280   13.6210   -4.1130 C   0  0  0  0  0  0  0  0  0  0  0  0
    0.3210   14.8150   -2.6280 C   0  0  1  0  0  0  0  0  0  0  0  0
   -0.6840   11.3560   -5.0350 N   0  0  0  0  0  0  0  0  0  0  0  0
    1.5580   14.9670   -4.7120 C   0  0  0  0  0  0  0  0  0  0  0  0
    0.3460   15.5130   -3.9810 C   0  0  0  0  0  0  0  0  0  0  0  0
   -1.0810   14.7500   -2.0420 C   0  0  0  0  0  0  0  0  0  0  0  0
   -1.6320   10.4040   -4.7830 C   0  0  0  0  0  0  0  0  0  0  0  0
    0.1330   11.3370   -6.1830 C   0  0  0  0  0  0  0  0  0  0  0  0
    1.1060   12.0500   -6.4140 O   0  0  0  0  0  0  0  0  0  0  0  0
   -2.3140   14.7690   -2.6910 C   0  0  0  0  0  0  0  0  0  0  0  0
   -1.2800   14.6640   -0.6210 C   0  0  0  0  0  0  0  0  0  0  0  0
   -1.9180    9.4720   -5.6730 C   0  0  0  0  0  0  0  0  0  0  0  0
   -0.2460   10.3200   -7.1960 C   0  0  0  0  0  0  0  0  0  0  0  0
   -2.6050   14.6300   -0.2590 C   0  0  0  0  0  0  0  0  0  0  0  0
   -3.6420   14.6970   -1.6110 S   0  0  0  0  0  0  0  0  0  0  0  0
   -1.2260    9.4440   -6.9280 C   0  0  0  0  0  0  0  0  0  0  0  0
   -1.7710    8.1370   -8.1370 Br  0  0  0  0  0  0  0  0  0  0  0  0
  1  2  1  0
  1  3  1  0
  1  4  1  0
  5  1  1  6
  5  6  1  0
  5  7  1  0
  4  8  1  0
  6  9  1  0
  7 10  1  0
  9 10  1  0
  7 11  1  6
  8 12  1  0
  8 13  1  0
 13 14  2  0
 11 15  2  0
 11 16  1  0
 12 17  2  0
 13 18  1  0
 16 19  2  0
 15 20  1  0
 19 20  1  0
 17 21  1  0
 18 21  2  0
 21 22  1  0
M  END
