x0766_0_A_α-x0685_1_A_α
     RDKit          3D

 23 25  0  0  0  0  0  0  0  0999 V2000
    0.6490   12.5340   -2.7120 S   0  0  0  0  0  0  0  0  0  0  0  0
   -0.1750   11.7020   -1.8410 O   0  0  0  0  0  0  0  0  0  0  0  0
    1.5080   13.0450   -1.6240 O   0  0  0  0  0  0  0  0  0  0  0  0
    0.2290   11.7410   -4.0540 C   0  0  0  0  0  0  0  0  0  0  0  0
    2.3960   11.9410   -3.1510 O   0  0  0  0  0  0  0  0  0  0  0  0
    0.7590   13.9390   -3.4460 C   0  0  1  0  0  0  0  0  0  0  0  0
   -1.2260   11.7070   -4.4430 C   0  0  0  0  0  0  0  0  0  0  0  0
    0.7540   14.1060   -4.9460 C   0  0  0  0  0  0  0  0  0  0  0  0
   -0.0980   15.1050   -2.9900 C   0  0  1  0  0  0  0  0  0  0  0  0
   -1.5270   10.6590   -5.2770 N   0  0  0  0  0  0  0  0  0  0  0  0
    1.0650   15.5380   -4.9780 C   0  0  0  0  0  0  0  0  0  0  0  0
   -0.0860   16.0760   -4.1250 C   0  0  0  0  0  0  0  0  0  0  0  0
   -1.4020   14.8560   -2.3370 C   0  0  0  0  0  0  0  0  0  0  0  0
   -2.6110   14.8110   -2.9780 C   0  0  0  0  0  0  0  0  0  0  0  0
   -1.4120   14.6710   -0.9880 C   0  0  0  0  0  0  0  0  0  0  0  0
   -1.0230   10.5630   -6.5520 C   0  0  0  0  0  0  0  0  0  0  0  0
   -2.6210   14.4690   -0.4010 C   0  0  0  0  0  0  0  0  0  0  0  0
   -3.7110   14.5320   -1.6950 S   0  0  0  0  0  0  0  0  0  0  0  0
   -0.2790    9.2550   -6.7820 C   0  0  0  0  0  0  0  0  0  0  0  0
   -1.8950   10.8590   -7.7130 C   0  0  0  0  0  0  0  0  0  0  0  0
   -0.8140    8.4050   -7.9010 C   0  0  0  0  0  0  0  0  0  0  0  0
   -1.0190   10.6140   -8.9670 C   0  0  0  0  0  0  0  0  0  0  0  0
   -0.8150    9.1580   -9.1940 C   0  0  0  0  0  0  0  0  0  0  0  0
  1  2  1  0
  1  3  2  0
  1  4  1  0
  1  5  1  0
  6  1  1  6
  4  7  1  0
  6  8  1  0
  6  9  1  0
  7 10  1  0
  8 11  1  0
  9 12  1  0
 11 12  1  0
  9 13  1  6
 13 14  2  0
 13 15  1  0
 10 16  1  0
 15 17  2  0
 14 18  1  0
 17 18  1  0
 16 19  1  0
 16 20  1  0
 19 21  1  0
 20 22  1  0
 21 23  1  0
 22 23  1  0
M  END
