x0766_0_A-x0844_0_A
     RDKit          3D

 20 22  0  0  0  0  0  0  0  0999 V2000
    0.4220   12.2210   -2.9100 C   0  0  0  0  0  0  0  0  0  0  0  0
   -0.2140   11.0370   -2.9700 O   0  0  0  0  0  0  0  0  0  0  0  0
    1.3450   12.4080   -2.1400 O   0  0  0  0  0  0  0  0  0  0  0  0
   -0.1460   13.2410   -3.8620 C   0  0  2  0  0  0  0  0  0  0  0  0
    0.8700   13.6660   -4.9500 C   0  0  0  0  0  0  0  0  0  0  0  0
   -0.3550   14.5310   -3.0590 C   0  0  1  0  0  0  0  0  0  0  0  0
    0.9830   15.1960   -4.8350 C   0  0  0  0  0  0  0  0  0  0  0  0
   -0.2830   15.6350   -4.0900 C   0  0  0  0  0  0  0  0  0  0  0  0
   -1.2270   14.4920   -1.7810 C   0  0  0  0  0  0  0  0  0  0  0  0
   -2.5320   14.8160   -1.2170 C   0  0  0  0  0  0  0  0  0  0  0  0
   -0.4440   13.9410   -0.7110 C   0  0  0  0  0  0  0  0  0  0  0  0
   -1.0530   13.8500    0.4920 C   0  0  0  0  0  0  0  0  0  0  0  0
   -2.6100   14.4040    0.4420 S   0  0  0  0  0  0  0  0  0  0  0  0
   -3.9420   15.3860   -1.3280 C   0  0  2  0  0  0  0  0  0  0  0  0
   -4.0590   15.8750    0.1220 C   0  0  0  0  0  0  0  0  0  0  0  0
   -5.1540   14.4970   -1.6960 C   0  0  0  0  0  0  0  0  0  0  0  0
   -4.8990   15.3860    1.0300 C   0  0  0  0  0  0  0  0  0  0  0  0
   -6.2220   14.4420   -0.6010 C   0  0  0  0  0  0  0  0  0  0  0  0
   -7.4350   14.4390   -0.8120 O   0  0  0  0  0  0  0  0  0  0  0  0
   -5.7420   14.4250    0.6600 N   0  0  0  0  0  0  0  0  0  0  0  0
  1  2  1  0
  1  3  2  0
  4  1  1  1
  4  5  1  0
  4  6  1  0
  5  7  1  0
  6  8  1  0
  7  8  1  0
  6  9  1  6
  9 10  2  0
  9 11  1  0
 11 12  2  0
 10 13  1  0
 12 13  1  0
 14 10  1  1
 14 15  1  0
 14 16  1  0
 15 17  2  0
 16 18  1  0
 18 19  2  0
 17 20  1  0
 18 20  1  0
M  END
