x0766_0_A_α-x0864_0_A_α
     RDKit          3D

 22 24  0  0  0  0  0  0  0  0999 V2000
    0.1780   12.2860   -2.8560 C   0  0  0  0  0  0  0  0  0  0  0  0
   -0.5020   12.3180   -1.6040 O   0  0  0  0  0  0  0  0  0  0  0  0
    0.8540   11.0590   -2.8260 O   0  0  0  0  0  0  0  0  0  0  0  0
   -0.7110   12.4720   -4.1090 C   0  0  0  0  0  0  0  0  0  0  0  0
    1.0740   13.4790   -2.8650 C   0  0  1  0  0  0  0  0  0  0  0  0
    1.8990   13.6300   -4.1450 C   0  0  0  0  0  0  0  0  0  0  0  0
    0.3100   14.8060   -2.6190 C   0  0  1  0  0  0  0  0  0  0  0  0
   -0.6820   11.3450   -5.0380 N   0  0  0  0  0  0  0  0  0  0  0  0
    1.5680   15.0140   -4.6780 C   0  0  0  0  0  0  0  0  0  0  0  0
    0.3400   15.5250   -3.9570 C   0  0  0  0  0  0  0  0  0  0  0  0
   -1.0910   14.7380   -2.0340 C   0  0  0  0  0  0  0  0  0  0  0  0
   -1.6300   10.3960   -4.7820 C   0  0  0  0  0  0  0  0  0  0  0  0
    0.1280   11.3280   -6.1930 C   0  0  0  0  0  0  0  0  0  0  0  0
    1.0940   12.0470   -6.4330 O   0  0  0  0  0  0  0  0  0  0  0  0
   -2.3270   14.7540   -2.6850 C   0  0  0  0  0  0  0  0  0  0  0  0
   -1.2940   14.6520   -0.6150 C   0  0  0  0  0  0  0  0  0  0  0  0
   -1.9210    9.4660   -5.6710 C   0  0  0  0  0  0  0  0  0  0  0  0
   -0.2550   10.3110   -7.2010 C   0  0  0  0  0  0  0  0  0  0  0  0
   -2.6180   14.6160   -0.2510 C   0  0  0  0  0  0  0  0  0  0  0  0
   -3.6550   14.6820   -1.6030 S   0  0  0  0  0  0  0  0  0  0  0  0
   -1.2350    9.4350   -6.9310 C   0  0  0  0  0  0  0  0  0  0  0  0
   -1.7800    8.1250   -8.1320 Br  0  0  0  0  0  0  0  0  0  0  0  0
  1  2  1  0
  1  3  1  0
  1  4  1  0
  5  1  1  6
  5  6  1  0
  5  7  1  0
  4  8  1  0
  6  9  1  0
  7 10  1  0
  9 10  1  0
  7 11  1  6
  8 12  1  0
  8 13  1  0
 13 14  2  0
 11 15  2  0
 11 16  1  0
 12 17  2  0
 13 18  1  0
 16 19  2  0
 15 20  1  0
 19 20  1  0
 17 21  1  0
 18 21  2  0
 21 22  1  0
M  END
