x0766_0_A_α-x1012_0_A_α
     RDKit          3D

 16 17  0  0  0  0  0  0  0  0999 V2000
    0.4980   12.4930   -2.7710 C   0  0  0  0  0  0  0  0  0  0  0  0
    0.0870   11.2040   -2.7380 O   0  0  0  0  0  0  0  0  0  0  0  0
    1.1540   12.9650   -1.8620 O   0  0  0  0  0  0  0  0  0  0  0  0
    0.0670   13.2440   -4.0240 C   0  0  2  0  0  0  0  0  0  0  0  0
    1.2940   13.7460   -4.8190 C   0  0  0  0  0  0  0  0  0  0  0  0
   -0.8050   14.5080   -3.8130 C   0  0  2  0  0  0  0  0  0  0  0  0
    1.3460   15.2760   -4.6940 C   0  0  0  0  0  0  0  0  0  0  0  0
    0.0930   15.7400   -3.9420 C   0  0  1  0  0  0  0  0  0  0  0  0
   -1.7190   14.5750   -2.6160 C   0  0  0  0  0  0  0  0  0  0  0  0
   -0.6890   16.9090   -4.5800 C   0  0  0  0  0  0  0  0  0  0  0  0
   -3.0960   14.6990   -2.6590 C   0  0  0  0  0  0  0  0  0  0  0  0
   -1.2680   14.5310   -1.2480 C   0  0  0  0  0  0  0  0  0  0  0  0
   -0.0190   18.0780   -4.7630 N   0  0  0  0  0  0  0  0  0  0  0  0
   -1.8830   16.8550   -4.9050 O   0  0  0  0  0  0  0  0  0  0  0  0
   -2.3030   14.6230   -0.3400 C   0  0  0  0  0  0  0  0  0  0  0  0
   -3.8170   14.7650   -1.1120 S   0  0  0  0  0  0  0  0  0  0  0  0
  1  2  1  0
  1  3  2  0
  4  1  1  1
  4  5  1  0
  4  6  1  0
  5  7  1  0
  6  8  1  0
  7  8  1  0
  6  9  1  1
  8 10  1  6
  9 11  2  0
  9 12  1  0
 10 13  1  0
 10 14  2  0
 12 15  2  0
 11 16  1  0
 15 16  1  0
M  END
