x0766_0_A_α-x0910_0_A_α
     RDKit          3D

 19 21  0  0  0  0  0  0  0  0999 V2000
    0.3880   12.2320   -2.6370 C   0  0  0  0  0  0  0  0  0  0  0  0
    0.2810   10.9280   -2.9480 O   0  0  0  0  0  0  0  0  0  0  0  0
    0.6810   12.5510   -1.4940 O   0  0  0  0  0  0  0  0  0  0  0  0
    0.0940   13.1690   -3.7940 C   0  0  2  0  0  0  0  0  0  0  0  0
    1.3460   13.4860   -4.6360 C   0  0  0  0  0  0  0  0  0  0  0  0
   -0.3400   14.5060   -3.1620 C   0  0  1  0  0  0  0  0  0  0  0  0
    1.4700   15.0090   -4.6730 C   0  0  0  0  0  0  0  0  0  0  0  0
    0.2070   15.5880   -4.0790 C   0  0  0  0  0  0  0  0  0  0  0  0
   -1.8220   14.6420   -2.8240 C   0  0  0  0  0  0  0  0  0  0  0  0
   -2.4590   14.0050   -1.8080 C   0  0  0  0  0  0  0  0  0  0  0  0
   -2.7760   15.4480   -3.4680 C   0  0  0  0  0  0  0  0  0  0  0  0
   -1.9720   13.2060   -0.9390 N   0  0  0  0  0  0  0  0  0  0  0  0
   -4.0210   15.3520   -2.8890 C   0  0  0  0  0  0  0  0  0  0  0  0
   -4.1110   14.3260   -1.5950 S   0  0  0  0  0  0  0  0  0  0  0  0
   -1.2720   13.9090   -0.1180 C   0  0  0  0  0  0  0  0  0  0  0  0
   -1.8240   14.2930    1.0490 N   0  0  0  0  0  0  0  0  0  0  0  0
   -0.0600   14.3670   -0.2290 N   0  0  0  0  0  0  0  0  0  0  0  0
   -0.9660   15.0100    1.7180 N   0  0  0  0  0  0  0  0  0  0  0  0
    0.0900   15.0400    0.9190 C   0  0  0  0  0  0  0  0  0  0  0  0
  1  2  1  0
  1  3  2  0
  4  1  1  1
  4  5  1  0
  4  6  1  0
  5  7  1  0
  6  8  1  0
  7  8  1  0
  6  9  1  6
  9 10  2  0
  9 11  1  0
 10 12  1  0
 11 13  2  0
 10 14  1  0
 13 14  1  0
 12 15  1  0
 15 16  1  0
 15 17  2  0
 16 18  1  0
 17 19  1  0
 18 19  2  0
M  END
