x0766_0_A-x0587_0_A
     RDKit          3D

 26 28  0  0  0  0  0  0  0  0999 V2000
    0.7780   12.1280   -2.9180 C   0  0  0  0  0  0  0  0  0  0  0  0
    0.1310   10.9710   -3.1540 O   0  0  0  0  0  0  0  0  0  0  0  0
    1.5340   12.2330   -1.9850 O   0  0  0  0  0  0  0  0  0  0  0  0
    0.4570   13.2270   -3.8690 C   0  0  2  0  0  0  0  0  0  0  0  0
    1.5390   13.5620   -4.8860 C   0  0  0  0  0  0  0  0  0  0  0  0
    0.2500   14.5030   -3.0750 C   0  0  1  0  0  0  0  0  0  0  0  0
    1.6680   15.0840   -4.8380 C   0  0  0  0  0  0  0  0  0  0  0  0
    0.6040   15.6470   -3.9710 C   0  0  0  0  0  0  0  0  0  0  0  0
   -1.1140   14.6740   -2.6390 C   0  0  0  0  0  0  0  0  0  0  0  0
   -2.1080   14.8730   -3.5570 C   0  0  0  0  0  0  0  0  0  0  0  0
   -1.5780   14.6630   -1.3150 C   0  0  0  0  0  0  0  0  0  0  0  0
   -2.9080   14.8570   -1.3020 C   0  0  0  0  0  0  0  0  0  0  0  0
   -3.5940   15.0520   -2.8440 S   0  0  0  0  0  0  0  0  0  0  0  0
   -3.7990   14.9260   -0.4270 O   0  0  0  0  0  0  0  0  0  0  0  0
   -5.0010   14.5150   -1.0390 C   0  0  0  0  0  0  0  0  0  0  0  0
   -4.8230   13.2930   -1.6360 F   0  0  0  0  0  0  0  0  0  0  0  0
   -5.2850   15.3930   -2.0520 F   0  0  0  0  0  0  0  0  0  0  0  0
   -6.0120   14.5890    0.0280 C   0  0  0  0  0  0  0  0  0  0  0  0
   -7.3190   14.4690   -0.2630 N   0  0  0  0  0  0  0  0  0  0  0  0
   -5.4740   14.7900    1.2380 N   0  0  0  0  0  0  0  0  0  0  0  0
   -8.1390   14.5800    0.7900 C   0  0  0  0  0  0  0  0  0  0  0  0
   -6.3320   14.8900    2.2320 C   0  0  0  0  0  0  0  0  0  0  0  0
   -7.6820   14.7980    2.0710 C   0  0  0  0  0  0  0  0  0  0  0  0
   -8.5800   14.9320    3.1900 C   0  0  0  0  0  0  0  0  0  0  0  0
   -8.0090   14.8320    4.4230 N   0  0  0  0  0  0  0  0  0  0  0  0
   -9.7770   15.1310    3.0270 O   0  0  0  0  0  0  0  0  0  0  0  0
  1  2  1  0
  1  3  2  0
  4  1  1  1
  4  5  1  0
  4  6  1  0
  5  7  1  0
  6  8  1  0
  7  8  1  0
  6  9  1  6
  9 10  2  0
  9 11  1  0
 11 12  2  0
 10 13  1  0
 12 13  1  0
 12 14  1  0
 14 15  1  0
 15 16  1  0
 15 17  1  0
 15 18  1  0
 18 19  2  0
 18 20  1  0
 19 21  1  0
 20 22  2  0
 21 23  2  0
 22 23  1  0
 23 24  1  0
 24 25  1  0
 24 26  2  0
M  END
