x0766_1_B_α-6WOJ_0_A_β
     RDKit          3D

 28 29  0  0  0  0  0  0  0  0999 V2000
   -7.0870   26.5870  -13.6750 C   0  0  0  0  0  0  0  0  0  0  0  0
   -6.2900   26.2380  -14.7300 O   0  0  0  0  0  0  0  0  0  0  0  0
   -8.2930   26.8730  -13.8880 O   0  0  0  0  0  0  0  0  0  0  0  0
   -6.5370   26.6290  -12.3190 C   0  0  2  0  0  0  0  0  0  0  0  0
   -7.4290   25.9890  -11.2690 C   0  0  1  0  0  0  0  0  0  0  0  0
   -6.3660   28.0260  -11.7880 C   0  0  2  0  0  0  0  0  0  0  0  0
   -6.5930   25.4430  -10.1450 C   0  0  0  0  0  0  0  0  0  0  0  0
   -8.3800   27.0920  -10.9770 C   0  0  0  0  0  0  0  0  0  0  0  0
   -7.8060   28.4110  -11.5020 C   0  0  0  0  0  0  0  0  0  0  0  0
   -5.7200   28.9200  -12.8480 C   0  0  0  0  0  0  0  0  0  0  0  0
   -6.4960   23.9810   -9.8240 C   0  0  0  0  0  0  0  0  0  0  0  0
   -4.3490   28.9900  -12.8960 C   0  0  0  0  0  0  0  0  0  0  0  0
   -6.3850   29.6520  -13.7590 C   0  0  0  0  0  0  0  0  0  0  0  0
   -5.0560   23.4170   -9.7530 C   0  0  0  0  0  0  0  0  0  0  0  0
   -5.6480   30.3890  -14.6430 C   0  0  0  0  0  0  0  0  0  0  0  0
   -4.0410   30.0510  -14.1940 S   0  0  0  0  0  0  0  0  0  0  0  0
   -4.6500   22.6360   -8.5280 C   0  0  0  0  0  0  0  0  0  0  0  0
   -3.2200   22.1920   -8.5970 C   0  0  0  0  0  0  0  0  0  0  0  0
   -2.5120   21.2900   -7.6510 C   0  0  0  0  0  0  0  0  0  0  0  0
   -1.7330   20.3360   -8.2820 O   0  0  0  0  0  0  0  0  0  0  0  0
   -0.3300   19.9120   -7.4390 P   0  0  0  0  0  0  0  0  0  0  0  0
   -0.3260   18.8130   -6.2370 O   0  0  0  0  0  0  0  0  0  0  0  0
    1.0220   20.8620   -7.6330 O   0  0  0  0  0  0  0  0  0  0  0  0
    0.1100   18.9440   -8.5510 O   0  0  0  0  0  0  0  0  0  0  0  0
   -1.4990   17.9630   -5.7240 P   0  0  0  0  0  0  0  0  0  0  0  0
   -0.6720   16.6160   -5.4670 O   0  0  0  0  0  0  0  0  0  0  0  0
   -1.7450   19.0600   -4.5290 O   0  0  0  0  0  0  0  0  0  0  0  0
   -2.3240   18.2070   -7.1530 O   0  0  0  0  0  0  0  0  0  0  0  0
  1  2  1  0
  1  3  2  0
  4  1  1  6
  4  5  1  0
  4  6  1  0
  5  7  1  1
  5  8  1  0
  6  9  1  0
  8  9  1  0
  6 10  1  6
  7 11  1  0
 10 12  2  0
 10 13  1  0
 11 14  1  0
 13 15  2  0
 12 16  1  0
 15 16  1  0
 14 17  1  0
 17 18  1  0
 18 19  1  0
 19 20  1  0
 20 21  1  0
 21 22  1  0
 21 23  1  0
 21 24  1  0
 22 25  1  0
 25 26  1  0
 25 27  1  0
 25 28  1  0
M  CHG  2  23  -1  27  -1
M  END
