x0766_1_B-x0417_0_B
     RDKit          3D

 21 23  0  0  0  0  0  0  0  0999 V2000
   -7.3390   26.4210  -13.8180 C   0  0  0  0  0  0  0  0  0  0  0  0
   -6.2520   25.9830  -14.4860 O   0  0  0  0  0  0  0  0  0  0  0  0
   -8.4500   26.4230  -14.3200 O   0  0  0  0  0  0  0  0  0  0  0  0
   -6.9940   26.9070  -12.4270 C   0  0  2  0  0  0  0  0  0  0  0  0
   -7.9800   26.4330  -11.3650 C   0  0  0  0  0  0  0  0  0  0  0  0
   -7.1240   28.4440  -12.4320 C   0  0  1  0  0  0  0  0  0  0  0  0
   -8.5770   27.7310  -10.8410 C   0  0  0  0  0  0  0  0  0  0  0  0
   -7.4210   28.7350  -10.9930 C   0  0  0  0  0  0  0  0  0  0  0  0
   -6.0150   28.9800  -13.2420 C   0  0  0  0  0  0  0  0  0  0  0  0
   -4.7500   29.3150  -12.9600 C   0  0  0  0  0  0  0  0  0  0  0  0
   -6.3860   29.1630  -14.6460 C   0  0  0  0  0  0  0  0  0  0  0  0
   -4.1580   29.2810  -11.7630 F   0  0  0  0  0  0  0  0  0  0  0  0
   -5.4100   29.5540  -15.4380 C   0  0  0  0  0  0  0  0  0  0  0  0
   -4.0650   29.6680  -14.4630 S   0  0  2  0  0  0  0  0  0  0  0  0
   -2.7540   28.6240  -14.8230 C   0  0  0  0  0  0  0  0  0  0  0  0
   -3.1850   31.0880  -14.8100 C   0  0  0  0  0  0  0  0  0  0  0  0
   -3.4020   32.1010  -14.2200 O   0  0  0  0  0  0  0  0  0  0  0  0
   -2.1760   30.8720  -15.9310 C   0  0  1  0  0  0  0  0  0  0  0  0
   -2.0690   29.3070  -16.0320 C   0  0  0  0  0  0  0  0  0  0  0  0
   -2.5510   31.5950  -17.1450 N   0  0  0  0  0  0  0  0  0  0  0  0
   -1.4300   31.9380  -18.0050 C   0  0  0  0  0  0  0  0  0  0  0  0
  1  2  1  0
  1  3  2  0
  4  1  1  6
  4  5  1  0
  4  6  1  0
  5  7  1  0
  6  8  1  0
  7  8  1  0
  6  9  1  1
  9 10  2  0
  9 11  1  0
 10 12  1  0
 11 13  2  0
 14 10  1  0
 14 13  1  6
 14 15  1  0
 14 16  1  0
 16 17  2  0
 16 18  1  0
 15 19  1  0
 18 19  1  0
 18 20  1  6
 20 21  1  0
M  END
