x0766_0_A_α-x0371_0_A_β
     RDKit          3D

 21 24  0  0  0  0  0  0  0  0999 V2000
    0.3100   12.2180   -2.4980 C   0  0  0  0  0  0  0  0  0  0  0  0
   -0.0580   10.9770   -2.8810 O   0  0  0  0  0  0  0  0  0  0  0  0
    0.6240   12.4820   -1.3500 O   0  0  0  0  0  0  0  0  0  0  0  0
    0.2340   13.2580   -3.5930 C   0  0  2  0  0  0  0  0  0  0  0  0
    1.5270   13.4320   -4.3910 C   0  0  0  0  0  0  0  0  0  0  0  0
    0.0270   14.6210   -2.9100 C   0  0  1  0  0  0  0  0  0  0  0  0
    1.6000   14.9270   -4.6950 C   0  0  0  0  0  0  0  0  0  0  0  0
    0.4830   15.6250   -3.9520 C   0  0  0  0  0  0  0  0  0  0  0  0
   -1.3910   14.7390   -2.4480 C   0  0  0  0  0  0  0  0  0  0  0  0
   -2.4860   14.9490   -3.2390 C   0  0  0  0  0  0  0  0  0  0  0  0
   -1.6450   14.6170   -0.9500 C   0  0  0  0  0  0  0  0  0  0  0  0
   -2.9540   14.7210   -0.5960 C   0  0  0  0  0  0  0  0  0  0  0  0
   -3.7600   14.9380   -2.0830 S   0  0  0  0  0  0  0  0  0  0  0  0
   -3.7340   14.6780    0.6120 C   0  0  0  0  0  0  0  0  0  0  0  0
   -5.4980   15.0590   -2.0490 C   0  0  0  0  0  0  0  0  0  0  0  0
   -5.1060   14.7510    0.5400 C   0  0  0  0  0  0  0  0  0  0  0  0
   -5.9840   14.8990   -0.6730 C   0  0  0  0  0  0  0  0  0  0  0  0
   -5.9900   14.6740    1.5770 N   0  0  0  0  0  0  0  0  0  0  0  0
   -7.2330   14.8270   -0.3490 N   0  0  0  0  0  0  0  0  0  0  0  0
   -7.1690   14.6860    1.0250 C   0  0  0  0  0  0  0  0  0  0  0  0
   -8.4400   14.5820    1.7900 C   0  0  0  0  0  0  0  0  0  0  0  0
  1  2  1  0
  1  3  2  0
  4  1  1  1
  4  5  1  0
  4  6  1  0
  5  7  1  0
  6  8  1  0
  7  8  1  0
  6  9  1  6
  9 10  2  0
  9 11  1  0
 11 12  2  0
 10 13  1  0
 12 13  1  0
 12 14  1  0
 13 15  2  0
 14 16  2  0
 15 17  1  0
 16 17  1  0
 16 18  1  0
 17 19  2  0
 18 20  2  0
 19 20  1  0
 20 21  1  0
M  END
