x0766_0_A-x0849_0_A
     RDKit          3D

 24 27  0  0  0  0  0  0  0  0999 V2000
    0.7230   12.3480   -2.9950 C   0  0  0  0  0  0  0  0  0  0  0  0
    0.1420   11.1250   -2.9700 O   0  0  0  0  0  0  0  0  0  0  0  0
    1.4950   12.6840   -2.1200 O   0  0  0  0  0  0  0  0  0  0  0  0
    0.3170   13.2150   -4.1780 C   0  0  2  0  0  0  0  0  0  0  0  0
    1.5210   13.8120   -4.8940 C   0  0  0  0  0  0  0  0  0  0  0  0
   -0.5590   14.4460   -3.8450 C   0  0  2  0  0  0  0  0  0  0  0  0
    1.7020   15.1910   -4.2600 C   0  0  0  0  0  0  0  0  0  0  0  0
    0.5070   15.4150   -3.3290 C   0  0  0  0  0  0  0  0  0  0  0  0
   -1.7130   14.0550   -2.9300 C   0  0  0  0  0  0  0  0  0  0  0  0
   -2.7070   14.8050   -2.2930 C   0  0  0  0  0  0  0  0  0  0  0  0
   -1.9040   12.6980   -2.5790 C   0  0  0  0  0  0  0  0  0  0  0  0
   -3.0240   16.0610   -2.1810 O   0  0  0  0  0  0  0  0  0  0  0  0
   -2.9630   12.4620   -1.7570 C   0  0  0  0  0  0  0  0  0  0  0  0
   -3.7820   13.8460   -1.3680 S   0  0  0  0  0  0  0  0  0  0  0  0
   -3.2780   15.8270   -0.8550 C   0  0  0  0  0  0  0  0  0  0  0  0
   -2.1770   15.3870   -0.1130 C   0  0  0  0  0  0  0  0  0  0  0  0
   -4.5260   15.9540   -0.2680 C   0  0  0  0  0  0  0  0  0  0  0  0
   -2.3720   15.0720    1.2200 C   0  0  0  0  0  0  0  0  0  0  0  0
   -4.5880   15.6150    1.0630 C   0  0  0  0  0  0  0  0  0  0  0  0
   -0.8910   15.2390   -0.6570 C   0  0  0  0  0  0  0  0  0  0  0  0
   -3.5510   15.1890    1.7870 N   0  0  0  0  0  0  0  0  0  0  0  0
   -1.3900   14.6350    1.9720 N   0  0  0  0  0  0  0  0  0  0  0  0
    0.1370   14.7810    0.1350 C   0  0  0  0  0  0  0  0  0  0  0  0
   -0.1760   14.4910    1.4430 C   0  0  0  0  0  0  0  0  0  0  0  0
  1  2  1  0
  1  3  2  0
  4  1  1  1
  4  5  1  0
  4  6  1  0
  5  7  1  0
  6  8  1  0
  7  8  1  0
  6  9  1  1
  9 10  2  0
  9 11  1  0
 10 12  1  0
 11 13  2  0
 10 14  1  0
 13 14  1  0
 12 15  1  0
 15 16  1  0
 15 17  2  0
 16 18  2  0
 17 19  1  0
 16 20  1  0
 18 21  1  0
 19 21  2  0
 18 22  1  0
 20 23  2  0
 22 24  2  0
 23 24  1  0
M  END
