x0766_0_A-x1012_0_A
     RDKit          3D

 16 17  0  0  0  0  0  0  0  0999 V2000
    0.5050   12.4820   -2.7710 C   0  0  0  0  0  0  0  0  0  0  0  0
    0.0880   11.1940   -2.7340 O   0  0  0  0  0  0  0  0  0  0  0  0
    1.1600   12.9550   -1.8600 O   0  0  0  0  0  0  0  0  0  0  0  0
    0.0770   13.2370   -4.0250 C   0  0  2  0  0  0  0  0  0  0  0  0
    1.3070   13.7430   -4.8080 C   0  0  0  0  0  0  0  0  0  0  0  0
   -0.8030   14.4950   -3.8150 C   0  0  2  0  0  0  0  0  0  0  0  0
    1.3460   15.2730   -4.6970 C   0  0  0  0  0  0  0  0  0  0  0  0
    0.0860   15.7340   -3.9490 C   0  0  1  0  0  0  0  0  0  0  0  0
   -1.7180   14.5610   -2.6190 C   0  0  0  0  0  0  0  0  0  0  0  0
   -0.6970   16.8990   -4.5950 C   0  0  0  0  0  0  0  0  0  0  0  0
   -3.1000   14.6760   -2.6600 C   0  0  0  0  0  0  0  0  0  0  0  0
   -1.2690   14.5240   -1.2500 C   0  0  0  0  0  0  0  0  0  0  0  0
   -0.0230   18.0660   -4.7760 N   0  0  0  0  0  0  0  0  0  0  0  0
   -1.8870   16.8440   -4.9260 O   0  0  0  0  0  0  0  0  0  0  0  0
   -2.3010   14.6110   -0.3420 C   0  0  0  0  0  0  0  0  0  0  0  0
   -3.8200   14.7410   -1.1110 S   0  0  0  0  0  0  0  0  0  0  0  0
  1  2  1  0
  1  3  2  0
  4  1  1  1
  4  5  1  0
  4  6  1  0
  5  7  1  0
  6  8  1  0
  7  8  1  0
  6  9  1  1
  8 10  1  6
  9 11  2  0
  9 12  1  0
 10 13  1  0
 10 14  2  0
 12 15  2  0
 11 16  1  0
 15 16  1  0
M  END
