x0766_0_A-x0905_0_A
     RDKit          3D

 18 20  0  0  0  0  0  0  0  0999 V2000
    0.4290   12.3040   -2.2930 C   0  0  0  0  0  0  0  0  0  0  0  0
    0.2420   11.1560   -2.9730 O   0  0  0  0  0  0  0  0  0  0  0  0
    0.3380   12.3690   -1.0900 O   0  0  0  0  0  0  0  0  0  0  0  0
    0.7680   13.5490   -3.0430 C   0  0  1  0  0  0  0  0  0  0  0  0
    1.5960   13.4440   -4.3110 C   0  0  0  0  0  0  0  0  0  0  0  0
   -0.4150   14.3610   -3.5410 C   0  0  2  0  0  0  0  0  0  0  0  0
    1.5460   14.8980   -4.7780 C   0  0  0  0  0  0  0  0  0  0  0  0
    0.3580   15.5520   -4.0850 C   0  0  0  0  0  0  0  0  0  0  0  0
   -1.5170   14.7290   -2.5990 C   0  0  0  0  0  0  0  0  0  0  0  0
   -2.8680   14.8570   -3.1640 C   0  0  0  0  0  0  0  0  0  0  0  0
   -1.5190   14.9760   -1.2020 C   0  0  0  0  0  0  0  0  0  0  0  0
   -2.8220   15.4080   -0.4750 C   0  0  1  0  0  0  0  0  0  0  0  0
   -3.8670   15.2780   -1.8280 S   0  0  0  0  0  0  0  0  0  0  0  0
   -3.6620   14.6610    0.5540 C   0  0  0  0  0  0  0  0  0  0  0  0
   -5.5630   15.4760   -1.6340 C   0  0  0  0  0  0  0  0  0  0  0  0
   -5.0160   14.5300    0.5450 N   0  0  0  0  0  0  0  0  0  0  0  0
   -5.9080   15.0490   -0.4230 C   0  0  0  0  0  0  0  0  0  0  0  0
   -7.2380   15.0920   -0.0570 O   0  0  0  0  0  0  0  0  0  0  0  0
  1  2  1  0
  1  3  2  0
  4  1  1  6
  4  5  1  0
  4  6  1  0
  5  7  1  0
  6  8  1  0
  7  8  1  0
  6  9  1  1
  9 10  1  0
  9 11  2  0
 12 11  1  6
 10 13  2  0
 12 13  1  0
 12 14  1  0
 13 15  1  0
 14 16  2  0
 15 17  2  0
 16 17  1  0
 17 18  1  0
M  END
