x0766_1_B-x0228_0_B
     RDKit          3D

 28 31  0  0  0  0  0  0  0  0999 V2000
   -7.5660   26.0060  -13.5720 C   0  0  2  0  0  0  0  0  0  0  0  0
   -8.5200   26.8450  -14.2430 O   0  0  0  0  0  0  0  0  0  0  0  0
   -9.5940   26.0750  -14.7240 N   0  0  0  0  0  0  0  0  0  0  0  0
   -6.4310   25.7380  -14.4150 O   0  0  0  0  0  0  0  0  0  0  0  0
   -8.2070   24.7970  -13.1550 O   0  0  0  0  0  0  0  0  0  0  0  0
   -7.0320   26.6570  -12.2130 C   0  0  2  0  0  0  0  0  0  0  0  0
   -7.9960   26.4550  -11.0350 C   0  0  0  0  0  0  0  0  0  0  0  0
   -6.6960   28.1700  -11.9940 C   0  0  2  0  0  0  0  0  0  0  0  0
   -5.3700   25.6730  -13.6010 C   0  0  0  0  0  0  0  0  0  0  0  0
   -8.8900   27.6790  -11.0590 C   0  0  0  0  0  0  0  0  0  0  0  0
   -8.0070   28.8230  -11.5540 C   0  0  0  0  0  0  0  0  0  0  0  0
   -5.8750   28.9450  -12.9920 C   0  0  0  0  0  0  0  0  0  0  0  0
   -4.1640   26.2940  -13.9080 C   0  0  0  0  0  0  0  0  0  0  0  0
   -5.5750   24.9480  -12.4140 C   0  0  0  0  0  0  0  0  0  0  0  0
   -9.5630   24.9580  -15.5140 C   0  0  0  0  0  0  0  0  0  0  0  0
  -10.9030   26.3230  -14.4730 C   0  0  0  0  0  0  0  0  0  0  0  0
   -4.0310   26.9530  -15.0810 O   0  0  0  0  0  0  0  0  0  0  0  0
   -4.4910   29.0140  -12.9640 C   0  0  0  0  0  0  0  0  0  0  0  0
   -6.3820   29.7150  -14.0900 C   0  0  0  0  0  0  0  0  0  0  0  0
   -3.1700   26.2100  -13.0020 C   0  0  0  0  0  0  0  0  0  0  0  0
   -4.5620   24.8600  -11.5090 C   0  0  0  0  0  0  0  0  0  0  0  0
  -10.7990   24.5490  -15.7330 N   0  0  0  0  0  0  0  0  0  0  0  0
  -11.6460   25.4170  -15.0710 N   0  0  0  0  0  0  0  0  0  0  0  0
   -2.6940   27.0590  -15.5610 C   0  0  0  0  0  0  0  0  0  0  0  0
   -4.7190   24.0830  -10.2160 C   0  0  0  0  0  0  0  0  0  0  0  0
   -5.3940   30.3160  -14.8310 C   0  0  0  0  0  0  0  0  0  0  0  0
   -3.8410   29.9710  -14.2240 S   0  0  0  0  0  0  0  0  0  0  0  0
   -3.3940   25.5230  -11.8580 C   0  0  0  0  0  0  0  0  0  0  0  0
  1  2  1  0
  2  3  1  0
  1  4  1  0
  1  5  1  1
  1  6  1  0
  6  7  1  1
  6  8  1  0
  4  9  1  0
  7 10  1  0
  8 11  1  0
 10 11  1  0
  8 12  1  6
  9 13  2  0
  9 14  1  0
  3 15  1  0
  3 16  1  0
 13 17  1  0
 12 18  2  0
 12 19  1  0
 13 20  1  0
 14 21  2  0
 15 22  2  0
 16 23  2  0
 22 23  1  0
 17 24  1  0
 21 25  1  0
 19 26  2  0
 18 27  1  0
 26 27  1  0
 20 28  2  0
 21 28  1  0
M  END
