x0766_0_A-x0967_0_A
     RDKit          3D

 21 24  0  0  0  0  0  0  0  0999 V2000
    0.4880   12.3320   -2.3420 C   0  0  0  0  0  0  0  0  0  0  0  0
    0.3290   11.2320   -3.1040 O   0  0  0  0  0  0  0  0  0  0  0  0
    0.3540   12.3290   -1.1420 O   0  0  0  0  0  0  0  0  0  0  0  0
    0.8560   13.6050   -3.0380 C   0  0  1  0  0  0  0  0  0  0  0  0
    1.6140   13.5280   -4.3490 C   0  0  0  0  0  0  0  0  0  0  0  0
   -0.3360   14.4090   -3.5040 C   0  0  2  0  0  0  0  0  0  0  0  0
    1.5720   15.0100   -4.7380 C   0  0  0  0  0  0  0  0  0  0  0  0
    0.4060   15.6410   -3.9710 C   0  0  0  0  0  0  0  0  0  0  0  0
   -1.4710   14.5420   -2.5530 C   0  0  0  0  0  0  0  0  0  0  0  0
   -2.8000   14.4880   -3.2190 C   0  0  0  0  0  0  0  0  0  0  0  0
   -1.5680   14.7100   -1.1490 C   0  0  0  0  0  0  0  0  0  0  0  0
   -2.9380   14.7710   -0.6020 C   0  0  0  0  0  0  0  0  0  0  0  0
   -3.9460   14.6480   -1.9520 S   0  0  0  0  0  0  0  0  0  0  0  0
   -5.5960   14.6860   -1.8630 N   0  0  0  0  0  0  0  0  0  0  0  0
   -3.5520   14.8790    0.5830 C   0  0  0  0  0  0  0  0  0  0  0  0
   -5.9800   14.7700   -0.6260 C   0  0  0  0  0  0  0  0  0  0  0  0
   -5.0470   14.8310    0.6390 C   0  0  0  0  0  0  0  0  0  0  0  0
   -7.3440   14.8020   -0.4390 N   0  0  0  0  0  0  0  0  0  0  0  0
   -5.7140   14.8050    1.8020 C   0  0  0  0  0  0  0  0  0  0  0  0
   -7.1640   14.7060    1.9060 C   0  0  0  0  0  0  0  0  0  0  0  0
   -7.9130   14.7060    0.7970 C   0  0  0  0  0  0  0  0  0  0  0  0
  1  2  1  0
  1  3  2  0
  4  1  1  6
  4  5  1  0
  4  6  1  0
  5  7  1  0
  6  8  1  0
  7  8  1  0
  6  9  1  1
  9 10  1  0
  9 11  2  0
 11 12  1  0
 10 13  2  0
 12 13  1  0
 13 14  1  0
 12 15  2  0
 14 16  2  0
 15 17  1  0
 16 17  1  0
 16 18  1  0
 17 19  2  0
 19 20  1  0
 18 21  1  0
 20 21  2  0
M  END
