x0766_0_A-x0253_0_A
     RDKit          3D

 24 26  0  0  0  0  0  0  0  0999 V2000
    0.6430   12.4880   -3.2110 C   0  0  0  0  0  0  0  0  0  0  0  0
    1.8250   12.7780   -2.4690 O   0  0  0  0  0  0  0  0  0  0  0  0
   -0.1140   11.6760   -2.4040 O   0  0  0  0  0  0  0  0  0  0  0  0
    0.9850   11.7110   -4.4030 C   0  0  0  0  0  0  0  0  0  0  0  0
    0.0060   13.7130   -3.7780 C   0  0  2  0  0  0  0  0  0  0  0  0
    0.2830   11.9440   -5.6190 N   0  0  0  0  0  0  0  0  0  0  0  0
    0.8120   14.2120   -4.9980 C   0  0  0  0  0  0  0  0  0  0  0  0
   -0.1080   14.8620   -2.8190 C   0  0  1  0  0  0  0  0  0  0  0  0
    1.0350   11.6770   -6.7080 C   0  0  0  0  0  0  0  0  0  0  0  0
    1.3300   15.5650   -4.5840 C   0  0  0  0  0  0  0  0  0  0  0  0
    0.1910   16.0660   -3.7160 C   0  0  0  0  0  0  0  0  0  0  0  0
   -1.4170   14.8090   -2.0690 C   0  0  0  0  0  0  0  0  0  0  0  0
    2.1430   12.1580   -6.7770 O   0  0  0  0  0  0  0  0  0  0  0  0
   -2.6850   14.8510   -2.6390 C   0  0  0  0  0  0  0  0  0  0  0  0
   -1.5130   14.7050   -0.6430 C   0  0  0  0  0  0  0  0  0  0  0  0
    0.4530   10.7420   -7.6980 C   0  0  0  0  0  0  0  0  0  0  0  0
   -2.8090   14.6780   -0.1890 C   0  0  0  0  0  0  0  0  0  0  0  0
   -3.9310   14.7750   -1.4700 S   0  0  0  0  0  0  0  0  0  0  0  0
   -0.5130    9.8220   -7.2870 C   0  0  0  0  0  0  0  0  0  0  0  0
    0.8580   10.7650   -9.0390 C   0  0  0  0  0  0  0  0  0  0  0  0
   -1.0780    8.9290   -8.1990 C   0  0  0  0  0  0  0  0  0  0  0  0
    0.3010    9.8760   -9.9550 C   0  0  0  0  0  0  0  0  0  0  0  0
   -2.1170    7.9490   -7.7430 C   0  0  0  0  0  0  0  0  0  0  0  0
   -0.6650    8.9610   -9.5370 C   0  0  0  0  0  0  0  0  0  0  0  0
  1  2  1  0
  1  3  1  0
  1  4  1  0
  5  1  1  1
  4  6  1  0
  5  7  1  0
  5  8  1  0
  6  9  1  0
  7 10  1  0
  8 11  1  0
 10 11  1  0
  8 12  1  6
  9 13  2  0
 12 14  2  0
 12 15  1  0
  9 16  1  0
 15 17  2  0
 14 18  1  0
 17 18  1  0
 16 19  2  0
 16 20  1  0
 19 21  1  0
 20 22  2  0
 21 23  1  0
 21 24  2  0
 22 24  1  0
M  END
