x0766_0_A-x0967_0_A
     RDKit          3D

 21 24  0  0  0  0  0  0  0  0999 V2000
    0.4820   12.3170   -2.3550 C   0  0  0  0  0  0  0  0  0  0  0  0
    0.3180   11.2180   -3.1160 O   0  0  0  0  0  0  0  0  0  0  0  0
    0.3600   12.3160   -1.1550 O   0  0  0  0  0  0  0  0  0  0  0  0
    0.8490   13.5930   -3.0520 C   0  0  1  0  0  0  0  0  0  0  0  0
    1.6160   13.5190   -4.3570 C   0  0  0  0  0  0  0  0  0  0  0  0
   -0.3470   14.3970   -3.5160 C   0  0  2  0  0  0  0  0  0  0  0  0
    1.5770   15.0030   -4.7370 C   0  0  0  0  0  0  0  0  0  0  0  0
    0.4070   15.6280   -3.9760 C   0  0  0  0  0  0  0  0  0  0  0  0
   -1.4850   14.5360   -2.5640 C   0  0  0  0  0  0  0  0  0  0  0  0
   -2.8170   14.4790   -3.2260 C   0  0  0  0  0  0  0  0  0  0  0  0
   -1.5870   14.7080   -1.1580 C   0  0  0  0  0  0  0  0  0  0  0  0
   -2.9580   14.7690   -0.6080 C   0  0  0  0  0  0  0  0  0  0  0  0
   -3.9650   14.6400   -1.9590 S   0  0  0  0  0  0  0  0  0  0  0  0
   -5.6170   14.6760   -1.8680 N   0  0  0  0  0  0  0  0  0  0  0  0
   -3.5750   14.8810    0.5770 C   0  0  0  0  0  0  0  0  0  0  0  0
   -6.0030   14.7660   -0.6330 C   0  0  0  0  0  0  0  0  0  0  0  0
   -5.0720   14.8290    0.6350 C   0  0  0  0  0  0  0  0  0  0  0  0
   -7.3690   14.7970   -0.4430 N   0  0  0  0  0  0  0  0  0  0  0  0
   -5.7400   14.8000    1.7980 C   0  0  0  0  0  0  0  0  0  0  0  0
   -7.1920   14.6990    1.9030 C   0  0  0  0  0  0  0  0  0  0  0  0
   -7.9380   14.6980    0.7900 C   0  0  0  0  0  0  0  0  0  0  0  0
  1  2  1  0
  1  3  2  0
  4  1  1  6
  4  5  1  0
  4  6  1  0
  5  7  1  0
  6  8  1  0
  7  8  1  0
  6  9  1  1
  9 10  1  0
  9 11  2  0
 11 12  1  0
 10 13  2  0
 12 13  1  0
 13 14  1  0
 12 15  2  0
 14 16  2  0
 15 17  1  0
 16 17  1  0
 16 18  1  0
 17 19  2  0
 19 20  1  0
 18 21  1  0
 20 21  2  0
M  END
