x0792_0_A-x0598_0_A
     RDKit          3D

 14 14  0  0  0  0  0  0  0  0999 V2000
    4.2260   23.9160   17.4330 C   0  0  0  0  0  0  0  0  0  0  0  0
    4.2340   23.6680   18.8220 O   0  0  0  0  0  0  0  0  0  0  0  0
    5.1090   25.0910   17.0990 C   0  0  2  0  0  0  0  0  0  0  0  0
    6.3420   24.9700   16.1940 C   0  0  0  0  0  0  0  0  0  0  0  0
    5.4980   25.7100   18.4070 C   0  0  0  0  0  0  0  0  0  0  0  0
    5.7040   27.0990   18.1400 N   0  0  0  0  0  0  0  0  0  0  0  0
    7.3810   26.0260   16.5300 C   0  0  2  0  0  0  0  0  0  0  0  0
    8.5230   25.5120   17.4310 C   0  0  0  0  0  0  0  0  0  0  0  0
    6.6590   27.2800   17.0470 C   0  0  0  0  0  0  0  0  0  0  0  0
    9.0270   24.2410   16.8630 N   0  0  0  0  0  0  0  0  0  0  0  0
   10.6620   24.0030   16.4500 S   0  0  0  0  0  0  0  0  0  0  0  0
   11.0770   22.4400   17.2000 C   0  0  0  0  0  0  0  0  0  0  0  0
   10.8140   23.7880   15.0350 O   0  0  0  0  0  0  0  0  0  0  0  0
   11.3720   25.0830   17.0200 O   0  0  0  0  0  0  0  0  0  0  0  0
  1  2  1  0
  3  1  1  1
  3  4  1  0
  3  5  1  0
  5  6  1  0
  4  7  1  0
  7  8  1  1
  6  9  1  0
  7  9  1  0
  8 10  1  0
 11 10  1  0
 11 12  1  0
 11 13  2  0
 11 14  2  0
M  END
