x0792_0_A_α-x0814_0_B_α
     RDKit          3D

 28 29  0  0  0  0  0  0  0  0999 V2000
    9.9920   22.3470   18.5250 C   0  0  0  0  0  0  0  0  0  0  0  0
   10.0580   21.4160   17.3940 O   0  0  0  0  0  0  0  0  0  0  0  0
   10.4910   20.0530   17.7160 C   0  0  0  0  0  0  0  0  0  0  0  0
    8.8080   23.3940   18.5560 C   0  0  1  0  0  0  0  0  0  0  0  0
    8.9880   24.4620   19.6200 C   0  0  0  0  0  0  0  0  0  0  0  0
    8.5040   24.1460   17.2350 C   0  0  0  0  0  0  0  0  0  0  0  0
   11.4230   19.4140   16.6280 C   0  0  0  0  0  0  0  0  0  0  0  0
    7.5090   25.2280   17.1720 N   0  0  0  0  0  0  0  0  0  0  0  0
    8.7390   25.8780   19.0470 C   0  0  1  0  0  0  0  0  0  0  0  0
    9.8260   26.2430   18.0420 C   0  0  0  0  0  0  0  0  0  0  0  0
   11.3560   17.8400   16.5360 C   0  0  0  0  0  0  0  0  0  0  0  0
    7.4080   26.0290   18.3550 C   0  0  0  0  0  0  0  0  0  0  0  0
   12.4170   17.1110   15.6350 C   0  0  0  0  0  0  0  0  0  0  0  0
   11.8490   16.0060   14.6890 C   0  0  0  0  0  0  0  0  0  0  0  0
   12.7060   14.7680   14.4910 N   0  0  0  0  0  0  0  0  0  0  0  0
   12.2000   13.3800   13.9170 S   0  0  2  0  0  0  0  0  0  0  0  0
   11.3130   13.1530   12.7830 O   0  0  0  0  0  0  0  0  0  0  0  0
   11.6940   12.3550   15.2770 C   0  0  0  0  0  0  0  0  0  0  0  0
   13.5670   12.5920   13.3470 N   0  0  0  0  0  0  0  0  0  0  0  0
   13.4490   11.3820   12.5000 C   0  0  0  0  0  0  0  0  0  0  0  0
   14.7990   13.3530   13.2570 C   0  0  1  0  0  0  0  0  0  0  0  0
   15.8940   12.6740   14.0850 C   0  0  0  0  0  0  0  0  0  0  0  0
   14.0000   11.5380   11.0860 C   0  0  0  0  0  0  0  0  0  0  0  0
   15.1570   13.5920   11.8090 C   0  0  1  0  0  0  0  0  0  0  0  0
   16.3260   14.5540   11.7450 C   0  0  0  0  0  0  0  0  0  0  0  0
   15.3480   12.2310   11.1450 C   0  0  0  0  0  0  0  0  0  0  0  0
   17.5540   13.9970   11.5880 N   0  0  0  0  0  0  0  0  0  0  0  0
   16.2010   15.7680   11.8440 O   0  0  0  0  0  0  0  0  0  0  0  0
  1  2  1  0
  2  3  1  0
  4  1  1  6
  4  5  1  0
  4  6  1  0
  3  7  1  0
  6  8  1  0
  5  9  1  0
  9 10  1  6
  7 11  1  0
  8 12  1  0
  9 12  1  0
 11 13  1  0
 13 14  1  0
 14 15  1  0
 15 16  2  0
 16 17  2  0
 16 18  1  1
 16 19  1  0
 19 20  1  0
 19 21  1  0
 21 22  1  6
 20 23  1  0
 21 24  1  0
 24 25  1  1
 23 26  1  0
 24 26  1  0
 25 27  1  0
 25 28  2  0
M  END
