x0797_0_B-x0417_0_B
     RDKit          3D

 23 25  0  0  0  0  0  0  0  0999 V2000
   -8.0430   30.1680  -14.8470 C   0  0  0  0  0  0  0  0  0  0  0  0
   -6.8810   29.2660  -14.3900 C   0  0  1  0  0  0  0  0  0  0  0  0
   -5.6090   29.9550  -14.9060 C   0  0  0  0  0  0  0  0  0  0  0  0
   -6.9060   29.0390  -12.8700 C   0  0  2  0  0  0  0  0  0  0  0  0
   -5.5420   28.5740  -12.3050 C   0  0  0  0  0  0  0  0  0  0  0  0
   -4.2580   29.5110  -14.3430 C   0  0  1  0  0  0  0  0  0  0  0  0
   -7.9710   27.9910  -12.4070 C   0  0  1  0  0  0  0  0  0  0  0  0
   -4.3110   29.2880  -12.8290 C   0  0  2  0  0  0  0  0  0  0  0  0
   -7.3410   26.5940  -12.4020 C   0  0  2  0  0  0  0  0  0  0  0  0
   -8.4790   28.1170  -10.9940 C   0  0  0  0  0  0  0  0  0  0  0  0
   -3.5880   28.3210  -15.0510 C   0  0  0  0  0  0  0  0  0  0  0  0
   -3.3340   30.6410  -14.7720 C   0  0  0  0  0  0  0  0  0  0  0  0
   -7.3560   25.9300  -13.7560 C   0  0  0  0  0  0  0  0  0  0  0  0
   -3.2820   28.4920  -12.4850 F   0  0  0  0  0  0  0  0  0  0  0  0
   -3.3370   31.7420  -14.2930 O   0  0  0  0  0  0  0  0  0  0  0  0
   -8.3070   26.8620  -10.3270 O   0  0  0  0  0  0  0  0  0  0  0  0
   -8.1510   25.8790  -11.3490 C   0  0  0  0  0  0  0  0  0  0  0  0
   -2.3980   30.2980  -15.9140 C   0  0  1  0  0  0  0  0  0  0  0  0
   -2.8180   28.8740  -16.2540 C   0  0  0  0  0  0  0  0  0  0  0  0
   -8.3060   26.4100  -14.5860 O   0  0  0  0  0  0  0  0  0  0  0  0
   -6.6090   25.0510  -14.1320 O   0  0  0  0  0  0  0  0  0  0  0  0
   -2.6730   31.2660  -16.9910 N   0  0  0  0  0  0  0  0  0  0  0  0
   -1.4600   31.7260  -17.6510 C   0  0  0  0  0  0  0  0  0  0  0  0
  2  1  1  1
  2  3  1  0
  2  4  1  0
  4  5  1  6
  6  3  1  6
  4  7  1  0
  5  8  1  0
  6  8  1  0
  7  9  1  0
  7 10  1  1
  6 11  1  0
  6 12  1  0
  9 13  1  6
  8 14  1  6
 12 15  2  0
 10 16  1  0
  9 17  1  0
 16 17  1  0
 12 18  1  0
 11 19  1  0
 18 19  1  0
 13 20  1  0
 13 21  2  0
 18 22  1  6
 22 23  1  0
M  END
