x0792_0_A-x0822_0_A
     RDKit          3D

 24 26  0  0  0  0  0  0  0  0999 V2000
    9.6040   22.0470   18.4870 C   0  0  0  0  0  0  0  0  0  0  0  0
    9.7050   21.2360   17.3360 O   0  0  0  0  0  0  0  0  0  0  0  0
    8.9950   23.4720   18.3390 C   0  0  1  0  0  0  0  0  0  0  0  0
    8.7160   24.1150   16.9980 C   0  0  0  0  0  0  0  0  0  0  0  0
    7.6920   23.4890   19.0330 C   0  0  0  0  0  0  0  0  0  0  0  0
    6.7130   24.2680   18.2860 N   0  0  0  0  0  0  0  0  0  0  0  0
    8.1380   25.5250   17.1290 C   0  0  1  0  0  0  0  0  0  0  0  0
    7.2220   25.9450   16.0220 C   0  0  0  0  0  0  0  0  0  0  0  0
    7.2640   25.5690   18.3180 C   0  0  0  0  0  0  0  0  0  0  0  0
    5.8030   26.2070   16.4780 C   0  0  1  0  0  0  0  0  0  0  0  0
    4.6330   26.4790   15.5510 C   0  0  0  0  0  0  0  0  0  0  0  0
    5.4510   25.1060   17.3040 O   0  0  0  0  0  0  0  0  0  0  0  0
    3.6000   27.0550   16.5530 C   0  0  2  0  0  0  0  0  0  0  0  0
    4.7070   25.6710   18.3710 C   0  0  0  0  0  0  0  0  0  0  0  0
    3.3870   26.1780   17.8150 C   0  0  2  0  0  0  0  0  0  0  0  0
    2.2440   27.4680   16.0570 C   0  0  0  0  0  0  0  0  0  0  0  0
    2.5400   25.0200   17.5440 N   0  0  0  0  0  0  0  0  0  0  0  0
    1.7910   28.7710   16.2510 C   0  0  0  0  0  0  0  0  0  0  0  0
    1.4140   26.5400   15.4120 C   0  0  0  0  0  0  0  0  0  0  0  0
    0.5270   29.1500   15.8150 C   0  0  0  0  0  0  0  0  0  0  0  0
    0.1430   26.9150   14.9780 C   0  0  0  0  0  0  0  0  0  0  0  0
   -0.5700   25.9170   14.3750 O   0  0  0  0  0  0  0  0  0  0  0  0
   -0.2990   28.2200   15.1780 C   0  0  0  0  0  0  0  0  0  0  0  0
   -1.9620   26.1540   14.1980 C   0  0  0  0  0  0  0  0  0  0  0  0
  1  2  1  0
  3  1  1  6
  3  4  1  0
  3  5  1  0
  5  6  1  0
  4  7  1  0
  7  8  1  6
  6  9  1  0
  7  9  1  0
 10  8  1  6
 10 11  1  0
 10 12  1  0
 11 13  1  0
 12 14  1  0
 13 15  1  0
 14 15  1  0
 13 16  1  6
 15 17  1  6
 16 18  2  0
 16 19  1  0
 18 20  1  0
 19 21  2  0
 21 22  1  0
 20 23  2  0
 21 23  1  0
 22 24  1  0
M  END
