x0797_0_B_α-x0766_1_B_α
     RDKit          3D

 15 16  0  0  0  0  0  0  0  0999 V2000
   -7.8800   30.1210  -14.7420 C   0  0  0  0  0  0  0  0  0  0  0  0
   -6.6280   29.6850  -14.0340 C   0  0  0  0  0  0  0  0  0  0  0  0
   -5.4200   30.2750  -14.4480 C   0  0  0  0  0  0  0  0  0  0  0  0
   -6.5890   28.7330  -13.0020 C   0  0  0  0  0  0  0  0  0  0  0  0
   -5.3520   28.4140  -12.4140 C   0  0  0  0  0  0  0  0  0  0  0  0
   -4.2040   29.9360  -13.8550 C   0  0  0  0  0  0  0  0  0  0  0  0
   -7.7540   27.9740  -12.4420 C   0  0  1  0  0  0  0  0  0  0  0  0
   -4.1750   29.0030  -12.8330 C   0  0  0  0  0  0  0  0  0  0  0  0
   -7.4290   26.5010  -12.4090 C   0  0  2  0  0  0  0  0  0  0  0  0
   -8.1600   28.2820  -11.0220 C   0  0  0  0  0  0  0  0  0  0  0  0
   -7.5070   25.8290  -13.7560 C   0  0  0  0  0  0  0  0  0  0  0  0
   -8.3550   27.0140  -10.3580 O   0  0  0  0  0  0  0  0  0  0  0  0
   -8.3820   25.9900  -11.3640 C   0  0  0  0  0  0  0  0  0  0  0  0
   -8.4630   26.3020  -14.5790 O   0  0  0  0  0  0  0  0  0  0  0  0
   -6.7750   24.9370  -14.1370 O   0  0  0  0  0  0  0  0  0  0  0  0
  1  2  1  0
  2  3  2  0
  2  4  1  0
  4  5  2  0
  3  6  1  0
  7  4  1  1
  5  8  1  0
  6  8  2  0
  7  9  1  0
  7 10  1  0
  9 11  1  6
 10 12  1  0
  9 13  1  0
 12 13  1  0
 11 14  1  0
 11 15  2  0
M  END
