x0792_0_A_α-x0796_0_B_α
     RDKit          3D

 30 33  0  0  0  0  0  0  0  0999 V2000
    9.4240   22.5570   18.1820 C   0  0  0  0  0  0  0  0  0  0  0  0
    9.9980   21.5220   17.3190 O   0  0  0  0  0  0  0  0  0  0  0  0
   10.3980   20.2340   17.8540 C   0  0  0  0  0  0  0  0  0  0  0  0
    8.4630   23.6600   17.5610 C   0  0  2  0  0  0  0  0  0  0  0  0
    8.9780   25.0180   17.2670 C   0  0  0  0  0  0  0  0  0  0  0  0
    7.2180   24.0180   18.2800 C   0  0  0  0  0  0  0  0  0  0  0  0
   11.3110   19.5010   16.8290 C   0  0  0  0  0  0  0  0  0  0  0  0
    6.0940   24.3820   17.3710 N   0  0  0  0  0  0  0  0  0  0  0  0
    7.8170   25.8940   16.6940 C   0  0  2  0  0  0  0  0  0  0  0  0
    7.4710   26.9470   17.7230 C   0  0  0  0  0  0  0  0  0  0  0  0
   11.1560   17.9490   16.8440 C   0  0  0  0  0  0  0  0  0  0  0  0
    6.5090   25.1860   16.2820 C   0  0  0  0  0  0  0  0  0  0  0  0
   11.5550   17.1800   15.5440 C   0  0  0  0  0  0  0  0  0  0  0  0
   11.8270   15.6610   15.7710 C   0  0  0  0  0  0  0  0  0  0  0  0
   12.2860   14.8530   14.5010 C   0  0  0  0  0  0  0  0  0  0  0  0
   11.9860   13.3880   14.4580 N   0  0  0  0  0  0  0  0  0  0  0  0
   12.7740   12.3920   13.6190 C   0  0  2  0  0  0  0  0  0  0  0  0
   11.8100   12.8070   15.8040 C   0  0  0  0  0  0  0  0  0  0  0  0
   13.9820   12.9500   12.8480 C   0  0  0  0  0  0  0  0  0  0  0  0
   11.9250   11.5580   12.5690 C   0  0  0  0  0  0  0  0  0  0  0  0
   13.2020   11.3150   14.6300 C   0  0  0  0  0  0  0  0  0  0  0  0
   12.0960   11.3330   15.6650 C   0  0  0  0  0  0  0  0  0  0  0  0
   10.6930   11.4450   12.5460 O   0  0  0  0  0  0  0  0  0  0  0  0
   12.6680   10.8710   11.6160 N   0  0  0  0  0  0  0  0  0  0  0  0
   14.7680   11.7990   12.3020 C   0  0  0  0  0  0  0  0  0  0  0  0
   14.0560   10.7780   11.6890 C   0  0  0  0  0  0  0  0  0  0  0  0
   16.1590   11.7200   12.3960 C   0  0  0  0  0  0  0  0  0  0  0  0
   16.8230   10.6100   11.8740 C   0  0  0  0  0  0  0  0  0  0  0  0
   14.7110    9.6710   11.1620 C   0  0  0  0  0  0  0  0  0  0  0  0
   16.1010    9.5880   11.2580 C   0  0  0  0  0  0  0  0  0  0  0  0
  1  2  1  0
  2  3  1  0
  4  1  1  1
  4  5  1  0
  4  6  1  0
  3  7  1  0
  6  8  1  0
  5  9  1  0
  9 10  1  1
  7 11  1  0
  8 12  1  0
  9 12  1  0
 11 13  1  0
 13 14  1  0
 14 15  1  0
 15 16  1  0
 16 17  1  0
 16 18  1  0
 17 19  1  6
 17 20  1  0
 17 21  1  0
 18 22  1  0
 21 22  1  0
 20 23  2  0
 20 24  1  0
 19 25  1  0
 24 26  1  0
 25 26  2  0
 25 27  1  0
 27 28  2  0
 26 29  1  0
 28 30  1  0
 29 30  2  0
M  END
