x0797_0_B-x0918_1_B
     RDKit          3D

 22 24  0  0  0  0  0  0  0  0999 V2000
   -8.0190   29.9690  -14.8380 C   0  0  0  0  0  0  0  0  0  0  0  0
   -6.8110   29.6040  -14.0180 C   0  0  0  0  0  0  0  0  0  0  0  0
   -5.5670   30.1390  -14.4050 C   0  0  0  0  0  0  0  0  0  0  0  0
   -6.8900   28.7530  -12.8920 C   0  0  0  0  0  0  0  0  0  0  0  0
   -5.6950   28.4820  -12.1870 C   0  0  0  0  0  0  0  0  0  0  0  0
   -4.4050   29.8480  -13.6970 C   0  0  0  0  0  0  0  0  0  0  0  0
   -8.2240   28.1300  -12.4410 C   0  0  1  0  0  0  0  0  0  0  0  0
   -4.4720   29.0210  -12.5860 C   0  0  0  0  0  0  0  0  0  0  0  0
   -8.3860   26.6400  -12.8000 C   0  0  1  0  0  0  0  0  0  0  0  0
   -8.3250   28.1370  -10.9390 C   0  0  0  0  0  0  0  0  0  0  0  0
   -7.2610   26.2800  -13.6980 C   0  0  0  0  0  0  0  0  0  0  0  0
   -8.0170   26.8230  -10.4580 O   0  0  0  0  0  0  0  0  0  0  0  0
   -8.4270   25.8980  -11.4710 C   0  0  0  0  0  0  0  0  0  0  0  0
   -7.5270   26.0890  -15.0000 O   0  0  0  0  0  0  0  0  0  0  0  0
   -6.1470   26.2660  -13.0750 N   0  0  0  0  0  0  0  0  0  0  0  0
   -4.8220   26.1200  -13.4340 C   0  0  0  0  0  0  0  0  0  0  0  0
   -3.9650   25.7410  -12.4150 C   0  0  0  0  0  0  0  0  0  0  0  0
   -4.4220   26.3840  -14.6960 N   0  0  0  0  0  0  0  0  0  0  0  0
   -2.6140   25.6420  -12.6780 C   0  0  0  0  0  0  0  0  0  0  0  0
   -3.1010   26.2850  -14.9270 C   0  0  0  0  0  0  0  0  0  0  0  0
   -1.7160   25.2690  -11.6810 N   0  0  0  0  0  0  0  0  0  0  0  0
   -2.1770   25.9330  -13.9640 C   0  0  0  0  0  0  0  0  0  0  0  0
  1  2  1  0
  2  3  2  0
  2  4  1  0
  4  5  2  0
  3  6  1  0
  7  4  1  1
  5  8  1  0
  6  8  2  0
  7  9  1  0
  7 10  1  0
  9 11  1  6
 10 12  1  0
  9 13  1  0
 12 13  1  0
 11 14  1  0
 11 15  2  3
 15 16  1  0
 16 17  2  0
 16 18  1  0
 17 19  1  0
 18 20  2  0
 19 21  1  0
 19 22  2  0
 20 22  1  0
M  END
