x0796_0_B-x0158_0_B
     RDKit          3D

 22 24  0  0  0  0  0  0  0  0999 V2000
   10.6430   11.8830   12.4460 O   0  0  0  0  0  0  0  0  0  0  0  0
   11.9250   11.4220   12.7680 C   0  0  0  0  0  0  0  0  0  0  0  0
   12.5790   10.9280   11.5600 N   0  0  0  0  0  0  0  0  0  0  0  0
   11.6210   10.2870   13.5460 O   0  0  0  0  0  0  0  0  0  0  0  0
   12.8640   12.3600   13.6520 C   0  0  1  0  0  0  0  0  0  0  0  0
   13.9760   10.7580   11.6360 C   0  0  0  0  0  0  0  0  0  0  0  0
   14.1020   12.9380   12.8320 C   0  0  1  0  0  0  0  0  0  0  0  0
   12.1170   13.4230   14.3950 N   0  0  0  0  0  0  0  0  0  0  0  0
   13.3230   11.4350   14.7960 C   0  0  0  0  0  0  0  0  0  0  0  0
   15.1250   13.8380   13.6080 C   0  0  0  0  0  0  0  0  0  0  0  0
   14.7780   11.7160   12.2500 C   0  0  0  0  0  0  0  0  0  0  0  0
   12.1750   11.5270   15.7730 C   0  0  0  0  0  0  0  0  0  0  0  0
   11.9500   13.0170   15.7970 C   0  0  0  0  0  0  0  0  0  0  0  0
   14.5750    9.6120   11.0970 C   0  0  0  0  0  0  0  0  0  0  0  0
   15.5790   15.2680   13.2560 C   0  0  0  0  0  0  0  0  0  0  0  0
   16.1670   11.5170   12.3190 C   0  0  0  0  0  0  0  0  0  0  0  0
   15.9570    9.4180   11.1710 C   0  0  0  0  0  0  0  0  0  0  0  0
   15.6220   15.6290   11.9390 O   0  0  0  0  0  0  0  0  0  0  0  0
   15.9030   16.0360   14.1480 O   0  0  0  0  0  0  0  0  0  0  0  0
   16.7520   10.3760   11.7840 C   0  0  0  0  0  0  0  0  0  0  0  0
   15.8380   17.0430   11.6710 C   0  0  0  0  0  0  0  0  0  0  0  0
   17.2860   17.3690   11.3590 C   0  0  0  0  0  0  0  0  0  0  0  0
  2  1  1  0
  2  3  1  0
  2  4  1  0
  2  5  1  0
  3  6  1  0
  5  7  1  0
  5  8  1  0
  5  9  1  1
  7 10  1  1
  6 11  2  0
  7 11  1  0
  9 12  1  0
  8 13  1  0
 12 13  1  0
  6 14  1  0
 10 15  1  0
 11 16  1  0
 14 17  2  0
 15 18  1  0
 15 19  2  0
 16 20  2  0
 17 20  1  0
 18 21  1  0
 21 22  1  0
M  END
