x0792_0_A-x0598_0_A
     RDKit          3D

 14 14  0  0  0  0  0  0  0  0999 V2000
    4.2240   23.9140   17.4320 C   0  0  0  0  0  0  0  0  0  0  0  0
    4.2200   23.6610   18.8220 O   0  0  0  0  0  0  0  0  0  0  0  0
    5.1080   25.0850   17.1000 C   0  0  2  0  0  0  0  0  0  0  0  0
    6.3430   24.9700   16.1900 C   0  0  0  0  0  0  0  0  0  0  0  0
    5.4990   25.7050   18.4090 C   0  0  0  0  0  0  0  0  0  0  0  0
    5.7030   27.0930   18.1380 N   0  0  0  0  0  0  0  0  0  0  0  0
    7.3820   26.0240   16.5290 C   0  0  2  0  0  0  0  0  0  0  0  0
    8.5220   25.5060   17.4280 C   0  0  0  0  0  0  0  0  0  0  0  0
    6.6570   27.2750   17.0440 C   0  0  0  0  0  0  0  0  0  0  0  0
    9.0270   24.2380   16.8590 N   0  0  0  0  0  0  0  0  0  0  0  0
   10.6630   24.0000   16.4460 S   0  0  0  0  0  0  0  0  0  0  0  0
   11.0780   22.4370   17.2020 C   0  0  0  0  0  0  0  0  0  0  0  0
   10.8130   23.7790   15.0310 O   0  0  0  0  0  0  0  0  0  0  0  0
   11.3660   25.0830   17.0100 O   0  0  0  0  0  0  0  0  0  0  0  0
  1  2  1  0
  3  1  1  1
  3  4  1  0
  3  5  1  0
  5  6  1  0
  4  7  1  0
  7  8  1  1
  6  9  1  0
  7  9  1  0
  8 10  1  0
 11 10  1  0
 11 12  1  0
 11 13  2  0
 11 14  2  0
M  END
