x0797_0_B_α-5cb5_O_0_O_β
     RDKit          3D

 30 31  0  0  0  0  0  0  0  0999 V2000
   -7.8880   29.9920  -14.7380 C   0  0  0  0  0  0  0  0  0  0  0  0
   -6.6360   29.5740  -14.0130 C   0  0  0  0  0  0  0  0  0  0  0  0
   -5.4220   30.1220  -14.4600 C   0  0  0  0  0  0  0  0  0  0  0  0
   -6.6340   28.6700  -12.9260 C   0  0  0  0  0  0  0  0  0  0  0  0
   -5.4010   28.3640  -12.3290 C   0  0  0  0  0  0  0  0  0  0  0  0
   -4.2150   29.7970  -13.8530 C   0  0  0  0  0  0  0  0  0  0  0  0
   -7.9090   28.0400  -12.4100 C   0  0  1  0  0  0  0  0  0  0  0  0
   -4.2110   28.9160  -12.7830 C   0  0  0  0  0  0  0  0  0  0  0  0
   -8.2290   26.5580  -12.6440 C   0  0  1  0  0  0  0  0  0  0  0  0
   -8.1190   28.1860  -10.9280 C   0  0  0  0  0  0  0  0  0  0  0  0
   -7.3090   25.7730  -13.5660 C   0  0  0  0  0  0  0  0  0  0  0  0
   -7.7830   26.9200  -10.3440 O   0  0  0  0  0  0  0  0  0  0  0  0
   -8.2320   25.9220  -11.2610 C   0  0  0  0  0  0  0  0  0  0  0  0
   -7.7260   25.7890  -14.8400 O   0  0  0  0  0  0  0  0  0  0  0  0
   -6.2280   25.1490  -13.1730 N   0  0  0  0  0  0  0  0  0  0  0  0
   -5.6790   25.0930  -11.7990 C   0  0  0  0  0  0  0  0  0  0  0  0
   -5.3540   23.6460  -11.3110 C   0  0  0  0  0  0  0  0  0  0  0  0
   -4.6680   23.6060   -9.9160 C   0  0  0  0  0  0  0  0  0  0  0  0
   -4.0560   22.2790   -9.4010 C   0  0  0  0  0  0  0  0  0  0  0  0
   -3.0400   22.5460   -8.2570 C   0  0  0  0  0  0  0  0  0  0  0  0
   -2.4860   21.2920   -7.5580 C   0  0  0  0  0  0  0  0  0  0  0  0
   -1.6780   20.5040   -8.4280 O   0  0  0  0  0  0  0  0  0  0  0  0
   -0.2630   19.9360   -7.9070 P   0  0  2  0  0  0  0  0  0  0  0  0
   -0.4210   19.2270   -6.5070 O   0  0  0  0  0  0  0  0  0  0  0  0
    0.8330   20.9440   -7.8800 O   0  0  0  0  0  0  0  0  0  0  0  0
   -0.0220   18.6980   -8.8820 O   0  0  0  0  0  0  0  0  0  0  0  0
   -1.6450   18.3200   -6.1120 P   0  0  0  0  0  0  0  0  0  0  0  0
   -1.0160   17.1030   -5.3040 O   0  0  0  0  0  0  0  0  0  0  0  0
   -2.6150   17.9110   -7.1350 O   0  0  0  0  0  0  0  0  0  0  0  0
   -2.2840   19.2130   -4.9620 O   0  0  0  0  0  0  0  0  0  0  0  0
  1  2  1  0
  2  3  2  0
  2  4  1  0
  4  5  2  0
  3  6  1  0
  7  4  1  1
  5  8  1  0
  6  8  2  0
  7  9  1  0
  7 10  1  0
  9 11  1  6
 10 12  1  0
  9 13  1  0
 12 13  1  0
 11 14  1  0
 11 15  2  3
 15 16  1  0
 16 17  1  0
 17 18  1  0
 18 19  1  0
 19 20  1  0
 20 21  1  0
 21 22  1  0
 22 23  1  0
 23 24  1  0
 23 25  2  0
 23 26  1  6
 24 27  1  0
 27 28  1  0
 27 29  2  0
 27 30  1  0
M  END
