x0796_0_B_α-x0091_0_B_α
     RDKit          3D

 33 37  0  0  0  0  0  0  0  0999 V2000
   10.7430   11.4300   12.5290 O   0  0  0  0  0  0  0  0  0  0  0  0
   11.9820   11.4720   12.5200 C   0  0  0  0  0  0  0  0  0  0  0  0
   12.7010   10.7750   11.5590 N   0  0  0  0  0  0  0  0  0  0  0  0
   12.8750   12.2360   13.5720 C   0  0  1  0  0  0  0  0  0  0  0  0
   14.0960   10.6480   11.6300 C   0  0  0  0  0  0  0  0  0  0  0  0
   14.0880   12.7790   12.8080 C   0  0  0  0  0  0  0  0  0  0  0  0
   12.0980   13.2510   14.3460 N   0  0  0  0  0  0  0  0  0  0  0  0
   13.3200   11.2150   14.6240 C   0  0  0  0  0  0  0  0  0  0  0  0
   12.7660   14.5610   14.4620 C   0  0  0  0  0  0  0  0  0  0  0  0
   14.8380   11.6360   12.2510 C   0  0  0  0  0  0  0  0  0  0  0  0
   12.1810   11.2120   15.6150 C   0  0  0  0  0  0  0  0  0  0  0  0
   11.8060   12.6700   15.6870 C   0  0  0  0  0  0  0  0  0  0  0  0
   14.7260    9.5370   11.0890 C   0  0  0  0  0  0  0  0  0  0  0  0
   13.9960   14.4840   15.4190 C   0  0  0  0  0  0  0  0  0  0  0  0
   16.2250   11.5390   12.3460 C   0  0  0  0  0  0  0  0  0  0  0  0
   16.1180    9.4290   11.1830 C   0  0  0  0  0  0  0  0  0  0  0  0
   15.3470   15.0140   14.8460 C   0  0  0  0  0  0  0  0  0  0  0  0
   16.8620   10.4270   11.8080 C   0  0  0  0  0  0  0  0  0  0  0  0
   15.7230   16.4560   15.2430 C   0  0  0  0  0  0  0  0  0  0  0  0
   14.5990   17.3450   14.9110 C   0  0  0  0  0  0  0  0  0  0  0  0
   13.4950   17.1710   15.6750 O   0  0  0  0  0  0  0  0  0  0  0  0
   14.3660   18.3320   13.9880 C   0  0  0  0  0  0  0  0  0  0  0  0
   12.5030   18.0380   15.2610 N   0  0  0  0  0  0  0  0  0  0  0  0
   13.0280   18.7320   14.2410 C   0  0  0  0  0  0  0  0  0  0  0  0
   12.2120   19.7660   13.5300 C   0  0  0  0  0  0  0  0  0  0  0  0
   12.7740   21.1020   13.7180 N   0  0  0  0  0  0  0  0  0  0  0  0
   12.1620   21.9210   14.7510 C   0  0  0  0  0  0  0  0  0  0  0  0
   13.6910   21.5460   12.7810 C   0  0  0  0  0  0  0  0  0  0  0  0
   14.0400   20.8560   11.8250 O   0  0  0  0  0  0  0  0  0  0  0  0
   14.1750   22.8170   12.9990 N   0  0  0  0  0  0  0  0  0  0  0  0
   15.1710   23.4170   12.1620 C   0  0  0  0  0  0  0  0  0  0  0  0
   16.6320   23.1700   12.4250 C   0  0  0  0  0  0  0  0  0  0  0  0
   16.0400   24.5150   12.7150 C   0  0  0  0  0  0  0  0  0  0  0  0
  1  2  2  0
  2  3  1  0
  4  2  1  0
  3  5  1  0
  4  6  1  6
  4  7  1  0
  4  8  1  0
  7  9  1  0
  5 10  2  0
  6 10  1  0
  8 11  1  0
  7 12  1  0
 11 12  1  0
  5 13  1  0
  9 14  1  0
 10 15  1  0
 13 16  2  0
 14 17  1  0
 15 18  2  0
 16 18  1  0
 17 19  1  0
 19 20  1  0
 20 21  1  0
 20 22  2  0
 21 23  1  0
 22 24  1  0
 23 24  2  0
 24 25  1  0
 25 26  1  0
 26 27  1  0
 26 28  1  0
 28 29  2  0
 28 30  1  0
 30 31  1  0
 31 32  1  0
 31 33  1  0
 32 33  1  0
M  END
