x0797_0_B_α-x0228_0_B_β
     RDKit          3D

 24 26  0  0  0  0  0  0  0  0999 V2000
   -7.8930   30.0410  -14.7450 C   0  0  0  0  0  0  0  0  0  0  0  0
   -6.6280   29.6490  -14.0290 C   0  0  0  0  0  0  0  0  0  0  0  0
   -5.4190   30.2250  -14.4470 C   0  0  0  0  0  0  0  0  0  0  0  0
   -6.6120   28.7270  -12.9650 C   0  0  0  0  0  0  0  0  0  0  0  0
   -5.3890   28.4200  -12.3470 C   0  0  0  0  0  0  0  0  0  0  0  0
   -4.2170   29.8990  -13.8240 C   0  0  0  0  0  0  0  0  0  0  0  0
   -7.8560   28.0340  -12.4700 C   0  0  1  0  0  0  0  0  0  0  0  0
   -4.2090   28.9970  -12.7720 C   0  0  0  0  0  0  0  0  0  0  0  0
   -7.6590   26.5390  -12.5370 C   0  0  2  0  0  0  0  0  0  0  0  0
   -8.1420   28.2300  -10.9940 C   0  0  0  0  0  0  0  0  0  0  0  0
   -7.7070   25.9070  -13.9060 C   0  0  0  0  0  0  0  0  0  0  0  0
   -8.4110   26.9460  -10.3940 O   0  0  0  0  0  0  0  0  0  0  0  0
   -8.5470   25.9930  -11.4520 C   0  0  0  0  0  0  0  0  0  0  0  0
   -8.8750   26.0090  -14.5670 O   0  0  0  0  0  0  0  0  0  0  0  0
   -6.6700   25.3180  -14.3920 N   0  0  0  0  0  0  0  0  0  0  0  0
   -5.5690   25.3680  -13.5440 C   0  0  0  0  0  0  0  0  0  0  0  0
   -5.6550   24.7060  -12.3150 C   0  0  0  0  0  0  0  0  0  0  0  0
   -4.4000   26.0690  -13.8950 C   0  0  0  0  0  0  0  0  0  0  0  0
   -4.2290   26.7280  -15.0820 O   0  0  0  0  0  0  0  0  0  0  0  0
   -4.5990   24.7460  -11.4380 C   0  0  0  0  0  0  0  0  0  0  0  0
   -3.3560   26.1230  -13.0310 C   0  0  0  0  0  0  0  0  0  0  0  0
   -2.8300   26.9220  -15.3350 C   0  0  0  0  0  0  0  0  0  0  0  0
   -4.6780   24.0150  -10.1150 C   0  0  0  0  0  0  0  0  0  0  0  0
   -3.4760   25.4810  -11.8460 C   0  0  0  0  0  0  0  0  0  0  0  0
  1  2  1  0
  2  3  2  0
  2  4  1  0
  4  5  2  0
  3  6  1  0
  7  4  1  1
  5  8  1  0
  6  8  2  0
  7  9  1  0
  7 10  1  0
  9 11  1  6
 10 12  1  0
  9 13  1  0
 12 13  1  0
 11 14  1  0
 11 15  2  3
 15 16  1  0
 16 17  2  0
 16 18  1  0
 18 19  1  0
 17 20  1  0
 18 21  2  0
 19 22  1  0
 20 23  1  0
 20 24  2  0
 21 24  1  0
M  END
