x0797_0_B-x0918_0_B
     RDKit          3D

 16 17  0  0  0  0  0  0  0  0999 V2000
   -8.0800   29.8660  -14.0450 C   0  0  0  0  0  0  0  0  0  0  0  0
   -6.6670   29.5040  -13.6580 C   0  0  0  0  0  0  0  0  0  0  0  0
   -5.6240   30.0860  -14.4120 C   0  0  0  0  0  0  0  0  0  0  0  0
   -6.3140   28.6200  -12.6010 C   0  0  0  0  0  0  0  0  0  0  0  0
   -4.9680   28.3780  -12.3570 C   0  0  0  0  0  0  0  0  0  0  0  0
   -4.2780   29.8130  -14.1400 C   0  0  0  0  0  0  0  0  0  0  0  0
   -7.2370   27.8690  -11.6730 C   0  0  2  0  0  0  0  0  0  0  0  0
   -3.2600   30.3860  -14.8910 N   0  0  0  0  0  0  0  0  0  0  0  0
   -3.9700   28.9560  -13.1070 C   0  0  0  0  0  0  0  0  0  0  0  0
   -7.4540   26.4190  -12.0870 C   0  0  2  0  0  0  0  0  0  0  0  0
   -8.6670   28.2770  -11.4370 C   0  0  0  0  0  0  0  0  0  0  0  0
   -7.4330   26.0240  -13.5470 C   0  0  0  0  0  0  0  0  0  0  0  0
   -9.1400   27.1810  -10.6390 O   0  0  0  0  0  0  0  0  0  0  0  0
   -8.6530   25.9870  -11.2770 C   0  0  0  0  0  0  0  0  0  0  0  0
   -8.4060   26.4810  -14.3610 O   0  0  0  0  0  0  0  0  0  0  0  0
   -6.5470   25.3030  -13.9820 O   0  0  0  0  0  0  0  0  0  0  0  0
  1  2  1  0
  2  3  2  0
  2  4  1  0
  4  5  2  0
  3  6  1  0
  7  4  1  6
  6  8  1  0
  5  9  1  0
  6  9  2  0
  7 10  1  0
  7 11  1  0
 10 12  1  6
 11 13  1  0
 10 14  1  0
 13 14  1  0
 12 15  1  0
 12 16  2  0
M  END
