x0796_0_B-x0918_3_A
     RDKit          3D

 24 27  0  0  0  0  0  0  0  0999 V2000
   10.7220   11.2530   12.4920 O   0  0  0  0  0  0  0  0  0  0  0  0
   11.9560   11.3230   12.5240 C   0  0  0  0  0  0  0  0  0  0  0  0
   12.7620   10.6410   11.6230 N   0  0  0  0  0  0  0  0  0  0  0  0
   12.7470   12.1340   13.5720 C   0  0  1  0  0  0  0  0  0  0  0  0
   14.1770   10.6320   11.7000 C   0  0  0  0  0  0  0  0  0  0  0  0
   13.9050   12.8070   12.8500 C   0  0  0  0  0  0  0  0  0  0  0  0
   11.9430   13.1370   14.3380 N   0  0  0  0  0  0  0  0  0  0  0  0
   13.2230   11.1630   14.6530 C   0  0  0  0  0  0  0  0  0  0  0  0
   14.7860   11.7300   12.3190 C   0  0  0  0  0  0  0  0  0  0  0  0
   12.1580   11.2630   15.7240 C   0  0  0  0  0  0  0  0  0  0  0  0
   11.8790   12.7410   15.7490 C   0  0  0  0  0  0  0  0  0  0  0  0
   14.9860    9.5820   11.1970 C   0  0  0  0  0  0  0  0  0  0  0  0
   14.4920    8.3300   10.5140 C   0  0  0  0  0  0  0  0  0  0  0  0
   16.1720   11.8080   12.4440 C   0  0  0  0  0  0  0  0  0  0  0  0
   16.3820    9.6920   11.3390 C   0  0  0  0  0  0  0  0  0  0  0  0
   15.5950    7.3410   10.0960 C   0  0  0  0  0  0  0  0  0  0  0  0
   16.9650   10.7890   11.9530 C   0  0  0  0  0  0  0  0  0  0  0  0
   15.1230    6.3800    9.0940 N   0  0  0  0  0  0  0  0  0  0  0  0
   15.0490    5.0250    9.4270 C   0  0  0  0  0  0  0  0  0  0  0  0
   15.1640    4.0420    8.4320 C   0  0  0  0  0  0  0  0  0  0  0  0
   14.8600    4.5810   10.7250 C   0  0  0  0  0  0  0  0  0  0  0  0
   15.0790    2.7040    8.7790 C   0  0  0  0  0  0  0  0  0  0  0  0
   14.7910    3.2230   10.9830 C   0  0  0  0  0  0  0  0  0  0  0  0
   14.8950    2.2690   10.0370 N   0  0  0  0  0  0  0  0  0  0  0  0
  1  2  2  0
  2  3  1  0
  4  2  1  0
  3  5  1  0
  4  6  1  6
  4  7  1  0
  4  8  1  0
  5  9  2  0
  6  9  1  0
  8 10  1  0
  7 11  1  0
 10 11  1  0
  5 12  1  0
 12 13  1  0
  9 14  1  0
 12 15  2  0
 13 16  1  0
 14 17  2  0
 15 17  1  0
 16 18  1  0
 18 19  1  0
 19 20  2  0
 19 21  1  0
 20 22  1  0
 21 23  2  0
 22 24  2  0
 23 24  1  0
M  END
