x0792_0_A-x0228_1_A
     RDKit          3D

 22 23  0  0  0  0  0  0  0  0999 V2000
    9.2730   23.5670   17.8750 C   0  0  0  0  0  0  0  0  0  0  0  0
    9.1190   22.2110   18.2100 O   0  0  0  0  0  0  0  0  0  0  0  0
    8.0740   24.5610   17.7070 C   0  0  2  0  0  0  0  0  0  0  0  0
    7.1410   24.9790   18.8090 C   0  0  0  0  0  0  0  0  0  0  0  0
    7.2390   24.5100   16.4590 C   0  0  0  0  0  0  0  0  0  0  0  0
    5.8090   24.4630   16.5140 N   0  0  0  0  0  0  0  0  0  0  0  0
    6.2750   26.1030   18.1810 C   0  0  1  0  0  0  0  0  0  0  0  0
    7.2630   27.1890   17.7700 C   0  0  0  0  0  0  0  0  0  0  0  0
    5.4770   25.7390   16.8970 C   0  0  2  0  0  0  0  0  0  0  0  0
    4.0730   25.6820   16.9650 N   0  0  0  0  0  0  0  0  0  0  0  0
    3.4890   26.7570   16.3890 C   0  0  0  0  0  0  0  0  0  0  0  0
    2.2280   26.5200   15.9370 N   0  0  0  0  0  0  0  0  0  0  0  0
    4.0920   27.8200   16.3180 O   0  0  0  0  0  0  0  0  0  0  0  0
    1.3090   27.5490   15.7580 C   0  0  0  0  0  0  0  0  0  0  0  0
    0.0590   27.2430   15.1930 C   0  0  0  0  0  0  0  0  0  0  0  0
    1.6180   28.8560   16.1270 C   0  0  0  0  0  0  0  0  0  0  0  0
   -0.1400   25.9170   14.8680 O   0  0  0  0  0  0  0  0  0  0  0  0
   -0.8660   28.2750   15.0060 C   0  0  0  0  0  0  0  0  0  0  0  0
    0.7010   29.8860   15.9440 C   0  0  0  0  0  0  0  0  0  0  0  0
   -1.4520   25.5380   14.4650 C   0  0  0  0  0  0  0  0  0  0  0  0
    1.0700   31.2820   16.3490 C   0  0  0  0  0  0  0  0  0  0  0  0
   -0.5400   29.5860   15.3810 C   0  0  0  0  0  0  0  0  0  0  0  0
  1  2  1  0
  3  1  1  1
  3  4  1  0
  3  5  1  0
  5  6  1  0
  4  7  1  0
  7  8  1  6
  6  9  1  0
  7  9  1  0
  9 10  1  1
 10 11  1  0
 11 12  1  0
 11 13  2  0
 12 14  1  0
 14 15  2  0
 14 16  1  0
 15 17  1  0
 15 18  1  0
 16 19  2  0
 17 20  1  0
 19 21  1  0
 18 22  2  0
 19 22  1  0
M  END
