x0792_0_A_α-x0516_0_A_α
     RDKit          3D

 23 25  0  0  0  0  0  0  0  0999 V2000
    9.7460   23.9900   18.2230 C   0  0  0  0  0  0  0  0  0  0  0  0
    9.8310   22.7780   17.4720 O   0  0  0  0  0  0  0  0  0  0  0  0
    8.7570   25.0520   17.6670 C   0  0  2  0  0  0  0  0  0  0  0  0
    8.0660   25.8670   18.7760 C   0  0  0  0  0  0  0  0  0  0  0  0
    7.8160   24.5210   16.6100 C   0  0  0  0  0  0  0  0  0  0  0  0
    6.4340   24.8800   16.7160 N   0  0  0  0  0  0  0  0  0  0  0  0
    6.8370   26.6570   18.2850 C   0  0  2  0  0  0  0  0  0  0  0  0
    5.6370   26.2860   19.1210 C   0  0  0  0  0  0  0  0  0  0  0  0
    6.4740   26.3100   16.8470 C   0  0  0  0  0  0  0  0  0  0  0  0
    4.8080   25.2120   18.4290 C   0  0  1  0  0  0  0  0  0  0  0  0
    4.2070   24.3660   19.4050 O   0  0  0  0  0  0  0  0  0  0  0  0
    3.6800   25.7190   17.5420 C   0  0  0  0  0  0  0  0  0  0  0  0
    3.9550   25.5090   16.1320 N   0  0  0  0  0  0  0  0  0  0  0  0
    3.2210   26.4920   15.3630 C   0  0  0  0  0  0  0  0  0  0  0  0
    1.7430   26.3590   15.5820 C   0  0  0  0  0  0  0  0  0  0  0  0
    0.9880   25.5450   14.7400 C   0  0  0  0  0  0  0  0  0  0  0  0
    1.1070   27.0530   16.6390 C   0  0  0  0  0  0  0  0  0  0  0  0
   -0.3590   25.4540   14.9660 C   0  0  0  0  0  0  0  0  0  0  0  0
   -0.2700   26.9400   16.8520 C   0  0  0  0  0  0  0  0  0  0  0  0
   -0.9750   26.1290   15.9900 C   0  0  0  0  0  0  0  0  0  0  0  0
   -1.2440   24.7210   14.2490 O   0  0  0  0  0  0  0  0  0  0  0  0
   -2.3130   25.8870   16.0180 O   0  0  0  0  0  0  0  0  0  0  0  0
   -2.4570   25.3560   14.6840 C   0  0  0  0  0  0  0  0  0  0  0  0
  1  2  1  0
  3  1  1  1
  3  4  1  0
  3  5  1  0
  5  6  1  0
  4  7  1  0
  7  8  1  1
  6  9  1  0
  7  9  1  0
  8 10  1  0
 10 11  1  1
 10 12  1  0
 12 13  1  0
 13 14  1  0
 14 15  1  0
 15 16  2  0
 15 17  1  0
 16 18  1  0
 17 19  2  0
 18 20  2  0
 19 20  1  0
 18 21  1  0
 20 22  1  0
 21 23  1  0
 22 23  1  0
M  END
