x0792_0_A-x0933_1_A
     RDKit          3D

 10 10  0  0  0  0  0  0  0  0999 V2000
   10.2650   21.8380   18.6910 C   0  0  0  0  0  0  0  0  0  0  0  0
   10.1930   21.3340   17.3650 O   0  0  0  0  0  0  0  0  0  0  0  0
   10.1670   23.3730   18.7470 C   0  0  1  0  0  0  0  0  0  0  0  0
   10.4940   24.0470   17.3960 C   0  0  0  0  0  0  0  0  0  0  0  0
    8.9030   23.8800   19.4920 C   0  0  2  0  0  0  0  0  0  0  0  0
    8.0150   22.8180   19.8980 N   0  0  0  0  0  0  0  0  0  0  0  0
    8.1020   24.9060   18.8470 N   0  0  0  0  0  0  0  0  0  0  0  0
    9.6680   25.3030   17.0850 C   0  0  2  0  0  0  0  0  0  0  0  0
   10.1470   26.5240   17.8590 C   0  0  0  0  0  0  0  0  0  0  0  0
    8.2390   25.0280   17.4080 C   0  0  0  0  0  0  0  0  0  0  0  0
  1  2  1  0
  3  1  1  6
  3  4  1  0
  3  5  1  0
  5  6  1  6
  5  7  1  0
  4  8  1  0
  8  9  1  1
  7 10  1  0
  8 10  1  0
M  END
