x0797_0_B-x0380_0_B
     RDKit          3D

 21 22  0  0  0  0  0  0  0  0999 V2000
   -8.0500   30.2690  -14.9240 C   0  0  0  0  0  0  0  0  0  0  0  0
   -6.8840   29.6590  -14.1970 C   0  0  0  0  0  0  0  0  0  0  0  0
   -5.5930   29.9990  -14.6540 C   0  0  0  0  0  0  0  0  0  0  0  0
   -6.9980   28.7720  -13.1160 C   0  0  0  0  0  0  0  0  0  0  0  0
   -5.8280   28.2940  -12.5380 C   0  0  0  0  0  0  0  0  0  0  0  0
   -4.4340   29.4860  -14.0650 C   0  0  0  0  0  0  0  0  0  0  0  0
   -8.2830   28.2410  -12.4940 C   0  0  1  0  0  0  0  0  0  0  0  0
   -5.9780   27.2230  -11.2220 Cl  0  0  0  0  0  0  0  0  0  0  0  0
   -4.5540   28.6320  -12.9820 C   0  0  0  0  0  0  0  0  0  0  0  0
   -8.5490   26.7550  -12.7440 C   0  0  1  0  0  0  0  0  0  0  0  0
   -8.3710   28.3670  -10.9920 C   0  0  0  0  0  0  0  0  0  0  0  0
   -3.0960   29.8440  -14.6140 C   0  0  0  0  0  0  0  0  0  0  0  0
   -7.7050   26.1250  -13.8230 C   0  0  0  0  0  0  0  0  0  0  0  0
   -8.1550   27.0730  -10.4080 O   0  0  0  0  0  0  0  0  0  0  0  0
   -8.3610   26.0670  -11.4010 C   0  0  0  0  0  0  0  0  0  0  0  0
   -3.1170   31.1470  -15.3410 C   0  0  0  0  0  0  0  0  0  0  0  0
   -8.2300   26.3090  -15.0500 O   0  0  0  0  0  0  0  0  0  0  0  0
   -6.6600   25.5000  -13.6950 O   0  0  0  0  0  0  0  0  0  0  0  0
   -4.0290   31.9610  -15.2160 O   0  0  0  0  0  0  0  0  0  0  0  0
   -1.9420   31.3910  -16.2540 C   0  0  0  0  0  0  0  0  0  0  0  0
   -2.4480   31.7040  -17.5890 N   0  0  0  0  0  0  0  0  0  0  0  0
  1  2  1  0
  2  3  2  0
  2  4  1  0
  4  5  2  0
  3  6  1  0
  7  4  1  1
  5  8  1  0
  5  9  1  0
  6  9  2  0
  7 10  1  0
  7 11  1  0
  6 12  1  0
 10 13  1  6
 11 14  1  0
 10 15  1  0
 14 15  1  0
 12 16  1  0
 13 17  1  0
 13 18  2  0
 16 19  2  0
 16 20  1  0
 20 21  1  0
M  END
