x0792_0_A-x0905_1_B
     RDKit          3D

 18 19  0  0  0  0  0  0  0  0999 V2000
    9.0870   23.1690   18.6730 C   0  0  0  0  0  0  0  0  0  0  0  0
    9.5460   22.3460   17.5830 O   0  0  0  0  0  0  0  0  0  0  0  0
   10.9740   22.2680   17.3520 C   0  0  0  0  0  0  0  0  0  0  0  0
    8.4720   24.5350   18.2170 C   0  0  2  0  0  0  0  0  0  0  0  0
    7.5730   25.2160   19.2520 C   0  0  0  0  0  0  0  0  0  0  0  0
    7.8010   24.6040   16.8380 C   0  0  0  0  0  0  0  0  0  0  0  0
   11.3400   20.9720   16.5780 C   0  0  0  0  0  0  0  0  0  0  0  0
    6.3490   24.8710   16.6630 N   0  0  0  0  0  0  0  0  0  0  0  0
    6.7740   26.3270   18.5600 C   0  0  1  0  0  0  0  0  0  0  0  0
    7.7210   27.2120   17.7570 C   0  0  0  0  0  0  0  0  0  0  0  0
    5.7310   25.7680   17.6190 C   0  0  0  0  0  0  0  0  0  0  0  0
   12.0450   21.1900   15.2310 C   0  0  0  0  0  0  0  0  0  0  0  0
   12.3430   20.1040   14.4390 N   0  0  0  0  0  0  0  0  0  0  0  0
   12.3760   22.4850   14.8390 C   0  0  0  0  0  0  0  0  0  0  0  0
   13.0280   22.6930   13.6290 C   0  0  0  0  0  0  0  0  0  0  0  0
   12.9800   20.3670   13.2690 C   0  0  0  0  0  0  0  0  0  0  0  0
   13.2710   19.2840   12.5020 O   0  0  0  0  0  0  0  0  0  0  0  0
   13.3410   21.6110   12.8250 C   0  0  0  0  0  0  0  0  0  0  0  0
  1  2  1  0
  2  3  1  0
  4  1  1  1
  4  5  1  0
  4  6  1  0
  3  7  1  0
  6  8  1  0
  5  9  1  0
  9 10  1  6
  8 11  1  0
  9 11  1  0
  7 12  1  0
 12 13  2  0
 12 14  1  0
 14 15  2  0
 13 16  1  0
 16 17  1  0
 15 18  1  0
 16 18  2  0
M  END
