x0797_0_B_α-5CMS_0_Q_α
     RDKit          3D

 27 29  0  0  0  0  0  0  0  0999 V2000
   -7.9140   30.0100  -14.7510 C   0  0  0  0  0  0  0  0  0  0  0  0
   -6.6660   29.6080  -14.0090 C   0  0  0  0  0  0  0  0  0  0  0  0
   -5.4370   30.1310  -14.4410 C   0  0  0  0  0  0  0  0  0  0  0  0
   -6.7040   28.7270  -12.9060 C   0  0  0  0  0  0  0  0  0  0  0  0
   -5.4940   28.4080  -12.2650 C   0  0  0  0  0  0  0  0  0  0  0  0
   -4.2510   29.7950  -13.7950 C   0  0  0  0  0  0  0  0  0  0  0  0
   -8.0210   28.1480  -12.4360 C   0  0  1  0  0  0  0  0  0  0  0  0
   -4.2850   28.9340  -12.7040 C   0  0  0  0  0  0  0  0  0  0  0  0
   -8.3340   26.6610  -12.6790 C   0  0  1  0  0  0  0  0  0  0  0  0
   -8.1510   28.2560  -10.9440 C   0  0  0  0  0  0  0  0  0  0  0  0
   -7.4940   26.0620  -13.7750 C   0  0  0  0  0  0  0  0  0  0  0  0
   -7.7240   27.0010  -10.4030 O   0  0  0  0  0  0  0  0  0  0  0  0
   -8.1290   25.9910  -11.3290 C   0  0  0  0  0  0  0  0  0  0  0  0
   -7.9990   26.3600  -14.9830 O   0  0  0  0  0  0  0  0  0  0  0  0
   -6.4340   25.3540  -13.5930 N   0  0  0  0  0  0  0  0  0  0  0  0
   -5.8820   25.0260  -12.2810 C   0  0  0  0  0  0  0  0  0  0  0  0
   -4.5410   24.3160  -12.4780 C   0  0  0  0  0  0  0  0  0  0  0  0
   -4.5920   22.8400  -12.0650 C   0  0  0  0  0  0  0  0  0  0  0  0
   -3.9870   22.6830  -10.7830 O   0  0  0  0  0  0  0  0  0  0  0  0
   -2.5670   22.5420  -10.8090 C   0  0  2  0  0  0  0  0  0  0  0  0
   -2.1620   21.6040   -9.7910 O   0  0  0  0  0  0  0  0  0  0  0  0
   -1.8300   23.8280  -10.4230 C   0  0  2  0  0  0  0  0  0  0  0  0
   -1.7610   24.8300  -11.4390 O   0  0  0  0  0  0  0  0  0  0  0  0
   -0.8880   22.0460   -9.2680 C   0  0  1  0  0  0  0  0  0  0  0  0
   -0.4840   23.2480  -10.1210 C   0  0  2  0  0  0  0  0  0  0  0  0
   -1.0280   22.3170   -7.7760 C   0  0  0  0  0  0  0  0  0  0  0  0
    0.4810   24.1510   -9.6040 O   0  0  0  0  0  0  0  0  0  0  0  0
  1  2  1  0
  2  3  2  0
  2  4  1  0
  4  5  2  0
  3  6  1  0
  7  4  1  1
  5  8  1  0
  6  8  2  0
  7  9  1  0
  7 10  1  0
  9 11  1  6
 10 12  1  0
  9 13  1  0
 12 13  1  0
 11 14  1  0
 11 15  2  3
 15 16  1  0
 16 17  1  0
 17 18  1  0
 18 19  1  0
 20 19  1  1
 20 21  1  0
 20 22  1  0
 22 23  1  6
 21 24  1  0
 22 25  1  0
 24 25  1  0
 24 26  1  1
 25 27  1  1
M  END
