x0796_0_B-x0091_0_B
     RDKit          3D

 33 37  0  0  0  0  0  0  0  0999 V2000
   10.7450   11.4050   12.5410 O   0  0  0  0  0  0  0  0  0  0  0  0
   11.9830   11.4590   12.5250 C   0  0  0  0  0  0  0  0  0  0  0  0
   12.7060   10.7720   11.5560 N   0  0  0  0  0  0  0  0  0  0  0  0
   12.8760   12.2290   13.5740 C   0  0  1  0  0  0  0  0  0  0  0  0
   14.0990   10.6440   11.6250 C   0  0  0  0  0  0  0  0  0  0  0  0
   14.0820   12.7730   12.7990 C   0  0  0  0  0  0  0  0  0  0  0  0
   12.1010   13.2480   14.3480 N   0  0  0  0  0  0  0  0  0  0  0  0
   13.3190   11.2090   14.6290 C   0  0  0  0  0  0  0  0  0  0  0  0
   12.7690   14.5600   14.4700 C   0  0  0  0  0  0  0  0  0  0  0  0
   14.8400   11.6340   12.2470 C   0  0  0  0  0  0  0  0  0  0  0  0
   12.1780   11.2130   15.6190 C   0  0  0  0  0  0  0  0  0  0  0  0
   11.8140   12.6730   15.6910 C   0  0  0  0  0  0  0  0  0  0  0  0
   14.7320    9.5350   11.0850 C   0  0  0  0  0  0  0  0  0  0  0  0
   13.9990   14.4870   15.4290 C   0  0  0  0  0  0  0  0  0  0  0  0
   16.2250   11.5370   12.3430 C   0  0  0  0  0  0  0  0  0  0  0  0
   16.1230    9.4270   11.1800 C   0  0  0  0  0  0  0  0  0  0  0  0
   15.3460   15.0150   14.8460 C   0  0  0  0  0  0  0  0  0  0  0  0
   16.8660   10.4250   11.8070 C   0  0  0  0  0  0  0  0  0  0  0  0
   15.7220   16.4560   15.2450 C   0  0  0  0  0  0  0  0  0  0  0  0
   14.6000   17.3450   14.9120 C   0  0  0  0  0  0  0  0  0  0  0  0
   13.4950   17.1730   15.6740 O   0  0  0  0  0  0  0  0  0  0  0  0
   14.3660   18.3350   13.9870 C   0  0  0  0  0  0  0  0  0  0  0  0
   12.5030   18.0400   15.2600 N   0  0  0  0  0  0  0  0  0  0  0  0
   13.0300   18.7330   14.2400 C   0  0  0  0  0  0  0  0  0  0  0  0
   12.2120   19.7680   13.5270 C   0  0  0  0  0  0  0  0  0  0  0  0
   12.7740   21.1020   13.7160 N   0  0  0  0  0  0  0  0  0  0  0  0
   12.1600   21.9220   14.7480 C   0  0  0  0  0  0  0  0  0  0  0  0
   13.6910   21.5460   12.7790 C   0  0  0  0  0  0  0  0  0  0  0  0
   14.0370   20.8570   11.8230 O   0  0  0  0  0  0  0  0  0  0  0  0
   14.1770   22.8140   12.9980 N   0  0  0  0  0  0  0  0  0  0  0  0
   15.1740   23.4140   12.1620 C   0  0  0  0  0  0  0  0  0  0  0  0
   16.6350   23.1630   12.4270 C   0  0  0  0  0  0  0  0  0  0  0  0
   16.0450   24.5110   12.7180 C   0  0  0  0  0  0  0  0  0  0  0  0
  1  2  2  0
  2  3  1  0
  4  2  1  0
  3  5  1  0
  4  6  1  6
  4  7  1  0
  4  8  1  0
  7  9  1  0
  5 10  2  0
  6 10  1  0
  8 11  1  0
  7 12  1  0
 11 12  1  0
  5 13  1  0
  9 14  1  0
 10 15  1  0
 13 16  2  0
 14 17  1  0
 15 18  2  0
 16 18  1  0
 17 19  1  0
 19 20  1  0
 20 21  1  0
 20 22  2  0
 21 23  1  0
 22 24  1  0
 23 24  2  0
 24 25  1  0
 25 26  1  0
 26 27  1  0
 26 28  1  0
 28 29  2  0
 28 30  1  0
 30 31  1  0
 31 32  1  0
 31 33  1  0
 32 33  1  0
M  END
