x0797_0_B_α-x0918_0_B_α
     RDKit          3D

 16 17  0  0  0  0  0  0  0  0999 V2000
   -8.0740   29.6930  -14.1550 C   0  0  0  0  0  0  0  0  0  0  0  0
   -6.6590   29.3770  -13.7250 C   0  0  0  0  0  0  0  0  0  0  0  0
   -5.6120   29.9260  -14.4890 C   0  0  0  0  0  0  0  0  0  0  0  0
   -6.3150   28.5640  -12.6130 C   0  0  0  0  0  0  0  0  0  0  0  0
   -4.9700   28.3580  -12.3290 C   0  0  0  0  0  0  0  0  0  0  0  0
   -4.2680   29.6950  -14.1770 C   0  0  0  0  0  0  0  0  0  0  0  0
   -7.2430   27.8500  -11.6650 C   0  0  2  0  0  0  0  0  0  0  0  0
   -3.2430   30.2440  -14.9410 N   0  0  0  0  0  0  0  0  0  0  0  0
   -3.9650   28.9070  -13.0890 C   0  0  0  0  0  0  0  0  0  0  0  0
   -7.4800   26.4040  -12.0700 C   0  0  2  0  0  0  0  0  0  0  0  0
   -8.6660   28.2840  -11.4370 C   0  0  0  0  0  0  0  0  0  0  0  0
   -7.4430   26.0060  -13.5300 C   0  0  0  0  0  0  0  0  0  0  0  0
   -9.1510   27.2000  -10.6280 O   0  0  0  0  0  0  0  0  0  0  0  0
   -8.6910   25.9960  -11.2640 C   0  0  0  0  0  0  0  0  0  0  0  0
   -8.4130   26.4550  -14.3520 O   0  0  0  0  0  0  0  0  0  0  0  0
   -6.5470   25.2920  -13.9600 O   0  0  0  0  0  0  0  0  0  0  0  0
  1  2  1  0
  2  3  2  0
  2  4  1  0
  4  5  2  0
  3  6  1  0
  7  4  1  6
  6  8  1  0
  5  9  1  0
  6  9  2  0
  7 10  1  0
  7 11  1  0
 10 12  1  6
 11 13  1  0
 10 14  1  0
 13 14  1  0
 12 15  1  0
 12 16  2  0
M  END
