x0796_0_B-x0091_0_B
     RDKit          3D

 33 37  0  0  0  0  0  0  0  0999 V2000
   10.7440   11.4260   12.5340 O   0  0  0  0  0  0  0  0  0  0  0  0
   11.9820   11.4700   12.5210 C   0  0  0  0  0  0  0  0  0  0  0  0
   12.7040   10.7780   11.5550 N   0  0  0  0  0  0  0  0  0  0  0  0
   12.8770   12.2340   13.5720 C   0  0  1  0  0  0  0  0  0  0  0  0
   14.0950   10.6490   11.6270 C   0  0  0  0  0  0  0  0  0  0  0  0
   14.0860   12.7780   12.8030 C   0  0  0  0  0  0  0  0  0  0  0  0
   12.1000   13.2510   14.3470 N   0  0  0  0  0  0  0  0  0  0  0  0
   13.3210   11.2150   14.6260 C   0  0  0  0  0  0  0  0  0  0  0  0
   12.7680   14.5620   14.4630 C   0  0  0  0  0  0  0  0  0  0  0  0
   14.8400   11.6350   12.2500 C   0  0  0  0  0  0  0  0  0  0  0  0
   12.1810   11.2140   15.6160 C   0  0  0  0  0  0  0  0  0  0  0  0
   11.8080   12.6720   15.6880 C   0  0  0  0  0  0  0  0  0  0  0  0
   14.7280    9.5370   11.0870 C   0  0  0  0  0  0  0  0  0  0  0  0
   13.9950   14.4830   15.4220 C   0  0  0  0  0  0  0  0  0  0  0  0
   16.2220   11.5370   12.3480 C   0  0  0  0  0  0  0  0  0  0  0  0
   16.1160    9.4270   11.1850 C   0  0  0  0  0  0  0  0  0  0  0  0
   15.3450   15.0120   14.8460 C   0  0  0  0  0  0  0  0  0  0  0  0
   16.8620   10.4240   11.8130 C   0  0  0  0  0  0  0  0  0  0  0  0
   15.7200   16.4540   15.2430 C   0  0  0  0  0  0  0  0  0  0  0  0
   14.5970   17.3440   14.9110 C   0  0  0  0  0  0  0  0  0  0  0  0
   13.4920   17.1700   15.6740 O   0  0  0  0  0  0  0  0  0  0  0  0
   14.3630   18.3320   13.9880 C   0  0  0  0  0  0  0  0  0  0  0  0
   12.5010   18.0370   15.2590 N   0  0  0  0  0  0  0  0  0  0  0  0
   13.0270   18.7320   14.2400 C   0  0  0  0  0  0  0  0  0  0  0  0
   12.2100   19.7660   13.5290 C   0  0  0  0  0  0  0  0  0  0  0  0
   12.7740   21.1020   13.7170 N   0  0  0  0  0  0  0  0  0  0  0  0
   12.1600   21.9230   14.7510 C   0  0  0  0  0  0  0  0  0  0  0  0
   13.6900   21.5460   12.7820 C   0  0  0  0  0  0  0  0  0  0  0  0
   14.0400   20.8560   11.8260 O   0  0  0  0  0  0  0  0  0  0  0  0
   14.1750   22.8160   12.9970 N   0  0  0  0  0  0  0  0  0  0  0  0
   15.1690   23.4160   12.1620 C   0  0  0  0  0  0  0  0  0  0  0  0
   16.6310   23.1700   12.4240 C   0  0  0  0  0  0  0  0  0  0  0  0
   16.0390   24.5160   12.7110 C   0  0  0  0  0  0  0  0  0  0  0  0
  1  2  2  0
  2  3  1  0
  4  2  1  0
  3  5  1  0
  4  6  1  6
  4  7  1  0
  4  8  1  0
  7  9  1  0
  5 10  2  0
  6 10  1  0
  8 11  1  0
  7 12  1  0
 11 12  1  0
  5 13  1  0
  9 14  1  0
 10 15  1  0
 13 16  2  0
 14 17  1  0
 15 18  2  0
 16 18  1  0
 17 19  1  0
 19 20  1  0
 20 21  1  0
 20 22  2  0
 21 23  1  0
 22 24  1  0
 23 24  2  0
 24 25  1  0
 25 26  1  0
 26 27  1  0
 26 28  1  0
 28 29  2  0
 28 30  1  0
 30 31  1  0
 31 32  1  0
 31 33  1  0
 32 33  1  0
M  END
