x0796_0_B-x0814_0_B
     RDKit          3D

 22 24  0  0  0  0  0  0  0  0999 V2000
   12.1980   11.3120   11.8550 N   0  0  0  0  0  0  0  0  0  0  0  0
   11.0710   12.0960   12.7910 S   0  0  0  0  0  0  0  0  0  0  0  0
   11.5040   13.5450   12.7970 O   0  0  0  0  0  0  0  0  0  0  0  0
   13.4300   11.2980   12.1350 C   0  0  0  0  0  0  0  0  0  0  0  0
   11.4090   11.4980   14.4930 C   0  0  0  0  0  0  0  0  0  0  0  0
   14.3230   10.6450   11.3590 N   0  0  0  0  0  0  0  0  0  0  0  0
   13.9540   12.0490   13.4400 C   0  0  1  0  0  0  0  0  0  0  0  0
   15.6510   10.5460   11.6950 C   0  0  0  0  0  0  0  0  0  0  0  0
   15.3950   12.6190   13.1760 C   0  0  2  0  0  0  0  0  0  0  0  0
   13.0060   13.1440   13.8380 N   0  0  0  0  0  0  0  0  0  0  0  0
   13.8860   11.1110   14.6690 C   0  0  0  0  0  0  0  0  0  0  0  0
   16.0400   12.9690   14.5400 C   0  0  0  0  0  0  0  0  0  0  0  0
   15.3590   13.9350   12.3300 C   0  0  0  0  0  0  0  0  0  0  0  0
   16.2470   11.4750   12.5580 C   0  0  0  0  0  0  0  0  0  0  0  0
   13.4490   11.9680   15.8590 C   0  0  0  0  0  0  0  0  0  0  0  0
   13.0560   13.3180   15.2920 C   0  0  0  0  0  0  0  0  0  0  0  0
   16.3880    9.4940   11.1550 C   0  0  0  0  0  0  0  0  0  0  0  0
   16.5610   14.5390   12.0710 N   0  0  0  0  0  0  0  0  0  0  0  0
   14.3270   14.4770   11.9020 O   0  0  0  0  0  0  0  0  0  0  0  0
   17.6080   11.3170   12.8430 C   0  0  0  0  0  0  0  0  0  0  0  0
   17.7320    9.3510   11.4470 C   0  0  0  0  0  0  0  0  0  0  0  0
   18.3410   10.2660   12.2900 C   0  0  0  0  0  0  0  0  0  0  0  0
  2  1  1  0
  2  3  2  0
  1  4  2  3
  2  5  1  1
  4  6  1  0
  7  4  1  0
  6  8  1  0
  7  9  1  0
  7 10  1  0
  7 11  1  1
  9 12  1  1
  9 13  1  0
  8 14  2  0
  9 14  1  0
 11 15  1  0
 10 16  1  0
 15 16  1  0
  8 17  1  0
 13 18  1  0
 13 19  2  0
 14 20  1  0
 17 21  2  0
 20 22  2  0
 21 22  1  0
M  END
