x0792_0_A-x0228_1_A
     RDKit          3D

 22 23  0  0  0  0  0  0  0  0999 V2000
    9.0500   23.3200   18.4880 C   0  0  0  0  0  0  0  0  0  0  0  0
    9.6290   22.4740   17.5130 O   0  0  0  0  0  0  0  0  0  0  0  0
    8.0860   24.4670   18.0100 C   0  0  2  0  0  0  0  0  0  0  0  0
    6.9910   25.0140   18.8920 C   0  0  0  0  0  0  0  0  0  0  0  0
    7.4440   24.4360   16.6450 C   0  0  0  0  0  0  0  0  0  0  0  0
    5.9960   24.4460   16.5050 N   0  0  0  0  0  0  0  0  0  0  0  0
    6.3480   26.1680   18.0830 C   0  0  1  0  0  0  0  0  0  0  0  0
    7.4750   27.1020   17.6530 C   0  0  0  0  0  0  0  0  0  0  0  0
    5.6010   25.7390   16.7940 C   0  0  2  0  0  0  0  0  0  0  0  0
    4.1890   25.6710   16.8670 N   0  0  0  0  0  0  0  0  0  0  0  0
    3.5660   26.7430   16.3150 C   0  0  0  0  0  0  0  0  0  0  0  0
    2.2880   26.5010   15.9010 N   0  0  0  0  0  0  0  0  0  0  0  0
    4.1500   27.8150   16.2390 O   0  0  0  0  0  0  0  0  0  0  0  0
    1.3550   27.5280   15.7470 C   0  0  0  0  0  0  0  0  0  0  0  0
    0.1040   27.2220   15.1840 C   0  0  0  0  0  0  0  0  0  0  0  0
    1.6520   28.8320   16.1380 C   0  0  0  0  0  0  0  0  0  0  0  0
   -0.0900   25.9030   14.8350 O   0  0  0  0  0  0  0  0  0  0  0  0
   -0.8330   28.2480   15.0210 C   0  0  0  0  0  0  0  0  0  0  0  0
    0.7220   29.8570   15.9790 C   0  0  0  0  0  0  0  0  0  0  0  0
   -1.4110   25.5220   14.4630 C   0  0  0  0  0  0  0  0  0  0  0  0
    1.0720   31.2490   16.4080 C   0  0  0  0  0  0  0  0  0  0  0  0
   -0.5220   29.5540   15.4160 C   0  0  0  0  0  0  0  0  0  0  0  0
  1  2  1  0
  3  1  1  1
  3  4  1  0
  3  5  1  0
  5  6  1  0
  4  7  1  0
  7  8  1  6
  6  9  1  0
  7  9  1  0
  9 10  1  1
 10 11  1  0
 11 12  1  0
 11 13  2  0
 12 14  1  0
 14 15  2  0
 14 16  1  0
 15 17  1  0
 15 18  1  0
 16 19  2  0
 17 20  1  0
 19 21  1  0
 18 22  2  0
 19 22  1  0
M  END
