x0796_0_B-x0142_0_A
     RDKit          3D

 32 36  0  0  0  0  0  0  0  0999 V2000
   10.6400   11.2530   12.5680 O   0  0  0  0  0  0  0  0  0  0  0  0
   11.8700   11.3320   12.5760 C   0  0  0  0  0  0  0  0  0  0  0  0
   12.5740   10.7570   11.5380 N   0  0  0  0  0  0  0  0  0  0  0  0
   12.7020   12.0040   13.6950 C   0  0  1  0  0  0  0  0  0  0  0  0
   13.9780   10.9500   11.1880 C   0  0  1  0  0  0  0  0  0  0  0  0
   13.9860   12.6330   13.1200 C   0  0  0  0  0  0  0  0  0  0  0  0
   11.9970   13.0960   14.4320 N   0  0  0  0  0  0  0  0  0  0  0  0
   12.9330   10.9110   14.7560 C   0  0  0  0  0  0  0  0  0  0  0  0
   14.8260   11.6550   12.2730 C   0  0  1  0  0  0  0  0  0  0  0  0
   11.9320   11.2190   15.8480 C   0  0  0  0  0  0  0  0  0  0  0  0
   11.8990   12.7230   15.8460 C   0  0  0  0  0  0  0  0  0  0  0  0
   14.6080    9.5600   10.7910 C   0  0  0  0  0  0  0  0  0  0  0  0
   15.5100   10.4450   12.9730 C   0  0  1  0  0  0  0  0  0  0  0  0
   16.1160    9.4640   11.0010 C   0  0  0  0  0  0  0  0  0  0  0  0
   16.5970    9.9420   12.1080 C   0  0  0  0  0  0  0  0  0  0  0  0
   15.9320   10.5170   14.4890 C   0  0  1  0  0  0  0  0  0  0  0  0
   14.5190    9.2790   12.7920 C   0  0  0  0  0  0  0  0  0  0  0  0
   15.3220   11.6610   15.0980 O   0  0  0  0  0  0  0  0  0  0  0  0
   15.5420    9.2480   15.2600 C   0  0  0  0  0  0  0  0  0  0  0  0
   15.1960    7.9840   13.1740 C   0  0  2  0  0  0  0  0  0  0  0  0
   14.5260    6.8100   12.6000 N   0  0  0  0  0  0  0  0  0  0  0  0
   15.8380   11.9820   16.3790 C   0  0  0  0  0  0  0  0  0  0  0  0
   15.2080    8.0690   14.6600 C   0  0  0  0  0  0  0  0  0  0  0  0
   14.7570    6.4140   11.2700 C   0  0  0  0  0  0  0  0  0  0  0  0
   14.8570    5.0370   11.1740 N   0  0  0  0  0  0  0  0  0  0  0  0
   14.8580    7.1990   10.3320 O   0  0  0  0  0  0  0  0  0  0  0  0
   14.9440    4.2260   10.0110 C   0  0  0  0  0  0  0  0  0  0  0  0
   15.7060    4.6790    8.9300 C   0  0  0  0  0  0  0  0  0  0  0  0
   14.3090    2.9930    9.8940 C   0  0  0  0  0  0  0  0  0  0  0  0
   15.7940    3.8780    7.7960 C   0  0  0  0  0  0  0  0  0  0  0  0
   14.4570    2.2700    8.7190 C   0  0  0  0  0  0  0  0  0  0  0  0
   15.1860    2.6840    7.6650 N   0  0  0  0  0  0  0  0  0  0  0  0
  1  2  2  0
  2  3  1  0
  4  2  1  0
  3  5  1  0
  4  6  1  6
  4  7  1  0
  4  8  1  0
  5  9  1  0
  9  6  1  1
  8 10  1  0
  7 11  1  0
 10 11  1  0
  5 12  1  1
  9 13  1  0
 12 14  1  0
 13 15  1  6
 14 15  2  0
 13 16  1  0
 13 17  1  0
 16 18  1  1
 16 19  1  0
 17 20  1  0
 20 21  1  1
 18 22  1  0
 19 23  2  0
 20 23  1  0
 21 24  1  0
 24 25  1  0
 24 26  2  0
 25 27  1  0
 27 28  2  0
 27 29  1  0
 28 30  1  0
 29 31  2  0
 30 32  2  0
 31 32  1  0
M  END
