x0796_0_B_α-x0792_0_A_α
     RDKit          3D

 30 33  0  0  0  0  0  0  0  0999 V2000
   10.6480   11.4990   12.5300 O   0  0  0  0  0  0  0  0  0  0  0  0
   11.8710   11.6540   12.5860 C   0  0  0  0  0  0  0  0  0  0  0  0
   12.6330   10.9630   11.6470 N   0  0  0  0  0  0  0  0  0  0  0  0
   12.6770   12.5050   13.6420 C   0  0  1  0  0  0  0  0  0  0  0  0
   14.0190   10.8830   11.7180 C   0  0  0  0  0  0  0  0  0  0  0  0
   13.9330   13.0530   12.9140 C   0  0  0  0  0  0  0  0  0  0  0  0
   12.0230   13.6150   14.5070 N   0  0  0  0  0  0  0  0  0  0  0  0
   13.1070   11.4570   14.6820 C   0  0  0  0  0  0  0  0  0  0  0  0
   12.2800   15.1180   14.4860 C   0  0  0  0  0  0  0  0  0  0  0  0
   14.7230   11.9040   12.3450 C   0  0  0  0  0  0  0  0  0  0  0  0
   12.0660   11.5800   15.7690 C   0  0  0  0  0  0  0  0  0  0  0  0
   11.8920   13.0780   15.8790 C   0  0  0  0  0  0  0  0  0  0  0  0
   14.6780    9.7860   11.1720 C   0  0  0  0  0  0  0  0  0  0  0  0
   11.6790   16.0460   15.6350 C   0  0  0  0  0  0  0  0  0  0  0  0
   16.1170   11.8260   12.4290 C   0  0  0  0  0  0  0  0  0  0  0  0
   16.0690    9.7090   11.2600 C   0  0  0  0  0  0  0  0  0  0  0  0
   11.6840   17.6170   15.4420 C   0  0  0  0  0  0  0  0  0  0  0  0
   16.7860   10.7270   11.8870 C   0  0  0  0  0  0  0  0  0  0  0  0
   11.3000   18.4850   16.7130 C   0  0  0  0  0  0  0  0  0  0  0  0
   11.3610   20.0580   16.5300 C   0  0  0  0  0  0  0  0  0  0  0  0
   10.8640   20.9400   17.7400 C   0  0  0  0  0  0  0  0  0  0  0  0
    9.6490   21.7240   17.4910 O   0  0  0  0  0  0  0  0  0  0  0  0
    9.6650   23.1950   17.6580 C   0  0  0  0  0  0  0  0  0  0  0  0
    8.2500   23.8970   17.8660 C   0  0  1  0  0  0  0  0  0  0  0  0
    8.1950   25.0590   18.8060 C   0  0  0  0  0  0  0  0  0  0  0  0
    7.4070   24.4080   16.6660 C   0  0  0  0  0  0  0  0  0  0  0  0
    5.9600   24.6100   16.8290 N   0  0  0  0  0  0  0  0  0  0  0  0
    7.2050   26.1080   18.2360 C   0  0  1  0  0  0  0  0  0  0  0  0
    7.8070   26.7440   16.9880 C   0  0  0  0  0  0  0  0  0  0  0  0
    5.8130   25.5620   17.8820 C   0  0  0  0  0  0  0  0  0  0  0  0
  1  2  2  0
  2  3  1  0
  4  2  1  0
  3  5  1  0
  4  6  1  6
  4  7  1  0
  4  8  1  0
  7  9  1  0
  5 10  2  0
  6 10  1  0
  8 11  1  0
  7 12  1  0
 11 12  1  0
  5 13  1  0
  9 14  1  0
 10 15  1  0
 13 16  2  0
 14 17  1  0
 15 18  2  0
 16 18  1  0
 17 19  1  0
 19 20  1  0
 20 21  1  0
 21 22  1  0
 22 23  1  0
 24 23  1  6
 24 25  1  0
 24 26  1  0
 26 27  1  0
 25 28  1  0
 28 29  1  6
 27 30  1  0
 28 30  1  0
M  END
