x0797_0_B-x0766_1_B
     RDKit          3D

 15 16  0  0  0  0  0  0  0  0999 V2000
   -7.8690   30.1200  -14.7550 C   0  0  0  0  0  0  0  0  0  0  0  0
   -6.6230   29.6830  -14.0440 C   0  0  0  0  0  0  0  0  0  0  0  0
   -5.4190   30.2790  -14.4580 C   0  0  0  0  0  0  0  0  0  0  0  0
   -6.5790   28.7240  -13.0100 C   0  0  0  0  0  0  0  0  0  0  0  0
   -5.3390   28.4110  -12.4300 C   0  0  0  0  0  0  0  0  0  0  0  0
   -4.2050   29.9470  -13.8750 C   0  0  0  0  0  0  0  0  0  0  0  0
   -7.7450   27.9590  -12.4510 C   0  0  1  0  0  0  0  0  0  0  0  0
   -4.1650   29.0100  -12.8540 C   0  0  0  0  0  0  0  0  0  0  0  0
   -7.4300   26.4840  -12.4160 C   0  0  2  0  0  0  0  0  0  0  0  0
   -8.1630   28.2740  -11.0350 C   0  0  0  0  0  0  0  0  0  0  0  0
   -7.5190   25.8150  -13.7600 C   0  0  0  0  0  0  0  0  0  0  0  0
   -8.3690   27.0100  -10.3680 O   0  0  0  0  0  0  0  0  0  0  0  0
   -8.3910   25.9850  -11.3690 C   0  0  0  0  0  0  0  0  0  0  0  0
   -8.4760   26.2970  -14.5770 O   0  0  0  0  0  0  0  0  0  0  0  0
   -6.8020   24.9140  -14.1500 O   0  0  0  0  0  0  0  0  0  0  0  0
  1  2  1  0
  2  3  2  0
  2  4  1  0
  4  5  2  0
  3  6  1  0
  7  4  1  1
  5  8  1  0
  6  8  2  0
  7  9  1  0
  7 10  1  0
  9 11  1  6
 10 12  1  0
  9 13  1  0
 12 13  1  0
 11 14  1  0
 11 15  2  0
M  END
