x0792_0_A-x0905_1_B
     RDKit          3D

 18 19  0  0  0  0  0  0  0  0999 V2000
    9.1280   23.2520   18.6270 C   0  0  0  0  0  0  0  0  0  0  0  0
    9.5760   22.4300   17.5350 O   0  0  0  0  0  0  0  0  0  0  0  0
   11.0030   22.3220   17.3220 C   0  0  0  0  0  0  0  0  0  0  0  0
    8.4790   24.6000   18.1700 C   0  0  2  0  0  0  0  0  0  0  0  0
    7.6060   25.2700   19.2260 C   0  0  0  0  0  0  0  0  0  0  0  0
    7.7680   24.6490   16.8070 C   0  0  0  0  0  0  0  0  0  0  0  0
   11.3430   21.0140   16.5530 C   0  0  0  0  0  0  0  0  0  0  0  0
    6.3090   24.8940   16.6740 N   0  0  0  0  0  0  0  0  0  0  0  0
    6.7690   26.3630   18.5520 C   0  0  1  0  0  0  0  0  0  0  0  0
    7.6790   27.2540   17.7130 C   0  0  0  0  0  0  0  0  0  0  0  0
    5.7070   25.7770   17.6500 C   0  0  0  0  0  0  0  0  0  0  0  0
   12.0580   21.2180   15.2120 C   0  0  0  0  0  0  0  0  0  0  0  0
   12.3580   20.1210   14.4340 N   0  0  0  0  0  0  0  0  0  0  0  0
   12.3960   22.5050   14.8050 C   0  0  0  0  0  0  0  0  0  0  0  0
   13.0580   22.6970   13.5950 C   0  0  0  0  0  0  0  0  0  0  0  0
   13.0050   20.3670   13.2620 C   0  0  0  0  0  0  0  0  0  0  0  0
   13.2960   19.2730   12.5110 O   0  0  0  0  0  0  0  0  0  0  0  0
   13.3720   21.6040   12.8070 C   0  0  0  0  0  0  0  0  0  0  0  0
  1  2  1  0
  2  3  1  0
  4  1  1  1
  4  5  1  0
  4  6  1  0
  3  7  1  0
  6  8  1  0
  5  9  1  0
  9 10  1  6
  8 11  1  0
  9 11  1  0
  7 12  1  0
 12 13  2  0
 12 14  1  0
 14 15  2  0
 13 16  1  0
 16 17  1  0
 15 18  1  0
 16 18  2  0
M  END
