x0797_0_B_α-x0417_0_B_α
     RDKit          3D

 23 25  0  0  0  0  0  0  0  0999 V2000
   -8.0770   30.1660  -14.8140 C   0  0  0  0  0  0  0  0  0  0  0  0
   -6.8960   29.2910  -14.3600 C   0  0  1  0  0  0  0  0  0  0  0  0
   -5.6400   30.0300  -14.8390 C   0  0  0  0  0  0  0  0  0  0  0  0
   -6.9280   29.0450  -12.8450 C   0  0  2  0  0  0  0  0  0  0  0  0
   -5.5650   28.5700  -12.2890 C   0  0  0  0  0  0  0  0  0  0  0  0
   -4.2900   29.5620  -14.3060 C   0  0  1  0  0  0  0  0  0  0  0  0
   -7.9900   27.9860  -12.3990 C   0  0  1  0  0  0  0  0  0  0  0  0
   -4.3350   29.2990  -12.7950 C   0  0  2  0  0  0  0  0  0  0  0  0
   -7.3490   26.5960  -12.3970 C   0  0  2  0  0  0  0  0  0  0  0  0
   -8.5250   28.0950  -10.9940 C   0  0  0  0  0  0  0  0  0  0  0  0
   -3.6330   28.3800  -15.0480 C   0  0  0  0  0  0  0  0  0  0  0  0
   -3.3780   30.7030  -14.7250 C   0  0  0  0  0  0  0  0  0  0  0  0
   -7.3510   25.9360  -13.7550 C   0  0  0  0  0  0  0  0  0  0  0  0
   -3.3090   28.4920  -12.4750 F   0  0  0  0  0  0  0  0  0  0  0  0
   -3.4230   31.8080  -14.2520 O   0  0  0  0  0  0  0  0  0  0  0  0
   -8.3030   26.8520  -10.3200 O   0  0  0  0  0  0  0  0  0  0  0  0
   -8.1450   25.8700  -11.3440 C   0  0  0  0  0  0  0  0  0  0  0  0
   -2.4110   30.3710  -15.8470 C   0  0  1  0  0  0  0  0  0  0  0  0
   -2.8100   28.9460  -16.2100 C   0  0  0  0  0  0  0  0  0  0  0  0
   -8.3060   26.4090  -14.5830 O   0  0  0  0  0  0  0  0  0  0  0  0
   -6.5950   25.0670  -14.1320 O   0  0  0  0  0  0  0  0  0  0  0  0
   -2.6670   31.3390  -16.9270 N   0  0  0  0  0  0  0  0  0  0  0  0
   -1.4580   31.7080  -17.6500 C   0  0  0  0  0  0  0  0  0  0  0  0
  2  1  1  1
  2  3  1  0
  2  4  1  0
  4  5  1  6
  6  3  1  6
  4  7  1  0
  5  8  1  0
  6  8  1  0
  7  9  1  0
  7 10  1  1
  6 11  1  0
  6 12  1  0
  9 13  1  6
  8 14  1  6
 12 15  2  0
 10 16  1  0
  9 17  1  0
 16 17  1  0
 12 18  1  0
 11 19  1  0
 18 19  1  0
 13 20  1  0
 13 21  2  0
 18 22  1  6
 22 23  1  0
M  END
