x0792_0_A-x0918_4_B
     RDKit          3D

 18 19  0  0  0  0  0  0  0  0999 V2000
    9.6420   23.4330   18.3210 C   0  0  0  0  0  0  0  0  0  0  0  0
    9.5080   22.2380   17.5490 O   0  0  0  0  0  0  0  0  0  0  0  0
   10.7250   21.4860   17.2400 C   0  0  0  0  0  0  0  0  0  0  0  0
    8.5920   24.5860   18.0610 C   0  0  2  0  0  0  0  0  0  0  0  0
    7.7820   25.0250   19.2630 C   0  0  0  0  0  0  0  0  0  0  0  0
    7.7140   24.6280   16.7790 C   0  0  0  0  0  0  0  0  0  0  0  0
   11.6030   22.2530   16.2250 C   0  0  0  0  0  0  0  0  0  0  0  0
    6.2600   24.9870   16.7270 N   0  0  0  0  0  0  0  0  0  0  0  0
    6.8270   26.1350   18.8090 C   0  0  1  0  0  0  0  0  0  0  0  0
    7.6480   27.1840   18.0590 C   0  0  0  0  0  0  0  0  0  0  0  0
    5.7100   25.6520   17.8920 C   0  0  0  0  0  0  0  0  0  0  0  0
   12.1650   21.5410   14.9740 C   0  0  0  0  0  0  0  0  0  0  0  0
   13.0310   22.2990   14.2040 C   0  0  0  0  0  0  0  0  0  0  0  0
   11.8610   20.2580   14.6150 N   0  0  0  0  0  0  0  0  0  0  0  0
   13.6110   21.7840   13.0630 C   0  0  0  0  0  0  0  0  0  0  0  0
   12.4390   19.7700   13.4800 C   0  0  0  0  0  0  0  0  0  0  0  0
   14.4830   22.5720   12.3220 N   0  0  0  0  0  0  0  0  0  0  0  0
   13.3090   20.4860   12.6830 C   0  0  0  0  0  0  0  0  0  0  0  0
  1  2  1  0
  2  3  1  0
  4  1  1  1
  4  5  1  0
  4  6  1  0
  3  7  1  0
  6  8  1  0
  5  9  1  0
  9 10  1  6
  8 11  1  0
  9 11  1  0
  7 12  1  0
 12 13  2  0
 12 14  1  0
 13 15  1  0
 14 16  2  0
 15 17  1  0
 15 18  2  0
 16 18  1  0
M  END
