x0797_0_B-x0380_0_B
     RDKit          3D

 21 22  0  0  0  0  0  0  0  0999 V2000
   -8.0440   30.2760  -14.9180 C   0  0  0  0  0  0  0  0  0  0  0  0
   -6.8830   29.6590  -14.1930 C   0  0  0  0  0  0  0  0  0  0  0  0
   -5.5920   29.9970  -14.6530 C   0  0  0  0  0  0  0  0  0  0  0  0
   -7.0000   28.7690  -13.1120 C   0  0  0  0  0  0  0  0  0  0  0  0
   -5.8300   28.2890  -12.5380 C   0  0  0  0  0  0  0  0  0  0  0  0
   -4.4310   29.4790  -14.0650 C   0  0  0  0  0  0  0  0  0  0  0  0
   -8.2840   28.2410  -12.4910 C   0  0  1  0  0  0  0  0  0  0  0  0
   -5.9830   27.2160  -11.2210 Cl  0  0  0  0  0  0  0  0  0  0  0  0
   -4.5550   28.6240  -12.9840 C   0  0  0  0  0  0  0  0  0  0  0  0
   -8.5520   26.7540  -12.7400 C   0  0  1  0  0  0  0  0  0  0  0  0
   -8.3800   28.3620  -10.9880 C   0  0  0  0  0  0  0  0  0  0  0  0
   -3.0950   29.8380  -14.6210 C   0  0  0  0  0  0  0  0  0  0  0  0
   -7.7060   26.1210  -13.8190 C   0  0  0  0  0  0  0  0  0  0  0  0
   -8.1690   27.0680  -10.4020 O   0  0  0  0  0  0  0  0  0  0  0  0
   -8.3700   26.0620  -11.3970 C   0  0  0  0  0  0  0  0  0  0  0  0
   -3.1120   31.1410  -15.3480 C   0  0  0  0  0  0  0  0  0  0  0  0
   -8.2310   26.3090  -15.0480 O   0  0  0  0  0  0  0  0  0  0  0  0
   -6.6630   25.4980  -13.6910 O   0  0  0  0  0  0  0  0  0  0  0  0
   -4.0220   31.9540  -15.2230 O   0  0  0  0  0  0  0  0  0  0  0  0
   -1.9370   31.3900  -16.2680 C   0  0  0  0  0  0  0  0  0  0  0  0
   -2.4390   31.7180  -17.5990 N   0  0  0  0  0  0  0  0  0  0  0  0
  1  2  1  0
  2  3  2  0
  2  4  1  0
  4  5  2  0
  3  6  1  0
  7  4  1  1
  5  8  1  0
  5  9  1  0
  6  9  2  0
  7 10  1  0
  7 11  1  0
  6 12  1  0
 10 13  1  6
 11 14  1  0
 10 15  1  0
 14 15  1  0
 12 16  1  0
 13 17  1  0
 13 18  2  0
 16 19  2  0
 16 20  1  0
 20 21  1  0
M  END
