x0792_0_A_α-x0228_1_A_β
     RDKit          3D

 21 22  0  0  0  0  0  0  0  0999 V2000
    8.8610   23.3080   18.4750 C   0  0  0  0  0  0  0  0  0  0  0  0
    9.4970   22.3080   17.6660 O   0  0  0  0  0  0  0  0  0  0  0  0
    8.4640   24.5670   17.6780 C   0  0  2  0  0  0  0  0  0  0  0  0
    7.7770   25.6270   18.4530 C   0  0  0  0  0  0  0  0  0  0  0  0
    7.6310   24.5060   16.4050 C   0  0  0  0  0  0  0  0  0  0  0  0
    6.2060   24.6410   16.4000 N   0  0  0  0  0  0  0  0  0  0  0  0
    7.1350   26.5320   17.3720 C   0  0  2  0  0  0  0  0  0  0  0  0
    6.8910   27.8880   17.9620 C   0  0  0  0  0  0  0  0  0  0  0  0
    5.8530   25.9530   16.7670 C   0  0  1  0  0  0  0  0  0  0  0  0
    5.1240   26.7370   15.6680 C   0  0  0  0  0  0  0  0  0  0  0  0
    3.8410   27.3360   16.2270 C   0  0  0  0  0  0  0  0  0  0  0  0
    2.6070   26.6850   15.7690 N   0  0  0  0  0  0  0  0  0  0  0  0
    1.5300   27.5790   15.6710 C   0  0  0  0  0  0  0  0  0  0  0  0
    1.7230   28.9040   16.0770 C   0  0  0  0  0  0  0  0  0  0  0  0
    0.2600   27.1970   15.1730 C   0  0  0  0  0  0  0  0  0  0  0  0
    0.1260   25.8780   14.7960 O   0  0  0  0  0  0  0  0  0  0  0  0
    0.7140   29.8540   15.9980 C   0  0  0  0  0  0  0  0  0  0  0  0
   -0.7610   28.1530   15.0920 C   0  0  0  0  0  0  0  0  0  0  0  0
   -1.1910   25.4380   14.4770 C   0  0  0  0  0  0  0  0  0  0  0  0
    0.9870   31.2590   16.4440 C   0  0  0  0  0  0  0  0  0  0  0  0
   -0.5320   29.4720   15.5010 C   0  0  0  0  0  0  0  0  0  0  0  0
  1  2  1  0
  3  1  1  1
  3  4  1  0
  3  5  1  0
  5  6  1  0
  4  7  1  0
  7  8  1  1
  6  9  1  0
  7  9  1  0
  9 10  1  6
 10 11  1  0
 11 12  1  0
 12 13  1  0
 13 14  2  0
 13 15  1  0
 15 16  1  0
 14 17  1  0
 15 18  2  0
 16 19  1  0
 17 20  1  0
 17 21  2  0
 18 21  1  0
M  END
