x0792_0_A_α-x0228_1_A_α
     RDKit          3D

 12 12  0  0  0  0  0  0  0  0999 V2000
    9.3210   24.1050   18.3050 C   0  0  0  0  0  0  0  0  0  0  0  0
    9.5310   22.9280   17.5290 O   0  0  0  0  0  0  0  0  0  0  0  0
    8.3380   25.1310   17.6680 C   0  0  2  0  0  0  0  0  0  0  0  0
    7.5440   26.0200   18.6310 C   0  0  0  0  0  0  0  0  0  0  0  0
    7.4080   24.5940   16.6110 C   0  0  0  0  0  0  0  0  0  0  0  0
    6.0120   24.6060   16.9300 N   0  0  0  0  0  0  0  0  0  0  0  0
    6.4850   26.8180   17.8360 C   0  0  1  0  0  0  0  0  0  0  0  0
    7.2330   27.8260   16.9740 C   0  0  0  0  0  0  0  0  0  0  0  0
    5.6090   25.9480   16.9060 C   0  0  2  0  0  0  0  0  0  0  0  0
    4.2200   25.9370   17.2050 N   0  0  0  0  0  0  0  0  0  0  0  0
    3.3490   26.4400   16.2800 C   0  0  0  0  0  0  0  0  0  0  0  0
    3.1480   27.6270   16.0720 O   0  0  0  0  0  0  0  0  0  0  0  0
  1  2  1  0
  3  1  1  1
  3  4  1  0
  3  5  1  0
  5  6  1  0
  4  7  1  0
  7  8  1  6
  6  9  1  0
  7  9  1  0
  9 10  1  1
 10 11  1  0
 11 12  2  0
M  END
