x0805_0_A_β-x0689_0_A_α
     RDKit          3D

 18 19  0  0  0  0  0  0  0  0999 V2000
    0.4900   12.6470   -3.1480 C   0  0  0  0  0  0  0  0  0  0  0  0
    0.3820   11.3930   -2.6550 O   0  0  0  0  0  0  0  0  0  0  0  0
    0.6650   13.6310   -2.3740 N   0  0  0  0  0  0  0  0  0  0  0  0
    0.3840   12.8100   -4.6080 C   0  0  1  0  0  0  0  0  0  0  0  0
    0.7460   13.4690   -0.9780 C   0  0  0  0  0  0  0  0  0  0  0  0
   -0.5130   14.0330   -4.8230 C   0  0  0  0  0  0  0  0  0  0  0  0
    1.7550   13.1270   -5.1510 C   0  0  0  0  0  0  0  0  0  0  0  0
    2.3230   14.1810   -4.3740 O   0  0  0  0  0  0  0  0  0  0  0  0
    0.0750   15.2910   -4.1590 C   0  0  0  0  0  0  0  0  0  0  0  0
   -0.4000   14.0080   -0.2370 C   0  0  0  0  0  0  0  0  0  0  0  0
    1.5770   15.4110   -4.3890 C   0  0  0  0  0  0  0  0  0  0  0  0
   -1.5130   14.4470   -0.8920 C   0  0  0  0  0  0  0  0  0  0  0  0
   -0.4520   14.0990    1.1330 C   0  0  0  0  0  0  0  0  0  0  0  0
   -2.5920   14.9310   -0.2750 N   0  0  0  0  0  0  0  0  0  0  0  0
   -1.5080   14.5730    1.7990 N   0  0  0  0  0  0  0  0  0  0  0  0
   -2.5460   14.9760    1.0580 C   0  0  0  0  0  0  0  0  0  0  0  0
   -3.6790   15.4850    1.6460 N   0  0  0  0  0  0  0  0  0  0  0  0
   -4.9070   14.9870    1.0920 C   0  0  0  0  0  0  0  0  0  0  0  0
  1  2  1  0
  1  3  2  3
  4  1  1  1
  3  5  1  0
  4  6  1  0
  4  7  1  0
  7  8  1  0
  6  9  1  0
  5 10  1  0
  8 11  1  0
  9 11  1  0
 10 12  2  0
 10 13  1  0
 12 14  1  0
 13 15  2  0
 14 16  2  0
 15 16  1  0
 16 17  1  0
 17 18  1  0
M  END
