x0805_0_A_α-x0662_0_A_β
     RDKit          3D

 20 21  0  0  0  0  0  0  0  0999 V2000
   -3.6120   15.8880   -0.3660 O   0  0  0  0  0  0  0  0  0  0  0  0
   -4.2280   15.5160    0.8590 C   0  0  0  0  0  0  0  0  0  0  0  0
   -3.2230   14.8740   -1.1900 C   0  0  0  0  0  0  0  0  0  0  0  0
   -4.2240   13.9490   -1.4730 C   0  0  0  0  0  0  0  0  0  0  0  0
   -1.9530   14.7010   -1.7440 C   0  0  0  0  0  0  0  0  0  0  0  0
   -1.6940   13.6170   -2.5610 C   0  0  0  0  0  0  0  0  0  0  0  0
   -3.9590   12.8570   -2.2920 C   0  0  0  0  0  0  0  0  0  0  0  0
   -2.6890   12.6860   -2.8350 C   0  0  0  0  0  0  0  0  0  0  0  0
   -2.4020   11.5060   -3.6950 C   0  0  0  0  0  0  0  0  0  0  0  0
   -0.9250   11.1120   -3.7390 C   0  0  0  0  0  0  0  0  0  0  0  0
   -0.7660   10.5780   -5.0570 N   0  0  0  0  0  0  0  0  0  0  0  0
   -0.0030   11.0680   -5.9480 C   0  0  0  0  0  0  0  0  0  0  0  0
    0.7710   12.0480   -5.9330 O   0  0  0  0  0  0  0  0  0  0  0  0
    0.0060   10.4090   -7.2680 C   0  0  0  0  0  0  0  0  0  0  0  0
    0.8290   10.8320   -8.2940 C   0  0  0  0  0  0  0  0  0  0  0  0
   -0.8620    9.3330   -7.4500 C   0  0  0  0  0  0  0  0  0  0  0  0
    0.7970   10.1880   -9.5330 C   0  0  0  0  0  0  0  0  0  0  0  0
   -0.9030    8.6800   -8.6730 C   0  0  0  0  0  0  0  0  0  0  0  0
    1.6170   10.6120  -10.5820 N   0  0  0  0  0  0  0  0  0  0  0  0
   -0.0760    9.1090   -9.7110 C   0  0  0  0  0  0  0  0  0  0  0  0
  1  2  1  0
  1  3  1  0
  3  4  2  0
  3  5  1  0
  5  6  2  0
  4  7  1  0
  6  8  1  0
  7  8  2  0
  8  9  1  0
  9 10  1  0
 10 11  1  0
 11 12  2  3
 12 13  1  0
 12 14  1  0
 14 15  2  0
 14 16  1  0
 15 17  1  0
 16 18  2  0
 17 19  1  0
 17 20  2  0
 18 20  1  0
M  CHG  1  13  -1
M  END
