x0805_0_A_β-x0681_0_A_α
     RDKit          3D

 22 24  0  0  0  0  0  0  0  0999 V2000
    0.5110   12.1160   -2.3510 C   0  0  0  0  0  0  0  0  0  0  0  0
    0.2760   10.9820   -3.0260 O   0  0  0  0  0  0  0  0  0  0  0  0
    0.4430   12.1760   -1.1470 O   0  0  0  0  0  0  0  0  0  0  0  0
    0.8340   13.3670   -3.0920 C   0  0  2  0  0  0  0  0  0  0  0  0
   -0.2710   14.4210   -3.1120 C   0  0  2  0  0  0  0  0  0  0  0  0
    1.4560   13.1460   -4.4550 C   0  0  0  0  0  0  0  0  0  0  0  0
   -1.6560   13.7430   -2.9760 C   0  0  0  0  0  0  0  0  0  0  0  0
    2.1990   14.3140   -4.7310 O   0  0  0  0  0  0  0  0  0  0  0  0
   -0.0470   15.2550   -4.3780 C   0  0  0  0  0  0  0  0  0  0  0  0
   -2.7590   14.6850   -3.1070 N   0  0  0  0  0  0  0  0  0  0  0  0
    1.4440   15.5260   -4.5940 C   0  0  0  0  0  0  0  0  0  0  0  0
   -3.5880   14.9200   -2.1280 C   0  0  0  0  0  0  0  0  0  0  0  0
   -4.6580   15.7550   -2.2170 N   0  0  0  0  0  0  0  0  0  0  0  0
   -3.4720   14.2730   -0.7350 C   0  0  2  0  0  0  0  0  0  0  0  0
   -4.5950   13.2950   -0.5620 C   0  0  0  0  0  0  0  0  0  0  0  0
   -3.4690   15.4240    0.2950 C   0  0  0  0  0  0  0  0  0  0  0  0
   -5.5600   13.4490    0.3890 N   0  0  0  0  0  0  0  0  0  0  0  0
   -4.1860   15.0950    1.5730 C   0  0  0  0  0  0  0  0  0  0  0  0
   -4.8220   12.2010   -1.2590 N   0  0  0  0  0  0  0  0  0  0  0  0
   -5.5900   14.5500    1.3000 C   0  0  0  0  0  0  0  0  0  0  0  0
   -6.4390   12.4160    0.3070 C   0  0  0  0  0  0  0  0  0  0  0  0
   -5.9610   11.6510   -0.7270 C   0  0  0  0  0  0  0  0  0  0  0  0
  1  2  1  0
  1  3  2  0
  4  1  1  6
  4  5  1  0
  4  6  1  0
  5  7  1  6
  6  8  1  0
  5  9  1  0
  7 10  1  0
  8 11  1  0
  9 11  1  0
 10 12  2  3
 12 13  1  0
 14 12  1  6
 14 15  1  0
 14 16  1  0
 15 17  1  0
 16 18  1  0
 15 19  2  0
 17 20  1  0
 18 20  1  0
 17 21  1  0
 19 22  1  0
 21 22  2  0
M  END
