x0805_0_A-x0685_0_A
     RDKit          3D

 28 30  0  0  0  0  0  0  0  0999 V2000
   -4.3270   15.8360   -0.3650 C   0  0  0  0  0  0  0  0  0  0  0  0
   -3.0150   15.4540   -0.7600 O   0  0  0  0  0  0  0  0  0  0  0  0
   -2.7700   14.6810   -1.8810 C   0  0  0  0  0  0  0  0  0  0  0  0
   -3.8050   13.9800   -2.5120 C   0  0  0  0  0  0  0  0  0  0  0  0
   -1.5310   14.5530   -2.4480 C   0  0  0  0  0  0  0  0  0  0  0  0
   -5.1430   14.0690   -2.0550 C   0  0  2  0  0  0  0  0  0  0  0  0
   -3.6240   13.1860   -3.6170 C   0  0  0  0  0  0  0  0  0  0  0  0
   -1.3600   13.7540   -3.5860 C   0  0  0  0  0  0  0  0  0  0  0  0
   -5.7560   15.1470   -2.8130 N   0  0  0  0  0  0  0  0  0  0  0  0
   -2.3980   13.0700   -4.1580 C   0  0  0  0  0  0  0  0  0  0  0  0
   -0.0210   13.6720   -4.1750 C   0  0  2  0  0  0  0  0  0  0  0  0
   -5.2540   14.3090   -0.6250 C   0  0  0  0  0  0  0  0  0  0  0  0
    1.0330   13.1750   -3.2410 C   0  0  1  0  0  0  0  0  0  0  0  0
    0.3950   15.0210   -4.6770 C   0  0  0  0  0  0  0  0  0  0  0  0
   -4.2110   14.2910    0.3120 C   0  0  0  0  0  0  0  0  0  0  0  0
   -6.5160   14.5710   -0.2190 C   0  0  0  0  0  0  0  0  0  0  0  0
    0.5760   12.0620   -2.3450 C   0  0  0  0  0  0  0  0  0  0  0  0
    2.2660   12.9050   -4.0270 C   0  0  0  0  0  0  0  0  0  0  0  0
    1.8320   15.2810   -4.3590 C   0  0  0  0  0  0  0  0  0  0  0  0
   -4.5260   14.5650    1.6240 C   0  0  0  0  0  0  0  0  0  0  0  0
   -6.8410   14.8230    1.0260 N   0  0  0  0  0  0  0  0  0  0  0  0
    0.3060   10.8770   -2.9420 O   0  0  0  0  0  0  0  0  0  0  0  0
    0.4420   12.2450   -1.1580 O   0  0  0  0  0  0  0  0  0  0  0  0
    2.7070   14.1420   -4.5400 O   0  0  0  0  0  0  0  0  0  0  0  0
   -5.8650   14.8300    1.9300 C   0  0  0  0  0  0  0  0  0  0  0  0
   -6.3790   15.1410    3.1670 N   0  0  0  0  0  0  0  0  0  0  0  0
   -7.8080   14.9290    3.2850 C   0  0  0  0  0  0  0  0  0  0  0  0
   -8.0950   13.4580    3.0610 C   0  0  0  0  0  0  0  0  0  0  0  0
  1  2  1  0
  2  3  1  0
  3  4  2  0
  3  5  1  0
  4  6  1  0
  4  7  1  0
  5  8  2  0
  6  9  1  6
  7 10  2  0
  8 10  1  0
 11  8  1  1
  6 12  1  0
 11 13  1  0
 11 14  1  0
 12 15  2  0
 12 16  1  0
 13 17  1  6
 13 18  1  0
 14 19  1  0
 15 20  1  0
 16 21  2  0
 17 22  1  0
 17 23  2  0
 18 24  1  0
 19 24  1  0
 20 25  2  0
 21 25  1  0
 25 26  1  0
 26 27  1  0
 27 28  1  0
M  END
