x0805_0_A_β-x0969_0_A_α
     RDKit          3D

 22 24  0  0  0  0  0  0  0  0999 V2000
    0.3770   12.1200   -2.5130 C   0  0  0  0  0  0  0  0  0  0  0  0
    0.1840   10.8530   -2.9000 O   0  0  0  0  0  0  0  0  0  0  0  0
    0.2710   12.3920   -1.2890 N   0  0  0  0  0  0  0  0  0  0  0  0
    0.7110   13.1590   -3.5260 C   0  0  2  0  0  0  0  0  0  0  0  0
    0.5120   13.8040   -0.9960 C   0  0  0  0  0  0  0  0  0  0  0  0
   -0.4250   13.8440   -4.2320 C   0  0  0  0  0  0  0  0  0  0  0  0
    1.8110   12.8940   -4.4880 C   0  0  0  0  0  0  0  0  0  0  0  0
   -0.7330   14.4650   -0.4670 C   0  0  0  0  0  0  0  0  0  0  0  0
    2.3710   14.1690   -4.7410 O   0  0  0  0  0  0  0  0  0  0  0  0
    0.0550   15.2680   -4.4550 C   0  0  0  0  0  0  0  0  0  0  0  0
   -1.8520   14.5830   -1.5170 C   0  0  0  0  0  0  0  0  0  0  0  0
    1.5890   15.3630   -4.4500 C   0  0  0  0  0  0  0  0  0  0  0  0
   -3.1780   14.7140   -0.8320 C   0  0  0  0  0  0  0  0  0  0  0  0
   -4.3870   14.6630   -1.4480 C   0  0  0  0  0  0  0  0  0  0  0  0
   -3.0690   14.8770    0.6100 C   0  0  0  0  0  0  0  0  0  0  0  0
   -5.5670   14.7010   -0.6470 C   0  0  0  0  0  0  0  0  0  0  0  0
   -4.1700   14.9200    1.3420 C   0  0  0  0  0  0  0  0  0  0  0  0
   -6.8500   14.6260   -0.9220 N   0  0  0  0  0  0  0  0  0  0  0  0
   -5.3970   14.8100    0.7230 N   0  0  0  0  0  0  0  0  0  0  0  0
   -6.6640   14.7720    1.2540 C   0  0  0  0  0  0  0  0  0  0  0  0
   -7.5380   14.6670    0.2770 N   0  0  0  0  0  0  0  0  0  0  0  0
   -6.9100   14.8400    2.5850 N   0  0  0  0  0  0  0  0  0  0  0  0
  1  2  1  0
  1  3  2  3
  4  1  1  6
  3  5  1  0
  4  6  1  0
  4  7  1  0
  5  8  1  0
  7  9  1  0
  6 10  1  0
  8 11  1  0
  9 12  1  0
 10 12  1  0
 11 13  1  0
 13 14  2  0
 13 15  1  0
 14 16  1  0
 15 17  2  0
 16 18  2  0
 16 19  1  0
 17 19  1  0
 19 20  1  0
 18 21  1  0
 20 21  2  0
 20 22  1  0
M  END
