x0805_0_A_β-x0524_0_A_α
     RDKit          3D

 29 31  0  0  0  0  0  0  0  0999 V2000
    0.6230   12.1820   -2.3440 C   0  0  0  0  0  0  0  0  0  0  0  0
    0.5340   10.9680   -2.9510 O   0  0  0  0  0  0  0  0  0  0  0  0
   -0.1060   10.9710   -4.2370 C   0  0  0  0  0  0  0  0  0  0  0  0
    0.5450   12.3820   -1.1510 O   0  0  0  0  0  0  0  0  0  0  0  0
    0.8430   13.3340   -3.2530 C   0  0  2  0  0  0  0  0  0  0  0  0
   -0.4020   14.0530   -3.7180 C   0  0  0  0  0  0  0  0  0  0  0  0
    1.7460   13.0670   -4.4150 C   0  0  0  0  0  0  0  0  0  0  0  0
    0.9260   10.5350   -5.2670 C   0  0  0  0  0  0  0  0  0  0  0  0
    2.4060   14.2940   -4.6190 O   0  0  0  0  0  0  0  0  0  0  0  0
    0.0660   15.2720   -4.4800 C   0  0  0  0  0  0  0  0  0  0  0  0
    0.5990   11.0110   -6.6750 C   0  0  0  0  0  0  0  0  0  0  0  0
    1.5860   15.4730   -4.4310 C   0  0  0  0  0  0  0  0  0  0  0  0
   -0.7730   10.6290   -6.9260 N   0  0  0  0  0  0  0  0  0  0  0  0
   -1.0800    9.4960   -7.4420 C   0  0  0  0  0  0  0  0  0  0  0  0
   -0.2410    8.4910   -7.8660 N   0  0  0  0  0  0  0  0  0  0  0  0
   -2.5720    9.2720   -7.5610 C   0  0  0  0  0  0  0  0  0  0  0  0
    0.7360    8.5230   -8.8970 C   0  0  0  0  0  0  0  0  0  0  0  0
    1.9020    7.7670   -8.8270 C   0  0  0  0  0  0  0  0  0  0  0  0
    0.5440    9.3290  -10.0320 C   0  0  0  0  0  0  0  0  0  0  0  0
    2.8520    7.8070   -9.8520 C   0  0  0  0  0  0  0  0  0  0  0  0
    1.5020    9.3690  -11.0640 C   0  0  0  0  0  0  0  0  0  0  0  0
    2.6750    8.6000  -10.9830 C   0  0  0  0  0  0  0  0  0  0  0  0
    3.6360    8.6320  -12.0110 N   0  0  0  0  0  0  0  0  0  0  0  0
    3.9350    9.5230  -13.0580 C   0  0  0  0  0  0  0  0  0  0  0  0
    3.1740   10.6880  -13.2400 C   0  0  0  0  0  0  0  0  0  0  0  0
    4.9910    9.2830  -13.9400 C   0  0  0  0  0  0  0  0  0  0  0  0
    3.4630   11.5800  -14.2760 C   0  0  0  0  0  0  0  0  0  0  0  0
    5.2830   10.1720  -14.9760 C   0  0  0  0  0  0  0  0  0  0  0  0
    4.5190   11.3180  -15.1430 C   0  0  0  0  0  0  0  0  0  0  0  0
  1  2  1  0
  2  3  1  0
  1  4  2  0
  5  1  1  6
  5  6  1  0
  5  7  1  0
  3  8  1  0
  7  9  1  0
  6 10  1  0
  8 11  1  0
  9 12  1  0
 10 12  1  0
 11 13  1  0
 13 14  2  3
 14 15  1  0
 14 16  1  0
 15 17  1  0
 17 18  2  0
 17 19  1  0
 18 20  1  0
 19 21  2  0
 20 22  2  0
 21 22  1  0
 22 23  1  0
 23 24  1  0
 24 25  2  0
 24 26  1  0
 25 27  1  0
 26 28  2  0
 27 29  2  0
 28 29  1  0
M  END
