x0805_0_A_α-x0662_0_A_α
     RDKit          3D

 23 24  0  0  0  0  0  0  0  0999 V2000
   -3.0570   15.3480   -0.2060 O   0  0  0  0  0  0  0  0  0  0  0  0
   -4.3190   15.5210    0.4260 C   0  0  0  0  0  0  0  0  0  0  0  0
   -2.9870   14.5690   -1.3300 C   0  0  0  0  0  0  0  0  0  0  0  0
   -3.9850   13.7430   -1.8510 C   0  0  0  0  0  0  0  0  0  0  0  0
   -1.7650   14.6400   -1.9960 C   0  0  0  0  0  0  0  0  0  0  0  0
   -1.5240   13.9130   -3.1590 C   0  0  0  0  0  0  0  0  0  0  0  0
   -3.7470   13.0060   -3.0230 C   0  0  0  0  0  0  0  0  0  0  0  0
   -2.5110   13.0810   -3.6960 C   0  0  0  0  0  0  0  0  0  0  0  0
   -2.2340   12.2970   -4.9670 C   0  0  0  0  0  0  0  0  0  0  0  0
   -0.8130   11.7010   -5.0770 C   0  0  0  0  0  0  0  0  0  0  0  0
   -0.0380   11.9940   -6.3830 C   0  0  0  0  0  0  0  0  0  0  0  0
   -0.5170   11.1850   -7.5990 C   0  0  0  0  0  0  0  0  0  0  0  0
    0.6180   10.5370   -8.4200 C   0  0  0  0  0  0  0  0  0  0  0  0
    0.8040   11.0410   -9.8690 C   0  0  0  0  0  0  0  0  0  0  0  0
    0.7110   10.0010  -10.9940 C   0  0  0  0  0  0  0  0  0  0  0  0
    2.0450    9.3650  -11.3990 C   0  0  0  0  0  0  0  0  0  0  0  0
    2.4860    8.3910  -10.7870 O   0  0  0  0  0  0  0  0  0  0  0  0
    2.8080    9.9150  -12.5430 C   0  0  0  0  0  0  0  0  0  0  0  0
    3.7610    9.2010  -13.1740 N   0  0  0  0  0  0  0  0  0  0  0  0
    2.6830   11.2060  -13.1330 C   0  0  0  0  0  0  0  0  0  0  0  0
    4.2240   10.0220  -14.1350 N   0  0  0  0  0  0  0  0  0  0  0  0
    3.6070   11.2390  -14.1510 C   0  0  0  0  0  0  0  0  0  0  0  0
    5.2760    9.5630  -15.0110 C   0  0  0  0  0  0  0  0  0  0  0  0
  1  2  1  0
  1  3  1  0
  3  4  2  0
  3  5  1  0
  5  6  2  0
  4  7  1  0
  6  8  1  0
  7  8  2  0
  8  9  1  0
  9 10  1  0
 10 11  1  0
 11 12  1  0
 12 13  1  0
 13 14  1  0
 14 15  1  0
 15 16  1  0
 16 17  2  0
 16 18  1  0
 18 19  2  0
 18 20  1  0
 19 21  1  0
 20 22  2  0
 21 22  1  0
 21 23  1  0
M  END
