x0805_0_A-x0727_0_A
     RDKit          3D

 27 29  0  0  0  0  0  0  0  0999 V2000
   -4.5340   15.2980    0.8200 C   0  0  0  0  0  0  0  0  0  0  0  0
   -3.2700   15.4280    0.1940 O   0  0  0  0  0  0  0  0  0  0  0  0
   -3.0530   14.8000   -0.9980 C   0  0  0  0  0  0  0  0  0  0  0  0
   -4.1310   14.1320   -1.5800 C   0  0  0  0  0  0  0  0  0  0  0  0
   -1.8290   14.7980   -1.6450 C   0  0  0  0  0  0  0  0  0  0  0  0
   -3.9730   13.4740   -2.8020 C   0  0  0  0  0  0  0  0  0  0  0  0
   -1.6430   14.1600   -2.8600 C   0  0  0  0  0  0  0  0  0  0  0  0
   -2.7310   13.4900   -3.4420 C   0  0  0  0  0  0  0  0  0  0  0  0
   -0.2610   14.2290   -3.4780 C   0  0  2  0  0  0  0  0  0  0  0  0
    0.7190   13.1900   -2.8740 C   0  0  1  0  0  0  0  0  0  0  0  0
    0.3440   15.6170   -3.5160 C   0  0  0  0  0  0  0  0  0  0  0  0
    0.2200   11.8780   -3.3910 C   0  0  0  0  0  0  0  0  0  0  0  0
    2.1710   13.4400   -3.3160 C   0  0  0  0  0  0  0  0  0  0  0  0
    1.6800   15.5830   -4.2140 C   0  0  0  0  0  0  0  0  0  0  0  0
    0.7610   10.7480   -2.7450 O   0  0  0  0  0  0  0  0  0  0  0  0
   -1.1230   11.8130   -3.0300 O   0  0  0  0  0  0  0  0  0  0  0  0
    0.5410   11.9330   -4.9440 C   0  0  1  0  0  0  0  0  0  0  0  0
    2.1930   14.2780   -4.4550 O   0  0  0  0  0  0  0  0  0  0  0  0
   -0.0230   10.9290   -5.8180 N   0  0  0  0  0  0  0  0  0  0  0  0
    0.3380   13.2860   -5.6350 C   0  0  0  0  0  0  0  0  0  0  0  0
    0.5950   10.7870   -7.0290 C   0  0  0  0  0  0  0  0  0  0  0  0
    1.4880   11.5240   -7.3830 O   0  0  0  0  0  0  0  0  0  0  0  0
    0.0840    9.6370   -7.8730 C   0  0  0  0  0  0  0  0  0  0  0  0
   -1.2440    9.9780   -8.5420 C   0  0  0  0  0  0  0  0  0  0  0  0
   -0.2130    8.3690   -7.0630 C   0  0  0  0  0  0  0  0  0  0  0  0
   -2.3350    9.2740   -7.7320 C   0  0  0  0  0  0  0  0  0  0  0  0
   -1.6340    8.5640   -6.5810 C   0  0  0  0  0  0  0  0  0  0  0  0
  1  2  1  0
  2  3  1  0
  3  4  2  0
  3  5  1  0
  4  6  1  0
  5  7  2  0
  6  8  2  0
  7  8  1  0
  9  7  1  1
  9 10  1  0
  9 11  1  0
 10 12  1  6
 10 13  1  0
 11 14  1  0
 12 15  1  0
 12 16  1  0
 12 17  1  0
 13 18  1  0
 14 18  1  0
 17 19  1  0
 17 20  1  6
 19 21  1  0
 21 22  2  0
 21 23  1  0
 23 24  1  0
 23 25  1  0
 24 26  1  0
 25 27  1  0
 26 27  1  0
M  END
