x0805_0_A_β-x1012_0_A_α
     RDKit          3D

 12 12  0  0  0  0  0  0  0  0999 V2000
    0.4810   12.3510   -2.8720 C   0  0  0  0  0  0  0  0  0  0  0  0
    0.1590   11.0370   -2.8450 O   0  0  0  0  0  0  0  0  0  0  0  0
    0.8090   12.9450   -1.8590 O   0  0  0  0  0  0  0  0  0  0  0  0
    0.3930   12.9520   -4.2600 C   0  0  1  0  0  0  0  0  0  0  0  0
   -0.5910   14.1450   -4.3350 C   0  0  0  0  0  0  0  0  0  0  0  0
    1.7630   13.3530   -4.7960 C   0  0  0  0  0  0  0  0  0  0  0  0
    2.2600   14.4950   -4.1000 O   0  0  0  0  0  0  0  0  0  0  0  0
    0.0220   15.5130   -3.9410 C   0  0  2  0  0  0  0  0  0  0  0  0
   -0.8100   16.6970   -4.5110 C   0  0  0  0  0  0  0  0  0  0  0  0
    1.4780   15.6570   -4.3880 C   0  0  0  0  0  0  0  0  0  0  0  0
   -0.1290   17.8650   -4.6990 N   0  0  0  0  0  0  0  0  0  0  0  0
   -2.0220   16.6520   -4.7660 O   0  0  0  0  0  0  0  0  0  0  0  0
  1  2  1  0
  1  3  2  0
  4  1  1  1
  4  5  1  0
  4  6  1  0
  6  7  1  0
  5  8  1  0
  8  9  1  6
  7 10  1  0
  8 10  1  0
  9 11  1  0
  9 12  2  0
M  END
