x0805_0_A_β-x0104_0_A_β
     RDKit          3D

 20 21  0  0  0  0  0  0  0  0999 V2000
    0.4400   12.1610   -2.3460 C   0  0  0  0  0  0  0  0  0  0  0  0
    0.1590   10.9750   -2.9180 O   0  0  0  0  0  0  0  0  0  0  0  0
    0.3760   12.3080   -1.1500 O   0  0  0  0  0  0  0  0  0  0  0  0
    0.8080   13.2520   -3.2920 C   0  0  2  0  0  0  0  0  0  0  0  0
   -0.3790   13.8940   -3.9810 C   0  0  1  0  0  0  0  0  0  0  0  0
    1.8690   12.8980   -4.2910 C   0  0  0  0  0  0  0  0  0  0  0  0
   -1.5870   13.8430   -3.0430 C   0  0  0  0  0  0  0  0  0  0  0  0
    2.3510   14.1250   -4.7840 O   0  0  0  0  0  0  0  0  0  0  0  0
    0.1140   15.2890   -4.3230 C   0  0  0  0  0  0  0  0  0  0  0  0
   -2.9090   14.3400   -3.6100 C   0  0  0  0  0  0  0  0  0  0  0  0
    1.6460   15.3300   -4.3880 C   0  0  0  0  0  0  0  0  0  0  0  0
   -3.6310   15.2730   -2.6670 C   0  0  0  0  0  0  0  0  0  0  0  0
   -4.9520   14.7950   -2.4830 O   0  0  0  0  0  0  0  0  0  0  0  0
   -5.3590   14.7890   -1.1720 C   0  0  0  0  0  0  0  0  0  0  0  0
   -4.4620   14.8550   -0.1640 N   0  0  0  0  0  0  0  0  0  0  0  0
   -6.7260   14.7070   -0.9890 C   0  0  0  0  0  0  0  0  0  0  0  0
   -4.9800   14.8450    1.0850 C   0  0  0  0  0  0  0  0  0  0  0  0
   -7.2210   14.6920    0.3050 C   0  0  0  0  0  0  0  0  0  0  0  0
   -6.3470   14.7640    1.3780 C   0  0  0  0  0  0  0  0  0  0  0  0
   -6.8320   14.7620    2.6820 N   0  0  0  0  0  0  0  0  0  0  0  0
  1  2  1  0
  1  3  2  0
  4  1  1  6
  4  5  1  0
  4  6  1  0
  5  7  1  1
  6  8  1  0
  5  9  1  0
  7 10  1  0
  8 11  1  0
  9 11  1  0
 10 12  1  0
 12 13  1  0
 13 14  1  0
 14 15  2  0
 14 16  1  0
 15 17  1  0
 16 18  2  0
 17 19  2  0
 18 19  1  0
 19 20  1  0
M  END
