x0805_0_A-x0950_1_A
     RDKit          3D

 20 21  0  0  0  0  0  0  0  0999 V2000
   -4.3070   14.8130    1.0610 C   0  0  0  0  0  0  0  0  0  0  0  0
   -3.8150   15.5230   -0.0610 O   0  0  0  0  0  0  0  0  0  0  0  0
   -3.3050   14.8310   -1.1280 C   0  0  0  0  0  0  0  0  0  0  0  0
   -4.1960   14.0820   -1.8960 C   0  0  0  0  0  0  0  0  0  0  0  0
   -1.9760   14.8460   -1.4810 C   0  0  0  0  0  0  0  0  0  0  0  0
   -3.7300   13.3730   -3.0090 C   0  0  0  0  0  0  0  0  0  0  0  0
   -1.4750   14.1770   -2.5710 C   0  0  0  0  0  0  0  0  0  0  0  0
   -2.3710   13.4200   -3.3560 C   0  0  0  0  0  0  0  0  0  0  0  0
    0.0220   14.3440   -2.8130 C   0  0  1  0  0  0  0  0  0  0  0  0
    0.9760   13.1270   -2.7880 C   0  0  1  0  0  0  0  0  0  0  0  0
    0.2680   15.3260   -3.9790 C   0  0  0  0  0  0  0  0  0  0  0  0
    0.4550   11.8980   -3.4580 C   0  0  0  0  0  0  0  0  0  0  0  0
    2.3790   13.4340   -3.3230 C   0  0  0  0  0  0  0  0  0  0  0  0
    1.7300   15.4910   -4.3310 C   0  0  0  0  0  0  0  0  0  0  0  0
    0.9790   10.7280   -2.8670 O   0  0  0  0  0  0  0  0  0  0  0  0
   -0.9040   11.8150   -3.1730 O   0  0  0  0  0  0  0  0  0  0  0  0
    0.7770   11.9590   -4.9790 C   0  0  2  0  0  0  0  0  0  0  0  0
    2.3750   14.2370   -4.4900 O   0  0  0  0  0  0  0  0  0  0  0  0
    0.6560   13.3300   -5.6030 C   0  0  0  0  0  0  0  0  0  0  0  0
   -0.1710   11.1250   -5.6560 O   0  0  0  0  0  0  0  0  0  0  0  0
  1  2  1  0
  2  3  1  0
  3  4  2  0
  3  5  1  0
  4  6  1  0
  5  7  2  0
  6  8  2  0
  7  8  1  0
  9  7  1  6
  9 10  1  0
  9 11  1  0
 10 12  1  6
 10 13  1  0
 11 14  1  0
 12 15  1  0
 12 16  1  0
 12 17  1  0
 13 18  1  0
 14 18  1  0
 17 19  1  6
 17 20  1  0
M  END
