x0805_0_A_β-x0711_0_A_α
     RDKit          3D

 22 23  0  0  0  0  0  0  0  0999 V2000
    0.4360   12.1470   -3.2150 C   0  0  0  0  0  0  0  0  0  0  0  0
    0.8800   11.0190   -2.5610 O   0  0  0  0  0  0  0  0  0  0  0  0
   -0.4920   12.7160   -2.7770 N   0  0  0  0  0  0  0  0  0  0  0  0
    1.0680   12.6390   -4.4680 C   0  0  1  0  0  0  0  0  0  0  0  0
   -1.3360   13.9840   -3.2500 S   0  0  0  0  0  0  0  0  0  0  0  0
    0.2340   13.7980   -4.9970 C   0  0  0  0  0  0  0  0  0  0  0  0
    2.5050   13.0370   -4.3290 C   0  0  0  0  0  0  0  0  0  0  0  0
   -1.7230   15.0100   -1.9350 N   0  0  0  0  0  0  0  0  0  0  0  0
   -2.8950   13.2300   -3.9090 C   0  0  0  0  0  0  0  0  0  0  0  0
   -0.5670   14.8500   -4.5290 O   0  0  0  0  0  0  0  0  0  0  0  0
    2.6890   14.2510   -3.6210 O   0  0  0  0  0  0  0  0  0  0  0  0
    0.4750   14.9170   -3.9840 C   0  0  0  0  0  0  0  0  0  0  0  0
    1.8810   15.2870   -4.1280 C   0  0  0  0  0  0  0  0  0  0  0  0
   -2.9450   14.9250   -1.3370 C   0  0  0  0  0  0  0  0  0  0  0  0
   -4.1080   15.2040   -2.0670 C   0  0  0  0  0  0  0  0  0  0  0  0
   -3.0650   14.5730   -0.0410 C   0  0  0  0  0  0  0  0  0  0  0  0
   -5.3280   15.1110   -1.4580 C   0  0  0  0  0  0  0  0  0  0  0  0
   -4.2880   14.4800    0.5700 C   0  0  0  0  0  0  0  0  0  0  0  0
   -5.4410   14.7420   -0.1220 C   0  0  0  0  0  0  0  0  0  0  0  0
   -6.7480   14.6360    0.5250 C   0  0  0  0  0  0  0  0  0  0  0  0
   -6.8120   14.6080    1.9390 N   0  0  0  0  0  0  0  0  0  0  0  0
   -7.7490   14.5760   -0.2070 O   0  0  0  0  0  0  0  0  0  0  0  0
  1  2  1  0
  1  3  2  3
  4  1  1  1
  3  5  1  0
  4  6  1  0
  4  7  1  0
  5  8  1  0
  5  9  1  0
  5 10  2  0
  7 11  1  0
  6 12  1  0
 11 13  1  0
 12 13  1  0
  8 14  1  0
 14 15  2  0
 14 16  1  0
 15 17  1  0
 16 18  2  0
 17 19  2  0
 18 19  1  0
 19 20  1  0
 20 21  1  0
 20 22  2  0
M  END
