x0805_0_A_β-x0159_0_B_β
     RDKit          3D

 24 26  0  0  0  0  0  0  0  0999 V2000
    0.6530   11.8430   -2.7310 C   0  0  0  0  0  0  0  0  0  0  0  0
    0.5800   10.6870   -3.4640 O   0  0  0  0  0  0  0  0  0  0  0  0
   -0.3190   10.6220   -4.5980 C   0  0  0  0  0  0  0  0  0  0  0  0
    0.5950   11.9390   -1.5140 O   0  0  0  0  0  0  0  0  0  0  0  0
    0.8610   13.0970   -3.5130 C   0  0  2  0  0  0  0  0  0  0  0  0
   -0.3690   13.8540   -3.9330 C   0  0  0  0  0  0  0  0  0  0  0  0
    1.8480   13.0400   -4.6290 C   0  0  0  0  0  0  0  0  0  0  0  0
    0.4610   10.4960   -5.9280 C   0  0  0  0  0  0  0  0  0  0  0  0
    2.4700   14.2990   -4.5290 O   0  0  0  0  0  0  0  0  0  0  0  0
    0.0930   15.2920   -4.0970 C   0  0  0  0  0  0  0  0  0  0  0  0
    0.0200    9.3620   -6.9030 C   0  0  0  0  0  0  0  0  0  0  0  0
    1.5930   15.4560   -4.4470 C   0  0  0  0  0  0  0  0  0  0  0  0
    1.1810    8.6680   -7.6500 C   0  0  0  0  0  0  0  0  0  0  0  0
    0.9450    8.3210   -9.1360 C   0  0  0  0  0  0  0  0  0  0  0  0
    1.1820    9.5050   -9.9530 N   0  0  0  0  0  0  0  0  0  0  0  0
    2.0310    9.5510  -11.0240 C   0  0  0  0  0  0  0  0  0  0  0  0
    1.9340   10.6570  -11.8230 N   0  0  0  0  0  0  0  0  0  0  0  0
    2.9690    8.7310  -11.4700 N   0  0  0  0  0  0  0  0  0  0  0  0
    2.8560   10.5690  -12.8290 C   0  0  0  0  0  0  0  0  0  0  0  0
    3.4970    9.3580  -12.5940 C   0  0  0  0  0  0  0  0  0  0  0  0
    3.1640   11.4310  -13.8820 C   0  0  0  0  0  0  0  0  0  0  0  0
    4.5260    8.9710  -13.4710 C   0  0  0  0  0  0  0  0  0  0  0  0
    4.1900   11.0280  -14.7390 C   0  0  0  0  0  0  0  0  0  0  0  0
    4.8630    9.8170  -14.5390 C   0  0  0  0  0  0  0  0  0  0  0  0
  1  2  1  0
  2  3  1  0
  1  4  2  0
  5  1  1  6
  5  6  1  0
  5  7  1  0
  3  8  1  0
  7  9  1  0
  6 10  1  0
  8 11  1  0
  9 12  1  0
 10 12  1  0
 11 13  1  0
 13 14  1  0
 14 15  1  0
 15 16  1  0
 16 17  1  0
 16 18  2  0
 17 19  1  0
 18 20  1  0
 19 20  2  0
 19 21  1  0
 20 22  1  0
 21 23  2  0
 22 24  2  0
 23 24  1  0
M  END
