x0805_0_A_α-x0967_0_A_α
     RDKit          3D

 17 19  0  0  0  0  0  0  0  0999 V2000
   -1.9460   16.0250   -1.0370 O   0  0  0  0  0  0  0  0  0  0  0  0
   -2.1000   15.1060   -2.0460 C   0  0  0  0  0  0  0  0  0  0  0  0
   -3.1750   14.2720   -2.0070 C   0  0  0  0  0  0  0  0  0  0  0  0
   -1.1770   15.0350   -3.0690 C   0  0  0  0  0  0  0  0  0  0  0  0
   -1.3490   14.0900   -4.0820 C   0  0  0  0  0  0  0  0  0  0  0  0
   -3.3590   13.3200   -3.0200 C   0  0  0  0  0  0  0  0  0  0  0  0
   -4.0430   14.4280   -0.9060 C   0  0  0  0  0  0  0  0  0  0  0  0
   -2.4430   13.2280   -4.0610 C   0  0  0  0  0  0  0  0  0  0  0  0
   -5.3510   14.3660   -1.1630 N   0  0  0  0  0  0  0  0  0  0  0  0
   -3.5060   14.6320    0.3410 C   0  0  0  0  0  0  0  0  0  0  0  0
   -6.1810   14.4930   -0.1590 C   0  0  0  0  0  0  0  0  0  0  0  0
   -4.3470   14.7690    1.3900 C   0  0  0  0  0  0  0  0  0  0  0  0
   -7.4760   14.4210   -0.4230 N   0  0  0  0  0  0  0  0  0  0  0  0
   -5.7070   14.6940    1.1480 C   0  0  0  0  0  0  0  0  0  0  0  0
   -6.6180   14.8150    2.1870 C   0  0  0  0  0  0  0  0  0  0  0  0
   -8.3420   14.5430    0.5970 C   0  0  0  0  0  0  0  0  0  0  0  0
   -7.9680   14.7380    1.9080 C   0  0  0  0  0  0  0  0  0  0  0  0
  1  2  1  0
  2  3  2  0
  2  4  1  0
  4  5  2  0
  3  6  1  0
  3  7  1  0
  5  8  1  0
  6  8  2  0
  7  9  2  0
  7 10  1  0
  9 11  1  0
 10 12  2  0
 11 13  2  0
 11 14  1  0
 12 14  1  0
 14 15  2  0
 13 16  1  0
 15 17  1  0
 16 17  2  0
M  END
