x0805_0_A_β-x0471_0_A_α
     RDKit          3D

 28 30  0  0  0  0  0  0  0  0999 V2000
    0.4080   12.1300   -2.3900 C   0  0  0  0  0  0  0  0  0  0  0  0
    0.4180   10.8970   -2.9240 O   0  0  0  0  0  0  0  0  0  0  0  0
    0.1410   12.3880   -1.1880 N   0  0  0  0  0  0  0  0  0  0  0  0
    0.7460   13.2470   -3.3070 C   0  0  2  0  0  0  0  0  0  0  0  0
    0.1290   13.7460   -0.6810 C   0  0  0  0  0  0  0  0  0  0  0  0
   -0.4620   13.9540   -3.8750 C   0  0  0  0  0  0  0  0  0  0  0  0
    1.7030   12.9190   -4.4110 C   0  0  0  0  0  0  0  0  0  0  0  0
   -0.8240   13.7290    0.5000 C   0  0  0  0  0  0  0  0  0  0  0  0
    2.2250   14.1560   -4.8610 O   0  0  0  0  0  0  0  0  0  0  0  0
    0.0380   15.2970   -4.3540 C   0  0  0  0  0  0  0  0  0  0  0  0
   -1.5600   15.0100    0.8180 C   0  0  0  0  0  0  0  0  0  0  0  0
    1.5630   15.3520   -4.3870 C   0  0  0  0  0  0  0  0  0  0  0  0
   -2.9970   15.0330    0.3070 C   0  0  0  0  0  0  0  0  0  0  0  0
   -3.3770   15.2770   -1.0390 C   0  0  0  0  0  0  0  0  0  0  0  0
   -3.9990   14.7840    1.2420 C   0  0  0  0  0  0  0  0  0  0  0  0
   -5.3350   14.7710    0.8530 C   0  0  0  0  0  0  0  0  0  0  0  0
   -4.7260   15.2740   -1.4530 C   0  0  0  0  0  0  0  0  0  0  0  0
   -6.4460   14.5410    1.6160 N   0  0  0  0  0  0  0  0  0  0  0  0
   -5.6790   15.0100   -0.4680 C   0  0  0  0  0  0  0  0  0  0  0  0
   -7.0570   14.9150   -0.4750 N   0  0  0  0  0  0  0  0  0  0  0  0
   -7.4700   14.6290    0.8090 C   0  0  0  0  0  0  0  0  0  0  0  0
   -8.8930   14.4530    1.2070 C   0  0  0  0  0  0  0  0  0  0  0  0
   -8.9760   14.1070    2.6170 N   0  0  0  0  0  0  0  0  0  0  0  0
   -9.0140   14.9640    3.6870 C   0  0  0  0  0  0  0  0  0  0  0  0
   -9.3020   16.1430    3.4660 O   0  0  0  0  0  0  0  0  0  0  0  0
   -8.7170   14.4370    5.0890 C   0  0  0  0  0  0  0  0  0  0  0  0
   -9.9480   13.7000    5.6220 C   0  0  0  0  0  0  0  0  0  0  0  0
   -8.3350   15.5840    6.0270 C   0  0  0  0  0  0  0  0  0  0  0  0
  1  2  1  0
  1  3  2  3
  4  1  1  6
  3  5  1  0
  4  6  1  0
  4  7  1  0
  5  8  1  0
  7  9  1  0
  6 10  1  0
  8 11  1  0
  9 12  1  0
 10 12  1  0
 11 13  1  0
 13 14  2  0
 13 15  1  0
 15 16  2  0
 14 17  1  0
 16 18  1  0
 16 19  1  0
 17 19  2  0
 19 20  1  0
 18 21  2  0
 20 21  1  0
 21 22  1  0
 22 23  1  0
 23 24  1  0
 24 25  2  0
 24 26  1  0
 26 27  1  0
 26 28  1  0
M  END
