x0805_0_A_α-x0438_0_A_α
     RDKit          3D

 21 23  0  0  0  0  0  0  0  0999 V2000
   -1.9230   16.1260   -0.9180 O   0  0  0  0  0  0  0  0  0  0  0  0
   -2.0430   15.2450   -1.9590 C   0  0  0  0  0  0  0  0  0  0  0  0
   -3.1120   14.4120   -2.0390 C   0  0  0  0  0  0  0  0  0  0  0  0
   -1.0670   15.2040   -2.9220 C   0  0  0  0  0  0  0  0  0  0  0  0
   -1.1930   14.2950   -3.9790 C   0  0  0  0  0  0  0  0  0  0  0  0
   -3.2660   13.4990   -3.0800 C   0  0  0  0  0  0  0  0  0  0  0  0
   -4.0370   14.5070   -1.0180 C   0  0  0  0  0  0  0  0  0  0  0  0
   -2.2950   13.4390   -4.0630 C   0  0  0  0  0  0  0  0  0  0  0  0
   -5.3620   14.3010   -1.2980 C   0  0  0  0  0  0  0  0  0  0  0  0
   -3.5450   14.7930    0.2550 C   0  0  0  0  0  0  0  0  0  0  0  0
   -6.1890   14.3640   -0.2230 C   0  0  0  0  0  0  0  0  0  0  0  0
   -4.3990   14.8640    1.3250 C   0  0  0  0  0  0  0  0  0  0  0  0
   -7.5250   14.1890   -0.1230 N   0  0  0  0  0  0  0  0  0  0  0  0
   -5.7500   14.6310    1.0660 C   0  0  0  0  0  0  0  0  0  0  0  0
   -7.8480   14.3350    1.1930 C   0  0  0  0  0  0  0  0  0  0  0  0
   -6.8010   14.6150    1.9250 N   0  0  0  0  0  0  0  0  0  0  0  0
   -9.2240   14.1750    1.6720 C   0  0  0  0  0  0  0  0  0  0  0  0
   -9.6710   15.5150    2.7420 S   0  0  0  0  0  0  0  0  0  0  0  0
   -8.3830   15.6620    3.9710 C   0  0  0  0  0  0  0  0  0  0  0  0
  -10.8920   15.1120    3.4150 O   0  0  0  0  0  0  0  0  0  0  0  0
   -9.6760   16.6990    1.9170 O   0  0  0  0  0  0  0  0  0  0  0  0
  1  2  1  0
  2  3  2  0
  2  4  1  0
  4  5  2  0
  3  6  1  0
  3  7  1  0
  5  8  1  0
  6  8  2  0
  7  9  2  0
  7 10  1  0
  9 11  1  0
 10 12  2  0
 11 13  1  0
 11 14  2  0
 12 14  1  0
 13 15  1  0
 14 16  1  0
 15 16  2  0
 15 17  1  0
 18 17  1  0
 18 19  1  0
 18 20  2  0
 18 21  2  0
M  END
