x0805_0_A_α-x0685_1_A_α
     RDKit          3D

 22 23  0  0  0  0  0  0  0  0999 V2000
   -3.2980   15.6090    0.0430 O   0  0  0  0  0  0  0  0  0  0  0  0
   -4.3730   15.4050    0.9440 C   0  0  0  0  0  0  0  0  0  0  0  0
   -3.2720   14.8470   -1.0860 C   0  0  0  0  0  0  0  0  0  0  0  0
   -4.3470   14.1670   -1.6620 C   0  0  0  0  0  0  0  0  0  0  0  0
   -2.0190   14.7710   -1.6870 C   0  0  0  0  0  0  0  0  0  0  0  0
   -1.8300   14.0400   -2.8390 C   0  0  0  0  0  0  0  0  0  0  0  0
   -4.1540   13.4200   -2.8280 C   0  0  0  0  0  0  0  0  0  0  0  0
   -2.8930   13.3600   -3.4150 C   0  0  0  0  0  0  0  0  0  0  0  0
   -2.6230   12.5700   -4.6510 C   0  0  0  0  0  0  0  0  0  0  0  0
   -1.4790   11.6090   -4.3180 C   0  0  1  0  0  0  0  0  0  0  0  0
   -1.4840   10.3490   -5.0700 N   0  0  0  0  0  0  0  0  0  0  0  0
   -0.1190   12.3250   -4.2290 C   0  0  0  0  0  0  0  0  0  0  0  0
    0.7270   11.9280   -2.6990 S   0  0  0  0  0  0  0  0  0  0  0  0
   -0.7440   10.2020   -6.3090 C   0  0  0  0  0  0  0  0  0  0  0  0
    2.2670   12.3120   -2.9110 O   0  0  0  0  0  0  0  0  0  0  0  0
    0.5170   10.3530   -2.4820 O   0  0  0  0  0  0  0  0  0  0  0  0
    0.1120   12.7140   -1.4470 O   0  0  0  0  0  0  0  0  0  0  0  0
   -0.4880    8.7380   -6.6800 C   0  0  0  0  0  0  0  0  0  0  0  0
   -1.5610   10.8920   -7.4240 C   0  0  0  0  0  0  0  0  0  0  0  0
    0.1920    8.5970   -8.0310 C   0  0  0  0  0  0  0  0  0  0  0  0
   -0.9730   10.7020   -8.8220 C   0  0  0  0  0  0  0  0  0  0  0  0
   -0.6650    9.2330   -9.1180 C   0  0  0  0  0  0  0  0  0  0  0  0
  1  2  1  0
  1  3  1  0
  3  4  2  0
  3  5  1  0
  5  6  2  0
  4  7  1  0
  6  8  1  0
  7  8  2  0
  8  9  1  0
 10  9  1  6
 10 11  1  0
 10 12  1  0
 12 13  1  0
 11 14  1  0
 13 15  1  0
 13 16  1  0
 13 17  1  0
 14 18  1  0
 14 19  1  0
 18 20  1  0
 19 21  1  0
 20 22  1  0
 21 22  1  0
M  END
