x0805_0_A_β-x0926_0_A_α
     RDKit          3D

 19 20  0  0  0  0  0  0  0  0999 V2000
    0.4610   11.9290   -2.6130 C   0  0  0  0  0  0  0  0  0  0  0  0
    0.2430   10.5830   -2.6070 O   0  0  0  0  0  0  0  0  0  0  0  0
    0.5630   12.4510   -1.4530 N   0  0  0  0  0  0  0  0  0  0  0  0
    0.5520   12.6030   -3.9990 C   0  0  1  0  0  0  0  0  0  0  0  0
    0.8130   13.8640   -1.2510 C   0  0  0  0  0  0  0  0  0  0  0  0
   -0.4400   13.7910   -4.1110 C   0  0  0  0  0  0  0  0  0  0  0  0
    2.0020   12.9580   -4.3910 C   0  0  0  0  0  0  0  0  0  0  0  0
   -0.4940   14.6210   -1.2610 C   0  0  0  0  0  0  0  0  0  0  0  0
    2.3990   14.2130   -3.8370 O   0  0  0  0  0  0  0  0  0  0  0  0
    0.1500   15.1610   -3.7690 C   0  0  0  0  0  0  0  0  0  0  0  0
   -1.2460   14.6210    0.0700 C   0  0  0  0  0  0  0  0  0  0  0  0
    1.5740   15.2960   -4.2580 C   0  0  0  0  0  0  0  0  0  0  0  0
   -2.7710   14.5640   -0.1370 C   0  0  2  0  0  0  0  0  0  0  0  0
   -3.2580   15.2780   -1.3340 N   0  0  0  0  0  0  0  0  0  0  0  0
   -3.5170   15.0050    1.0800 C   0  0  0  0  0  0  0  0  0  0  0  0
   -4.8090   15.3010    1.0060 C   0  0  0  0  0  0  0  0  0  0  0  0
   -4.6730   15.3250   -1.4170 N   0  0  0  0  0  0  0  0  0  0  0  0
   -5.4920   15.2000   -0.3110 C   0  0  0  0  0  0  0  0  0  0  0  0
   -6.6980   15.0090   -0.3990 O   0  0  0  0  0  0  0  0  0  0  0  0
  1  2  1  0
  1  3  2  3
  4  1  1  1
  3  5  1  0
  4  6  1  0
  4  7  1  0
  5  8  1  0
  7  9  1  0
  6 10  1  0
  8 11  1  0
  9 12  1  0
 10 12  1  0
 13 11  1  1
 13 14  1  0
 13 15  1  0
 15 16  2  0
 14 17  1  0
 16 18  1  0
 17 18  1  0
 18 19  2  0
M  END
