x0805_0_A_α-4j4z_0_A_α
     RDKit          3D

 23 24  0  0  0  0  0  0  0  0999 V2000
   -3.0150   15.3830    0.4180 O   0  0  0  0  0  0  0  0  0  0  0  0
   -4.2590   15.6500    1.0410 C   0  0  0  0  0  0  0  0  0  0  0  0
   -3.0850   14.8560   -0.8330 C   0  0  0  0  0  0  0  0  0  0  0  0
   -4.3660   14.4750   -1.2380 C   0  0  0  0  0  0  0  0  0  0  0  0
   -2.0110   14.6820   -1.6900 C   0  0  0  0  0  0  0  0  0  0  0  0
   -2.2230   14.1320   -2.9480 C   0  0  0  0  0  0  0  0  0  0  0  0
   -4.5770   13.9290   -2.4920 C   0  0  0  0  0  0  0  0  0  0  0  0
   -1.1530   13.8760   -3.9510 C   0  0  2  0  0  0  0  0  0  0  0  0
   -3.5080   13.7620   -3.3420 C   0  0  0  0  0  0  0  0  0  0  0  0
   -1.2130   14.8970   -5.0820 C   0  0  0  0  0  0  0  0  0  0  0  0
   -1.4060   12.4660   -4.2860 N   0  0  0  0  0  0  0  0  0  0  0  0
   -0.7040   16.5930   -4.8400 S   0  0  0  0  0  0  0  0  0  0  0  0
   -2.6190   12.0280   -3.5340 C   0  0  0  0  0  0  0  0  0  0  0  0
   -0.2860   11.5470   -4.0080 C   0  0  0  0  0  0  0  0  0  0  0  0
   -0.0090   16.8100   -3.6040 O   0  0  0  0  0  0  0  0  0  0  0  0
   -0.0920   17.0080   -6.0770 O   0  0  0  0  0  0  0  0  0  0  0  0
   -2.1350   17.3660   -4.8400 O   0  0  0  0  0  0  0  0  0  0  0  0
   -3.1640   10.6550   -3.9370 C   0  0  0  0  0  0  0  0  0  0  0  0
   -0.7860   10.1070   -3.8280 C   0  0  0  0  0  0  0  0  0  0  0  0
   -2.0860    9.8690   -4.4950 N   0  0  0  0  0  0  0  0  0  0  0  0
   -2.4410    8.5380   -5.0140 C   0  0  0  0  0  0  0  0  0  0  0  0
   -3.6570    7.7690   -4.4440 C   0  0  0  0  0  0  0  0  0  0  0  0
   -3.6470    7.5770   -3.0330 O   0  0  0  0  0  0  0  0  0  0  0  0
  1  2  1  0
  1  3  1  0
  3  4  2  0
  3  5  1  0
  5  6  2  0
  4  7  1  0
  6  8  1  0
  6  9  1  0
  7  9  2  0
  8 10  1  6
  8 11  1  0
 10 12  1  0
 11 13  1  0
 11 14  1  0
 12 15  2  0
 12 16  2  0
 12 17  1  0
 13 18  1  0
 14 19  1  0
 18 20  1  0
 19 20  1  0
 20 21  1  0
 21 22  1  0
 22 23  1  0
M  END
