x0805_0_A_α-x0465_0_A_α
     RDKit          3D

 22 23  0  0  0  0  0  0  0  0999 V2000
   -3.8560   15.9180   -0.2780 O   0  0  0  0  0  0  0  0  0  0  0  0
   -4.2280   15.5720    1.0470 C   0  0  0  0  0  0  0  0  0  0  0  0
   -3.4870   14.8920   -1.0890 C   0  0  0  0  0  0  0  0  0  0  0  0
   -4.3060   14.1830   -1.9620 C   0  0  0  0  0  0  0  0  0  0  0  0
   -2.1450   14.5670   -0.9840 C   0  0  0  0  0  0  0  0  0  0  0  0
   -1.5990   13.5460   -1.7310 C   0  0  0  0  0  0  0  0  0  0  0  0
   -3.7720   13.1450   -2.7320 C   0  0  0  0  0  0  0  0  0  0  0  0
   -0.1360   13.2410   -1.5680 C   0  0  0  0  0  0  0  0  0  0  0  0
   -2.4210   12.8280   -2.6160 C   0  0  0  0  0  0  0  0  0  0  0  0
    0.4170   13.3580   -2.8650 N   0  0  0  0  0  0  0  0  0  0  0  0
    0.5920   12.3330   -3.5660 C   0  0  0  0  0  0  0  0  0  0  0  0
    1.0500   12.5520   -4.9830 C   0  0  1  0  0  0  0  0  0  0  0  0
    0.3740   11.0530   -3.1810 O   0  0  0  0  0  0  0  0  0  0  0  0
    2.5230   12.9090   -4.8890 C   0  0  0  0  0  0  0  0  0  0  0  0
    0.8500   11.4700   -5.8780 O   0  0  0  0  0  0  0  0  0  0  0  0
   -0.3410   10.7810   -5.9360 C   0  0  0  0  0  0  0  0  0  0  0  0
   -0.5770    9.6260   -6.6810 C   0  0  0  0  0  0  0  0  0  0  0  0
   -1.4020   11.2970   -5.1760 C   0  0  0  0  0  0  0  0  0  0  0  0
    0.3840    9.0780   -7.4330 F   0  0  0  0  0  0  0  0  0  0  0  0
   -1.8180    8.9940   -6.6750 C   0  0  0  0  0  0  0  0  0  0  0  0
   -2.6540   10.6690   -5.1640 C   0  0  0  0  0  0  0  0  0  0  0  0
   -2.8620    9.5130   -5.9150 C   0  0  0  0  0  0  0  0  0  0  0  0
  1  2  1  0
  1  3  1  0
  3  4  2  0
  3  5  1  0
  5  6  2  0
  4  7  1  0
  6  8  1  0
  6  9  1  0
  7  9  2  0
  8 10  1  0
 10 11  2  3
 11 12  1  0
 11 13  1  0
 12 14  1  1
 12 15  1  0
 15 16  1  0
 16 17  2  0
 16 18  1  0
 17 19  1  0
 17 20  1  0
 18 21  2  0
 20 22  2  0
 21 22  1  0
M  END
