x0805_0_A_α-x0837_0_A_α
     RDKit          3D

 15 16  0  0  0  0  0  0  0  0999 V2000
    0.0170   13.0760   -0.1010 O   0  0  0  0  0  0  0  0  0  0  0  0
   -1.0390   13.5430   -0.9280 C   0  0  0  0  0  0  0  0  0  0  0  0
   -2.4070   13.3240   -0.7130 C   0  0  0  0  0  0  0  0  0  0  0  0
   -0.8950   14.2510   -2.0320 C   0  0  0  0  0  0  0  0  0  0  0  0
   -1.5640   14.8300   -3.0260 C   0  0  0  0  0  0  0  0  0  0  0  0
   -3.3400   13.8550   -1.6720 C   0  0  0  0  0  0  0  0  0  0  0  0
   -2.9340   13.8410   -1.6240 I   0  0  0  0  0  0  0  0  0  0  0  0
   -2.9100   14.5980   -2.8110 C   0  0  0  0  0  0  0  0  0  0  0  0
   -4.0690   15.5150   -0.8600 C   0  0  2  0  0  0  0  0  0  0  0  0
   -3.8010   15.6540    0.5730 C   0  0  0  0  0  0  0  0  0  0  0  0
   -5.5180   15.4010   -1.1940 C   0  0  0  0  0  0  0  0  0  0  0  0
   -4.6180   15.2570    1.5040 C   0  0  0  0  0  0  0  0  0  0  0  0
   -6.2750   14.5810   -0.2040 C   0  0  0  0  0  0  0  0  0  0  0  0
   -7.2650   13.8630   -0.5630 O   0  0  0  0  0  0  0  0  0  0  0  0
   -5.8440   14.6430    1.1480 N   0  0  0  0  0  0  0  0  0  0  0  0
  1  2  1  0
  2  3  2  0
  2  4  1  0
  4  5  2  0
  3  6  1  0
  4  7  1  0
  5  8  1  0
  6  8  2  0
  9  7  1  1
  9 10  1  0
  9 11  1  0
 10 12  2  0
 11 13  1  0
 13 14  2  0
 12 15  1  0
 13 15  1  0
M  END
