x0805_0_A-x0711_0_A
     RDKit          3D

 23 24  0  0  0  0  0  0  0  0999 V2000
   -4.2530   15.3200    1.3980 C   0  0  0  0  0  0  0  0  0  0  0  0
   -3.4250   15.8120    0.3590 O   0  0  0  0  0  0  0  0  0  0  0  0
   -3.2420   14.8830   -0.6280 C   0  0  0  0  0  0  0  0  0  0  0  0
   -4.2690   14.0650   -1.0990 C   0  0  0  0  0  0  0  0  0  0  0  0
   -1.9510   14.8050   -1.1430 C   0  0  0  0  0  0  0  0  0  0  0  0
   -5.6780   14.1620   -0.5080 C   0  0  0  0  0  0  0  0  0  0  0  0
   -3.9220   13.1560   -2.1380 C   0  0  0  0  0  0  0  0  0  0  0  0
   -1.5590   13.9620   -2.1440 C   0  0  0  0  0  0  0  0  0  0  0  0
   -5.8860   13.6380    0.7480 N   0  0  0  0  0  0  0  0  0  0  0  0
   -6.6280   14.6770   -1.0850 O   0  0  0  0  0  0  0  0  0  0  0  0
   -2.5890   13.1020   -2.6580 C   0  0  0  0  0  0  0  0  0  0  0  0
   -0.0460   14.1140   -2.5400 C   0  0  1  0  0  0  0  0  0  0  0  0
    0.8790   12.8600   -2.6600 C   0  0  1  0  0  0  0  0  0  0  0  0
    0.2380   15.3030   -3.4970 C   0  0  0  0  0  0  0  0  0  0  0  0
    0.1320   11.6300   -2.9680 C   0  0  0  0  0  0  0  0  0  0  0  0
    1.9860   13.0340   -3.7030 C   0  0  0  0  0  0  0  0  0  0  0  0
    1.6070   15.3240   -4.1670 C   0  0  0  0  0  0  0  0  0  0  0  0
    0.4790   10.4890   -2.3150 O   0  0  0  0  0  0  0  0  0  0  0  0
   -0.7540   11.7740   -3.8190 N   0  0  0  0  0  0  0  0  0  0  0  0
    2.5150   14.3480   -3.6840 O   0  0  0  0  0  0  0  0  0  0  0  0
   -1.0300   13.3210   -4.4930 S   0  0  0  0  0  0  0  0  0  0  0  0
   -2.2630   13.1180   -5.7980 C   0  0  0  0  0  0  0  0  0  0  0  0
    0.1800   13.8200   -5.2390 O   0  0  0  0  0  0  0  0  0  0  0  0
  1  2  1  0
  2  3  1  0
  3  4  2  0
  3  5  1  0
  4  6  1  0
  4  7  1  0
  5  8  2  0
  6  9  1  0
  6 10  2  0
  7 11  2  0
  8 11  1  0
 12  8  1  6
 12 13  1  0
 12 14  1  0
 13 15  1  6
 13 16  1  0
 14 17  1  0
 15 18  1  0
 15 19  2  3
 16 20  1  0
 17 20  1  0
 21 19  1  0
 21 22  1  6
 21 23  2  0
M  END
