x0805_0_A-x0465_0_A
     RDKit          3D

 27 29  0  0  0  0  0  0  0  0999 V2000
   -4.4890   15.8170    0.6270 C   0  0  0  0  0  0  0  0  0  0  0  0
   -3.6850   14.6980    0.3290 O   0  0  0  0  0  0  0  0  0  0  0  0
   -3.3110   14.4920   -0.9540 C   0  0  0  0  0  0  0  0  0  0  0  0
   -4.2950   14.0990   -1.8560 C   0  0  0  0  0  0  0  0  0  0  0  0
   -2.0230   14.6460   -1.3870 C   0  0  0  0  0  0  0  0  0  0  0  0
   -3.9650   13.8630   -3.1930 C   0  0  0  0  0  0  0  0  0  0  0  0
   -1.6630   14.4220   -2.6950 C   0  0  0  0  0  0  0  0  0  0  0  0
   -2.6410   14.0230   -3.6210 C   0  0  0  0  0  0  0  0  0  0  0  0
   -0.2130   14.6370   -3.0100 C   0  0  1  0  0  0  0  0  0  0  0  0
    0.7710   13.5070   -2.7490 C   0  0  1  0  0  0  0  0  0  0  0  0
    0.1050   15.3150   -4.3270 C   0  0  0  0  0  0  0  0  0  0  0  0
    0.7090   12.2170   -3.4770 C   0  0  0  0  0  0  0  0  0  0  0  0
    2.2160   13.9410   -2.9150 C   0  0  0  0  0  0  0  0  0  0  0  0
    1.5060   15.8960   -4.2990 C   0  0  0  0  0  0  0  0  0  0  0  0
   -0.1090   11.2190   -2.8910 O   0  0  0  0  0  0  0  0  0  0  0  0
    2.0040   11.8450   -3.0890 O   0  0  0  0  0  0  0  0  0  0  0  0
    0.6260   12.3810   -5.0220 C   0  0  1  0  0  0  0  0  0  0  0  0
    2.4230   15.2670   -3.3720 O   0  0  0  0  0  0  0  0  0  0  0  0
    1.8350   13.0590   -5.6150 C   0  0  0  0  0  0  0  0  0  0  0  0
    0.5530   11.1080   -5.6660 O   0  0  0  0  0  0  0  0  0  0  0  0
   -0.6820   10.6050   -5.8560 C   0  0  0  0  0  0  0  0  0  0  0  0
   -0.7480    9.4390   -6.6030 C   0  0  0  0  0  0  0  0  0  0  0  0
   -1.8440   11.1680   -5.3640 C   0  0  0  0  0  0  0  0  0  0  0  0
    0.3700    8.8920   -7.0970 F   0  0  0  0  0  0  0  0  0  0  0  0
   -1.9620    8.8190   -6.8540 C   0  0  0  0  0  0  0  0  0  0  0  0
   -3.0740   10.5560   -5.6110 C   0  0  0  0  0  0  0  0  0  0  0  0
   -3.1320    9.3810   -6.3530 C   0  0  0  0  0  0  0  0  0  0  0  0
  1  2  1  0
  2  3  1  0
  3  4  2  0
  3  5  1  0
  4  6  1  0
  5  7  2  0
  6  8  2  0
  7  8  1  0
  9  7  1  6
  9 10  1  0
  9 11  1  0
 10 12  1  6
 10 13  1  0
 11 14  1  0
 12 15  1  0
 12 16  1  0
 12 17  1  0
 13 18  1  0
 14 18  1  0
 17 19  1  6
 17 20  1  0
 20 21  1  0
 21 22  2  0
 21 23  1  0
 22 24  1  0
 22 25  1  0
 23 26  2  0
 25 27  2  0
 26 27  1  0
M  END
