x0805_0_A-x0711_0_A
     RDKit          3D

 23 24  0  0  0  0  0  0  0  0999 V2000
   -4.2550   15.3130    1.4080 C   0  0  0  0  0  0  0  0  0  0  0  0
   -3.4230   15.8000    0.3670 O   0  0  0  0  0  0  0  0  0  0  0  0
   -3.2450   14.8750   -0.6210 C   0  0  0  0  0  0  0  0  0  0  0  0
   -4.2740   14.0580   -1.0930 C   0  0  0  0  0  0  0  0  0  0  0  0
   -1.9540   14.8010   -1.1390 C   0  0  0  0  0  0  0  0  0  0  0  0
   -5.6860   14.1500   -0.5010 C   0  0  0  0  0  0  0  0  0  0  0  0
   -3.9230   13.1560   -2.1420 C   0  0  0  0  0  0  0  0  0  0  0  0
   -1.5620   13.9630   -2.1470 C   0  0  0  0  0  0  0  0  0  0  0  0
   -5.8920   13.6280    0.7600 N   0  0  0  0  0  0  0  0  0  0  0  0
   -6.6380   14.6620   -1.0770 O   0  0  0  0  0  0  0  0  0  0  0  0
   -2.5940   13.1070   -2.6640 C   0  0  0  0  0  0  0  0  0  0  0  0
   -0.0520   14.1100   -2.5490 C   0  0  1  0  0  0  0  0  0  0  0  0
    0.8760   12.8560   -2.6680 C   0  0  1  0  0  0  0  0  0  0  0  0
    0.2360   15.2950   -3.5040 C   0  0  0  0  0  0  0  0  0  0  0  0
    0.1320   11.6230   -2.9770 C   0  0  0  0  0  0  0  0  0  0  0  0
    1.9900   13.0320   -3.7050 C   0  0  0  0  0  0  0  0  0  0  0  0
    1.6080   15.3230   -4.1680 C   0  0  0  0  0  0  0  0  0  0  0  0
    0.4840   10.4810   -2.3280 O   0  0  0  0  0  0  0  0  0  0  0  0
   -0.7550   11.7640   -3.8250 N   0  0  0  0  0  0  0  0  0  0  0  0
    2.5160   14.3430   -3.6790 O   0  0  0  0  0  0  0  0  0  0  0  0
   -1.0360   13.3100   -4.4960 S   0  0  0  0  0  0  0  0  0  0  0  0
   -2.2310   13.0930   -5.8350 C   0  0  0  0  0  0  0  0  0  0  0  0
    0.1880   13.8190   -5.2130 O   0  0  0  0  0  0  0  0  0  0  0  0
  1  2  1  0
  2  3  1  0
  3  4  2  0
  3  5  1  0
  4  6  1  0
  4  7  1  0
  5  8  2  0
  6  9  1  0
  6 10  2  0
  7 11  2  0
  8 11  1  0
 12  8  1  6
 12 13  1  0
 12 14  1  0
 13 15  1  6
 13 16  1  0
 14 17  1  0
 15 18  1  0
 15 19  2  3
 16 20  1  0
 17 20  1  0
 21 19  1  0
 21 22  1  6
 21 23  2  0
M  END
