x0805_0_A_α-x0371_0_A_α
     RDKit          3D

 19 20  0  0  0  0  0  0  0  0999 V2000
   -3.0990   15.1320    0.1180 O   0  0  0  0  0  0  0  0  0  0  0  0
   -4.3470   15.6810    0.5460 C   0  0  0  0  0  0  0  0  0  0  0  0
   -5.2140   14.7050    1.3650 C   0  0  0  0  0  0  0  0  0  0  0  0
   -2.9460   14.5430   -1.1110 C   0  0  0  0  0  0  0  0  0  0  0  0
   -4.0320   13.7800   -1.5430 C   0  0  0  0  0  0  0  0  0  0  0  0
   -1.8220   14.6420   -1.9330 C   0  0  0  0  0  0  0  0  0  0  0  0
   -6.5410   14.3720    0.6590 C   0  0  0  0  0  0  0  0  0  0  0  0
   -1.7850   13.9880   -3.1670 C   0  0  0  0  0  0  0  0  0  0  0  0
   -3.9970   13.1230   -2.7750 C   0  0  0  0  0  0  0  0  0  0  0  0
   -7.7270   14.0990    1.6050 C   0  0  0  0  0  0  0  0  0  0  0  0
   -2.8710   13.2280   -3.5880 C   0  0  0  0  0  0  0  0  0  0  0  0
   -7.5770   14.6540    2.9360 N   0  0  0  0  0  0  0  0  0  0  0  0
   -8.5470   15.4720    3.5140 C   0  0  0  0  0  0  0  0  0  0  0  0
   -9.3530   16.1020    2.8280 O   0  0  0  0  0  0  0  0  0  0  0  0
   -8.5330   15.5230    4.9660 C   0  0  0  0  0  0  0  0  0  0  0  0
   -8.0340   14.4440    5.6410 O   0  0  0  0  0  0  0  0  0  0  0  0
   -8.9330   16.4690    5.8920 C   0  0  0  0  0  0  0  0  0  0  0  0
   -8.1090   14.6950    6.9660 C   0  0  0  0  0  0  0  0  0  0  0  0
   -8.6600   15.9330    7.1780 C   0  0  0  0  0  0  0  0  0  0  0  0
  1  2  1  0
  2  3  1  0
  1  4  1  0
  4  5  2  0
  4  6  1  0
  3  7  1  0
  6  8  2  0
  5  9  1  0
  7 10  1  0
  8 11  1  0
  9 11  2  0
 10 12  1  0
 12 13  1  0
 13 14  2  0
 13 15  1  0
 15 16  1  0
 15 17  2  0
 16 18  1  0
 17 19  1  0
 18 19  2  0
M  END
