x0805_0_A_β-x0290_0_A_α
     RDKit          3D

 22 23  0  0  0  0  0  0  0  0999 V2000
    0.4900   12.1630   -2.3560 C   0  0  0  0  0  0  0  0  0  0  0  0
    0.4090   10.9800   -2.9780 O   0  0  0  0  0  0  0  0  0  0  0  0
    0.2280   12.2660   -1.1810 O   0  0  0  0  0  0  0  0  0  0  0  0
    0.9360   13.3540   -3.1280 C   0  0  2  0  0  0  0  0  0  0  0  0
    0.1040   14.6330   -2.9490 C   0  0  2  0  0  0  0  0  0  0  0  0
    1.1870   13.0670   -4.5880 C   0  0  0  0  0  0  0  0  0  0  0  0
   -1.3390   14.4540   -2.4830 C   0  0  0  0  0  0  0  0  0  0  0  0
    2.0110   14.1020   -5.0770 O   0  0  0  0  0  0  0  0  0  0  0  0
    0.2090   15.4950   -4.1820 C   0  0  0  0  0  0  0  0  0  0  0  0
    1.6370   15.4240   -4.6550 C   0  0  0  0  0  0  0  0  0  0  0  0
   -1.4830   14.4980   -0.9830 C   0  0  0  0  0  0  0  0  0  0  0  0
   -0.3890   14.4760   -0.1130 C   0  0  0  0  0  0  0  0  0  0  0  0
   -2.7610   14.5600   -0.4450 C   0  0  0  0  0  0  0  0  0  0  0  0
   -0.6410   14.5120    1.2470 C   0  0  0  0  0  0  0  0  0  0  0  0
   -2.9340   14.5920    0.9200 C   0  0  0  0  0  0  0  0  0  0  0  0
   -4.1960   14.6480    1.4910 N   0  0  0  0  0  0  0  0  0  0  0  0
   -1.8880   14.5660    1.7800 N   0  0  0  0  0  0  0  0  0  0  0  0
   -5.4220   14.4800    0.9300 C   0  0  0  0  0  0  0  0  0  0  0  0
   -5.5180   14.6080   -0.2970 O   0  0  0  0  0  0  0  0  0  0  0  0
   -6.6480   14.1240    1.7700 C   0  0  0  0  0  0  0  0  0  0  0  0
   -7.7980   13.8410    0.8930 N   0  0  0  0  0  0  0  0  0  0  0  0
   -8.6590   14.9930    0.7270 C   0  0  0  0  0  0  0  0  0  0  0  0
  1  2  1  0
  1  3  2  0
  4  1  1  6
  4  5  1  0
  4  6  1  0
  5  7  1  6
  6  8  1  0
  5  9  1  0
  8 10  1  0
  9 10  1  0
  7 11  1  0
 11 12  2  0
 11 13  1  0
 12 14  1  0
 13 15  2  0
 15 16  1  0
 14 17  2  0
 15 17  1  0
 16 18  1  0
 18 19  2  0
 18 20  1  0
 20 21  1  0
 21 22  1  0
M  END
