x0805_0_A-x0591_0_A
     RDKit          3D

 24 26  0  0  0  0  0  0  0  0999 V2000
   -4.7520   15.2290    0.5150 C   0  0  2  0  0  0  0  0  0  0  0  0
   -3.3620   14.7820    0.4610 O   0  0  0  0  0  0  0  0  0  0  0  0
   -3.1080   14.6180   -0.8720 C   0  0  0  0  0  0  0  0  0  0  0  0
   -5.4890   14.6970    1.7350 C   0  0  0  0  0  0  0  0  0  0  0  0
   -5.3660   14.6810   -0.7460 C   0  0  0  0  0  0  0  0  0  0  0  0
   -6.5400   14.4170   -0.9730 O   0  0  0  0  0  0  0  0  0  0  0  0
   -4.2420   14.5460   -1.6560 C   0  0  0  0  0  0  0  0  0  0  0  0
   -4.1680   14.3920   -3.0140 C   0  0  0  0  0  0  0  0  0  0  0  0
   -1.8230   14.5330   -1.4240 C   0  0  0  0  0  0  0  0  0  0  0  0
   -2.8790   14.3250   -3.5730 C   0  0  0  0  0  0  0  0  0  0  0  0
   -1.6760   14.3790   -2.8210 C   0  0  0  0  0  0  0  0  0  0  0  0
   -2.7180   14.2070   -5.3240 S   0  0  0  0  0  0  0  0  0  0  0  0
   -0.3120   14.2950   -3.5750 C   0  0  2  0  0  0  0  0  0  0  0  0
   -1.6910   15.5220   -5.4120 N   0  0  0  0  0  0  0  0  0  0  0  0
   -1.9850   13.0180   -5.6600 O   0  0  0  0  0  0  0  0  0  0  0  0
   -3.9180   14.6310   -6.0030 O   0  0  0  0  0  0  0  0  0  0  0  0
    0.8750   13.4170   -3.1260 C   0  0  1  0  0  0  0  0  0  0  0  0
    0.3650   15.6440   -3.7880 C   0  0  0  0  0  0  0  0  0  0  0  0
    0.5590   12.2280   -2.2970 C   0  0  0  0  0  0  0  0  0  0  0  0
    1.7590   13.0770   -4.3050 C   0  0  0  0  0  0  0  0  0  0  0  0
    1.6930   15.4850   -4.5060 C   0  0  0  0  0  0  0  0  0  0  0  0
    0.3000   11.0720   -2.9440 O   0  0  0  0  0  0  0  0  0  0  0  0
    0.5570   12.3290   -1.0970 O   0  0  0  0  0  0  0  0  0  0  0  0
    1.8620   14.2110   -5.1430 O   0  0  0  0  0  0  0  0  0  0  0  0
  1  2  1  0
  2  3  1  0
  1  4  1  1
  1  5  1  0
  5  6  2  0
  3  7  2  0
  5  7  1  0
  7  8  1  0
  3  9  1  0
  8 10  2  0
  9 11  2  0
 10 11  1  0
 10 12  1  0
 13 11  1  1
 12 14  1  0
 12 15  2  0
 12 16  2  0
 13 17  1  0
 13 18  1  0
 17 19  1  6
 17 20  1  0
 18 21  1  0
 19 22  1  0
 19 23  2  0
 20 24  1  0
 21 24  1  0
M  END
