x0805_0_A-x0587_0_A
     RDKit          3D

 29 31  0  0  0  0  0  0  0  0999 V2000
   -3.3330   15.0190    0.5480 C   0  0  0  0  0  0  0  0  0  0  0  0
   -3.7560   15.2980   -0.8230 N   0  0  0  0  0  0  0  0  0  0  0  0
   -5.1010   14.8350   -1.1570 C   0  0  0  0  0  0  0  0  0  0  0  0
   -3.2010   14.5080   -1.7710 C   0  0  0  0  0  0  0  0  0  0  0  0
   -4.9300   13.5590   -1.6260 F   0  0  0  0  0  0  0  0  0  0  0  0
   -5.5310   15.5280   -2.2510 F   0  0  0  0  0  0  0  0  0  0  0  0
   -4.0000   13.5320   -2.3730 C   0  0  0  0  0  0  0  0  0  0  0  0
   -1.9050   14.6610   -2.1490 C   0  0  0  0  0  0  0  0  0  0  0  0
   -6.0560   14.8120   -0.0050 C   0  0  0  0  0  0  0  0  0  0  0  0
   -3.4970   12.7150   -3.3560 C   0  0  0  0  0  0  0  0  0  0  0  0
   -1.3900   13.8620   -3.1290 C   0  0  0  0  0  0  0  0  0  0  0  0
   -7.3720   14.6950   -0.2840 N   0  0  0  0  0  0  0  0  0  0  0  0
   -5.5090   14.9180    1.2160 N   0  0  0  0  0  0  0  0  0  0  0  0
   -2.1850   12.8840   -3.7380 C   0  0  0  0  0  0  0  0  0  0  0  0
    0.0130   14.0280   -3.5470 C   0  0  1  0  0  0  0  0  0  0  0  0
   -8.1770   14.7070    0.7820 C   0  0  0  0  0  0  0  0  0  0  0  0
   -6.3620   14.9240    2.2280 C   0  0  0  0  0  0  0  0  0  0  0  0
    0.6700   12.8030   -4.1280 C   0  0  2  0  0  0  0  0  0  0  0  0
    0.1830   15.2290   -4.4370 C   0  0  0  0  0  0  0  0  0  0  0  0
   -7.7110   14.8280    2.0650 C   0  0  0  0  0  0  0  0  0  0  0  0
    0.8130   11.8850   -2.9460 C   0  0  0  0  0  0  0  0  0  0  0  0
   -8.5590   14.8690    3.2300 C   0  0  0  0  0  0  0  0  0  0  0  0
    2.0270   13.1930   -4.7090 C   0  0  0  0  0  0  0  0  0  0  0  0
    1.6400   15.5730   -4.4880 C   0  0  0  0  0  0  0  0  0  0  0  0
    0.2310   10.6730   -3.0940 O   0  0  0  0  0  0  0  0  0  0  0  0
    1.3720   12.1960   -1.9140 O   0  0  0  0  0  0  0  0  0  0  0  0
   -7.9130   14.8510    4.4290 N   0  0  0  0  0  0  0  0  0  0  0  0
   -9.7750   14.9370    3.1160 O   0  0  0  0  0  0  0  0  0  0  0  0
    2.4770   14.4430   -4.1720 O   0  0  0  0  0  0  0  0  0  0  0  0
  1  2  1  0
  2  3  1  0
  2  4  1  0
  3  5  1  0
  3  6  1  0
  4  7  2  0
  4  8  1  0
  3  9  1  0
  7 10  1  0
  8 11  2  0
  9 12  2  0
  9 13  1  0
 10 14  2  0
 11 14  1  0
 15 11  1  6
 12 16  1  0
 13 17  2  0
 15 18  1  0
 15 19  1  0
 16 20  2  0
 17 20  1  0
 18 21  1  1
 20 22  1  0
 18 23  1  0
 19 24  1  0
 21 25  1  0
 21 26  2  0
 22 27  1  0
 22 28  2  0
 23 29  1  0
 24 29  1  0
M  END
