x0805_0_A-x0950_0_A
     RDKit          3D

 20 21  0  0  0  0  0  0  0  0999 V2000
   -4.4550   14.8260    1.0430 C   0  0  0  0  0  0  0  0  0  0  0  0
   -3.7870   15.5070   -0.0050 O   0  0  0  0  0  0  0  0  0  0  0  0
   -3.3610   14.8080   -1.1000 C   0  0  0  0  0  0  0  0  0  0  0  0
   -4.2910   14.0220   -1.7840 C   0  0  0  0  0  0  0  0  0  0  0  0
   -2.0690   14.8480   -1.5600 C   0  0  0  0  0  0  0  0  0  0  0  0
   -3.8970   13.2990   -2.9200 C   0  0  0  0  0  0  0  0  0  0  0  0
   -1.6500   14.1700   -2.6720 C   0  0  0  0  0  0  0  0  0  0  0  0
   -2.5730   13.3730   -3.3750 C   0  0  0  0  0  0  0  0  0  0  0  0
   -0.2030   14.3580   -3.0310 C   0  0  1  0  0  0  0  0  0  0  0  0
    0.7660   13.1780   -2.8160 C   0  0  1  0  0  0  0  0  0  0  0  0
    0.1260   15.2240   -4.2440 C   0  0  0  0  0  0  0  0  0  0  0  0
    0.5800   11.9670   -3.6770 C   0  0  0  0  0  0  0  0  0  0  0  0
    2.2050   13.6700   -3.0370 C   0  0  0  0  0  0  0  0  0  0  0  0
    1.5440   15.7240   -4.1660 C   0  0  0  0  0  0  0  0  0  0  0  0
   -0.7210   11.4600   -3.8080 O   0  0  0  0  0  0  0  0  0  0  0  0
    1.2780   10.9600   -2.9970 O   0  0  0  0  0  0  0  0  0  0  0  0
    1.3410   12.2150   -5.0180 C   0  0  1  0  0  0  0  0  0  0  0  0
    2.3730   15.0630   -3.1960 O   0  0  0  0  0  0  0  0  0  0  0  0
    2.8550   11.9990   -5.0190 C   0  0  0  0  0  0  0  0  0  0  0  0
    0.7120   11.5620   -6.1110 O   0  0  0  0  0  0  0  0  0  0  0  0
  1  2  1  0
  2  3  1  0
  3  4  2  0
  3  5  1  0
  4  6  1  0
  5  7  2  0
  6  8  2  0
  7  8  1  0
  9  7  1  6
  9 10  1  0
  9 11  1  0
 10 12  1  6
 10 13  1  0
 11 14  1  0
 12 15  1  0
 12 16  1  0
 12 17  1  0
 13 18  1  0
 14 18  1  0
 17 19  1  1
 17 20  1  0
M  END
