x0805_0_A_β-x0855_0_A_α
     RDKit          3D

 16 17  0  0  0  0  0  0  0  0999 V2000
    0.3510   11.9490   -2.8060 C   0  0  0  0  0  0  0  0  0  0  0  0
    0.7180   10.5870   -2.5850 O   0  0  0  0  0  0  0  0  0  0  0  0
    0.6370   12.6240   -1.5760 O   0  0  0  0  0  0  0  0  0  0  0  0
   -1.1250   11.8930   -3.0450 C   0  0  0  0  0  0  0  0  0  0  0  0
    0.9150   12.6410   -4.0870 C   0  0  1  0  0  0  0  0  0  0  0  0
   -0.0260   13.7990   -4.5400 C   0  0  0  0  0  0  0  0  0  0  0  0
    2.3720   13.1230   -4.0450 C   0  0  0  0  0  0  0  0  0  0  0  0
   -1.4460   11.3510   -4.3450 N   0  0  0  0  0  0  0  0  0  0  0  0
    2.5640   14.4810   -3.6210 O   0  0  0  0  0  0  0  0  0  0  0  0
    0.2560   15.1050   -3.8220 C   0  0  0  0  0  0  0  0  0  0  0  0
   -0.9050   10.2520   -4.9550 C   0  0  0  0  0  0  0  0  0  0  0  0
   -2.3890   11.9610   -5.0690 N   0  0  0  0  0  0  0  0  0  0  0  0
    1.6700   15.4610   -4.1400 C   0  0  0  0  0  0  0  0  0  0  0  0
   -1.5650   10.1470   -6.1450 C   0  0  0  0  0  0  0  0  0  0  0  0
   -2.4610   11.2180   -6.1700 C   0  0  0  0  0  0  0  0  0  0  0  0
   -1.3610    8.8690   -7.4780 Br  0  0  0  0  0  0  0  0  0  0  0  0
  1  2  1  0
  1  3  1  0
  1  4  1  0
  5  1  1  1
  5  6  1  0
  5  7  1  0
  4  8  1  0
  7  9  1  0
  6 10  1  0
  8 11  1  0
  8 12  1  0
  9 13  1  0
 10 13  1  0
 11 14  2  0
 12 15  2  0
 14 15  1  0
 14 16  1  0
M  END
