x0805_0_A_β-x0895_1_A_α
     RDKit          3D

 19 20  0  0  0  0  0  0  0  0999 V2000
    0.3770   11.9410   -2.5820 C   0  0  0  0  0  0  0  0  0  0  0  0
    0.2140   10.7190   -3.0970 O   0  0  0  0  0  0  0  0  0  0  0  0
    0.3140   12.2590   -1.3670 N   0  0  0  0  0  0  0  0  0  0  0  0
    0.6690   13.0920   -3.4900 C   0  0  2  0  0  0  0  0  0  0  0  0
    0.5030   13.6120   -0.9090 C   0  0  0  0  0  0  0  0  0  0  0  0
   -0.4730   13.8680   -4.0860 C   0  0  0  0  0  0  0  0  0  0  0  0
    1.7700   12.8790   -4.4760 C   0  0  0  0  0  0  0  0  0  0  0  0
   -0.2400   13.7140    0.4040 C   0  0  0  0  0  0  0  0  0  0  0  0
    2.2990   14.1540   -4.8020 O   0  0  0  0  0  0  0  0  0  0  0  0
    0.0600   15.2400   -4.4460 C   0  0  0  0  0  0  0  0  0  0  0  0
   -0.6140   15.1230    0.7850 C   0  0  0  0  0  0  0  0  0  0  0  0
    1.5810   15.3070   -4.3120 C   0  0  0  0  0  0  0  0  0  0  0  0
   -1.7960   14.9790    1.5880 N   0  0  0  0  0  0  0  0  0  0  0  0
   -2.9130   15.0360    0.9800 C   0  0  0  0  0  0  0  0  0  0  0  0
   -3.0340   15.2440   -0.5150 C   0  0  0  0  0  0  0  0  0  0  0  0
   -4.1440   14.9180    1.5190 N   0  0  0  0  0  0  0  0  0  0  0  0
   -4.4490   15.0560   -0.6710 N   0  0  0  0  0  0  0  0  0  0  0  0
   -5.0710   14.8830    0.5370 C   0  0  0  0  0  0  0  0  0  0  0  0
   -6.2720   14.7190    0.6850 O   0  0  0  0  0  0  0  0  0  0  0  0
  1  2  1  0
  1  3  2  3
  4  1  1  6
  3  5  1  0
  4  6  1  0
  4  7  1  0
  5  8  1  0
  7  9  1  0
  6 10  1  0
  8 11  1  0
  9 12  1  0
 10 12  1  0
 11 13  1  0
 13 14  2  3
 14 15  1  0
 14 16  1  0
 15 17  1  0
 16 18  1  0
 17 18  1  0
 18 19  2  0
M  END
