x0805_0_A_α-x0159_0_B_β
     RDKit          3D

 24 26  0  0  0  0  0  0  0  0999 V2000
   -3.0000   15.1960   -0.0450 O   0  0  0  0  0  0  0  0  0  0  0  0
   -4.2350   15.5550    0.5740 C   0  0  0  0  0  0  0  0  0  0  0  0
   -3.0400   14.7420   -1.3310 C   0  0  0  0  0  0  0  0  0  0  0  0
   -4.1650   14.3260   -2.0360 C   0  0  0  0  0  0  0  0  0  0  0  0
   -1.7950   14.7120   -1.9620 C   0  0  0  0  0  0  0  0  0  0  0  0
   -1.6610   14.2780   -3.2760 C   0  0  0  0  0  0  0  0  0  0  0  0
   -4.0350   13.8880   -3.3620 C   0  0  0  0  0  0  0  0  0  0  0  0
   -2.7760   13.8610   -3.9960 C   0  0  0  0  0  0  0  0  0  0  0  0
   -2.6150   13.3860   -5.4250 C   0  0  0  0  0  0  0  0  0  0  0  0
   -1.7280   12.1320   -5.6180 C   0  0  0  0  0  0  0  0  0  0  0  0
   -0.7500   12.1710   -6.8060 C   0  0  0  0  0  0  0  0  0  0  0  0
    0.3630   11.1120   -6.8510 C   0  0  0  0  0  0  0  0  0  0  0  0
    0.1980    9.9880   -7.9040 C   0  0  0  0  0  0  0  0  0  0  0  0
    0.7270   10.3470   -9.3060 C   0  0  0  0  0  0  0  0  0  0  0  0
    1.3820    9.2020   -9.9540 N   0  0  0  0  0  0  0  0  0  0  0  0
    2.1520    9.4080  -11.0500 C   0  0  0  0  0  0  0  0  0  0  0  0
    1.9570   10.5410  -11.7950 N   0  0  0  0  0  0  0  0  0  0  0  0
    3.1240    8.6740  -11.5610 N   0  0  0  0  0  0  0  0  0  0  0  0
    2.8550   10.5460  -12.8330 C   0  0  0  0  0  0  0  0  0  0  0  0
    3.5750    9.3690  -12.6650 C   0  0  0  0  0  0  0  0  0  0  0  0
    3.0890   11.4570  -13.8650 C   0  0  0  0  0  0  0  0  0  0  0  0
    4.6020    9.0620  -13.5770 C   0  0  0  0  0  0  0  0  0  0  0  0
    4.1130   11.1390  -14.7620 C   0  0  0  0  0  0  0  0  0  0  0  0
    4.8560    9.9640  -14.6230 C   0  0  0  0  0  0  0  0  0  0  0  0
  1  2  1  0
  1  3  1  0
  3  4  2  0
  3  5  1  0
  5  6  2  0
  4  7  1  0
  6  8  1  0
  7  8  2  0
  8  9  1  0
  9 10  1  0
 10 11  1  0
 11 12  1  0
 12 13  1  0
 13 14  1  0
 14 15  1  0
 15 16  1  0
 16 17  1  0
 16 18  2  0
 17 19  1  0
 18 20  1  0
 19 20  2  0
 19 21  1  0
 20 22  1  0
 21 23  2  0
 22 24  2  0
 23 24  1  0
M  END
