x0805_0_A-x0626_0_A
     RDKit          3D

 27 29  0  0  0  0  0  0  0  0999 V2000
   -4.8590   14.3850   -0.1400 C   0  0  2  0  0  0  0  0  0  0  0  0
   -4.5560   15.1600   -1.2820 O   0  0  0  0  0  0  0  0  0  0  0  0
   -3.9130   14.3890   -2.1870 C   0  0  0  0  0  0  0  0  0  0  0  0
   -6.1590   14.8240    0.5100 C   0  0  0  0  0  0  0  0  0  0  0  0
   -3.4430   14.4020    0.2990 C   0  0  0  0  0  0  0  0  0  0  0  0
   -6.8930   15.4680   -0.2340 O   0  0  0  0  0  0  0  0  0  0  0  0
   -6.6640   14.4220    1.8760 C   0  0  0  0  0  0  0  0  0  0  0  0
   -2.6850   14.1330    1.3470 N   0  0  0  0  0  0  0  0  0  0  0  0
   -2.6210   14.9000   -1.0960 S   0  0  0  0  0  0  0  0  0  0  0  0
   -8.1870   14.4670    1.8620 C   0  0  0  0  0  0  0  0  0  0  0  0
   -4.5370   13.3650   -2.8520 C   0  0  0  0  0  0  0  0  0  0  0  0
   -2.5490   14.6450   -2.4320 C   0  0  0  0  0  0  0  0  0  0  0  0
   -1.1500   14.7390   -0.3380 C   0  0  0  0  0  0  0  0  0  0  0  0
   -1.3410   14.3210    0.9320 C   0  0  0  0  0  0  0  0  0  0  0  0
   -0.1820   14.0720    1.7720 C   0  0  0  0  0  0  0  0  0  0  0  0
   -3.8310   12.5920   -3.7550 C   0  0  0  0  0  0  0  0  0  0  0  0
   -1.8130   13.8710   -3.3360 C   0  0  0  0  0  0  0  0  0  0  0  0
   -2.4830   12.8380   -3.9970 C   0  0  0  0  0  0  0  0  0  0  0  0
   -0.3360   14.1550   -3.5580 C   0  0  1  0  0  0  0  0  0  0  0  0
    0.3920   12.9050   -4.0920 C   0  0  2  0  0  0  0  0  0  0  0  0
   -0.0060   15.3860   -4.3960 C   0  0  0  0  0  0  0  0  0  0  0  0
    0.6880   12.0220   -2.9120 C   0  0  0  0  0  0  0  0  0  0  0  0
    1.6990   13.2570   -4.8000 C   0  0  0  0  0  0  0  0  0  0  0  0
    1.5010   15.5960   -4.4510 C   0  0  0  0  0  0  0  0  0  0  0  0
    0.1560   10.7870   -3.0250 O   0  0  0  0  0  0  0  0  0  0  0  0
    1.3240   12.3230   -1.9260 O   0  0  0  0  0  0  0  0  0  0  0  0
    2.2710   14.4130   -4.2000 O   0  0  0  0  0  0  0  0  0  0  0  0
  1  2  1  6
  2  3  1  0
  1  4  1  0
  1  5  1  0
  4  6  2  0
  4  7  1  0
  5  8  2  0
  5  9  1  0
  7 10  1  0
  3 11  2  0
  3 12  1  0
  9 13  1  0
  8 14  1  0
 13 14  2  0
 14 15  1  0
 11 16  1  0
 12 17  2  0
 16 18  2  0
 17 18  1  0
 19 17  1  6
 19 20  1  0
 19 21  1  0
 20 22  1  1
 20 23  1  0
 21 24  1  0
 22 25  1  0
 22 26  2  0
 23 27  1  0
 24 27  1  0
M  END
