x0805_0_A_α-x0849_0_A_α
     RDKit          3D

 18 20  0  0  0  0  0  0  0  0999 V2000
   -4.2860   14.3760   -0.6020 O   0  0  0  0  0  0  0  0  0  0  0  0
   -3.6920   13.9240   -1.7380 C   0  0  0  0  0  0  0  0  0  0  0  0
   -3.7960   12.6050   -2.0810 C   0  0  0  0  0  0  0  0  0  0  0  0
   -2.9860   14.8110   -2.5320 C   0  0  0  0  0  0  0  0  0  0  0  0
   -2.3520   14.4030   -3.6910 C   0  0  0  0  0  0  0  0  0  0  0  0
   -3.1750   12.1690   -3.2420 C   0  0  0  0  0  0  0  0  0  0  0  0
   -2.9680   16.0710   -2.0850 O   0  0  0  0  0  0  0  0  0  0  0  0
   -2.4530   13.0600   -4.0460 C   0  0  0  0  0  0  0  0  0  0  0  0
   -3.2070   15.8120   -0.7660 C   0  0  0  0  0  0  0  0  0  0  0  0
   -2.1150   15.3090   -0.0770 C   0  0  0  0  0  0  0  0  0  0  0  0
   -4.4310   15.9900   -0.1260 C   0  0  0  0  0  0  0  0  0  0  0  0
   -2.2920   14.9930    1.2570 C   0  0  0  0  0  0  0  0  0  0  0  0
   -4.4800   15.6400    1.2020 C   0  0  0  0  0  0  0  0  0  0  0  0
   -0.8580   15.1010   -0.6680 C   0  0  0  0  0  0  0  0  0  0  0  0
   -3.4380   15.1560    1.8730 N   0  0  0  0  0  0  0  0  0  0  0  0
   -1.3200   14.5090    1.9770 N   0  0  0  0  0  0  0  0  0  0  0  0
    0.1590   14.5850    0.0980 C   0  0  0  0  0  0  0  0  0  0  0  0
   -0.1400   14.3070    1.4190 C   0  0  0  0  0  0  0  0  0  0  0  0
  1  2  1  0
  2  3  2  0
  2  4  1  0
  4  5  2  0
  3  6  1  0
  4  7  1  0
  5  8  1  0
  6  8  2  0
  7  9  1  0
  9 10  1  0
  9 11  2  0
 10 12  2  0
 11 13  1  0
 10 14  1  0
 12 15  1  0
 13 15  2  0
 12 16  1  0
 14 17  2  0
 16 18  2  0
 17 18  1  0
M  END
