x0805_0_A-x0837_0_A
     RDKit          3D

 25 27  0  0  0  0  0  0  0  0999 V2000
   -3.9310   15.9100    1.1480 C   0  0  0  0  0  0  0  0  0  0  0  0
   -2.8820   15.3100    0.4630 O   0  0  0  0  0  0  0  0  0  0  0  0
   -2.9360   14.9840   -0.8570 C   0  0  0  0  0  0  0  0  0  0  0  0
   -4.0790   14.9010   -1.6590 C   0  0  0  0  0  0  0  0  0  0  0  0
   -1.9280   14.6930   -1.6400 C   0  0  0  0  0  0  0  0  0  0  0  0
   -3.7890   14.6140   -2.5880 I   0  0  0  0  0  0  0  0  0  0  0  0
   -3.9400   14.5350   -3.0490 C   0  0  0  0  0  0  0  0  0  0  0  0
   -1.5550   14.3460   -2.8860 C   0  0  0  0  0  0  0  0  0  0  0  0
   -2.6720   14.2540   -3.6620 C   0  0  0  0  0  0  0  0  0  0  0  0
   -0.1290   14.1550   -3.1530 C   0  0  1  0  0  0  0  0  0  0  0  0
   -5.2360   13.9050   -1.2080 C   0  0  1  0  0  0  0  0  0  0  0  0
    0.1470   12.9330   -4.0690 C   0  0  2  0  0  0  0  0  0  0  0  0
    0.3920   15.3650   -3.8760 C   0  0  0  0  0  0  0  0  0  0  0  0
   -4.6320   13.3330    0.0140 C   0  0  0  0  0  0  0  0  0  0  0  0
   -6.2920   14.9480   -0.9820 C   0  0  0  0  0  0  0  0  0  0  0  0
    0.7150   11.9090   -3.1530 C   0  0  0  0  0  0  0  0  0  0  0  0
    1.1390   13.2370   -5.1530 C   0  0  0  0  0  0  0  0  0  0  0  0
    1.7910   15.2070   -4.3000 C   0  0  0  0  0  0  0  0  0  0  0  0
   -5.1210   13.5100    1.2220 C   0  0  0  0  0  0  0  0  0  0  0  0
   -7.0230   14.6920    0.2560 C   0  0  0  0  0  0  0  0  0  0  0  0
    0.1210   10.6770   -3.0420 O   0  0  0  0  0  0  0  0  0  0  0  0
    1.7290   12.2700   -2.5240 O   0  0  0  0  0  0  0  0  0  0  0  0
   -8.2900   14.8240    0.3400 O   0  0  0  0  0  0  0  0  0  0  0  0
    2.2010   13.9300   -4.5740 O   0  0  0  0  0  0  0  0  0  0  0  0
   -6.2890   14.2810    1.4210 N   0  0  0  0  0  0  0  0  0  0  0  0
  1  2  1  0
  2  3  1  0
  3  4  2  0
  3  5  1  0
  5  6  1  0
  4  7  1  0
  5  8  2  0
  7  9  2  0
  8  9  1  0
 10  8  1  6
 11  6  1  6
 10 12  1  0
 10 13  1  0
 11 14  1  0
 11 15  1  0
 12 16  1  1
 12 17  1  0
 13 18  1  0
 14 19  2  0
 15 20  1  0
 16 21  1  0
 16 22  2  0
 20 23  2  0
 17 24  1  0
 18 24  1  0
 19 25  1  0
 20 25  1  0
M  END
