x0805_0_A_β-x0837_0_A_α
     RDKit          3D

 19 20  0  0  0  0  0  0  0  0999 V2000
    0.6760   12.1890   -3.0370 C   0  0  0  0  0  0  0  0  0  0  0  0
    0.3770   10.8460   -2.9420 O   0  0  0  0  0  0  0  0  0  0  0  0
    0.9860   12.8110   -2.0130 O   0  0  0  0  0  0  0  0  0  0  0  0
    0.5770   12.8220   -4.3530 C   0  0  1  0  0  0  0  0  0  0  0  0
   -0.1130   14.1350   -4.4110 C   0  0  2  0  0  0  0  0  0  0  0  0
    2.0450   13.1080   -4.8170 C   0  0  0  0  0  0  0  0  0  0  0  0
    2.5580   14.0840   -3.9810 O   0  0  0  0  0  0  0  0  0  0  0  0
    0.5160   15.2390   -3.6100 C   0  0  0  0  0  0  0  0  0  0  0  0
   -1.5220   14.1320   -4.2750 C   0  0  0  0  0  0  0  0  0  0  0  0
    1.9150   15.2870   -4.0790 C   0  0  0  0  0  0  0  0  0  0  0  0
   -1.9790   14.4330   -2.9400 C   0  0  0  0  0  0  0  0  0  0  0  0
   -4.0080   14.9040   -2.9390 I   0  0  0  0  0  0  0  0  0  0  0  0
   -4.6990   14.5270   -0.9800 C   0  0  1  0  0  0  0  0  0  0  0  0
   -3.7950   15.0130    0.0520 C   0  0  0  0  0  0  0  0  0  0  0  0
   -6.0140   15.1410   -0.8410 C   0  0  0  0  0  0  0  0  0  0  0  0
   -4.2040   15.1310    1.2760 C   0  0  0  0  0  0  0  0  0  0  0  0
   -6.4970   14.7720    0.5290 C   0  0  0  0  0  0  0  0  0  0  0  0
   -7.6910   14.4880    0.7000 O   0  0  0  0  0  0  0  0  0  0  0  0
   -5.5300   14.7810    1.6170 N   0  0  0  0  0  0  0  0  0  0  0  0
  1  2  1  0
  1  3  2  0
  4  1  1  1
  4  5  1  0
  4  6  1  0
  6  7  1  0
  5  8  1  0
  5  9  1  1
  7 10  1  0
  8 10  1  0
  9 11  1  0
 11 12  1  0
 13 12  1  6
 13 14  1  0
 13 15  1  0
 14 16  2  0
 15 17  1  0
 17 18  2  0
 16 19  1  0
 17 19  1  0
M  END
