x0805_0_A_α-x0926_0_A_α
     RDKit          3D

 14 15  0  0  0  0  0  0  0  0999 V2000
   -2.1140   15.4900   -0.6800 O   0  0  0  0  0  0  0  0  0  0  0  0
   -2.4620   14.5820   -1.6460 C   0  0  0  0  0  0  0  0  0  0  0  0
   -3.7960   14.3250   -2.0060 C   0  0  0  0  0  0  0  0  0  0  0  0
   -1.3890   13.9480   -2.2310 C   0  0  0  0  0  0  0  0  0  0  0  0
   -1.6150   13.0090   -3.2190 C   0  0  0  0  0  0  0  0  0  0  0  0
   -4.0110   13.3670   -3.0020 C   0  0  0  0  0  0  0  0  0  0  0  0
   -4.7670   15.1020   -1.3090 N   0  0  0  0  0  0  0  0  0  0  0  0
   -2.9210   12.7140   -3.6030 C   0  0  0  0  0  0  0  0  0  0  0  0
   -3.9260   16.0520   -0.8130 N   0  0  0  0  0  0  0  0  0  0  0  0
   -5.6830   14.6110   -0.3830 C   0  0  0  0  0  0  0  0  0  0  0  0
   -6.8970   14.4660   -0.4850 O   0  0  0  0  0  0  0  0  0  0  0  0
   -3.5540   15.9330    0.4100 C   0  0  0  0  0  0  0  0  0  0  0  0
   -5.0500   14.2480    0.9020 C   0  0  0  0  0  0  0  0  0  0  0  0
   -3.9700   14.8980    1.3120 C   0  0  0  0  0  0  0  0  0  0  0  0
  1  2  1  0
  2  3  2  0
  2  4  1  0
  4  5  2  0
  3  6  1  0
  3  7  1  0
  5  8  1  0
  6  8  2  0
  7  9  1  0
  7 10  1  0
 10 11  2  0
  9 12  2  0
 10 13  1  0
 12 14  1  0
 13 14  2  0
M  END
