x0805_0_A_β-5cms_J_9_J_α
     RDKit          3D

 24 25  0  0  0  0  0  0  0  0999 V2000
    0.6350   11.8900   -2.4220 C   0  0  0  0  0  0  0  0  0  0  0  0
    0.3820   10.7730   -3.1180 O   0  0  0  0  0  0  0  0  0  0  0  0
    0.6750   11.9150   -1.2330 O   0  0  0  0  0  0  0  0  0  0  0  0
    0.8190   13.1130   -3.1930 C   0  0  2  0  0  0  0  0  0  0  0  0
   -0.5050   13.6970   -3.6020 C   0  0  0  0  0  0  0  0  0  0  0  0
    1.8270   13.0710   -4.3190 C   0  0  0  0  0  0  0  0  0  0  0  0
    2.0970   14.4430   -4.5740 O   0  0  0  0  0  0  0  0  0  0  0  0
   -0.1580   15.1160   -3.8750 C   0  0  0  0  0  0  0  0  0  0  0  0
    0.8700   15.0620   -4.9850 C   0  0  1  0  0  0  0  0  0  0  0  0
    1.0120   16.4550   -5.4880 C   0  0  0  0  0  0  0  0  0  0  0  0
    0.5240   17.5560   -4.5850 C   0  0  0  0  0  0  0  0  0  0  0  0
   -0.3530   18.3880   -5.4730 C   0  0  0  0  0  0  0  0  0  0  0  0
    0.5330   18.7400   -6.6550 C   0  0  0  0  0  0  0  0  0  0  0  0
   -0.2350   19.2880   -7.8250 C   0  0  0  0  0  0  0  0  0  0  0  0
    0.1250   20.7400   -8.0010 C   0  0  0  0  0  0  0  0  0  0  0  0
   -0.9810   21.6830   -7.5930 C   0  0  0  0  0  0  0  0  0  0  0  0
   -1.4710   22.3450   -8.8300 C   0  0  1  0  0  0  0  0  0  0  0  0
   -2.1950   21.4440   -9.6760 O   0  0  0  0  0  0  0  0  0  0  0  0
   -2.2620   23.6130   -8.6420 C   0  0  1  0  0  0  0  0  0  0  0  0
   -1.3710   24.6450   -8.9630 O   0  0  0  0  0  0  0  0  0  0  0  0
   -3.4770   22.0130   -9.8940 C   0  0  2  0  0  0  0  0  0  0  0  0
   -3.3880   23.5070   -9.6540 C   0  0  1  0  0  0  0  0  0  0  0  0
   -4.3280   21.4410   -8.9460 O   0  0  0  0  0  0  0  0  0  0  0  0
   -4.6220   23.9870   -9.1360 O   0  0  0  0  0  0  0  0  0  0  0  0
  1  2  1  0
  1  3  2  0
  4  1  1  6
  4  5  1  0
  4  6  1  0
  6  7  1  0
  5  8  1  0
  7  9  1  0
  8  9  1  0
  9 10  1  1
 10 11  1  0
 11 12  1  0
 12 13  1  0
 13 14  1  0
 14 15  1  0
 15 16  1  0
 17 16  1  1
 17 18  1  0
 17 19  1  0
 19 20  1  6
 18 21  1  0
 19 22  1  0
 21 22  1  0
 21 23  1  1
 22 24  1  1
M  END
