x0805_0_A_α-EU0056_0_A_α
     RDKit          3D

 16 17  0  0  0  0  0  0  0  0999 V2000
   -3.4090   15.4820   -0.2940 O   0  0  0  0  0  0  0  0  0  0  0  0
   -4.0120   15.0390    0.9270 C   0  0  0  0  0  0  0  0  0  0  0  0
   -5.5120   14.8700    0.8970 C   0  0  0  0  0  0  0  0  0  0  0  0
   -3.2250   14.5980   -1.3260 C   0  0  0  0  0  0  0  0  0  0  0  0
   -4.1600   13.6790   -1.7970 C   0  0  0  0  0  0  0  0  0  0  0  0
   -1.9710   14.6570   -1.9440 C   0  0  0  0  0  0  0  0  0  0  0  0
   -1.6560   13.8230   -3.0130 C   0  0  0  0  0  0  0  0  0  0  0  0
   -3.8440   12.8390   -2.8690 C   0  0  0  0  0  0  0  0  0  0  0  0
   -6.2470   14.6960   -0.2710 C   0  0  0  0  0  0  0  0  0  0  0  0
   -6.2360   14.8910    2.0940 C   0  0  0  0  0  0  0  0  0  0  0  0
   -2.5960   12.9130   -3.4760 C   0  0  0  0  0  0  0  0  0  0  0  0
   -7.6290   14.7450    2.1030 C   0  0  0  0  0  0  0  0  0  0  0  0
   -7.5950   14.5440   -0.3030 N   0  0  0  0  0  0  0  0  0  0  0  0
   -8.4170   14.7810    3.3810 C   0  0  0  0  0  0  0  0  0  0  0  0
   -8.2500   14.5730    0.8760 C   0  0  0  0  0  0  0  0  0  0  0  0
   -8.2090   13.5900    4.1880 N   0  0  0  0  0  0  0  0  0  0  0  0
  1  2  1  0
  2  3  1  0
  1  4  1  0
  4  5  2  0
  4  6  1  0
  6  7  2  0
  5  8  1  0
  3  9  2  0
  3 10  1  0
  7 11  1  0
  8 11  2  0
 10 12  2  0
  9 13  1  0
 12 14  1  0
 12 15  1  0
 13 15  2  0
 14 16  1  0
M  END
