x0805_0_A_α-x0471_0_A_α
     RDKit          3D

 23 25  0  0  0  0  0  0  0  0999 V2000
   -1.5320   15.0890   -0.5020 O   0  0  0  0  0  0  0  0  0  0  0  0
   -1.8760   14.6310   -1.7360 C   0  0  0  0  0  0  0  0  0  0  0  0
   -3.1640   14.3340   -2.0400 C   0  0  0  0  0  0  0  0  0  0  0  0
   -0.8770   14.4750   -2.6650 C   0  0  0  0  0  0  0  0  0  0  0  0
   -1.2030   13.9960   -3.9300 C   0  0  0  0  0  0  0  0  0  0  0  0
   -3.5160   13.8490   -3.2960 C   0  0  0  0  0  0  0  0  0  0  0  0
   -4.1010   14.5260   -1.0220 C   0  0  0  0  0  0  0  0  0  0  0  0
   -2.5220   13.6790   -4.2510 C   0  0  0  0  0  0  0  0  0  0  0  0
   -5.4250   14.3200   -1.3120 C   0  0  0  0  0  0  0  0  0  0  0  0
   -3.6350   14.8960    0.2450 C   0  0  0  0  0  0  0  0  0  0  0  0
   -6.2790   14.4660   -0.2630 C   0  0  0  0  0  0  0  0  0  0  0  0
   -4.5160   15.0480    1.2890 C   0  0  0  0  0  0  0  0  0  0  0  0
   -7.6210   14.3220   -0.1820 N   0  0  0  0  0  0  0  0  0  0  0  0
   -5.8630   14.8100    1.0180 C   0  0  0  0  0  0  0  0  0  0  0  0
   -7.9730   14.5580    1.1130 C   0  0  0  0  0  0  0  0  0  0  0  0
   -6.9320   14.8580    1.8550 N   0  0  0  0  0  0  0  0  0  0  0  0
   -9.3720   14.4650    1.5610 C   0  0  0  0  0  0  0  0  0  0  0  0
   -9.3460   14.1610    2.9720 N   0  0  0  0  0  0  0  0  0  0  0  0
   -9.3300   15.2020    3.8660 C   0  0  0  0  0  0  0  0  0  0  0  0
   -9.3760   16.3640    3.4840 O   0  0  0  0  0  0  0  0  0  0  0  0
   -9.2940   14.8060    5.3390 C   0  0  0  0  0  0  0  0  0  0  0  0
   -9.6250   13.3290    5.5290 C   0  0  0  0  0  0  0  0  0  0  0  0
   -7.9570   15.1750    5.9730 C   0  0  0  0  0  0  0  0  0  0  0  0
  1  2  1  0
  2  3  2  0
  2  4  1  0
  4  5  2  0
  3  6  1  0
  3  7  1  0
  5  8  1  0
  6  8  2  0
  7  9  2  0
  7 10  1  0
  9 11  1  0
 10 12  2  0
 11 13  1  0
 11 14  2  0
 12 14  1  0
 13 15  1  0
 14 16  1  0
 15 16  2  0
 15 17  1  0
 17 18  1  0
 18 19  1  0
 19 20  2  0
 19 21  1  0
 21 22  1  0
 21 23  1  0
M  END
