x0805_0_A_α-x0685_0_A_α
     RDKit          3D

 19 20  0  0  0  0  0  0  0  0999 V2000
   -2.2080   14.8470    0.6810 O   0  0  0  0  0  0  0  0  0  0  0  0
   -3.3220   15.4160    1.3930 C   0  0  0  0  0  0  0  0  0  0  0  0
   -4.4510   15.2140    0.5390 C   0  0  0  0  0  0  0  0  0  0  0  0
   -2.3230   14.3010   -0.6130 C   0  0  0  0  0  0  0  0  0  0  0  0
   -3.3680   13.3760   -0.8360 C   0  0  0  0  0  0  0  0  0  0  0  0
   -1.4820   14.5980   -1.6940 C   0  0  0  0  0  0  0  0  0  0  0  0
   -1.6730   14.0000   -2.9520 C   0  0  0  0  0  0  0  0  0  0  0  0
   -3.5590   12.7780   -2.1000 C   0  0  0  0  0  0  0  0  0  0  0  0
   -5.7890   15.0020    0.8640 C   0  0  0  0  0  0  0  0  0  0  0  0
   -4.0310   15.2570   -0.7470 C   0  0  0  0  0  0  0  0  0  0  0  0
   -6.2250   14.9850    2.1970 N   0  0  0  0  0  0  0  0  0  0  0  0
   -2.7060   13.0940   -3.1540 C   0  0  0  0  0  0  0  0  0  0  0  0
   -4.8850   15.0880   -1.7560 C   0  0  0  0  0  0  0  0  0  0  0  0
   -6.6740   14.8280   -0.1430 N   0  0  0  0  0  0  0  0  0  0  0  0
   -7.6220   14.7130    2.5090 C   0  0  0  0  0  0  0  0  0  0  0  0
   -4.3360   15.1400   -3.0590 C   0  0  0  0  0  0  0  0  0  0  0  0
   -6.2120   14.8720   -1.4280 C   0  0  0  0  0  0  0  0  0  0  0  0
   -7.8110   13.2940    3.0170 C   0  0  0  0  0  0  0  0  0  0  0  0
   -3.8150   15.1770   -4.0960 N   0  0  0  0  0  0  0  0  0  0  0  0
  1  2  1  0
  2  3  1  0
  1  4  1  0
  4  5  2  0
  4  6  1  0
  6  7  2  0
  5  8  1  0
  3  9  2  0
  3 10  1  0
  9 11  1  0
  7 12  1  0
  8 12  2  0
 10 13  2  0
  9 14  1  0
 11 15  1  0
 13 16  1  0
 13 17  1  0
 14 17  2  0
 15 18  1  0
 16 19  3  0
M  END
