x0805_0_A-x0290_0_A
     RDKit          3D

 29 31  0  0  0  0  0  0  0  0999 V2000
   -4.1600   14.3810    0.2900 C   0  0  2  0  0  0  0  0  0  0  0  0
   -4.2140   15.0950   -0.9360 O   0  0  0  0  0  0  0  0  0  0  0  0
   -3.7490   14.3010   -1.9330 C   0  0  0  0  0  0  0  0  0  0  0  0
   -5.1070   14.9010    1.3260 C   0  0  0  0  0  0  0  0  0  0  0  0
   -2.6740   14.4750    0.5380 C   0  0  0  0  0  0  0  0  0  0  0  0
   -4.8570   15.9690    1.7980 O   0  0  0  0  0  0  0  0  0  0  0  0
   -6.3410   14.0700    1.7250 C   0  0  0  0  0  0  0  0  0  0  0  0
   -1.9660   14.4080    1.7100 N   0  0  0  0  0  0  0  0  0  0  0  0
   -2.0600   14.6530   -0.6760 C   0  0  0  0  0  0  0  0  0  0  0  0
   -7.3380   14.0010    0.6370 N   0  0  0  0  0  0  0  0  0  0  0  0
   -4.4860   13.2480   -2.4120 C   0  0  0  0  0  0  0  0  0  0  0  0
   -2.4630   14.5610   -2.4740 C   0  0  0  0  0  0  0  0  0  0  0  0
   -0.6200   14.5220    1.5590 C   0  0  0  0  0  0  0  0  0  0  0  0
   -0.7130   14.7730   -0.7730 C   0  0  0  0  0  0  0  0  0  0  0  0
   -8.4790   14.8680    0.8770 C   0  0  0  0  0  0  0  0  0  0  0  0
   -0.0510   14.9700   -2.0790 C   0  0  0  0  0  0  0  0  0  0  0  0
   -3.9750   12.4460   -3.4120 C   0  0  0  0  0  0  0  0  0  0  0  0
   -1.9200   13.7410   -3.4980 C   0  0  0  0  0  0  0  0  0  0  0  0
    0.0180   14.7100    0.3570 C   0  0  0  0  0  0  0  0  0  0  0  0
   -2.7170   12.6860   -3.9440 C   0  0  0  0  0  0  0  0  0  0  0  0
   -0.5380   13.8780   -4.1810 C   0  0  2  0  0  0  0  0  0  0  0  0
    0.6280   13.2030   -3.4540 C   0  0  1  0  0  0  0  0  0  0  0  0
   -0.0450   15.2840   -4.5460 C   0  0  0  0  0  0  0  0  0  0  0  0
    0.3620   11.9640   -2.6580 C   0  0  0  0  0  0  0  0  0  0  0  0
    1.7870   13.0460   -4.3880 C   0  0  0  0  0  0  0  0  0  0  0  0
    1.4770   15.4790   -4.4220 C   0  0  0  0  0  0  0  0  0  0  0  0
    0.1330   10.8570   -3.3930 O   0  0  0  0  0  0  0  0  0  0  0  0
    0.3700   11.9440   -1.4430 O   0  0  0  0  0  0  0  0  0  0  0  0
    2.3090   14.3250   -4.6910 O   0  0  0  0  0  0  0  0  0  0  0  0
  1  2  1  6
  2  3  1  0
  1  4  1  0
  1  5  1  0
  4  6  2  0
  4  7  1  0
  5  8  2  0
  5  9  1  0
  7 10  1  0
  3 11  2  0
  3 12  1  0
  8 13  1  0
  9 14  2  0
 10 15  1  0
 14 16  1  0
 11 17  1  0
 12 18  2  0
 13 19  2  0
 14 19  1  0
 17 20  2  0
 18 20  1  0
 21 18  1  1
 21 22  1  0
 21 23  1  0
 22 24  1  6
 22 25  1  0
 23 26  1  0
 24 27  1  0
 24 28  2  0
 25 29  1  0
 26 29  1  0
M  END
