x0805_0_A-x0837_0_A
     RDKit          3D

 25 27  0  0  0  0  0  0  0  0999 V2000
   -3.9300   15.9070    1.1420 C   0  0  0  0  0  0  0  0  0  0  0  0
   -2.8750   15.3240    0.4540 O   0  0  0  0  0  0  0  0  0  0  0  0
   -2.9310   14.9940   -0.8640 C   0  0  0  0  0  0  0  0  0  0  0  0
   -4.0770   14.9170   -1.6620 C   0  0  0  0  0  0  0  0  0  0  0  0
   -1.9280   14.6920   -1.6460 C   0  0  0  0  0  0  0  0  0  0  0  0
   -3.7940   14.6250   -2.5910 I   0  0  0  0  0  0  0  0  0  0  0  0
   -3.9440   14.5440   -3.0520 C   0  0  0  0  0  0  0  0  0  0  0  0
   -1.5570   14.3370   -2.8930 C   0  0  0  0  0  0  0  0  0  0  0  0
   -2.6800   14.2530   -3.6640 C   0  0  0  0  0  0  0  0  0  0  0  0
   -0.1310   14.1330   -3.1590 C   0  0  1  0  0  0  0  0  0  0  0  0
   -5.2430   13.9130   -1.2140 C   0  0  1  0  0  0  0  0  0  0  0  0
    0.1300   12.9350   -4.1130 C   0  0  2  0  0  0  0  0  0  0  0  0
    0.4110   15.3570   -3.8450 C   0  0  0  0  0  0  0  0  0  0  0  0
   -4.6380   13.3360    0.0040 C   0  0  0  0  0  0  0  0  0  0  0  0
   -6.3040   14.9490   -0.9840 C   0  0  0  0  0  0  0  0  0  0  0  0
    0.5070   11.8110   -3.2090 C   0  0  0  0  0  0  0  0  0  0  0  0
    1.2310   13.1960   -5.1040 C   0  0  0  0  0  0  0  0  0  0  0  0
    1.8160   15.1950   -4.2480 C   0  0  0  0  0  0  0  0  0  0  0  0
   -5.1250   13.5060    1.2160 C   0  0  0  0  0  0  0  0  0  0  0  0
   -7.0300   14.6890    0.2570 C   0  0  0  0  0  0  0  0  0  0  0  0
    0.0770   10.5410   -3.4890 O   0  0  0  0  0  0  0  0  0  0  0  0
    1.2110   12.1180   -2.2230 O   0  0  0  0  0  0  0  0  0  0  0  0
   -8.2960   14.8170    0.3440 O   0  0  0  0  0  0  0  0  0  0  0  0
    2.2440   13.9130   -4.4650 O   0  0  0  0  0  0  0  0  0  0  0  0
   -6.2930   14.2770    1.4170 N   0  0  0  0  0  0  0  0  0  0  0  0
  1  2  1  0
  2  3  1  0
  3  4  2  0
  3  5  1  0
  5  6  1  0
  4  7  1  0
  5  8  2  0
  7  9  2  0
  8  9  1  0
 10  8  1  6
 11  6  1  6
 10 12  1  0
 10 13  1  0
 11 14  1  0
 11 15  1  0
 12 16  1  1
 12 17  1  0
 13 18  1  0
 14 19  2  0
 15 20  1  0
 16 21  1  0
 16 22  2  0
 20 23  2  0
 17 24  1  0
 18 24  1  0
 19 25  1  0
 20 25  1  0
M  END
