x0805_0_A_α-x1012_0_A_α
     RDKit          3D

 19 20  0  0  0  0  0  0  0  0999 V2000
   -3.1070   15.3390   -0.1210 O   0  0  0  0  0  0  0  0  0  0  0  0
   -4.3790   15.6460    0.4290 C   0  0  0  0  0  0  0  0  0  0  0  0
   -3.1120   14.9400   -1.4980 C   0  0  2  0  0  0  0  0  0  0  0  0
   -4.0940   13.7670   -1.6430 C   0  0  0  0  0  0  0  0  0  0  0  0
   -1.6940   14.5060   -1.8980 C   0  0  0  0  0  0  0  0  0  0  0  0
   -1.5600   13.9310   -3.3350 C   0  0  1  0  0  0  0  0  0  0  0  0
   -3.7200   12.7570   -2.6960 C   0  0  0  0  0  0  0  0  0  0  0  0
   -2.6060   12.8190   -3.4450 C   0  0  0  0  0  0  0  0  0  0  0  0
   -1.8740   15.0240   -4.3970 C   0  0  0  0  0  0  0  0  0  0  0  0
   -0.1320   13.3580   -3.5630 C   0  0  2  0  0  0  0  0  0  0  0  0
    0.2900   12.4160   -2.4420 C   0  0  0  0  0  0  0  0  0  0  0  0
    0.9250   14.4700   -3.7030 C   0  0  0  0  0  0  0  0  0  0  0  0
   -0.8050   15.9740   -4.7390 N   0  0  0  0  0  0  0  0  0  0  0  0
   -1.2000   17.2890   -4.7960 C   0  0  0  0  0  0  0  0  0  0  0  0
    0.3770   11.1380   -2.8600 O   0  0  0  0  0  0  0  0  0  0  0  0
    0.5340   12.6880   -1.2820 O   0  0  0  0  0  0  0  0  0  0  0  0
    0.5900   15.5340   -4.7450 C   0  0  0  0  0  0  0  0  0  0  0  0
   -0.2340   18.2270   -4.7570 N   0  0  0  0  0  0  0  0  0  0  0  0
   -2.3630   17.6670   -4.8630 O   0  0  0  0  0  0  0  0  0  0  0  0
  1  2  1  0
  3  1  1  1
  3  4  1  0
  3  5  1  0
  6  5  1  1
  4  7  1  0
  6  8  1  0
  7  8  2  0
  6  9  1  0
  6 10  1  0
 10 11  1  1
 10 12  1  0
  9 13  1  0
 13 14  1  0
 11 15  1  0
 11 16  2  0
 12 17  1  0
 13 17  1  0
 14 18  1  0
 14 19  2  0
M  END
