x0805_0_A_β-x0438_0_A_α
     RDKit          3D

 26 28  0  0  0  0  0  0  0  0999 V2000
    0.4050   11.9670   -2.5640 C   0  0  0  0  0  0  0  0  0  0  0  0
    0.4830   10.6190   -2.6180 O   0  0  0  0  0  0  0  0  0  0  0  0
    0.2950   12.3760   -1.3610 N   0  0  0  0  0  0  0  0  0  0  0  0
    0.4440   12.6890   -3.9110 C   0  0  1  0  0  0  0  0  0  0  0  0
    0.1550   13.7450   -0.8990 C   0  0  0  0  0  0  0  0  0  0  0  0
   -0.4870   13.9240   -3.9210 C   0  0  0  0  0  0  0  0  0  0  0  0
    1.8650   13.0270   -4.4070 C   0  0  0  0  0  0  0  0  0  0  0  0
   -0.7470   13.6560    0.3250 C   0  0  0  0  0  0  0  0  0  0  0  0
    2.3710   14.2290   -3.8290 O   0  0  0  0  0  0  0  0  0  0  0  0
    0.2070   15.2330   -3.5460 C   0  0  0  0  0  0  0  0  0  0  0  0
   -1.4380   14.9430    0.7010 C   0  0  0  0  0  0  0  0  0  0  0  0
    1.5730   15.3520   -4.1790 C   0  0  0  0  0  0  0  0  0  0  0  0
   -2.9050   14.9540    0.2490 C   0  0  0  0  0  0  0  0  0  0  0  0
   -3.3470   15.2620   -1.0650 C   0  0  0  0  0  0  0  0  0  0  0  0
   -3.8610   14.6270    1.2140 C   0  0  0  0  0  0  0  0  0  0  0  0
   -5.2160   14.5990    0.8750 C   0  0  0  0  0  0  0  0  0  0  0  0
   -4.7130   15.2470   -1.4220 C   0  0  0  0  0  0  0  0  0  0  0  0
   -6.2970   14.2950    1.6590 N   0  0  0  0  0  0  0  0  0  0  0  0
   -5.6190   14.9030   -0.4160 C   0  0  0  0  0  0  0  0  0  0  0  0
   -6.9920   14.7690   -0.3820 N   0  0  0  0  0  0  0  0  0  0  0  0
   -7.3540   14.3910    0.8990 C   0  0  0  0  0  0  0  0  0  0  0  0
   -8.7560   14.1260    1.3230 C   0  0  0  0  0  0  0  0  0  0  0  0
   -9.3640   15.3190    2.5080 S   0  0  0  0  0  0  0  0  0  0  0  0
   -8.1240   15.4500    3.7850 C   0  0  0  0  0  0  0  0  0  0  0  0
  -10.5440   14.7360    3.1210 O   0  0  0  0  0  0  0  0  0  0  0  0
   -9.5000   16.5850    1.8200 O   0  0  0  0  0  0  0  0  0  0  0  0
  1  2  1  0
  1  3  2  3
  4  1  1  1
  3  5  1  0
  4  6  1  0
  4  7  1  0
  5  8  1  0
  7  9  1  0
  6 10  1  0
  8 11  1  0
  9 12  1  0
 10 12  1  0
 11 13  1  0
 13 14  2  0
 13 15  1  0
 15 16  2  0
 14 17  1  0
 16 18  1  0
 16 19  1  0
 17 19  2  0
 19 20  1  0
 18 21  2  0
 20 21  1  0
 21 22  1  0
 23 22  1  0
 23 24  1  0
 23 25  2  0
 23 26  2  0
M  END
