x0805_0_A-x0128_0_A
     RDKit          3D

 33 36  0  0  0  0  0  0  0  0999 V2000
   -2.6890   14.9810    0.7710 C   0  0  0  0  0  0  0  0  0  0  0  0
   -3.5350   15.4460   -0.3230 N   0  0  0  0  0  0  0  0  0  0  0  0
   -3.1670   14.8870   -1.5350 C   0  0  0  0  0  0  0  0  0  0  0  0
   -4.8390   15.2250   -0.0880 C   0  0  0  0  0  0  0  0  0  0  0  0
   -4.1410   14.3670   -2.3960 C   0  0  0  0  0  0  0  0  0  0  0  0
   -1.8640   14.8510   -1.8930 C   0  0  0  0  0  0  0  0  0  0  0  0
   -5.7350   15.2900   -1.1560 C   0  0  0  0  0  0  0  0  0  0  0  0
   -5.2740   14.9290    1.1640 C   0  0  0  0  0  0  0  0  0  0  0  0
   -3.7760   13.8310   -3.6170 C   0  0  0  0  0  0  0  0  0  0  0  0
   -1.4690   14.3360   -3.0820 C   0  0  0  0  0  0  0  0  0  0  0  0
   -7.0790   15.0450   -0.9570 C   0  0  0  0  0  0  0  0  0  0  0  0
   -6.6010   14.6850    1.3840 C   0  0  0  0  0  0  0  0  0  0  0  0
   -7.0540   14.3950    2.6540 N   0  0  0  0  0  0  0  0  0  0  0  0
   -2.4190   13.8180   -3.9680 C   0  0  0  0  0  0  0  0  0  0  0  0
   -0.0140   14.3850   -3.3490 C   0  0  1  0  0  0  0  0  0  0  0  0
   -7.5140   14.7370    0.3270 C   0  0  0  0  0  0  0  0  0  0  0  0
   -8.0040   15.1720    3.2710 C   0  0  0  0  0  0  0  0  0  0  0  0
    0.9430   13.2080   -3.3780 C   0  0  1  0  0  0  0  0  0  0  0  0
    0.2500   15.2560   -4.5380 C   0  0  0  0  0  0  0  0  0  0  0  0
    0.5810   11.9980   -2.6000 C   0  0  0  0  0  0  0  0  0  0  0  0
   -9.0190   15.5680    2.7140 O   0  0  0  0  0  0  0  0  0  0  0  0
   -7.6540   15.4590    4.5740 N   0  0  0  0  0  0  0  0  0  0  0  0
    1.6830   13.0950   -4.6770 C   0  0  0  0  0  0  0  0  0  0  0  0
    1.7280   15.4780   -4.6080 C   0  0  0  0  0  0  0  0  0  0  0  0
    0.2430   10.9270   -3.3400 O   0  0  0  0  0  0  0  0  0  0  0  0
    0.5890   11.9790   -1.3920 O   0  0  0  0  0  0  0  0  0  0  0  0
    2.4780   14.2580   -4.7000 O   0  0  0  0  0  0  0  0  0  0  0  0
   -8.4650   16.1580    5.4820 C   0  0  0  0  0  0  0  0  0  0  0  0
   -9.1400   17.2850    5.0170 C   0  0  0  0  0  0  0  0  0  0  0  0
   -8.6480   15.8080    6.8120 C   0  0  0  0  0  0  0  0  0  0  0  0
   -9.9570   18.0560    5.7600 N   0  0  0  0  0  0  0  0  0  0  0  0
   -9.4860   16.5840    7.6120 C   0  0  0  0  0  0  0  0  0  0  0  0
  -10.1090   17.6860    7.0450 C   0  0  0  0  0  0  0  0  0  0  0  0
  1  2  1  0
  2  3  1  0
  2  4  1  0
  3  5  2  0
  3  6  1  0
  4  7  2  0
  4  8  1  0
  5  9  1  0
  6 10  2  0
  7 11  1  0
  8 12  2  0
 12 13  1  0
  9 14  2  0
 10 14  1  0
 15 10  1  6
 11 16  2  0
 12 16  1  0
 13 17  1  0
 15 18  1  0
 15 19  1  0
 18 20  1  6
 17 21  2  0
 17 22  1  0
 18 23  1  0
 19 24  1  0
 20 25  1  0
 20 26  2  0
 23 27  1  0
 24 27  1  0
 22 28  1  0
 28 29  2  0
 28 30  1  0
 29 31  1  0
 30 32  2  0
 31 33  2  0
 32 33  1  0
M  END
