x0805_0_A_β-x0727_0_A_α
     RDKit          3D

 19 20  0  0  0  0  0  0  0  0999 V2000
    0.3020   12.0200   -3.3650 C   0  0  0  0  0  0  0  0  0  0  0  0
   -1.0880   11.8400   -3.1620 O   0  0  0  0  0  0  0  0  0  0  0  0
    0.8450   11.0440   -2.5370 O   0  0  0  0  0  0  0  0  0  0  0  0
    0.6180   11.9810   -4.9080 C   0  0  1  0  0  0  0  0  0  0  0  0
    0.7230   13.3780   -2.8890 C   0  0  2  0  0  0  0  0  0  0  0  0
    0.0310   10.9580   -5.7500 N   0  0  0  0  0  0  0  0  0  0  0  0
    0.4050   13.3280   -5.5920 C   0  0  0  0  0  0  0  0  0  0  0  0
   -0.3710   14.3960   -3.2710 C   0  0  0  0  0  0  0  0  0  0  0  0
    2.1140   13.7160   -3.4780 C   0  0  0  0  0  0  0  0  0  0  0  0
    0.6280   10.8000   -6.9730 C   0  0  0  0  0  0  0  0  0  0  0  0
    2.4370   15.0850   -3.4380 O   0  0  0  0  0  0  0  0  0  0  0  0
    0.1470   15.7880   -3.4850 C   0  0  0  0  0  0  0  0  0  0  0  0
    1.5170   11.5460   -7.3260 O   0  0  0  0  0  0  0  0  0  0  0  0
    1.4680   15.8210   -4.1810 C   0  0  0  0  0  0  0  0  0  0  0  0
    0.1180    9.6460   -7.8090 C   0  0  0  0  0  0  0  0  0  0  0  0
   -1.1980    9.9890   -8.5030 C   0  0  0  0  0  0  0  0  0  0  0  0
   -0.1850    8.4030   -6.9700 C   0  0  0  0  0  0  0  0  0  0  0  0
   -2.3000    9.2370   -7.7570 C   0  0  0  0  0  0  0  0  0  0  0  0
   -1.6330    8.5740   -6.5590 C   0  0  0  0  0  0  0  0  0  0  0  0
  1  2  1  0
  1  3  1  0
  1  4  1  0
  5  1  1  6
  4  6  1  0
  4  7  1  6
  5  8  1  0
  5  9  1  0
  6 10  1  0
  9 11  1  0
  8 12  1  0
 10 13  2  0
 11 14  1  0
 12 14  1  0
 10 15  1  0
 15 16  1  0
 15 17  1  0
 16 18  1  0
 17 19  1  0
 18 19  1  0
M  END
