x0805_0_A_α-x0371_0_A_β
     RDKit          3D

 17 19  0  0  0  0  0  0  0  0999 V2000
   -1.8790   16.0980   -1.0210 O   0  0  0  0  0  0  0  0  0  0  0  0
   -2.0200   15.2160   -2.0620 C   0  0  0  0  0  0  0  0  0  0  0  0
   -3.1040   14.4060   -2.1410 C   0  0  0  0  0  0  0  0  0  0  0  0
   -1.0460   15.1580   -3.0220 C   0  0  0  0  0  0  0  0  0  0  0  0
   -1.1920   14.2530   -4.0760 C   0  0  0  0  0  0  0  0  0  0  0  0
   -3.2820   13.4960   -3.1780 C   0  0  0  0  0  0  0  0  0  0  0  0
   -4.0060   14.5400   -1.1110 C   0  0  0  0  0  0  0  0  0  0  0  0
   -2.3120   13.4160   -4.1600 C   0  0  0  0  0  0  0  0  0  0  0  0
   -3.4290   14.7250    0.1430 C   0  0  0  0  0  0  0  0  0  0  0  0
   -5.3610   14.4770   -1.3280 C   0  0  0  0  0  0  0  0  0  0  0  0
   -6.1560   14.5770   -0.2180 C   0  0  0  0  0  0  0  0  0  0  0  0
   -4.2050   14.8360    1.2630 C   0  0  0  0  0  0  0  0  0  0  0  0
   -5.5670   14.7440    1.0320 C   0  0  0  0  0  0  0  0  0  0  0  0
   -7.5110   14.5290   -0.1310 N   0  0  0  0  0  0  0  0  0  0  0  0
   -7.7640   14.6480    1.1470 C   0  0  0  0  0  0  0  0  0  0  0  0
   -6.6190   14.7820    1.8790 N   0  0  0  0  0  0  0  0  0  0  0  0
   -9.0930   14.6460    1.7820 C   0  0  0  0  0  0  0  0  0  0  0  0
  1  2  1  0
  2  3  2  0
  2  4  1  0
  4  5  2  0
  3  6  1  0
  3  7  1  0
  5  8  1  0
  6  8  2  0
  7  9  2  0
  7 10  1  0
 10 11  2  0
  9 12  1  0
 11 13  1  0
 12 13  2  0
 11 14  1  0
 14 15  2  0
 13 16  1  0
 15 16  1  0
 15 17  1  0
M  END
