x0805_0_A_β-x0905_0_A_α
     RDKit          3D

 19 20  0  0  0  0  0  0  0  0999 V2000
    0.3600   12.1250   -2.3890 C   0  0  0  0  0  0  0  0  0  0  0  0
    0.1870   10.9210   -2.9640 O   0  0  0  0  0  0  0  0  0  0  0  0
    0.2110   12.3080   -1.1370 N   0  0  0  0  0  0  0  0  0  0  0  0
    0.7460   13.2590   -3.2830 C   0  0  2  0  0  0  0  0  0  0  0  0
    0.4090   13.6100   -0.5100 C   0  0  0  0  0  0  0  0  0  0  0  0
   -0.4410   13.9590   -3.9180 C   0  0  0  0  0  0  0  0  0  0  0  0
    1.7670   12.9450   -4.3410 C   0  0  0  0  0  0  0  0  0  0  0  0
   -0.7290   14.5500   -0.8440 C   0  0  0  0  0  0  0  0  0  0  0  0
    2.3590   14.1870   -4.6820 O   0  0  0  0  0  0  0  0  0  0  0  0
    0.0670   15.3120   -4.3570 C   0  0  0  0  0  0  0  0  0  0  0  0
   -1.6770   14.7820    0.3390 C   0  0  0  0  0  0  0  0  0  0  0  0
    1.6010   15.3870   -4.3920 C   0  0  0  0  0  0  0  0  0  0  0  0
   -3.1260   14.9460   -0.0260 C   0  0  0  0  0  0  0  0  0  0  0  0
   -4.1170   14.8800    0.9340 C   0  0  0  0  0  0  0  0  0  0  0  0
   -3.5300   15.1660   -1.3520 C   0  0  0  0  0  0  0  0  0  0  0  0
   -5.4400   15.0020    0.6790 N   0  0  0  0  0  0  0  0  0  0  0  0
   -4.8810   15.3000   -1.6480 C   0  0  0  0  0  0  0  0  0  0  0  0
   -5.7700   15.2060   -0.6030 C   0  0  0  0  0  0  0  0  0  0  0  0
   -7.1030   15.3150   -0.8100 O   0  0  0  0  0  0  0  0  0  0  0  0
  1  2  1  0
  1  3  2  3
  4  1  1  6
  3  5  1  0
  4  6  1  0
  4  7  1  0
  5  8  1  0
  7  9  1  0
  6 10  1  0
  8 11  1  0
  9 12  1  0
 10 12  1  0
 11 13  1  0
 13 14  2  0
 13 15  1  0
 14 16  1  0
 15 17  2  0
 16 18  2  0
 17 18  1  0
 18 19  1  0
M  END
