x0805_0_A_α-x0628_0_A_α
     RDKit          3D

 19 20  0  0  0  0  0  0  0  0999 V2000
   -3.5820   15.5230   -0.6450 O   0  0  0  0  0  0  0  0  0  0  0  0
   -4.1730   15.0120    0.5440 C   0  0  0  0  0  0  0  0  0  0  0  0
   -3.0930   14.6690   -1.6090 C   0  0  0  0  0  0  0  0  0  0  0  0
   -3.9900   13.7460   -2.1770 C   0  0  0  0  0  0  0  0  0  0  0  0
   -1.7810   14.6570   -2.0620 C   0  0  0  0  0  0  0  0  0  0  0  0
   -1.3600   13.7680   -3.0530 C   0  0  0  0  0  0  0  0  0  0  0  0
   -3.5640   12.8350   -3.1860 C   0  0  0  0  0  0  0  0  0  0  0  0
   -2.2220   12.8370   -3.6440 C   0  0  0  0  0  0  0  0  0  0  0  0
   -1.6290   11.9420   -4.6990 C   0  0  0  0  0  0  0  0  0  0  0  0
   -2.1210   10.8010   -5.1880 N   0  0  0  0  0  0  0  0  0  0  0  0
   -0.4230   12.1660   -5.3610 N   0  0  0  0  0  0  0  0  0  0  0  0
    0.5320   13.2500   -5.2360 C   0  0  0  0  0  0  0  0  0  0  0  0
   -1.1880   10.3860   -6.1200 C   0  0  0  0  0  0  0  0  0  0  0  0
   -0.1410   11.1960   -6.2540 N   0  0  0  0  0  0  0  0  0  0  0  0
   -1.3120    9.1480   -6.9160 C   0  0  0  0  0  0  0  0  0  0  0  0
    1.6640   12.9540   -4.2540 C   0  0  0  0  0  0  0  0  0  0  0  0
    1.1760   12.2390   -3.0250 C   0  0  0  0  0  0  0  0  0  0  0  0
    0.6730   11.1300   -2.9450 O   0  0  0  0  0  0  0  0  0  0  0  0
    1.3490   12.9780   -1.9160 O   0  0  0  0  0  0  0  0  0  0  0  0
  1  2  1  0
  1  3  1  0
  3  4  2  0
  3  5  1  0
  5  6  2  0
  4  7  1  0
  6  8  1  0
  7  8  2  0
  8  9  1  0
  9 10  2  0
  9 11  1  0
 11 12  1  0
 10 13  1  0
 11 14  1  0
 13 14  2  0
 13 15  1  0
 12 16  1  0
 16 17  1  0
 17 18  2  0
 17 19  1  0
M  END
