x0805_0_A_α-x0711_0_A_α
     RDKit          3D

 15 15  0  0  0  0  0  0  0  0999 V2000
   -3.4250   15.7860    0.1990 O   0  0  0  0  0  0  0  0  0  0  0  0
   -4.2500   15.4720    1.3050 C   0  0  0  0  0  0  0  0  0  0  0  0
   -3.3470   14.9010   -0.8400 C   0  0  0  0  0  0  0  0  0  0  0  0
   -4.4980   14.1440   -1.1830 C   0  0  0  0  0  0  0  0  0  0  0  0
   -2.1580   14.7390   -1.5560 C   0  0  0  0  0  0  0  0  0  0  0  0
   -5.8520   14.2360   -0.4490 C   0  0  0  0  0  0  0  0  0  0  0  0
   -2.0680   13.8540   -2.6080 C   0  0  0  0  0  0  0  0  0  0  0  0
   -4.3790   13.2360   -2.2810 C   0  0  0  0  0  0  0  0  0  0  0  0
   -5.9880   13.7240    0.8160 N   0  0  0  0  0  0  0  0  0  0  0  0
   -6.8460   14.7540   -0.9500 O   0  0  0  0  0  0  0  0  0  0  0  0
   -3.1710   13.0910   -2.9940 C   0  0  0  0  0  0  0  0  0  0  0  0
   -0.5060   13.7280   -3.4300 S   0  0  0  0  0  0  0  0  0  0  0  0
   -0.8660   12.5730   -4.7150 C   0  0  0  0  0  0  0  0  0  0  0  0
   -0.1860   15.0050   -4.0350 O   0  0  0  0  0  0  0  0  0  0  0  0
    0.3900   13.1240   -2.4650 O   0  0  0  0  0  0  0  0  0  0  0  0
  1  2  1  0
  1  3  1  0
  3  4  2  0
  3  5  1  0
  4  6  1  0
  5  7  2  0
  4  8  1  0
  6  9  1  0
  6 10  2  0
  7 11  1  0
  8 11  2  0
  7 12  1  0
 12 13  1  0
 12 14  2  0
 12 15  2  0
M  END
