x0805_0_A_β-x0253_0_A_α
     RDKit          3D

 20 21  0  0  0  0  0  0  0  0999 V2000
    0.3560   12.0790   -3.1870 C   0  0  0  0  0  0  0  0  0  0  0  0
    1.6580   11.7500   -2.8410 O   0  0  0  0  0  0  0  0  0  0  0  0
   -0.3150   12.2620   -1.9280 O   0  0  0  0  0  0  0  0  0  0  0  0
   -0.1760   11.0410   -4.1590 C   0  0  0  0  0  0  0  0  0  0  0  0
    0.3710   13.3060   -4.0670 C   0  0  1  0  0  0  0  0  0  0  0  0
   -0.1680   11.6540   -5.5010 N   0  0  0  0  0  0  0  0  0  0  0  0
   -0.5100   14.4620   -3.5780 C   0  0  0  0  0  0  0  0  0  0  0  0
    1.7680   13.6220   -4.5900 C   0  0  0  0  0  0  0  0  0  0  0  0
    0.8010   11.4940   -6.4900 C   0  0  0  0  0  0  0  0  0  0  0  0
    2.3120   14.7340   -3.9270 O   0  0  0  0  0  0  0  0  0  0  0  0
    0.1740   15.8040   -3.4700 C   0  0  0  0  0  0  0  0  0  0  0  0
    1.9110   12.0170   -6.4970 O   0  0  0  0  0  0  0  0  0  0  0  0
    1.4990   15.8630   -4.1640 C   0  0  0  0  0  0  0  0  0  0  0  0
    0.3360   10.6010   -7.5710 C   0  0  0  0  0  0  0  0  0  0  0  0
   -0.6210    9.6390   -7.2710 C   0  0  0  0  0  0  0  0  0  0  0  0
    0.8290   10.7080   -8.8780 C   0  0  0  0  0  0  0  0  0  0  0  0
   -1.0990    8.7820   -8.2590 C   0  0  0  0  0  0  0  0  0  0  0  0
    0.3570    9.8530   -9.8690 C   0  0  0  0  0  0  0  0  0  0  0  0
   -2.1360    7.7550   -7.9100 C   0  0  0  0  0  0  0  0  0  0  0  0
   -0.6050    8.8940   -9.5630 C   0  0  0  0  0  0  0  0  0  0  0  0
  1  2  1  0
  1  3  1  0
  1  4  1  0
  5  1  1  1
  4  6  1  0
  5  7  1  0
  5  8  1  0
  6  9  1  0
  8 10  1  0
  7 11  1  0
  9 12  2  0
 10 13  1  0
 11 13  1  0
  9 14  1  0
 14 15  2  0
 14 16  1  0
 15 17  1  0
 16 18  2  0
 17 19  1  0
 17 20  2  0
 18 20  1  0
M  END
