x0805_0_A_β-x0900_1_A_α
     RDKit          3D

 17 18  0  0  0  0  0  0  0  0999 V2000
    0.3430   11.9790   -2.5520 C   0  0  0  0  0  0  0  0  0  0  0  0
   -0.1000   10.6870   -2.6860 O   0  0  0  0  0  0  0  0  0  0  0  0
   -1.0730   10.4810   -3.7400 C   0  0  0  0  0  0  0  0  0  0  0  0
    0.5990   12.4840   -1.4620 O   0  0  0  0  0  0  0  0  0  0  0  0
    0.4640   12.7150   -3.8970 C   0  0  1  0  0  0  0  0  0  0  0  0
   -0.4660   13.9450   -3.9200 C   0  0  0  0  0  0  0  0  0  0  0  0
    1.9220   12.9950   -4.3220 C   0  0  0  0  0  0  0  0  0  0  0  0
   -0.3310    9.9150   -4.9530 C   0  0  0  0  0  0  0  0  0  0  0  0
    2.4320   14.2400   -3.8600 O   0  0  0  0  0  0  0  0  0  0  0  0
    0.2300   15.2330   -3.5090 C   0  0  0  0  0  0  0  0  0  0  0  0
    1.5930   15.3460   -4.1520 C   0  0  0  0  0  0  0  0  0  0  0  0
   -1.0200    9.6960   -6.3090 C   0  0  1  0  0  0  0  0  0  0  0  0
   -0.1850    9.6100   -7.4730 N   0  0  0  0  0  0  0  0  0  0  0  0
   -1.8490    8.4480   -6.5050 C   0  0  0  0  0  0  0  0  0  0  0  0
   -0.9930    9.3370   -8.5470 C   0  0  0  0  0  0  0  0  0  0  0  0
   -2.1470    8.5240   -8.0060 C   0  0  0  0  0  0  0  0  0  0  0  0
   -0.8160    9.6900   -9.7000 O   0  0  0  0  0  0  0  0  0  0  0  0
  1  2  1  0
  2  3  1  0
  1  4  2  0
  5  1  1  1
  5  6  1  0
  5  7  1  0
  3  8  1  0
  7  9  1  0
  6 10  1  0
  9 11  1  0
 10 11  1  0
 12  8  1  1
 12 13  1  0
 12 14  1  0
 13 15  1  0
 14 16  1  0
 15 16  1  0
 15 17  2  0
M  END
