x0805_0_A_α-5cb5_D_0_D_α
     RDKit          3D

 22 23  0  0  0  0  0  0  0  0999 V2000
   -3.0620   15.9490   -0.8970 O   0  0  0  0  0  0  0  0  0  0  0  0
   -3.9230   15.7410    0.2310 C   0  0  0  0  0  0  0  0  0  0  0  0
   -2.9500   14.9280   -1.8100 C   0  0  0  0  0  0  0  0  0  0  0  0
   -3.5650   13.6880   -1.5960 C   0  0  0  0  0  0  0  0  0  0  0  0
   -2.1860   15.1370   -3.0190 C   0  0  0  0  0  0  0  0  0  0  0  0
   -1.4800   16.4540   -3.3890 C   0  0  0  0  0  0  0  0  0  0  0  0
   -2.0830   14.0720   -3.9250 C   0  0  0  0  0  0  0  0  0  0  0  0
   -3.4430   12.6580   -2.5240 C   0  0  0  0  0  0  0  0  0  0  0  0
   -1.0030   16.7580   -4.8530 C   0  0  0  0  0  0  0  0  0  0  0  0
   -2.7030   12.8500   -3.6820 C   0  0  0  0  0  0  0  0  0  0  0  0
   -1.8190   17.7540   -5.7680 C   0  0  0  0  0  0  0  0  0  0  0  0
   -1.7080   19.3000   -5.5150 C   0  0  0  0  0  0  0  0  0  0  0  0
   -3.0350   20.0710   -5.7700 C   0  0  0  0  0  0  0  0  0  0  0  0
   -3.1430   21.4450   -6.0730 O   0  0  0  0  0  0  0  0  0  0  0  0
   -4.3940   21.7860   -6.7000 C   0  0  2  0  0  0  0  0  0  0  0  0
   -4.2430   21.3260   -8.0050 O   0  0  0  0  0  0  0  0  0  0  0  0
   -4.4090   23.3320   -6.8460 C   0  0  2  0  0  0  0  0  0  0  0  0
   -5.7410   23.8350   -7.0650 O   0  0  0  0  0  0  0  0  0  0  0  0
   -3.0360   22.0300   -8.0390 C   0  0  2  0  0  0  0  0  0  0  0  0
   -3.5210   23.4750   -8.0850 C   0  0  1  0  0  0  0  0  0  0  0  0
   -2.0860   21.4100   -8.9780 C   0  0  0  0  0  0  0  0  0  0  0  0
   -4.3520   23.8160   -9.2080 O   0  0  0  0  0  0  0  0  0  0  0  0
  1  2  1  0
  1  3  1  0
  3  4  2  0
  3  5  1  0
  5  6  1  0
  5  7  2  0
  4  8  1  0
  6  9  1  0
  7 10  1  0
  8 10  2  0
  9 11  1  0
 11 12  1  0
 12 13  1  0
 13 14  1  0
 15 14  1  1
 15 16  1  0
 15 17  1  0
 17 18  1  6
 16 19  1  0
 17 20  1  0
 19 20  1  0
 19 21  1  6
 20 22  1  6
M  END
