x0805_0_A_β-x0685_0_A_α
     RDKit          3D

 22 23  0  0  0  0  0  0  0  0999 V2000
    0.2640   12.0950   -2.5060 C   0  0  0  0  0  0  0  0  0  0  0  0
   -0.0970   10.9240   -3.0560 O   0  0  0  0  0  0  0  0  0  0  0  0
    0.3030   12.2790   -1.3000 O   0  0  0  0  0  0  0  0  0  0  0  0
    0.6420   13.2200   -3.4200 C   0  0  2  0  0  0  0  0  0  0  0  0
   -0.2210   13.7090   -4.5790 C   0  0  2  0  0  0  0  0  0  0  0  0
    2.0330   12.9990   -3.9530 C   0  0  0  0  0  0  0  0  0  0  0  0
    2.4290   14.1830   -4.6220 O   0  0  0  0  0  0  0  0  0  0  0  0
    0.1410   15.1910   -4.5930 C   0  0  0  0  0  0  0  0  0  0  0  0
   -1.7540   13.5580   -4.5150 C   0  0  0  0  0  0  0  0  0  0  0  0
    1.6340   15.3680   -4.3810 C   0  0  0  0  0  0  0  0  0  0  0  0
   -2.5710   14.8470   -4.5660 C   0  0  0  0  0  0  0  0  0  0  0  0
   -3.1960   15.0420   -3.2670 C   0  0  0  0  0  0  0  0  0  0  0  0
   -3.6810   15.0920   -2.1890 C   0  0  0  0  0  0  0  0  0  0  0  0
   -4.2590   15.0580   -0.9000 C   0  0  0  0  0  0  0  0  0  0  0  0
   -3.4820   15.1620    0.2400 C   0  0  0  0  0  0  0  0  0  0  0  0
   -5.6200   14.9140   -0.7530 C   0  0  0  0  0  0  0  0  0  0  0  0
   -4.1050   15.1280    1.4790 C   0  0  0  0  0  0  0  0  0  0  0  0
   -6.2450   14.8730    0.4410 N   0  0  0  0  0  0  0  0  0  0  0  0
   -5.4870   14.9870    1.5490 C   0  0  0  0  0  0  0  0  0  0  0  0
   -6.2150   14.9680    2.7400 N   0  0  0  0  0  0  0  0  0  0  0  0
   -7.6410   14.7060    2.7200 C   0  0  0  0  0  0  0  0  0  0  0  0
   -7.9320   13.2310    2.9550 C   0  0  0  0  0  0  0  0  0  0  0  0
  1  2  1  0
  1  3  2  0
  4  1  1  6
  4  5  1  0
  4  6  1  0
  6  7  1  0
  5  8  1  0
  5  9  1  1
  7 10  1  0
  8 10  1  0
  9 11  1  0
 11 12  1  0
 12 13  3  0
 13 14  1  0
 14 15  2  0
 14 16  1  0
 15 17  1  0
 16 18  2  0
 17 19  2  0
 18 19  1  0
 19 20  1  0
 20 21  1  0
 21 22  1  0
M  END
