x0805_0_A_β-x0950_1_A_α
     RDKit          3D

 12 12  0  0  0  0  0  0  0  0999 V2000
    0.2200   12.0820   -3.3270 C   0  0  0  0  0  0  0  0  0  0  0  0
    1.0270   11.2780   -2.5180 O   0  0  0  0  0  0  0  0  0  0  0  0
   -0.9960   12.1280   -2.6190 O   0  0  0  0  0  0  0  0  0  0  0  0
    0.1540   11.5060   -4.7570 C   0  0  2  0  0  0  0  0  0  0  0  0
    0.7550   13.4660   -3.5470 C   0  0  1  0  0  0  0  0  0  0  0  0
    1.0370   12.3080   -5.7290 C   0  0  0  0  0  0  0  0  0  0  0  0
   -1.1640   11.5890   -5.2800 O   0  0  0  0  0  0  0  0  0  0  0  0
   -0.0750   14.5780   -2.8960 C   0  0  0  0  0  0  0  0  0  0  0  0
    2.2540   13.6200   -3.3250 C   0  0  0  0  0  0  0  0  0  0  0  0
    2.5670   14.9680   -3.6330 O   0  0  0  0  0  0  0  0  0  0  0  0
    0.2720   15.8370   -3.6300 C   0  0  0  0  0  0  0  0  0  0  0  0
    1.5160   15.5470   -4.4370 C   0  0  0  0  0  0  0  0  0  0  0  0
  1  2  1  0
  1  3  1  0
  1  4  1  0
  5  1  1  1
  4  6  1  6
  4  7  1  0
  5  8  1  0
  5  9  1  0
  9 10  1  0
  8 11  1  0
 10 12  1  0
 11 12  1  0
M  END
