x0805_0_A_α-5mqx_0_A_γ
     RDKit          3D

 16 17  0  0  0  0  0  0  0  0999 V2000
   -3.8060   15.7630    0.1380 O   0  0  0  0  0  0  0  0  0  0  0  0
   -4.5240   15.1000    1.1620 C   0  0  0  0  0  0  0  0  0  0  0  0
   -3.6680   15.1320   -1.0620 C   0  0  0  0  0  0  0  0  0  0  0  0
   -4.6750   14.6620   -1.9160 C   0  0  0  0  0  0  0  0  0  0  0  0
   -2.3520   14.9720   -1.4270 C   0  0  0  0  0  0  0  0  0  0  0  0
   -2.0260   14.3820   -2.6010 C   0  0  0  0  0  0  0  0  0  0  0  0
   -4.3380   14.0410   -3.1290 C   0  0  0  0  0  0  0  0  0  0  0  0
   -2.9950   13.9110   -3.4600 C   0  0  0  0  0  0  0  0  0  0  0  0
   -2.4200   13.2810   -4.6500 C   0  0  0  0  0  0  0  0  0  0  0  0
   -1.4450   12.5550   -3.7630 C   0  0  2  0  0  0  0  0  0  0  0  0
   -0.3180   13.3170   -3.3320 O   0  0  0  0  0  0  0  0  0  0  0  0
   -0.8890   11.1960   -3.9550 C   0  0  1  0  0  0  0  0  0  0  0  0
    0.2550   11.1260   -4.7770 O   0  0  0  0  0  0  0  0  0  0  0  0
    0.0350   12.5240   -2.1850 C   0  0  0  0  0  0  0  0  0  0  0  0
   -0.5560   11.1280   -2.4630 C   0  0  2  0  0  0  0  0  0  0  0  0
    0.4140   10.1210   -2.2220 O   0  0  0  0  0  0  0  0  0  0  0  0
  1  2  1  0
  1  3  1  0
  3  4  2  0
  3  5  1  0
  5  6  2  0
  4  7  1  0
  6  8  1  0
  7  8  2  0
  8  9  1  0
 10  9  1  6
 10 11  1  0
 10 12  1  0
 12 13  1  6
 11 14  1  0
 12 15  1  0
 14 15  1  0
 15 16  1  6
M  END
