x0805_0_A_α-x0587_0_A_α
     RDKit          3D

 20 21  0  0  0  0  0  0  0  0999 V2000
   -3.5480   15.1880   -0.9510 N   0  0  0  0  0  0  0  0  0  0  0  0
   -3.1930   15.0380    0.4600 C   0  0  0  0  0  0  0  0  0  0  0  0
   -4.9250   14.8180   -1.2870 C   0  0  0  0  0  0  0  0  0  0  0  0
   -2.8300   14.3790   -1.7860 C   0  0  0  0  0  0  0  0  0  0  0  0
   -4.8900   13.6090   -1.9320 F   0  0  0  0  0  0  0  0  0  0  0  0
   -5.3440   15.6580   -2.2700 F   0  0  0  0  0  0  0  0  0  0  0  0
   -3.5460   13.2360   -2.1670 C   0  0  0  0  0  0  0  0  0  0  0  0
   -1.5470   14.5620   -2.2850 C   0  0  0  0  0  0  0  0  0  0  0  0
   -5.8830   14.7960   -0.1140 C   0  0  0  0  0  0  0  0  0  0  0  0
   -1.0070   13.6210   -3.1540 C   0  0  0  0  0  0  0  0  0  0  0  0
   -3.0150   12.3020   -3.0240 C   0  0  0  0  0  0  0  0  0  0  0  0
   -7.1990   14.6610   -0.3840 N   0  0  0  0  0  0  0  0  0  0  0  0
   -5.3550   14.9190    1.1180 N   0  0  0  0  0  0  0  0  0  0  0  0
   -1.7380   12.4920   -3.5260 C   0  0  0  0  0  0  0  0  0  0  0  0
   -8.0190   14.6690    0.6790 C   0  0  0  0  0  0  0  0  0  0  0  0
   -6.2190   14.9210    2.1320 C   0  0  0  0  0  0  0  0  0  0  0  0
   -7.5720   14.8060    1.9710 C   0  0  0  0  0  0  0  0  0  0  0  0
   -8.5000   14.8390    3.0870 C   0  0  0  0  0  0  0  0  0  0  0  0
   -7.9450   14.7820    4.3300 N   0  0  0  0  0  0  0  0  0  0  0  0
   -9.7040   14.9320    2.9140 O   0  0  0  0  0  0  0  0  0  0  0  0
  1  2  1  0
  1  3  1  0
  1  4  1  0
  3  5  1  0
  3  6  1  0
  4  7  2  0
  4  8  1  0
  3  9  1  0
  8 10  2  0
  7 11  1  0
  9 12  2  0
  9 13  1  0
 10 14  1  0
 11 14  2  0
 12 15  1  0
 13 16  2  0
 15 17  2  0
 16 17  1  0
 17 18  1  0
 18 19  1  0
 18 20  2  0
M  END
