x0805_0_A-x0722_0_A
     RDKit          3D

 28 30  0  0  0  0  0  0  0  0999 V2000
   -3.9310   15.2130   -0.6940 O   0  0  0  0  0  0  0  0  0  0  0  0
   -3.5690   14.6820   -1.8970 C   0  0  0  0  0  0  0  0  0  0  0  0
   -2.1940   14.7020   -2.2440 C   0  0  0  0  0  0  0  0  0  0  0  0
   -4.5570   14.1550   -2.7180 C   0  0  0  0  0  0  0  0  0  0  0  0
   -4.1560   13.6340   -3.9330 C   0  0  0  0  0  0  0  0  0  0  0  0
   -1.7900   14.1640   -3.4850 C   0  0  0  0  0  0  0  0  0  0  0  0
   -1.3410   15.3210   -1.1790 C   0  0  0  0  0  0  0  0  0  0  0  0
   -6.0330   14.1150   -2.3940 C   0  0  0  0  0  0  0  0  0  0  0  0
   -2.8110   13.6410   -4.3060 C   0  0  0  0  0  0  0  0  0  0  0  0
   -0.4050   14.0510   -4.1270 C   0  0  2  0  0  0  0  0  0  0  0  0
   -2.1210   15.1850    0.0650 C   0  0  0  0  0  0  0  0  0  0  0  0
   -6.3820   14.3250   -0.9360 C   0  0  0  0  0  0  0  0  0  0  0  0
    0.7650   13.3930   -3.3770 C   0  0  1  0  0  0  0  0  0  0  0  0
    0.1400   15.3650   -4.6400 C   0  0  0  0  0  0  0  0  0  0  0  0
   -3.4250   15.5540    0.3690 C   0  0  0  0  0  0  0  0  0  0  0  0
   -1.6350   14.6160    1.1860 N   0  0  0  0  0  0  0  0  0  0  0  0
   -7.0990   15.2520   -0.5710 O   0  0  0  0  0  0  0  0  0  0  0  0
   -5.8960   13.4130   -0.0460 N   0  0  0  0  0  0  0  0  0  0  0  0
    0.4920   12.2110   -2.4910 C   0  0  0  0  0  0  0  0  0  0  0  0
    1.8370   13.0700   -4.3780 C   0  0  0  0  0  0  0  0  0  0  0  0
    1.6510   15.4980   -4.4760 C   0  0  0  0  0  0  0  0  0  0  0  0
   -0.3110   14.0840    1.3890 C   0  0  0  0  0  0  0  0  0  0  0  0
   -2.5350   14.5750    2.1680 N   0  0  0  0  0  0  0  0  0  0  0  0
   -3.6240   15.1410    1.6850 C   0  0  0  0  0  0  0  0  0  0  0  0
    0.2420   11.0170   -3.0780 O   0  0  0  0  0  0  0  0  0  0  0  0
    0.5270   12.3510   -1.2840 O   0  0  0  0  0  0  0  0  0  0  0  0
    2.4940   14.3150   -4.5250 O   0  0  0  0  0  0  0  0  0  0  0  0
   -4.8220   15.2570    2.5340 C   0  0  0  0  0  0  0  0  0  0  0  0
  1  2  1  0
  2  3  2  0
  2  4  1  0
  4  5  2  0
  3  6  1  0
  3  7  1  0
  4  8  1  0
  5  9  1  0
  6  9  2  0
 10  6  1  1
  7 11  1  0
  8 12  1  0
 10 13  1  0
 10 14  1  0
 11 15  2  0
 11 16  1  0
 12 17  2  0
 12 18  1  0
 13 19  1  6
 13 20  1  0
 14 21  1  0
 16 22  1  0
 16 23  1  0
 15 24  1  0
 23 24  2  0
 19 25  1  0
 19 26  2  0
 20 27  1  0
 21 27  1  0
 24 28  1  0
M  END
