x0805_0_A-x0592_0_A
     RDKit          3D

 26 28  0  0  0  0  0  0  0  0999 V2000
   -3.5380   16.0520    0.3090 C   0  0  0  0  0  0  0  0  0  0  0  0
   -3.7820   14.6150   -0.0710 C   0  0  2  0  0  0  0  0  0  0  0  0
   -3.0850   13.8570    0.8930 O   0  0  0  0  0  0  0  0  0  0  0  0
   -3.2470   14.2260   -1.4020 C   0  0  0  0  0  0  0  0  0  0  0  0
   -5.2560   14.3060   -0.1530 C   0  0  2  0  0  0  0  0  0  0  0  0
   -4.0760   13.5340   -2.2960 C   0  0  0  0  0  0  0  0  0  0  0  0
   -1.9620   14.5110   -1.7660 C   0  0  0  0  0  0  0  0  0  0  0  0
   -5.9660   15.1510   -1.2010 C   0  0  0  0  0  0  0  0  0  0  0  0
   -6.0740   14.5350    1.0870 C   0  0  0  0  0  0  0  0  0  0  0  0
   -3.6100   13.1350   -3.5370 C   0  0  0  0  0  0  0  0  0  0  0  0
   -1.4750   14.1180   -2.9940 C   0  0  0  0  0  0  0  0  0  0  0  0
   -7.3450   14.8270   -0.8940 N   0  0  0  0  0  0  0  0  0  0  0  0
   -7.3740   14.9260    0.5390 N   0  0  0  0  0  0  0  0  0  0  0  0
   -8.4970   14.2550    1.1680 C   0  0  0  0  0  0  0  0  0  0  0  0
   -2.3020   13.4260   -3.8940 C   0  0  0  0  0  0  0  0  0  0  0  0
   -0.0590   14.4530   -3.3030 C   0  0  1  0  0  0  0  0  0  0  0  0
   -8.3200   13.9650    2.6670 C   0  0  0  0  0  0  0  0  0  0  0  0
    0.9200   13.3030   -3.2280 C   0  0  1  0  0  0  0  0  0  0  0  0
    0.1690   15.2140   -4.5800 C   0  0  0  0  0  0  0  0  0  0  0  0
    0.5120   12.1060   -2.4300 C   0  0  0  0  0  0  0  0  0  0  0  0
   -7.4310   14.9150    3.2600 O   0  0  0  0  0  0  0  0  0  0  0  0
    1.6580   13.1120   -4.5130 C   0  0  0  0  0  0  0  0  0  0  0  0
    1.6420   15.5230   -4.6610 C   0  0  0  0  0  0  0  0  0  0  0  0
    0.2830   10.9390   -3.0530 O   0  0  0  0  0  0  0  0  0  0  0  0
    0.3950   12.2440   -1.2310 O   0  0  0  0  0  0  0  0  0  0  0  0
    2.4170   14.3100   -4.6990 O   0  0  0  0  0  0  0  0  0  0  0  0
  2  1  1  1
  2  3  1  0
  2  4  1  0
  2  5  1  0
  4  6  2  0
  4  7  1  0
  5  8  1  6
  5  9  1  0
  6 10  1  0
  7 11  2  0
  8 12  1  0
  9 13  1  0
 12 13  1  0
 13 14  1  0
 10 15  2  0
 11 15  1  0
 16 11  1  6
 14 17  1  0
 16 18  1  0
 16 19  1  0
 18 20  1  6
 17 21  1  0
 18 22  1  0
 19 23  1  0
 20 24  1  0
 20 25  2  0
 22 26  1  0
 23 26  1  0
M  END
