x0805_0_A_β-x0967_0_A_α
     RDKit          3D

 22 24  0  0  0  0  0  0  0  0999 V2000
    0.4150   11.9090   -2.5770 C   0  0  0  0  0  0  0  0  0  0  0  0
    0.4060   10.5520   -2.6810 O   0  0  0  0  0  0  0  0  0  0  0  0
    0.3590   12.2960   -1.3710 N   0  0  0  0  0  0  0  0  0  0  0  0
    0.4720   12.6840   -3.9060 C   0  0  1  0  0  0  0  0  0  0  0  0
    0.3360   13.6390   -0.8750 C   0  0  0  0  0  0  0  0  0  0  0  0
   -0.4810   13.8990   -3.9870 C   0  0  0  0  0  0  0  0  0  0  0  0
    1.9030   12.9700   -4.3860 C   0  0  0  0  0  0  0  0  0  0  0  0
   -0.7010   13.6600    0.2430 C   0  0  0  0  0  0  0  0  0  0  0  0
    2.3960   14.2050   -3.8780 O   0  0  0  0  0  0  0  0  0  0  0  0
    0.1720   15.2460   -3.6610 C   0  0  0  0  0  0  0  0  0  0  0  0
   -1.4350   14.9670    0.2320 C   0  0  0  0  0  0  0  0  0  0  0  0
    1.5880   15.3360   -4.1790 C   0  0  0  0  0  0  0  0  0  0  0  0
   -2.9280   14.8970   -0.0510 C   0  0  0  0  0  0  0  0  0  0  0  0
   -3.4490   14.8370   -1.3450 C   0  0  0  0  0  0  0  0  0  0  0  0
   -3.8620   14.8890    0.9820 C   0  0  0  0  0  0  0  0  0  0  0  0
   -5.2370   14.8090    0.6930 C   0  0  0  0  0  0  0  0  0  0  0  0
   -4.7700   14.7630   -1.6390 N   0  0  0  0  0  0  0  0  0  0  0  0
   -5.6590   14.7430   -0.6440 C   0  0  0  0  0  0  0  0  0  0  0  0
   -6.2190   14.7900    1.7030 C   0  0  0  0  0  0  0  0  0  0  0  0
   -6.9580   14.6570   -0.9500 N   0  0  0  0  0  0  0  0  0  0  0  0
   -7.5580   14.6960    1.3740 C   0  0  0  0  0  0  0  0  0  0  0  0
   -7.8740   14.6330    0.0420 C   0  0  0  0  0  0  0  0  0  0  0  0
  1  2  1  0
  1  3  2  3
  4  1  1  1
  3  5  1  0
  4  6  1  0
  4  7  1  0
  5  8  1  0
  7  9  1  0
  6 10  1  0
  8 11  1  0
  9 12  1  0
 10 12  1  0
 11 13  1  0
 13 14  2  0
 13 15  1  0
 15 16  2  0
 14 17  1  0
 16 18  1  0
 17 18  2  0
 16 19  1  0
 18 20  1  0
 19 21  2  0
 20 22  2  0
 21 22  1  0
M  END
