x0805_0_A_α-x0950_1_A_α
     RDKit          3D

 15 15  0  0  0  0  0  0  0  0999 V2000
   -3.4020   15.7330   -0.3440 O   0  0  0  0  0  0  0  0  0  0  0  0
   -4.2330   15.5050    0.7820 C   0  0  0  0  0  0  0  0  0  0  0  0
   -3.1830   14.6820   -1.1810 C   0  0  0  0  0  0  0  0  0  0  0  0
   -4.1630   14.5030   -2.1490 C   0  0  0  0  0  0  0  0  0  0  0  0
   -2.1020   13.8100   -1.1410 C   0  0  0  0  0  0  0  0  0  0  0  0
   -2.0020   12.7480   -2.0640 C   0  0  0  0  0  0  0  0  0  0  0  0
   -4.0710   13.4650   -3.0720 C   0  0  0  0  0  0  0  0  0  0  0  0
   -0.8460   11.7640   -2.0300 C   0  0  0  0  0  0  0  0  0  0  0  0
   -2.9940   12.5920   -3.0300 C   0  0  0  0  0  0  0  0  0  0  0  0
   -0.2350   11.7670   -3.3250 N   0  0  0  0  0  0  0  0  0  0  0  0
    0.8500   12.3890   -3.3960 C   0  0  0  0  0  0  0  0  0  0  0  0
    1.6750   12.6710   -4.6080 C   0  0  2  0  0  0  0  0  0  0  0  0
    1.3410   12.9070   -2.2500 O   0  0  0  0  0  0  0  0  0  0  0  0
    1.4400   14.1320   -4.9460 C   0  0  0  0  0  0  0  0  0  0  0  0
    1.1950   11.8650   -5.6860 O   0  0  0  0  0  0  0  0  0  0  0  0
  1  2  1  0
  1  3  1  0
  3  4  2  0
  3  5  1  0
  5  6  2  0
  4  7  1  0
  6  8  1  0
  6  9  1  0
  7  9  2  0
  8 10  1  0
 10 11  2  3
 11 12  1  0
 11 13  1  0
 12 14  1  6
 12 15  1  0
M  END
