x0805_0_A-x0855_0_A
     RDKit          3D

 24 26  0  0  0  0  0  0  0  0999 V2000
   -4.6130   14.8620    0.9500 C   0  0  0  0  0  0  0  0  0  0  0  0
   -3.5910   15.4330    0.1550 O   0  0  0  0  0  0  0  0  0  0  0  0
   -3.1740   14.7980   -0.9830 C   0  0  0  0  0  0  0  0  0  0  0  0
   -4.1200   14.0870   -1.7250 C   0  0  0  0  0  0  0  0  0  0  0  0
   -1.8710   14.8390   -1.4270 C   0  0  0  0  0  0  0  0  0  0  0  0
   -3.7340   13.4370   -2.9060 C   0  0  0  0  0  0  0  0  0  0  0  0
   -1.4500   14.2270   -2.5830 C   0  0  0  0  0  0  0  0  0  0  0  0
   -2.4000   13.5100   -3.3410 C   0  0  0  0  0  0  0  0  0  0  0  0
    0.0160   14.3890   -2.9560 C   0  0  1  0  0  0  0  0  0  0  0  0
    0.9900   13.1920   -2.7460 C   0  0  1  0  0  0  0  0  0  0  0  0
    0.2440   15.1490   -4.2520 C   0  0  0  0  0  0  0  0  0  0  0  0
    0.2970   11.8680   -3.0180 C   0  0  0  0  0  0  0  0  0  0  0  0
    2.1870   13.4550   -3.6840 C   0  0  0  0  0  0  0  0  0  0  0  0
    1.6460   15.6870   -4.2620 C   0  0  0  0  0  0  0  0  0  0  0  0
    0.8180   10.6890   -2.4470 O   0  0  0  0  0  0  0  0  0  0  0  0
   -0.9520   11.9680   -2.3860 O   0  0  0  0  0  0  0  0  0  0  0  0
    0.1960   11.9480   -4.5660 C   0  0  0  0  0  0  0  0  0  0  0  0
    2.5790   14.8180   -3.5900 O   0  0  0  0  0  0  0  0  0  0  0  0
   -0.8230   11.1930   -5.1810 N   0  0  0  0  0  0  0  0  0  0  0  0
   -0.6360   10.2900   -6.1710 C   0  0  0  0  0  0  0  0  0  0  0  0
   -2.1040   11.3340   -4.7910 N   0  0  0  0  0  0  0  0  0  0  0  0
   -1.8770    9.8070   -6.4340 C   0  0  0  0  0  0  0  0  0  0  0  0
   -2.7500   10.4740   -5.5690 C   0  0  0  0  0  0  0  0  0  0  0  0
   -2.3500    8.5180   -7.6800 Br  0  0  0  0  0  0  0  0  0  0  0  0
  1  2  1  0
  2  3  1  0
  3  4  2  0
  3  5  1  0
  4  6  1  0
  5  7  2  0
  6  8  2  0
  7  8  1  0
  9  7  1  6
  9 10  1  0
  9 11  1  0
 10 12  1  6
 10 13  1  0
 11 14  1  0
 12 15  1  0
 12 16  1  0
 12 17  1  0
 13 18  1  0
 14 18  1  0
 17 19  1  0
 19 20  1  0
 19 21  1  0
 20 22  2  0
 21 23  2  0
 22 23  1  0
 22 24  1  0
M  END
