x0805_0_A_β-5CB5_0_P_β
     RDKit          3D

 19 19  0  0  0  0  0  0  0  0999 V2000
    0.3340   12.2130   -2.3910 C   0  0  0  0  0  0  0  0  0  0  0  0
    0.0450   10.9600   -2.9070 O   0  0  0  0  0  0  0  0  0  0  0  0
    0.2670   12.4080   -1.1640 O   0  0  0  0  0  0  0  0  0  0  0  0
    0.7270   13.3110   -3.2540 C   0  0  2  0  0  0  0  0  0  0  0  0
   -0.3740   14.1950   -3.7140 C   0  0  0  0  0  0  0  0  0  0  0  0
    1.6710   12.9810   -4.3370 C   0  0  0  0  0  0  0  0  0  0  0  0
    2.1670   14.1130   -4.8590 O   0  0  0  0  0  0  0  0  0  0  0  0
    0.2580   15.4930   -4.0350 C   0  0  2  0  0  0  0  0  0  0  0  0
   -0.3880   16.2500   -5.1140 C   0  0  0  0  0  0  0  0  0  0  0  0
    1.7230   15.3340   -4.3900 C   0  0  0  0  0  0  0  0  0  0  0  0
   -0.6190   17.6090   -4.9060 O   0  0  0  0  0  0  0  0  0  0  0  0
   -1.4730   18.1790   -6.0580 P   0  0  0  0  0  0  0  0  0  0  0  0
   -0.2290   18.9020   -6.8120 O   0  0  0  0  0  0  0  0  0  0  0  0
   -2.4430   18.5030   -7.1720 O   0  0  0  0  0  0  0  0  0  0  0  0
   -2.3030   19.1620   -5.0250 O   0  0  0  0  0  0  0  0  0  0  0  0
   -0.3230   19.9220   -7.9450 P   0  0  0  0  0  0  0  0  0  0  0  0
   -1.8090   20.5040   -7.6970 O   0  0  0  0  0  0  0  0  0  0  0  0
    1.0300   20.7550   -7.4780 O   0  0  0  0  0  0  0  0  0  0  0  0
   -0.1000   18.6390   -8.9780 O   0  0  0  0  0  0  0  0  0  0  0  0
  1  2  1  0
  1  3  2  0
  4  1  1  6
  4  5  1  0
  4  6  1  0
  6  7  1  0
  5  8  1  0
  8  9  1  6
  7 10  1  0
  8 10  1  0
  9 11  1  0
 11 12  1  0
 12 13  1  0
 12 14  1  0
 12 15  1  0
 13 16  1  0
 16 17  1  0
 16 18  1  0
 16 19  1  0
M  CHG  2  14  -1  18  -1
M  END
