x0805_0_A-x0253_0_A
     RDKit          3D

 28 30  0  0  0  0  0  0  0  0999 V2000
   -4.3900   15.5680    0.5300 C   0  0  0  0  0  0  0  0  0  0  0  0
   -3.0780   15.3220    0.0470 O   0  0  0  0  0  0  0  0  0  0  0  0
   -2.9270   14.7460   -1.1840 C   0  0  0  0  0  0  0  0  0  0  0  0
   -4.0510   14.1090   -1.7080 C   0  0  0  0  0  0  0  0  0  0  0  0
   -1.7440   14.7590   -1.9220 C   0  0  0  0  0  0  0  0  0  0  0  0
   -3.9900   13.4940   -2.9570 C   0  0  0  0  0  0  0  0  0  0  0  0
   -1.6570   14.1530   -3.1780 C   0  0  0  0  0  0  0  0  0  0  0  0
   -2.8000   13.5160   -3.6910 C   0  0  0  0  0  0  0  0  0  0  0  0
   -0.3420   14.1740   -3.9680 C   0  0  2  0  0  0  0  0  0  0  0  0
    0.7450   13.3530   -3.2400 C   0  0  1  0  0  0  0  0  0  0  0  0
    0.1920   15.5660   -4.2270 C   0  0  0  0  0  0  0  0  0  0  0  0
    0.1370   12.0150   -2.9430 C   0  0  0  0  0  0  0  0  0  0  0  0
    2.0490   13.3040   -4.0430 C   0  0  0  0  0  0  0  0  0  0  0  0
    1.6060   15.6000   -3.7240 C   0  0  0  0  0  0  0  0  0  0  0  0
    1.0530   11.0030   -2.7000 O   0  0  0  0  0  0  0  0  0  0  0  0
   -0.6050   12.0420   -1.7270 O   0  0  0  0  0  0  0  0  0  0  0  0
   -0.6570   11.6220   -4.2020 C   0  0  0  0  0  0  0  0  0  0  0  0
    2.4290   14.6300   -4.3720 O   0  0  0  0  0  0  0  0  0  0  0  0
    0.1840   10.9810   -5.1870 N   0  0  0  0  0  0  0  0  0  0  0  0
    0.6520   11.4750   -6.4070 C   0  0  0  0  0  0  0  0  0  0  0  0
    1.3700   12.4470   -6.5760 O   0  0  0  0  0  0  0  0  0  0  0  0
    0.2170   10.6250   -7.5360 C   0  0  0  0  0  0  0  0  0  0  0  0
   -0.7640    9.6730   -7.2980 C   0  0  0  0  0  0  0  0  0  0  0  0
    0.7620   10.7480   -8.8210 C   0  0  0  0  0  0  0  0  0  0  0  0
   -1.2140    8.8430   -8.3150 C   0  0  0  0  0  0  0  0  0  0  0  0
    0.3200    9.9230   -9.8500 C   0  0  0  0  0  0  0  0  0  0  0  0
   -2.2760    7.8260   -8.0220 C   0  0  0  0  0  0  0  0  0  0  0  0
   -0.6680    8.9710   -9.5990 C   0  0  0  0  0  0  0  0  0  0  0  0
  1  2  1  0
  2  3  1  0
  3  4  2  0
  3  5  1  0
  4  6  1  0
  5  7  2  0
  6  8  2  0
  7  8  1  0
  9  7  1  1
  9 10  1  0
  9 11  1  0
 10 12  1  6
 10 13  1  0
 11 14  1  0
 12 15  1  0
 12 16  1  0
 12 17  1  0
 13 18  1  0
 14 18  1  0
 17 19  1  0
 19 20  1  0
 20 21  2  0
 20 22  1  0
 22 23  2  0
 22 24  1  0
 23 25  1  0
 24 26  2  0
 25 27  1  0
 25 28  2  0
 26 28  1  0
M  END
