x0805_0_A_α-x0766_0_A_α
     RDKit          3D

 15 16  0  0  0  0  0  0  0  0999 V2000
   -2.8780   15.1040   -0.0350 O   0  0  0  0  0  0  0  0  0  0  0  0
   -4.1250   15.6730    0.3550 C   0  0  0  0  0  0  0  0  0  0  0  0
   -2.7410   14.8280   -1.4380 C   0  0  2  0  0  0  0  0  0  0  0  0
   -3.7530   13.7700   -1.8570 C   0  0  0  0  0  0  0  0  0  0  0  0
   -1.3130   14.3610   -1.8350 C   0  0  0  0  0  0  0  0  0  0  0  0
   -1.1040   14.0140   -3.3630 C   0  0  2  0  0  0  0  0  0  0  0  0
   -3.6140   13.4880   -3.3200 C   0  0  0  0  0  0  0  0  0  0  0  0
   -2.4420   13.6070   -3.9880 C   0  0  0  0  0  0  0  0  0  0  0  0
   -0.0640   12.8550   -3.6560 C   0  0  2  0  0  0  0  0  0  0  0  0
   -0.4310   15.2160   -4.1160 C   0  0  0  0  0  0  0  0  0  0  0  0
    0.4480   12.0910   -2.4540 C   0  0  0  0  0  0  0  0  0  0  0  0
    1.1130   13.4410   -4.4750 C   0  0  0  0  0  0  0  0  0  0  0  0
    1.0630   14.9300   -4.2350 C   0  0  0  0  0  0  0  0  0  0  0  0
    1.1100   12.6010   -1.5830 O   0  0  0  0  0  0  0  0  0  0  0  0
    0.1070   10.7710   -2.4260 O   0  0  0  0  0  0  0  0  0  0  0  0
  1  2  1  0
  3  1  1  1
  3  4  1  0
  3  5  1  0
  6  5  1  1
  4  7  1  0
  6  8  1  0
  7  8  2  0
  6  9  1  0
  6 10  1  0
  9 11  1  1
  9 12  1  0
 10 13  1  0
 12 13  1  0
 11 14  2  0
 11 15  1  0
M  END
