x0805_0_A_β-x0128_0_A_α
     RDKit          3D

 29 31  0  0  0  0  0  0  0  0999 V2000
    0.2830   12.2820   -2.2900 C   0  0  0  0  0  0  0  0  0  0  0  0
   -0.0010   11.0730   -2.8190 O   0  0  0  0  0  0  0  0  0  0  0  0
    0.1430   12.4200   -1.0340 N   0  0  0  0  0  0  0  0  0  0  0  0
    0.7440   13.3600   -3.2210 C   0  0  2  0  0  0  0  0  0  0  0  0
    0.4630   13.6690   -0.3430 C   0  0  0  0  0  0  0  0  0  0  0  0
   -0.4340   14.0620   -3.8690 C   0  0  0  0  0  0  0  0  0  0  0  0
    1.7380   12.9150   -4.2600 C   0  0  0  0  0  0  0  0  0  0  0  0
   -0.5210   14.8000   -0.5600 C   0  0  0  0  0  0  0  0  0  0  0  0
    2.2760   14.1170   -4.7900 O   0  0  0  0  0  0  0  0  0  0  0  0
    0.0970   15.3840   -4.3500 C   0  0  0  0  0  0  0  0  0  0  0  0
   -1.8800   14.5820    0.1060 C   0  0  0  0  0  0  0  0  0  0  0  0
    1.6260   15.3640   -4.4240 C   0  0  0  0  0  0  0  0  0  0  0  0
   -2.9430   14.6970   -0.9800 C   0  0  0  0  0  0  0  0  0  0  0  0
   -4.3700   14.7680   -0.5120 C   0  0  0  0  0  0  0  0  0  0  0  0
   -5.3280   14.9630   -1.5060 C   0  0  0  0  0  0  0  0  0  0  0  0
   -4.7780   14.6420    0.8360 C   0  0  0  0  0  0  0  0  0  0  0  0
   -6.6710   15.0220   -1.1890 C   0  0  0  0  0  0  0  0  0  0  0  0
   -6.1450   14.7030    1.1580 C   0  0  0  0  0  0  0  0  0  0  0  0
   -6.6890   14.5910    2.4600 N   0  0  0  0  0  0  0  0  0  0  0  0
   -7.0780   14.8890    0.1300 C   0  0  0  0  0  0  0  0  0  0  0  0
   -7.8330   15.1770    2.9860 C   0  0  0  0  0  0  0  0  0  0  0  0
   -8.8180   15.5400    2.3530 O   0  0  0  0  0  0  0  0  0  0  0  0
   -7.6740   15.2830    4.3580 N   0  0  0  0  0  0  0  0  0  0  0  0
   -8.4480   16.0260    5.2880 C   0  0  0  0  0  0  0  0  0  0  0  0
   -9.1150   17.1800    4.8590 C   0  0  0  0  0  0  0  0  0  0  0  0
   -8.6040   15.6910    6.6340 C   0  0  0  0  0  0  0  0  0  0  0  0
   -9.8860   17.9740    5.6390 N   0  0  0  0  0  0  0  0  0  0  0  0
   -9.3930   16.4900    7.4660 C   0  0  0  0  0  0  0  0  0  0  0  0
  -10.0070   17.6100    6.9300 C   0  0  0  0  0  0  0  0  0  0  0  0
  1  2  1  0
  1  3  2  3
  4  1  1  6
  3  5  1  0
  4  6  1  0
  4  7  1  0
  5  8  1  0
  7  9  1  0
  6 10  1  0
  8 11  1  0
  9 12  1  0
 10 12  1  0
 11 13  1  0
 13 14  1  0
 14 15  2  0
 14 16  1  0
 15 17  1  0
 16 18  2  0
 18 19  1  0
 17 20  2  0
 18 20  1  0
 19 21  1  0
 21 22  2  0
 21 23  1  0
 23 24  1  0
 24 25  2  0
 24 26  1  0
 25 27  1  0
 26 28  2  0
 27 29  2  0
 28 29  1  0
M  END
