x0805_0_A_β-x0864_0_A_α
     RDKit          3D

 18 19  0  0  0  0  0  0  0  0999 V2000
    0.3550   12.1790   -3.0490 C   0  0  0  0  0  0  0  0  0  0  0  0
    1.6920   11.9120   -2.8070 O   0  0  0  0  0  0  0  0  0  0  0  0
   -0.1580   12.5280   -1.7550 O   0  0  0  0  0  0  0  0  0  0  0  0
   -0.2880   10.9520   -3.6650 C   0  0  0  0  0  0  0  0  0  0  0  0
    0.2280   13.2250   -4.1650 C   0  0  1  0  0  0  0  0  0  0  0  0
   -0.4640   14.5340   -3.7880 C   0  0  0  0  0  0  0  0  0  0  0  0
    1.5900   13.4290   -4.8390 C   0  0  0  0  0  0  0  0  0  0  0  0
   -0.7430   11.2170   -5.0400 N   0  0  0  0  0  0  0  0  0  0  0  0
    2.4130   14.2720   -4.0690 O   0  0  0  0  0  0  0  0  0  0  0  0
    0.5280   15.5530   -3.2700 C   0  0  0  0  0  0  0  0  0  0  0  0
   -2.0710   10.9950   -5.2370 C   0  0  0  0  0  0  0  0  0  0  0  0
    0.1180   11.0910   -6.1430 C   0  0  0  0  0  0  0  0  0  0  0  0
    1.0590   11.8220   -6.4480 O   0  0  0  0  0  0  0  0  0  0  0  0
    1.8240   15.5460   -4.0450 C   0  0  0  0  0  0  0  0  0  0  0  0
   -2.4570   10.1450   -6.1810 C   0  0  0  0  0  0  0  0  0  0  0  0
   -0.2000    9.9320   -6.9920 C   0  0  0  0  0  0  0  0  0  0  0  0
   -1.4620    9.4830   -6.9850 C   0  0  0  0  0  0  0  0  0  0  0  0
   -2.0040    8.0150   -7.9920 Br  0  0  0  0  0  0  0  0  0  0  0  0
  1  2  1  0
  1  3  1  0
  1  4  1  0
  5  1  1  1
  5  6  1  0
  5  7  1  0
  4  8  1  0
  7  9  1  0
  6 10  1  0
  8 11  1  0
  8 12  1  0
 12 13  2  0
  9 14  1  0
 10 14  1  0
 11 15  2  0
 12 16  1  0
 15 17  1  0
 16 17  2  0
 17 18  1  0
M  END
