x0805_0_A-x0910_1_A
     RDKit          3D

 23 25  0  0  0  0  0  0  0  0999 V2000
   -3.2100   15.0580    1.0050 C   0  0  0  0  0  0  0  0  0  0  0  0
   -3.9240   15.3390   -0.2250 N   0  0  0  0  0  0  0  0  0  0  0  0
   -3.4270   14.8060   -1.4200 C   0  0  0  0  0  0  0  0  0  0  0  0
   -5.2490   15.2080   -0.1090 C   0  0  0  0  0  0  0  0  0  0  0  0
   -4.2950   14.2150   -2.3410 C   0  0  0  0  0  0  0  0  0  0  0  0
   -2.0890   14.8390   -1.7520 C   0  0  0  0  0  0  0  0  0  0  0  0
   -6.1530   15.5950   -1.0110 N   0  0  0  0  0  0  0  0  0  0  0  0
   -5.7870   14.6090    0.9940 N   0  0  0  0  0  0  0  0  0  0  0  0
   -3.8290   13.6980   -3.5410 C   0  0  0  0  0  0  0  0  0  0  0  0
   -1.5920   14.3390   -2.9360 C   0  0  0  0  0  0  0  0  0  0  0  0
   -7.0610   14.6080    0.7770 C   0  0  0  0  0  0  0  0  0  0  0  0
   -7.2920   15.2010   -0.4330 N   0  0  0  0  0  0  0  0  0  0  0  0
   -8.0070   14.1210    1.5750 N   0  0  0  0  0  0  0  0  0  0  0  0
   -2.4740   13.7590   -3.8490 C   0  0  0  0  0  0  0  0  0  0  0  0
   -0.1200   14.4550   -3.1960 C   0  0  1  0  0  0  0  0  0  0  0  0
    0.8120   13.2550   -3.2720 C   0  0  1  0  0  0  0  0  0  0  0  0
    0.1780   15.3720   -4.3650 C   0  0  0  0  0  0  0  0  0  0  0  0
    0.5730   12.0140   -2.4740 C   0  0  0  0  0  0  0  0  0  0  0  0
    1.4120   13.0690   -4.6430 C   0  0  0  0  0  0  0  0  0  0  0  0
    1.6650   15.4540   -4.6000 C   0  0  0  0  0  0  0  0  0  0  0  0
    0.2950   10.8460   -3.0680 O   0  0  0  0  0  0  0  0  0  0  0  0
    0.6320   12.1180   -1.2640 O   0  0  0  0  0  0  0  0  0  0  0  0
    2.2750   14.1720   -4.8390 O   0  0  0  0  0  0  0  0  0  0  0  0
  1  2  1  0
  2  3  1  0
  2  4  1  0
  3  5  2  0
  3  6  1  0
  4  7  2  0
  4  8  1  0
  5  9  1  0
  6 10  2  0
  8 11  2  0
  7 12  1  0
 11 12  1  0
 11 13  1  0
  9 14  2  0
 10 14  1  0
 15 10  1  6
 15 16  1  0
 15 17  1  0
 16 18  1  6
 16 19  1  0
 17 20  1  0
 18 21  1  0
 18 22  2  0
 19 23  1  0
 20 23  1  0
M  END
