x0805_0_A_α-x0631_0_A_β
     RDKit          3D

 20 21  0  0  0  0  0  0  0  0999 V2000
   -3.2780   15.6000   -0.2880 O   0  0  0  0  0  0  0  0  0  0  0  0
   -4.3150   15.3320    0.6480 C   0  0  0  0  0  0  0  0  0  0  0  0
   -3.0720   14.7180   -1.3160 C   0  0  0  0  0  0  0  0  0  0  0  0
   -4.1300   13.8560   -1.5850 C   0  0  0  0  0  0  0  0  0  0  0  0
   -1.9100   14.6250   -2.0910 C   0  0  0  0  0  0  0  0  0  0  0  0
   -1.8140   13.6800   -3.1190 C   0  0  0  0  0  0  0  0  0  0  0  0
   -4.0360   12.9110   -2.6080 C   0  0  0  0  0  0  0  0  0  0  0  0
   -2.8800   12.8110   -3.3850 C   0  0  0  0  0  0  0  0  0  0  0  0
   -2.8050   11.7700   -4.4810 C   0  0  0  0  0  0  0  0  0  0  0  0
   -2.6430   12.3180   -5.9030 C   0  0  0  0  0  0  0  0  0  0  0  0
   -1.7380   11.4220   -6.7610 C   0  0  0  0  0  0  0  0  0  0  0  0
   -2.4870   10.3860   -7.6160 C   0  0  0  0  0  0  0  0  0  0  0  0
   -2.8020    9.0720   -6.8890 C   0  0  0  0  0  0  0  0  0  0  0  0
   -1.6730    8.0230   -6.9390 C   0  0  0  0  0  0  0  0  0  0  0  0
   -0.2770    8.6250   -6.7730 C   0  0  0  0  0  0  0  0  0  0  0  0
   -0.0540    9.6470   -7.7980 N   0  0  0  0  0  0  0  0  0  0  0  0
    0.7510    9.1560   -8.8800 N   0  0  0  0  0  0  0  0  0  0  0  0
    0.6350   10.7680   -7.2980 N   0  0  0  0  0  0  0  0  0  0  0  0
    1.0360   10.4130   -9.5490 C   0  0  0  0  0  0  0  0  0  0  0  0
    1.1990   11.3680   -8.4600 N   0  0  0  0  0  0  0  0  0  0  0  0
  1  2  1  0
  1  3  1  0
  3  4  2  0
  3  5  1  0
  5  6  2  0
  4  7  1  0
  6  8  1  0
  7  8  2  0
  8  9  1  0
  9 10  1  0
 10 11  1  0
 11 12  1  0
 12 13  1  0
 13 14  1  0
 14 15  1  0
 15 16  1  0
 16 17  1  0
 16 18  1  0
 17 19  1  0
 18 20  1  0
 19 20  1  0
M  END
