x0805_0_A_α-5CMS_0_P_β
     RDKit          3D

 19 19  0  0  0  0  0  0  0  0999 V2000
   -2.9480   15.1570   -0.0310 O   0  0  0  0  0  0  0  0  0  0  0  0
   -3.9830   15.7140    0.7370 C   0  0  0  0  0  0  0  0  0  0  0  0
   -3.1900   14.7270   -1.3460 C   0  0  0  0  0  0  0  0  0  0  0  0
   -4.3140   13.9720   -1.5390 C   0  0  0  0  0  0  0  0  0  0  0  0
   -2.2180   15.1640   -2.2910 C   0  0  0  0  0  0  0  0  0  0  0  0
   -1.4130   15.4490   -3.4850 C   0  0  0  0  0  0  0  0  0  0  0  0
   -2.7480   14.5830   -3.4450 C   0  0  0  0  0  0  0  0  0  0  0  0
   -4.6610   13.5100   -2.7340 C   0  0  0  0  0  0  0  0  0  0  0  0
   -2.1750   16.6670   -4.0230 C   0  0  0  0  0  0  0  0  0  0  0  0
   -3.8480   13.8160   -3.7460 C   0  0  0  0  0  0  0  0  0  0  0  0
   -2.5020   16.6070   -5.3350 O   0  0  0  0  0  0  0  0  0  0  0  0
   -1.5440   17.7390   -6.0210 P   0  0  0  0  0  0  0  0  0  0  0  0
   -1.8450   18.6040   -7.2930 O   0  0  0  0  0  0  0  0  0  0  0  0
   -0.0380   17.9180   -5.3600 O   0  0  0  0  0  0  0  0  0  0  0  0
   -2.1510   18.7720   -5.1070 O   0  0  0  0  0  0  0  0  0  0  0  0
   -0.5560   19.5150   -7.5610 P   0  0  0  0  0  0  0  0  0  0  0  0
   -0.6440   21.1840   -7.6140 O   0  0  0  0  0  0  0  0  0  0  0  0
   -0.7140   19.5530   -9.0140 O   0  0  0  0  0  0  0  0  0  0  0  0
    0.8360   18.7220   -7.7430 O   0  0  0  0  0  0  0  0  0  0  0  0
  1  2  1  0
  1  3  1  0
  3  4  2  0
  3  5  1  0
  5  6  1  0
  5  7  2  0
  4  8  1  0
  6  9  1  0
  7 10  1  0
  8 10  2  0
  9 11  1  0
 11 12  1  0
 12 13  1  0
 12 14  1  0
 12 15  1  0
 13 16  1  0
 16 17  1  0
 16 18  1  0
 16 19  1  0
M  CHG  2  15  -1  18  -1
M  END
