x0805_0_A-x0849_0_A
     RDKit          3D

 28 31  0  0  0  0  0  0  0  0999 V2000
   -6.2540   15.4240   -0.9390 C   0  0  0  0  0  0  0  0  0  0  0  0
   -4.9120   15.7430   -1.3860 N   0  0  0  0  0  0  0  0  0  0  0  0
   -4.2080   14.7730   -2.1960 C   0  0  0  0  0  0  0  0  0  0  0  0
   -4.1180   15.5140   -0.3650 C   0  0  0  0  0  0  0  0  0  0  0  0
   -4.7490   13.6290   -2.7590 C   0  0  0  0  0  0  0  0  0  0  0  0
   -2.7960   14.9760   -2.4320 C   0  0  0  0  0  0  0  0  0  0  0  0
   -2.8990   15.4430   -0.8660 C   0  0  0  0  0  0  0  0  0  0  0  0
   -4.3540   15.3220    0.9740 C   0  0  0  0  0  0  0  0  0  0  0  0
   -2.6800   15.7560   -2.7540 Br  0  0  0  0  0  0  0  0  0  0  0  0
   -3.9500   12.7480   -3.5040 C   0  0  0  0  0  0  0  0  0  0  0  0
   -1.9560   14.1030   -3.1810 C   0  0  0  0  0  0  0  0  0  0  0  0
   -3.3610   15.0270    1.8040 N   0  0  0  0  0  0  0  0  0  0  0  0
   -1.8790   15.1450   -0.0800 C   0  0  0  0  0  0  0  0  0  0  0  0
   -2.5790   12.9740   -3.7160 C   0  0  0  0  0  0  0  0  0  0  0  0
   -0.4510   14.4240   -3.3640 C   0  0  1  0  0  0  0  0  0  0  0  0
   -2.1570   14.9310    1.2600 C   0  0  0  0  0  0  0  0  0  0  0  0
   -0.6070   15.0450   -0.5770 C   0  0  0  0  0  0  0  0  0  0  0  0
    0.6360   13.3300   -3.2210 C   0  0  1  0  0  0  0  0  0  0  0  0
   -0.0590   15.3030   -4.5440 C   0  0  0  0  0  0  0  0  0  0  0  0
   -1.2200   14.6110    2.0650 N   0  0  0  0  0  0  0  0  0  0  0  0
    0.3680   14.7160    0.2600 C   0  0  0  0  0  0  0  0  0  0  0  0
    0.3710   12.1490   -2.3430 C   0  0  0  0  0  0  0  0  0  0  0  0
    1.2450   12.9840   -4.5580 C   0  0  0  0  0  0  0  0  0  0  0  0
    1.4670   15.3640   -4.6260 C   0  0  0  0  0  0  0  0  0  0  0  0
    0.0040   14.5030    1.5770 C   0  0  0  0  0  0  0  0  0  0  0  0
    0.3400   10.9490   -2.9520 O   0  0  0  0  0  0  0  0  0  0  0  0
    0.2160   12.2470   -1.1510 O   0  0  0  0  0  0  0  0  0  0  0  0
    2.0560   14.0850   -4.9310 O   0  0  0  0  0  0  0  0  0  0  0  0
  1  2  1  0
  2  3  1  0
  2  4  1  0
  3  5  2  0
  3  6  1  0
  4  7  2  0
  4  8  1  0
  7  9  1  0
  5 10  1  0
  6 11  2  0
  8 12  2  0
  7 13  1  0
 10 14  2  0
 11 14  1  0
 15 11  1  6
 12 16  1  0
 13 16  2  0
 13 17  1  0
 15 18  1  0
 15 19  1  0
 16 20  1  0
 17 21  2  0
 18 22  1  6
 18 23  1  0
 19 24  1  0
 20 25  2  0
 21 25  1  0
 22 26  1  0
 22 27  2  0
 23 28  1  0
 24 28  1  0
M  END
