x0805_0_A-x0855_0_A
     RDKit          3D

 24 26  0  0  0  0  0  0  0  0999 V2000
   -4.5800   14.8600    0.9550 C   0  0  0  0  0  0  0  0  0  0  0  0
   -3.5750   15.4430    0.1470 O   0  0  0  0  0  0  0  0  0  0  0  0
   -3.1490   14.7940   -0.9760 C   0  0  0  0  0  0  0  0  0  0  0  0
   -4.0840   14.0620   -1.7110 C   0  0  0  0  0  0  0  0  0  0  0  0
   -1.8430   14.8380   -1.4120 C   0  0  0  0  0  0  0  0  0  0  0  0
   -3.6880   13.3960   -2.8780 C   0  0  0  0  0  0  0  0  0  0  0  0
   -1.4100   14.2110   -2.5560 C   0  0  0  0  0  0  0  0  0  0  0  0
   -2.3490   13.4730   -3.3070 C   0  0  0  0  0  0  0  0  0  0  0  0
    0.0630   14.3840   -2.9190 C   0  0  1  0  0  0  0  0  0  0  0  0
    1.0490   13.1910   -2.6890 C   0  0  1  0  0  0  0  0  0  0  0  0
    0.2830   15.1170   -4.2320 C   0  0  0  0  0  0  0  0  0  0  0  0
    0.2890   11.8840   -2.8600 C   0  0  0  0  0  0  0  0  0  0  0  0
    2.2000   13.4180   -3.6890 C   0  0  0  0  0  0  0  0  0  0  0  0
    1.6790   15.6620   -4.2480 C   0  0  0  0  0  0  0  0  0  0  0  0
    0.8510   10.6620   -2.4630 O   0  0  0  0  0  0  0  0  0  0  0  0
   -0.7610   12.0010   -1.9220 O   0  0  0  0  0  0  0  0  0  0  0  0
   -0.0320   12.0640   -4.3750 C   0  0  0  0  0  0  0  0  0  0  0  0
    2.6170   14.7760   -3.6100 O   0  0  0  0  0  0  0  0  0  0  0  0
   -0.9640   11.2170   -5.0170 N   0  0  0  0  0  0  0  0  0  0  0  0
   -0.6710   10.3750   -6.0350 C   0  0  0  0  0  0  0  0  0  0  0  0
   -2.2500   11.2080   -4.6340 N   0  0  0  0  0  0  0  0  0  0  0  0
   -1.8500    9.7700   -6.3260 C   0  0  0  0  0  0  0  0  0  0  0  0
   -2.7930   10.3120   -5.4460 C   0  0  0  0  0  0  0  0  0  0  0  0
   -2.1760    8.4830   -7.6210 Br  0  0  0  0  0  0  0  0  0  0  0  0
  1  2  1  0
  2  3  1  0
  3  4  2  0
  3  5  1  0
  4  6  1  0
  5  7  2  0
  6  8  2  0
  7  8  1  0
  9  7  1  6
  9 10  1  0
  9 11  1  0
 10 12  1  6
 10 13  1  0
 11 14  1  0
 12 15  1  0
 12 16  1  0
 12 17  1  0
 13 18  1  0
 14 18  1  0
 17 19  1  0
 19 20  1  0
 19 21  1  0
 20 22  2  0
 21 23  2  0
 22 23  1  0
 22 24  1  0
M  END
