x0805_0_A_β-x0844_0_A_α
     RDKit          3D

 19 20  0  0  0  0  0  0  0  0999 V2000
    0.3740   12.0930   -2.6660 C   0  0  0  0  0  0  0  0  0  0  0  0
    0.0310   10.8000   -2.8160 O   0  0  0  0  0  0  0  0  0  0  0  0
    0.6630   12.5200   -1.5550 O   0  0  0  0  0  0  0  0  0  0  0  0
    0.2960   12.8390   -3.9880 C   0  0  1  0  0  0  0  0  0  0  0  0
   -0.5520   14.1370   -3.9260 C   0  0  2  0  0  0  0  0  0  0  0  0
    1.7140   13.0850   -4.5260 C   0  0  0  0  0  0  0  0  0  0  0  0
    2.3390   14.2030   -3.9160 O   0  0  0  0  0  0  0  0  0  0  0  0
    0.2540   15.3730   -3.5060 C   0  0  0  0  0  0  0  0  0  0  0  0
   -1.8700   13.9860   -3.1360 C   0  0  0  0  0  0  0  0  0  0  0  0
    1.6170   15.4010   -4.1660 C   0  0  0  0  0  0  0  0  0  0  0  0
   -3.0270   14.9430   -3.4040 C   0  0  0  0  0  0  0  0  0  0  0  0
   -3.3260   15.6050   -2.1700 O   0  0  0  0  0  0  0  0  0  0  0  0
   -4.1090   14.8410   -1.2370 C   0  0  1  0  0  0  0  0  0  0  0  0
   -3.5600   15.1260    0.1280 C   0  0  0  0  0  0  0  0  0  0  0  0
   -5.5890   15.2090   -1.3330 C   0  0  0  0  0  0  0  0  0  0  0  0
   -4.3430   15.0960    1.2040 C   0  0  0  0  0  0  0  0  0  0  0  0
   -6.3760   14.8730   -0.0890 C   0  0  0  0  0  0  0  0  0  0  0  0
   -7.5900   14.6850   -0.1090 O   0  0  0  0  0  0  0  0  0  0  0  0
   -5.6660   14.7990    1.0850 N   0  0  0  0  0  0  0  0  0  0  0  0
  1  2  1  0
  1  3  2  0
  4  1  1  1
  4  5  1  0
  4  6  1  0
  6  7  1  0
  5  8  1  0
  5  9  1  1
  7 10  1  0
  8 10  1  0
  9 11  1  0
 11 12  1  0
 13 12  1  6
 13 14  1  0
 13 15  1  0
 14 16  2  0
 15 17  1  0
 17 18  2  0
 16 19  1  0
 17 19  1  0
M  END
