x0805_0_A-x0662_0_A
     RDKit          3D

 35 38  0  0  0  0  0  0  0  0999 V2000
   -4.4840   15.2320    0.9530 C   0  0  0  0  0  0  0  0  0  0  0  0
   -3.4180   15.5390    0.0670 O   0  0  0  0  0  0  0  0  0  0  0  0
   -3.3090   14.8080   -1.0830 C   0  0  0  0  0  0  0  0  0  0  0  0
   -4.3190   14.1110   -1.7400 C   0  0  0  0  0  0  0  0  0  0  0  0
   -2.0280   14.7990   -1.6020 C   0  0  0  0  0  0  0  0  0  0  0  0
   -4.0240   13.4150   -2.9170 C   0  0  0  0  0  0  0  0  0  0  0  0
   -1.7030   14.1270   -2.7660 C   0  0  0  0  0  0  0  0  0  0  0  0
   -2.7230   13.4230   -3.4310 C   0  0  0  0  0  0  0  0  0  0  0  0
   -0.2800   14.1500   -3.2880 C   0  0  1  0  0  0  0  0  0  0  0  0
    0.1980   12.8010   -3.7840 C   0  0  2  0  0  0  0  0  0  0  0  0
   -0.0100   15.2360   -4.3060 C   0  0  0  0  0  0  0  0  0  0  0  0
    0.4030   11.9880   -2.5400 C   0  0  0  0  0  0  0  0  0  0  0  0
    1.4890   12.7950   -4.6140 C   0  0  1  0  0  0  0  0  0  0  0  0
    1.4670   15.3100   -4.6250 C   0  0  0  0  0  0  0  0  0  0  0  0
    0.3820   10.6660   -2.7600 O   0  0  0  0  0  0  0  0  0  0  0  0
    0.5640   12.4450   -1.4140 O   0  0  0  0  0  0  0  0  0  0  0  0
    1.0920   12.3700   -5.9480 O   0  0  0  0  0  0  0  0  0  0  0  0
    2.1890   14.0620   -4.5960 O   0  0  0  0  0  0  0  0  0  0  0  0
    0.1030   11.4130   -5.9560 C   0  0  0  0  0  0  0  0  0  0  0  0
   -0.6620   11.1910   -5.0410 O   0  0  0  0  0  0  0  0  0  0  0  0
    0.0050   10.6020   -7.2060 C   0  0  0  0  0  0  0  0  0  0  0  0
   -0.9280    9.5600   -7.2990 C   0  0  0  0  0  0  0  0  0  0  0  0
    0.8310   10.8670   -8.2920 C   0  0  0  0  0  0  0  0  0  0  0  0
   -1.0250    8.8080   -8.4670 C   0  0  0  0  0  0  0  0  0  0  0  0
    0.7420   10.1220   -9.4750 C   0  0  0  0  0  0  0  0  0  0  0  0
    1.5340   10.3310  -10.6210 N   0  0  0  0  0  0  0  0  0  0  0  0
   -0.1960    9.0890   -9.5480 C   0  0  0  0  0  0  0  0  0  0  0  0
    2.2600    9.3870  -11.3350 C   0  0  0  0  0  0  0  0  0  0  0  0
    2.3600    8.2110  -11.0140 O   0  0  0  0  0  0  0  0  0  0  0  0
    2.9460    9.9290  -12.5340 C   0  0  0  0  0  0  0  0  0  0  0  0
    2.7550   11.1850  -13.1860 C   0  0  0  0  0  0  0  0  0  0  0  0
    3.9010    9.2210  -13.1620 N   0  0  0  0  0  0  0  0  0  0  0  0
    4.3040   10.0040  -14.1720 N   0  0  0  0  0  0  0  0  0  0  0  0
    3.6460   11.1960  -14.2320 C   0  0  0  0  0  0  0  0  0  0  0  0
    5.3460    9.5250  -15.0510 C   0  0  0  0  0  0  0  0  0  0  0  0
  1  2  1  0
  2  3  1  0
  3  4  2  0
  3  5  1  0
  4  6  1  0
  5  7  2  0
  6  8  2  0
  7  8  1  0
  9  7  1  6
  9 10  1  0
  9 11  1  0
 10 12  1  1
 10 13  1  0
 11 14  1  0
 12 15  1  0
 12 16  2  0
 13 17  1  6
 13 18  1  0
 14 18  1  0
 17 19  1  0
 19 20  2  0
 19 21  1  0
 21 22  2  0
 21 23  1  0
 22 24  1  0
 23 25  2  0
 25 26  1  0
 24 27  2  0
 25 27  1  0
 26 28  1  0
 28 29  2  0
 28 30  1  0
 30 31  1  0
 30 32  2  0
 32 33  1  0
 31 34  2  0
 33 34  1  0
 33 35  1  0
M  END
