x0805_0_A-x0844_0_A
     RDKit          3D

 25 27  0  0  0  0  0  0  0  0999 V2000
   -4.4730   13.3640    0.5350 C   0  0  0  0  0  0  0  0  0  0  0  0
   -4.4010   14.1550   -0.6570 O   0  0  0  0  0  0  0  0  0  0  0  0
   -3.7950   13.5710   -1.7330 C   0  0  0  0  0  0  0  0  0  0  0  0
   -4.2690   12.4470   -2.3330 C   0  0  0  0  0  0  0  0  0  0  0  0
   -2.6460   14.1980   -2.1770 C   0  0  0  0  0  0  0  0  0  0  0  0
   -2.4580   15.2660   -1.4320 O   0  0  0  0  0  0  0  0  0  0  0  0
   -3.5800   11.9210   -3.3970 C   0  0  0  0  0  0  0  0  0  0  0  0
   -1.8760   13.6850   -3.2570 C   0  0  0  0  0  0  0  0  0  0  0  0
   -2.4080   12.5220   -3.8460 C   0  0  0  0  0  0  0  0  0  0  0  0
   -0.5600   14.1310   -3.9180 C   0  0  2  0  0  0  0  0  0  0  0  0
   -3.6240   15.1330   -0.5670 C   0  0  1  0  0  0  0  0  0  0  0  0
    0.3940   12.9050   -3.9850 C   0  0  2  0  0  0  0  0  0  0  0  0
    0.1550   15.4150   -3.4790 C   0  0  0  0  0  0  0  0  0  0  0  0
   -3.3990   15.6330    0.8060 C   0  0  0  0  0  0  0  0  0  0  0  0
   -5.0200   15.5760   -1.0680 C   0  0  0  0  0  0  0  0  0  0  0  0
    0.4650   12.1080   -2.6860 C   0  0  0  0  0  0  0  0  0  0  0  0
    1.7920   13.2350   -4.5120 C   0  0  0  0  0  0  0  0  0  0  0  0
    1.4970   15.5420   -4.1880 C   0  0  0  0  0  0  0  0  0  0  0  0
   -4.4230   15.5860    1.6560 C   0  0  0  0  0  0  0  0  0  0  0  0
   -6.0850   15.1610   -0.0680 C   0  0  0  0  0  0  0  0  0  0  0  0
    0.3640   10.7780   -2.8270 O   0  0  0  0  0  0  0  0  0  0  0  0
    0.5990   12.5820   -1.5570 O   0  0  0  0  0  0  0  0  0  0  0  0
   -7.2610   14.9170   -0.3550 O   0  0  0  0  0  0  0  0  0  0  0  0
    2.3290   14.4160   -3.9380 O   0  0  0  0  0  0  0  0  0  0  0  0
   -5.6330   15.0880    1.2360 N   0  0  0  0  0  0  0  0  0  0  0  0
  1  2  1  0
  2  3  1  0
  3  4  2  0
  3  5  1  0
  5  6  1  0
  4  7  1  0
  5  8  2  0
  7  9  2  0
  8  9  1  0
 10  8  1  1
 11  6  1  6
 10 12  1  0
 10 13  1  0
 11 14  1  0
 11 15  1  0
 12 16  1  1
 12 17  1  0
 13 18  1  0
 14 19  2  0
 15 20  1  0
 16 21  1  0
 16 22  2  0
 20 23  2  0
 17 24  1  0
 18 24  1  0
 19 25  1  0
 20 25  1  0
M  END
