x0805_0_A_α-x0676_0_B_α
     RDKit          3D

 28 30  0  0  0  0  0  0  0  0999 V2000
   -3.1670   15.4780   -0.2970 O   0  0  0  0  0  0  0  0  0  0  0  0
   -4.2870   15.3960    0.5760 C   0  0  0  0  0  0  0  0  0  0  0  0
   -3.0640   14.5850   -1.3310 C   0  0  0  0  0  0  0  0  0  0  0  0
   -4.0420   13.6950   -1.7720 C   0  0  0  0  0  0  0  0  0  0  0  0
   -1.8300   14.6020   -1.9830 C   0  0  0  0  0  0  0  0  0  0  0  0
   -1.5630   13.7550   -3.0580 C   0  0  0  0  0  0  0  0  0  0  0  0
   -3.7730   12.8380   -2.8540 C   0  0  0  0  0  0  0  0  0  0  0  0
   -2.5280   12.8530   -3.5140 C   0  0  0  0  0  0  0  0  0  0  0  0
   -2.2720   11.9090   -4.6790 C   0  0  0  0  0  0  0  0  0  0  0  0
   -0.9950   11.0410   -4.6110 C   0  0  0  0  0  0  0  0  0  0  0  0
   -0.6560   10.3360   -5.9360 C   0  0  0  0  0  0  0  0  0  0  0  0
   -0.5590    8.7970   -5.8810 C   0  0  0  0  0  0  0  0  0  0  0  0
    0.0610    8.0610   -7.0890 C   0  0  0  0  0  0  0  0  0  0  0  0
    0.7830    8.8390   -8.2100 C   0  0  0  0  0  0  0  0  0  0  0  0
    0.4820    8.2660   -9.6060 C   0  0  0  0  0  0  0  0  0  0  0  0
    1.4610    8.5620  -10.6550 N   0  0  0  0  0  0  0  0  0  0  0  0
    2.6320    8.0250  -10.7110 C   0  0  0  0  0  0  0  0  0  0  0  0
    3.1910    7.0460   -9.7040 C   0  0  0  0  0  0  0  0  0  0  0  0
    3.6540    8.1820  -11.6580 N   0  0  0  0  0  0  0  0  0  0  0  0
    4.8850    7.7400  -11.1720 N   0  0  0  0  0  0  0  0  0  0  0  0
    4.6480    7.1270  -10.0580 C   0  0  0  0  0  0  0  0  0  0  0  0
    3.7380    9.1990  -12.6650 C   0  0  0  0  0  0  0  0  0  0  0  0
    5.7120    6.5540   -9.1940 C   0  0  0  0  0  0  0  0  0  0  0  0
    2.8480   10.2970  -12.6880 C   0  0  0  0  0  0  0  0  0  0  0  0
    4.7070    9.1710  -13.6760 C   0  0  0  0  0  0  0  0  0  0  0  0
    2.9300   11.3060  -13.6600 C   0  0  0  0  0  0  0  0  0  0  0  0
    4.7930   10.1740  -14.6530 C   0  0  0  0  0  0  0  0  0  0  0  0
    3.9060   11.2420  -14.6430 C   0  0  0  0  0  0  0  0  0  0  0  0
  1  2  1  0
  1  3  1  0
  3  4  2  0
  3  5  1  0
  5  6  2  0
  4  7  1  0
  6  8  1  0
  7  8  2  0
  8  9  1  0
  9 10  1  0
 10 11  1  0
 11 12  1  0
 12 13  1  0
 13 14  1  0
 14 15  1  0
 15 16  1  0
 16 17  2  3
 17 18  1  0
 17 19  1  0
 19 20  1  0
 18 21  1  0
 20 21  2  0
 19 22  1  0
 21 23  1  0
 22 24  2  0
 22 25  1  0
 24 26  1  0
 25 27  2  0
 26 28  2  0
 27 28  1  0
M  END
