x0805_0_A_β-x0574_0_A_α
     RDKit          3D

 23 25  0  0  0  0  0  0  0  0999 V2000
    0.5140   12.6610   -3.0150 C   0  0  0  0  0  0  0  0  0  0  0  0
    0.4750   11.3720   -2.6150 O   0  0  0  0  0  0  0  0  0  0  0  0
    0.7860   13.7070   -2.3410 N   0  0  0  0  0  0  0  0  0  0  0  0
    0.2120   12.8810   -4.4500 C   0  0  1  0  0  0  0  0  0  0  0  0
    1.1450   13.6870   -0.9610 C   0  0  0  0  0  0  0  0  0  0  0  0
   -0.6400   14.1420   -4.5500 C   0  0  0  0  0  0  0  0  0  0  0  0
    1.5270   13.1480   -5.1450 C   0  0  0  0  0  0  0  0  0  0  0  0
    0.7420   14.9110   -0.1520 C   0  0  0  0  0  0  0  0  0  0  0  0
    2.2350   14.1060   -4.3580 O   0  0  0  0  0  0  0  0  0  0  0  0
    0.1090   15.3490   -3.9650 C   0  0  0  0  0  0  0  0  0  0  0  0
    0.1200   14.5060    1.1150 N   0  0  0  0  0  0  0  0  0  0  0  0
    1.5870   15.3890   -4.3620 C   0  0  0  0  0  0  0  0  0  0  0  0
   -1.1510   14.5480    0.9070 C   0  0  0  0  0  0  0  0  0  0  0  0
   -2.1420   14.5580    1.7430 N   0  0  0  0  0  0  0  0  0  0  0  0
   -1.4880   14.6190   -0.7550 S   0  0  0  0  0  0  0  0  0  0  0  0
   -3.3030   14.6580    0.9910 C   0  0  0  0  0  0  0  0  0  0  0  0
   -3.1260   14.7120   -0.3910 C   0  0  0  0  0  0  0  0  0  0  0  0
   -4.6170   14.7140    1.4620 C   0  0  0  0  0  0  0  0  0  0  0  0
   -4.1700   14.8250   -1.2980 C   0  0  0  0  0  0  0  0  0  0  0  0
   -5.6870   14.8210    0.5660 C   0  0  0  0  0  0  0  0  0  0  0  0
   -5.4560   14.8800   -0.7980 C   0  0  0  0  0  0  0  0  0  0  0  0
   -6.9270   14.8600    1.1370 O   0  0  0  0  0  0  0  0  0  0  0  0
   -7.0200   14.6380    2.5360 C   0  0  0  0  0  0  0  0  0  0  0  0
  1  2  1  0
  1  3  2  3
  4  1  1  1
  3  5  1  0
  4  6  1  0
  4  7  1  0
  5  8  1  0
  7  9  1  0
  6 10  1  0
  8 11  1  0
  9 12  1  0
 10 12  1  0
 11 13  1  0
 13 14  2  0
 13 15  1  0
 14 16  1  0
 15 17  1  0
 16 17  2  0
 16 18  1  0
 17 19  1  0
 18 20  2  0
 19 21  2  0
 20 21  1  0
 20 22  1  0
 22 23  1  0
M  END
