x0805_0_A-x0962_3_A
     RDKit          3D

 26 28  0  0  0  0  0  0  0  0999 V2000
   -4.4740   15.1630    1.0310 C   0  0  0  0  0  0  0  0  0  0  0  0
   -3.6200   15.6090   -0.0080 O   0  0  0  0  0  0  0  0  0  0  0  0
   -3.4780   14.8280   -1.1190 C   0  0  0  0  0  0  0  0  0  0  0  0
   -4.4510   14.0980   -1.8010 C   0  0  0  0  0  0  0  0  0  0  0  0
   -2.1810   14.8000   -1.5810 C   0  0  0  0  0  0  0  0  0  0  0  0
   -4.0970   13.3590   -2.9390 C   0  0  0  0  0  0  0  0  0  0  0  0
   -1.8040   14.0930   -2.6960 C   0  0  0  0  0  0  0  0  0  0  0  0
   -2.7750   13.3550   -3.3910 C   0  0  0  0  0  0  0  0  0  0  0  0
   -0.3640   14.1450   -3.1060 C   0  0  1  0  0  0  0  0  0  0  0  0
    0.2490   12.8010   -3.4790 C   0  0  2  0  0  0  0  0  0  0  0  0
   -0.0340   15.2410   -4.1200 C   0  0  0  0  0  0  0  0  0  0  0  0
    0.3890   12.0180   -2.2110 C   0  0  0  0  0  0  0  0  0  0  0  0
    1.5650   13.0670   -4.1700 C   0  0  1  0  0  0  0  0  0  0  0  0
    1.4610   15.4530   -4.2440 C   0  0  0  0  0  0  0  0  0  0  0  0
    0.3530   10.6640   -2.3660 O   0  0  0  0  0  0  0  0  0  0  0  0
    0.5140   12.4920   -1.1100 O   0  0  0  0  0  0  0  0  0  0  0  0
    1.2180   13.2100   -5.6160 C   0  0  0  0  0  0  0  0  0  0  0  0
    2.1890   14.3110   -3.8000 O   0  0  0  0  0  0  0  0  0  0  0  0
    2.0360   12.2880   -6.3910 C   0  0  0  0  0  0  0  0  0  0  0  0
    1.3200   11.2840   -7.0760 C   0  0  0  0  0  0  0  0  0  0  0  0
    0.6650   10.4650   -7.5210 C   0  0  0  0  0  0  0  0  0  0  0  0
   -0.2370    9.4800   -7.7810 C   0  0  0  0  0  0  0  0  0  0  0  0
   -0.0370    8.3850   -8.5560 N   0  0  0  0  0  0  0  0  0  0  0  0
   -1.5090    9.3970   -7.3070 C   0  0  0  0  0  0  0  0  0  0  0  0
   -1.1970    7.6780   -8.5200 C   0  0  0  0  0  0  0  0  0  0  0  0
   -2.1070    8.2680   -7.7730 N   0  0  0  0  0  0  0  0  0  0  0  0
  1  2  1  0
  2  3  1  0
  3  4  2  0
  3  5  1  0
  4  6  1  0
  5  7  2  0
  6  8  2  0
  7  8  1  0
  9  7  1  6
  9 10  1  0
  9 11  1  0
 10 12  1  1
 10 13  1  0
 11 14  1  0
 12 15  1  0
 12 16  2  0
 13 17  1  6
 13 18  1  0
 14 18  1  0
 17 19  1  0
 19 20  1  0
 20 21  3  0
 21 22  1  0
 22 23  1  0
 22 24  2  0
 23 25  1  0
 24 26  1  0
 25 26  2  0
M  END
