x0805_0_A_α-x0962_2_B_α
     RDKit          3D

 17 18  0  0  0  0  0  0  0  0999 V2000
   -3.5620   15.0840   -0.0170 O   0  0  0  0  0  0  0  0  0  0  0  0
   -4.3270   14.2760    0.9060 C   0  0  0  0  0  0  0  0  0  0  0  0
   -5.6270   14.9890    1.2970 C   0  0  0  0  0  0  0  0  0  0  0  0
   -3.1790   14.5090   -1.1970 C   0  0  0  0  0  0  0  0  0  0  0  0
   -4.1670   13.7270   -1.7850 C   0  0  0  0  0  0  0  0  0  0  0  0
   -1.9400   14.6280   -1.8330 C   0  0  0  0  0  0  0  0  0  0  0  0
   -6.8630   14.1510    1.7260 C   0  0  0  0  0  0  0  0  0  0  0  0
   -1.7030   13.9730   -3.0420 C   0  0  0  0  0  0  0  0  0  0  0  0
   -3.9340   13.0670   -2.9930 C   0  0  0  0  0  0  0  0  0  0  0  0
   -2.7000   13.1920   -3.6230 C   0  0  0  0  0  0  0  0  0  0  0  0
   -7.7240   14.8390    2.7770 C   0  0  0  0  0  0  0  0  0  0  0  0
   -8.9010   15.5890    2.7120 C   0  0  0  0  0  0  0  0  0  0  0  0
   -7.3360   14.7680    4.0920 N   0  0  0  0  0  0  0  0  0  0  0  0
   -9.7260   15.9640    1.6240 C   0  0  0  0  0  0  0  0  0  0  0  0
   -9.1730   15.9590    4.0010 N   0  0  0  0  0  0  0  0  0  0  0  0
   -8.2010   15.4420    4.7970 C   0  0  0  0  0  0  0  0  0  0  0  0
  -10.4340   16.3050    0.7740 N   0  0  0  0  0  0  0  0  0  0  0  0
  1  2  1  0
  2  3  1  0
  1  4  1  0
  4  5  2  0
  4  6  1  0
  3  7  1  0
  6  8  2  0
  5  9  1  0
  8 10  1  0
  9 10  2  0
  7 11  1  0
 11 12  2  0
 11 13  1  0
 12 14  1  0
 12 15  1  0
 13 16  2  0
 15 16  1  0
 14 17  3  0
M  END
