x0805_0_A-x0962_1_A
     RDKit          3D

 23 25  0  0  0  0  0  0  0  0999 V2000
   -3.0240   15.2090    0.8000 C   0  0  0  0  0  0  0  0  0  0  0  0
   -4.0110   14.9840   -0.3530 C   0  0  1  0  0  0  0  0  0  0  0  0
   -3.9760   16.1290   -1.2090 N   0  0  0  0  0  0  0  0  0  0  0  0
   -3.5070   14.0770   -1.4630 C   0  0  0  0  0  0  0  0  0  0  0  0
   -5.5030   14.9530    0.1520 C   0  0  2  0  0  0  0  0  0  0  0  0
   -4.2040   12.9700   -1.9190 C   0  0  0  0  0  0  0  0  0  0  0  0
   -2.2660   14.3980   -2.0790 C   0  0  0  0  0  0  0  0  0  0  0  0
   -5.7360   15.0440    1.6240 N   0  0  0  0  0  0  0  0  0  0  0  0
   -6.4340   13.8190   -0.2350 C   0  0  0  0  0  0  0  0  0  0  0  0
   -3.6960   12.2060   -2.9590 C   0  0  0  0  0  0  0  0  0  0  0  0
   -1.7330   13.6440   -3.1270 C   0  0  0  0  0  0  0  0  0  0  0  0
   -7.0460   14.4600    1.8850 C   0  0  0  0  0  0  0  0  0  0  0  0
   -7.5960   14.1180    0.5900 N   0  0  0  0  0  0  0  0  0  0  0  0
   -2.4830   12.5380   -3.5520 C   0  0  0  0  0  0  0  0  0  0  0  0
   -0.4100   13.9050   -3.8490 C   0  0  2  0  0  0  0  0  0  0  0  0
    0.8210   13.2390   -3.2770 C   0  0  1  0  0  0  0  0  0  0  0  0
    0.0130   15.3690   -3.9680 C   0  0  0  0  0  0  0  0  0  0  0  0
    0.5020   12.0110   -2.4850 C   0  0  0  0  0  0  0  0  0  0  0  0
    1.9350   13.1810   -4.2830 C   0  0  0  0  0  0  0  0  0  0  0  0
    1.3150   15.4670   -4.7720 C   0  0  0  0  0  0  0  0  0  0  0  0
    0.3090   10.8480   -3.1390 O   0  0  0  0  0  0  0  0  0  0  0  0
    0.4160   12.1220   -1.2780 O   0  0  0  0  0  0  0  0  0  0  0  0
    2.3590   14.5480   -4.3280 O   0  0  0  0  0  0  0  0  0  0  0  0
  2  1  1  1
  2  3  1  0
  2  4  1  0
  2  5  1  0
  4  6  2  0
  4  7  1  0
  5  8  1  0
  5  9  1  1
  6 10  1  0
  7 11  2  0
  8 12  1  0
  9 13  1  0
 12 13  1  0
 10 14  2  0
 11 14  1  0
 15 11  1  1
 15 16  1  0
 15 17  1  0
 16 18  1  6
 16 19  1  0
 17 20  1  0
 18 21  1  0
 18 22  2  0
 19 23  1  0
 20 23  1  0
M  END
