x0805_0_A_β-x0849_0_A_α
     RDKit          3D

 21 23  0  0  0  0  0  0  0  0999 V2000
    0.5230   12.6580   -3.1370 C   0  0  0  0  0  0  0  0  0  0  0  0
    0.3850   11.4110   -2.6210 O   0  0  0  0  0  0  0  0  0  0  0  0
    0.7800   13.6560   -2.4000 N   0  0  0  0  0  0  0  0  0  0  0  0
    0.3550   12.8470   -4.5940 C   0  0  1  0  0  0  0  0  0  0  0  0
    0.9280   13.5290   -1.0110 C   0  0  0  0  0  0  0  0  0  0  0  0
   -0.5500   14.0590   -4.7820 C   0  0  0  0  0  0  0  0  0  0  0  0
    1.7090   13.1650   -5.1720 C   0  0  0  0  0  0  0  0  0  0  0  0
    2.2920   14.1770   -4.3510 O   0  0  0  0  0  0  0  0  0  0  0  0
    0.0780   15.2910   -4.1070 C   0  0  0  0  0  0  0  0  0  0  0  0
   -0.2410   14.0130   -0.2520 C   0  0  0  0  0  0  0  0  0  0  0  0
    1.5740   15.4220   -4.4010 C   0  0  0  0  0  0  0  0  0  0  0  0
   -0.2820   14.0890    1.1310 C   0  0  0  0  0  0  0  0  0  0  0  0
   -1.3610   14.3900   -0.9290 C   0  0  0  0  0  0  0  0  0  0  0  0
   -2.4830   14.8080   -0.2360 C   0  0  0  0  0  0  0  0  0  0  0  0
   -1.3410   14.4980    1.8260 N   0  0  0  0  0  0  0  0  0  0  0  0
   -2.4180   14.8390    1.1570 C   0  0  0  0  0  0  0  0  0  0  0  0
   -3.6730   15.1920   -0.8520 C   0  0  0  0  0  0  0  0  0  0  0  0
   -3.8520   15.1800   -2.7440 Br  0  0  0  0  0  0  0  0  0  0  0  0
   -3.4430   15.2070    1.8710 N   0  0  0  0  0  0  0  0  0  0  0  0
   -4.7490   15.5820   -0.0920 C   0  0  0  0  0  0  0  0  0  0  0  0
   -4.5720   15.5620    1.2700 C   0  0  0  0  0  0  0  0  0  0  0  0
  1  2  1  0
  1  3  2  3
  4  1  1  1
  3  5  1  0
  4  6  1  0
  4  7  1  0
  7  8  1  0
  6  9  1  0
  5 10  1  0
  8 11  1  0
  9 11  1  0
 10 12  2  0
 10 13  1  0
 13 14  2  0
 12 15  1  0
 14 16  1  0
 15 16  2  0
 14 17  1  0
 17 18  1  0
 16 19  1  0
 17 20  2  0
 19 21  2  0
 20 21  1  0
M  END
