x0814_0_B-x0918_4_B
     RDKit          3D

 24 25  0  0  0  0  0  0  0  0999 V2000
   14.4270   13.8180   14.2000 C   0  0  0  0  0  0  0  0  0  0  0  0
   14.1760   13.3260   12.7760 C   0  0  2  0  0  0  0  0  0  0  0  0
   13.2490   12.1410   12.8750 N   0  0  0  0  0  0  0  0  0  0  0  0
   15.4940   12.9570   12.1160 C   0  0  2  0  0  0  0  0  0  0  0  0
   16.6180   14.0480   11.9550 C   0  0  0  0  0  0  0  0  0  0  0  0
   11.6710   12.4680   13.2550 S   0  0  0  0  0  0  0  0  0  0  0  0
   13.3550   11.0360   11.9180 C   0  0  0  0  0  0  0  0  0  0  0  0
   15.3680   11.9540   10.9750 C   0  0  0  0  0  0  0  0  0  0  0  0
   11.6080   13.8890   12.9950 O   0  0  0  0  0  0  0  0  0  0  0  0
   17.8540   13.5450   11.6990 N   0  0  0  0  0  0  0  0  0  0  0  0
   10.7660   11.5140   12.6160 O   0  0  0  0  0  0  0  0  0  0  0  0
   16.4650   15.3320   12.0590 N   0  0  0  0  0  0  0  0  0  0  0  0
   11.7260   12.1120   15.0040 C   0  0  0  0  0  0  0  0  0  0  0  0
   13.9500   11.5360   10.6530 C   0  0  0  0  0  0  0  0  0  0  0  0
   15.2750   16.0850   12.3030 C   0  0  0  0  0  0  0  0  0  0  0  0
   15.5470   17.4850   12.8990 C   0  0  0  0  0  0  0  0  0  0  0  0
   15.2220   18.6890   11.9720 C   0  0  0  0  0  0  0  0  0  0  0  0
   14.1760   19.6300   12.5720 C   0  0  0  0  0  0  0  0  0  0  0  0
   13.0170   19.0840   13.0190 N   0  0  0  0  0  0  0  0  0  0  0  0
   14.4150   21.0080   12.6630 C   0  0  0  0  0  0  0  0  0  0  0  0
   13.4450   21.8430   13.2310 C   0  0  0  0  0  0  0  0  0  0  0  0
   12.0920   19.9110   13.5580 C   0  0  0  0  0  0  0  0  0  0  0  0
   13.6560   23.2220   13.3480 N   0  0  0  0  0  0  0  0  0  0  0  0
   12.2620   21.2760   13.6850 C   0  0  0  0  0  0  0  0  0  0  0  0
  2  1  1  1
  2  3  1  0
  2  4  1  0
  4  5  1  6
  3  6  1  0
  3  7  1  0
  4  8  1  0
  6  9  2  0
  5 10  1  0
  6 11  2  0
  5 12  2  3
  6 13  1  0
  7 14  1  0
  8 14  1  0
 12 15  1  0
 15 16  1  0
 16 17  1  0
 17 18  1  0
 18 19  2  0
 18 20  1  0
 20 21  2  0
 19 22  1  0
 21 23  1  0
 21 24  1  0
 22 24  2  0
M  END
