x0814_0_B_α-x0792_0_A_α
     RDKit          3D

 28 29  0  0  0  0  0  0  0  0999 V2000
   14.8210   13.8970   14.4800 C   0  0  0  0  0  0  0  0  0  0  0  0
   14.7020   12.8080   13.4050 C   0  0  1  0  0  0  0  0  0  0  0  0
   13.4180   12.8040   12.7340 N   0  0  0  0  0  0  0  0  0  0  0  0
   15.7690   12.8870   12.3250 C   0  0  2  0  0  0  0  0  0  0  0  0
   15.9640   14.3400   11.8980 C   0  0  0  0  0  0  0  0  0  0  0  0
   12.0580   13.4510   13.4760 S   0  0  1  0  0  0  0  0  0  0  0  0
   13.2130   11.5110   12.1080 C   0  0  0  0  0  0  0  0  0  0  0  0
   15.5410   11.8780   11.1740 C   0  0  0  0  0  0  0  0  0  0  0  0
   12.2880   15.0020   13.6690 N   0  0  0  0  0  0  0  0  0  0  0  0
   17.2020   14.6770   11.4410 N   0  0  0  0  0  0  0  0  0  0  0  0
   11.0390   12.8590   12.6210 O   0  0  0  0  0  0  0  0  0  0  0  0
   15.0930   15.2000   11.9600 O   0  0  0  0  0  0  0  0  0  0  0  0
   11.9640   12.6530   15.0650 C   0  0  0  0  0  0  0  0  0  0  0  0
   14.1180   11.3670   10.9210 C   0  0  0  0  0  0  0  0  0  0  0  0
   12.0760   15.6910   15.0000 C   0  0  0  0  0  0  0  0  0  0  0  0
   11.8420   17.2410   14.8930 C   0  0  0  0  0  0  0  0  0  0  0  0
   11.4230   17.9060   16.2500 C   0  0  0  0  0  0  0  0  0  0  0  0
   11.4730   19.4760   16.3500 C   0  0  0  0  0  0  0  0  0  0  0  0
   10.6240   20.1200   17.5010 C   0  0  0  0  0  0  0  0  0  0  0  0
   10.3480   21.5540   17.3560 O   0  0  0  0  0  0  0  0  0  0  0  0
    9.9500   22.2330   18.5940 C   0  0  0  0  0  0  0  0  0  0  0  0
    9.4540   23.7310   18.4630 C   0  0  2  0  0  0  0  0  0  0  0  0
    8.4690   24.1180   19.5650 C   0  0  0  0  0  0  0  0  0  0  0  0
    8.8520   24.0340   17.1190 C   0  0  0  0  0  0  0  0  0  0  0  0
    7.8240   25.0350   16.9130 N   0  0  0  0  0  0  0  0  0  0  0  0
    7.7950   25.5070   19.3640 C   0  0  1  0  0  0  0  0  0  0  0  0
    8.5580   26.5680   20.1240 C   0  0  0  0  0  0  0  0  0  0  0  0
    7.6820   26.0250   17.9320 C   0  0  0  0  0  0  0  0  0  0  0  0
  2  1  1  1
  2  3  1  0
  2  4  1  0
  4  5  1  6
  3  6  1  0
  3  7  1  0
  4  8  1  0
  6  9  2  0
  5 10  1  0
  6 11  2  0
  5 12  2  0
  6 13  1  1
  7 14  1  0
  8 14  1  0
  9 15  1  0
 15 16  1  0
 16 17  1  0
 17 18  1  0
 18 19  1  0
 19 20  1  0
 20 21  1  0
 22 21  1  6
 22 23  1  0
 22 24  1  0
 24 25  1  0
 23 26  1  0
 26 27  1  1
 25 28  1  0
 26 28  1  0
M  END
