x0814_0_B-x0142_0_A
     RDKit          3D

 31 33  0  0  0  0  0  0  0  0999 V2000
   14.9880   12.1890   14.1850 C   0  0  1  0  0  0  0  0  0  0  0  0
   16.3390   12.7350   14.6320 C   0  0  0  0  0  0  0  0  0  0  0  0
   14.2240   12.9280   13.0500 C   0  0  2  0  0  0  0  0  0  0  0  0
   15.0730   10.7550   13.6810 C   0  0  0  0  0  0  0  0  0  0  0  0
   13.0240   12.1140   12.6700 N   0  0  0  0  0  0  0  0  0  0  0  0
   14.8850   13.4080   11.7450 C   0  0  1  0  0  0  0  0  0  0  0  0
   14.4460    9.6940   14.3390 C   0  0  0  0  0  0  0  0  0  0  0  0
   15.7810   10.4910   12.5060 C   0  0  0  0  0  0  0  0  0  0  0  0
   16.0060   14.4420   11.7810 C   0  0  0  0  0  0  0  0  0  0  0  0
   11.5170   12.4800   13.1360 S   0  0  0  0  0  0  0  0  0  0  0  0
   13.1750   10.9770   11.7460 C   0  0  0  0  0  0  0  0  0  0  0  0
   15.1850   12.1840   10.8640 C   0  0  0  0  0  0  0  0  0  0  0  0
   14.5120    8.3970   13.8190 C   0  0  0  0  0  0  0  0  0  0  0  0
   15.8450    9.1990   11.9860 C   0  0  0  0  0  0  0  0  0  0  0  0
   11.4490   13.8890   12.8320 O   0  0  0  0  0  0  0  0  0  0  0  0
   17.2880   14.0780   11.5430 N   0  0  0  0  0  0  0  0  0  0  0  0
   10.5630   11.5200   12.6040 O   0  0  0  0  0  0  0  0  0  0  0  0
   15.7730   15.6270   12.0210 O   0  0  0  0  0  0  0  0  0  0  0  0
   11.7670   12.2020   14.8840 C   0  0  0  0  0  0  0  0  0  0  0  0
   13.8940   11.4340   10.5090 C   0  0  0  0  0  0  0  0  0  0  0  0
   15.2060    8.1440   12.6320 C   0  0  0  0  0  0  0  0  0  0  0  0
   15.3100    6.8770   12.0260 N   0  0  0  0  0  0  0  0  0  0  0  0
   14.9990    6.5180   10.7150 C   0  0  0  0  0  0  0  0  0  0  0  0
   14.7520    5.1500   10.6910 N   0  0  0  0  0  0  0  0  0  0  0  0
   14.9540    7.2700    9.7300 O   0  0  0  0  0  0  0  0  0  0  0  0
   14.9660    4.2490    9.6330 C   0  0  0  0  0  0  0  0  0  0  0  0
   15.7840    4.5060    8.5440 C   0  0  0  0  0  0  0  0  0  0  0  0
   14.3060    3.0230    9.6940 C   0  0  0  0  0  0  0  0  0  0  0  0
   15.9070    3.5290    7.5640 C   0  0  0  0  0  0  0  0  0  0  0  0
   14.4920    2.1130    8.6670 C   0  0  0  0  0  0  0  0  0  0  0  0
   15.2770    2.3390    7.5990 N   0  0  0  0  0  0  0  0  0  0  0  0
  1  2  1  6
  1  3  1  0
  1  4  1  0
  3  5  1  6
  3  6  1  0
  4  7  2  0
  4  8  1  0
  6  9  1  1
  5 10  1  0
  5 11  1  0
  6 12  1  0
  7 13  1  0
  8 14  2  0
 10 15  2  0
  9 16  1  0
 10 17  2  0
  9 18  2  0
 10 19  1  0
 11 20  1  0
 12 20  1  0
 13 21  2  0
 14 21  1  0
 21 22  1  0
 22 23  1  0
 23 24  1  0
 23 25  2  0
 24 26  1  0
 26 27  2  0
 26 28  1  0
 27 29  1  0
 28 30  2  0
 29 31  2  0
 30 31  1  0
M  END
