x0814_0_B_α-x0158_0_B_α
     RDKit          3D

 18 18  0  0  0  0  0  0  0  0999 V2000
   14.2660   13.6730   14.2910 C   0  0  0  0  0  0  0  0  0  0  0  0
   14.5370   12.6420   13.2180 C   0  0  1  0  0  0  0  0  0  0  0  0
   13.2570   12.0170   12.7210 N   0  0  0  0  0  0  0  0  0  0  0  0
   15.5790   12.9960   12.0930 C   0  0  2  0  0  0  0  0  0  0  0  0
   16.1300   14.4640   11.8390 C   0  0  0  0  0  0  0  0  0  0  0  0
   11.7440   12.4960   13.2090 S   0  0  0  0  0  0  0  0  0  0  0  0
   13.3360   11.0480   11.6500 C   0  0  0  0  0  0  0  0  0  0  0  0
   15.3660   12.1230   10.8410 C   0  0  0  0  0  0  0  0  0  0  0  0
   11.7260   13.9330   13.0490 O   0  0  0  0  0  0  0  0  0  0  0  0
   17.2050   14.4960   10.9760 N   0  0  0  0  0  0  0  0  0  0  0  0
   10.7200   11.6350   12.6100 O   0  0  0  0  0  0  0  0  0  0  0  0
   15.6910   15.6510   12.3630 C   0  0  0  0  0  0  0  0  0  0  0  0
   11.8210   12.0980   14.9420 C   0  0  0  0  0  0  0  0  0  0  0  0
   13.9180   11.7950   10.5020 C   0  0  0  0  0  0  0  0  0  0  0  0
   16.2010   17.0800   12.1190 C   0  0  0  0  0  0  0  0  0  0  0  0
   14.5920   15.7240   13.3240 C   0  0  0  0  0  0  0  0  0  0  0  0
   17.6480   17.2100   11.6540 C   0  0  0  0  0  0  0  0  0  0  0  0
   14.8250   15.9120   14.5120 O   0  0  0  0  0  0  0  0  0  0  0  0
  2  1  1  6
  2  3  1  0
  2  4  1  0
  4  5  1  6
  3  6  1  0
  3  7  1  0
  4  8  1  0
  6  9  2  0
  5 10  1  0
  6 11  2  0
  5 12  2  3
  6 13  1  0
  7 14  1  0
  8 14  1  0
 12 15  1  0
 12 16  1  0
 15 17  1  0
 16 18  2  0
M  END
