x0814_0_B-x0918_4_B
     RDKit          3D

 24 25  0  0  0  0  0  0  0  0999 V2000
   14.4210   13.8170   14.2020 C   0  0  0  0  0  0  0  0  0  0  0  0
   14.1750   13.3250   12.7780 C   0  0  2  0  0  0  0  0  0  0  0  0
   13.2440   12.1390   12.8740 N   0  0  0  0  0  0  0  0  0  0  0  0
   15.4920   12.9520   12.1250 C   0  0  2  0  0  0  0  0  0  0  0  0
   16.6150   14.0460   11.9530 C   0  0  0  0  0  0  0  0  0  0  0  0
   11.6680   12.4670   13.2510 S   0  0  0  0  0  0  0  0  0  0  0  0
   13.3510   11.0310   11.9210 C   0  0  0  0  0  0  0  0  0  0  0  0
   15.3740   11.9390   10.9940 C   0  0  0  0  0  0  0  0  0  0  0  0
   11.6040   13.8890   12.9890 O   0  0  0  0  0  0  0  0  0  0  0  0
   17.8470   13.5440   11.6900 N   0  0  0  0  0  0  0  0  0  0  0  0
   10.7630   11.5140   12.6130 O   0  0  0  0  0  0  0  0  0  0  0  0
   16.4600   15.3280   12.0550 N   0  0  0  0  0  0  0  0  0  0  0  0
   11.7270   12.1120   15.0010 C   0  0  0  0  0  0  0  0  0  0  0  0
   13.9540   11.5240   10.6610 C   0  0  0  0  0  0  0  0  0  0  0  0
   15.2720   16.0830   12.3060 C   0  0  0  0  0  0  0  0  0  0  0  0
   15.5450   17.4820   12.9010 C   0  0  0  0  0  0  0  0  0  0  0  0
   15.2210   18.6860   11.9730 C   0  0  0  0  0  0  0  0  0  0  0  0
   14.1740   19.6270   12.5730 C   0  0  0  0  0  0  0  0  0  0  0  0
   13.0140   19.0840   13.0170 N   0  0  0  0  0  0  0  0  0  0  0  0
   14.4160   21.0060   12.6650 C   0  0  0  0  0  0  0  0  0  0  0  0
   13.4460   21.8420   13.2320 C   0  0  0  0  0  0  0  0  0  0  0  0
   12.0890   19.9110   13.5570 C   0  0  0  0  0  0  0  0  0  0  0  0
   13.6550   23.2230   13.3470 N   0  0  0  0  0  0  0  0  0  0  0  0
   12.2630   21.2760   13.6830 C   0  0  0  0  0  0  0  0  0  0  0  0
  2  1  1  1
  2  3  1  0
  2  4  1  0
  4  5  1  6
  3  6  1  0
  3  7  1  0
  4  8  1  0
  6  9  2  0
  5 10  1  0
  6 11  2  0
  5 12  2  3
  6 13  1  0
  7 14  1  0
  8 14  1  0
 12 15  1  0
 15 16  1  0
 16 17  1  0
 17 18  1  0
 18 19  2  0
 18 20  1  0
 20 21  2  0
 19 22  1  0
 21 23  1  0
 21 24  1  0
 22 24  2  0
M  END
