x0814_0_B_α-x0091_0_B_α
     RDKit          3D

 31 33  0  0  0  0  0  0  0  0999 V2000
   15.1990   12.8050   14.0760 C   0  0  0  0  0  0  0  0  0  0  0  0
   14.2310   13.1330   12.9330 C   0  0  2  0  0  0  0  0  0  0  0  0
   13.2260   11.9930   12.8190 N   0  0  0  0  0  0  0  0  0  0  0  0
   14.9290   13.4840   11.6140 C   0  0  1  0  0  0  0  0  0  0  0  0
   16.2170   14.3170   11.8250 C   0  0  0  0  0  0  0  0  0  0  0  0
   11.6640   12.4100   13.2010 S   0  0  0  0  0  0  0  0  0  0  0  0
   13.3670   10.9020   11.8370 C   0  0  0  0  0  0  0  0  0  0  0  0
   15.1510   12.2030   10.8220 C   0  0  0  0  0  0  0  0  0  0  0  0
   11.6060   13.8330   12.9550 O   0  0  0  0  0  0  0  0  0  0  0  0
   17.2910   13.9910   11.0570 N   0  0  0  0  0  0  0  0  0  0  0  0
   10.7110   11.4670   12.6110 O   0  0  0  0  0  0  0  0  0  0  0  0
   16.3020   15.2550   12.6860 N   0  0  0  0  0  0  0  0  0  0  0  0
   11.7290   12.0930   14.9660 C   0  0  0  0  0  0  0  0  0  0  0  0
   13.8400   11.4870   10.5460 C   0  0  0  0  0  0  0  0  0  0  0  0
   15.2690   15.6590   13.5940 C   0  0  0  0  0  0  0  0  0  0  0  0
   15.9650   15.6800   14.9690 C   0  0  0  0  0  0  0  0  0  0  0  0
   15.9550   17.0770   15.5640 C   0  0  0  0  0  0  0  0  0  0  0  0
   14.7190   17.7360   15.1290 C   0  0  0  0  0  0  0  0  0  0  0  0
   13.5820   17.2310   15.6690 O   0  0  0  0  0  0  0  0  0  0  0  0
   14.4130   18.7580   14.2740 C   0  0  0  0  0  0  0  0  0  0  0  0
   12.4950   17.9230   15.1670 N   0  0  0  0  0  0  0  0  0  0  0  0
   12.9970   18.8390   14.3240 C   0  0  0  0  0  0  0  0  0  0  0  0
   12.1240   19.7950   13.5620 C   0  0  0  0  0  0  0  0  0  0  0  0
   12.6310   21.1680   13.5460 N   0  0  0  0  0  0  0  0  0  0  0  0
   12.1960   22.0200   14.6460 C   0  0  0  0  0  0  0  0  0  0  0  0
   13.6850   21.4530   12.6970 C   0  0  0  0  0  0  0  0  0  0  0  0
   13.9550   20.7640   11.7140 O   0  0  0  0  0  0  0  0  0  0  0  0
   14.4250   22.5560   13.0120 N   0  0  0  0  0  0  0  0  0  0  0  0
   15.7260   22.7050   12.4250 C   0  0  0  0  0  0  0  0  0  0  0  0
   16.8440   21.8050   12.8740 C   0  0  0  0  0  0  0  0  0  0  0  0
   16.8930   23.2420   13.2130 C   0  0  0  0  0  0  0  0  0  0  0  0
  2  1  1  1
  2  3  1  0
  2  4  1  0
  4  5  1  1
  3  6  1  0
  3  7  1  0
  4  8  1  0
  6  9  2  0
  5 10  1  0
  6 11  2  0
  5 12  2  3
  6 13  1  0
  7 14  1  0
  8 14  1  0
 12 15  1  0
 15 16  1  0
 16 17  1  0
 17 18  1  0
 18 19  1  0
 18 20  2  0
 19 21  1  0
 20 22  1  0
 21 22  2  0
 22 23  1  0
 23 24  1  0
 24 25  1  0
 24 26  1  0
 26 27  2  0
 26 28  1  0
 28 29  1  0
 29 30  1  0
 29 31  1  0
 30 31  1  0
M  END
