x0814_0_B-x0158_0_B
     RDKit          3D

 18 18  0  0  0  0  0  0  0  0999 V2000
   14.2780   13.6780   14.2950 C   0  0  0  0  0  0  0  0  0  0  0  0
   14.5510   12.6450   13.2200 C   0  0  1  0  0  0  0  0  0  0  0  0
   13.2720   12.0110   12.7310 N   0  0  0  0  0  0  0  0  0  0  0  0
   15.5880   13.0110   12.0940 C   0  0  2  0  0  0  0  0  0  0  0  0
   16.1300   14.4830   11.8390 C   0  0  0  0  0  0  0  0  0  0  0  0
   11.7510   12.4900   13.2110 S   0  0  0  0  0  0  0  0  0  0  0  0
   13.3550   11.0450   11.6590 C   0  0  0  0  0  0  0  0  0  0  0  0
   15.3730   12.1390   10.8400 C   0  0  0  0  0  0  0  0  0  0  0  0
   11.7300   13.9260   13.0470 O   0  0  0  0  0  0  0  0  0  0  0  0
   17.2120   14.5320   10.9840 N   0  0  0  0  0  0  0  0  0  0  0  0
   10.7330   11.6250   12.6130 O   0  0  0  0  0  0  0  0  0  0  0  0
   15.6830   15.6660   12.3560 C   0  0  0  0  0  0  0  0  0  0  0  0
   11.8170   12.1010   14.9470 C   0  0  0  0  0  0  0  0  0  0  0  0
   13.9260   11.8020   10.5110 C   0  0  0  0  0  0  0  0  0  0  0  0
   16.1960   17.0930   12.1040 C   0  0  0  0  0  0  0  0  0  0  0  0
   14.5800   15.7390   13.3090 C   0  0  0  0  0  0  0  0  0  0  0  0
   17.6350   17.2190   11.6230 C   0  0  0  0  0  0  0  0  0  0  0  0
   14.8070   15.9300   14.4980 O   0  0  0  0  0  0  0  0  0  0  0  0
  2  1  1  6
  2  3  1  0
  2  4  1  0
  4  5  1  6
  3  6  1  0
  3  7  1  0
  4  8  1  0
  6  9  2  0
  5 10  1  0
  6 11  2  0
  5 12  2  3
  6 13  1  0
  7 14  1  0
  8 14  1  0
 12 15  1  0
 12 16  1  0
 15 17  1  0
 16 18  2  0
M  END
