x0814_0_B_α-x0299_0_A_α
     RDKit          3D

 31 33  0  0  0  0  0  0  0  0999 V2000
   14.0290   14.2270   13.9010 C   0  0  0  0  0  0  0  0  0  0  0  0
   14.3710   12.9440   13.1530 C   0  0  1  0  0  0  0  0  0  0  0  0
   13.2810   11.9560   13.0910 N   0  0  0  0  0  0  0  0  0  0  0  0
   14.7900   13.2640   11.7370 C   0  0  1  0  0  0  0  0  0  0  0  0
   15.9120   14.3120   11.7180 C   0  0  0  0  0  0  0  0  0  0  0  0
   11.6940   12.4100   13.3010 S   0  0  0  0  0  0  0  0  0  0  0  0
   13.5340   10.6740   12.4700 C   0  0  0  0  0  0  0  0  0  0  0  0
   15.1210   11.9730   10.9780 C   0  0  0  0  0  0  0  0  0  0  0  0
   11.6750   13.8350   13.0480 O   0  0  0  0  0  0  0  0  0  0  0  0
   17.1690   13.8390   11.4730 N   0  0  0  0  0  0  0  0  0  0  0  0
   10.7710   11.4900   12.6390 O   0  0  0  0  0  0  0  0  0  0  0  0
   15.7390   15.5150   11.9140 O   0  0  0  0  0  0  0  0  0  0  0  0
   11.6690   12.1180   15.0630 C   0  0  0  0  0  0  0  0  0  0  0  0
   14.0800   10.8070   11.0570 C   0  0  1  0  0  0  0  0  0  0  0  0
   14.5650    9.4050   10.5640 C   0  0  0  0  0  0  0  0  0  0  0  0
   14.7220    8.1570   11.4060 C   0  0  1  0  0  0  0  0  0  0  0  0
   13.9750    8.0560   12.6200 N   0  0  0  0  0  0  0  0  0  0  0  0
   14.7860    6.8530   10.6610 C   0  0  0  0  0  0  0  0  0  0  0  0
   14.7230    8.2370   13.7490 C   0  0  0  0  0  0  0  0  0  0  0  0
   14.4560    5.6670   11.2650 N   0  0  0  0  0  0  0  0  0  0  0  0
   15.1720    6.6620    9.3980 N   0  0  0  0  0  0  0  0  0  0  0  0
   15.9140    8.5400   13.7000 O   0  0  0  0  0  0  0  0  0  0  0  0
   13.9750    8.0310   15.0390 C   0  0  0  0  0  0  0  0  0  0  0  0
   15.1080    5.2900    9.2190 C   0  0  0  0  0  0  0  0  0  0  0  0
   14.6560    4.6570   10.3680 C   0  0  0  0  0  0  0  0  0  0  0  0
   14.9100    7.4960   16.1160 C   0  0  0  0  0  0  0  0  0  0  0  0
   14.4870    3.2750   10.4780 C   0  0  0  0  0  0  0  0  0  0  0  0
   15.4220    4.4940    8.1060 C   0  0  0  0  0  0  0  0  0  0  0  0
   15.8600    8.5710   16.6160 C   0  0  0  0  0  0  0  0  0  0  0  0
   14.8020    2.5100    9.3530 C   0  0  0  0  0  0  0  0  0  0  0  0
   15.2640    3.1060    8.1850 C   0  0  0  0  0  0  0  0  0  0  0  0
  2  1  1  6
  2  3  1  0
  2  4  1  0
  4  5  1  1
  3  6  1  0
  3  7  1  0
  4  8  1  0
  6  9  2  0
  5 10  1  0
  6 11  2  0
  5 12  2  0
  6 13  1  0
  7 14  1  0
  8 14  1  0
 14 15  1  1
 16 15  1  6
 16 17  1  0
 16 18  1  0
 17 19  1  0
 18 20  1  0
 18 21  2  0
 19 22  2  0
 19 23  1  0
 21 24  1  0
 20 25  1  0
 24 25  2  0
 23 26  1  0
 25 27  1  0
 24 28  1  0
 26 29  1  0
 27 30  2  0
 28 31  2  0
 30 31  1  0
M  END
