x0814_0_B_α-x0905_1_B_α
     RDKit          3D

 23 24  0  0  0  0  0  0  0  0999 V2000
   14.7330   13.3590   14.5480 C   0  0  0  0  0  0  0  0  0  0  0  0
   14.2410   13.3590   13.1110 C   0  0  2  0  0  0  0  0  0  0  0  0
   13.2450   12.2810   12.7740 N   0  0  0  0  0  0  0  0  0  0  0  0
   15.3870   13.2330   12.1380 C   0  0  2  0  0  0  0  0  0  0  0  0
   16.2300   14.5260   11.8640 C   0  0  0  0  0  0  0  0  0  0  0  0
   11.6320   12.4310   13.1160 S   0  0  0  0  0  0  0  0  0  0  0  0
   13.7070   10.9270   12.3950 C   0  0  0  0  0  0  0  0  0  0  0  0
   14.9070   12.4550   10.9070 C   0  0  0  0  0  0  0  0  0  0  0  0
   11.3630   13.8020   12.7580 O   0  0  0  0  0  0  0  0  0  0  0  0
   17.5040   14.2440   11.4610 N   0  0  0  0  0  0  0  0  0  0  0  0
   10.8710   11.3240   12.5520 O   0  0  0  0  0  0  0  0  0  0  0  0
   15.8170   15.7800   11.9930 N   0  0  0  0  0  0  0  0  0  0  0  0
   11.7390   12.1980   14.8880 C   0  0  0  0  0  0  0  0  0  0  0  0
   14.5550   11.0000   11.1560 C   0  0  0  0  0  0  0  0  0  0  0  0
   14.5290   16.3990   12.3870 C   0  0  0  0  0  0  0  0  0  0  0  0
   14.7880   17.7100   13.2180 C   0  0  0  0  0  0  0  0  0  0  0  0
   14.5760   18.9630   12.4790 O   0  0  0  0  0  0  0  0  0  0  0  0
   13.7750   19.9200   13.1250 C   0  0  0  0  0  0  0  0  0  0  0  0
   12.7090   19.4800   13.8290 N   0  0  0  0  0  0  0  0  0  0  0  0
   14.1040   21.2680   13.0020 C   0  0  0  0  0  0  0  0  0  0  0  0
   11.9470   20.4130   14.4320 C   0  0  0  0  0  0  0  0  0  0  0  0
   13.2910   22.2090   13.6400 C   0  0  0  0  0  0  0  0  0  0  0  0
   12.1910   21.7720   14.3700 C   0  0  0  0  0  0  0  0  0  0  0  0
  2  1  1  1
  2  3  1  0
  2  4  1  0
  4  5  1  6
  3  6  1  0
  3  7  1  0
  4  8  1  0
  6  9  2  0
  5 10  1  0
  6 11  2  0
  5 12  2  3
  6 13  1  0
  7 14  1  0
  8 14  1  0
 12 15  1  0
 15 16  1  0
 16 17  1  0
 17 18  1  0
 18 19  2  0
 18 20  1  0
 19 21  1  0
 20 22  2  0
 21 23  2  0
 22 23  1  0
M  END
