x0814_0_B-x0905_1_B
     RDKit          3D

 23 24  0  0  0  0  0  0  0  0999 V2000
   14.6120   13.7190   14.3990 C   0  0  0  0  0  0  0  0  0  0  0  0
   14.2200   13.4440   12.9560 C   0  0  2  0  0  0  0  0  0  0  0  0
   13.2980   12.2310   12.8350 N   0  0  0  0  0  0  0  0  0  0  0  0
   15.4880   13.3750   12.0960 C   0  0  2  0  0  0  0  0  0  0  0  0
   16.2900   14.6890   11.7400 C   0  0  0  0  0  0  0  0  0  0  0  0
   11.6830   12.4270   13.1830 S   0  0  0  0  0  0  0  0  0  0  0  0
   13.4970   11.2460   11.7530 C   0  0  0  0  0  0  0  0  0  0  0  0
   15.3980   12.4100   10.8920 C   0  0  0  0  0  0  0  0  0  0  0  0
   11.4520   13.8150   12.8670 O   0  0  0  0  0  0  0  0  0  0  0  0
   17.3760   14.4080   10.9700 N   0  0  0  0  0  0  0  0  0  0  0  0
   10.8770   11.3660   12.5840 O   0  0  0  0  0  0  0  0  0  0  0  0
   16.0590   15.9570   12.1030 N   0  0  0  0  0  0  0  0  0  0  0  0
   11.7480   12.1610   14.9470 C   0  0  0  0  0  0  0  0  0  0  0  0
   13.9990   11.9520   10.5450 C   0  0  0  0  0  0  0  0  0  0  0  0
   15.0560   16.6970   12.9140 C   0  0  0  0  0  0  0  0  0  0  0  0
   14.4700   17.9210   12.1060 C   0  0  0  0  0  0  0  0  0  0  0  0
   14.9070   19.2300   12.5100 O   0  0  0  0  0  0  0  0  0  0  0  0
   13.9220   20.0430   13.0670 C   0  0  0  0  0  0  0  0  0  0  0  0
   12.8450   19.4890   13.6700 N   0  0  0  0  0  0  0  0  0  0  0  0
   14.1190   21.4170   12.9750 C   0  0  0  0  0  0  0  0  0  0  0  0
   11.9470   20.3420   14.2030 C   0  0  0  0  0  0  0  0  0  0  0  0
   13.1740   22.2670   13.5350 C   0  0  0  0  0  0  0  0  0  0  0  0
   12.0650   21.7210   14.1660 C   0  0  0  0  0  0  0  0  0  0  0  0
  2  1  1  1
  2  3  1  0
  2  4  1  0
  4  5  1  6
  3  6  1  0
  3  7  1  0
  4  8  1  0
  6  9  2  0
  5 10  1  0
  6 11  2  0
  5 12  2  3
  6 13  1  0
  7 14  1  0
  8 14  1  0
 12 15  1  0
 15 16  1  0
 16 17  1  0
 17 18  1  0
 18 19  2  0
 18 20  1  0
 19 21  1  0
 20 22  2  0
 21 23  2  0
 22 23  1  0
M  END
