x0822_0_A_α-x0598_0_A_α
     RDKit          3D

 25 27  0  0  0  0  0  0  0  0999 V2000
    3.3790   26.0500   18.8680 N   0  0  0  0  0  0  0  0  0  0  0  0
    3.8750   27.1820   18.0550 C   0  0  1  0  0  0  0  0  0  0  0  0
    5.4230   27.3090   18.2370 C   0  0  0  0  0  0  0  0  0  0  0  0
    3.4700   26.9450   16.5600 C   0  0  2  0  0  0  0  0  0  0  0  0
    4.4490   27.5060   15.5500 C   0  0  0  0  0  0  0  0  0  0  0  0
    6.0740   26.5080   17.1130 C   0  0  2  0  0  0  0  0  0  0  0  0
    2.0820   27.3440   16.1280 C   0  0  0  0  0  0  0  0  0  0  0  0
    5.8680   27.1100   15.7580 C   0  0  0  0  0  0  0  0  0  0  0  0
    1.6400   28.6590   16.3410 C   0  0  0  0  0  0  0  0  0  0  0  0
    1.2200   26.4420   15.5070 C   0  0  0  0  0  0  0  0  0  0  0  0
    5.1420   25.4150   17.1120 N   0  0  0  0  0  0  0  0  0  0  0  0
    7.4410   25.7770   17.2430 C   0  0  2  0  0  0  0  0  0  0  0  0
    8.6930   26.2630   16.5460 C   0  0  0  0  0  0  0  0  0  0  0  0
    0.3670   29.0490   15.9390 C   0  0  0  0  0  0  0  0  0  0  0  0
   -0.0540   26.8230   15.1040 C   0  0  0  0  0  0  0  0  0  0  0  0
    5.6810   24.5870   16.1260 C   0  0  0  0  0  0  0  0  0  0  0  0
    7.1760   24.5880   16.3580 C   0  0  0  0  0  0  0  0  0  0  0  0
   -0.7680   25.8180   14.5180 O   0  0  0  0  0  0  0  0  0  0  0  0
    8.7010   25.4110   15.3310 N   0  0  0  0  0  0  0  0  0  0  0  0
   -0.4830   28.1300   15.3190 C   0  0  0  0  0  0  0  0  0  0  0  0
   -2.1250   26.1000   14.2080 C   0  0  0  0  0  0  0  0  0  0  0  0
   10.1220   25.0320   14.5310 S   0  0  0  0  0  0  0  0  0  0  0  0
    9.5190   24.4830   12.9810 C   0  0  0  0  0  0  0  0  0  0  0  0
   10.7520   23.9220   15.2030 O   0  0  0  0  0  0  0  0  0  0  0  0
   10.7870   26.2510   14.2380 O   0  0  0  0  0  0  0  0  0  0  0  0
  2  1  1  1
  2  3  1  0
  2  4  1  0
  4  5  1  0
  6  3  1  1
  4  7  1  6
  5  8  1  0
  6  8  1  0
  7  9  2  0
  7 10  1  0
  6 11  1  0
  6 12  1  0
 12 13  1  6
  9 14  1  0
 10 15  2  0
 11 16  1  0
 12 17  1  0
 16 17  1  0
 15 18  1  0
 13 19  1  0
 14 20  2  0
 15 20  1  0
 18 21  1  0
 22 19  1  0
 22 23  1  0
 22 24  2  0
 22 25  2  0
M  END
