x0822_0_A-x0792_0_A
     RDKit          3D

 24 26  0  0  0  0  0  0  0  0999 V2000
    2.6270   25.7580   18.5180 N   0  0  0  0  0  0  0  0  0  0  0  0
    3.6290   26.6560   17.9260 C   0  0  1  0  0  0  0  0  0  0  0  0
    5.0620   26.3010   18.3190 C   0  0  0  0  0  0  0  0  0  0  0  0
    3.5140   26.6190   16.3900 C   0  0  2  0  0  0  0  0  0  0  0  0
    4.7380   27.2880   15.7670 C   0  0  0  0  0  0  0  0  0  0  0  0
    5.6350   25.5620   17.2480 O   0  0  0  0  0  0  0  0  0  0  0  0
    2.1790   27.1510   15.9680 C   0  0  0  0  0  0  0  0  0  0  0  0
    5.9100   26.3730   16.1050 C   0  0  2  0  0  0  0  0  0  0  0  0
    1.8430   28.4940   16.1990 C   0  0  0  0  0  0  0  0  0  0  0  0
    1.2600   26.3000   15.3540 C   0  0  0  0  0  0  0  0  0  0  0  0
    7.2600   27.0150   16.4090 C   0  0  0  0  0  0  0  0  0  0  0  0
    0.5970   28.9730   15.8170 C   0  0  0  0  0  0  0  0  0  0  0  0
    0.0150   26.7710   14.9760 C   0  0  0  0  0  0  0  0  0  0  0  0
   -0.9500   26.0190   14.3810 O   0  0  0  0  0  0  0  0  0  0  0  0
   -0.3130   28.1120   15.2080 C   0  0  0  0  0  0  0  0  0  0  0  0
    8.2890   25.9000   16.4400 C   0  0  2  0  0  0  0  0  0  0  0  0
   -2.1890   26.6580   14.1280 C   0  0  0  0  0  0  0  0  0  0  0  0
    7.5270   24.6060   16.5850 C   0  0  0  0  0  0  0  0  0  0  0  0
    9.2830   25.9230   17.5950 C   0  0  0  0  0  0  0  0  0  0  0  0
    7.0860   24.4690   17.9320 N   0  0  0  0  0  0  0  0  0  0  0  0
    9.4900   24.5270   18.2370 C   0  0  2  0  0  0  0  0  0  0  0  0
   10.2680   23.5070   17.3930 C   0  0  0  0  0  0  0  0  0  0  0  0
    8.1830   23.9910   18.7420 C   0  0  0  0  0  0  0  0  0  0  0  0
   10.0390   22.1310   17.7130 O   0  0  0  0  0  0  0  0  0  0  0  0
  2  1  1  1
  2  3  1  0
  2  4  1  0
  4  5  1  0
  3  6  1  0
  4  7  1  1
  5  8  1  0
  6  8  1  0
  7  9  2  0
  7 10  1  0
  8 11  1  1
  9 12  1  0
 10 13  2  0
 13 14  1  0
 12 15  2  0
 13 15  1  0
 16 11  1  1
 14 17  1  0
 16 18  1  0
 16 19  1  0
 18 20  1  0
 19 21  1  0
 21 22  1  6
 20 23  1  0
 21 23  1  0
 22 24  1  0
M  END
