x0822_0_A_α-x0334_0_A_α
     RDKit          3D

 21 24  0  0  0  0  0  0  0  0999 V2000
    2.9860   25.4610   17.0810 N   0  0  0  0  0  0  0  0  0  0  0  0
    4.1300   24.6380   17.2740 C   0  0  0  0  0  0  0  0  0  0  0  0
    5.3500   24.9270   16.3630 C   0  0  0  0  0  0  0  0  0  0  0  0
    2.4260   25.5730   15.6810 C   0  0  0  0  0  0  0  0  0  0  0  0
    3.4850   26.7810   17.4850 C   0  0  2  0  0  0  0  0  0  0  0  0
    4.4610   24.8660   18.7580 C   0  0  0  0  0  0  0  0  0  0  0  0
    3.5980   27.4890   16.1650 C   0  0  2  0  0  0  0  0  0  0  0  0
    4.8580   26.9090   18.2040 C   0  0  0  0  0  0  0  0  0  0  0  0
    1.5330   26.7580   15.6590 C   0  0  0  0  0  0  0  0  0  0  0  0
    4.9010   28.2700   16.0020 C   0  0  0  0  0  0  0  0  0  0  0  0
    5.9970   26.5720   17.4120 O   0  0  0  0  0  0  0  0  0  0  0  0
    0.1850   26.7650   15.4090 C   0  0  0  0  0  0  0  0  0  0  0  0
    2.1790   27.9120   15.9420 C   0  0  0  0  0  0  0  0  0  0  0  0
   -0.5930   25.6780   15.0990 O   0  0  0  0  0  0  0  0  0  0  0  0
    6.1330   27.3860   16.2490 C   0  0  0  0  0  0  0  0  0  0  0  0
    1.4990   29.1390   15.9900 C   0  0  0  0  0  0  0  0  0  0  0  0
   -0.5480   27.9340   15.4570 C   0  0  0  0  0  0  0  0  0  0  0  0
   -1.7640   26.3390   14.5590 C   0  0  0  0  0  0  0  0  0  0  0  0
   -1.9060   27.6460   15.2000 N   0  0  0  0  0  0  0  0  0  0  0  0
    0.1020   29.1470   15.7430 C   0  0  0  0  0  0  0  0  0  0  0  0
   -2.7880   27.6580   16.3550 C   0  0  0  0  0  0  0  0  0  0  0  0
  1  2  1  0
  2  3  1  0
  1  4  1  0
  1  5  1  0
  2  6  1  0
  5  7  1  0
  5  8  1  6
  4  9  1  0
  7 10  1  1
  8 11  1  0
  9 12  1  0
  7 13  1  0
  9 13  2  0
 12 14  1  0
 10 15  1  0
 11 15  1  0
 13 16  1  0
 12 17  2  0
 14 18  1  0
 17 19  1  0
 18 19  1  0
 16 20  2  0
 17 20  1  0
 19 21  1  0
M  END
