x0822_0_A_α-x0091_0_B_α
     RDKit          3D

 35 38  0  0  0  0  0  0  0  0999 V2000
    3.3460   24.7300   17.9280 N   0  0  0  0  0  0  0  0  0  0  0  0
    3.9150   26.0650   17.6880 C   0  0  1  0  0  0  0  0  0  0  0  0
    5.3940   26.2300   18.1790 C   0  0  0  0  0  0  0  0  0  0  0  0
    3.7460   26.4240   16.1980 C   0  0  2  0  0  0  0  0  0  0  0  0
    5.0450   27.0070   15.6800 C   0  0  0  0  0  0  0  0  0  0  0  0
    6.3960   25.6210   17.2800 N   0  0  0  0  0  0  0  0  0  0  0  0
    2.4080   27.1070   15.9400 C   0  0  0  0  0  0  0  0  0  0  0  0
    7.8200   25.7660   17.7390 C   0  0  0  0  0  0  0  0  0  0  0  0
    6.2290   26.0570   15.9040 C   0  0  0  0  0  0  0  0  0  0  0  0
    2.0710   28.4190   16.2990 C   0  0  0  0  0  0  0  0  0  0  0  0
    1.4470   26.3220   15.2870 C   0  0  0  0  0  0  0  0  0  0  0  0
    8.7840   24.8730   16.9190 C   0  0  0  0  0  0  0  0  0  0  0  0
    0.7980   28.9250   16.0080 C   0  0  0  0  0  0  0  0  0  0  0  0
    0.1810   26.8100   14.9980 C   0  0  0  0  0  0  0  0  0  0  0  0
   -0.7930   26.0860   14.3720 O   0  0  0  0  0  0  0  0  0  0  0  0
    9.9810   24.0220   17.4540 C   0  0  0  0  0  0  0  0  0  0  0  0
   -0.1420   28.1210   15.3610 C   0  0  0  0  0  0  0  0  0  0  0  0
   -2.0770   26.6690   14.2100 C   0  0  0  0  0  0  0  0  0  0  0  0
   11.1900   23.7600   16.4820 C   0  0  0  0  0  0  0  0  0  0  0  0
   11.6940   22.2920   16.2420 C   0  0  0  0  0  0  0  0  0  0  0  0
   12.8410   22.1570   15.1890 C   0  0  0  0  0  0  0  0  0  0  0  0
   12.7130   21.3010   13.9650 N   0  0  0  0  0  0  0  0  0  0  0  0
   12.1210   19.9490   14.0730 C   0  0  0  0  0  0  0  0  0  0  0  0
   13.6020   21.6270   12.9240 C   0  0  0  0  0  0  0  0  0  0  0  0
   13.9160   20.8510   12.0130 O   0  0  0  0  0  0  0  0  0  0  0  0
   14.1100   22.9060   13.0000 N   0  0  0  0  0  0  0  0  0  0  0  0
   13.1080   18.9100   14.5340 C   0  0  0  0  0  0  0  0  0  0  0  0
   12.6700   17.7800   15.1190 N   0  0  0  0  0  0  0  0  0  0  0  0
   14.5240   18.9090   14.4570 C   0  0  0  0  0  0  0  0  0  0  0  0
   15.1580   23.3840   12.1430 C   0  0  0  0  0  0  0  0  0  0  0  0
   13.7960   17.0400   15.4290 O   0  0  0  0  0  0  0  0  0  0  0  0
   14.9040   17.7170   15.0340 C   0  0  0  0  0  0  0  0  0  0  0  0
   16.5990   23.1120   12.4810 C   0  0  0  0  0  0  0  0  0  0  0  0
   16.0530   24.4980   12.6340 C   0  0  0  0  0  0  0  0  0  0  0  0
   16.1930   17.0540   15.2980 C   0  0  0  0  0  0  0  0  0  0  0  0
  2  1  1  6
  2  3  1  0
  2  4  1  0
  4  5  1  0
  3  6  1  0
  4  7  1  1
  6  8  1  0
  5  9  1  0
  6  9  1  0
  7 10  2  0
  7 11  1  0
  8 12  1  0
 10 13  1  0
 11 14  2  0
 14 15  1  0
 12 16  1  0
 13 17  2  0
 14 17  1  0
 15 18  1  0
 16 19  1  0
 19 20  1  0
 20 21  1  0
 21 22  1  0
 22 23  1  0
 22 24  1  0
 24 25  2  0
 24 26  1  0
 23 27  1  0
 27 28  2  0
 27 29  1  0
 26 30  1  0
 28 31  1  0
 29 32  2  0
 31 32  1  0
 30 33  1  0
 30 34  1  0
 33 34  1  0
 32 35  1  0
M  END
