x0822_0_A-x0933_1_A
     RDKit          3D

 21 23  0  0  0  0  0  0  0  0999 V2000
    3.0550   26.2020   18.3450 N   0  0  0  0  0  0  0  0  0  0  0  0
    3.8960   27.2870   17.7930 C   0  0  1  0  0  0  0  0  0  0  0  0
    5.3670   26.8940   17.8740 C   0  0  0  0  0  0  0  0  0  0  0  0
    3.5450   27.7680   16.3470 C   0  0  1  0  0  0  0  0  0  0  0  0
    4.4130   27.2370   15.1830 C   0  0  0  0  0  0  0  0  0  0  0  0
    5.6150   25.8190   16.8230 C   0  0  2  0  0  0  0  0  0  0  0  0
    2.0840   27.7940   15.9680 C   0  0  0  0  0  0  0  0  0  0  0  0
    5.6440   26.4290   15.4750 C   0  0  0  0  0  0  0  0  0  0  0  0
    1.3700   28.9760   16.1750 C   0  0  0  0  0  0  0  0  0  0  0  0
    1.4230   26.6850   15.4120 C   0  0  0  0  0  0  0  0  0  0  0  0
    4.4380   24.9860   16.8370 N   0  0  0  0  0  0  0  0  0  0  0  0
    6.8950   25.0530   17.1000 C   0  0  0  0  0  0  0  0  0  0  0  0
    0.0280   29.0620   15.8360 C   0  0  0  0  0  0  0  0  0  0  0  0
    0.0750   26.7610   15.0710 C   0  0  0  0  0  0  0  0  0  0  0  0
    4.4980   24.0510   17.8350 C   0  0  2  0  0  0  0  0  0  0  0  0
    6.7820   24.7550   18.5620 C   0  0  0  0  0  0  0  0  0  0  0  0
   -0.6630   25.7450   14.5290 O   0  0  0  0  0  0  0  0  0  0  0  0
    3.2380   23.8580   18.4430 N   0  0  0  0  0  0  0  0  0  0  0  0
   -0.6170   27.9570   15.2850 C   0  0  0  0  0  0  0  0  0  0  0  0
    5.3560   24.5170   18.9270 N   0  0  0  0  0  0  0  0  0  0  0  0
   -2.0270   26.0320   14.2220 C   0  0  0  0  0  0  0  0  0  0  0  0
  2  1  1  6
  2  3  1  0
  2  4  1  0
  4  5  1  0
  6  3  1  1
  4  7  1  6
  5  8  1  0
  6  8  1  0
  7  9  2  0
  7 10  1  0
  6 11  1  0
  6 12  1  0
  9 13  1  0
 10 14  2  0
 11 15  1  0
 12 16  1  0
 14 17  1  0
 15 18  1  1
 13 19  2  0
 14 19  1  0
 15 20  1  0
 16 20  1  0
 17 21  1  0
M  END
