x0822_0_A-x0933_1_A
     RDKit          3D

 21 23  0  0  0  0  0  0  0  0999 V2000
    3.0840   26.3000   18.5640 N   0  0  0  0  0  0  0  0  0  0  0  0
    3.7130   27.5460   18.0570 C   0  0  1  0  0  0  0  0  0  0  0  0
    5.1970   27.6170   18.4760 C   0  0  0  0  0  0  0  0  0  0  0  0
    3.5300   27.8190   16.5260 C   0  0  1  0  0  0  0  0  0  0  0  0
    4.5500   27.1450   15.5800 C   0  0  0  0  0  0  0  0  0  0  0  0
    5.9310   26.5600   17.6780 C   0  0  2  0  0  0  0  0  0  0  0  0
    2.1020   27.8020   16.0290 C   0  0  0  0  0  0  0  0  0  0  0  0
    5.9350   26.9040   16.1690 C   0  0  0  0  0  0  0  0  0  0  0  0
    1.3780   28.9950   16.1420 C   0  0  0  0  0  0  0  0  0  0  0  0
    1.4730   26.6760   15.4700 C   0  0  0  0  0  0  0  0  0  0  0  0
    5.1150   25.4210   17.8290 N   0  0  0  0  0  0  0  0  0  0  0  0
    7.3130   26.1200   18.1070 C   0  0  0  0  0  0  0  0  0  0  0  0
    0.0630   29.0700   15.7100 C   0  0  0  0  0  0  0  0  0  0  0  0
    0.1480   26.7460   15.0370 C   0  0  0  0  0  0  0  0  0  0  0  0
    5.1160   24.7670   16.6640 C   0  0  2  0  0  0  0  0  0  0  0  0
    7.5790   24.8320   17.3570 C   0  0  0  0  0  0  0  0  0  0  0  0
   -0.5730   25.7230   14.4830 O   0  0  0  0  0  0  0  0  0  0  0  0
    4.2530   23.7200   16.9950 N   0  0  0  0  0  0  0  0  0  0  0  0
   -0.5480   27.9520   15.1610 C   0  0  0  0  0  0  0  0  0  0  0  0
    6.4890   24.3870   16.4260 N   0  0  0  0  0  0  0  0  0  0  0  0
   -1.9540   25.9800   14.2240 C   0  0  0  0  0  0  0  0  0  0  0  0
  2  1  1  6
  2  3  1  0
  2  4  1  0
  4  5  1  0
  6  3  1  1
  4  7  1  6
  5  8  1  0
  6  8  1  0
  7  9  2  0
  7 10  1  0
  6 11  1  0
  6 12  1  0
  9 13  1  0
 10 14  2  0
 11 15  1  0
 12 16  1  0
 14 17  1  0
 15 18  1  1
 13 19  2  0
 14 19  1  0
 15 20  1  0
 16 20  1  0
 17 21  1  0
M  END
