x0837_0_A-x0724_0_A
     RDKit          3D

 15 16  0  0  0  0  0  0  0  0999 V2000
   -7.5970   15.7440   -0.5360 O   0  0  0  0  0  0  0  0  0  0  0  0
   -6.7550   14.6680   -0.1630 C   0  0  2  0  0  0  0  0  0  0  0  0
   -5.6610   14.5150   -1.2400 C   0  0  0  0  0  0  0  0  0  0  0  0
   -7.6680   13.5330   -0.0530 N   0  0  0  0  0  0  0  0  0  0  0  0
   -6.2830   14.8090    1.2840 C   0  0  2  0  0  0  0  0  0  0  0  0
   -5.2480   13.8980    1.6010 N   0  0  0  0  0  0  0  0  0  0  0  0
   -4.3100   15.2110   -0.9970 C   0  0  2  0  0  0  0  0  0  0  0  0
   -7.6580   14.8010    1.9860 C   0  0  1  0  0  0  0  0  0  0  0  0
   -8.2140   13.5470    1.3320 C   0  0  0  0  0  0  0  0  0  0  0  0
   -3.0370   14.6670   -2.7660 I   0  0  0  0  0  0  0  0  0  0  0  0
   -7.6970   14.8850    3.5260 C   0  0  0  0  0  0  0  0  0  0  0  0
   -3.9590   14.2350    1.3160 C   0  0  0  0  0  0  0  0  0  0  0  0
   -3.4950   14.8070    0.2090 C   0  0  0  0  0  0  0  0  0  0  0  0
   -8.3340   13.7720    4.2380 N   0  0  0  0  0  0  0  0  0  0  0  0
   -8.5310   14.0450    5.6570 C   0  0  0  0  0  0  0  0  0  0  0  0
  2  1  1  6
  2  3  1  0
  2  4  1  0
  2  5  1  0
  5  6  1  1
  3  7  1  0
  5  8  1  0
  4  9  1  0
  8  9  1  0
  7 10  1  6
  8 11  1  1
  6 12  1  0
  7 13  1  0
 12 13  2  0
 11 14  1  0
 14 15  1  0
M  END
