x0837_0_A-x0592_0_A
     RDKit          3D

 11 11  0  0  0  0  0  0  0  0999 V2000
   -7.6040   14.3790    0.6900 N   0  0  0  0  0  0  0  0  0  0  0  0
   -8.0060   14.1650    2.0750 C   0  0  0  0  0  0  0  0  0  0  0  0
   -7.2990   15.0070    2.9690 O   0  0  0  0  0  0  0  0  0  0  0  0
   -6.3720   14.6870    0.4860 C   0  0  0  0  0  0  0  0  0  0  0  0
   -5.5970   14.7850    1.6120 N   0  0  0  0  0  0  0  0  0  0  0  0
   -5.7110   14.9420   -0.8560 C   0  0  0  0  0  0  0  0  0  0  0  0
   -4.2580   15.3070    1.6750 C   0  0  0  0  0  0  0  0  0  0  0  0
   -4.2430   14.5450   -0.7720 C   0  0  1  0  0  0  0  0  0  0  0  0
   -3.2310   14.7380   -2.7110 I   0  0  0  0  0  0  0  0  0  0  0  0
   -3.5190   15.3290    0.3340 C   0  0  2  0  0  0  0  0  0  0  0  0
   -2.1530   14.8150    0.5040 N   0  0  0  0  0  0  0  0  0  0  0  0
  1  2  1  0
  2  3  1  0
  1  4  2  3
  4  5  1  0
  4  6  1  0
  5  7  1  0
  6  8  1  0
  8  9  1  6
  7 10  1  0
  8 10  1  0
 10 11  1  1
M  END
