x0837_0_A-x0766_0_A
     RDKit          3D

 20 22  0  0  0  0  0  0  0  0999 V2000
   -7.4740   14.4080   -0.4590 O   0  0  0  0  0  0  0  0  0  0  0  0
   -6.2550   14.4530   -0.3030 C   0  0  0  0  0  0  0  0  0  0  0  0
   -5.7290   14.5130    0.9460 N   0  0  0  0  0  0  0  0  0  0  0  0
   -5.2380   14.4680   -1.4430 C   0  0  0  0  0  0  0  0  0  0  0  0
   -4.8190   15.4430    1.2330 C   0  0  0  0  0  0  0  0  0  0  0  0
   -4.0100   15.3740   -1.1760 C   0  0  1  0  0  0  0  0  0  0  0  0
   -4.0160   15.8830    0.2740 C   0  0  0  0  0  0  0  0  0  0  0  0
   -2.5930   14.8170   -1.1840 C   0  0  0  0  0  0  0  0  0  0  0  0
   -1.3950   14.4750   -1.9320 C   0  0  0  0  0  0  0  0  0  0  0  0
   -2.4070   14.4970    0.4910 S   0  0  0  0  0  0  0  0  0  0  0  0
   -0.8010   14.4680   -3.3700 C   0  0  2  0  0  0  0  0  0  0  0  0
   -0.4390   13.9850   -0.9650 C   0  0  0  0  0  0  0  0  0  0  0  0
   -0.8540   13.9540    0.3270 C   0  0  0  0  0  0  0  0  0  0  0  0
    0.4610   13.5460   -3.3840 C   0  0  1  0  0  0  0  0  0  0  0  0
   -0.0830   15.7170   -3.9360 C   0  0  0  0  0  0  0  0  0  0  0  0
    0.2630   12.1060   -2.9810 C   0  0  0  0  0  0  0  0  0  0  0  0
    1.0460   13.7300   -4.7660 C   0  0  0  0  0  0  0  0  0  0  0  0
    1.1300   15.2400   -4.7720 C   0  0  0  0  0  0  0  0  0  0  0  0
    0.6500   11.6280   -1.9400 O   0  0  0  0  0  0  0  0  0  0  0  0
   -0.3890   11.3580   -3.8880 O   0  0  0  0  0  0  0  0  0  0  0  0
  1  2  2  0
  2  3  1  0
  2  4  1  0
  3  5  1  0
  4  6  1  0
  5  7  2  0
  6  7  1  0
  6  8  1  1
  8  9  2  0
  8 10  1  0
 11  9  1  1
  9 12  1  0
 10 13  1  0
 12 13  2  0
 11 14  1  0
 11 15  1  0
 14 16  1  6
 14 17  1  0
 15 18  1  0
 17 18  1  0
 16 19  2  0
 16 20  1  0
M  END
