x0837_0_A_α-x0104_0_A_α
     RDKit          3D

 17 18  0  0  0  0  0  0  0  0999 V2000
   -7.7250   14.6440    0.0640 O   0  0  0  0  0  0  0  0  0  0  0  0
   -6.5060   14.7590    0.1540 C   0  0  0  0  0  0  0  0  0  0  0  0
   -5.8470   14.9870    1.3520 N   0  0  0  0  0  0  0  0  0  0  0  0
   -5.6510   14.6630   -1.0580 C   0  0  0  0  0  0  0  0  0  0  0  0
   -6.4470   14.5910    2.6340 C   0  0  0  0  0  0  0  0  0  0  0  0
   -4.4840   15.2580    1.3850 C   0  0  0  0  0  0  0  0  0  0  0  0
   -4.3290   14.8770   -0.9790 C   0  0  0  0  0  0  0  0  0  0  0  0
   -3.1540   14.7210   -2.6720 I   0  0  0  0  0  0  0  0  0  0  0  0
   -7.8650   15.0390    3.0420 C   0  0  0  0  0  0  0  0  0  0  0  0
   -3.7310   15.2110    0.2900 C   0  0  0  0  0  0  0  0  0  0  0  0
   -7.9260   15.0710    4.4350 N   0  0  0  0  0  0  0  0  0  0  0  0
   -8.7560   15.3120    2.2350 O   0  0  0  0  0  0  0  0  0  0  0  0
   -9.0620   15.0920    5.2280 C   0  0  0  0  0  0  0  0  0  0  0  0
   -9.2240   15.2030    6.5920 C   0  0  0  0  0  0  0  0  0  0  0  0
  -10.5520   14.9570    4.4130 S   0  0  0  0  0  0  0  0  0  0  0  0
  -10.6020   15.1760    6.9750 C   0  0  0  0  0  0  0  0  0  0  0  0
  -11.4320   15.0450    5.8840 C   0  0  0  0  0  0  0  0  0  0  0  0
  1  2  2  0
  2  3  1  0
  2  4  1  0
  3  5  1  0
  3  6  1  0
  4  7  2  0
  7  8  1  0
  5  9  1  0
  6 10  2  0
  7 10  1  0
  9 11  1  0
  9 12  2  0
 11 13  1  0
 13 14  2  0
 13 15  1  0
 14 16  1  0
 15 17  1  0
 16 17  2  0
M  END
