x0837_0_A-x0967_0_A
     RDKit          3D

 12 13  0  0  0  0  0  0  0  0999 V2000
   -8.2160   15.4430    2.0860 O   0  0  0  0  0  0  0  0  0  0  0  0
   -7.0560   14.7250    2.4580 C   0  0  0  0  0  0  0  0  0  0  0  0
   -6.6710   14.1420    1.2480 N   0  0  0  0  0  0  0  0  0  0  0  0
   -5.4400   14.4280    0.7160 C   0  0  0  0  0  0  0  0  0  0  0  0
   -7.7200   14.0930    0.3650 C   0  0  0  0  0  0  0  0  0  0  0  0
   -4.2060   14.6530    1.1640 C   0  0  0  0  0  0  0  0  0  0  0  0
   -5.3610   14.5580   -0.7710 C   0  0  0  0  0  0  0  0  0  0  0  0
   -7.5890   14.2610   -0.9430 C   0  0  0  0  0  0  0  0  0  0  0  0
   -3.3080   14.8660    0.0720 C   0  0  0  0  0  0  0  0  0  0  0  0
   -3.9400   14.7850   -1.1060 C   0  0  0  0  0  0  0  0  0  0  0  0
   -6.3830   14.4880   -1.5660 N   0  0  0  0  0  0  0  0  0  0  0  0
   -3.2030   14.9160   -2.9420 I   0  0  0  0  0  0  0  0  0  0  0  0
  1  2  1  0
  2  3  1  0
  3  4  1  0
  3  5  1  0
  4  6  2  0
  4  7  1  0
  5  8  2  0
  6  9  1  0
  7 10  1  0
  9 10  2  0
  7 11  2  0
  8 11  1  0
 10 12  1  0
M  END
