x0837_0_A-x0587_0_A
     RDKit          3D

 14 14  0  0  0  0  0  0  0  0999 V2000
   -7.8690   14.6330    0.0490 O   0  0  0  0  0  0  0  0  0  0  0  0
   -6.6590   14.7120    0.3760 C   0  0  0  0  0  0  0  0  0  0  0  0
   -6.3870   14.8720    1.6770 N   0  0  0  0  0  0  0  0  0  0  0  0
   -5.6840   14.6430   -0.5730 C   0  0  0  0  0  0  0  0  0  0  0  0
   -7.5130   14.9710    2.5950 C   0  0  0  0  0  0  0  0  0  0  0  0
   -5.0980   15.2580    1.9630 C   0  0  0  0  0  0  0  0  0  0  0  0
   -4.3740   14.9300   -0.2660 C   0  0  0  0  0  0  0  0  0  0  0  0
   -3.0220   14.7510   -1.8150 I   0  0  0  0  0  0  0  0  0  0  0  0
   -7.3660   14.9790    3.9910 N   0  0  0  0  0  0  0  0  0  0  0  0
   -8.6860   15.0690    2.1250 O   0  0  0  0  0  0  0  0  0  0  0  0
   -4.0840   15.2910    1.0160 C   0  0  0  0  0  0  0  0  0  0  0  0
   -4.5450   13.9390   -3.0090 C   0  0  0  0  0  0  0  0  0  0  0  0
   -3.9680   13.4690   -4.1520 F   0  0  0  0  0  0  0  0  0  0  0  0
   -5.3920   14.9650   -3.3420 F   0  0  0  0  0  0  0  0  0  0  0  0
  1  2  2  0
  2  3  1  0
  2  4  1  0
  3  5  1  0
  3  6  1  0
  4  7  2  0
  7  8  1  0
  5  9  1  0
  5 10  2  0
  6 11  2  0
  7 11  1  0
  8 12  1  0
 12 13  1  0
 12 14  1  0
M  END
