x0837_0_A-x0592_0_A
     RDKit          3D

 11 11  0  0  0  0  0  0  0  0999 V2000
   -7.6060   14.3860    0.6870 N   0  0  0  0  0  0  0  0  0  0  0  0
   -8.0020   14.1680    2.0730 C   0  0  0  0  0  0  0  0  0  0  0  0
   -7.2890   15.0060    2.9680 O   0  0  0  0  0  0  0  0  0  0  0  0
   -6.3710   14.6890    0.4830 C   0  0  0  0  0  0  0  0  0  0  0  0
   -5.5970   14.7860    1.6110 N   0  0  0  0  0  0  0  0  0  0  0  0
   -5.7100   14.9450   -0.8590 C   0  0  0  0  0  0  0  0  0  0  0  0
   -4.2580   15.3100    1.6780 C   0  0  0  0  0  0  0  0  0  0  0  0
   -4.2490   14.5430   -0.7670 C   0  0  1  0  0  0  0  0  0  0  0  0
   -3.2370   14.7260   -2.7110 I   0  0  0  0  0  0  0  0  0  0  0  0
   -3.5250   15.3300    0.3360 C   0  0  2  0  0  0  0  0  0  0  0  0
   -2.1500   14.8220    0.4970 N   0  0  0  0  0  0  0  0  0  0  0  0
  1  2  1  0
  2  3  1  0
  1  4  2  3
  4  5  1  0
  4  6  1  0
  5  7  1  0
  6  8  1  0
  8  9  1  6
  7 10  1  0
  8 10  1  0
 10 11  1  1
M  END
