x0837_0_A_α-x0962_0_A_α
     RDKit          3D

  9  9  0  0  0  0  0  0  0  0999 V2000
   -7.7430   14.7520    0.2340 O   0  0  0  0  0  0  0  0  0  0  0  0
   -6.4910   14.8090    0.2610 C   0  0  0  0  0  0  0  0  0  0  0  0
   -5.8160   14.8890    1.5160 N   0  0  0  0  0  0  0  0  0  0  0  0
   -5.7380   14.7970   -1.0060 C   0  0  0  0  0  0  0  0  0  0  0  0
   -4.4420   15.2690    1.4560 C   0  0  0  0  0  0  0  0  0  0  0  0
   -4.4090   14.3170   -0.6590 C   0  0  1  0  0  0  0  0  0  0  0  0
   -3.1540   14.7230   -2.5300 I   0  0  0  0  0  0  0  0  0  0  0  0
   -3.7260   14.9950    0.3960 C   0  0  0  0  0  0  0  0  0  0  0  0
   -1.5720   14.8500   -2.7940 C   0  0  0  0  0  0  0  0  0  0  0  0
  1  2  2  0
  2  3  1  0
  2  4  1  0
  3  5  1  0
  4  6  1  0
  6  7  1  6
  5  8  2  0
  6  8  1  0
  7  9  3  0
M  END
