x0837_0_A-x0727_0_A
     RDKit          3D

 24 25  0  0  0  0  0  0  0  0999 V2000
   -7.5160   14.5840   -0.0410 O   0  0  0  0  0  0  0  0  0  0  0  0
   -6.3140   14.8610    0.0610 C   0  0  0  0  0  0  0  0  0  0  0  0
   -5.6180   14.8390    1.3270 N   0  0  0  0  0  0  0  0  0  0  0  0
   -5.4350   15.2690   -1.1170 C   0  0  0  0  0  0  0  0  0  0  0  0
   -4.2570   15.1760    1.3390 C   0  0  0  0  0  0  0  0  0  0  0  0
   -4.1140   14.5810   -0.9440 C   0  0  1  0  0  0  0  0  0  0  0  0
   -2.8830   14.8140   -2.6690 I   0  0  0  0  0  0  0  0  0  0  0  0
   -3.4940   15.0710    0.2930 C   0  0  0  0  0  0  0  0  0  0  0  0
   -0.8570   14.3640   -2.1010 C   0  0  0  0  0  0  0  0  0  0  0  0
    0.1950   15.1760   -2.9050 C   0  0  0  0  0  0  0  0  0  0  0  0
    0.1390   14.8450   -4.2970 C   0  0  0  0  0  0  0  0  0  0  0  0
    1.1010   13.9830   -4.9270 C   0  0  0  0  0  0  0  0  0  0  0  0
    1.1100   12.5170   -4.7240 C   0  0  2  0  0  0  0  0  0  0  0  0
    0.2660   11.8820   -5.6480 N   0  0  0  0  0  0  0  0  0  0  0  0
    0.9540   12.0370   -3.3560 C   0  0  0  0  0  0  0  0  0  0  0  0
    0.3440   10.9230   -3.1350 O   0  0  0  0  0  0  0  0  0  0  0  0
    0.4640   11.0670   -6.7250 C   0  0  0  0  0  0  0  0  0  0  0  0
    1.4380   12.7100   -2.2580 O   0  0  0  0  0  0  0  0  0  0  0  0
    1.4620   11.1810   -7.4560 O   0  0  0  0  0  0  0  0  0  0  0  0
   -0.5390   10.0010   -6.9980 C   0  0  0  0  0  0  0  0  0  0  0  0
   -1.0360   10.0300   -8.4050 C   0  0  0  0  0  0  0  0  0  0  0  0
   -0.1760    8.6180   -6.8180 C   0  0  0  0  0  0  0  0  0  0  0  0
   -2.0320    8.8530   -8.3410 C   0  0  0  0  0  0  0  0  0  0  0  0
   -1.4710    7.9030   -7.2760 C   0  0  0  0  0  0  0  0  0  0  0  0
  1  2  2  0
  2  3  1  0
  2  4  1  0
  3  5  1  0
  4  6  1  0
  6  7  1  6
  5  8  2  0
  6  8  1  0
  7  9  1  0
  9 10  1  0
 10 11  1  0
 11 12  1  0
 13 12  1  1
 13 14  1  0
 13 15  1  0
 15 16  2  0
 14 17  1  0
 15 18  1  0
 17 19  2  0
 17 20  1  0
 20 21  1  0
 20 22  1  0
 21 23  1  0
 22 24  1  0
 23 24  1  0
M  END
