x0837_0_A_α-x0631_0_A_β
     RDKit          3D

 21 22  0  0  0  0  0  0  0  0999 V2000
   -7.5670   14.8220    0.1450 O   0  0  0  0  0  0  0  0  0  0  0  0
   -6.3130   14.7630    0.1480 C   0  0  0  0  0  0  0  0  0  0  0  0
   -5.6180   14.7720    1.3820 N   0  0  0  0  0  0  0  0  0  0  0  0
   -5.5760   14.6780   -1.1410 C   0  0  0  0  0  0  0  0  0  0  0  0
   -4.2030   14.9450    1.4100 C   0  0  0  0  0  0  0  0  0  0  0  0
   -4.2020   15.3200   -1.0290 C   0  0  2  0  0  0  0  0  0  0  0  0
   -2.9570   14.4590   -2.5110 I   0  0  0  0  0  0  0  0  0  0  0  0
   -3.5840   15.1920    0.2920 C   0  0  0  0  0  0  0  0  0  0  0  0
   -2.2880   12.5330   -1.8780 C   0  0  0  0  0  0  0  0  0  0  0  0
   -1.5460   11.7870   -3.0200 C   0  0  0  0  0  0  0  0  0  0  0  0
   -2.3980   10.6270   -3.3720 C   0  0  0  0  0  0  0  0  0  0  0  0
   -2.1100    9.8260   -4.5730 C   0  0  0  0  0  0  0  0  0  0  0  0
   -2.2180   10.3800   -5.9300 C   0  0  0  0  0  0  0  0  0  0  0  0
   -2.4270    9.4890   -7.1220 C   0  0  0  0  0  0  0  0  0  0  0  0
   -1.6030    8.2530   -7.1540 C   0  0  0  0  0  0  0  0  0  0  0  0
   -0.1980    8.5090   -6.7440 C   0  0  0  0  0  0  0  0  0  0  0  0
    0.5720    9.3970   -7.5530 N   0  0  0  0  0  0  0  0  0  0  0  0
    0.6920    9.1520   -8.9060 N   0  0  0  0  0  0  0  0  0  0  0  0
    0.2900   10.7210   -7.3520 N   0  0  0  0  0  0  0  0  0  0  0  0
    0.9070   10.4940   -9.4790 C   0  0  0  0  0  0  0  0  0  0  0  0
    1.1250   11.2850   -8.2770 N   0  0  0  0  0  0  0  0  0  0  0  0
  1  2  2  0
  2  3  1  0
  2  4  1  0
  3  5  1  0
  4  6  1  0
  6  7  1  6
  5  8  2  0
  6  8  1  0
  7  9  1  0
  9 10  1  0
 10 11  1  0
 11 12  1  0
 12 13  1  0
 13 14  1  0
 14 15  1  0
 15 16  1  0
 16 17  1  0
 17 18  1  0
 17 19  1  0
 18 20  1  0
 19 21  1  0
 20 21  1  0
M  END
