x0837_0_A_α-x0685_1_A_α
     RDKit          3D

 23 24  0  0  0  0  0  0  0  0999 V2000
   -7.5560   14.8860    0.1420 O   0  0  0  0  0  0  0  0  0  0  0  0
   -6.3300   14.7350    0.1830 C   0  0  0  0  0  0  0  0  0  0  0  0
   -5.6140   14.8940    1.4300 N   0  0  0  0  0  0  0  0  0  0  0  0
   -5.5130   14.3660   -1.0080 C   0  0  0  0  0  0  0  0  0  0  0  0
   -4.1890   15.0730    1.2990 C   0  0  0  0  0  0  0  0  0  0  0  0
   -4.3140   15.2690   -1.0880 C   0  0  2  0  0  0  0  0  0  0  0  0
   -3.1040   14.7960   -2.7750 I   0  0  0  0  0  0  0  0  0  0  0  0
   -3.5730   15.2390    0.1720 C   0  0  0  0  0  0  0  0  0  0  0  0
   -3.3940   12.8470   -3.5250 C   0  0  0  0  0  0  0  0  0  0  0  0
   -2.5240   12.5610   -4.7550 C   0  0  0  0  0  0  0  0  0  0  0  0
   -1.3200   11.7470   -4.3330 C   0  0  1  0  0  0  0  0  0  0  0  0
   -1.2300   10.5870   -4.9740 N   0  0  0  0  0  0  0  0  0  0  0  0
   -0.1910   12.6670   -4.0220 C   0  0  0  0  0  0  0  0  0  0  0  0
    0.6400   12.4520   -2.5400 S   0  0  0  0  0  0  0  0  0  0  0  0
   -1.2680   10.0850   -6.2190 C   0  0  0  0  0  0  0  0  0  0  0  0
    2.2450   12.2970   -2.9560 O   0  0  0  0  0  0  0  0  0  0  0  0
    0.3800   10.4530   -2.4700 O   0  0  0  0  0  0  0  0  0  0  0  0
    0.2820   12.7830   -1.2940 O   0  0  0  0  0  0  0  0  0  0  0  0
   -0.6690    8.7070   -6.5250 C   0  0  0  0  0  0  0  0  0  0  0  0
   -1.0350   11.1270   -7.3080 C   0  0  0  0  0  0  0  0  0  0  0  0
    0.2090    8.8220   -7.7630 C   0  0  0  0  0  0  0  0  0  0  0  0
   -1.2830   10.5860   -8.6840 C   0  0  0  0  0  0  0  0  0  0  0  0
   -0.6610    9.2540   -8.8750 C   0  0  0  0  0  0  0  0  0  0  0  0
  1  2  2  0
  2  3  1  0
  2  4  1  0
  3  5  1  0
  4  6  1  0
  6  7  1  6
  5  8  2  0
  6  8  1  0
  7  9  1  0
  9 10  1  0
 11 10  1  6
 11 12  1  0
 11 13  1  0
 13 14  1  0
 12 15  1  0
 14 16  1  0
 14 17  1  0
 14 18  1  0
 15 19  1  0
 15 20  1  0
 19 21  1  0
 20 22  1  0
 21 23  1  0
 22 23  1  0
M  END
