x0837_0_A-x0128_0_A
     RDKit          3D

 18 19  0  0  0  0  0  0  0  0999 V2000
   -7.6980   14.7040    0.0650 O   0  0  0  0  0  0  0  0  0  0  0  0
   -6.4760   14.7600    0.1690 C   0  0  0  0  0  0  0  0  0  0  0  0
   -5.8140   14.9140    1.3770 N   0  0  0  0  0  0  0  0  0  0  0  0
   -5.6030   14.6630   -1.0310 C   0  0  0  0  0  0  0  0  0  0  0  0
   -6.5070   14.5260    2.5590 N   0  0  0  0  0  0  0  0  0  0  0  0
   -4.4720   15.2140    1.4580 C   0  0  0  0  0  0  0  0  0  0  0  0
   -4.2810   14.8660   -0.9220 C   0  0  0  0  0  0  0  0  0  0  0  0
   -3.0870   14.7030   -2.6030 I   0  0  0  0  0  0  0  0  0  0  0  0
   -7.6920   15.1410    3.0030 C   0  0  0  0  0  0  0  0  0  0  0  0
   -3.7030   15.1940    0.3660 C   0  0  0  0  0  0  0  0  0  0  0  0
   -8.6260   15.4570    2.2720 O   0  0  0  0  0  0  0  0  0  0  0  0
   -7.6250   15.3260    4.3780 N   0  0  0  0  0  0  0  0  0  0  0  0
   -8.4550   16.1180    5.2110 C   0  0  0  0  0  0  0  0  0  0  0  0
   -9.1600   17.2540    4.8200 C   0  0  0  0  0  0  0  0  0  0  0  0
   -8.5840   15.7330    6.5500 C   0  0  0  0  0  0  0  0  0  0  0  0
   -9.9490   17.9920    5.6430 N   0  0  0  0  0  0  0  0  0  0  0  0
   -9.3890   16.4740    7.4190 C   0  0  0  0  0  0  0  0  0  0  0  0
  -10.0430   17.5850    6.9210 C   0  0  0  0  0  0  0  0  0  0  0  0
  1  2  2  0
  2  3  1  0
  2  4  1  0
  3  5  1  0
  3  6  1  0
  4  7  2  0
  7  8  1  0
  5  9  1  0
  6 10  2  0
  7 10  1  0
  9 11  2  0
  9 12  1  0
 12 13  1  0
 13 14  2  0
 13 15  1  0
 14 16  1  0
 15 17  2  0
 16 18  2  0
 17 18  1  0
M  END
