x0837_0_A-x0685_1_A
     RDKit          3D

 23 24  0  0  0  0  0  0  0  0999 V2000
   -7.5570   14.8790    0.1430 O   0  0  0  0  0  0  0  0  0  0  0  0
   -6.3310   14.7310    0.1820 C   0  0  0  0  0  0  0  0  0  0  0  0
   -5.6130   14.8940    1.4300 N   0  0  0  0  0  0  0  0  0  0  0  0
   -5.5130   14.3680   -1.0090 C   0  0  0  0  0  0  0  0  0  0  0  0
   -4.1910   15.0740    1.2970 C   0  0  0  0  0  0  0  0  0  0  0  0
   -4.3140   15.2660   -1.0890 C   0  0  2  0  0  0  0  0  0  0  0  0
   -3.1030   14.7950   -2.7740 I   0  0  0  0  0  0  0  0  0  0  0  0
   -3.5730   15.2380    0.1730 C   0  0  0  0  0  0  0  0  0  0  0  0
   -3.3970   12.8480   -3.5240 C   0  0  0  0  0  0  0  0  0  0  0  0
   -2.5240   12.5610   -4.7540 C   0  0  0  0  0  0  0  0  0  0  0  0
   -1.3190   11.7480   -4.3330 C   0  0  1  0  0  0  0  0  0  0  0  0
   -1.2290   10.5870   -4.9740 N   0  0  0  0  0  0  0  0  0  0  0  0
   -0.1920   12.6670   -4.0220 C   0  0  0  0  0  0  0  0  0  0  0  0
    0.6400   12.4520   -2.5400 S   0  0  0  0  0  0  0  0  0  0  0  0
   -1.2660   10.0850   -6.2190 C   0  0  0  0  0  0  0  0  0  0  0  0
    2.2440   12.2960   -2.9590 O   0  0  0  0  0  0  0  0  0  0  0  0
    0.3790   10.4530   -2.4720 O   0  0  0  0  0  0  0  0  0  0  0  0
    0.2820   12.7830   -1.2940 O   0  0  0  0  0  0  0  0  0  0  0  0
   -0.6700    8.7070   -6.5250 C   0  0  0  0  0  0  0  0  0  0  0  0
   -1.0340   11.1270   -7.3080 C   0  0  0  0  0  0  0  0  0  0  0  0
    0.2110    8.8220   -7.7630 C   0  0  0  0  0  0  0  0  0  0  0  0
   -1.2830   10.5860   -8.6840 C   0  0  0  0  0  0  0  0  0  0  0  0
   -0.6620    9.2530   -8.8750 C   0  0  0  0  0  0  0  0  0  0  0  0
  1  2  2  0
  2  3  1  0
  2  4  1  0
  3  5  1  0
  4  6  1  0
  6  7  1  6
  5  8  2  0
  6  8  1  0
  7  9  1  0
  9 10  1  0
 11 10  1  6
 11 12  1  0
 11 13  1  0
 13 14  1  0
 12 15  1  0
 14 16  1  0
 14 17  1  0
 14 18  1  0
 15 19  1  0
 15 20  1  0
 19 21  1  0
 20 22  1  0
 21 23  1  0
 22 23  1  0
M  END
