x0837_0_A_α-x0962_2_B_α
     RDKit          3D

 17 18  0  0  0  0  0  0  0  0999 V2000
   -7.5360   14.6950   -0.9920 O   0  0  0  0  0  0  0  0  0  0  0  0
   -6.3890   14.7040   -0.5730 C   0  0  0  0  0  0  0  0  0  0  0  0
   -6.0490   14.7600    0.7500 N   0  0  0  0  0  0  0  0  0  0  0  0
   -5.2850   14.6370   -1.5270 C   0  0  0  0  0  0  0  0  0  0  0  0
   -7.1950   14.6100    1.6490 C   0  0  0  0  0  0  0  0  0  0  0  0
   -4.7590   15.0900    1.1670 C   0  0  0  0  0  0  0  0  0  0  0  0
   -4.0360   14.8360   -1.1260 C   0  0  0  0  0  0  0  0  0  0  0  0
   -2.5650   14.6980   -2.5650 I   0  0  0  0  0  0  0  0  0  0  0  0
   -8.5400   14.9320    0.9200 C   0  0  0  0  0  0  0  0  0  0  0  0
   -3.7560   15.1300    0.2720 C   0  0  0  0  0  0  0  0  0  0  0  0
   -9.6940   15.3270    1.8340 C   0  0  2  0  0  0  0  0  0  0  0  0
  -10.2780   16.6200    1.5030 N   0  0  0  0  0  0  0  0  0  0  0  0
   -9.1060   15.2880    3.1780 C   0  0  0  0  0  0  0  0  0  0  0  0
   -9.0150   16.3480    4.0420 N   0  0  0  0  0  0  0  0  0  0  0  0
   -8.5280   14.2370    3.8390 C   0  0  0  0  0  0  0  0  0  0  0  0
   -8.3920   15.8880    5.1660 C   0  0  0  0  0  0  0  0  0  0  0  0
   -8.0900   14.6140    5.0670 N   0  0  0  0  0  0  0  0  0  0  0  0
  1  2  2  0
  2  3  1  0
  2  4  1  0
  3  5  1  0
  3  6  1  0
  4  7  2  0
  7  8  1  0
  5  9  1  0
  6 10  2  0
  7 10  1  0
  9 11  1  0
 11 12  1  6
 11 13  1  0
 13 14  1  0
 13 15  2  0
 14 16  1  0
 15 17  1  0
 16 17  2  0
M  END
