x0837_0_A-x0722_0_A
     RDKit          3D

 17 19  0  0  0  0  0  0  0  0999 V2000
   -6.6540   14.3990   -0.9910 N   0  0  0  0  0  0  0  0  0  0  0  0
   -5.9820   15.3420   -0.6440 C   0  0  0  0  0  0  0  0  0  0  0  0
   -5.0540   14.2880   -0.8300 N   0  0  0  0  0  0  0  0  0  0  0  0
   -5.8550   13.2960   -1.2500 C   0  0  0  0  0  0  0  0  0  0  0  0
   -4.8140   16.0080   -0.3400 C   0  0  0  0  0  0  0  0  0  0  0  0
   -6.4260   12.1520   -1.0090 N   0  0  0  0  0  0  0  0  0  0  0  0
   -4.5350   13.0660   -1.7010 C   0  0  0  0  0  0  0  0  0  0  0  0
   -2.8410   14.2100   -2.2880 I   0  0  0  0  0  0  0  0  0  0  0  0
   -5.5900   11.1720   -1.2640 C   0  0  0  0  0  0  0  0  0  0  0  0
   -4.3890   11.7460   -1.7020 C   0  0  0  0  0  0  0  0  0  0  0  0
   -3.6630   15.3920    0.2380 C   0  0  0  0  0  0  0  0  0  0  0  0
   -3.4070   15.4560    1.5400 C   0  0  0  0  0  0  0  0  0  0  0  0
   -2.7050   14.6930   -0.3070 C   0  0  0  0  0  0  0  0  0  0  0  0
   -4.2780   16.0760    2.5060 C   0  0  0  0  0  0  0  0  0  0  0  0
   -2.2270   14.8450    1.7390 N   0  0  0  0  0  0  0  0  0  0  0  0
   -1.7640   14.3670    0.5800 N   0  0  0  0  0  0  0  0  0  0  0  0
   -0.5180   13.6560    0.4500 C   0  0  0  0  0  0  0  0  0  0  0  0
  1  2  2  0
  2  3  1  0
  1  4  1  0
  2  5  1  0
  4  6  1  0
  4  7  2  0
  7  8  1  0
  6  9  1  0
  7 10  1  0
  9 10  2  0
  5 11  1  0
 11 12  1  0
  8 13  1  0
 11 13  2  0
 12 14  1  0
 12 15  2  0
 13 16  1  0
 15 16  1  0
 16 17  1  0
M  END
