x0837_0_A_α-x0910_2_B_α
     RDKit          3D

 21 22  0  0  0  0  0  0  0  0999 V2000
   -7.5450   14.4030    0.6910 O   0  0  0  0  0  0  0  0  0  0  0  0
   -6.3460   14.5760    0.4870 C   0  0  0  0  0  0  0  0  0  0  0  0
   -5.4680   14.8500    1.5130 N   0  0  0  0  0  0  0  0  0  0  0  0
   -5.7510   14.5240   -0.9200 C   0  0  1  0  0  0  0  0  0  0  0  0
   -6.4210   15.7070   -1.6620 C   0  0  0  0  0  0  0  0  0  0  0  0
   -4.3580   15.6060    1.3550 C   0  0  0  0  0  0  0  0  0  0  0  0
   -4.1940   14.5610   -0.8210 C   0  0  1  0  0  0  0  0  0  0  0  0
   -3.1940   14.9160   -2.6850 I   0  0  0  0  0  0  0  0  0  0  0  0
   -7.9670   15.7140   -1.6960 C   0  0  0  0  0  0  0  0  0  0  0  0
   -3.6820   15.5130    0.2240 C   0  0  0  0  0  0  0  0  0  0  0  0
   -8.6640   17.0660   -1.4390 C   0  0  0  0  0  0  0  0  0  0  0  0
  -10.0910   17.0530   -0.8770 C   0  0  0  0  0  0  0  0  0  0  0  0
  -11.0550   17.6730   -1.8830 C   0  0  0  0  0  0  0  0  0  0  0  0
  -11.6270   19.0420   -1.5060 C   0  0  0  0  0  0  0  0  0  0  0  0
  -12.2830   19.7210   -2.7220 C   0  0  0  0  0  0  0  0  0  0  0  0
  -11.8560   21.1010   -2.9430 N   0  0  0  0  0  0  0  0  0  0  0  0
  -12.2870   22.1710   -2.2400 C   0  0  0  0  0  0  0  0  0  0  0  0
  -11.7980   23.4370   -2.4140 N   0  0  0  0  0  0  0  0  0  0  0  0
  -13.2140   22.2000   -1.3020 N   0  0  0  0  0  0  0  0  0  0  0  0
  -12.4000   24.3040   -1.5940 N   0  0  0  0  0  0  0  0  0  0  0  0
  -13.2460   23.5140   -0.9370 C   0  0  0  0  0  0  0  0  0  0  0  0
  1  2  2  0
  2  3  1  0
  2  4  1  0
  4  5  1  6
  3  6  1  0
  4  7  1  0
  7  8  1  6
  5  9  1  0
  6 10  2  0
  7 10  1  0
  9 11  1  0
 11 12  1  0
 12 13  1  0
 13 14  1  0
 14 15  1  0
 15 16  1  0
 16 17  1  0
 17 18  1  0
 17 19  2  0
 18 20  1  0
 19 21  1  0
 20 21  2  0
M  END
