x0837_0_A-x0689_0_A
     RDKit          3D

 15 16  0  0  0  0  0  0  0  0999 V2000
   -7.8000   14.7560    0.3530 O   0  0  0  0  0  0  0  0  0  0  0  0
   -6.5930   14.5670    0.2910 C   0  0  0  0  0  0  0  0  0  0  0  0
   -5.7990   14.4720    1.3940 N   0  0  0  0  0  0  0  0  0  0  0  0
   -5.8530   14.4190   -0.9980 C   0  0  0  0  0  0  0  0  0  0  0  0
   -4.4700   14.9770    1.4460 C   0  0  2  0  0  0  0  0  0  0  0  0
   -4.7300   15.4310   -1.0840 C   0  0  2  0  0  0  0  0  0  0  0  0
   -3.2970   14.7980   -2.6120 I   0  0  0  0  0  0  0  0  0  0  0  0
   -4.0800   15.8310    0.2660 C   0  0  0  0  0  0  0  0  0  0  0  0
   -3.5100   13.9590    1.6360 N   0  0  0  0  0  0  0  0  0  0  0  0
   -2.3020   14.1850    1.0250 C   0  0  0  0  0  0  0  0  0  0  0  0
   -2.1940   14.1590   -0.3100 N   0  0  0  0  0  0  0  0  0  0  0  0
   -1.2980   14.4240    1.8430 N   0  0  0  0  0  0  0  0  0  0  0  0
   -0.9830   14.3960   -0.8380 C   0  0  0  0  0  0  0  0  0  0  0  0
   -0.1160   14.6530    1.2720 C   0  0  0  0  0  0  0  0  0  0  0  0
    0.1170   14.6550   -0.0750 C   0  0  0  0  0  0  0  0  0  0  0  0
  1  2  2  0
  2  3  1  0
  2  4  1  0
  3  5  1  0
  4  6  1  0
  6  7  1  6
  5  8  1  0
  6  8  1  0
  5  9  1  6
  9 10  1  0
 10 11  2  0
 10 12  1  0
 11 13  1  0
 12 14  2  0
 13 15  2  0
 14 15  1  0
M  END
