x0837_0_A-x0852_0_B
     RDKit          3D

 19 20  0  0  0  0  0  0  0  0999 V2000
   -7.8190   15.4070   -0.8450 O   0  0  0  0  0  0  0  0  0  0  0  0
   -6.7420   15.0340   -0.4240 C   0  0  0  0  0  0  0  0  0  0  0  0
   -6.5330   14.6830    0.8810 N   0  0  0  0  0  0  0  0  0  0  0  0
   -5.5850   14.9210   -1.3350 C   0  0  0  0  0  0  0  0  0  0  0  0
   -7.7400   14.1310    1.5550 C   0  0  0  0  0  0  0  0  0  0  0  0
   -5.2360   14.6960    1.4160 C   0  0  0  0  0  0  0  0  0  0  0  0
   -4.3550   14.7760   -0.8450 C   0  0  0  0  0  0  0  0  0  0  0  0
   -2.7900   14.5810   -2.1830 I   0  0  0  0  0  0  0  0  0  0  0  0
   -4.1580   14.7440    0.5970 C   0  0  0  0  0  0  0  0  0  0  0  0
   -8.3250   15.0390    2.6270 C   0  0  0  0  0  0  0  0  0  0  0  0
   -7.8120   14.7760    3.8780 C   0  0  0  0  0  0  0  0  0  0  0  0
   -9.2780   16.0750    2.5240 C   0  0  0  0  0  0  0  0  0  0  0  0
  -10.1520   16.5950    0.9090 Br  0  0  0  0  0  0  0  0  0  0  0  0
   -8.1710   15.4810    5.0140 C   0  0  0  0  0  0  0  0  0  0  0  0
   -9.6290   16.7960    3.6880 C   0  0  0  0  0  0  0  0  0  0  0  0
   -7.5560   15.0760    6.1560 O   0  0  0  0  0  0  0  0  0  0  0  0
   -9.0820   16.5040    4.9340 C   0  0  0  0  0  0  0  0  0  0  0  0
   -9.4670   17.2530    6.0940 C   0  0  0  0  0  0  0  0  0  0  0  0
   -9.7690   17.8160    7.0640 N   0  0  0  0  0  0  0  0  0  0  0  0
  1  2  2  0
  2  3  1  0
  2  4  1  0
  3  5  1  0
  3  6  1  0
  4  7  2  0
  7  8  1  0
  6  9  2  0
  7  9  1  0
  5 10  1  0
 10 11  2  0
 10 12  1  0
 12 13  1  0
 11 14  1  0
 12 15  2  0
 14 16  1  0
 14 17  2  0
 15 17  1  0
 17 18  1  0
 18 19  3  0
M  END
