x0837_0_A-x0969_0_A
     RDKit          3D

 13 14  0  0  0  0  0  0  0  0999 V2000
   -8.1880   15.1440    0.2360 O   0  0  0  0  0  0  0  0  0  0  0  0
   -6.8220   15.0150   -0.1840 C   0  0  0  0  0  0  0  0  0  0  0  0
   -5.9480   14.4210    0.9660 C   0  0  2  0  0  0  0  0  0  0  0  0
   -6.7210   14.4720    2.2240 N   0  0  0  0  0  0  0  0  0  0  0  0
   -4.6730   15.2290    1.1570 C   0  0  0  0  0  0  0  0  0  0  0  0
   -5.5080   13.1760    0.3720 N   0  0  0  0  0  0  0  0  0  0  0  0
   -3.7060   15.1860    0.2330 C   0  0  0  0  0  0  0  0  0  0  0  0
   -4.8240   13.3700   -0.8270 C   0  0  0  0  0  0  0  0  0  0  0  0
   -6.3720   12.1100    0.1510 N   0  0  0  0  0  0  0  0  0  0  0  0
   -3.9190   14.3610   -0.9550 C   0  0  0  0  0  0  0  0  0  0  0  0
   -5.2020   12.4460   -1.8000 N   0  0  0  0  0  0  0  0  0  0  0  0
   -6.1060   11.7510   -1.1610 C   0  0  0  0  0  0  0  0  0  0  0  0
   -2.8970   14.6880   -2.7130 I   0  0  0  0  0  0  0  0  0  0  0  0
  1  2  1  0
  2  3  1  0
  3  4  1  1
  3  5  1  0
  3  6  1  0
  5  7  2  0
  6  8  1  0
  6  9  1  0
  7 10  1  0
  8 10  2  0
  8 11  1  0
  9 12  1  0
 11 12  2  0
 10 13  1  0
M  END
