x0837_0_A-x0711_0_A
     RDKit          3D

 14 14  0  0  0  0  0  0  0  0999 V2000
   -7.1900   14.7330    0.2880 N   0  0  0  0  0  0  0  0  0  0  0  0
   -7.4240   14.4240    1.4800 C   0  0  0  0  0  0  0  0  0  0  0  0
   -8.7180   14.2730    1.9240 N   0  0  0  0  0  0  0  0  0  0  0  0
   -5.8220   14.8360    0.0950 C   0  0  0  0  0  0  0  0  0  0  0  0
   -5.0530   14.9370    1.1820 N   0  0  0  0  0  0  0  0  0  0  0  0
   -5.2050   14.8340   -1.1320 C   0  0  0  0  0  0  0  0  0  0  0  0
   -3.7430   15.0290    1.1670 C   0  0  0  0  0  0  0  0  0  0  0  0
   -3.8460   14.9250   -1.2410 C   0  0  0  0  0  0  0  0  0  0  0  0
   -2.9740   14.9070   -3.1650 I   0  0  0  0  0  0  0  0  0  0  0  0
   -3.1070   15.0230   -0.0700 C   0  0  0  0  0  0  0  0  0  0  0  0
   -0.7460   13.9500   -3.1770 S   0  0  0  0  0  0  0  0  0  0  0  0
   -0.8950   12.5320   -4.2430 C   0  0  0  0  0  0  0  0  0  0  0  0
    0.1910   14.9180   -3.8700 O   0  0  0  0  0  0  0  0  0  0  0  0
   -0.2490   13.5700   -1.8320 O   0  0  0  0  0  0  0  0  0  0  0  0
  1  2  2  3
  2  3  1  0
  1  4  1  0
  4  5  2  0
  4  6  1  0
  5  7  1  0
  6  8  2  0
  8  9  1  0
  7 10  2  0
  8 10  1  0
  9 11  1  0
 11 12  1  0
 11 13  2  0
 11 14  2  0
M  END
