x0837_0_A_α-x0727_0_A_α
     RDKit          3D

 24 25  0  0  0  0  0  0  0  0999 V2000
   -7.5140   14.5740   -0.0360 O   0  0  0  0  0  0  0  0  0  0  0  0
   -6.3150   14.8600    0.0640 C   0  0  0  0  0  0  0  0  0  0  0  0
   -5.6160   14.8500    1.3280 N   0  0  0  0  0  0  0  0  0  0  0  0
   -5.4410   15.2690   -1.1190 C   0  0  0  0  0  0  0  0  0  0  0  0
   -4.2540   15.1730    1.3330 C   0  0  0  0  0  0  0  0  0  0  0  0
   -4.1230   14.5730   -0.9500 C   0  0  1  0  0  0  0  0  0  0  0  0
   -2.8860   14.8060   -2.6750 I   0  0  0  0  0  0  0  0  0  0  0  0
   -3.4930   15.0580    0.2840 C   0  0  0  0  0  0  0  0  0  0  0  0
   -0.8400   14.4640   -2.0890 C   0  0  0  0  0  0  0  0  0  0  0  0
    0.1790   15.2330   -2.9820 C   0  0  0  0  0  0  0  0  0  0  0  0
    0.0890   14.8170   -4.3490 C   0  0  0  0  0  0  0  0  0  0  0  0
    1.0710   13.9620   -4.9540 C   0  0  0  0  0  0  0  0  0  0  0  0
    1.1060   12.4990   -4.7110 C   0  0  2  0  0  0  0  0  0  0  0  0
    0.2640   11.8330   -5.6120 N   0  0  0  0  0  0  0  0  0  0  0  0
    0.9650   12.0540   -3.3320 C   0  0  0  0  0  0  0  0  0  0  0  0
    0.3250   10.9620   -3.0780 O   0  0  0  0  0  0  0  0  0  0  0  0
    0.4570   11.0660   -6.7210 C   0  0  0  0  0  0  0  0  0  0  0  0
    1.4930   12.7310   -2.2520 O   0  0  0  0  0  0  0  0  0  0  0  0
    1.4440   11.2160   -7.4620 O   0  0  0  0  0  0  0  0  0  0  0  0
   -0.5430   10.0050   -7.0190 C   0  0  0  0  0  0  0  0  0  0  0  0
   -1.0360   10.0280   -8.4260 C   0  0  0  0  0  0  0  0  0  0  0  0
   -0.1780    8.6240   -6.8270 C   0  0  0  0  0  0  0  0  0  0  0  0
   -2.0300    8.8490   -8.3620 C   0  0  0  0  0  0  0  0  0  0  0  0
   -1.4670    7.9030   -7.2890 C   0  0  0  0  0  0  0  0  0  0  0  0
  1  2  2  0
  2  3  1  0
  2  4  1  0
  3  5  1  0
  4  6  1  0
  6  7  1  6
  5  8  2  0
  6  8  1  0
  7  9  1  0
  9 10  1  0
 10 11  1  0
 11 12  1  0
 13 12  1  1
 13 14  1  0
 13 15  1  0
 15 16  2  0
 14 17  1  0
 15 18  1  0
 17 19  2  0
 17 20  1  0
 20 21  1  0
 20 22  1  0
 21 23  1  0
 22 24  1  0
 23 24  1  0
M  END
