x0837_0_A-x0805_0_A
     RDKit          3D

 24 26  0  0  0  0  0  0  0  0999 V2000
   -7.9130   14.6740    0.3270 O   0  0  0  0  0  0  0  0  0  0  0  0
   -6.6870   14.7060    0.2870 C   0  0  0  0  0  0  0  0  0  0  0  0
   -5.9700   14.8390    1.4240 N   0  0  0  0  0  0  0  0  0  0  0  0
   -5.9120   14.6070   -0.9880 C   0  0  0  0  0  0  0  0  0  0  0  0
   -4.5360   14.9250    1.4550 C   0  0  0  0  0  0  0  0  0  0  0  0
   -4.7650   15.5930   -1.0180 C   0  0  2  0  0  0  0  0  0  0  0  0
   -3.6720   15.2420   -2.8660 I   0  0  0  0  0  0  0  0  0  0  0  0
   -3.8820   15.6170    0.2710 C   0  0  2  0  0  0  0  0  0  0  0  0
   -2.6920   14.9150    0.0180 O   0  0  0  0  0  0  0  0  0  0  0  0
   -2.7410   14.1370   -1.0620 C   0  0  0  0  0  0  0  0  0  0  0  0
   -3.7150   13.1940   -1.3640 C   0  0  0  0  0  0  0  0  0  0  0  0
   -1.6790   14.3580   -1.9190 C   0  0  0  0  0  0  0  0  0  0  0  0
   -3.6250   12.4710   -2.5480 C   0  0  0  0  0  0  0  0  0  0  0  0
   -1.5640   13.6490   -3.1060 C   0  0  0  0  0  0  0  0  0  0  0  0
   -2.5530   12.7000   -3.4180 C   0  0  0  0  0  0  0  0  0  0  0  0
   -0.4030   13.8850   -4.0450 C   0  0  2  0  0  0  0  0  0  0  0  0
    0.6060   12.7180   -4.0280 C   0  0  2  0  0  0  0  0  0  0  0  0
    0.2210   15.2650   -3.7610 C   0  0  0  0  0  0  0  0  0  0  0  0
    0.5970   12.0020   -2.6760 C   0  0  0  0  0  0  0  0  0  0  0  0
    2.0180   13.1040   -4.4890 C   0  0  0  0  0  0  0  0  0  0  0  0
    1.6340   15.4340   -4.2420 C   0  0  0  0  0  0  0  0  0  0  0  0
    0.4390   10.6600   -2.7440 O   0  0  0  0  0  0  0  0  0  0  0  0
    0.7060   12.5120   -1.5660 O   0  0  0  0  0  0  0  0  0  0  0  0
    2.4420   14.3210   -3.8830 O   0  0  0  0  0  0  0  0  0  0  0  0
  1  2  2  0
  2  3  1  0
  2  4  1  0
  3  5  1  0
  4  6  1  0
  6  7  1  6
  5  8  1  0
  6  8  1  0
  8  9  1  6
  9 10  1  0
 10 11  2  0
 10 12  1  0
 11 13  1  0
 12 14  2  0
 13 15  2  0
 14 15  1  0
 16 14  1  1
 16 17  1  0
 16 18  1  0
 17 19  1  1
 17 20  1  0
 18 21  1  0
 19 22  1  0
 19 23  2  0
 20 24  1  0
 21 24  1  0
M  END
