x0837_0_A-x0849_0_A
     RDKit          3D

 13 14  0  0  0  0  0  0  0  0999 V2000
   -7.2150   14.7670    0.2210 O   0  0  0  0  0  0  0  0  0  0  0  0
   -5.9860   14.8600    0.1660 C   0  0  0  0  0  0  0  0  0  0  0  0
   -5.1790   14.3780    1.1510 N   0  0  0  0  0  0  0  0  0  0  0  0
   -5.2530   15.4990   -0.9790 C   0  0  0  0  0  0  0  0  0  0  0  0
   -3.8700   13.7540    0.9370 C   0  0  0  0  0  0  0  0  0  0  0  0
   -4.0000   14.6890   -1.3020 C   0  0  1  0  0  0  0  0  0  0  0  0
   -3.0320   15.3400   -3.1490 I   0  0  0  0  0  0  0  0  0  0  0  0
   -3.0050   14.4820   -0.1300 C   0  0  2  0  0  0  0  0  0  0  0  0
   -1.7240   13.7140   -0.6710 C   0  0  0  0  0  0  0  0  0  0  0  0
   -2.4810   15.7170    0.6010 C   0  0  0  0  0  0  0  0  0  0  0  0
   -1.5380   15.2220    1.5950 N   0  0  0  0  0  0  0  0  0  0  0  0
   -0.4190   13.9150    0.0660 C   0  0  0  0  0  0  0  0  0  0  0  0
   -0.3930   14.6470    1.1540 C   0  0  0  0  0  0  0  0  0  0  0  0
  1  2  2  0
  2  3  1  0
  2  4  1  0
  3  5  1  0
  4  6  1  0
  6  7  1  6
  8  5  1  1
  6  8  1  0
  8  9  1  0
  8 10  1  0
 10 11  1  0
  9 12  1  0
 11 13  1  0
 12 13  2  0
M  END
