x0837_0_A-x0628_0_A
     RDKit          3D

 21 22  0  0  0  0  0  0  0  0999 V2000
   -7.5470   14.6950    0.1790 O   0  0  0  0  0  0  0  0  0  0  0  0
   -6.2980   14.7260    0.1310 C   0  0  0  0  0  0  0  0  0  0  0  0
   -5.5780   14.7520    1.3570 N   0  0  0  0  0  0  0  0  0  0  0  0
   -5.6440   14.7360   -1.1980 C   0  0  0  0  0  0  0  0  0  0  0  0
   -4.1760   14.8460    1.2910 C   0  0  0  0  0  0  0  0  0  0  0  0
   -4.2730   15.2700   -1.1370 C   0  0  2  0  0  0  0  0  0  0  0  0
   -3.0250   14.7980   -2.8000 I   0  0  0  0  0  0  0  0  0  0  0  0
   -3.5870   15.0780    0.1550 C   0  0  0  0  0  0  0  0  0  0  0  0
   -3.2970   12.9410   -3.7940 C   0  0  0  0  0  0  0  0  0  0  0  0
   -2.1260   12.0390   -3.6290 C   0  0  0  0  0  0  0  0  0  0  0  0
   -1.4400   11.5060   -4.8150 C   0  0  0  0  0  0  0  0  0  0  0  0
   -1.7810   10.3860   -5.4600 N   0  0  0  0  0  0  0  0  0  0  0  0
   -0.3730   12.0220   -5.4440 N   0  0  0  0  0  0  0  0  0  0  0  0
    0.4100   13.1930   -5.2030 C   0  0  0  0  0  0  0  0  0  0  0  0
   -0.9440   10.1950   -6.4700 C   0  0  0  0  0  0  0  0  0  0  0  0
   -0.0910   11.1980   -6.4540 N   0  0  0  0  0  0  0  0  0  0  0  0
   -0.9920    9.0360   -7.4280 C   0  0  0  0  0  0  0  0  0  0  0  0
    1.6090   12.9050   -4.3200 C   0  0  0  0  0  0  0  0  0  0  0  0
    1.1910   12.3700   -2.9810 C   0  0  0  0  0  0  0  0  0  0  0  0
    0.6730   11.2240   -2.9360 O   0  0  0  0  0  0  0  0  0  0  0  0
    1.3660   13.1010   -1.8210 O   0  0  0  0  0  0  0  0  0  0  0  0
  1  2  2  0
  2  3  1  0
  2  4  1  0
  3  5  1  0
  4  6  1  0
  6  7  1  6
  5  8  2  0
  6  8  1  0
  7  9  1  0
  9 10  1  0
 10 11  1  0
 11 12  2  0
 11 13  1  0
 13 14  1  0
 12 15  1  0
 13 16  1  0
 15 16  2  0
 15 17  1  0
 14 18  1  0
 18 19  1  0
 19 20  2  0
 19 21  1  0
M  END
