x0837_0_A-x0628_0_A
     RDKit          3D

 21 22  0  0  0  0  0  0  0  0999 V2000
   -7.5440   14.7000    0.1550 O   0  0  0  0  0  0  0  0  0  0  0  0
   -6.2910   14.7560    0.1230 C   0  0  0  0  0  0  0  0  0  0  0  0
   -5.5910   14.7970    1.3570 N   0  0  0  0  0  0  0  0  0  0  0  0
   -5.6220   14.7800   -1.1990 C   0  0  0  0  0  0  0  0  0  0  0  0
   -4.1900   14.8860    1.3120 C   0  0  0  0  0  0  0  0  0  0  0  0
   -4.2480   15.3070   -1.1210 C   0  0  2  0  0  0  0  0  0  0  0  0
   -2.9810   14.8250   -2.7670 I   0  0  0  0  0  0  0  0  0  0  0  0
   -3.5830   15.1210    0.1830 C   0  0  0  0  0  0  0  0  0  0  0  0
   -3.2830   13.0110   -3.8200 C   0  0  0  0  0  0  0  0  0  0  0  0
   -2.1490   12.0630   -3.6370 C   0  0  0  0  0  0  0  0  0  0  0  0
   -1.4560   11.5240   -4.8180 C   0  0  0  0  0  0  0  0  0  0  0  0
   -1.7990   10.4060   -5.4660 N   0  0  0  0  0  0  0  0  0  0  0  0
   -0.3750   12.0270   -5.4360 N   0  0  0  0  0  0  0  0  0  0  0  0
    0.4230   13.1910   -5.1970 C   0  0  0  0  0  0  0  0  0  0  0  0
   -0.9570   10.2040   -6.4700 C   0  0  0  0  0  0  0  0  0  0  0  0
   -0.0950   11.2000   -6.4470 N   0  0  0  0  0  0  0  0  0  0  0  0
   -1.0060    9.0450   -7.4300 C   0  0  0  0  0  0  0  0  0  0  0  0
    1.6210   12.8760   -4.3190 C   0  0  0  0  0  0  0  0  0  0  0  0
    1.2050   12.3520   -2.9770 C   0  0  0  0  0  0  0  0  0  0  0  0
    0.6800   11.2100   -2.9240 O   0  0  0  0  0  0  0  0  0  0  0  0
    1.3890   13.0860   -1.8190 O   0  0  0  0  0  0  0  0  0  0  0  0
  1  2  2  0
  2  3  1  0
  2  4  1  0
  3  5  1  0
  4  6  1  0
  6  7  1  6
  5  8  2  0
  6  8  1  0
  7  9  1  0
  9 10  1  0
 10 11  1  0
 11 12  2  0
 11 13  1  0
 13 14  1  0
 12 15  1  0
 13 16  1  0
 15 16  2  0
 15 17  1  0
 14 18  1  0
 18 19  1  0
 19 20  2  0
 19 21  1  0
M  END
