x0837_0_A-x0766_0_A
     RDKit          3D

 20 22  0  0  0  0  0  0  0  0999 V2000
   -7.4750   14.4080   -0.4550 O   0  0  0  0  0  0  0  0  0  0  0  0
   -6.2570   14.4520   -0.2990 C   0  0  0  0  0  0  0  0  0  0  0  0
   -5.7270   14.5100    0.9460 N   0  0  0  0  0  0  0  0  0  0  0  0
   -5.2390   14.4680   -1.4420 C   0  0  0  0  0  0  0  0  0  0  0  0
   -4.8180   15.4420    1.2350 C   0  0  0  0  0  0  0  0  0  0  0  0
   -4.0110   15.3750   -1.1760 C   0  0  1  0  0  0  0  0  0  0  0  0
   -4.0170   15.8840    0.2750 C   0  0  0  0  0  0  0  0  0  0  0  0
   -2.5930   14.8170   -1.1830 C   0  0  0  0  0  0  0  0  0  0  0  0
   -1.3950   14.4760   -1.9330 C   0  0  0  0  0  0  0  0  0  0  0  0
   -2.4070   14.4970    0.4930 S   0  0  0  0  0  0  0  0  0  0  0  0
   -0.8010   14.4700   -3.3710 C   0  0  2  0  0  0  0  0  0  0  0  0
   -0.4380   13.9870   -0.9650 C   0  0  0  0  0  0  0  0  0  0  0  0
   -0.8520   13.9560    0.3270 C   0  0  0  0  0  0  0  0  0  0  0  0
    0.4600   13.5470   -3.3820 C   0  0  1  0  0  0  0  0  0  0  0  0
   -0.0820   15.7170   -3.9360 C   0  0  0  0  0  0  0  0  0  0  0  0
    0.2600   12.1090   -2.9820 C   0  0  0  0  0  0  0  0  0  0  0  0
    1.0460   13.7290   -4.7640 C   0  0  0  0  0  0  0  0  0  0  0  0
    1.1310   15.2390   -4.7720 C   0  0  0  0  0  0  0  0  0  0  0  0
    0.6620   11.6250   -1.9470 O   0  0  0  0  0  0  0  0  0  0  0  0
   -0.4100   11.3660   -3.8800 O   0  0  0  0  0  0  0  0  0  0  0  0
  1  2  2  0
  2  3  1  0
  2  4  1  0
  3  5  1  0
  4  6  1  0
  5  7  2  0
  6  7  1  0
  6  8  1  1
  8  9  2  0
  8 10  1  0
 11  9  1  1
  9 12  1  0
 10 13  1  0
 12 13  2  0
 11 14  1  0
 11 15  1  0
 14 16  1  6
 14 17  1  0
 15 18  1  0
 17 18  1  0
 16 19  2  0
 16 20  1  0
M  END
