x0837_0_A_α-x1018_0_A_α
     RDKit          3D

 11 12  0  0  0  0  0  0  0  0999 V2000
   -7.4030   14.5590   -0.1450 O   0  0  0  0  0  0  0  0  0  0  0  0
   -6.2140   14.7480    0.0520 C   0  0  0  0  0  0  0  0  0  0  0  0
   -5.6410   14.8310    1.3080 N   0  0  0  0  0  0  0  0  0  0  0  0
   -5.2270   14.9280   -1.0580 C   0  0  0  0  0  0  0  0  0  0  0  0
   -4.3610   15.2790    1.5450 C   0  0  0  0  0  0  0  0  0  0  0  0
   -3.7870   14.8550   -0.7940 C   0  0  2  0  0  0  0  0  0  0  0  0
   -5.4500   15.1590   -2.3060 N   0  0  0  0  0  0  0  0  0  0  0  0
   -2.8930   13.1230   -1.4750 I   0  0  0  0  0  0  0  0  0  0  0  0
   -3.4450   15.3030    0.5810 C   0  0  0  0  0  0  0  0  0  0  0  0
   -3.4490   15.7230   -1.8570 N   0  0  0  0  0  0  0  0  0  0  0  0
   -4.1310   15.2900   -2.8130 N   0  0  0  0  0  0  0  0  0  0  0  0
  1  2  2  0
  2  3  1  0
  2  4  1  0
  3  5  1  0
  4  6  1  0
  4  7  2  0
  6  8  1  6
  5  9  2  0
  6  9  1  0
  6 10  1  0
  7 11  1  0
 10 11  2  0
M  END
