x0837_0_A_α-x0805_0_A_β
     RDKit          3D

 19 20  0  0  0  0  0  0  0  0999 V2000
   -7.7320   14.6290    0.7860 O   0  0  0  0  0  0  0  0  0  0  0  0
   -6.5020   14.6910    0.5510 C   0  0  0  0  0  0  0  0  0  0  0  0
   -5.5480   14.7520    1.6380 N   0  0  0  0  0  0  0  0  0  0  0  0
   -6.0890   14.7160   -0.8340 C   0  0  0  0  0  0  0  0  0  0  0  0
   -4.1910   14.9630    1.2710 C   0  0  0  0  0  0  0  0  0  0  0  0
   -4.8240   15.4050   -1.0660 C   0  0  2  0  0  0  0  0  0  0  0  0
   -4.0710   14.8420   -2.9710 I   0  0  0  0  0  0  0  0  0  0  0  0
   -3.8560   15.2570    0.0310 C   0  0  0  0  0  0  0  0  0  0  0  0
   -2.0530   14.4810   -2.6520 C   0  0  0  0  0  0  0  0  0  0  0  0
   -1.4070   14.0940   -3.9260 C   0  0  0  0  0  0  0  0  0  0  0  0
   -0.0430   13.9910   -3.4390 C   0  0  1  0  0  0  0  0  0  0  0  0
    0.6540   12.6970   -3.8270 C   0  0  2  0  0  0  0  0  0  0  0  0
    0.7110   15.2650   -3.5870 C   0  0  0  0  0  0  0  0  0  0  0  0
    0.6020   11.8490   -2.6250 C   0  0  0  0  0  0  0  0  0  0  0  0
    2.1110   12.8990   -4.3090 C   0  0  0  0  0  0  0  0  0  0  0  0
    1.6200   15.0290   -4.7410 C   0  0  0  0  0  0  0  0  0  0  0  0
    0.3120   10.4920   -2.6150 O   0  0  0  0  0  0  0  0  0  0  0  0
    0.7840   12.3910   -1.5090 O   0  0  0  0  0  0  0  0  0  0  0  0
    2.5680   14.1970   -4.1820 O   0  0  0  0  0  0  0  0  0  0  0  0
  1  2  2  0
  2  3  1  0
  2  4  1  0
  3  5  1  0
  4  6  1  0
  6  7  1  6
  5  8  2  0
  6  8  1  0
  7  9  1  0
  9 10  1  0
 11 10  1  6
 11 12  1  0
 11 13  1  0
 12 14  1  1
 12 15  1  0
 13 16  1  0
 14 17  1  0
 14 18  2  0
 15 19  1  0
 16 19  1  0
M  END
