x0837_0_A-x0910_0_A
     RDKit          3D

 13 14  0  0  0  0  0  0  0  0999 V2000
   -8.0010   14.6900    0.0450 O   0  0  0  0  0  0  0  0  0  0  0  0
   -6.7360   14.8150    0.1250 C   0  0  0  0  0  0  0  0  0  0  0  0
   -6.0760   14.7800    1.3880 N   0  0  0  0  0  0  0  0  0  0  0  0
   -5.9000   15.0060   -1.0950 C   0  0  0  0  0  0  0  0  0  0  0  0
   -4.7450   15.2340    1.4590 C   0  0  0  0  0  0  0  0  0  0  0  0
   -4.5540   14.4520   -0.7840 C   0  0  1  0  0  0  0  0  0  0  0  0
   -3.0830   14.7030   -2.2740 I   0  0  0  0  0  0  0  0  0  0  0  0
   -4.0040   15.0840    0.4200 C   0  0  0  0  0  0  0  0  0  0  0  0
   -1.5010   14.7770   -0.9200 C   0  0  0  0  0  0  0  0  0  0  0  0
   -1.5930   14.6630    0.4220 N   0  0  0  0  0  0  0  0  0  0  0  0
   -0.2170   14.9560   -1.1800 N   0  0  0  0  0  0  0  0  0  0  0  0
   -0.3970   14.7760    0.9670 N   0  0  0  0  0  0  0  0  0  0  0  0
    0.4650   14.9660   -0.0420 C   0  0  0  0  0  0  0  0  0  0  0  0
  1  2  2  0
  2  3  1  0
  2  4  1  0
  3  5  1  0
  4  6  1  0
  6  7  1  6
  5  8  2  0
  6  8  1  0
  7  9  1  0
  9 10  2  0
  9 11  1  0
 10 12  1  0
 11 13  2  0
 12 13  1  0
M  END
