x0837_0_A-x0574_0_A
     RDKit          3D

 14 15  0  0  0  0  0  0  0  0999 V2000
   -7.3230   14.3440    0.7040 N   0  0  0  0  0  0  0  0  0  0  0  0
   -7.8940   14.7420    1.9840 C   0  0  0  0  0  0  0  0  0  0  0  0
   -6.0590   14.5190    0.6050 C   0  0  0  0  0  0  0  0  0  0  0  0
   -5.2800   15.0500    1.5950 N   0  0  0  0  0  0  0  0  0  0  0  0
   -5.3880   14.0850   -0.6830 C   0  0  0  0  0  0  0  0  0  0  0  0
   -3.9720   15.6520    1.4100 C   0  0  0  0  0  0  0  0  0  0  0  0
   -4.1070   14.8620   -0.9060 C   0  0  2  0  0  0  0  0  0  0  0  0
   -3.1070   14.2190   -2.7700 I   0  0  0  0  0  0  0  0  0  0  0  0
   -3.1310   14.9840    0.3050 C   0  0  2  0  0  0  0  0  0  0  0  0
   -2.3020   13.8150    0.8750 N   0  0  0  0  0  0  0  0  0  0  0  0
   -2.1690   15.9420   -0.2710 C   0  0  0  0  0  0  0  0  0  0  0  0
   -0.8200   13.8950    0.7590 C   0  0  1  0  0  0  0  0  0  0  0  0
   -0.5310   15.3920   -0.0790 S   0  0  0  0  0  0  0  0  0  0  0  0
   -0.1540   13.9440    2.0270 N   0  0  0  0  0  0  0  0  0  0  0  0
  1  2  1  0
  1  3  2  3
  3  4  1  0
  3  5  1  0
  4  6  1  0
  5  7  1  0
  7  8  1  6
  9  6  1  1
  7  9  1  0
  9 10  1  0
  9 11  1  0
 10 12  1  0
 11 13  2  0
 12 13  1  0
 12 14  1  1
M  END
