x0837_0_A_α-x0421_0_A_α
     RDKit          3D

 12 13  0  0  0  0  0  0  0  0999 V2000
   -7.6210   15.3250   -0.5540 O   0  0  0  0  0  0  0  0  0  0  0  0
   -6.4620   14.8810   -0.2490 C   0  0  0  0  0  0  0  0  0  0  0  0
   -6.1420   14.5050    1.0880 C   0  0  0  0  0  0  0  0  0  0  0  0
   -5.4290   14.6990   -1.2220 C   0  0  0  0  0  0  0  0  0  0  0  0
   -4.7970   14.9330    1.4280 C   0  0  0  0  0  0  0  0  0  0  0  0
   -4.1450   14.7520   -0.8990 C   0  0  0  0  0  0  0  0  0  0  0  0
   -7.2710   14.7500    2.1280 C   0  0  0  0  0  0  0  0  0  0  0  0
   -6.8790   13.3770    1.6880 C   0  0  0  0  0  0  0  0  0  0  0  0
   -2.7680   14.3900   -2.3840 I   0  0  1  0  0  0  0  0  0  0  0  0
   -3.8710   15.0470    0.5120 C   0  0  0  0  0  0  0  0  0  0  0  0
   -3.3980   15.4610   -4.0140 N   0  0  0  0  0  0  0  0  0  0  0  0
   -1.1510   14.9210   -1.8830 O   0  0  0  0  0  0  0  0  0  0  0  0
  1  2  2  0
  3  2  1  0
  2  4  1  0
  3  5  1  0
  4  6  2  0
  3  7  1  0
  3  8  1  0
  7  8  1  0
  6  9  1  0
  5 10  2  0
  6 10  1  0
  9 11  1  6
  9 12  2  0
M  END
