x0837_0_A_α-x0950_1_A_α
     RDKit          3D

 17 17  0  0  0  0  0  0  0  0999 V2000
   -7.5610   14.7920   -0.1410 O   0  0  0  0  0  0  0  0  0  0  0  0
   -6.3190   14.8720    0.0290 C   0  0  0  0  0  0  0  0  0  0  0  0
   -5.8300   14.8870    1.3710 N   0  0  0  0  0  0  0  0  0  0  0  0
   -5.4250   14.9400   -1.1300 C   0  0  0  0  0  0  0  0  0  0  0  0
   -4.4650   15.2820    1.5090 C   0  0  0  0  0  0  0  0  0  0  0  0
   -4.0790   14.4910   -0.7380 C   0  0  1  0  0  0  0  0  0  0  0  0
   -2.5020   14.6570   -2.1450 I   0  0  0  0  0  0  0  0  0  0  0  0
   -3.6590   15.0910    0.5250 C   0  0  0  0  0  0  0  0  0  0  0  0
   -2.9300   15.0880   -4.1400 C   0  0  0  0  0  0  0  0  0  0  0  0
   -1.6010   15.3140   -4.8610 C   0  0  0  0  0  0  0  0  0  0  0  0
   -0.9110   13.9630   -5.0230 C   0  0  0  0  0  0  0  0  0  0  0  0
    0.5760   13.9770   -4.8030 C   0  0  0  0  0  0  0  0  0  0  0  0
    1.2150   12.6110   -4.5930 C   0  0  2  0  0  0  0  0  0  0  0  0
    0.5440   11.7350   -5.4470 O   0  0  0  0  0  0  0  0  0  0  0  0
    0.9790   12.1530   -3.2050 C   0  0  0  0  0  0  0  0  0  0  0  0
    0.3710   11.0910   -2.9820 O   0  0  0  0  0  0  0  0  0  0  0  0
    1.4450   12.9000   -2.1520 O   0  0  0  0  0  0  0  0  0  0  0  0
  1  2  2  0
  2  3  1  0
  2  4  1  0
  3  5  1  0
  4  6  1  0
  6  7  1  6
  5  8  2  0
  6  8  1  0
  7  9  1  0
  9 10  1  0
 10 11  1  0
 11 12  1  0
 12 13  1  0
 13 14  1  6
 13 15  1  0
 15 16  2  0
 15 17  1  0
M  END
