x0837_0_A_α-x0900_1_A_α
     RDKit          3D

 19 20  0  0  0  0  0  0  0  0999 V2000
   -7.5190   14.7750    0.0440 O   0  0  0  0  0  0  0  0  0  0  0  0
   -6.2640   14.8530    0.1010 C   0  0  0  0  0  0  0  0  0  0  0  0
   -5.6270   14.8920    1.3550 N   0  0  0  0  0  0  0  0  0  0  0  0
   -5.5050   14.8950   -1.1740 C   0  0  0  0  0  0  0  0  0  0  0  0
   -4.2380   15.2140    1.3650 C   0  0  0  0  0  0  0  0  0  0  0  0
   -4.1300   14.4050   -0.9370 C   0  0  1  0  0  0  0  0  0  0  0  0
   -2.7910   14.5230   -2.5870 I   0  0  0  0  0  0  0  0  0  0  0  0
   -3.5540   14.9790    0.2830 C   0  0  0  0  0  0  0  0  0  0  0  0
   -2.6160   12.6070   -3.5900 C   0  0  0  0  0  0  0  0  0  0  0  0
   -1.6710   11.7240   -2.8150 C   0  0  0  0  0  0  0  0  0  0  0  0
   -0.6260   11.0240   -3.6560 C   0  0  0  0  0  0  0  0  0  0  0  0
   -1.2740   10.1510   -4.7050 C   0  0  0  0  0  0  0  0  0  0  0  0
   -1.1120   10.6260   -6.1140 C   0  0  0  0  0  0  0  0  0  0  0  0
   -1.6870    9.7550   -7.1980 C   0  0  1  0  0  0  0  0  0  0  0  0
   -0.8340    9.5430   -8.3530 C   0  0  0  0  0  0  0  0  0  0  0  0
   -1.6950    8.3180   -6.6630 C   0  0  0  0  0  0  0  0  0  0  0  0
   -0.9710   10.0310   -9.5030 O   0  0  0  0  0  0  0  0  0  0  0  0
    0.2130    8.6640   -7.9890 N   0  0  0  0  0  0  0  0  0  0  0  0
   -0.2550    7.9210   -6.8070 C   0  0  0  0  0  0  0  0  0  0  0  0
  1  2  2  0
  2  3  1  0
  2  4  1  0
  3  5  1  0
  4  6  1  0
  6  7  1  6
  5  8  2  0
  6  8  1  0
  7  9  1  0
  9 10  1  0
 10 11  1  0
 11 12  1  0
 12 13  1  0
 14 13  1  1
 14 15  1  0
 14 16  1  0
 15 17  2  0
 15 18  1  0
 16 19  1  0
 18 19  1  0
M  END
