x0837_0_A_α-x0662_0_A_β
     RDKit          3D

 21 22  0  0  0  0  0  0  0  0999 V2000
   -7.6050   14.6950    0.0310 O   0  0  0  0  0  0  0  0  0  0  0  0
   -6.3580   14.8530    0.0930 C   0  0  0  0  0  0  0  0  0  0  0  0
   -5.7110   14.8690    1.3590 N   0  0  0  0  0  0  0  0  0  0  0  0
   -5.5080   15.0330   -1.1170 C   0  0  0  0  0  0  0  0  0  0  0  0
   -4.3470   15.2550    1.4270 C   0  0  0  0  0  0  0  0  0  0  0  0
   -4.1520   14.4290   -0.8430 C   0  0  1  0  0  0  0  0  0  0  0  0
   -2.8720   14.6250   -2.5360 I   0  0  0  0  0  0  0  0  0  0  0  0
   -3.5960   15.0410    0.3680 C   0  0  0  0  0  0  0  0  0  0  0  0
   -0.9460   13.8900   -2.0320 C   0  0  0  0  0  0  0  0  0  0  0  0
   -0.2680   13.2290   -3.1770 C   0  0  0  0  0  0  0  0  0  0  0  0
   -0.9000   11.9310   -3.6470 C   0  0  0  0  0  0  0  0  0  0  0  0
   -0.5610   11.4640   -4.8710 N   0  0  0  0  0  0  0  0  0  0  0  0
    0.1370   11.4050   -5.8480 C   0  0  0  0  0  0  0  0  0  0  0  0
    1.2910   12.2530   -5.8370 O   0  0  0  0  0  0  0  0  0  0  0  0
   -0.0050   10.5990   -7.0480 C   0  0  0  0  0  0  0  0  0  0  0  0
    0.7770   10.8450   -8.1830 C   0  0  0  0  0  0  0  0  0  0  0  0
   -0.8880    9.5530   -7.1910 C   0  0  0  0  0  0  0  0  0  0  0  0
    0.7010   10.1460   -9.3420 C   0  0  0  0  0  0  0  0  0  0  0  0
   -0.9780    8.8290   -8.3600 C   0  0  0  0  0  0  0  0  0  0  0  0
    1.5330   10.4850  -10.4280 N   0  0  0  0  0  0  0  0  0  0  0  0
   -0.1800    9.1200   -9.4550 C   0  0  0  0  0  0  0  0  0  0  0  0
  1  2  2  0
  2  3  1  0
  2  4  1  0
  3  5  1  0
  4  6  1  0
  6  7  1  6
  5  8  2  0
  6  8  1  0
  7  9  1  0
  9 10  1  0
 10 11  1  0
 11 12  1  0
 12 13  2  3
 13 14  1  0
 13 15  1  0
 15 16  2  0
 15 17  1  0
 16 18  1  0
 17 19  2  0
 18 20  1  0
 18 21  2  0
 19 21  1  0
M  CHG  1  14  -1
M  END
