x0837_0_A-x0465_0_A
     RDKit          3D

 24 25  0  0  0  0  0  0  0  0999 V2000
   -7.4800   14.7530    0.0690 O   0  0  0  0  0  0  0  0  0  0  0  0
   -6.2340   14.7940    0.1500 C   0  0  0  0  0  0  0  0  0  0  0  0
   -5.5540   14.7900    1.4160 N   0  0  0  0  0  0  0  0  0  0  0  0
   -5.4560   14.8480   -1.1090 C   0  0  0  0  0  0  0  0  0  0  0  0
   -4.1290   14.8360    1.3520 C   0  0  0  0  0  0  0  0  0  0  0  0
   -4.0240   15.3060   -1.0190 C   0  0  2  0  0  0  0  0  0  0  0  0
   -3.0000   14.4320   -2.6550 I   0  0  0  0  0  0  0  0  0  0  0  0
   -3.4330   15.0620    0.2800 C   0  0  0  0  0  0  0  0  0  0  0  0
   -0.9480   14.7810   -2.8960 C   0  0  0  0  0  0  0  0  0  0  0  0
   -0.0890   14.7440   -1.6360 C   0  0  0  0  0  0  0  0  0  0  0  0
    1.1660   13.9930   -2.0140 C   0  0  0  0  0  0  0  0  0  0  0  0
    0.8910   12.6030   -2.0580 N   0  0  0  0  0  0  0  0  0  0  0  0
    0.7370   11.9330   -3.1160 C   0  0  0  0  0  0  0  0  0  0  0  0
    0.8250   12.5030   -4.4990 C   0  0  1  0  0  0  0  0  0  0  0  0
    0.4570   10.5790   -2.9740 O   0  0  0  0  0  0  0  0  0  0  0  0
    2.2300   13.0530   -4.7880 C   0  0  0  0  0  0  0  0  0  0  0  0
    0.5630   11.5100   -5.4390 O   0  0  0  0  0  0  0  0  0  0  0  0
   -0.6050   10.8310   -5.6210 C   0  0  0  0  0  0  0  0  0  0  0  0
   -0.6620    9.8160   -6.5640 C   0  0  0  0  0  0  0  0  0  0  0  0
   -1.7510   11.0920   -4.9160 C   0  0  0  0  0  0  0  0  0  0  0  0
    0.4300    9.4850   -7.3210 F   0  0  0  0  0  0  0  0  0  0  0  0
   -1.8070    9.0850   -6.7950 C   0  0  0  0  0  0  0  0  0  0  0  0
   -2.9100   10.3790   -5.1280 C   0  0  0  0  0  0  0  0  0  0  0  0
   -2.9390    9.3690   -6.0700 C   0  0  0  0  0  0  0  0  0  0  0  0
  1  2  2  0
  2  3  1  0
  2  4  1  0
  3  5  1  0
  4  6  1  0
  6  7  1  6
  5  8  2  0
  6  8  1  0
  7  9  1  0
  9 10  1  0
 10 11  1  0
 11 12  1  0
 12 13  2  3
 13 14  1  0
 13 15  1  0
 14 16  1  6
 14 17  1  0
 17 18  1  0
 18 19  2  0
 18 20  1  0
 19 21  1  0
 19 22  1  0
 20 23  2  0
 22 24  2  0
 23 24  1  0
M  END
