x0837_0_A_α-x0864_0_A_α
     RDKit          3D

 23 24  0  0  0  0  0  0  0  0999 V2000
   -7.5580   14.6430    0.1160 O   0  0  0  0  0  0  0  0  0  0  0  0
   -6.3310   14.8550    0.1610 C   0  0  0  0  0  0  0  0  0  0  0  0
   -5.6460   14.7980    1.4200 N   0  0  0  0  0  0  0  0  0  0  0  0
   -5.5770   15.1750   -1.0900 C   0  0  0  0  0  0  0  0  0  0  0  0
   -4.2730   15.1370    1.4300 C   0  0  0  0  0  0  0  0  0  0  0  0
   -4.2260   14.5470   -0.9100 C   0  0  1  0  0  0  0  0  0  0  0  0
   -3.1070   14.8300   -2.6990 I   0  0  0  0  0  0  0  0  0  0  0  0
   -3.5970   15.0160    0.3140 C   0  0  0  0  0  0  0  0  0  0  0  0
   -1.0960   14.2530   -2.4710 C   0  0  0  0  0  0  0  0  0  0  0  0
   -0.1390   14.9470   -3.4430 C   0  0  0  0  0  0  0  0  0  0  0  0
    0.1270   14.1660   -4.6770 C   0  0  0  0  0  0  0  0  0  0  0  0
    0.5920   12.7380   -4.5360 C   0  0  1  0  0  0  0  0  0  0  0  0
    0.7740   12.2650   -3.1670 C   0  0  0  0  0  0  0  0  0  0  0  0
   -0.0830   11.8520   -5.4220 N   0  0  0  0  0  0  0  0  0  0  0  0
    0.3930   10.9690   -2.8700 O   0  0  0  0  0  0  0  0  0  0  0  0
    1.2470   12.9700   -2.2740 O   0  0  0  0  0  0  0  0  0  0  0  0
   -1.2480   11.2770   -4.9960 C   0  0  0  0  0  0  0  0  0  0  0  0
    0.4470   11.2900   -6.5020 C   0  0  0  0  0  0  0  0  0  0  0  0
    1.5300   11.7240   -6.9320 O   0  0  0  0  0  0  0  0  0  0  0  0
   -1.8480   10.2150   -5.6180 C   0  0  0  0  0  0  0  0  0  0  0  0
   -0.0930   10.2240   -7.1980 C   0  0  0  0  0  0  0  0  0  0  0  0
   -1.2620    9.6780   -6.7410 C   0  0  0  0  0  0  0  0  0  0  0  0
   -2.0640    8.2010   -7.6480 Br  0  0  0  0  0  0  0  0  0  0  0  0
  1  2  2  0
  2  3  1  0
  2  4  1  0
  3  5  1  0
  4  6  1  0
  6  7  1  6
  5  8  2  0
  6  8  1  0
  7  9  1  0
  9 10  1  0
 10 11  1  0
 12 11  1  1
 12 13  1  0
 12 14  1  0
 13 15  1  0
 13 16  2  0
 14 17  1  0
 14 18  1  0
 18 19  2  0
 17 20  2  0
 18 21  1  0
 20 22  1  0
 21 22  2  0
 22 23  1  0
M  END
