x0837_0_A-x0962_1_A
     RDKit          3D

  9  9  0  0  0  0  0  0  0  0999 V2000
   -7.6920   14.7540    0.2650 O   0  0  0  0  0  0  0  0  0  0  0  0
   -6.4390   14.7380    0.3530 C   0  0  0  0  0  0  0  0  0  0  0  0
   -5.8200   14.9100    1.6220 N   0  0  0  0  0  0  0  0  0  0  0  0
   -5.6310   14.5410   -0.8650 C   0  0  0  0  0  0  0  0  0  0  0  0
   -4.4780   15.3810    1.5840 C   0  0  0  0  0  0  0  0  0  0  0  0
   -4.2700   14.2440   -0.4260 C   0  0  1  0  0  0  0  0  0  0  0  0
   -3.0750   14.7370   -2.3060 I   0  0  0  0  0  0  0  0  0  0  0  0
   -3.6970   15.0650    0.5880 C   0  0  0  0  0  0  0  0  0  0  0  0
   -3.3430   15.5780   -3.6370 C   0  0  0  0  0  0  0  0  0  0  0  0
  1  2  2  0
  2  3  1  0
  2  4  1  0
  3  5  1  0
  4  6  1  0
  6  7  1  6
  5  8  2  0
  6  8  1  0
  7  9  3  0
M  END
