x0837_0_A-x0722_0_A
     RDKit          3D

 17 19  0  0  0  0  0  0  0  0999 V2000
   -6.4890   14.5000   -1.4520 N   0  0  0  0  0  0  0  0  0  0  0  0
   -5.6790   14.8900   -0.6360 C   0  0  0  0  0  0  0  0  0  0  0  0
   -4.9310   13.6910   -0.4210 N   0  0  0  0  0  0  0  0  0  0  0  0
   -5.9170   13.2760   -1.5720 C   0  0  0  0  0  0  0  0  0  0  0  0
   -5.0700   15.7460    0.1900 C   0  0  0  0  0  0  0  0  0  0  0  0
   -6.5860   12.1760   -1.3670 N   0  0  0  0  0  0  0  0  0  0  0  0
   -4.6050   12.9840   -1.8590 C   0  0  0  0  0  0  0  0  0  0  0  0
   -2.9150   14.1760   -2.2470 I   0  0  0  0  0  0  0  0  0  0  0  0
   -5.7650   11.1420   -1.5060 C   0  0  0  0  0  0  0  0  0  0  0  0
   -4.4960   11.6590   -1.8220 C   0  0  0  0  0  0  0  0  0  0  0  0
   -3.7520   15.3000    0.4400 C   0  0  0  0  0  0  0  0  0  0  0  0
   -3.3610   15.4370    1.6630 C   0  0  0  0  0  0  0  0  0  0  0  0
   -2.7610   14.7250   -0.2550 C   0  0  0  0  0  0  0  0  0  0  0  0
   -4.2560   15.9960    2.6540 C   0  0  0  0  0  0  0  0  0  0  0  0
   -2.1010   14.9880    1.7420 N   0  0  0  0  0  0  0  0  0  0  0  0
   -1.7020   14.5400    0.5460 N   0  0  0  0  0  0  0  0  0  0  0  0
   -0.3830   13.9820    0.3150 C   0  0  0  0  0  0  0  0  0  0  0  0
  1  2  2  0
  2  3  1  0
  1  4  1  0
  2  5  1  0
  4  6  1  0
  4  7  2  0
  7  8  1  0
  6  9  1  0
  7 10  1  0
  9 10  2  0
  5 11  1  0
 11 12  1  0
  8 13  1  0
 11 13  2  0
 12 14  1  0
 12 15  2  0
 13 16  1  0
 15 16  1  0
 16 17  1  0
M  END
