x0837_0_A-x0253_0_A
     RDKit          3D

 25 26  0  0  0  0  0  0  0  0999 V2000
   -7.6400   14.6220    0.2740 O   0  0  0  0  0  0  0  0  0  0  0  0
   -6.4060   14.7990    0.2320 C   0  0  0  0  0  0  0  0  0  0  0  0
   -5.6160   14.8290    1.4050 N   0  0  0  0  0  0  0  0  0  0  0  0
   -5.7550   14.9890   -1.0710 C   0  0  0  0  0  0  0  0  0  0  0  0
   -4.2500   15.1860    1.2950 C   0  0  0  0  0  0  0  0  0  0  0  0
   -4.3390   14.5180   -1.0430 C   0  0  1  0  0  0  0  0  0  0  0  0
   -3.4570   15.1310   -2.8770 I   0  0  0  0  0  0  0  0  0  0  0  0
   -3.6410   15.0380    0.1360 C   0  0  0  0  0  0  0  0  0  0  0  0
   -1.6370   14.0690   -3.2380 C   0  0  0  0  0  0  0  0  0  0  0  0
   -1.9740   12.6470   -3.5380 C   0  0  0  0  0  0  0  0  0  0  0  0
   -1.2030   11.6590   -2.7990 C   0  0  0  0  0  0  0  0  0  0  0  0
    0.2450   11.7770   -2.7560 C   0  0  0  0  0  0  0  0  0  0  0  0
    0.7360   12.3760   -1.5900 O   0  0  0  0  0  0  0  0  0  0  0  0
    0.6180   10.4010   -2.5720 O   0  0  0  0  0  0  0  0  0  0  0  0
    0.9640   12.2810   -3.9820 C   0  0  0  0  0  0  0  0  0  0  0  0
    0.3090   12.0050   -5.2530 N   0  0  0  0  0  0  0  0  0  0  0  0
    1.0340   11.6730   -6.4490 C   0  0  0  0  0  0  0  0  0  0  0  0
    2.1840   12.1530   -6.5970 O   0  0  0  0  0  0  0  0  0  0  0  0
    0.4490   10.7640   -7.4410 C   0  0  0  0  0  0  0  0  0  0  0  0
   -0.5060    9.8410   -7.1450 C   0  0  0  0  0  0  0  0  0  0  0  0
    0.8460   10.7910   -8.7820 C   0  0  0  0  0  0  0  0  0  0  0  0
   -1.0720    8.9770   -8.0690 C   0  0  0  0  0  0  0  0  0  0  0  0
    0.3190    9.9590   -9.7290 C   0  0  0  0  0  0  0  0  0  0  0  0
   -2.1160    7.9910   -7.6850 C   0  0  0  0  0  0  0  0  0  0  0  0
   -0.6570    9.0320   -9.3810 C   0  0  0  0  0  0  0  0  0  0  0  0
  1  2  2  0
  2  3  1  0
  2  4  1  0
  3  5  1  0
  4  6  1  0
  6  7  1  6
  5  8  2  0
  6  8  1  0
  7  9  1  0
  9 10  1  0
 10 11  1  0
 11 12  1  0
 12 13  1  0
 12 14  1  0
 12 15  1  0
 15 16  1  0
 16 17  1  0
 17 18  2  0
 17 19  1  0
 19 20  2  0
 19 21  1  0
 20 22  1  0
 21 23  2  0
 22 24  1  0
 22 25  2  0
 23 25  1  0
M  END
