x0837_0_A_α-x0591_0_A_α
     RDKit          3D

 21 22  0  0  0  0  0  0  0  0999 V2000
   -6.5910   14.7220    0.2710 N   0  0  0  0  0  0  0  0  0  0  0  0
   -6.8250   14.3060   -0.8980 C   0  0  0  0  0  0  0  0  0  0  0  0
   -8.1290   13.9940   -1.0430 N   0  0  0  0  0  0  0  0  0  0  0  0
   -5.2840   14.9870    0.4680 C   0  0  0  0  0  0  0  0  0  0  0  0
   -4.9250   15.0530    1.7320 N   0  0  0  0  0  0  0  0  0  0  0  0
   -4.4490   15.1380   -0.6070 C   0  0  0  0  0  0  0  0  0  0  0  0
   -5.7590   14.1950   -1.9500 C   0  0  0  0  0  0  0  0  0  0  0  0
   -8.9390   13.9610    0.1570 C   0  0  0  0  0  0  0  0  0  0  0  0
   -3.6320   15.2690    1.9510 C   0  0  0  0  0  0  0  0  0  0  0  0
   -3.1220   15.3540   -0.3480 C   0  0  0  0  0  0  0  0  0  0  0  0
   -4.5290   13.5510   -1.6850 C   0  0  0  0  0  0  0  0  0  0  0  0
   -5.9960   14.7550   -3.1980 C   0  0  0  0  0  0  0  0  0  0  0  0
   -1.7930   15.5470   -1.9210 I   0  0  0  0  0  0  0  0  0  0  0  0
   -2.6860   15.4250    0.9570 C   0  0  0  0  0  0  0  0  0  0  0  0
   -3.5410   13.4940   -2.6830 C   0  0  0  0  0  0  0  0  0  0  0  0
   -5.0120   14.6910   -4.1890 C   0  0  0  0  0  0  0  0  0  0  0  0
   -3.7920   14.0740   -3.9340 C   0  0  0  0  0  0  0  0  0  0  0  0
   -2.5830   14.0500   -5.2420 S   0  0  0  0  0  0  0  0  0  0  0  0
   -1.3740   15.0870   -4.6960 N   0  0  0  0  0  0  0  0  0  0  0  0
   -1.9760   12.7430   -5.2860 O   0  0  0  0  0  0  0  0  0  0  0  0
   -3.1890   14.6690   -6.3980 O   0  0  0  0  0  0  0  0  0  0  0  0
  1  2  2  3
  2  3  1  0
  1  4  1  0
  4  5  2  0
  4  6  1  0
  2  7  1  0
  3  8  1  0
  5  9  1  0
  6 10  2  0
  7 11  2  0
  7 12  1  0
 10 13  1  0
  9 14  2  0
 10 14  1  0
 11 15  1  0
 12 16  2  0
 15 17  2  0
 16 17  1  0
 17 18  1  0
 18 19  1  0
 18 20  2  0
 18 21  2  0
M  END
