x0837_0_A-x0910_0_A
     RDKit          3D

 13 14  0  0  0  0  0  0  0  0999 V2000
   -7.9980   14.6760    0.0430 O   0  0  0  0  0  0  0  0  0  0  0  0
   -6.7350   14.8060    0.1240 C   0  0  0  0  0  0  0  0  0  0  0  0
   -6.0730   14.7700    1.3890 N   0  0  0  0  0  0  0  0  0  0  0  0
   -5.8960   15.0010   -1.0930 C   0  0  0  0  0  0  0  0  0  0  0  0
   -4.7430   15.2290    1.4550 C   0  0  0  0  0  0  0  0  0  0  0  0
   -4.5490   14.4520   -0.7870 C   0  0  1  0  0  0  0  0  0  0  0  0
   -3.0780   14.7010   -2.2740 I   0  0  0  0  0  0  0  0  0  0  0  0
   -4.0020   15.0810    0.4180 C   0  0  0  0  0  0  0  0  0  0  0  0
   -1.4990   14.7730   -0.9150 C   0  0  0  0  0  0  0  0  0  0  0  0
   -1.5980   14.6610    0.4250 N   0  0  0  0  0  0  0  0  0  0  0  0
   -0.2140   14.9510   -1.1740 N   0  0  0  0  0  0  0  0  0  0  0  0
   -0.4010   14.7750    0.9710 N   0  0  0  0  0  0  0  0  0  0  0  0
    0.4670   14.9610   -0.0330 C   0  0  0  0  0  0  0  0  0  0  0  0
  1  2  2  0
  2  3  1  0
  2  4  1  0
  3  5  1  0
  4  6  1  0
  6  7  1  6
  5  8  2  0
  6  8  1  0
  7  9  1  0
  9 10  2  0
  9 11  1  0
 10 12  1  0
 11 13  2  0
 12 13  1  0
M  END
