x0837_0_A_α-x0950_0_A_α
     RDKit          3D

 17 17  0  0  0  0  0  0  0  0999 V2000
   -7.6410   14.6850    0.0280 O   0  0  0  0  0  0  0  0  0  0  0  0
   -6.4010   14.8800    0.0860 C   0  0  0  0  0  0  0  0  0  0  0  0
   -5.7560   14.8570    1.3660 N   0  0  0  0  0  0  0  0  0  0  0  0
   -5.5510   15.1420   -1.1120 C   0  0  0  0  0  0  0  0  0  0  0  0
   -4.4220   15.2860    1.4760 C   0  0  0  0  0  0  0  0  0  0  0  0
   -4.2130   14.5530   -0.8000 C   0  0  1  0  0  0  0  0  0  0  0  0
   -2.7760   14.5790   -2.3250 I   0  0  0  0  0  0  0  0  0  0  0  0
   -3.6600   15.1410    0.4290 C   0  0  0  0  0  0  0  0  0  0  0  0
   -0.9390   13.9090   -1.5320 C   0  0  0  0  0  0  0  0  0  0  0  0
    0.2290   14.8270   -1.7490 C   0  0  0  0  0  0  0  0  0  0  0  0
    1.5200   14.0800   -1.8320 C   0  0  0  0  0  0  0  0  0  0  0  0
    1.3260   12.6980   -1.9570 O   0  0  0  0  0  0  0  0  0  0  0  0
    0.9540   12.0770   -3.1250 C   0  0  0  0  0  0  0  0  0  0  0  0
    1.2230   12.7360   -4.4440 C   0  0  1  0  0  0  0  0  0  0  0  0
    0.3920   10.9520   -3.0470 O   0  0  0  0  0  0  0  0  0  0  0  0
    2.7110   13.0230   -4.5220 C   0  0  0  0  0  0  0  0  0  0  0  0
    0.8490   11.9100   -5.4900 O   0  0  0  0  0  0  0  0  0  0  0  0
  1  2  2  0
  2  3  1  0
  2  4  1  0
  3  5  1  0
  4  6  1  0
  6  7  1  6
  5  8  2  0
  6  8  1  0
  7  9  1  0
  9 10  1  0
 10 11  1  0
 11 12  1  0
 12 13  1  0
 13 14  1  0
 13 15  2  0
 14 16  1  6
 14 17  1  0
M  END
