x0837_0_A-x0128_0_A
     RDKit          3D

 18 19  0  0  0  0  0  0  0  0999 V2000
   -7.7000   14.7010    0.0620 O   0  0  0  0  0  0  0  0  0  0  0  0
   -6.4780   14.7630    0.1640 C   0  0  0  0  0  0  0  0  0  0  0  0
   -5.8140   14.9240    1.3730 N   0  0  0  0  0  0  0  0  0  0  0  0
   -5.6050   14.6660   -1.0380 C   0  0  0  0  0  0  0  0  0  0  0  0
   -6.5000   14.5380    2.5600 N   0  0  0  0  0  0  0  0  0  0  0  0
   -4.4720   15.2240    1.4520 C   0  0  0  0  0  0  0  0  0  0  0  0
   -4.2850   14.8710   -0.9300 C   0  0  0  0  0  0  0  0  0  0  0  0
   -3.0870   14.7010   -2.6110 I   0  0  0  0  0  0  0  0  0  0  0  0
   -7.6920   15.1420    3.0040 C   0  0  0  0  0  0  0  0  0  0  0  0
   -3.7020   15.2030    0.3570 C   0  0  0  0  0  0  0  0  0  0  0  0
   -8.6290   15.4530    2.2730 O   0  0  0  0  0  0  0  0  0  0  0  0
   -7.6290   15.3240    4.3780 N   0  0  0  0  0  0  0  0  0  0  0  0
   -8.4600   16.1190    5.2110 C   0  0  0  0  0  0  0  0  0  0  0  0
   -9.1620   17.2560    4.8200 C   0  0  0  0  0  0  0  0  0  0  0  0
   -8.5900   15.7300    6.5470 C   0  0  0  0  0  0  0  0  0  0  0  0
   -9.9490   17.9930    5.6470 N   0  0  0  0  0  0  0  0  0  0  0  0
   -9.3900   16.4720    7.4190 C   0  0  0  0  0  0  0  0  0  0  0  0
  -10.0430   17.5860    6.9240 C   0  0  0  0  0  0  0  0  0  0  0  0
  1  2  2  0
  2  3  1  0
  2  4  1  0
  3  5  1  0
  3  6  1  0
  4  7  2  0
  7  8  1  0
  5  9  1  0
  6 10  2  0
  7 10  1  0
  9 11  2  0
  9 12  1  0
 12 13  1  0
 13 14  2  0
 13 15  1  0
 14 16  1  0
 15 17  2  0
 16 18  2  0
 17 18  1  0
M  END
