x0837_0_A-x0282_0_A
     RDKit          3D

 14 15  0  0  0  0  0  0  0  0999 V2000
   -7.1920   14.2580    0.3080 N   0  0  0  0  0  0  0  0  0  0  0  0
   -8.0340   14.5810    1.4370 C   0  0  0  0  0  0  0  0  0  0  0  0
   -5.9250   14.4760    0.3760 C   0  0  0  0  0  0  0  0  0  0  0  0
   -5.2160   15.0270    1.4300 N   0  0  0  0  0  0  0  0  0  0  0  0
   -5.1440   14.0610   -0.8450 C   0  0  0  0  0  0  0  0  0  0  0  0
   -3.8870   15.6660    1.3100 C   0  0  0  0  0  0  0  0  0  0  0  0
   -3.9400   14.9480   -1.0510 C   0  0  2  0  0  0  0  0  0  0  0  0
   -2.9210   14.4110   -2.9450 I   0  0  0  0  0  0  0  0  0  0  0  0
   -2.9560   15.1110    0.1640 C   0  0  1  0  0  0  0  0  0  0  0  0
   -2.0110   16.0990   -0.3900 N   0  0  0  0  0  0  0  0  0  0  0  0
   -2.2180   13.9270    0.6960 N   0  0  0  0  0  0  0  0  0  0  0  0
   -0.7380   15.5080   -0.8060 C   0  0  0  0  0  0  0  0  0  0  0  0
   -0.8770   14.0650    1.0700 C   0  0  0  0  0  0  0  0  0  0  0  0
   -0.1040   14.8440    0.3410 C   0  0  0  0  0  0  0  0  0  0  0  0
  1  2  1  0
  1  3  2  3
  3  4  1  0
  3  5  1  0
  4  6  1  0
  5  7  1  0
  7  8  1  6
  9  6  1  1
  7  9  1  0
  9 10  1  0
  9 11  1  0
 10 12  1  0
 11 13  1  0
 12 14  1  0
 13 14  2  0
M  END
