x0837_0_A-x0933_0_A
     RDKit          3D

  8  8  0  0  0  0  0  0  0  0999 V2000
   -7.5950   14.6920    0.2120 O   0  0  0  0  0  0  0  0  0  0  0  0
   -6.3720   14.8470    0.1650 C   0  0  0  0  0  0  0  0  0  0  0  0
   -5.6050   14.9030    1.3090 N   0  0  0  0  0  0  0  0  0  0  0  0
   -5.6180   14.9860   -1.1340 C   0  0  0  0  0  0  0  0  0  0  0  0
   -4.2720   15.2060    1.3180 C   0  0  0  0  0  0  0  0  0  0  0  0
   -4.2130   14.4360   -0.9920 C   0  0  1  0  0  0  0  0  0  0  0  0
   -3.0290   14.8110   -2.7620 I   0  0  0  0  0  0  0  0  0  0  0  0
   -3.5400   14.9970    0.2250 C   0  0  0  0  0  0  0  0  0  0  0  0
  1  2  2  0
  2  3  1  0
  2  4  1  0
  3  5  1  0
  4  6  1  0
  6  7  1  6
  5  8  2  0
  6  8  1  0
M  END
