x0837_0_A-x0471_0_A
     RDKit          3D

 19 21  0  0  0  0  0  0  0  0999 V2000
   -2.8930   14.5940   -2.5690 I   0  0  0  0  0  0  0  0  0  0  0  0
   -4.4380   14.7780   -1.0480 C   0  0  2  0  0  0  0  0  0  0  0  0
   -3.8030   15.2790    0.2210 C   0  0  0  0  0  0  0  0  0  0  0  0
   -5.2010   13.4320   -0.9120 C   0  0  1  0  0  0  0  0  0  0  0  0
   -4.3000   14.9250    1.3790 C   0  0  0  0  0  0  0  0  0  0  0  0
   -5.3280   12.9120    0.5290 C   0  0  1  0  0  0  0  0  0  0  0  0
   -6.6720   13.5110   -1.3670 C   0  0  0  0  0  0  0  0  0  0  0  0
   -5.3660   14.0900    1.4210 N   0  0  0  0  0  0  0  0  0  0  0  0
   -7.5090   13.2230   -0.1730 N   0  0  0  0  0  0  0  0  0  0  0  0
   -6.6940   12.2220    0.5500 C   0  0  0  0  0  0  0  0  0  0  0  0
   -7.6490   14.4590    0.6750 C   0  0  2  0  0  0  0  0  0  0  0  0
   -6.6160   14.6660    1.7330 N   0  0  0  0  0  0  0  0  0  0  0  0
   -9.0520   14.5140    1.3600 C   0  0  0  0  0  0  0  0  0  0  0  0
   -9.0220   14.0890    2.7540 N   0  0  0  0  0  0  0  0  0  0  0  0
   -9.0520   15.0250    3.7660 C   0  0  0  0  0  0  0  0  0  0  0  0
   -9.3100   16.2140    3.5800 O   0  0  0  0  0  0  0  0  0  0  0  0
   -8.7530   14.4770    5.1580 C   0  0  0  0  0  0  0  0  0  0  0  0
   -9.9430   13.6790    5.6920 C   0  0  0  0  0  0  0  0  0  0  0  0
   -8.3370   15.5820    6.1230 C   0  0  0  0  0  0  0  0  0  0  0  0
  2  1  1  6
  2  3  1  0
  2  4  1  0
  3  5  2  0
  4  6  1  0
  4  7  1  1
  5  8  1  0
  6  8  1  0
  7  9  1  0
  6 10  1  6
  9 10  1  0
  9 11  1  0
  8 12  1  0
 11 12  1  0
 11 13  1  1
 13 14  1  0
 14 15  1  0
 15 16  2  0
 15 17  1  0
 17 18  1  0
 17 19  1  0
M  END
