x0837_0_A-x0967_0_A
     RDKit          3D

 12 13  0  0  0  0  0  0  0  0999 V2000
   -8.2150   15.4430    2.0900 O   0  0  0  0  0  0  0  0  0  0  0  0
   -7.0550   14.7230    2.4590 C   0  0  0  0  0  0  0  0  0  0  0  0
   -6.6710   14.1420    1.2480 N   0  0  0  0  0  0  0  0  0  0  0  0
   -5.4400   14.4280    0.7170 C   0  0  0  0  0  0  0  0  0  0  0  0
   -7.7190   14.0910    0.3640 C   0  0  0  0  0  0  0  0  0  0  0  0
   -4.2040   14.6540    1.1660 C   0  0  0  0  0  0  0  0  0  0  0  0
   -5.3610   14.5560   -0.7720 C   0  0  0  0  0  0  0  0  0  0  0  0
   -7.5860   14.2580   -0.9420 C   0  0  0  0  0  0  0  0  0  0  0  0
   -3.3050   14.8650    0.0730 C   0  0  0  0  0  0  0  0  0  0  0  0
   -3.9400   14.7820   -1.1070 C   0  0  0  0  0  0  0  0  0  0  0  0
   -6.3820   14.4850   -1.5660 N   0  0  0  0  0  0  0  0  0  0  0  0
   -3.2030   14.9140   -2.9410 I   0  0  0  0  0  0  0  0  0  0  0  0
  1  2  1  0
  2  3  1  0
  3  4  1  0
  3  5  1  0
  4  6  2  0
  4  7  1  0
  5  8  2  0
  6  9  1  0
  7 10  1  0
  9 10  2  0
  7 11  2  0
  8 11  1  0
 10 12  1  0
M  END
