x0837_0_A_α-x0253_0_A_α
     RDKit          3D

 25 26  0  0  0  0  0  0  0  0999 V2000
   -7.6390   14.6220    0.2740 O   0  0  0  0  0  0  0  0  0  0  0  0
   -6.4050   14.7980    0.2320 C   0  0  0  0  0  0  0  0  0  0  0  0
   -5.6150   14.8260    1.4040 N   0  0  0  0  0  0  0  0  0  0  0  0
   -5.7550   14.9900   -1.0710 C   0  0  0  0  0  0  0  0  0  0  0  0
   -4.2490   15.1840    1.2960 C   0  0  0  0  0  0  0  0  0  0  0  0
   -4.3380   14.5170   -1.0430 C   0  0  1  0  0  0  0  0  0  0  0  0
   -3.4580   15.1280   -2.8760 I   0  0  0  0  0  0  0  0  0  0  0  0
   -3.6410   15.0370    0.1360 C   0  0  0  0  0  0  0  0  0  0  0  0
   -1.6380   14.0690   -3.2380 C   0  0  0  0  0  0  0  0  0  0  0  0
   -1.9740   12.6460   -3.5390 C   0  0  0  0  0  0  0  0  0  0  0  0
   -1.2020   11.6600   -2.8010 C   0  0  0  0  0  0  0  0  0  0  0  0
    0.2460   11.7760   -2.7550 C   0  0  0  0  0  0  0  0  0  0  0  0
    0.7340   12.3760   -1.5890 O   0  0  0  0  0  0  0  0  0  0  0  0
    0.6170   10.4010   -2.5720 O   0  0  0  0  0  0  0  0  0  0  0  0
    0.9640   12.2810   -3.9820 C   0  0  0  0  0  0  0  0  0  0  0  0
    0.3080   12.0030   -5.2520 N   0  0  0  0  0  0  0  0  0  0  0  0
    1.0360   11.6720   -6.4490 C   0  0  0  0  0  0  0  0  0  0  0  0
    2.1860   12.1520   -6.5960 O   0  0  0  0  0  0  0  0  0  0  0  0
    0.4510   10.7640   -7.4410 C   0  0  0  0  0  0  0  0  0  0  0  0
   -0.5060    9.8410   -7.1450 C   0  0  0  0  0  0  0  0  0  0  0  0
    0.8470   10.7920   -8.7820 C   0  0  0  0  0  0  0  0  0  0  0  0
   -1.0730    8.9780   -8.0690 C   0  0  0  0  0  0  0  0  0  0  0  0
    0.3180    9.9590   -9.7290 C   0  0  0  0  0  0  0  0  0  0  0  0
   -2.1180    7.9920   -7.6850 C   0  0  0  0  0  0  0  0  0  0  0  0
   -0.6580    9.0330   -9.3800 C   0  0  0  0  0  0  0  0  0  0  0  0
  1  2  2  0
  2  3  1  0
  2  4  1  0
  3  5  1  0
  4  6  1  0
  6  7  1  6
  5  8  2  0
  6  8  1  0
  7  9  1  0
  9 10  1  0
 10 11  1  0
 11 12  1  0
 12 13  1  0
 12 14  1  0
 12 15  1  0
 15 16  1  0
 16 17  1  0
 17 18  2  0
 17 19  1  0
 19 20  2  0
 19 21  1  0
 20 22  1  0
 21 23  2  0
 22 24  1  0
 22 25  2  0
 23 25  1  0
M  END
