x0837_0_A_α-x0626_0_A_α
     RDKit          3D

 18 19  0  0  0  0  0  0  0  0999 V2000
   -6.7810   14.0120    0.5960 N   0  0  0  0  0  0  0  0  0  0  0  0
   -7.3660   13.2930   -0.5010 C   0  0  0  0  0  0  0  0  0  0  0  0
   -6.1630   12.4720   -0.9510 C   0  0  0  0  0  0  0  0  0  0  0  0
   -5.8250   14.8050    0.2820 C   0  0  0  0  0  0  0  0  0  0  0  0
   -5.1430   15.4330    1.2850 N   0  0  0  0  0  0  0  0  0  0  0  0
   -5.3290   15.0990   -1.1420 C   0  0  0  0  0  0  0  0  0  0  0  0
   -5.0930   12.3490   -0.1010 N   0  0  0  0  0  0  0  0  0  0  0  0
   -6.1300   11.9150   -2.0520 O   0  0  0  0  0  0  0  0  0  0  0  0
   -3.9890   16.1160    1.0330 C   0  0  0  0  0  0  0  0  0  0  0  0
   -3.8070   15.0510   -1.1420 C   0  0  1  0  0  0  0  0  0  0  0  0
   -2.8620   15.4740   -3.0650 I   0  0  0  0  0  0  0  0  0  0  0  0
   -3.2840   15.9730   -0.1000 C   0  0  0  0  0  0  0  0  0  0  0  0
   -3.8090   12.8280   -0.2290 C   0  0  0  0  0  0  0  0  0  0  0  0
   -3.0820   13.5130    0.6320 N   0  0  0  0  0  0  0  0  0  0  0  0
   -3.0380   12.4700   -1.7170 S   0  0  0  0  0  0  0  0  0  0  0  0
   -1.6210   13.2880   -1.1650 C   0  0  0  0  0  0  0  0  0  0  0  0
   -1.8200   13.7830    0.1160 C   0  0  0  0  0  0  0  0  0  0  0  0
   -0.8530   14.5410    0.9620 C   0  0  0  0  0  0  0  0  0  0  0  0
  1  2  1  0
  2  3  1  0
  1  4  2  3
  4  5  1  0
  4  6  1  0
  3  7  1  0
  3  8  2  0
  5  9  1  0
  6 10  1  0
 10 11  1  6
  9 12  2  0
 10 12  1  0
  7 13  1  0
 13 14  2  0
 13 15  1  0
 15 16  1  0
 14 17  1  0
 16 17  2  0
 17 18  1  0
M  END
