x0837_0_A-x1012_0_A
     RDKit          3D

 20 21  0  0  0  0  0  0  0  0999 V2000
   -7.4930   14.5610    0.1420 O   0  0  0  0  0  0  0  0  0  0  0  0
   -6.2700   14.7510    0.1460 C   0  0  0  0  0  0  0  0  0  0  0  0
   -5.5370   14.7670    1.3770 N   0  0  0  0  0  0  0  0  0  0  0  0
   -5.5050   14.9890   -1.1030 C   0  0  0  0  0  0  0  0  0  0  0  0
   -4.1460   15.0920    1.2800 C   0  0  0  0  0  0  0  0  0  0  0  0
   -4.1120   14.3990   -1.0250 C   0  0  1  0  0  0  0  0  0  0  0  0
   -3.1350   15.0390   -2.8410 I   0  0  0  0  0  0  0  0  0  0  0  0
   -3.4570   14.9290    0.1790 C   0  0  0  0  0  0  0  0  0  0  0  0
   -1.5780   13.8790   -3.7420 C   0  0  1  0  0  0  0  0  0  0  0  0
   -1.4070   14.5220   -5.0880 C   0  0  0  0  0  0  0  0  0  0  0  0
   -0.2560   13.9190   -2.9560 C   0  0  1  0  0  0  0  0  0  0  0  0
    0.0590   12.6930   -2.2320 C   0  0  0  0  0  0  0  0  0  0  0  0
    0.8750   14.3530   -3.8570 C   0  0  0  0  0  0  0  0  0  0  0  0
   -0.6830   15.7990   -4.9710 N   0  0  0  0  0  0  0  0  0  0  0  0
   -1.2940   17.0760   -4.8420 C   0  0  0  0  0  0  0  0  0  0  0  0
   -0.0300   11.4440   -2.8150 O   0  0  0  0  0  0  0  0  0  0  0  0
    0.4170   12.7660   -1.0450 O   0  0  0  0  0  0  0  0  0  0  0  0
    0.6800   15.6540   -4.5690 C   0  0  0  0  0  0  0  0  0  0  0  0
   -0.5380   18.2600   -4.9170 N   0  0  0  0  0  0  0  0  0  0  0  0
   -2.5240   17.1810   -4.6430 O   0  0  0  0  0  0  0  0  0  0  0  0
  1  2  2  0
  2  3  1  0
  2  4  1  0
  3  5  1  0
  4  6  1  0
  6  7  1  6
  5  8  2  0
  6  8  1  0
  9  7  1  1
  9 10  1  0
  9 11  1  0
 11 12  1  6
 11 13  1  0
 10 14  1  0
 14 15  1  0
 12 16  1  0
 12 17  2  0
 13 18  1  0
 14 18  1  0
 15 19  1  0
 15 20  2  0
M  END
