x0837_0_A-x0662_0_A
     RDKit          3D

 29 31  0  0  0  0  0  0  0  0999 V2000
   -7.5690   14.6920   -0.0360 O   0  0  0  0  0  0  0  0  0  0  0  0
   -6.3460   14.8690    0.0930 C   0  0  0  0  0  0  0  0  0  0  0  0
   -5.7110   14.8670    1.3730 N   0  0  0  0  0  0  0  0  0  0  0  0
   -5.4860   15.0940   -1.0950 C   0  0  0  0  0  0  0  0  0  0  0  0
   -4.3330   15.2880    1.4100 C   0  0  0  0  0  0  0  0  0  0  0  0
   -4.1710   14.4270   -0.8170 C   0  0  1  0  0  0  0  0  0  0  0  0
   -2.9240   14.6260   -2.5560 I   0  0  0  0  0  0  0  0  0  0  0  0
   -3.5990   15.0710    0.3590 C   0  0  0  0  0  0  0  0  0  0  0  0
   -0.9970   13.8700   -2.1170 C   0  0  0  0  0  0  0  0  0  0  0  0
   -0.3050   13.2670   -3.3020 C   0  0  0  0  0  0  0  0  0  0  0  0
   -0.9080   11.9000   -3.7000 C   0  0  0  0  0  0  0  0  0  0  0  0
   -0.5250   11.4700   -4.9220 N   0  0  0  0  0  0  0  0  0  0  0  0
    0.1540   11.3910   -5.9040 C   0  0  0  0  0  0  0  0  0  0  0  0
    1.3230   12.2330   -5.9040 O   0  0  0  0  0  0  0  0  0  0  0  0
    0.0160   10.5730   -7.1410 C   0  0  0  0  0  0  0  0  0  0  0  0
   -0.9020    9.5480   -7.1790 C   0  0  0  0  0  0  0  0  0  0  0  0
    0.7690   10.8000   -8.2560 C   0  0  0  0  0  0  0  0  0  0  0  0
   -1.0230    8.8020   -8.3310 C   0  0  0  0  0  0  0  0  0  0  0  0
    0.6620   10.0610   -9.4370 C   0  0  0  0  0  0  0  0  0  0  0  0
    1.4750   10.3660  -10.5470 N   0  0  0  0  0  0  0  0  0  0  0  0
   -0.2580    9.0490   -9.4450 C   0  0  0  0  0  0  0  0  0  0  0  0
    2.1990    9.4670  -11.3190 C   0  0  0  0  0  0  0  0  0  0  0  0
    2.2950    8.2640  -11.0560 O   0  0  0  0  0  0  0  0  0  0  0  0
    2.9340    9.9250  -12.5170 C   0  0  0  0  0  0  0  0  0  0  0  0
    2.7770   11.1370  -13.1790 C   0  0  0  0  0  0  0  0  0  0  0  0
    3.8900    9.2780  -13.1900 N   0  0  0  0  0  0  0  0  0  0  0  0
    4.3500    9.9730  -14.2070 N   0  0  0  0  0  0  0  0  0  0  0  0
    3.6730   11.1350  -14.2250 C   0  0  0  0  0  0  0  0  0  0  0  0
    5.4090    9.5500  -15.1410 C   0  0  0  0  0  0  0  0  0  0  0  0
  1  2  2  0
  2  3  1  0
  2  4  1  0
  3  5  1  0
  4  6  1  0
  6  7  1  6
  5  8  2  0
  6  8  1  0
  7  9  1  0
  9 10  1  0
 10 11  1  0
 11 12  1  0
 12 13  2  3
 13 14  1  0
 13 15  1  0
 15 16  2  0
 15 17  1  0
 16 18  1  0
 17 19  2  0
 19 20  1  0
 18 21  2  0
 19 21  1  0
 20 22  1  0
 22 23  2  0
 22 24  1  0
 24 25  1  0
 24 26  2  0
 26 27  1  0
 25 28  2  0
 27 28  1  0
 27 29  1  0
M  CHG  1  14  -1
M  END
