x0837_0_A-x0104_0_A
     RDKit          3D

 18 19  0  0  0  0  0  0  0  0999 V2000
   -7.6060   14.6350    0.1850 O   0  0  0  0  0  0  0  0  0  0  0  0
   -6.3630   14.7440    0.3000 C   0  0  0  0  0  0  0  0  0  0  0  0
   -5.8100   14.9410    1.5700 N   0  0  0  0  0  0  0  0  0  0  0  0
   -5.5770   14.6670   -0.8080 C   0  0  0  0  0  0  0  0  0  0  0  0
   -6.6250   14.7960    2.6920 N   0  0  0  0  0  0  0  0  0  0  0  0
   -4.5090   15.1790    1.5410 C   0  0  0  0  0  0  0  0  0  0  0  0
   -4.2300   14.8680   -0.7360 C   0  0  0  0  0  0  0  0  0  0  0  0
   -3.0970   14.7110   -2.4750 I   0  0  0  0  0  0  0  0  0  0  0  0
   -7.9970   15.1040    2.8150 C   0  0  0  0  0  0  0  0  0  0  0  0
   -3.6500   15.1660    0.4700 C   0  0  0  0  0  0  0  0  0  0  0  0
   -8.6540   15.0820    3.9950 N   0  0  0  0  0  0  0  0  0  0  0  0
   -8.6040   15.4000    1.7650 O   0  0  0  0  0  0  0  0  0  0  0  0
   -4.5010   14.7230   -3.9310 O   0  0  0  0  0  0  0  0  0  0  0  0
   -9.4790   15.0360    5.0460 C   0  0  0  0  0  0  0  0  0  0  0  0
   -9.1710   15.1660    6.4320 C   0  0  0  0  0  0  0  0  0  0  0  0
  -11.1910   14.8160    5.1360 S   0  0  0  0  0  0  0  0  0  0  0  0
  -11.4460   14.8900    6.8050 C   0  0  0  0  0  0  0  0  0  0  0  0
  -10.1850   15.0880    7.2850 C   0  0  0  0  0  0  0  0  0  0  0  0
  1  2  2  0
  2  3  1  0
  2  4  1  0
  3  5  1  0
  3  6  1  0
  4  7  2  0
  7  8  1  0
  5  9  1  0
  6 10  2  0
  7 10  1  0
  9 11  1  0
  9 12  2  0
  8 13  1  0
 11 14  1  0
 14 15  2  0
 14 16  1  0
 16 17  1  0
 15 18  1  0
 17 18  2  0
M  END
