x0849_0_A-x0724_0_A
     RDKit          3D

 18 20  0  0  0  0  0  0  0  0999 V2000
   -3.4290   15.2030   -2.8800 Br  0  0  0  0  0  0  0  0  0  0  0  0
   -3.5980   14.5010   -1.0590 C   0  0  1  0  0  0  0  0  0  0  0  0
   -2.3310   14.5460   -0.2890 C   0  0  0  0  0  0  0  0  0  0  0  0
   -4.6980   15.1630   -0.2470 C   0  0  0  0  0  0  0  0  0  0  0  0
   -2.4510   14.3550    1.0750 C   0  0  0  0  0  0  0  0  0  0  0  0
   -4.9660   14.2960    1.0070 C   0  0  2  0  0  0  0  0  0  0  0  0
   -1.0610   14.7650   -0.8420 C   0  0  0  0  0  0  0  0  0  0  0  0
   -3.6810   14.1030    1.6920 N   0  0  0  0  0  0  0  0  0  0  0  0
   -1.3940   14.3880    1.8880 N   0  0  0  0  0  0  0  0  0  0  0  0
    0.0430   14.7920   -0.0000 C   0  0  0  0  0  0  0  0  0  0  0  0
   -5.9420   13.2290    0.6910 N   0  0  0  0  0  0  0  0  0  0  0  0
   -5.7120   15.0810    2.0360 C   0  0  0  0  0  0  0  0  0  0  0  0
   -0.1900   14.6000    1.3440 C   0  0  0  0  0  0  0  0  0  0  0  0
   -7.2290   14.7900    1.9760 C   0  0  1  0  0  0  0  0  0  0  0  0
   -7.1720   13.3660    1.5040 C   0  0  0  0  0  0  0  0  0  0  0  0
   -7.9160   15.0460    3.3560 C   0  0  0  0  0  0  0  0  0  0  0  0
   -8.6460   13.9170    3.9580 N   0  0  0  0  0  0  0  0  0  0  0  0
   -8.6860   13.9560    5.4160 C   0  0  0  0  0  0  0  0  0  0  0  0
  2  1  1  6
  2  3  1  0
  2  4  1  0
  3  5  2  0
  6  4  1  6
  3  7  1  0
  5  8  1  0
  6  8  1  0
  5  9  1  0
  7 10  2  0
  6 11  1  0
  6 12  1  0
  9 13  2  0
 10 13  1  0
 12 14  1  0
 11 15  1  0
 14 15  1  0
 14 16  1  1
 16 17  1  0
 17 18  1  0
M  END
