x0844_0_A_α-x0104_0_A_α
     RDKit          3D

 18 19  0  0  0  0  0  0  0  0999 V2000
   -7.7040   15.2540   -0.7050 O   0  0  0  0  0  0  0  0  0  0  0  0
   -6.5260   15.0240   -0.4520 C   0  0  0  0  0  0  0  0  0  0  0  0
   -6.0380   14.8220    0.8190 N   0  0  0  0  0  0  0  0  0  0  0  0
   -5.5320   14.9260   -1.5340 C   0  0  0  0  0  0  0  0  0  0  0  0
   -4.6980   15.0620    1.1160 C   0  0  0  0  0  0  0  0  0  0  0  0
   -4.2300   14.9740   -1.2400 C   0  0  0  0  0  0  0  0  0  0  0  0
   -6.8700   13.9620    1.6630 C   0  0  0  0  0  0  0  0  0  0  0  0
   -2.9480   14.8220   -2.5840 Br  0  0  0  0  0  0  0  0  0  0  0  0
   -3.7950   15.1380    0.1300 C   0  0  0  0  0  0  0  0  0  0  0  0
   -7.0480   14.5350    3.0540 C   0  0  0  0  0  0  0  0  0  0  0  0
   -8.3310   15.2270    3.3340 C   0  0  0  0  0  0  0  0  0  0  0  0
   -8.3270   15.5170    4.6790 N   0  0  0  0  0  0  0  0  0  0  0  0
   -9.1890   15.4690    2.4950 O   0  0  0  0  0  0  0  0  0  0  0  0
   -9.4000   15.3040    5.4880 C   0  0  0  0  0  0  0  0  0  0  0  0
   -9.5230   15.2620    6.8510 C   0  0  0  0  0  0  0  0  0  0  0  0
  -10.8670   15.0410    4.6730 S   0  0  0  0  0  0  0  0  0  0  0  0
  -10.8730   15.0060    7.2410 C   0  0  0  0  0  0  0  0  0  0  0  0
  -11.7070   14.8650    6.1530 C   0  0  0  0  0  0  0  0  0  0  0  0
  1  2  2  0
  2  3  1  0
  2  4  1  0
  3  5  1  0
  4  6  2  0
  3  7  1  0
  6  8  1  0
  5  9  2  0
  6  9  1  0
  7 10  1  0
 10 11  1  0
 11 12  1  0
 11 13  2  0
 12 14  1  0
 14 15  2  0
 14 16  1  0
 15 17  1  0
 16 18  1  0
 17 18  2  0
M  END
