x0844_0_A-x0628_0_A
     RDKit          3D

 22 23  0  0  0  0  0  0  0  0999 V2000
   -7.5700   14.7760   -0.1190 O   0  0  0  0  0  0  0  0  0  0  0  0
   -6.3440   14.8970   -0.1000 C   0  0  0  0  0  0  0  0  0  0  0  0
   -5.6460   14.8340    1.0790 N   0  0  0  0  0  0  0  0  0  0  0  0
   -5.5300   15.1290   -1.3520 C   0  0  0  0  0  0  0  0  0  0  0  0
   -4.3180   15.1230    1.1990 C   0  0  0  0  0  0  0  0  0  0  0  0
   -4.0800   14.6770   -1.2050 C   0  0  1  0  0  0  0  0  0  0  0  0
   -3.2150   15.2090   -2.2270 O   0  0  0  0  0  0  0  0  0  0  0  0
   -3.5250   15.0590    0.1300 C   0  0  0  0  0  0  0  0  0  0  0  0
   -3.4730   14.6860   -3.5340 C   0  0  0  0  0  0  0  0  0  0  0  0
   -2.2300   13.9770   -4.0850 C   0  0  0  0  0  0  0  0  0  0  0  0
   -2.2930   12.4480   -3.9210 C   0  0  0  0  0  0  0  0  0  0  0  0
   -1.5230   11.7020   -4.9740 C   0  0  0  0  0  0  0  0  0  0  0  0
   -1.8920   10.5640   -5.5390 N   0  0  0  0  0  0  0  0  0  0  0  0
   -0.3120   12.0750   -5.5180 N   0  0  0  0  0  0  0  0  0  0  0  0
    0.5180   13.2340   -5.2470 C   0  0  0  0  0  0  0  0  0  0  0  0
   -0.8790   10.2820   -6.4150 C   0  0  0  0  0  0  0  0  0  0  0  0
    0.1060   11.1820   -6.4350 N   0  0  0  0  0  0  0  0  0  0  0  0
   -0.8700    9.0800   -7.2700 C   0  0  0  0  0  0  0  0  0  0  0  0
    1.6250   12.9510   -4.2380 C   0  0  0  0  0  0  0  0  0  0  0  0
    1.0930   12.2430   -3.0220 C   0  0  0  0  0  0  0  0  0  0  0  0
    0.5820   11.1390   -2.9640 O   0  0  0  0  0  0  0  0  0  0  0  0
    1.2340   12.9790   -1.9060 O   0  0  0  0  0  0  0  0  0  0  0  0
  1  2  2  0
  2  3  1  0
  2  4  1  0
  3  5  1  0
  4  6  1  0
  6  7  1  6
  5  8  2  0
  6  8  1  0
  7  9  1  0
  9 10  1  0
 10 11  1  0
 11 12  1  0
 12 13  2  0
 12 14  1  0
 14 15  1  0
 13 16  1  0
 14 17  1  0
 16 17  2  0
 16 18  1  0
 15 19  1  0
 19 20  1  0
 20 21  2  0
 20 22  1  0
M  END
