x0849_0_A-x0371_0_A
     RDKit          3D

 24 27  0  0  0  0  0  0  0  0999 V2000
   -3.6400   15.0750   -2.6490 Br  0  0  0  0  0  0  0  0  0  0  0  0
   -3.6650   14.3320   -0.8270 C   0  0  1  0  0  0  0  0  0  0  0  0
   -2.3060   14.4430   -0.1920 C   0  0  0  0  0  0  0  0  0  0  0  0
   -4.8890   14.8350    0.0200 C   0  0  2  0  0  0  0  0  0  0  0  0
   -2.2570   14.7560    1.1440 C   0  0  0  0  0  0  0  0  0  0  0  0
   -4.3500   15.7270    1.1620 C   0  0  0  0  0  0  0  0  0  0  0  0
   -1.0830   14.2550   -0.8470 C   0  0  0  0  0  0  0  0  0  0  0  0
   -5.6970   13.7980    0.7430 N   0  0  0  0  0  0  0  0  0  0  0  0
   -5.9600   15.5230   -0.8520 C   0  0  0  0  0  0  0  0  0  0  0  0
   -3.3650   14.9880    1.8560 N   0  0  0  0  0  0  0  0  0  0  0  0
   -1.1700   14.8750    1.8310 N   0  0  0  0  0  0  0  0  0  0  0  0
    0.0940   14.3930   -0.1280 C   0  0  0  0  0  0  0  0  0  0  0  0
   -6.9520   14.5020    0.9570 C   0  0  1  0  0  0  0  0  0  0  0  0
   -7.2550   15.0300   -0.3610 N   0  0  0  0  0  0  0  0  0  0  0  0
   -8.1200   13.7300    1.6150 C   0  0  0  0  0  0  0  0  0  0  0  0
   -0.0340   14.7040    1.2080 C   0  0  0  0  0  0  0  0  0  0  0  0
   -8.2620   14.0740    3.0250 N   0  0  0  0  0  0  0  0  0  0  0  0
   -8.7960   15.2590    3.5000 C   0  0  0  0  0  0  0  0  0  0  0  0
   -9.3380   16.1010    2.7870 O   0  0  0  0  0  0  0  0  0  0  0  0
   -8.6590   15.3940    4.9380 C   0  0  0  0  0  0  0  0  0  0  0  0
   -8.0620   14.3800    5.6370 O   0  0  0  0  0  0  0  0  0  0  0  0
   -9.0250   16.3960    5.8180 C   0  0  0  0  0  0  0  0  0  0  0  0
   -8.6310   15.9620    7.1100 C   0  0  0  0  0  0  0  0  0  0  0  0
   -8.0480   14.7310    6.9430 C   0  0  0  0  0  0  0  0  0  0  0  0
  2  1  1  6
  2  3  1  0
  2  4  1  0
  3  5  2  0
  4  6  1  1
  3  7  1  0
  4  8  1  0
  4  9  1  0
  5 10  1  0
  6 10  1  0
  5 11  1  0
  7 12  2  0
  8 13  1  0
  9 14  1  0
 13 14  1  0
 13 15  1  6
 11 16  2  0
 12 16  1  0
 15 17  1  0
 17 18  1  0
 18 19  2  0
 18 20  1  0
 20 21  1  0
 20 22  2  0
 22 23  1  0
 21 24  1  0
 23 24  2  0
M  END
