x0844_0_A-x0722_0_A
     RDKit          3D

 17 19  0  0  0  0  0  0  0  0999 V2000
   -6.2640   13.9910   -1.5940 N   0  0  0  0  0  0  0  0  0  0  0  0
   -6.2510   15.1750   -1.2110 C   0  0  0  0  0  0  0  0  0  0  0  0
   -7.1340   16.0040   -1.7690 N   0  0  0  0  0  0  0  0  0  0  0  0
   -5.3380   13.6720   -0.8050 C   0  0  0  0  0  0  0  0  0  0  0  0
   -5.3220   15.7380   -0.1020 C   0  0  0  0  0  0  0  0  0  0  0  0
   -5.7290   13.0940    0.3690 N   0  0  0  0  0  0  0  0  0  0  0  0
   -3.9840   13.8100   -0.7990 C   0  0  0  0  0  0  0  0  0  0  0  0
   -2.9980   14.3310   -1.5670 O   0  0  0  0  0  0  0  0  0  0  0  0
   -4.6520   12.8530    1.1450 C   0  0  0  0  0  0  0  0  0  0  0  0
   -3.5660   13.2870    0.4380 C   0  0  0  0  0  0  0  0  0  0  0  0
   -3.8930   15.3640    0.2550 C   0  0  0  0  0  0  0  0  0  0  0  0
   -3.3930   15.5820    1.5150 C   0  0  0  0  0  0  0  0  0  0  0  0
   -2.8500   14.7800   -0.3940 C   0  0  0  0  0  0  0  0  0  0  0  0
   -4.2030   16.1190    2.5810 C   0  0  0  0  0  0  0  0  0  0  0  0
   -2.1150   15.2470    1.6790 N   0  0  0  0  0  0  0  0  0  0  0  0
   -1.7670   14.7490    0.4890 N   0  0  0  0  0  0  0  0  0  0  0  0
   -0.4170   14.2550    0.3360 C   0  0  0  0  0  0  0  0  0  0  0  0
  1  2  2  0
  2  3  1  0
  1  4  1  0
  2  5  1  0
  4  6  1  0
  4  7  2  0
  7  8  1  0
  6  9  1  0
  7 10  1  0
  9 10  2  0
  5 11  1  0
 11 12  1  0
  8 13  1  0
 11 13  2  0
 12 14  1  0
 12 15  2  0
 13 16  1  0
 15 16  1  0
 16 17  1  0
M  END
