x0849_0_A-x0895_1_A
     RDKit          3D

 13 14  0  0  0  0  0  0  0  0999 V2000
   -3.3230   15.1020   -3.0880 Br  0  0  0  0  0  0  0  0  0  0  0  0
   -3.4130   14.9610   -1.2260 C   0  0  0  0  0  0  0  0  0  0  0  0
   -2.1940   14.7410   -0.4260 C   0  0  0  0  0  0  0  0  0  0  0  0
   -4.6090   15.0710   -0.6350 C   0  0  0  0  0  0  0  0  0  0  0  0
   -2.3150   14.5380    0.9370 C   0  0  0  0  0  0  0  0  0  0  0  0
   -4.7230   14.9400    0.8260 C   0  0  0  0  0  0  0  0  0  0  0  0
   -0.8860   14.7310   -0.9220 C   0  0  0  0  0  0  0  0  0  0  0  0
   -5.7900   15.1020    1.3880 O   0  0  0  0  0  0  0  0  0  0  0  0
   -3.5700   14.5160    1.6260 N   0  0  2  0  0  0  0  0  0  0  0  0
   -1.3180   14.3560    1.7930 N   0  0  0  0  0  0  0  0  0  0  0  0
    0.1770   14.5360   -0.0460 C   0  0  0  0  0  0  0  0  0  0  0  0
   -3.2630   15.3170    2.6440 O   0  0  0  0  0  0  0  0  0  0  0  0
   -0.1110   14.3560    1.2980 C   0  0  0  0  0  0  0  0  0  0  0  0
  1  2  1  0
  2  3  1  0
  2  4  2  0
  3  5  2  0
  4  6  1  0
  3  7  1  0
  6  8  2  0
  5  9  1  0
  6  9  1  0
  5 10  1  0
  7 11  2  0
  9 12  1  1
 10 13  2  0
 11 13  1  0
M  CHG  2   9   1  12  -1
M  END
