x0849_0_A-x0950_0_A
     RDKit          3D

 18 19  0  0  0  0  0  0  0  0999 V2000
   -3.8590   15.2020   -2.7970 Br  0  0  0  0  0  0  0  0  0  0  0  0
   -3.6810   15.1850   -0.9070 C   0  0  0  0  0  0  0  0  0  0  0  0
   -2.4670   14.8520   -0.3170 C   0  0  0  0  0  0  0  0  0  0  0  0
   -4.7770   15.5020   -0.1300 C   0  0  0  0  0  0  0  0  0  0  0  0
   -2.4000   14.8470    1.0760 C   0  0  0  0  0  0  0  0  0  0  0  0
   -4.5930   15.4620    1.2290 C   0  0  0  0  0  0  0  0  0  0  0  0
   -1.3250   14.5240   -1.0450 C   0  0  0  0  0  0  0  0  0  0  0  0
   -3.4370   15.1460    1.8150 N   0  0  0  0  0  0  0  0  0  0  0  0
   -1.2950   14.5390    1.7080 N   0  0  0  0  0  0  0  0  0  0  0  0
   -0.1640   14.1980   -0.4080 C   0  0  0  0  0  0  0  0  0  0  0  0
    1.0200   13.8420   -1.2650 C   0  0  0  0  0  0  0  0  0  0  0  0
   -0.2160   14.2210    0.9890 C   0  0  0  0  0  0  0  0  0  0  0  0
    0.9470   12.4240   -1.5230 O   0  0  0  0  0  0  0  0  0  0  0  0
    0.8410   11.9390   -2.8080 C   0  0  0  0  0  0  0  0  0  0  0  0
    1.4880   12.8000   -3.9060 C   0  0  1  0  0  0  0  0  0  0  0  0
    0.2820   10.8820   -3.0720 O   0  0  0  0  0  0  0  0  0  0  0  0
    2.9860   12.5490   -4.0040 C   0  0  0  0  0  0  0  0  0  0  0  0
    0.9230   12.4760   -5.1790 O   0  0  0  0  0  0  0  0  0  0  0  0
  1  2  1  0
  2  3  2  0
  2  4  1  0
  3  5  1  0
  4  6  2  0
  3  7  1  0
  5  8  2  0
  6  8  1  0
  5  9  1  0
  7 10  2  0
 10 11  1  0
  9 12  2  0
 10 12  1  0
 11 13  1  0
 13 14  1  0
 14 15  1  0
 14 16  2  0
 15 17  1  6
 15 18  1  0
M  END
