x0849_0_A-x0574_0_A
     RDKit          3D

 13 14  0  0  0  0  0  0  0  0999 V2000
   -3.2520   15.1220   -3.0950 Br  0  0  0  0  0  0  0  0  0  0  0  0
   -3.3890   15.0020   -1.2050 C   0  0  0  0  0  0  0  0  0  0  0  0
   -2.2780   14.8050   -0.3660 C   0  0  0  0  0  0  0  0  0  0  0  0
   -4.6510   15.1130   -0.6840 C   0  0  0  0  0  0  0  0  0  0  0  0
   -2.5250   14.7300    1.0150 C   0  0  0  0  0  0  0  0  0  0  0  0
   -4.7900   15.0220    0.6630 C   0  0  0  0  0  0  0  0  0  0  0  0
   -0.9460   14.6800   -0.8180 C   0  0  0  0  0  0  0  0  0  0  0  0
   -6.1180   15.1350    1.0470 O   0  0  0  0  0  0  0  0  0  0  0  0
   -3.7620   14.8380    1.5200 N   0  0  0  0  0  0  0  0  0  0  0  0
   -1.5260   14.5450    1.8700 N   0  0  0  0  0  0  0  0  0  0  0  0
    0.0780   14.4930    0.0830 C   0  0  0  0  0  0  0  0  0  0  0  0
   -6.4640   14.6220    2.3190 C   0  0  0  0  0  0  0  0  0  0  0  0
   -0.2650   14.4310    1.4140 C   0  0  0  0  0  0  0  0  0  0  0  0
  1  2  1  0
  2  3  2  0
  2  4  1  0
  3  5  1  0
  4  6  2  0
  3  7  1  0
  6  8  1  0
  5  9  2  0
  6  9  1  0
  5 10  1  0
  7 11  2  0
  8 12  1  0
 10 13  2  0
 11 13  1  0
M  END
