x0844_0_A-x0837_0_A
     RDKit          3D

  8  8  0  0  0  0  0  0  0  0999 V2000
   -7.6130   14.7940    0.0220 O   0  0  0  0  0  0  0  0  0  0  0  0
   -6.3860   14.8120   -0.0230 C   0  0  0  0  0  0  0  0  0  0  0  0
   -5.6370   14.8490    1.1270 N   0  0  0  0  0  0  0  0  0  0  0  0
   -5.6390   14.7940   -1.3350 C   0  0  0  0  0  0  0  0  0  0  0  0
   -4.2790   15.0020    1.1740 C   0  0  0  0  0  0  0  0  0  0  0  0
   -4.2390   15.3700   -1.2480 C   0  0  2  0  0  0  0  0  0  0  0  0
   -3.0580   14.5730   -2.5890 Br  0  0  0  0  0  0  0  0  0  0  0  0
   -3.5800   15.2410    0.0790 C   0  0  0  0  0  0  0  0  0  0  0  0
  1  2  2  0
  2  3  1  0
  2  4  1  0
  3  5  1  0
  4  6  1  0
  6  7  1  6
  5  8  2  0
  6  8  1  0
M  END
