x0844_0_A_α-x0471_0_A_α
     RDKit          3D

 18 19  0  0  0  0  0  0  0  0999 V2000
   -7.3850   15.7500   -0.6270 O   0  0  0  0  0  0  0  0  0  0  0  0
   -6.4070   14.7770   -0.3810 C   0  0  2  0  0  0  0  0  0  0  0  0
   -5.6980   14.9990    0.8770 N   0  0  0  0  0  0  0  0  0  0  0  0
   -5.4590   14.6640   -1.5770 C   0  0  0  0  0  0  0  0  0  0  0  0
   -7.1710   13.5910   -0.2100 N   0  0  0  0  0  0  0  0  0  0  0  0
   -4.3450   14.9200    1.0460 C   0  0  0  0  0  0  0  0  0  0  0  0
   -4.1080   15.3370   -1.3180 C   0  0  2  0  0  0  0  0  0  0  0  0
   -7.5150   13.6850    1.2290 C   0  0  1  0  0  0  0  0  0  0  0  0
   -6.4940   14.5040    1.9210 N   0  0  0  0  0  0  0  0  0  0  0  0
   -2.8590   14.6960   -2.6840 Br  0  0  0  0  0  0  0  0  0  0  0  0
   -8.9310   14.2210    1.5310 C   0  0  0  0  0  0  0  0  0  0  0  0
   -3.5170   15.0710    0.0260 C   0  0  0  0  0  0  0  0  0  0  0  0
   -9.2850   14.0580    2.9350 N   0  0  0  0  0  0  0  0  0  0  0  0
   -9.3440   15.1530    3.7710 C   0  0  0  0  0  0  0  0  0  0  0  0
   -9.4180   16.3010    3.3480 O   0  0  0  0  0  0  0  0  0  0  0  0
   -9.3450   14.8600    5.2710 C   0  0  0  0  0  0  0  0  0  0  0  0
   -9.6490   13.3980    5.5740 C   0  0  0  0  0  0  0  0  0  0  0  0
   -8.0680   15.3510    5.9450 C   0  0  0  0  0  0  0  0  0  0  0  0
  2  1  1  6
  2  3  1  0
  2  4  1  0
  2  5  1  0
  3  6  1  0
  4  7  1  0
  5  8  1  0
  3  9  1  0
  8  9  1  0
  7 10  1  6
  8 11  1  6
  6 12  2  0
  7 12  1  0
 11 13  1  0
 13 14  1  0
 14 15  2  0
 14 16  1  0
 16 17  1  0
 16 18  1  0
M  END
