x0849_0_A-x0933_0_A
     RDKit          3D

 12 13  0  0  0  0  0  0  0  0999 V2000
   -3.5400   15.1400   -2.8620 Br  0  0  0  0  0  0  0  0  0  0  0  0
   -3.4970   14.9850   -0.9690 C   0  0  0  0  0  0  0  0  0  0  0  0
   -2.2970   14.8010   -0.2600 C   0  0  0  0  0  0  0  0  0  0  0  0
   -4.7060   15.0510   -0.2980 C   0  0  0  0  0  0  0  0  0  0  0  0
   -2.4090   14.6950    1.1260 C   0  0  0  0  0  0  0  0  0  0  0  0
   -4.6780   14.9260    1.0710 C   0  0  0  0  0  0  0  0  0  0  0  0
   -1.0020   14.7160   -0.8230 C   0  0  0  0  0  0  0  0  0  0  0  0
   -5.8400   14.9620    1.8300 N   0  0  0  0  0  0  0  0  0  0  0  0
   -3.5600   14.7560    1.7530 N   0  0  0  0  0  0  0  0  0  0  0  0
   -1.3660   14.5220    1.8930 N   0  0  0  0  0  0  0  0  0  0  0  0
    0.0940   14.5370   -0.0000 C   0  0  0  0  0  0  0  0  0  0  0  0
   -0.1610   14.4470    1.3540 C   0  0  0  0  0  0  0  0  0  0  0  0
  1  2  1  0
  2  3  2  0
  2  4  1  0
  3  5  1  0
  4  6  2  0
  3  7  1  0
  6  8  1  0
  5  9  2  0
  6  9  1  0
  5 10  1  0
  7 11  2  0
 10 12  2  0
 11 12  1  0
M  END
