x0844_0_A_α-5cb5_G_0_G_α
     RDKit          3D

 23 24  0  0  0  0  0  0  0  0999 V2000
   -7.3020   14.9670   -0.2910 O   0  0  0  0  0  0  0  0  0  0  0  0
   -6.0670   14.9470   -0.3690 C   0  0  0  0  0  0  0  0  0  0  0  0
   -5.2950   14.9190    0.7660 N   0  0  0  0  0  0  0  0  0  0  0  0
   -5.3470   14.9410   -1.7120 C   0  0  0  0  0  0  0  0  0  0  0  0
   -3.9430   14.7380    0.7660 C   0  0  0  0  0  0  0  0  0  0  0  0
   -3.8470   15.2830   -1.6730 C   0  0  2  0  0  0  0  0  0  0  0  0
   -3.1740   14.5900   -2.7830 O   0  0  0  0  0  0  0  0  0  0  0  0
   -3.2170   14.8930   -0.3530 C   0  0  0  0  0  0  0  0  0  0  0  0
   -2.1400   15.2030   -3.6410 C   0  0  0  0  0  0  0  0  0  0  0  0
   -2.6580   16.2920   -4.6250 C   0  0  0  0  0  0  0  0  0  0  0  0
   -1.7490   17.5060   -5.0600 C   0  0  0  0  0  0  0  0  0  0  0  0
   -2.2520   18.5540   -6.1230 C   0  0  0  0  0  0  0  0  0  0  0  0
   -2.4880   20.0580   -5.6990 C   0  0  0  0  0  0  0  0  0  0  0  0
   -3.9170   20.6490   -5.9170 C   0  0  0  0  0  0  0  0  0  0  0  0
   -4.0600   21.9190   -6.5200 O   0  0  0  0  0  0  0  0  0  0  0  0
   -5.0170   21.8340   -7.5600 C   0  0  2  0  0  0  0  0  0  0  0  0
   -4.3940   21.0770   -8.5710 O   0  0  0  0  0  0  0  0  0  0  0  0
   -5.3130   23.1530   -8.2570 C   0  0  1  0  0  0  0  0  0  0  0  0
   -5.5910   24.2410   -7.3570 O   0  0  0  0  0  0  0  0  0  0  0  0
   -3.4080   21.9540   -9.1280 C   0  0  1  0  0  0  0  0  0  0  0  0
   -3.9970   23.3710   -8.9950 C   0  0  1  0  0  0  0  0  0  0  0  0
   -2.0670   21.7150   -8.4350 C   0  0  0  0  0  0  0  0  0  0  0  0
   -4.2200   24.0100  -10.2360 O   0  0  0  0  0  0  0  0  0  0  0  0
  1  2  2  0
  2  3  1  0
  2  4  1  0
  3  5  1  0
  4  6  1  0
  6  7  1  6
  5  8  2  0
  6  8  1  0
  7  9  1  0
  9 10  1  0
 10 11  1  0
 11 12  1  0
 12 13  1  0
 13 14  1  0
 14 15  1  0
 16 15  1  1
 16 17  1  0
 16 18  1  0
 18 19  1  1
 17 20  1  0
 18 21  1  0
 20 21  1  0
 20 22  1  1
 21 23  1  6
M  END
