x0844_0_A_α-x0805_0_A_α
     RDKit          3D

 15 16  0  0  0  0  0  0  0  0999 V2000
   -7.8760   14.5870    0.3510 O   0  0  0  0  0  0  0  0  0  0  0  0
   -6.6860   14.8300    0.2070 C   0  0  0  0  0  0  0  0  0  0  0  0
   -5.8460   14.9060    1.3270 N   0  0  0  0  0  0  0  0  0  0  0  0
   -6.1240   15.0740   -1.1850 C   0  0  0  0  0  0  0  0  0  0  0  0
   -4.4500   15.3070    1.2680 C   0  0  0  0  0  0  0  0  0  0  0  0
   -4.6700   15.4340   -1.1330 C   0  0  2  0  0  0  0  0  0  0  0  0
   -3.8740   15.1110   -2.9110 Br  0  0  0  0  0  0  0  0  0  0  0  0
   -3.9520   14.7150   -0.0040 C   0  0  1  0  0  0  0  0  0  0  0  0
   -2.5680   14.8640   -0.1990 O   0  0  0  0  0  0  0  0  0  0  0  0
   -2.3270   14.2780   -1.3800 C   0  0  0  0  0  0  0  0  0  0  0  0
   -3.2690   13.2690   -1.6570 C   0  0  0  0  0  0  0  0  0  0  0  0
   -1.3260   14.5550   -2.2900 C   0  0  0  0  0  0  0  0  0  0  0  0
   -1.2720   13.8250   -3.4800 C   0  0  0  0  0  0  0  0  0  0  0  0
   -3.2150   12.5460   -2.8370 C   0  0  0  0  0  0  0  0  0  0  0  0
   -2.2110   12.8280   -3.7530 C   0  0  0  0  0  0  0  0  0  0  0  0
  1  2  2  0
  2  3  1  0
  2  4  1  0
  3  5  1  0
  4  6  1  0
  6  7  1  6
  5  8  1  0
  6  8  1  0
  8  9  1  6
  9 10  1  0
 10 11  2  0
 10 12  1  0
 12 13  2  0
 11 14  1  0
 13 15  1  0
 14 15  2  0
M  END
