x0849_0_A-x0950_1_A
     RDKit          3D

 18 19  0  0  0  0  0  0  0  0999 V2000
   -3.8400   15.1930   -2.8140 Br  0  0  0  0  0  0  0  0  0  0  0  0
   -3.6970   15.1400   -0.9220 C   0  0  0  0  0  0  0  0  0  0  0  0
   -2.4740   14.8710   -0.3080 C   0  0  0  0  0  0  0  0  0  0  0  0
   -4.8280   15.3710   -0.1650 C   0  0  0  0  0  0  0  0  0  0  0  0
   -2.4360   14.8370    1.0800 C   0  0  0  0  0  0  0  0  0  0  0  0
   -4.6740   15.3140    1.1980 C   0  0  0  0  0  0  0  0  0  0  0  0
   -1.2920   14.6390   -1.0130 C   0  0  0  0  0  0  0  0  0  0  0  0
   -3.5110   15.0530    1.8000 N   0  0  0  0  0  0  0  0  0  0  0  0
   -1.3270   14.5890    1.7340 N   0  0  0  0  0  0  0  0  0  0  0  0
   -0.1200   14.3860   -0.3540 C   0  0  0  0  0  0  0  0  0  0  0  0
    1.0900   14.1600   -1.2110 C   0  0  0  0  0  0  0  0  0  0  0  0
   -0.2060   14.3710    1.0410 C   0  0  0  0  0  0  0  0  0  0  0  0
    0.6290   13.6920   -2.4950 O   0  0  0  0  0  0  0  0  0  0  0  0
    0.8610   12.4360   -2.9720 C   0  0  0  0  0  0  0  0  0  0  0  0
    1.4080   12.5510   -4.3950 C   0  0  2  0  0  0  0  0  0  0  0  0
    0.6510   11.3660   -2.3980 O   0  0  0  0  0  0  0  0  0  0  0  0
    1.2340   13.9600   -4.9350 C   0  0  0  0  0  0  0  0  0  0  0  0
    0.7250   11.6690   -5.2910 O   0  0  0  0  0  0  0  0  0  0  0  0
  1  2  1  0
  2  3  2  0
  2  4  1  0
  3  5  1  0
  4  6  2  0
  3  7  1  0
  5  8  2  0
  6  8  1  0
  5  9  1  0
  7 10  2  0
 10 11  1  0
  9 12  2  0
 10 12  1  0
 11 13  1  0
 13 14  1  0
 14 15  1  0
 14 16  2  0
 15 17  1  6
 15 18  1  0
M  END
