x0849_0_A_α-x0290_0_A_α
     RDKit          3D

 18 19  0  0  0  0  0  0  0  0999 V2000
   -2.9960   14.7640   -3.7350 Br  0  0  0  0  0  0  0  0  0  0  0  0
   -3.2630   15.1460   -1.9340 C   0  0  0  0  0  0  0  0  0  0  0  0
   -2.2750   14.8310   -0.9250 C   0  0  0  0  0  0  0  0  0  0  0  0
   -4.4100   15.7100   -1.6110 C   0  0  0  0  0  0  0  0  0  0  0  0
   -2.9900   14.7140    0.3780 C   0  0  2  0  0  0  0  0  0  0  0  0
   -4.6270   16.0680   -0.2390 C   0  0  0  0  0  0  0  0  0  0  0  0
   -0.9580   14.6250   -1.0310 C   0  0  0  0  0  0  0  0  0  0  0  0
   -0.1380   14.7020   -2.2850 C   0  0  0  0  0  0  0  0  0  0  0  0
   -3.9970   15.6780    0.7560 N   0  0  0  0  0  0  0  0  0  0  0  0
   -2.2490   14.4100    1.4950 N   0  0  0  0  0  0  0  0  0  0  0  0
   -0.2300   14.2580    0.1790 C   0  0  0  0  0  0  0  0  0  0  0  0
   -3.3410   13.6990    2.0870 N   0  0  0  0  0  0  0  0  0  0  0  0
   -0.8720   14.1490    1.3670 C   0  0  0  0  0  0  0  0  0  0  0  0
   -4.5550   13.5820    1.2930 C   0  0  0  0  0  0  0  0  0  0  0  0
   -4.6370   13.3160    0.0890 O   0  0  0  0  0  0  0  0  0  0  0  0
   -5.8850   13.8390    2.0430 C   0  0  0  0  0  0  0  0  0  0  0  0
   -7.0870   13.5560    1.1810 N   0  0  0  0  0  0  0  0  0  0  0  0
   -8.0500   14.6620    1.1370 C   0  0  0  0  0  0  0  0  0  0  0  0
  1  2  1  0
  2  3  1  0
  2  4  2  0
  3  5  1  0
  4  6  1  0
  3  7  2  0
  7  8  1  0
  5  9  1  1
  6  9  2  0
  5 10  1  0
  7 11  1  0
 10 12  1  0
 10 13  1  0
 11 13  2  0
 12 14  1  0
 14 15  2  0
 14 16  1  0
 16 17  1  0
 17 18  1  0
M  END
