x0844_0_A-x0711_0_A
     RDKit          3D

 14 14  0  0  0  0  0  0  0  0999 V2000
   -6.9680   14.8410   -0.1980 N   0  0  0  0  0  0  0  0  0  0  0  0
   -7.3150   14.5220    0.9890 C   0  0  0  0  0  0  0  0  0  0  0  0
   -8.5120   14.3500    1.5610 N   0  0  0  0  0  0  0  0  0  0  0  0
   -5.6000   14.9020   -0.2710 C   0  0  0  0  0  0  0  0  0  0  0  0
   -5.0180   14.9530    0.9380 N   0  0  0  0  0  0  0  0  0  0  0  0
   -4.8970   14.9010   -1.4670 C   0  0  0  0  0  0  0  0  0  0  0  0
   -3.6860   14.9970    0.9810 C   0  0  0  0  0  0  0  0  0  0  0  0
   -3.4960   14.9470   -1.3980 C   0  0  0  0  0  0  0  0  0  0  0  0
   -2.7720   14.9450   -2.5970 O   0  0  0  0  0  0  0  0  0  0  0  0
   -2.8860   14.9920   -0.1430 C   0  0  0  0  0  0  0  0  0  0  0  0
   -1.2510   14.2900   -2.8560 S   0  0  0  0  0  0  0  0  0  0  0  0
   -1.7140   12.9570   -3.9420 C   0  0  0  0  0  0  0  0  0  0  0  0
   -0.3940   15.1740   -3.6320 O   0  0  0  0  0  0  0  0  0  0  0  0
   -0.7330   13.6720   -1.6470 O   0  0  0  0  0  0  0  0  0  0  0  0
  1  2  2  3
  2  3  1  0
  1  4  1  0
  4  5  2  0
  4  6  1  0
  5  7  1  0
  6  8  2  0
  8  9  1  0
  7 10  2  0
  8 10  1  0
 11  9  1  0
 11 12  1  0
 11 13  2  0
 11 14  2  0
M  END
