x0849_0_A-x0855_0_A
     RDKit          3D

 22 24  0  0  0  0  0  0  0  0999 V2000
   -3.8340   15.2480   -2.8290 Br  0  0  0  0  0  0  0  0  0  0  0  0
   -3.6520   15.1990   -0.9420 C   0  0  0  0  0  0  0  0  0  0  0  0
   -2.4490   14.8130   -0.3530 C   0  0  0  0  0  0  0  0  0  0  0  0
   -4.7320   15.5470   -0.1610 C   0  0  0  0  0  0  0  0  0  0  0  0
   -2.3830   14.7900    1.0400 C   0  0  0  0  0  0  0  0  0  0  0  0
   -4.5510   15.4840    1.1980 C   0  0  0  0  0  0  0  0  0  0  0  0
   -1.3200   14.4460   -1.0880 C   0  0  0  0  0  0  0  0  0  0  0  0
   -3.4100   15.1150    1.7800 N   0  0  0  0  0  0  0  0  0  0  0  0
   -1.2900   14.4360    1.6760 N   0  0  0  0  0  0  0  0  0  0  0  0
   -0.1710   14.0600   -0.4520 C   0  0  0  0  0  0  0  0  0  0  0  0
    1.0240   13.6380   -1.2610 C   0  0  0  0  0  0  0  0  0  0  0  0
   -0.2270   14.0780    0.9490 C   0  0  0  0  0  0  0  0  0  0  0  0
    0.8140   13.6930   -2.6790 O   0  0  0  0  0  0  0  0  0  0  0  0
    0.7810   12.4700   -3.3080 C   0  0  0  0  0  0  0  0  0  0  0  0
    0.8600   11.3810   -2.7400 O   0  0  0  0  0  0  0  0  0  0  0  0
    0.6120   12.6610   -4.7870 C   0  0  0  0  0  0  0  0  0  0  0  0
   -0.4040   11.7430   -5.2460 N   0  0  0  0  0  0  0  0  0  0  0  0
   -0.2810   10.7600   -6.1880 C   0  0  0  0  0  0  0  0  0  0  0  0
   -1.6420   11.8190   -4.7080 N   0  0  0  0  0  0  0  0  0  0  0  0
   -1.5120   10.1680   -6.2480 C   0  0  0  0  0  0  0  0  0  0  0  0
   -2.3160   10.8500   -5.3260 C   0  0  0  0  0  0  0  0  0  0  0  0
   -2.0560    8.7450   -7.3170 Br  0  0  0  0  0  0  0  0  0  0  0  0
  1  2  1  0
  2  3  2  0
  2  4  1  0
  3  5  1  0
  4  6  2  0
  3  7  1  0
  5  8  2  0
  6  8  1  0
  5  9  1  0
  7 10  2  0
 10 11  1  0
  9 12  2  0
 10 12  1  0
 11 13  1  0
 13 14  1  0
 14 15  2  0
 14 16  1  0
 16 17  1  0
 17 18  1  0
 17 19  1  0
 18 20  2  0
 19 21  2  0
 20 21  1  0
 20 22  1  0
M  END
