x0844_0_A-x0864_0_A
     RDKit          3D

 23 24  0  0  0  0  0  0  0  0999 V2000
   -7.5740   14.7950   -0.0460 O   0  0  0  0  0  0  0  0  0  0  0  0
   -6.3450   14.8850   -0.1050 C   0  0  0  0  0  0  0  0  0  0  0  0
   -5.5950   14.8330    1.0430 N   0  0  0  0  0  0  0  0  0  0  0  0
   -5.6280   15.0580   -1.4270 C   0  0  0  0  0  0  0  0  0  0  0  0
   -4.2420   14.9710    1.1040 C   0  0  0  0  0  0  0  0  0  0  0  0
   -4.1190   15.2810   -1.3530 C   0  0  2  0  0  0  0  0  0  0  0  0
   -3.4180   14.3700   -2.2130 O   0  0  0  0  0  0  0  0  0  0  0  0
   -3.5170   15.1740    0.0120 C   0  0  0  0  0  0  0  0  0  0  0  0
   -2.4140   14.9870   -3.0150 C   0  0  0  0  0  0  0  0  0  0  0  0
   -1.9590   14.0430   -4.1270 C   0  0  0  0  0  0  0  0  0  0  0  0
   -0.4440   14.1350   -4.3840 C   0  0  0  0  0  0  0  0  0  0  0  0
    0.3180   12.7940   -4.4640 C   0  0  1  0  0  0  0  0  0  0  0  0
    0.7150   12.2940   -3.0580 C   0  0  0  0  0  0  0  0  0  0  0  0
   -0.2810   11.8380   -5.4280 N   0  0  0  0  0  0  0  0  0  0  0  0
    0.5110   10.9950   -2.7870 O   0  0  0  0  0  0  0  0  0  0  0  0
    1.1970   13.0450   -2.2190 O   0  0  0  0  0  0  0  0  0  0  0  0
   -1.3910   11.1270   -4.9760 C   0  0  0  0  0  0  0  0  0  0  0  0
    0.4620   11.3590   -6.4900 C   0  0  0  0  0  0  0  0  0  0  0  0
    1.5530   11.8230   -6.8020 O   0  0  0  0  0  0  0  0  0  0  0  0
   -1.8530   10.0590   -5.6280 C   0  0  0  0  0  0  0  0  0  0  0  0
   -0.0920   10.2220   -7.2610 C   0  0  0  0  0  0  0  0  0  0  0  0
   -1.2030    9.6110   -6.8290 C   0  0  0  0  0  0  0  0  0  0  0  0
   -1.9630    8.1730   -7.7380 Br  0  0  0  0  0  0  0  0  0  0  0  0
  1  2  2  0
  2  3  1  0
  2  4  1  0
  3  5  1  0
  4  6  1  0
  6  7  1  6
  5  8  2  0
  6  8  1  0
  7  9  1  0
  9 10  1  0
 10 11  1  0
 12 11  1  1
 12 13  1  0
 12 14  1  0
 13 15  1  0
 13 16  2  0
 14 17  1  0
 14 18  1  0
 18 19  2  0
 17 20  2  0
 18 21  1  0
 20 22  1  0
 21 22  2  0
 22 23  1  0
M  END
