x0849_0_A-x0950_1_A
     RDKit          3D

 18 19  0  0  0  0  0  0  0  0999 V2000
   -3.8330   15.2010   -2.8140 Br  0  0  0  0  0  0  0  0  0  0  0  0
   -3.6910   15.1450   -0.9190 C   0  0  0  0  0  0  0  0  0  0  0  0
   -2.4710   14.8730   -0.3030 C   0  0  0  0  0  0  0  0  0  0  0  0
   -4.8190   15.3760   -0.1660 C   0  0  0  0  0  0  0  0  0  0  0  0
   -2.4350   14.8360    1.0860 C   0  0  0  0  0  0  0  0  0  0  0  0
   -4.6690   15.3150    1.1980 C   0  0  0  0  0  0  0  0  0  0  0  0
   -1.2910   14.6420   -1.0040 C   0  0  0  0  0  0  0  0  0  0  0  0
   -3.5080   15.0510    1.8050 N   0  0  0  0  0  0  0  0  0  0  0  0
   -1.3230   14.5850    1.7410 N   0  0  0  0  0  0  0  0  0  0  0  0
   -0.1170   14.3850   -0.3490 C   0  0  0  0  0  0  0  0  0  0  0  0
    1.0910   14.1600   -1.2140 C   0  0  0  0  0  0  0  0  0  0  0  0
   -0.2010   14.3670    1.0450 C   0  0  0  0  0  0  0  0  0  0  0  0
    0.6220   13.6950   -2.4940 O   0  0  0  0  0  0  0  0  0  0  0  0
    0.8630   12.4400   -2.9710 C   0  0  0  0  0  0  0  0  0  0  0  0
    1.4060   12.5550   -4.3960 C   0  0  2  0  0  0  0  0  0  0  0  0
    0.6560   11.3710   -2.3950 O   0  0  0  0  0  0  0  0  0  0  0  0
    1.2300   13.9600   -4.9350 C   0  0  0  0  0  0  0  0  0  0  0  0
    0.7290   11.6700   -5.2930 O   0  0  0  0  0  0  0  0  0  0  0  0
  1  2  1  0
  2  3  2  0
  2  4  1  0
  3  5  1  0
  4  6  2  0
  3  7  1  0
  5  8  2  0
  6  8  1  0
  5  9  1  0
  7 10  2  0
 10 11  1  0
  9 12  2  0
 10 12  1  0
 11 13  1  0
 13 14  1  0
 14 15  1  0
 14 16  2  0
 15 17  1  6
 15 18  1  0
M  END
