x0849_0_A_α-5cms_N_13_N_γ
     RDKit          3D

 20 22  0  0  0  0  0  0  0  0999 V2000
   -3.5120   15.1620   -2.9880 Br  0  0  0  0  0  0  0  0  0  0  0  0
   -3.3350   15.0930   -1.0980 C   0  0  0  0  0  0  0  0  0  0  0  0
   -2.1470   14.7740   -0.3410 C   0  0  0  0  0  0  0  0  0  0  0  0
   -4.5430   15.3980   -0.4720 C   0  0  0  0  0  0  0  0  0  0  0  0
   -2.3770   14.8060    1.0620 C   0  0  0  0  0  0  0  0  0  0  0  0
   -4.5770   15.3840    0.8860 C   0  0  0  0  0  0  0  0  0  0  0  0
   -0.7700   14.4270   -0.6800 C   0  0  0  0  0  0  0  0  0  0  0  0
    0.0400   14.2500   -1.9300 C   0  0  0  0  0  0  0  0  0  0  0  0
   -3.5240   15.0980    1.6250 N   0  0  0  0  0  0  0  0  0  0  0  0
   -1.4680   14.5430    1.9720 N   0  0  0  0  0  0  0  0  0  0  0  0
    0.1180   14.1730    0.3130 C   0  0  0  0  0  0  0  0  0  0  0  0
   -0.2450   14.2350    1.6080 C   0  0  0  0  0  0  0  0  0  0  0  0
   -0.4880   14.5520   -3.2980 C   0  0  1  0  0  0  0  0  0  0  0  0
    0.0370   15.8080   -3.7610 O   0  0  0  0  0  0  0  0  0  0  0  0
   -0.2290   13.4850   -4.3510 C   0  0  2  0  0  0  0  0  0  0  0  0
    0.9120   12.6630   -4.0950 O   0  0  0  0  0  0  0  0  0  0  0  0
   -0.1220   15.7840   -5.1670 C   0  0  2  0  0  0  0  0  0  0  0  0
    0.0590   14.2960   -5.5830 C   0  0  1  0  0  0  0  0  0  0  0  0
    0.7840   16.8830   -5.7110 C   0  0  0  0  0  0  0  0  0  0  0  0
    1.2960   13.9030   -6.1260 O   0  0  0  0  0  0  0  0  0  0  0  0
  1  2  1  0
  2  3  2  0
  2  4  1  0
  3  5  1  0
  4  6  2  0
  3  7  1  0
  7  8  1  0
  5  9  2  0
  6  9  1  0
  5 10  1  0
  7 11  2  0
 10 12  2  0
 11 12  1  0
 13  8  1  1
 13 14  1  0
 13 15  1  0
 15 16  1  1
 14 17  1  0
 15 18  1  0
 17 18  1  0
 17 19  1  6
 18 20  1  1
M  END
