x0849_0_A-x0438_0_A
     RDKit          3D

 20 22  0  0  0  0  0  0  0  0999 V2000
   -3.4420   15.3210   -2.9400 Br  0  0  0  0  0  0  0  0  0  0  0  0
   -3.5950   14.7670   -1.0670 C   0  0  1  0  0  0  0  0  0  0  0  0
   -2.3170   14.7090   -0.3060 C   0  0  0  0  0  0  0  0  0  0  0  0
   -4.6180   15.5620   -0.2650 C   0  0  0  0  0  0  0  0  0  0  0  0
   -2.4500   14.5780    1.0680 C   0  0  0  0  0  0  0  0  0  0  0  0
   -4.9220   14.6310    0.9120 C   0  0  1  0  0  0  0  0  0  0  0  0
   -1.0260   14.7690   -0.8540 C   0  0  0  0  0  0  0  0  0  0  0  0
   -3.6930   14.5090    1.6880 N   0  0  0  0  0  0  0  0  0  0  0  0
   -1.4090   14.5080    1.8890 N   0  0  0  0  0  0  0  0  0  0  0  0
    0.0670   14.6970   -0.0050 C   0  0  0  0  0  0  0  0  0  0  0  0
   -6.1520   14.9260    1.6370 N   0  0  0  0  0  0  0  0  0  0  0  0
   -5.4050   13.3140    0.2950 C   0  0  0  0  0  0  0  0  0  0  0  0
   -0.1890   14.5680    1.3480 C   0  0  0  0  0  0  0  0  0  0  0  0
   -6.7710   13.6330   -0.1780 N   0  0  0  0  0  0  0  0  0  0  0  0
   -7.2930   14.5860    0.7870 C   0  0  1  0  0  0  0  0  0  0  0  0
   -8.4560   14.0100    1.5870 C   0  0  0  0  0  0  0  0  0  0  0  0
   -9.3190   15.2420    2.5490 S   0  0  0  0  0  0  0  0  0  0  0  0
   -8.2590   15.5850    3.9410 C   0  0  0  0  0  0  0  0  0  0  0  0
  -10.5150   14.6150    3.0820 O   0  0  0  0  0  0  0  0  0  0  0  0
   -9.4540   16.4450    1.7540 O   0  0  0  0  0  0  0  0  0  0  0  0
  2  1  1  6
  2  3  1  0
  2  4  1  0
  3  5  2  0
  6  4  1  6
  3  7  1  0
  5  8  1  0
  6  8  1  0
  5  9  1  0
  7 10  2  0
  6 11  1  0
  6 12  1  0
  9 13  2  0
 10 13  1  0
 12 14  1  0
 11 15  1  0
 14 15  1  0
 15 16  1  1
 17 16  1  0
 17 18  1  0
 17 19  2  0
 17 20  2  0
M  END
