x0849_0_A_α-x0962_3_A_α
     RDKit          3D

 24 26  0  0  0  0  0  0  0  0999 V2000
   -3.5350   15.1970   -2.9870 Br  0  0  0  0  0  0  0  0  0  0  0  0
   -3.3920   15.0970   -1.0950 C   0  0  0  0  0  0  0  0  0  0  0  0
   -2.1780   14.8500   -0.3760 C   0  0  0  0  0  0  0  0  0  0  0  0
   -4.6070   15.2880   -0.4350 C   0  0  0  0  0  0  0  0  0  0  0  0
   -2.3590   14.8120    1.0240 C   0  0  0  0  0  0  0  0  0  0  0  0
   -4.6080   15.2250    0.9270 C   0  0  0  0  0  0  0  0  0  0  0  0
   -0.8110   14.6360   -0.8340 C   0  0  0  0  0  0  0  0  0  0  0  0
   -0.2610   14.6100   -2.2480 C   0  0  0  0  0  0  0  0  0  0  0  0
   -3.5110   14.9920    1.6310 N   0  0  0  0  0  0  0  0  0  0  0  0
   -1.3940   14.5890    1.8770 N   0  0  0  0  0  0  0  0  0  0  0  0
    0.1720   14.4140    0.1150 C   0  0  0  0  0  0  0  0  0  0  0  0
    1.1960   14.0950   -2.2730 C   0  0  0  0  0  0  0  0  0  0  0  0
   -0.1670   14.3980    1.4390 C   0  0  0  0  0  0  0  0  0  0  0  0
    1.7910   14.0760   -3.6860 C   0  0  0  0  0  0  0  0  0  0  0  0
    2.3720   12.7140   -4.1050 C   0  0  0  0  0  0  0  0  0  0  0  0
    2.1720   12.4130   -5.5950 C   0  0  0  0  0  0  0  0  0  0  0  0
    1.0750   11.3660   -5.8430 C   0  0  0  0  0  0  0  0  0  0  0  0
    1.1110   10.6290   -7.2020 C   0  0  2  0  0  0  0  0  0  0  0  0
    1.0730   11.4680   -8.3610 N   0  0  0  0  0  0  0  0  0  0  0  0
    0.0310    9.6610   -7.3780 C   0  0  0  0  0  0  0  0  0  0  0  0
    0.1060    8.5320   -8.1530 N   0  0  0  0  0  0  0  0  0  0  0  0
   -1.2350    9.6520   -6.8540 C   0  0  0  0  0  0  0  0  0  0  0  0
   -1.0970    7.9010   -8.0620 C   0  0  0  0  0  0  0  0  0  0  0  0
   -1.9280    8.5570   -7.2830 N   0  0  0  0  0  0  0  0  0  0  0  0
  1  2  1  0
  2  3  2  0
  2  4  1  0
  3  5  1  0
  4  6  2  0
  3  7  1  0
  7  8  1  0
  5  9  2  0
  6  9  1  0
  5 10  1  0
  7 11  2  0
  8 12  1  0
 10 13  2  0
 11 13  1  0
 12 14  1  0
 14 15  1  0
 15 16  1  0
 16 17  1  0
 17 18  1  0
 18 19  1  6
 18 20  1  0
 20 21  1  0
 20 22  2  0
 21 23  1  0
 22 24  1  0
 23 24  2  0
M  END
