x0849_0_A_α-x0905_0_A_α
     RDKit          3D

 12 13  0  0  0  0  0  0  0  0999 V2000
   -3.6100   15.0760   -2.8650 Br  0  0  0  0  0  0  0  0  0  0  0  0
   -3.5720   15.0060   -0.9630 C   0  0  0  0  0  0  0  0  0  0  0  0
   -2.3560   14.8150   -0.2610 C   0  0  0  0  0  0  0  0  0  0  0  0
   -4.7720   15.1420   -0.2600 C   0  0  0  0  0  0  0  0  0  0  0  0
   -6.0030   15.3240   -0.8420 O   0  0  0  0  0  0  0  0  0  0  0  0
   -2.4350   14.7700    1.1330 C   0  0  0  0  0  0  0  0  0  0  0  0
   -4.7030   15.0860    1.1070 C   0  0  0  0  0  0  0  0  0  0  0  0
   -1.0670   14.6620   -0.8370 C   0  0  0  0  0  0  0  0  0  0  0  0
   -3.5680   14.9040    1.7840 N   0  0  0  0  0  0  0  0  0  0  0  0
   -1.3820   14.5910    1.8860 N   0  0  0  0  0  0  0  0  0  0  0  0
    0.0400   14.4800   -0.0230 C   0  0  0  0  0  0  0  0  0  0  0  0
   -0.1860   14.4520    1.3340 C   0  0  0  0  0  0  0  0  0  0  0  0
  1  2  1  0
  2  3  2  0
  2  4  1  0
  4  5  1  0
  3  6  1  0
  4  7  2  0
  3  8  1  0
  6  9  2  0
  7  9  1  0
  6 10  1  0
  8 11  2  0
 10 12  2  0
 11 12  1  0
M  END
