x0849_0_A-x0864_0_A
     RDKit          3D

 24 26  0  0  0  0  0  0  0  0999 V2000
   -3.8180   15.2080   -2.8100 Br  0  0  0  0  0  0  0  0  0  0  0  0
   -3.6570   15.1770   -0.9200 C   0  0  0  0  0  0  0  0  0  0  0  0
   -2.4620   14.7950   -0.3130 C   0  0  0  0  0  0  0  0  0  0  0  0
   -4.7480   15.5340   -0.1530 C   0  0  0  0  0  0  0  0  0  0  0  0
   -2.4090   14.7870    1.0800 C   0  0  0  0  0  0  0  0  0  0  0  0
   -4.5790   15.4820    1.2070 C   0  0  0  0  0  0  0  0  0  0  0  0
   -1.3250   14.4170   -1.0230 C   0  0  0  0  0  0  0  0  0  0  0  0
   -3.4470   15.1210    1.8050 N   0  0  0  0  0  0  0  0  0  0  0  0
   -1.3250   14.4430    1.7360 N   0  0  0  0  0  0  0  0  0  0  0  0
   -0.1910   14.0390   -0.3610 C   0  0  0  0  0  0  0  0  0  0  0  0
    0.9940   13.6100   -1.1630 C   0  0  0  0  0  0  0  0  0  0  0  0
   -0.2510   14.0730    1.0310 C   0  0  0  0  0  0  0  0  0  0  0  0
    0.8340   13.7750   -2.5860 N   0  0  0  0  0  0  0  0  0  0  0  0
    0.6770   12.7190   -3.3030 C   0  0  0  0  0  0  0  0  0  0  0  0
    0.5000   12.8890   -4.7940 C   0  0  0  0  0  0  0  0  0  0  0  0
    0.6580   11.4430   -2.8310 O   0  0  0  0  0  0  0  0  0  0  0  0
   -0.0980   11.7150   -5.3970 N   0  0  0  0  0  0  0  0  0  0  0  0
   -1.2860   11.1890   -4.9260 C   0  0  0  0  0  0  0  0  0  0  0  0
    0.5080   11.2580   -6.5490 C   0  0  0  0  0  0  0  0  0  0  0  0
    1.5420   11.7490   -6.9740 O   0  0  0  0  0  0  0  0  0  0  0  0
   -1.8790   10.1750   -5.5640 C   0  0  0  0  0  0  0  0  0  0  0  0
   -0.1350   10.1290   -7.2420 C   0  0  0  0  0  0  0  0  0  0  0  0
   -1.2750    9.6200   -6.7570 C   0  0  0  0  0  0  0  0  0  0  0  0
   -2.1310    8.1890   -7.5850 Br  0  0  0  0  0  0  0  0  0  0  0  0
  1  2  1  0
  2  3  2  0
  2  4  1  0
  3  5  1  0
  4  6  2  0
  3  7  1  0
  5  8  2  0
  6  8  1  0
  5  9  1  0
  7 10  2  0
 10 11  1  0
  9 12  2  0
 10 12  1  0
 11 13  1  0
 13 14  2  3
 14 15  1  0
 14 16  1  0
 15 17  1  0
 17 18  1  0
 17 19  1  0
 19 20  2  0
 18 21  2  0
 19 22  1  0
 21 23  1  0
 22 23  2  0
 23 24  1  0
M  END
