x0844_0_A-x0438_0_A
     RDKit          3D

 17 18  0  0  0  0  0  0  0  0999 V2000
   -6.4320   14.7900    1.7450 O   0  0  0  0  0  0  0  0  0  0  0  0
   -6.1700   14.9090    0.3740 C   0  0  2  0  0  0  0  0  0  0  0  0
   -5.2110   15.9000    0.2030 N   0  0  0  0  0  0  0  0  0  0  0  0
   -7.5290   15.0220   -0.0350 N   0  0  0  0  0  0  0  0  0  0  0  0
   -5.8780   13.6190   -0.3320 C   0  0  1  0  0  0  0  0  0  0  0  0
   -3.9730   15.9160    0.7040 C   0  0  0  0  0  0  0  0  0  0  0  0
   -4.4680   13.0310   -0.3370 C   0  0  0  0  0  0  0  0  0  0  0  0
   -8.0080   13.7350    0.4880 C   0  0  1  0  0  0  0  0  0  0  0  0
   -6.8240   12.8510    0.4930 N   0  0  0  0  0  0  0  0  0  0  0  0
   -8.6990   13.7740    1.8550 C   0  0  0  0  0  0  0  0  0  0  0  0
   -3.0540   15.0670    0.3810 C   0  0  0  0  0  0  0  0  0  0  0  0
   -3.2790   13.9710   -0.5800 C   0  0  2  0  0  0  0  0  0  0  0  0
   -3.3920   14.7570   -2.3910 Br  0  0  0  0  0  0  0  0  0  0  0  0
   -9.4040   15.2920    2.4890 S   0  0  0  0  0  0  0  0  0  0  0  0
   -8.3870   15.7470    3.8840 C   0  0  0  0  0  0  0  0  0  0  0  0
  -10.6960   14.9270    3.0460 O   0  0  0  0  0  0  0  0  0  0  0  0
   -9.3470   16.3350    1.4860 O   0  0  0  0  0  0  0  0  0  0  0  0
  2  1  1  1
  2  3  1  0
  2  4  1  0
  2  5  1  0
  3  6  1  0
  5  7  1  1
  4  8  1  0
  5  9  1  0
  8  9  1  0
  8 10  1  1
  6 11  2  0
  7 12  1  0
 11 12  1  0
 12 13  1  6
 14 10  1  0
 14 15  1  0
 14 16  2  0
 14 17  2  0
M  END
