x0844_0_A-x0849_0_A
     RDKit          3D

 13 14  0  0  0  0  0  0  0  0999 V2000
   -7.2630   14.5990    0.2980 O   0  0  0  0  0  0  0  0  0  0  0  0
   -6.0810   14.9220    0.1610 C   0  0  0  0  0  0  0  0  0  0  0  0
   -5.2390   15.1500    1.2100 N   0  0  0  0  0  0  0  0  0  0  0  0
   -5.4300   15.1260   -1.1700 C   0  0  0  0  0  0  0  0  0  0  0  0
   -3.9240   15.7340    1.0000 C   0  0  0  0  0  0  0  0  0  0  0  0
   -4.0230   14.5330   -1.1920 C   0  0  1  0  0  0  0  0  0  0  0  0
   -3.2740   14.8930   -2.9720 Br  0  0  0  0  0  0  0  0  0  0  0  0
   -3.0670   14.9630   -0.0380 C   0  0  1  0  0  0  0  0  0  0  0  0
   -1.7430   15.6570   -0.5710 C   0  0  0  0  0  0  0  0  0  0  0  0
   -2.6070   13.7750    0.7830 C   0  0  0  0  0  0  0  0  0  0  0  0
   -1.5820   14.1820    1.7260 N   0  0  0  0  0  0  0  0  0  0  0  0
   -0.4240   15.2770    0.0820 C   0  0  0  0  0  0  0  0  0  0  0  0
   -0.4220   14.5720    1.1940 C   0  0  0  0  0  0  0  0  0  0  0  0
  1  2  2  0
  2  3  1  0
  2  4  1  0
  3  5  1  0
  4  6  1  0
  6  7  1  6
  8  5  1  1
  6  8  1  0
  8  9  1  0
  8 10  1  0
 10 11  1  0
  9 12  1  0
 11 13  1  0
 12 13  2  0
M  END
