x0849_0_A-x0722_0_A
     RDKit          3D

 17 18  0  0  0  0  0  0  0  0999 V2000
   -3.8000   15.0510   -3.0760 Br  0  0  0  0  0  0  0  0  0  0  0  0
   -3.5870   15.5530   -1.1570 C   0  0  2  0  0  0  0  0  0  0  0  0
   -2.0930   15.7270   -0.9190 C   0  0  1  0  0  0  0  0  0  0  0  0
   -4.1940   14.4880   -0.2310 C   0  0  1  0  0  0  0  0  0  0  0  0
   -3.5380   13.1750   -0.7550 C   0  0  0  0  0  0  0  0  0  0  0  0
   -1.5920   15.0360    0.3040 C   0  0  2  0  0  0  0  0  0  0  0  0
   -3.7850   14.7300    1.2770 C   0  0  2  0  0  0  0  0  0  0  0  0
   -1.1930   15.3060   -2.1000 C   0  0  0  0  0  0  0  0  0  0  0  0
   -5.7250   14.3520   -0.5000 C   0  0  0  0  0  0  0  0  0  0  0  0
   -4.5940   15.7350    2.0520 C   0  0  0  0  0  0  0  0  0  0  0  0
   -2.3740   15.1270    1.4440 N   0  0  0  0  0  0  0  0  0  0  0  0
   -0.2270   15.4040    0.5290 N   0  0  0  0  0  0  0  0  0  0  0  0
    0.2320   15.0430   -1.7080 C   0  0  0  0  0  0  0  0  0  0  0  0
   -6.4740   15.2460   -0.8960 O   0  0  0  0  0  0  0  0  0  0  0  0
   -6.3020   13.1440   -0.2770 N   0  0  0  0  0  0  0  0  0  0  0  0
   -1.7210   13.9540    1.7910 C   0  0  0  0  0  0  0  0  0  0  0  0
    0.6230   15.1080   -0.4560 C   0  0  0  0  0  0  0  0  0  0  0  0
  2  1  1  6
  2  3  1  0
  2  4  1  0
  4  5  1  6
  3  6  1  0
  4  7  1  0
  3  8  1  6
  4  9  1  0
  7 10  1  6
  6 11  1  0
  7 11  1  0
  6 12  1  1
  8 13  1  0
  9 14  2  0
  9 15  1  0
 11 16  1  0
 12 17  1  0
 13 17  2  0
M  END
