x0849_0_A_α-x0855_0_A_α
     RDKit          3D

 22 24  0  0  0  0  0  0  0  0999 V2000
   -3.8400   15.2320   -2.8270 Br  0  0  0  0  0  0  0  0  0  0  0  0
   -3.6560   15.1900   -0.9390 C   0  0  0  0  0  0  0  0  0  0  0  0
   -2.4510   14.8060   -0.3550 C   0  0  0  0  0  0  0  0  0  0  0  0
   -4.7400   15.5410   -0.1590 C   0  0  0  0  0  0  0  0  0  0  0  0
   -2.3850   14.7890    1.0370 C   0  0  0  0  0  0  0  0  0  0  0  0
   -4.5540   15.4800    1.2000 C   0  0  0  0  0  0  0  0  0  0  0  0
   -1.3220   14.4390   -1.0930 C   0  0  0  0  0  0  0  0  0  0  0  0
   -3.4130   15.1160    1.7790 N   0  0  0  0  0  0  0  0  0  0  0  0
   -1.2920   14.4380    1.6730 N   0  0  0  0  0  0  0  0  0  0  0  0
   -0.1750   14.0560   -0.4530 C   0  0  0  0  0  0  0  0  0  0  0  0
    1.0230   13.6320   -1.2580 C   0  0  0  0  0  0  0  0  0  0  0  0
   -0.2300   14.0790    0.9450 C   0  0  0  0  0  0  0  0  0  0  0  0
    0.8210   13.6930   -2.6740 O   0  0  0  0  0  0  0  0  0  0  0  0
    0.7900   12.4710   -3.3090 C   0  0  0  0  0  0  0  0  0  0  0  0
    0.8760   11.3850   -2.7440 O   0  0  0  0  0  0  0  0  0  0  0  0
    0.6170   12.6600   -4.7890 C   0  0  0  0  0  0  0  0  0  0  0  0
   -0.4060   11.7430   -5.2470 N   0  0  0  0  0  0  0  0  0  0  0  0
   -0.2820   10.7650   -6.1890 C   0  0  0  0  0  0  0  0  0  0  0  0
   -1.6400   11.8210   -4.7060 N   0  0  0  0  0  0  0  0  0  0  0  0
   -1.5150   10.1710   -6.2480 C   0  0  0  0  0  0  0  0  0  0  0  0
   -2.3170   10.8510   -5.3270 C   0  0  0  0  0  0  0  0  0  0  0  0
   -2.0570    8.7470   -7.3180 Br  0  0  0  0  0  0  0  0  0  0  0  0
  1  2  1  0
  2  3  2  0
  2  4  1  0
  3  5  1  0
  4  6  2  0
  3  7  1  0
  5  8  2  0
  6  8  1  0
  5  9  1  0
  7 10  2  0
 10 11  1  0
  9 12  2  0
 10 12  1  0
 11 13  1  0
 13 14  1  0
 14 15  2  0
 14 16  1  0
 16 17  1  0
 17 18  1  0
 17 19  1  0
 18 20  2  0
 19 21  2  0
 20 21  1  0
 20 22  1  0
M  END
