x0849_0_A_α-x0282_0_A_α
     RDKit          3D

 13 14  0  0  0  0  0  0  0  0999 V2000
   -3.4030   15.1050   -3.0070 Br  0  0  0  0  0  0  0  0  0  0  0  0
   -3.4860   14.8770   -1.1230 C   0  0  0  0  0  0  0  0  0  0  0  0
   -2.3280   14.7640   -0.3310 C   0  0  0  0  0  0  0  0  0  0  0  0
   -4.7540   14.8160   -0.5640 C   0  0  0  0  0  0  0  0  0  0  0  0
   -2.5220   14.6030    1.0450 C   0  0  0  0  0  0  0  0  0  0  0  0
   -4.8530   14.6370    0.7940 C   0  0  0  0  0  0  0  0  0  0  0  0
   -0.9960   14.8000   -0.8150 C   0  0  0  0  0  0  0  0  0  0  0  0
   -6.2350   14.5170    1.4530 C   0  0  0  0  0  0  0  0  0  0  0  0
   -3.7440   14.5440    1.5820 N   0  0  0  0  0  0  0  0  0  0  0  0
   -1.4960   14.4950    1.8720 N   0  0  0  0  0  0  0  0  0  0  0  0
    0.0660   14.6800    0.0590 C   0  0  0  0  0  0  0  0  0  0  0  0
   -7.3400   14.6620    0.5360 O   0  0  0  0  0  0  0  0  0  0  0  0
   -0.2430   14.5300    1.3900 C   0  0  0  0  0  0  0  0  0  0  0  0
  1  2  1  0
  2  3  2  0
  2  4  1  0
  3  5  1  0
  4  6  2  0
  3  7  1  0
  6  8  1  0
  5  9  2  0
  6  9  1  0
  5 10  1  0
  7 11  2  0
  8 12  1  0
 10 13  2  0
 11 13  1  0
M  END
