x0844_0_A_α-x0524_0_A_α
     RDKit          3D

 30 32  0  0  0  0  0  0  0  0999 V2000
   -7.5410   14.7670   -0.1850 O   0  0  0  0  0  0  0  0  0  0  0  0
   -6.3180   14.8990   -0.1400 C   0  0  0  0  0  0  0  0  0  0  0  0
   -5.6450   14.8260    1.0560 N   0  0  0  0  0  0  0  0  0  0  0  0
   -5.4700   15.1490   -1.3690 C   0  0  0  0  0  0  0  0  0  0  0  0
   -4.3250   15.1260    1.2080 C   0  0  0  0  0  0  0  0  0  0  0  0
   -4.0250   14.6950   -1.1950 C   0  0  1  0  0  0  0  0  0  0  0  0
   -3.1850   15.2590   -2.2240 O   0  0  0  0  0  0  0  0  0  0  0  0
   -3.5060   15.0760    0.1590 C   0  0  0  0  0  0  0  0  0  0  0  0
   -3.2850   14.6390   -3.5130 C   0  0  0  0  0  0  0  0  0  0  0  0
   -1.8980   14.4260   -4.1430 C   0  0  0  0  0  0  0  0  0  0  0  0
   -1.9220   13.4870   -5.3630 C   0  0  0  0  0  0  0  0  0  0  0  0
   -0.5670   12.8320   -5.6990 C   0  0  0  0  0  0  0  0  0  0  0  0
   -0.6170   11.3020   -5.6140 C   0  0  0  0  0  0  0  0  0  0  0  0
   -0.2830   10.6370   -6.8800 N   0  0  0  0  0  0  0  0  0  0  0  0
   -0.8010    9.4920   -7.1700 C   0  0  0  0  0  0  0  0  0  0  0  0
   -0.6230    8.6900   -8.2810 N   0  0  0  0  0  0  0  0  0  0  0  0
   -1.7620    8.9490   -6.1270 C   0  0  0  0  0  0  0  0  0  0  0  0
    0.4910    8.6580   -9.1630 C   0  0  0  0  0  0  0  0  0  0  0  0
    1.6180    7.8550   -8.9710 C   0  0  0  0  0  0  0  0  0  0  0  0
    0.4450    9.4760  -10.2970 C   0  0  0  0  0  0  0  0  0  0  0  0
    2.6690    7.8660   -9.8940 C   0  0  0  0  0  0  0  0  0  0  0  0
    1.4940    9.4870  -11.2170 C   0  0  0  0  0  0  0  0  0  0  0  0
    2.6150    8.6820  -11.0290 C   0  0  0  0  0  0  0  0  0  0  0  0
    3.6590    8.6990  -11.9680 N   0  0  0  0  0  0  0  0  0  0  0  0
    3.8740    9.5750  -13.0550 C   0  0  0  0  0  0  0  0  0  0  0  0
    3.1810   10.7780  -13.2420 C   0  0  0  0  0  0  0  0  0  0  0  0
    4.8420    9.2240  -14.0020 C   0  0  0  0  0  0  0  0  0  0  0  0
    3.4510   11.5980  -14.3340 C   0  0  0  0  0  0  0  0  0  0  0  0
    5.1150   10.0450  -15.0970 C   0  0  0  0  0  0  0  0  0  0  0  0
    4.4180   11.2350  -15.2630 C   0  0  0  0  0  0  0  0  0  0  0  0
  1  2  2  0
  2  3  1  0
  2  4  1  0
  3  5  1  0
  4  6  1  0
  6  7  1  6
  5  8  2  0
  6  8  1  0
  7  9  1  0
  9 10  1  0
 10 11  1  0
 11 12  1  0
 12 13  1  0
 13 14  1  0
 14 15  2  3
 15 16  1  0
 15 17  1  0
 16 18  1  0
 18 19  2  0
 18 20  1  0
 19 21  1  0
 20 22  2  0
 21 23  2  0
 22 23  1  0
 23 24  1  0
 24 25  1  0
 25 26  2  0
 25 27  1  0
 26 28  1  0
 27 29  2  0
 28 30  2  0
 29 30  1  0
M  END
