x0849_0_A-x0950_0_A
     RDKit          3D

 18 19  0  0  0  0  0  0  0  0999 V2000
   -3.8580   15.1990   -2.7990 Br  0  0  0  0  0  0  0  0  0  0  0  0
   -3.6820   15.1810   -0.9090 C   0  0  0  0  0  0  0  0  0  0  0  0
   -2.4690   14.8510   -0.3160 C   0  0  0  0  0  0  0  0  0  0  0  0
   -4.7760   15.4960   -0.1350 C   0  0  0  0  0  0  0  0  0  0  0  0
   -2.4000   14.8470    1.0770 C   0  0  0  0  0  0  0  0  0  0  0  0
   -4.5900   15.4590    1.2260 C   0  0  0  0  0  0  0  0  0  0  0  0
   -1.3260   14.5230   -1.0460 C   0  0  0  0  0  0  0  0  0  0  0  0
   -3.4350   15.1450    1.8160 N   0  0  0  0  0  0  0  0  0  0  0  0
   -1.2930   14.5420    1.7090 N   0  0  0  0  0  0  0  0  0  0  0  0
   -0.1610   14.1970   -0.4090 C   0  0  0  0  0  0  0  0  0  0  0  0
    1.0200   13.8420   -1.2650 C   0  0  0  0  0  0  0  0  0  0  0  0
   -0.2150   14.2220    0.9880 C   0  0  0  0  0  0  0  0  0  0  0  0
    0.9490   12.4260   -1.5230 O   0  0  0  0  0  0  0  0  0  0  0  0
    0.8410   11.9380   -2.8070 C   0  0  0  0  0  0  0  0  0  0  0  0
    1.4880   12.8000   -3.9070 C   0  0  1  0  0  0  0  0  0  0  0  0
    0.2780   10.8840   -3.0680 O   0  0  0  0  0  0  0  0  0  0  0  0
    2.9850   12.5510   -4.0030 C   0  0  0  0  0  0  0  0  0  0  0  0
    0.9280   12.4680   -5.1780 O   0  0  0  0  0  0  0  0  0  0  0  0
  1  2  1  0
  2  3  2  0
  2  4  1  0
  3  5  1  0
  4  6  2  0
  3  7  1  0
  5  8  2  0
  6  8  1  0
  5  9  1  0
  7 10  2  0
 10 11  1  0
  9 12  2  0
 10 12  1  0
 11 13  1  0
 13 14  1  0
 14 15  1  0
 14 16  2  0
 15 17  1  6
 15 18  1  0
M  END
