x0849_0_A-x0926_0_A
     RDKit          3D

 12 13  0  0  0  0  0  0  0  0999 V2000
   -3.6010   14.4640   -2.7290 Br  0  0  0  0  0  0  0  0  0  0  0  0
   -3.4300   15.4970   -1.0940 C   0  0  2  0  0  0  0  0  0  0  0  0
   -2.2000   15.2580   -0.2390 C   0  0  1  0  0  0  0  0  0  0  0  0
   -4.6690   15.2970   -0.2460 C   0  0  0  0  0  0  0  0  0  0  0  0
   -5.7450   14.8620   -0.6930 O   0  0  0  0  0  0  0  0  0  0  0  0
   -2.4860   14.3820    1.0000 C   0  0  2  0  0  0  0  0  0  0  0  0
   -4.5020   15.6930    1.2070 C   0  0  0  0  0  0  0  0  0  0  0  0
   -0.9180   14.8240   -0.9700 C   0  0  0  0  0  0  0  0  0  0  0  0
   -3.4130   15.0310    1.8730 N   0  0  0  0  0  0  0  0  0  0  0  0
   -1.2610   14.1490    1.6980 N   0  0  0  0  0  0  0  0  0  0  0  0
    0.1960   14.9020    0.0150 C   0  0  0  0  0  0  0  0  0  0  0  0
   -0.0650   14.5710    1.2780 C   0  0  0  0  0  0  0  0  0  0  0  0
  2  1  1  6
  2  3  1  0
  2  4  1  0
  4  5  2  0
  3  6  1  0
  4  7  1  0
  3  8  1  6
  6  9  1  1
  7  9  1  0
  6 10  1  0
  8 11  1  0
 10 12  1  0
 11 12  2  0
M  END
