x0849_0_A-x0895_0_A
     RDKit          3D

 12 13  0  0  0  0  0  0  0  0999 V2000
   -3.5850   15.1400   -2.8980 Br  0  0  0  0  0  0  0  0  0  0  0  0
   -3.4700   15.0580   -1.0030 C   0  0  0  0  0  0  0  0  0  0  0  0
   -2.2480   14.8160   -0.3440 C   0  0  0  0  0  0  0  0  0  0  0  0
   -4.6470   15.2490   -0.2770 C   0  0  0  0  0  0  0  0  0  0  0  0
   -2.2750   14.7680    1.0420 C   0  0  0  0  0  0  0  0  0  0  0  0
   -4.6000   15.1930    1.1140 C   0  0  0  0  0  0  0  0  0  0  0  0
   -0.9740   14.6130   -0.9280 C   0  0  0  0  0  0  0  0  0  0  0  0
   -3.4130   14.9500    1.7670 N   0  0  0  0  0  0  0  0  0  0  0  0
   -1.2330   14.5480    1.8150 N   0  0  0  0  0  0  0  0  0  0  0  0
    0.1330   14.3860   -0.1100 C   0  0  0  0  0  0  0  0  0  0  0  0
   -3.3070   14.8880    3.0270 O   0  0  0  0  0  0  0  0  0  0  0  0
   -0.0810   14.3670    1.2560 C   0  0  0  0  0  0  0  0  0  0  0  0
  1  2  1  0
  2  3  2  0
  2  4  1  0
  3  5  1  0
  4  6  2  0
  3  7  1  0
  5  8  2  0
  6  8  1  0
  5  9  1  0
  7 10  2  0
  8 11  1  0
  9 12  2  0
 10 12  1  0
M  CHG  2   8   1  11  -1
M  END
