x0849_0_A-x1012_0_A
     RDKit          3D

 24 26  0  0  0  0  0  0  0  0999 V2000
   -3.8910   15.1760   -2.7470 Br  0  0  0  0  0  0  0  0  0  0  0  0
   -3.7260   15.1580   -0.8600 C   0  0  0  0  0  0  0  0  0  0  0  0
   -2.5100   14.8830   -0.2340 C   0  0  0  0  0  0  0  0  0  0  0  0
   -4.8500   15.4200   -0.1160 C   0  0  0  0  0  0  0  0  0  0  0  0
   -2.4720   14.8760    1.1520 C   0  0  0  0  0  0  0  0  0  0  0  0
   -4.6970   15.3870    1.2440 C   0  0  0  0  0  0  0  0  0  0  0  0
   -1.3320   14.6130   -0.9140 C   0  0  0  0  0  0  0  0  0  0  0  0
   -3.5430   15.1250    1.8550 N   0  0  0  0  0  0  0  0  0  0  0  0
   -1.3670   14.6190    1.8190 N   0  0  0  0  0  0  0  0  0  0  0  0
   -0.1780   14.3450   -0.2380 C   0  0  0  0  0  0  0  0  0  0  0  0
    1.0060   14.0480   -1.0710 C   0  0  0  0  0  0  0  0  0  0  0  0
   -0.2510   14.3630    1.1440 C   0  0  0  0  0  0  0  0  0  0  0  0
    0.8700   12.6710   -1.5050 N   0  0  0  0  0  0  0  0  0  0  0  0
    0.5190   12.4180   -2.6930 C   0  0  0  0  0  0  0  0  0  0  0  0
    0.4110   11.1110   -2.9730 O   0  0  0  0  0  0  0  0  0  0  0  0
    0.1970   13.3560   -3.8400 C   0  0  0  0  0  0  0  0  0  0  0  0
   -1.3080   13.6610   -3.8400 C   0  0  0  0  0  0  0  0  0  0  0  0
    1.0480   14.6450   -3.7900 C   0  0  0  0  0  0  0  0  0  0  0  0
   -1.6710   14.7010   -4.8920 C   0  0  0  0  0  0  0  0  0  0  0  0
    0.6680   15.6070   -4.9090 C   0  0  0  0  0  0  0  0  0  0  0  0
   -0.7740   15.8680   -4.9190 N   0  0  0  0  0  0  0  0  0  0  0  0
   -1.2230   17.1670   -4.7930 C   0  0  0  0  0  0  0  0  0  0  0  0
   -0.2810   18.1240   -4.6110 N   0  0  0  0  0  0  0  0  0  0  0  0
   -2.3930   17.5170   -4.8210 O   0  0  0  0  0  0  0  0  0  0  0  0
  1  2  1  0
  2  3  2  0
  2  4  1  0
  3  5  1  0
  4  6  2  0
  3  7  1  0
  5  8  2  0
  6  8  1  0
  5  9  1  0
  7 10  2  0
 10 11  1  0
  9 12  2  0
 10 12  1  0
 11 13  1  0
 13 14  2  3
 14 15  1  0
 14 16  1  0
 16 17  1  0
 16 18  1  0
 17 19  1  0
 18 20  1  0
 19 21  1  0
 20 21  1  0
 21 22  1  0
 22 23  1  0
 22 24  2  0
M  END
