x0844_0_A-x0591_0_A
     RDKit          3D

 21 22  0  0  0  0  0  0  0  0999 V2000
   -6.5140   14.7610    0.3020 N   0  0  0  0  0  0  0  0  0  0  0  0
   -6.8100   14.3090   -0.8440 C   0  0  0  0  0  0  0  0  0  0  0  0
   -8.1130   13.9820   -0.9390 N   0  0  0  0  0  0  0  0  0  0  0  0
   -5.1900   15.0160    0.3700 C   0  0  0  0  0  0  0  0  0  0  0  0
   -4.6670   14.9770    1.5800 N   0  0  0  0  0  0  0  0  0  0  0  0
   -4.4930   15.2610   -0.7850 C   0  0  0  0  0  0  0  0  0  0  0  0
   -5.7640   14.1890   -1.9190 C   0  0  0  0  0  0  0  0  0  0  0  0
   -8.8850   13.9690    0.2890 C   0  0  0  0  0  0  0  0  0  0  0  0
   -3.3510   15.1840    1.6440 C   0  0  0  0  0  0  0  0  0  0  0  0
   -3.1470   15.4580   -0.6810 C   0  0  0  0  0  0  0  0  0  0  0  0
   -4.5320   13.5460   -1.6650 C   0  0  0  0  0  0  0  0  0  0  0  0
   -6.0150   14.7410   -3.1720 C   0  0  0  0  0  0  0  0  0  0  0  0
   -2.1260   15.7490   -2.2360 Br  0  0  0  0  0  0  0  0  0  0  0  0
   -2.5410   15.4250    0.5590 C   0  0  0  0  0  0  0  0  0  0  0  0
   -3.5550   13.4800   -2.6710 C   0  0  0  0  0  0  0  0  0  0  0  0
   -5.0420   14.6690   -4.1700 C   0  0  0  0  0  0  0  0  0  0  0  0
   -3.8160   14.0540   -3.9230 C   0  0  0  0  0  0  0  0  0  0  0  0
   -2.6140   14.0240   -5.2400 S   0  0  0  0  0  0  0  0  0  0  0  0
   -1.3670   15.0040   -4.6610 N   0  0  0  0  0  0  0  0  0  0  0  0
   -2.0410   12.7020   -5.3250 O   0  0  0  0  0  0  0  0  0  0  0  0
   -3.1900   14.7020   -6.3780 O   0  0  0  0  0  0  0  0  0  0  0  0
  1  2  2  3
  2  3  1  0
  1  4  1  0
  4  5  2  0
  4  6  1  0
  2  7  1  0
  3  8  1  0
  5  9  1  0
  6 10  2  0
  7 11  2  0
  7 12  1  0
 10 13  1  0
  9 14  2  0
 10 14  1  0
 11 15  1  0
 12 16  2  0
 15 17  2  0
 16 17  1  0
 17 18  1  0
 18 19  1  0
 18 20  2  0
 18 21  2  0
M  END
