x0844_0_A-x0421_0_A
     RDKit          3D

 12 13  0  0  0  0  0  0  0  0999 V2000
   -7.6470   15.2100   -0.6940 O   0  0  0  0  0  0  0  0  0  0  0  0
   -6.4830   14.9530   -0.4150 C   0  0  0  0  0  0  0  0  0  0  0  0
   -6.0820   14.6000    0.9740 C   0  0  0  0  0  0  0  0  0  0  0  0
   -5.4180   14.9580   -1.4380 C   0  0  0  0  0  0  0  0  0  0  0  0
   -4.6700   14.9270    1.2880 C   0  0  0  0  0  0  0  0  0  0  0  0
   -4.1250   15.0320   -1.0700 C   0  0  0  0  0  0  0  0  0  0  0  0
   -7.1390   14.6920    2.0580 C   0  0  0  0  0  0  0  0  0  0  0  0
   -6.6890   13.3440    1.5730 C   0  0  0  0  0  0  0  0  0  0  0  0
   -3.0660   15.0050   -2.1240 C   0  0  0  0  0  0  0  0  0  0  0  0
   -3.7490   15.1280    0.3320 C   0  0  0  0  0  0  0  0  0  0  0  0
   -3.4880   15.1290   -3.4020 N   0  0  0  0  0  0  0  0  0  0  0  0
   -1.8740   14.8640   -1.8600 O   0  0  0  0  0  0  0  0  0  0  0  0
  1  2  2  0
  3  2  1  0
  2  4  1  0
  3  5  1  0
  4  6  2  0
  3  7  1  0
  3  8  1  0
  7  8  1  0
  6  9  1  0
  5 10  2  0
  6 10  1  0
  9 11  1  0
  9 12  2  0
M  END
