x0849_0_A-x1012_0_A
     RDKit          3D

 24 26  0  0  0  0  0  0  0  0999 V2000
   -3.8930   15.1780   -2.7540 Br  0  0  0  0  0  0  0  0  0  0  0  0
   -3.7270   15.1620   -0.8670 C   0  0  0  0  0  0  0  0  0  0  0  0
   -2.5100   14.8860   -0.2400 C   0  0  0  0  0  0  0  0  0  0  0  0
   -4.8520   15.4260   -0.1220 C   0  0  0  0  0  0  0  0  0  0  0  0
   -2.4760   14.8820    1.1470 C   0  0  0  0  0  0  0  0  0  0  0  0
   -4.6990   15.3950    1.2390 C   0  0  0  0  0  0  0  0  0  0  0  0
   -1.3320   14.6140   -0.9180 C   0  0  0  0  0  0  0  0  0  0  0  0
   -3.5460   15.1320    1.8500 N   0  0  0  0  0  0  0  0  0  0  0  0
   -1.3710   14.6260    1.8160 N   0  0  0  0  0  0  0  0  0  0  0  0
   -0.1790   14.3480   -0.2400 C   0  0  0  0  0  0  0  0  0  0  0  0
    1.0060   14.0490   -1.0700 C   0  0  0  0  0  0  0  0  0  0  0  0
   -0.2530   14.3670    1.1420 C   0  0  0  0  0  0  0  0  0  0  0  0
    0.8680   12.6720   -1.5030 N   0  0  0  0  0  0  0  0  0  0  0  0
    0.5150   12.4130   -2.6900 C   0  0  0  0  0  0  0  0  0  0  0  0
    0.4060   11.1050   -2.9640 O   0  0  0  0  0  0  0  0  0  0  0  0
    0.1910   13.3440   -3.8420 C   0  0  0  0  0  0  0  0  0  0  0  0
   -1.3160   13.6460   -3.8450 C   0  0  0  0  0  0  0  0  0  0  0  0
    1.0430   14.6320   -3.7940 C   0  0  0  0  0  0  0  0  0  0  0  0
   -1.6750   14.6940   -4.8940 C   0  0  0  0  0  0  0  0  0  0  0  0
    0.6600   15.6050   -4.9010 C   0  0  0  0  0  0  0  0  0  0  0  0
   -0.7840   15.8610   -4.9030 N   0  0  0  0  0  0  0  0  0  0  0  0
   -1.2300   17.1620   -4.8060 C   0  0  0  0  0  0  0  0  0  0  0  0
   -0.2850   18.1260   -4.7380 N   0  0  0  0  0  0  0  0  0  0  0  0
   -2.4030   17.5060   -4.7750 O   0  0  0  0  0  0  0  0  0  0  0  0
  1  2  1  0
  2  3  2  0
  2  4  1  0
  3  5  1  0
  4  6  2  0
  3  7  1  0
  5  8  2  0
  6  8  1  0
  5  9  1  0
  7 10  2  0
 10 11  1  0
  9 12  2  0
 10 12  1  0
 11 13  1  0
 13 14  2  3
 14 15  1  0
 14 16  1  0
 16 17  1  0
 16 18  1  0
 17 19  1  0
 18 20  1  0
 19 21  1  0
 20 21  1  0
 21 22  1  0
 22 23  1  0
 22 24  2  0
M  END
