x0844_0_A_α-x0628_0_A_α
     RDKit          3D

 22 23  0  0  0  0  0  0  0  0999 V2000
   -7.5630   14.8090   -0.1290 O   0  0  0  0  0  0  0  0  0  0  0  0
   -6.3380   14.9360   -0.1060 C   0  0  0  0  0  0  0  0  0  0  0  0
   -5.6420   14.8630    1.0760 N   0  0  0  0  0  0  0  0  0  0  0  0
   -5.5180   15.1820   -1.3510 C   0  0  0  0  0  0  0  0  0  0  0  0
   -4.3170   15.1610    1.2040 C   0  0  0  0  0  0  0  0  0  0  0  0
   -4.0750   14.7120   -1.1980 C   0  0  1  0  0  0  0  0  0  0  0  0
   -3.2040   15.2180   -2.2280 O   0  0  0  0  0  0  0  0  0  0  0  0
   -3.5210   15.0990    0.1370 C   0  0  0  0  0  0  0  0  0  0  0  0
   -3.4730   14.6860   -3.5290 C   0  0  0  0  0  0  0  0  0  0  0  0
   -2.2320   13.9820   -4.0900 C   0  0  0  0  0  0  0  0  0  0  0  0
   -2.2910   12.4540   -3.9250 C   0  0  0  0  0  0  0  0  0  0  0  0
   -1.5180   11.7030   -4.9720 C   0  0  0  0  0  0  0  0  0  0  0  0
   -1.8970   10.5710   -5.5420 N   0  0  0  0  0  0  0  0  0  0  0  0
   -0.3040   12.0650   -5.5100 N   0  0  0  0  0  0  0  0  0  0  0  0
    0.5390   13.2120   -5.2290 C   0  0  0  0  0  0  0  0  0  0  0  0
   -0.8820   10.2790   -6.4120 C   0  0  0  0  0  0  0  0  0  0  0  0
    0.1100   11.1710   -6.4270 N   0  0  0  0  0  0  0  0  0  0  0  0
   -0.8820    9.0770   -7.2680 C   0  0  0  0  0  0  0  0  0  0  0  0
    1.6530   12.9010   -4.2380 C   0  0  0  0  0  0  0  0  0  0  0  0
    1.1170   12.2190   -3.0110 C   0  0  0  0  0  0  0  0  0  0  0  0
    0.5920   11.1220   -2.9320 O   0  0  0  0  0  0  0  0  0  0  0  0
    1.2730   12.9700   -1.9080 O   0  0  0  0  0  0  0  0  0  0  0  0
  1  2  2  0
  2  3  1  0
  2  4  1  0
  3  5  1  0
  4  6  1  0
  6  7  1  6
  5  8  2  0
  6  8  1  0
  7  9  1  0
  9 10  1  0
 10 11  1  0
 11 12  1  0
 12 13  2  0
 12 14  1  0
 14 15  1  0
 13 16  1  0
 14 17  1  0
 16 17  2  0
 16 18  1  0
 15 19  1  0
 19 20  1  0
 20 21  2  0
 20 22  1  0
M  END
