x0849_0_A-x0587_0_A
     RDKit          3D

 23 25  0  0  0  0  0  0  0  0999 V2000
   -3.7230   15.2820   -1.8660 O   0  0  0  0  0  0  0  0  0  0  0  0
   -4.8290   14.4290   -2.2050 C   0  0  0  0  0  0  0  0  0  0  0  0
   -5.3080   14.8600   -3.3850 F   0  0  0  0  0  0  0  0  0  0  0  0
   -3.5290   15.2710   -0.5290 C   0  0  0  0  0  0  0  0  0  0  0  0
   -4.3560   13.1640   -2.4220 F   0  0  0  0  0  0  0  0  0  0  0  0
   -2.3220   14.7390   -0.0470 C   0  0  0  0  0  0  0  0  0  0  0  0
   -4.4630   15.7360    0.3690 C   0  0  0  0  0  0  0  0  0  0  0  0
   -5.8430   14.4890   -1.0270 C   0  0  0  0  0  0  0  0  0  0  0  0
   -2.1560   14.6950    1.3360 C   0  0  0  0  0  0  0  0  0  0  0  0
   -4.1770   15.6370    1.7030 C   0  0  0  0  0  0  0  0  0  0  0  0
   -1.2750   14.2470   -0.8500 C   0  0  0  0  0  0  0  0  0  0  0  0
   -7.0740   15.0370   -1.2020 N   0  0  0  0  0  0  0  0  0  0  0  0
   -5.4490   13.9900    0.1700 N   0  0  0  0  0  0  0  0  0  0  0  0
   -3.0430   15.1170    2.1710 N   0  0  0  0  0  0  0  0  0  0  0  0
   -1.1010   14.2230    1.9010 N   0  0  0  0  0  0  0  0  0  0  0  0
   -0.1460   13.7390   -0.2330 C   0  0  0  0  0  0  0  0  0  0  0  0
   -7.8990   15.0960   -0.1190 C   0  0  0  0  0  0  0  0  0  0  0  0
   -6.3110   14.0760    1.2050 C   0  0  0  0  0  0  0  0  0  0  0  0
   -0.1390   13.7550    1.1430 C   0  0  0  0  0  0  0  0  0  0  0  0
   -7.5570   14.6310    1.1310 C   0  0  0  0  0  0  0  0  0  0  0  0
   -8.3930   14.6920    2.3470 C   0  0  0  0  0  0  0  0  0  0  0  0
   -7.7570   14.6560    3.5580 N   0  0  0  0  0  0  0  0  0  0  0  0
   -9.6140   14.7930    2.2840 O   0  0  0  0  0  0  0  0  0  0  0  0
  1  2  1  0
  2  3  1  0
  1  4  1  0
  2  5  1  0
  4  6  1  0
  4  7  2  0
  2  8  1  0
  6  9  2  0
  7 10  1  0
  6 11  1  0
  8 12  2  0
  8 13  1  0
  9 14  1  0
 10 14  2  0
  9 15  1  0
 11 16  2  0
 12 17  1  0
 13 18  2  0
 15 19  2  0
 16 19  1  0
 17 20  2  0
 18 20  1  0
 20 21  1  0
 21 22  1  0
 21 23  2  0
M  END
