x0849_0_A_α-x0805_0_A_α
     RDKit          3D

 19 21  0  0  0  0  0  0  0  0999 V2000
   -2.4180   15.8470   -2.9250 Br  0  0  0  0  0  0  0  0  0  0  0  0
   -2.8610   15.4800   -1.0850 C   0  0  0  0  0  0  0  0  0  0  0  0
   -1.8660   15.2140   -0.2230 C   0  0  0  0  0  0  0  0  0  0  0  0
   -4.1510   15.4610   -0.6530 C   0  0  0  0  0  0  0  0  0  0  0  0
   -5.0500   15.6570   -1.6330 N   0  0  0  0  0  0  0  0  0  0  0  0
   -2.2030   14.9390    1.0990 C   0  0  0  0  0  0  0  0  0  0  0  0
   -4.4080   15.2100    0.6740 C   0  0  0  0  0  0  0  0  0  0  0  0
   -0.5520   15.1990   -0.6390 C   0  0  0  0  0  0  0  0  0  0  0  0
   -6.3960   15.5810   -1.0780 C   0  0  0  0  0  0  0  0  0  0  0  0
   -3.4450   14.9520    1.5560 N   0  0  0  0  0  0  0  0  0  0  0  0
   -1.2820   14.6460    1.9590 N   0  0  0  0  0  0  0  0  0  0  0  0
    0.3970   14.8970    0.2530 C   0  0  0  0  0  0  0  0  0  0  0  0
   -4.6650   14.6370   -2.5330 C   0  0  0  0  0  0  0  0  0  0  0  0
   -0.0210   14.6200    1.5390 C   0  0  0  0  0  0  0  0  0  0  0  0
   -5.4800   13.9310   -3.4000 C   0  0  0  0  0  0  0  0  0  0  0  0
   -3.2880   14.2810   -2.5390 C   0  0  0  0  0  0  0  0  0  0  0  0
   -2.7550   13.2900   -3.3590 C   0  0  0  0  0  0  0  0  0  0  0  0
   -4.9530   12.9310   -4.2310 C   0  0  0  0  0  0  0  0  0  0  0  0
   -3.5960   12.6120   -4.2100 C   0  0  0  0  0  0  0  0  0  0  0  0
  1  2  1  0
  2  3  2  0
  2  4  1  0
  4  5  1  0
  3  6  1  0
  4  7  2  0
  3  8  1  0
  5  9  1  0
  6 10  2  0
  7 10  1  0
  6 11  1  0
  8 12  2  0
  5 13  1  0
 11 14  2  0
 12 14  1  0
 13 15  2  0
 13 16  1  0
 16 17  2  0
 15 18  1  0
 17 19  1  0
 18 19  2  0
M  END
