x0844_0_A-x0574_0_A
     RDKit          3D

 14 15  0  0  0  0  0  0  0  0999 V2000
   -7.2520   14.4980    0.5760 N   0  0  0  0  0  0  0  0  0  0  0  0
   -7.6500   14.5770    1.9790 C   0  0  0  0  0  0  0  0  0  0  0  0
   -6.0390   14.8310    0.3240 C   0  0  0  0  0  0  0  0  0  0  0  0
   -5.1450   15.2550    1.2900 N   0  0  0  0  0  0  0  0  0  0  0  0
   -5.5890   14.7420   -1.1360 C   0  0  0  0  0  0  0  0  0  0  0  0
   -3.8080   15.7420    0.9970 C   0  0  0  0  0  0  0  0  0  0  0  0
   -4.1360   15.1530   -1.3310 C   0  0  2  0  0  0  0  0  0  0  0  0
   -3.4560   14.4960   -3.0420 Br  0  0  0  0  0  0  0  0  0  0  0  0
   -3.2170   14.9060   -0.1240 C   0  0  1  0  0  0  0  0  0  0  0  0
   -1.3920   14.8070   -0.4660 S   0  0  0  0  0  0  0  0  0  0  0  0
   -3.2000   13.6390    0.6640 C   0  0  0  0  0  0  0  0  0  0  0  0
   -2.2700   13.9630    1.7640 N   0  0  0  0  0  0  0  0  0  0  0  0
   -1.0540   14.4960    1.2380 C   0  0  1  0  0  0  0  0  0  0  0  0
   -0.0400   13.5010    1.3970 N   0  0  0  0  0  0  0  0  0  0  0  0
  1  2  1  0
  1  3  2  3
  3  4  1  0
  3  5  1  0
  4  6  1  0
  5  7  1  0
  7  8  1  6
  9  6  1  1
  7  9  1  0
  9 10  1  0
  9 11  1  0
 11 12  1  0
 10 13  1  0
 12 13  1  0
 13 14  1  6
M  END
