x0844_0_A_α-x0587_0_A_α
     RDKit          3D

 14 14  0  0  0  0  0  0  0  0999 V2000
   -7.9770   14.6770   -0.3500 O   0  0  0  0  0  0  0  0  0  0  0  0
   -6.8260   14.7660    0.0670 C   0  0  0  0  0  0  0  0  0  0  0  0
   -6.4720   14.7970    1.4140 N   0  0  0  0  0  0  0  0  0  0  0  0
   -5.7400   14.8540   -0.9460 C   0  0  0  0  0  0  0  0  0  0  0  0
   -7.5290   14.9310    2.3960 C   0  0  0  0  0  0  0  0  0  0  0  0
   -5.1370   15.1700    1.7310 C   0  0  0  0  0  0  0  0  0  0  0  0
   -4.4810   15.1140   -0.5900 C   0  0  0  0  0  0  0  0  0  0  0  0
   -3.4180   15.1950   -1.4350 O   0  0  0  0  0  0  0  0  0  0  0  0
   -7.2080   15.0820    3.6990 N   0  0  0  0  0  0  0  0  0  0  0  0
   -8.7420   14.9310    2.1290 O   0  0  0  0  0  0  0  0  0  0  0  0
   -4.1750   15.3250    0.7960 C   0  0  0  0  0  0  0  0  0  0  0  0
   -3.6620   14.4860   -2.6100 C   0  0  0  0  0  0  0  0  0  0  0  0
   -4.1350   13.2660   -2.2490 F   0  0  0  0  0  0  0  0  0  0  0  0
   -4.6630   15.1110   -3.2630 F   0  0  0  0  0  0  0  0  0  0  0  0
  1  2  2  0
  2  3  1  0
  2  4  1  0
  3  5  1  0
  3  6  1  0
  4  7  2  0
  7  8  1  0
  5  9  1  0
  5 10  2  0
  6 11  2  0
  7 11  1  0
  8 12  1  0
 12 13  1  0
 12 14  1  0
M  END
