x0844_0_A_α-x0685_1_A_α
     RDKit          3D

 23 24  0  0  0  0  0  0  0  0999 V2000
   -7.4780   14.9040   -0.1960 O   0  0  0  0  0  0  0  0  0  0  0  0
   -6.2490   14.8160   -0.2220 C   0  0  0  0  0  0  0  0  0  0  0  0
   -5.5210   14.8530    0.9410 N   0  0  0  0  0  0  0  0  0  0  0  0
   -5.4780   14.6560   -1.5180 C   0  0  0  0  0  0  0  0  0  0  0  0
   -4.1610   14.8970    0.9980 C   0  0  0  0  0  0  0  0  0  0  0  0
   -4.0480   15.1970   -1.4690 C   0  0  2  0  0  0  0  0  0  0  0  0
   -3.1590   14.5610   -2.4350 O   0  0  0  0  0  0  0  0  0  0  0  0
   -3.4280   15.0530   -0.1060 C   0  0  0  0  0  0  0  0  0  0  0  0
   -3.7170   13.5560   -3.3210 C   0  0  0  0  0  0  0  0  0  0  0  0
   -2.7500   13.1320   -4.4590 C   0  0  0  0  0  0  0  0  0  0  0  0
   -1.7290   12.0140   -4.0840 C   0  0  1  0  0  0  0  0  0  0  0  0
   -1.8220   10.6620   -4.7110 N   0  0  0  0  0  0  0  0  0  0  0  0
   -0.2750   12.4960   -4.1110 C   0  0  0  0  0  0  0  0  0  0  0  0
    0.6680   11.9990   -2.6630 S   0  0  0  0  0  0  0  0  0  0  0  0
   -1.6410   10.2870   -6.1330 C   0  0  0  0  0  0  0  0  0  0  0  0
    2.2010   12.3300   -2.9800 O   0  0  0  0  0  0  0  0  0  0  0  0
    0.4500   10.4170   -2.4960 O   0  0  0  0  0  0  0  0  0  0  0  0
    0.1900   12.7460   -1.3280 O   0  0  0  0  0  0  0  0  0  0  0  0
   -0.7850    8.9980   -6.2470 C   0  0  0  0  0  0  0  0  0  0  0  0
   -1.0510   11.3830   -7.0340 C   0  0  0  0  0  0  0  0  0  0  0  0
   -0.0470    8.8670   -7.5830 C   0  0  0  0  0  0  0  0  0  0  0  0
   -1.0450   10.9840   -8.5210 C   0  0  0  0  0  0  0  0  0  0  0  0
   -0.8620    9.4790   -8.7150 C   0  0  0  0  0  0  0  0  0  0  0  0
  1  2  2  0
  2  3  1  0
  2  4  1  0
  3  5  1  0
  4  6  1  0
  6  7  1  6
  5  8  2  0
  6  8  1  0
  7  9  1  0
  9 10  1  0
 11 10  1  6
 11 12  1  0
 11 13  1  0
 13 14  1  0
 12 15  1  0
 14 16  1  0
 14 17  1  0
 14 18  1  0
 15 19  1  0
 15 20  1  0
 19 21  1  0
 20 22  1  0
 21 23  1  0
 22 23  1  0
M  END
