x0844_0_A-x0104_0_A
     RDKit          3D

 18 19  0  0  0  0  0  0  0  0999 V2000
   -7.8050   14.6570   -0.1420 O   0  0  0  0  0  0  0  0  0  0  0  0
   -6.6020   14.8100    0.0440 C   0  0  0  0  0  0  0  0  0  0  0  0
   -6.0150   14.8820    1.3050 N   0  0  0  0  0  0  0  0  0  0  0  0
   -5.6770   14.9340   -1.1130 C   0  0  0  0  0  0  0  0  0  0  0  0
   -6.7860   14.3750    2.4060 N   0  0  0  0  0  0  0  0  0  0  0  0
   -4.6600   15.1200    1.4770 C   0  0  0  0  0  0  0  0  0  0  0  0
   -4.3660   15.1360   -0.9170 C   0  0  0  0  0  0  0  0  0  0  0  0
   -3.5280   15.2370   -2.0170 O   0  0  0  0  0  0  0  0  0  0  0  0
   -7.9140   15.0320    2.9510 C   0  0  0  0  0  0  0  0  0  0  0  0
   -3.8360   15.2460    0.4250 C   0  0  0  0  0  0  0  0  0  0  0  0
   -7.8560   14.9500    4.3340 N   0  0  0  0  0  0  0  0  0  0  0  0
   -8.7970   15.5710    2.2880 O   0  0  0  0  0  0  0  0  0  0  0  0
   -4.3080   14.7510   -3.1400 O   0  0  0  0  0  0  0  0  0  0  0  0
   -8.9510   15.0230    5.1930 C   0  0  0  0  0  0  0  0  0  0  0  0
   -9.0600   15.1780    6.5590 C   0  0  0  0  0  0  0  0  0  0  0  0
  -10.4790   14.8990    4.4430 S   0  0  0  0  0  0  0  0  0  0  0  0
  -11.3060   15.0460    5.9410 C   0  0  0  0  0  0  0  0  0  0  0  0
  -10.4270   15.1900    6.9920 C   0  0  0  0  0  0  0  0  0  0  0  0
  1  2  2  0
  2  3  1  0
  2  4  1  0
  3  5  1  0
  3  6  1  0
  4  7  2  0
  7  8  1  0
  5  9  1  0
  6 10  2  0
  7 10  1  0
  9 11  1  0
  9 12  2  0
  8 13  1  0
 11 14  1  0
 14 15  2  0
 14 16  1  0
 16 17  1  0
 15 18  1  0
 17 18  2  0
M  END
