x0844_0_A-x0587_0_A
     RDKit          3D

 14 14  0  0  0  0  0  0  0  0999 V2000
   -7.9760   14.6680   -0.3590 O   0  0  0  0  0  0  0  0  0  0  0  0
   -6.8270   14.7610    0.0620 C   0  0  0  0  0  0  0  0  0  0  0  0
   -6.4740   14.7970    1.4120 N   0  0  0  0  0  0  0  0  0  0  0  0
   -5.7400   14.8470   -0.9520 C   0  0  0  0  0  0  0  0  0  0  0  0
   -7.5290   14.9370    2.3890 C   0  0  0  0  0  0  0  0  0  0  0  0
   -5.1400   15.1730    1.7260 C   0  0  0  0  0  0  0  0  0  0  0  0
   -4.4780   15.1130   -0.5930 C   0  0  0  0  0  0  0  0  0  0  0  0
   -3.4170   15.1930   -1.4380 O   0  0  0  0  0  0  0  0  0  0  0  0
   -7.2100   15.0840    3.6960 N   0  0  0  0  0  0  0  0  0  0  0  0
   -8.7450   14.9480    2.1250 O   0  0  0  0  0  0  0  0  0  0  0  0
   -4.1750   15.3270    0.7930 C   0  0  0  0  0  0  0  0  0  0  0  0
   -3.6600   14.4830   -2.6120 C   0  0  0  0  0  0  0  0  0  0  0  0
   -4.1300   13.2630   -2.2490 F   0  0  0  0  0  0  0  0  0  0  0  0
   -4.6620   15.1020   -3.2660 F   0  0  0  0  0  0  0  0  0  0  0  0
  1  2  2  0
  2  3  1  0
  2  4  1  0
  3  5  1  0
  3  6  1  0
  4  7  2  0
  7  8  1  0
  5  9  1  0
  5 10  2  0
  6 11  2  0
  7 11  1  0
  8 12  1  0
 12 13  1  0
 12 14  1  0
M  END
