x0844_0_A-x0969_0_A
     RDKit          3D

 13 14  0  0  0  0  0  0  0  0999 V2000
   -8.0460   15.5080    0.0590 O   0  0  0  0  0  0  0  0  0  0  0  0
   -7.5380   14.2060    0.3270 C   0  0  0  0  0  0  0  0  0  0  0  0
   -6.0080   14.1320    0.6270 C   0  0  1  0  0  0  0  0  0  0  0  0
   -6.5170   14.5020    1.9760 N   0  0  0  0  0  0  0  0  0  0  0  0
   -4.9490   15.1170    1.0440 C   0  0  0  0  0  0  0  0  0  0  0  0
   -5.8440   14.9090   -0.6450 N   0  0  0  0  0  0  0  0  0  0  0  0
   -3.9990   15.4420    0.1780 C   0  0  0  0  0  0  0  0  0  0  0  0
   -5.1480   14.4590   -1.7980 C   0  0  0  0  0  0  0  0  0  0  0  0
   -6.6770   15.9180   -1.0920 N   0  0  0  0  0  0  0  0  0  0  0  0
   -4.0090   14.8370   -1.1600 C   0  0  0  0  0  0  0  0  0  0  0  0
   -6.4440   14.1260   -2.3100 N   0  0  0  0  0  0  0  0  0  0  0  0
   -7.2670   15.0430   -1.9160 C   0  0  0  0  0  0  0  0  0  0  0  0
   -2.3830   14.5800   -2.0190 Br  0  0  0  0  0  0  0  0  0  0  0  0
  1  2  1  0
  2  3  1  0
  3  4  1  6
  3  5  1  0
  3  6  1  0
  5  7  2  0
  6  8  1  0
  6  9  1  0
  7 10  1  0
  8 10  2  0
  8 11  1  0
  9 12  1  0
 11 12  2  0
 10 13  1  0
M  END
