x0849_0_A-x0864_0_A
     RDKit          3D

 24 26  0  0  0  0  0  0  0  0999 V2000
   -3.8190   15.2130   -2.8100 Br  0  0  0  0  0  0  0  0  0  0  0  0
   -3.6560   15.1800   -0.9210 C   0  0  0  0  0  0  0  0  0  0  0  0
   -2.4610   14.7970   -0.3130 C   0  0  0  0  0  0  0  0  0  0  0  0
   -4.7470   15.5340   -0.1560 C   0  0  0  0  0  0  0  0  0  0  0  0
   -2.4090   14.7870    1.0800 C   0  0  0  0  0  0  0  0  0  0  0  0
   -4.5800   15.4810    1.2060 C   0  0  0  0  0  0  0  0  0  0  0  0
   -1.3240   14.4210   -1.0250 C   0  0  0  0  0  0  0  0  0  0  0  0
   -3.4470   15.1200    1.8050 N   0  0  0  0  0  0  0  0  0  0  0  0
   -1.3250   14.4390    1.7350 N   0  0  0  0  0  0  0  0  0  0  0  0
   -0.1880   14.0420   -0.3610 C   0  0  0  0  0  0  0  0  0  0  0  0
    0.9950   13.6130   -1.1650 C   0  0  0  0  0  0  0  0  0  0  0  0
   -0.2510   14.0730    1.0300 C   0  0  0  0  0  0  0  0  0  0  0  0
    0.8310   13.7770   -2.5860 N   0  0  0  0  0  0  0  0  0  0  0  0
    0.6840   12.7180   -3.3040 C   0  0  0  0  0  0  0  0  0  0  0  0
    0.5000   12.8880   -4.7920 C   0  0  0  0  0  0  0  0  0  0  0  0
    0.6710   11.4420   -2.8270 O   0  0  0  0  0  0  0  0  0  0  0  0
   -0.0970   11.7110   -5.3970 N   0  0  0  0  0  0  0  0  0  0  0  0
   -1.2840   11.1890   -4.9230 C   0  0  0  0  0  0  0  0  0  0  0  0
    0.5060   11.2570   -6.5470 C   0  0  0  0  0  0  0  0  0  0  0  0
    1.5420   11.7460   -6.9750 O   0  0  0  0  0  0  0  0  0  0  0  0
   -1.8790   10.1720   -5.5630 C   0  0  0  0  0  0  0  0  0  0  0  0
   -0.1380   10.1270   -7.2430 C   0  0  0  0  0  0  0  0  0  0  0  0
   -1.2750    9.6210   -6.7570 C   0  0  0  0  0  0  0  0  0  0  0  0
   -2.1360    8.1880   -7.5860 Br  0  0  0  0  0  0  0  0  0  0  0  0
  1  2  1  0
  2  3  2  0
  2  4  1  0
  3  5  1  0
  4  6  2  0
  3  7  1  0
  5  8  2  0
  6  8  1  0
  5  9  1  0
  7 10  2  0
 10 11  1  0
  9 12  2  0
 10 12  1  0
 11 13  1  0
 13 14  2  3
 14 15  1  0
 14 16  1  0
 15 17  1  0
 17 18  1  0
 17 19  1  0
 19 20  2  0
 18 21  2  0
 19 22  1  0
 21 23  1  0
 22 23  2  0
 23 24  1  0
M  END
