x0844_0_A-x0852_0_B
     RDKit          3D

 20 21  0  0  0  0  0  0  0  0999 V2000
   -7.6290   15.3280   -0.7380 O   0  0  0  0  0  0  0  0  0  0  0  0
   -6.4690   15.0370   -0.4830 C   0  0  0  0  0  0  0  0  0  0  0  0
   -5.9940   14.7490    0.7780 N   0  0  0  0  0  0  0  0  0  0  0  0
   -5.4730   14.9430   -1.5620 C   0  0  0  0  0  0  0  0  0  0  0  0
   -6.7490   13.7180    1.4890 C   0  0  0  0  0  0  0  0  0  0  0  0
   -4.6650   15.0140    1.0950 C   0  0  0  0  0  0  0  0  0  0  0  0
   -4.1760   14.9780   -1.2570 C   0  0  0  0  0  0  0  0  0  0  0  0
   -2.8860   14.8300   -2.5950 Br  0  0  0  0  0  0  0  0  0  0  0  0
   -8.2510   14.0260    1.5090 C   0  0  0  0  0  0  0  0  0  0  0  0
   -3.7540   15.1270    0.1190 C   0  0  0  0  0  0  0  0  0  0  0  0
   -8.6170   14.9250    2.6640 C   0  0  0  0  0  0  0  0  0  0  0  0
   -7.9490   14.7120    3.8760 C   0  0  0  0  0  0  0  0  0  0  0  0
   -9.5710   15.9460    2.5990 C   0  0  0  0  0  0  0  0  0  0  0  0
  -10.5030   16.2760    0.9840 Br  0  0  0  0  0  0  0  0  0  0  0  0
   -8.2170   15.4830    4.9950 C   0  0  0  0  0  0  0  0  0  0  0  0
   -9.8520   16.7380    3.7270 C   0  0  0  0  0  0  0  0  0  0  0  0
   -7.4950   15.1610    6.1180 O   0  0  0  0  0  0  0  0  0  0  0  0
   -9.1700   16.5030    4.9370 C   0  0  0  0  0  0  0  0  0  0  0  0
   -9.4640   17.2980    6.0870 C   0  0  0  0  0  0  0  0  0  0  0  0
   -9.7200   17.8830    7.0570 N   0  0  0  0  0  0  0  0  0  0  0  0
  1  2  2  0
  2  3  1  0
  2  4  1  0
  3  5  1  0
  3  6  1  0
  4  7  2  0
  7  8  1  0
  5  9  1  0
  6 10  2  0
  7 10  1  0
  9 11  1  0
 11 12  2  0
 11 13  1  0
 13 14  1  0
 12 15  1  0
 13 16  2  0
 15 17  1  0
 15 18  2  0
 16 18  1  0
 18 19  1  0
 19 20  3  0
M  END
