x0844_0_A_α-1HJZ_0_A_α
     RDKit          3D

 25 26  0  0  0  0  0  0  0  0999 V2000
   -7.5030   14.7290   -0.0990 O   0  0  0  0  0  0  0  0  0  0  0  0
   -6.2730   14.8420   -0.1200 C   0  0  0  0  0  0  0  0  0  0  0  0
   -5.5440   14.7870    1.0430 N   0  0  0  0  0  0  0  0  0  0  0  0
   -5.5030   15.0580   -1.4040 C   0  0  0  0  0  0  0  0  0  0  0  0
   -4.2730   15.2590    1.1620 C   0  0  0  0  0  0  0  0  0  0  0  0
   -3.9820   14.9110   -1.2610 C   0  0  1  0  0  0  0  0  0  0  0  0
   -3.3270   15.6890   -2.2820 O   0  0  0  0  0  0  0  0  0  0  0  0
   -3.4870   15.3380    0.0850 C   0  0  0  0  0  0  0  0  0  0  0  0
   -1.9050   15.5820   -2.3730 C   0  0  0  0  0  0  0  0  0  0  0  0
   -1.3970   16.2510   -3.6630 C   0  0  0  0  0  0  0  0  0  0  0  0
    0.0410   16.7960   -3.6100 C   0  0  0  0  0  0  0  0  0  0  0  0
    0.6110   17.5010   -4.8550 C   0  0  0  0  0  0  0  0  0  0  0  0
   -0.4210   17.9900   -5.8750 C   0  0  0  0  0  0  0  0  0  0  0  0
   -0.2630   19.3780   -6.1240 O   0  0  0  0  0  0  0  0  0  0  0  0
   -0.0330   19.9370   -7.6160 S   0  0  0  0  0  0  0  0  0  0  0  0
    1.1330   21.0510   -7.6460 O   0  0  0  0  0  0  0  0  0  0  0  0
    0.2620   18.7750   -8.6830 O   0  0  0  0  0  0  0  0  0  0  0  0
   -1.5760   20.6710   -8.1220 C   0  0  0  0  0  0  0  0  0  0  0  0
   -1.9860   21.8790   -7.3140 C   0  0  0  0  0  0  0  0  0  0  0  0
   -3.3930   22.2620   -7.5400 N   0  0  0  0  0  0  0  0  0  0  0  0
   -3.6210   22.7060   -8.9130 C   0  0  0  0  0  0  0  0  0  0  0  0
   -3.7960   23.3980   -6.6930 C   0  0  0  0  0  0  0  0  0  0  0  0
   -5.0640   23.1100   -9.2020 C   0  0  0  0  0  0  0  0  0  0  0  0
   -5.2190   23.8800   -6.9860 C   0  0  0  0  0  0  0  0  0  0  0  0
   -5.4180   24.2110   -8.3670 O   0  0  0  0  0  0  0  0  0  0  0  0
  1  2  2  0
  2  3  1  0
  2  4  1  0
  3  5  1  0
  4  6  1  0
  6  7  1  6
  5  8  2  0
  6  8  1  0
  7  9  1  0
  9 10  1  0
 10 11  1  0
 11 12  1  0
 12 13  1  0
 13 14  1  0
 15 14  1  0
 15 16  1  0
 15 17  1  0
 15 18  1  0
 18 19  1  0
 19 20  1  0
 20 21  1  0
 20 22  1  0
 21 23  1  0
 22 24  1  0
 23 25  1  0
 24 25  1  0
M  END
