x0849_0_A-x0282_0_A
     RDKit          3D

 13 14  0  0  0  0  0  0  0  0999 V2000
   -3.4110   15.1070   -3.0080 Br  0  0  0  0  0  0  0  0  0  0  0  0
   -3.4940   14.8760   -1.1260 C   0  0  0  0  0  0  0  0  0  0  0  0
   -2.3310   14.7640   -0.3340 C   0  0  0  0  0  0  0  0  0  0  0  0
   -4.7610   14.8120   -0.5680 C   0  0  0  0  0  0  0  0  0  0  0  0
   -2.5270   14.6010    1.0420 C   0  0  0  0  0  0  0  0  0  0  0  0
   -4.8590   14.6330    0.7910 C   0  0  0  0  0  0  0  0  0  0  0  0
   -0.9970   14.8020   -0.8170 C   0  0  0  0  0  0  0  0  0  0  0  0
   -6.2400   14.5140    1.4580 C   0  0  0  0  0  0  0  0  0  0  0  0
   -3.7480   14.5400    1.5830 N   0  0  0  0  0  0  0  0  0  0  0  0
   -1.4990   14.4930    1.8680 N   0  0  0  0  0  0  0  0  0  0  0  0
    0.0620   14.6830    0.0600 C   0  0  0  0  0  0  0  0  0  0  0  0
   -7.3450   14.6630    0.5450 O   0  0  0  0  0  0  0  0  0  0  0  0
   -0.2470   14.5300    1.3890 C   0  0  0  0  0  0  0  0  0  0  0  0
  1  2  1  0
  2  3  2  0
  2  4  1  0
  3  5  1  0
  4  6  2  0
  3  7  1  0
  6  8  1  0
  5  9  2  0
  6  9  1  0
  5 10  1  0
  7 11  2  0
  8 12  1  0
 10 13  2  0
 11 13  1  0
M  END
