x0849_0_A-x0962_2_B
     RDKit          3D

 20 22  0  0  0  0  0  0  0  0999 V2000
   -3.2000   15.1240   -3.1120 Br  0  0  0  0  0  0  0  0  0  0  0  0
   -3.3050   14.8630   -1.2340 C   0  0  0  0  0  0  0  0  0  0  0  0
   -2.1840   14.7650   -0.3970 C   0  0  0  0  0  0  0  0  0  0  0  0
   -4.5720   14.7610   -0.7230 C   0  0  0  0  0  0  0  0  0  0  0  0
   -2.4210   14.5760    0.9710 C   0  0  0  0  0  0  0  0  0  0  0  0
   -4.7100   14.5560    0.6180 C   0  0  0  0  0  0  0  0  0  0  0  0
   -0.8420   14.8430   -0.8340 C   0  0  0  0  0  0  0  0  0  0  0  0
   -6.1040   14.3920    1.1420 C   0  0  0  0  0  0  0  0  0  0  0  0
   -3.6590   14.4760    1.4590 N   0  0  0  0  0  0  0  0  0  0  0  0
   -1.4290   14.4820    1.8340 N   0  0  0  0  0  0  0  0  0  0  0  0
    0.1830   14.7370    0.0760 C   0  0  0  0  0  0  0  0  0  0  0  0
   -6.2680   14.4080    2.6450 C   0  0  0  0  0  0  0  0  0  0  0  0
   -0.1690   14.5580    1.3930 C   0  0  0  0  0  0  0  0  0  0  0  0
   -7.5130   14.9950    3.0060 N   0  0  0  0  0  0  0  0  0  0  0  0
   -7.9440   15.5240    4.1980 C   0  0  0  0  0  0  0  0  0  0  0  0
   -8.4810   15.1090    2.1020 C   0  0  0  0  0  0  0  0  0  0  0  0
   -9.4830   15.7240    2.7370 C   0  0  0  0  0  0  0  0  0  0  0  0
   -9.1760   15.9920    4.0600 N   0  0  0  0  0  0  0  0  0  0  0  0
  -10.6850   16.0440    2.0730 C   0  0  0  0  0  0  0  0  0  0  0  0
  -11.6100   16.2990    1.4290 N   0  0  0  0  0  0  0  0  0  0  0  0
  1  2  1  0
  2  3  2  0
  2  4  1  0
  3  5  1  0
  4  6  2  0
  3  7  1  0
  6  8  1  0
  5  9  2  0
  6  9  1  0
  5 10  1  0
  7 11  2  0
  8 12  1  0
 10 13  2  0
 11 13  1  0
 12 14  1  0
 14 15  1  0
 14 16  1  0
 16 17  2  0
 15 18  2  0
 17 18  1  0
 17 19  1  0
 19 20  3  0
M  END
