x0844_0_A_α-x0421_0_A_α
     RDKit          3D

 12 13  0  0  0  0  0  0  0  0999 V2000
   -7.6540   15.2040   -0.6880 O   0  0  0  0  0  0  0  0  0  0  0  0
   -6.4890   14.9480   -0.4100 C   0  0  0  0  0  0  0  0  0  0  0  0
   -6.0870   14.5870    0.9740 C   0  0  0  0  0  0  0  0  0  0  0  0
   -5.4250   14.9580   -1.4350 C   0  0  0  0  0  0  0  0  0  0  0  0
   -4.6770   14.9100    1.2870 C   0  0  0  0  0  0  0  0  0  0  0  0
   -4.1330   15.0290   -1.0660 C   0  0  0  0  0  0  0  0  0  0  0  0
   -7.1410   14.6810    2.0590 C   0  0  0  0  0  0  0  0  0  0  0  0
   -6.6840   13.3330    1.5810 C   0  0  0  0  0  0  0  0  0  0  0  0
   -3.0680   15.0050   -2.1190 C   0  0  0  0  0  0  0  0  0  0  0  0
   -3.7540   15.1160    0.3340 C   0  0  0  0  0  0  0  0  0  0  0  0
   -3.4880   15.1230   -3.4010 N   0  0  0  0  0  0  0  0  0  0  0  0
   -1.8750   14.8750   -1.8510 O   0  0  0  0  0  0  0  0  0  0  0  0
  1  2  2  0
  3  2  1  0
  2  4  1  0
  3  5  1  0
  4  6  2  0
  3  7  1  0
  3  8  1  0
  7  8  1  0
  6  9  1  0
  5 10  2  0
  6 10  1  0
  9 11  1  0
  9 12  2  0
M  END
