x0844_0_A_α-x0855_0_A_α
     RDKit          3D

 21 22  0  0  0  0  0  0  0  0999 V2000
   -7.7120   14.8120   -0.1910 O   0  0  0  0  0  0  0  0  0  0  0  0
   -6.4920   14.7580   -0.0900 C   0  0  0  0  0  0  0  0  0  0  0  0
   -5.8840   14.7500    1.1340 N   0  0  0  0  0  0  0  0  0  0  0  0
   -5.5690   14.6990   -1.2830 C   0  0  0  0  0  0  0  0  0  0  0  0
   -4.6480   15.2480    1.3620 C   0  0  0  0  0  0  0  0  0  0  0  0
   -4.2450   15.4240   -1.0760 C   0  0  2  0  0  0  0  0  0  0  0  0
   -3.2060   14.6950   -1.7270 O   0  0  0  0  0  0  0  0  0  0  0  0
   -3.8450   15.5710    0.3660 C   0  0  0  0  0  0  0  0  0  0  0  0
   -2.2380   14.2100   -0.7950 C   0  0  0  0  0  0  0  0  0  0  0  0
   -1.5220   13.0180   -1.3790 C   0  0  0  0  0  0  0  0  0  0  0  0
   -0.9210   13.2400   -2.7600 C   0  0  0  0  0  0  0  0  0  0  0  0
   -0.2450   11.9930   -3.3380 C   0  0  2  0  0  0  0  0  0  0  0  0
    1.1950   12.2690   -3.5620 C   0  0  0  0  0  0  0  0  0  0  0  0
   -0.9030   11.4330   -4.5050 N   0  0  0  0  0  0  0  0  0  0  0  0
    1.8050   12.7980   -2.4790 O   0  0  0  0  0  0  0  0  0  0  0  0
    1.8070   12.0820   -4.5680 O   0  0  0  0  0  0  0  0  0  0  0  0
   -0.6670   10.2180   -5.0990 C   0  0  0  0  0  0  0  0  0  0  0  0
   -1.8790   12.1310   -5.1140 N   0  0  0  0  0  0  0  0  0  0  0  0
   -1.5470   10.1430   -6.1350 C   0  0  0  0  0  0  0  0  0  0  0  0
   -2.2700   11.3330   -6.1100 C   0  0  0  0  0  0  0  0  0  0  0  0
   -1.7780    8.7510   -7.3550 Br  0  0  0  0  0  0  0  0  0  0  0  0
  1  2  2  0
  2  3  1  0
  2  4  1  0
  3  5  1  0
  4  6  1  0
  6  7  1  6
  5  8  2  0
  6  8  1  0
  7  9  1  0
  9 10  1  0
 10 11  1  0
 12 11  1  6
 12 13  1  0
 12 14  1  0
 13 15  1  0
 13 16  2  0
 14 17  1  0
 14 18  1  0
 17 19  2  0
 18 20  2  0
 19 20  1  0
 19 21  1  0
M  END
