x0849_0_A_α-x0895_1_A_α
     RDKit          3D

 13 14  0  0  0  0  0  0  0  0999 V2000
   -3.3180   15.1300   -3.0860 Br  0  0  0  0  0  0  0  0  0  0  0  0
   -3.4100   14.9750   -1.2260 C   0  0  0  0  0  0  0  0  0  0  0  0
   -2.1910   14.7490   -0.4250 C   0  0  0  0  0  0  0  0  0  0  0  0
   -4.6080   15.0810   -0.6340 C   0  0  0  0  0  0  0  0  0  0  0  0
   -2.3130   14.5390    0.9380 C   0  0  0  0  0  0  0  0  0  0  0  0
   -4.7210   14.9400    0.8260 C   0  0  0  0  0  0  0  0  0  0  0  0
   -0.8830   14.7370   -0.9210 C   0  0  0  0  0  0  0  0  0  0  0  0
   -5.7930   15.0960    1.3870 O   0  0  0  0  0  0  0  0  0  0  0  0
   -3.5710   14.5150    1.6280 N   0  0  2  0  0  0  0  0  0  0  0  0
   -1.3190   14.3470    1.7920 N   0  0  0  0  0  0  0  0  0  0  0  0
    0.1820   14.5340   -0.0450 C   0  0  0  0  0  0  0  0  0  0  0  0
   -3.2650   15.3140    2.6480 O   0  0  0  0  0  0  0  0  0  0  0  0
   -0.1100   14.3480    1.2980 C   0  0  0  0  0  0  0  0  0  0  0  0
  1  2  1  0
  2  3  1  0
  2  4  2  0
  3  5  2  0
  4  6  1  0
  3  7  1  0
  6  8  2  0
  5  9  1  0
  6  9  1  0
  5 10  1  0
  7 11  2  0
  9 12  1  1
 10 13  2  0
 11 13  1  0
M  CHG  2   9   1  12  -1
M  END
