x0849_0_A_α-x0371_0_A_β
     RDKit          3D

 16 18  0  0  0  0  0  0  0  0999 V2000
   -3.6150   15.1320   -2.6360 Br  0  0  0  0  0  0  0  0  0  0  0  0
   -3.6600   14.2900   -0.8340 C   0  0  1  0  0  0  0  0  0  0  0  0
   -2.2900   14.4970   -0.2440 C   0  0  0  0  0  0  0  0  0  0  0  0
   -4.8620   14.8150    0.0550 C   0  0  2  0  0  0  0  0  0  0  0  0
   -2.2040   14.7570    1.0950 C   0  0  0  0  0  0  0  0  0  0  0  0
   -4.3170   15.6540    1.2090 C   0  0  0  0  0  0  0  0  0  0  0  0
   -1.0970   14.4400   -0.9760 C   0  0  0  0  0  0  0  0  0  0  0  0
   -5.6980   13.7800    0.7420 N   0  0  0  0  0  0  0  0  0  0  0  0
   -5.8840   15.5520   -0.8350 C   0  0  0  0  0  0  0  0  0  0  0  0
   -3.3250   14.8400    1.8240 N   0  0  0  0  0  0  0  0  0  0  0  0
   -1.0960   14.9500    1.7390 N   0  0  0  0  0  0  0  0  0  0  0  0
    0.1000   14.6540   -0.3110 C   0  0  0  0  0  0  0  0  0  0  0  0
   -6.9760   14.4350    0.8940 C   0  0  1  0  0  0  0  0  0  0  0  0
   -7.2000   15.0530   -0.3960 N   0  0  0  0  0  0  0  0  0  0  0  0
   -8.1230   13.5210    1.2770 C   0  0  0  0  0  0  0  0  0  0  0  0
    0.0220   14.9050    1.0410 C   0  0  0  0  0  0  0  0  0  0  0  0
  2  1  1  6
  2  3  1  0
  2  4  1  0
  3  5  2  0
  4  6  1  1
  3  7  1  0
  4  8  1  0
  4  9  1  0
  5 10  1  0
  6 10  1  0
  5 11  1  0
  7 12  2  0
  8 13  1  0
  9 14  1  0
 13 14  1  0
 13 15  1  6
 11 16  2  0
 12 16  1  0
M  END
