x0849_0_A-x0727_0_A
     RDKit          3D

 25 27  0  0  0  0  0  0  0  0999 V2000
   -3.8590   15.2130   -2.8090 Br  0  0  0  0  0  0  0  0  0  0  0  0
   -3.6500   15.1880   -0.9250 C   0  0  0  0  0  0  0  0  0  0  0  0
   -2.4560   14.7740   -0.3410 C   0  0  0  0  0  0  0  0  0  0  0  0
   -4.7130   15.5830   -0.1360 C   0  0  0  0  0  0  0  0  0  0  0  0
   -2.3680   14.7730    1.0510 C   0  0  0  0  0  0  0  0  0  0  0  0
   -4.5090   15.5320    1.2200 C   0  0  0  0  0  0  0  0  0  0  0  0
   -1.3500   14.3570   -1.0800 C   0  0  0  0  0  0  0  0  0  0  0  0
   -3.3770   15.1410    1.7970 N   0  0  0  0  0  0  0  0  0  0  0  0
   -1.2810   14.3980    1.6830 N   0  0  0  0  0  0  0  0  0  0  0  0
   -0.2100   13.9420   -0.4500 C   0  0  0  0  0  0  0  0  0  0  0  0
    0.9440   13.4630   -1.2780 C   0  0  0  0  0  0  0  0  0  0  0  0
   -0.2390   13.9880    0.9490 C   0  0  0  0  0  0  0  0  0  0  0  0
    0.6800   13.4900   -2.6820 O   0  0  0  0  0  0  0  0  0  0  0  0
    0.6370   12.2630   -3.2930 C   0  0  0  0  0  0  0  0  0  0  0  0
    0.9520   12.4320   -4.7750 C   0  0  1  0  0  0  0  0  0  0  0  0
    0.3830   11.1840   -2.7520 O   0  0  0  0  0  0  0  0  0  0  0  0
    0.1850   11.4420   -5.5310 N   0  0  0  0  0  0  0  0  0  0  0  0
    0.5890   13.8370   -5.2130 C   0  0  0  0  0  0  0  0  0  0  0  0
    0.7050   11.0970   -6.7510 C   0  0  0  0  0  0  0  0  0  0  0  0
    1.6500   11.6990   -7.1990 O   0  0  0  0  0  0  0  0  0  0  0  0
    0.0920    9.9280   -7.5050 C   0  0  0  0  0  0  0  0  0  0  0  0
   -1.2070   10.2890   -8.2320 C   0  0  0  0  0  0  0  0  0  0  0  0
   -0.2350    8.7360   -6.5900 C   0  0  0  0  0  0  0  0  0  0  0  0
   -2.1270    9.0930   -8.0240 C   0  0  0  0  0  0  0  0  0  0  0  0
   -1.7400    8.5560   -6.6570 C   0  0  0  0  0  0  0  0  0  0  0  0
  1  2  1  0
  2  3  2  0
  2  4  1  0
  3  5  1  0
  4  6  2  0
  3  7  1  0
  5  8  2  0
  6  8  1  0
  5  9  1  0
  7 10  2  0
 10 11  1  0
  9 12  2  0
 10 12  1  0
 11 13  1  0
 13 14  1  0
 14 15  1  0
 14 16  2  0
 15 17  1  0
 15 18  1  6
 17 19  1  0
 19 20  2  0
 19 21  1  0
 21 22  1  0
 21 23  1  0
 22 24  1  0
 23 25  1  0
 24 25  1  0
M  END
