x0844_0_A_α-x0662_0_A_β
     RDKit          3D

 21 22  0  0  0  0  0  0  0  0999 V2000
   -7.5370   14.8570   -0.1690 O   0  0  0  0  0  0  0  0  0  0  0  0
   -6.3050   14.9080   -0.1460 C   0  0  0  0  0  0  0  0  0  0  0  0
   -5.6530   14.8580    1.0540 N   0  0  0  0  0  0  0  0  0  0  0  0
   -5.4400   15.0260   -1.3820 C   0  0  0  0  0  0  0  0  0  0  0  0
   -4.3290   15.1570    1.2140 C   0  0  0  0  0  0  0  0  0  0  0  0
   -3.9910   14.5930   -1.1490 C   0  0  1  0  0  0  0  0  0  0  0  0
   -3.1620   15.0800   -2.2270 O   0  0  0  0  0  0  0  0  0  0  0  0
   -3.4940   15.0430    0.1850 C   0  0  0  0  0  0  0  0  0  0  0  0
   -1.9710   14.3420   -2.5210 C   0  0  0  0  0  0  0  0  0  0  0  0
   -2.0550   13.1820   -3.5290 C   0  0  0  0  0  0  0  0  0  0  0  0
   -0.7410   12.4050   -3.7370 C   0  0  0  0  0  0  0  0  0  0  0  0
   -0.8880   11.5570   -4.9240 N   0  0  0  0  0  0  0  0  0  0  0  0
    0.0520   11.4650   -5.8020 C   0  0  0  0  0  0  0  0  0  0  0  0
    1.1620   12.0280   -5.8050 O   0  0  0  0  0  0  0  0  0  0  0  0
   -0.0400   10.6210   -7.0380 C   0  0  0  0  0  0  0  0  0  0  0  0
    0.7830   10.8870   -8.1260 C   0  0  0  0  0  0  0  0  0  0  0  0
   -0.9550    9.5640   -7.1110 C   0  0  0  0  0  0  0  0  0  0  0  0
    0.7110   10.1270   -9.2960 C   0  0  0  0  0  0  0  0  0  0  0  0
   -1.0330    8.7950   -8.2720 C   0  0  0  0  0  0  0  0  0  0  0  0
    1.5430   10.4140  -10.3940 N   0  0  0  0  0  0  0  0  0  0  0  0
   -0.2060    9.0740   -9.3620 C   0  0  0  0  0  0  0  0  0  0  0  0
  1  2  2  0
  2  3  1  0
  2  4  1  0
  3  5  1  0
  4  6  1  0
  6  7  1  6
  5  8  2  0
  6  8  1  0
  7  9  1  0
  9 10  1  0
 10 11  1  0
 11 12  1  0
 12 13  2  3
 13 14  1  0
 13 15  1  0
 15 16  2  0
 15 17  1  0
 16 18  1  0
 17 19  2  0
 18 20  1  0
 18 21  2  0
 19 21  1  0
M  CHG  1  14  -1
M  END
