x0844_0_A-x0969_0_A
     RDKit          3D

 13 14  0  0  0  0  0  0  0  0999 V2000
   -7.4170   13.0250   -0.0600 O   0  0  0  0  0  0  0  0  0  0  0  0
   -6.0680   13.1690    0.4250 C   0  0  0  0  0  0  0  0  0  0  0  0
   -5.8660   14.6610    0.6830 C   0  0  1  0  0  0  0  0  0  0  0  0
   -6.7010   14.9350    1.8750 N   0  0  0  0  0  0  0  0  0  0  0  0
   -4.4940   15.0940    1.0340 C   0  0  0  0  0  0  0  0  0  0  0  0
   -5.9980   15.2340   -0.6730 N   0  0  0  0  0  0  0  0  0  0  0  0
   -3.6480   15.2190    0.0420 C   0  0  0  0  0  0  0  0  0  0  0  0
   -5.3370   14.7940   -1.8800 C   0  0  0  0  0  0  0  0  0  0  0  0
   -6.6900   16.3660   -1.0320 N   0  0  0  0  0  0  0  0  0  0  0  0
   -4.0630   14.8870   -1.3290 C   0  0  0  0  0  0  0  0  0  0  0  0
   -6.6840   14.7170   -2.3920 N   0  0  0  0  0  0  0  0  0  0  0  0
   -7.3920   15.6680   -1.8980 C   0  0  0  0  0  0  0  0  0  0  0  0
   -2.6240   14.5090   -2.4410 Br  0  0  0  0  0  0  0  0  0  0  0  0
  1  2  1  0
  2  3  1  0
  3  4  1  1
  3  5  1  0
  3  6  1  0
  5  7  2  0
  6  8  1  0
  6  9  1  0
  7 10  1  0
  8 10  2  0
  8 11  1  0
  9 12  1  0
 11 12  2  0
 10 13  1  0
M  END
