x0844_0_A_α-x0253_0_A_α
     RDKit          3D

 25 26  0  0  0  0  0  0  0  0999 V2000
   -7.6010   14.7640   -0.1160 O   0  0  0  0  0  0  0  0  0  0  0  0
   -6.3770   14.9030   -0.0810 C   0  0  0  0  0  0  0  0  0  0  0  0
   -5.6950   14.8330    1.1070 N   0  0  0  0  0  0  0  0  0  0  0  0
   -5.5500   15.1620   -1.3190 C   0  0  0  0  0  0  0  0  0  0  0  0
   -4.3750   15.1520    1.2510 C   0  0  0  0  0  0  0  0  0  0  0  0
   -4.0990   14.7290   -1.1460 C   0  0  1  0  0  0  0  0  0  0  0  0
   -3.2280   15.2870   -2.1410 O   0  0  0  0  0  0  0  0  0  0  0  0
   -3.5690   15.1140    0.1960 C   0  0  0  0  0  0  0  0  0  0  0  0
   -2.5840   14.2890   -2.9370 C   0  0  0  0  0  0  0  0  0  0  0  0
   -1.7730   13.3730   -2.0230 C   0  0  0  0  0  0  0  0  0  0  0  0
   -1.2740   12.0840   -2.6890 C   0  0  0  0  0  0  0  0  0  0  0  0
    0.2480   11.8670   -2.7620 C   0  0  0  0  0  0  0  0  0  0  0  0
    0.8480   12.4150   -1.6030 O   0  0  0  0  0  0  0  0  0  0  0  0
    0.4500   10.4540   -2.6480 O   0  0  0  0  0  0  0  0  0  0  0  0
    0.9370   12.4040   -4.0620 C   0  0  0  0  0  0  0  0  0  0  0  0
    0.3080   11.9490   -5.3080 N   0  0  0  0  0  0  0  0  0  0  0  0
    1.0430   11.7070   -6.4560 C   0  0  0  0  0  0  0  0  0  0  0  0
    2.1430   12.2060   -6.6190 O   0  0  0  0  0  0  0  0  0  0  0  0
    0.4440   10.7710   -7.4660 C   0  0  0  0  0  0  0  0  0  0  0  0
   -0.5340    9.8470   -7.0870 C   0  0  0  0  0  0  0  0  0  0  0  0
    0.8540   10.8000   -8.8120 C   0  0  0  0  0  0  0  0  0  0  0  0
   -1.0960    8.9710   -8.0230 C   0  0  0  0  0  0  0  0  0  0  0  0
    0.3010    9.9340   -9.7450 C   0  0  0  0  0  0  0  0  0  0  0  0
   -2.1420    7.9880   -7.5980 C   0  0  0  0  0  0  0  0  0  0  0  0
   -0.6710    9.0200   -9.3570 C   0  0  0  0  0  0  0  0  0  0  0  0
  1  2  2  0
  2  3  1  0
  2  4  1  0
  3  5  1  0
  4  6  1  0
  6  7  1  6
  5  8  2  0
  6  8  1  0
  7  9  1  0
  9 10  1  0
 10 11  1  0
 11 12  1  0
 12 13  1  0
 12 14  1  0
 12 15  1  0
 15 16  1  0
 16 17  1  0
 17 18  2  0
 17 19  1  0
 19 20  2  0
 19 21  1  0
 20 22  1  0
 21 23  2  0
 22 24  1  0
 22 25  2  0
 23 25  1  0
M  END
