x0849_0_A_α-x0900_1_A_α
     RDKit          3D

 22 24  0  0  0  0  0  0  0  0999 V2000
   -3.6640   15.1620   -2.9670 Br  0  0  0  0  0  0  0  0  0  0  0  0
   -3.4540   15.0830   -1.0840 C   0  0  0  0  0  0  0  0  0  0  0  0
   -2.2190   14.8250   -0.4100 C   0  0  0  0  0  0  0  0  0  0  0  0
   -4.6410   15.3030   -0.3910 C   0  0  0  0  0  0  0  0  0  0  0  0
   -2.3500   14.8090    0.9930 C   0  0  0  0  0  0  0  0  0  0  0  0
   -4.5900   15.2590    0.9720 C   0  0  0  0  0  0  0  0  0  0  0  0
   -0.8860   14.5880   -0.9290 C   0  0  0  0  0  0  0  0  0  0  0  0
   -0.4610   14.5630   -2.3910 C   0  0  0  0  0  0  0  0  0  0  0  0
   -3.4720   15.0160    1.6350 N   0  0  0  0  0  0  0  0  0  0  0  0
   -1.3660   14.5840    1.8170 N   0  0  0  0  0  0  0  0  0  0  0  0
    0.1440   14.3610   -0.0040 C   0  0  0  0  0  0  0  0  0  0  0  0
    0.2510   13.3050   -2.9410 C   0  0  0  0  0  0  0  0  0  0  0  0
   -0.1590   14.3700    1.3370 C   0  0  0  0  0  0  0  0  0  0  0  0
   -0.2950   12.7070   -4.2570 C   0  0  0  0  0  0  0  0  0  0  0  0
   -0.0540   11.1980   -4.4010 C   0  0  0  0  0  0  0  0  0  0  0  0
   -1.1620   10.3850   -5.1100 C   0  0  0  0  0  0  0  0  0  0  0  0
   -0.7030    9.8830   -6.5000 C   0  0  2  0  0  0  0  0  0  0  0  0
   -1.7710   10.0200   -7.5840 C   0  0  0  0  0  0  0  0  0  0  0  0
   -0.3810    8.4070   -6.6790 C   0  0  0  0  0  0  0  0  0  0  0  0
   -0.2610    8.3570   -8.1150 N   0  0  0  0  0  0  0  0  0  0  0  0
   -1.0100    9.3640   -8.7000 C   0  0  0  0  0  0  0  0  0  0  0  0
   -1.0310    9.6620   -9.8800 O   0  0  0  0  0  0  0  0  0  0  0  0
  1  2  1  0
  2  3  2  0
  2  4  1  0
  3  5  1  0
  4  6  2  0
  3  7  1  0
  7  8  1  0
  5  9  2  0
  6  9  1  0
  5 10  1  0
  7 11  2  0
  8 12  1  0
 10 13  2  0
 11 13  1  0
 12 14  1  0
 14 15  1  0
 15 16  1  0
 17 16  1  1
 17 18  1  0
 17 19  1  0
 19 20  1  0
 18 21  1  0
 20 21  1  0
 21 22  2  0
M  END
