x0844_0_A_α-x0910_1_A_α
     RDKit          3D

  8  8  0  0  0  0  0  0  0  0999 V2000
   -7.6150   14.7890    0.0230 O   0  0  0  0  0  0  0  0  0  0  0  0
   -6.3850   14.8070   -0.0250 C   0  0  0  0  0  0  0  0  0  0  0  0
   -5.6320   14.8430    1.1250 N   0  0  0  0  0  0  0  0  0  0  0  0
   -5.6390   14.7900   -1.3380 C   0  0  0  0  0  0  0  0  0  0  0  0
   -4.2780   15.0010    1.1750 C   0  0  0  0  0  0  0  0  0  0  0  0
   -4.2410   15.3680   -1.2490 C   0  0  2  0  0  0  0  0  0  0  0  0
   -3.0580   14.5730   -2.5880 Br  0  0  0  0  0  0  0  0  0  0  0  0
   -3.5780   15.2400    0.0770 C   0  0  0  0  0  0  0  0  0  0  0  0
  1  2  2  0
  2  3  1  0
  2  4  1  0
  3  5  1  0
  4  6  1  0
  6  7  1  6
  5  8  2  0
  6  8  1  0
M  END
