x0844_0_A-x0662_0_A
     RDKit          3D

 29 31  0  0  0  0  0  0  0  0999 V2000
   -7.5200   14.8180   -0.2010 O   0  0  0  0  0  0  0  0  0  0  0  0
   -6.2900   14.9080   -0.1500 C   0  0  0  0  0  0  0  0  0  0  0  0
   -5.6250   14.8310    1.0500 N   0  0  0  0  0  0  0  0  0  0  0  0
   -5.4190   15.1100   -1.3720 C   0  0  0  0  0  0  0  0  0  0  0  0
   -4.3030   15.1410    1.2020 C   0  0  0  0  0  0  0  0  0  0  0  0
   -4.0100   14.5520   -1.1620 C   0  0  1  0  0  0  0  0  0  0  0  0
   -3.1550   14.9850   -2.2440 O   0  0  0  0  0  0  0  0  0  0  0  0
   -3.4790   15.0230    0.1600 C   0  0  0  0  0  0  0  0  0  0  0  0
   -1.9660   14.1680   -2.3630 C   0  0  0  0  0  0  0  0  0  0  0  0
   -2.0210   13.3270   -3.6450 C   0  0  0  0  0  0  0  0  0  0  0  0
   -0.7550   12.4730   -3.8360 C   0  0  0  0  0  0  0  0  0  0  0  0
   -0.9070   11.6190   -5.0210 N   0  0  0  0  0  0  0  0  0  0  0  0
    0.0580   11.4820   -5.8750 C   0  0  0  0  0  0  0  0  0  0  0  0
    1.1910   12.0040   -5.8460 O   0  0  0  0  0  0  0  0  0  0  0  0
   -0.0270   10.6320   -7.1220 C   0  0  0  0  0  0  0  0  0  0  0  0
   -0.9540    9.5850   -7.1860 C   0  0  0  0  0  0  0  0  0  0  0  0
    0.8090   10.8840   -8.2140 C   0  0  0  0  0  0  0  0  0  0  0  0
   -1.0400    8.8040   -8.3410 C   0  0  0  0  0  0  0  0  0  0  0  0
    0.7290   10.1120   -9.3810 C   0  0  0  0  0  0  0  0  0  0  0  0
    1.5200   10.2930  -10.5370 N   0  0  0  0  0  0  0  0  0  0  0  0
   -0.2050    9.0680   -9.4290 C   0  0  0  0  0  0  0  0  0  0  0  0
    2.2220    9.3460  -11.2640 C   0  0  0  0  0  0  0  0  0  0  0  0
    2.3300    8.1580  -11.0030 O   0  0  0  0  0  0  0  0  0  0  0  0
    2.8990    9.9030  -12.4620 C   0  0  0  0  0  0  0  0  0  0  0  0
    2.6830   11.1570  -13.0970 C   0  0  0  0  0  0  0  0  0  0  0  0
    3.8650    9.2060  -13.1000 N   0  0  0  0  0  0  0  0  0  0  0  0
    4.2470   10.0080  -14.1040 N   0  0  0  0  0  0  0  0  0  0  0  0
    3.5680   11.1910  -14.1490 C   0  0  0  0  0  0  0  0  0  0  0  0
    5.2910    9.5610  -14.9950 C   0  0  0  0  0  0  0  0  0  0  0  0
  1  2  2  0
  2  3  1  0
  2  4  1  0
  3  5  1  0
  4  6  1  0
  6  7  1  6
  5  8  2  0
  6  8  1  0
  7  9  1  0
  9 10  1  0
 10 11  1  0
 11 12  1  0
 12 13  2  3
 13 14  1  0
 13 15  1  0
 15 16  2  0
 15 17  1  0
 16 18  1  0
 17 19  2  0
 19 20  1  0
 18 21  2  0
 19 21  1  0
 20 22  1  0
 22 23  2  0
 22 24  1  0
 24 25  1  0
 24 26  2  0
 26 27  1  0
 25 28  2  0
 27 28  1  0
 27 29  1  0
M  CHG  1  14  -1
M  END
