x0849_0_A-x0628_0_A
     RDKit          3D

 24 26  0  0  0  0  0  0  0  0999 V2000
   -3.8930   15.1740   -2.7750 Br  0  0  0  0  0  0  0  0  0  0  0  0
   -3.7220   15.1500   -0.8870 C   0  0  0  0  0  0  0  0  0  0  0  0
   -2.4930   14.8960   -0.2820 C   0  0  0  0  0  0  0  0  0  0  0  0
   -4.8450   15.3900   -0.1190 C   0  0  0  0  0  0  0  0  0  0  0  0
   -2.4370   14.8890    1.1050 C   0  0  0  0  0  0  0  0  0  0  0  0
   -4.6690   15.3580    1.2410 C   0  0  0  0  0  0  0  0  0  0  0  0
   -1.3210   14.6560   -0.9930 C   0  0  0  0  0  0  0  0  0  0  0  0
   -3.4990   15.1150    1.8360 N   0  0  0  0  0  0  0  0  0  0  0  0
   -1.3180   14.6560    1.7510 N   0  0  0  0  0  0  0  0  0  0  0  0
   -0.1390   14.4190   -0.3440 C   0  0  0  0  0  0  0  0  0  0  0  0
    1.0520   14.1800   -1.2120 C   0  0  0  0  0  0  0  0  0  0  0  0
   -0.2080   14.4310    1.0500 C   0  0  0  0  0  0  0  0  0  0  0  0
    0.5040   13.6470   -2.4260 O   0  0  0  0  0  0  0  0  0  0  0  0
    1.0140   12.5290   -2.9970 C   0  0  0  0  0  0  0  0  0  0  0  0
    0.9200   11.3830   -2.5710 O   0  0  0  0  0  0  0  0  0  0  0  0
    1.6810   12.9340   -4.2790 C   0  0  0  0  0  0  0  0  0  0  0  0
    0.6320   13.1490   -5.3620 C   0  0  0  0  0  0  0  0  0  0  0  0
   -0.2120   11.9890   -5.6000 N   0  0  0  0  0  0  0  0  0  0  0  0
    0.1740   11.0790   -6.5120 N   0  0  0  0  0  0  0  0  0  0  0  0
   -1.4090   11.6320   -5.0290 C   0  0  0  0  0  0  0  0  0  0  0  0
   -2.1210   12.4140   -3.9880 C   0  0  0  0  0  0  0  0  0  0  0  0
   -1.8070   10.4930   -5.5580 N   0  0  0  0  0  0  0  0  0  0  0  0
   -0.8190   10.1900   -6.4530 C   0  0  0  0  0  0  0  0  0  0  0  0
   -0.8420    8.9730   -7.2900 C   0  0  0  0  0  0  0  0  0  0  0  0
  1  2  1  0
  2  3  2  0
  2  4  1  0
  3  5  1  0
  4  6  2  0
  3  7  1  0
  5  8  2  0
  6  8  1  0
  5  9  1  0
  7 10  2  0
 10 11  1  0
  9 12  2  0
 10 12  1  0
 11 13  1  0
 13 14  1  0
 14 15  2  0
 14 16  1  0
 16 17  1  0
 17 18  1  0
 18 19  1  0
 18 20  1  0
 20 21  1  0
 20 22  2  0
 19 23  2  0
 22 23  1  0
 23 24  1  0
M  END
