x0849_0_A-x0962_1_A
     RDKit          3D

 17 19  0  0  0  0  0  0  0  0999 V2000
   -4.1780   15.4860   -1.4670 C   0  0  0  0  0  0  0  0  0  0  0  0
   -5.3010   15.3920   -1.5870 C   0  0  0  0  0  0  0  0  0  0  0  0
   -6.4680   15.0810   -0.8670 C   0  0  0  0  0  0  0  0  0  0  0  0
   -3.4330   15.2520   -0.3580 C   0  0  0  0  0  0  0  0  0  0  0  0
   -2.1970   14.7400   -0.0610 C   0  0  0  0  0  0  0  0  0  0  0  0
   -4.3140   15.6440    0.6240 C   0  0  0  0  0  0  0  0  0  0  0  0
   -1.9940   14.6450    1.3220 C   0  0  0  0  0  0  0  0  0  0  0  0
   -3.9860   15.5060    1.9000 C   0  0  0  0  0  0  0  0  0  0  0  0
   -1.1830   14.3110   -0.9270 C   0  0  0  0  0  0  0  0  0  0  0  0
   -6.3190   14.6150    0.4330 N   0  0  0  0  0  0  0  0  0  0  0  0
   -7.8060   15.1070   -1.0730 C   0  0  0  0  0  0  0  0  0  0  0  0
   -2.8320   15.0000    2.2370 N   0  0  0  0  0  0  0  0  0  0  0  0
   -0.9500   14.1780    1.8330 N   0  0  0  0  0  0  0  0  0  0  0  0
   -0.0460   13.7930   -0.3500 C   0  0  0  0  0  0  0  0  0  0  0  0
   -7.5440   14.3870    0.9510 C   0  0  0  0  0  0  0  0  0  0  0  0
   -8.4690   14.6720    0.0660 N   0  0  0  0  0  0  0  0  0  0  0  0
   -0.0310   13.7550    1.0260 C   0  0  0  0  0  0  0  0  0  0  0  0
  1  2  3  0
  2  3  1  0
  1  4  1  0
  4  5  1  0
  4  6  2  0
  5  7  2  0
  6  8  1  0
  5  9  1  0
  3 10  1  0
  3 11  2  0
  7 12  1  0
  8 12  2  0
  7 13  1  0
  9 14  2  0
 10 15  1  0
 11 16  1  0
 15 16  2  0
 13 17  2  0
 14 17  1  0
M  END
