x0849_0_A-x0967_0_A
     RDKit          3D

 16 18  0  0  0  0  0  0  0  0999 V2000
   -3.4020   15.3010   -2.9300 Br  0  0  0  0  0  0  0  0  0  0  0  0
   -3.5660   14.8050   -1.0410 C   0  0  1  0  0  0  0  0  0  0  0  0
   -2.2910   14.7150   -0.2890 C   0  0  0  0  0  0  0  0  0  0  0  0
   -4.5680   15.6050   -0.2140 C   0  0  0  0  0  0  0  0  0  0  0  0
   -2.4190   14.5470    1.0780 C   0  0  0  0  0  0  0  0  0  0  0  0
   -4.9040   14.7030    0.9600 C   0  0  2  0  0  0  0  0  0  0  0  0
   -1.0050   14.7890   -0.8480 C   0  0  0  0  0  0  0  0  0  0  0  0
   -3.6580   14.4540    1.6830 N   0  0  0  0  0  0  0  0  0  0  0  0
   -1.3790   14.4640    1.8870 N   0  0  0  0  0  0  0  0  0  0  0  0
    0.0910   14.6980   -0.0040 C   0  0  0  0  0  0  0  0  0  0  0  0
   -5.5010   13.4570    0.2260 C   0  0  0  0  0  0  0  0  0  0  0  0
   -5.9600   15.0160    1.9780 C   0  0  0  0  0  0  0  0  0  0  0  0
   -0.1660   14.5390    1.3460 C   0  0  0  0  0  0  0  0  0  0  0  0
   -6.7570   13.8140   -0.4870 N   0  0  0  0  0  0  0  0  0  0  0  0
   -7.2690   14.7860    1.7440 C   0  0  0  0  0  0  0  0  0  0  0  0
   -7.7980   14.2260    0.4580 C   0  0  0  0  0  0  0  0  0  0  0  0
  2  1  1  6
  2  3  1  0
  2  4  1  0
  3  5  2  0
  6  4  1  6
  3  7  1  0
  5  8  1  0
  6  8  1  0
  5  9  1  0
  7 10  2  0
  6 11  1  0
  6 12  1  0
  9 13  2  0
 10 13  1  0
 11 14  1  0
 12 15  2  0
 14 16  1  0
 15 16  1  0
M  END
