x0844_0_A-x0689_0_A
     RDKit          3D

 15 16  0  0  0  0  0  0  0  0999 V2000
   -7.9050   14.8020   -0.0290 O   0  0  0  0  0  0  0  0  0  0  0  0
   -6.6960   14.6210   -0.0860 C   0  0  0  0  0  0  0  0  0  0  0  0
   -5.9190   14.5990    1.0530 N   0  0  0  0  0  0  0  0  0  0  0  0
   -5.9630   14.4090   -1.3990 C   0  0  0  0  0  0  0  0  0  0  0  0
   -4.6470   15.2390    1.1110 C   0  0  2  0  0  0  0  0  0  0  0  0
   -4.4990   14.7100   -1.2110 C   0  0  1  0  0  0  0  0  0  0  0  0
   -3.5550   15.0970   -2.8920 Br  0  0  0  0  0  0  0  0  0  0  0  0
   -4.3560   15.8310   -0.2200 C   0  0  0  0  0  0  0  0  0  0  0  0
   -3.6310   14.3230    1.4650 N   0  0  0  0  0  0  0  0  0  0  0  0
   -2.3640   14.4940    0.9670 C   0  0  0  0  0  0  0  0  0  0  0  0
   -2.1760   14.6970   -0.3470 N   0  0  0  0  0  0  0  0  0  0  0  0
   -1.3870   14.4360    1.8520 N   0  0  0  0  0  0  0  0  0  0  0  0
   -0.9150   14.8360   -0.7820 C   0  0  0  0  0  0  0  0  0  0  0  0
   -0.1530   14.5780    1.3740 C   0  0  0  0  0  0  0  0  0  0  0  0
    0.1600   14.7820    0.0530 C   0  0  0  0  0  0  0  0  0  0  0  0
  1  2  2  0
  2  3  1  0
  2  4  1  0
  3  5  1  0
  4  6  1  0
  6  7  1  6
  5  8  1  0
  6  8  1  0
  5  9  1  6
  9 10  1  0
 10 11  2  0
 10 12  1  0
 11 13  1  0
 12 14  2  0
 13 15  2  0
 14 15  1  0
M  END
