x0849_0_A-x0681_0_A
     RDKit          3D

 17 19  0  0  0  0  0  0  0  0999 V2000
   -3.6610   15.1330   -2.2760 C   0  0  0  0  0  0  0  0  0  0  0  0
   -4.8930   15.2380   -2.8450 N   0  0  0  0  0  0  0  0  0  0  0  0
   -2.6690   15.0570   -2.9900 O   0  0  0  0  0  0  0  0  0  0  0  0
   -3.6820   15.1040   -0.7710 C   0  0  2  0  0  0  0  0  0  0  0  0
   -2.3320   14.8390   -0.1130 C   0  0  0  0  0  0  0  0  0  0  0  0
   -4.7080   14.1070   -0.1480 C   0  0  0  0  0  0  0  0  0  0  0  0
   -2.3660   14.7920    1.2660 C   0  0  0  0  0  0  0  0  0  0  0  0
   -4.6390   14.2040    1.4150 C   0  0  0  0  0  0  0  0  0  0  0  0
   -1.0940   14.6450   -0.7420 C   0  0  0  0  0  0  0  0  0  0  0  0
   -4.5940   12.6790   -0.6050 N   0  0  0  0  0  0  0  0  0  0  0  0
   -6.1390   14.2980   -0.4640 N   0  0  0  0  0  0  0  0  0  0  0  0
   -3.5430   14.9850    1.9160 N   0  0  0  0  0  0  0  0  0  0  0  0
   -1.3200   14.5690    2.0130 N   0  0  0  0  0  0  0  0  0  0  0  0
    0.0270   14.4150    0.0470 C   0  0  0  0  0  0  0  0  0  0  0  0
   -6.7630   13.0700   -0.3170 C   0  0  0  0  0  0  0  0  0  0  0  0
   -5.8550   12.1080   -0.4100 C   0  0  0  0  0  0  0  0  0  0  0  0
   -0.1610   14.3870    1.4160 C   0  0  0  0  0  0  0  0  0  0  0  0
  1  2  1  0
  1  3  2  0
  4  1  1  6
  4  5  1  0
  4  6  1  0
  5  7  2  0
  6  8  1  0
  5  9  1  0
  6 10  1  0
  6 11  1  0
  7 12  1  0
  8 12  1  0
  7 13  1  0
  9 14  2  0
 11 15  1  0
 10 16  1  0
 15 16  2  0
 13 17  2  0
 14 17  1  0
M  END
