x0849_0_A-x0465_0_A
     RDKit          3D

 25 27  0  0  0  0  0  0  0  0999 V2000
   -3.8120   15.2180   -2.8300 Br  0  0  0  0  0  0  0  0  0  0  0  0
   -3.6430   15.1950   -0.9390 C   0  0  0  0  0  0  0  0  0  0  0  0
   -2.4560   14.7940   -0.3370 C   0  0  0  0  0  0  0  0  0  0  0  0
   -4.7230   15.5750   -0.1730 C   0  0  0  0  0  0  0  0  0  0  0  0
   -2.3910   14.7940    1.0580 C   0  0  0  0  0  0  0  0  0  0  0  0
   -4.5460   15.5280    1.1880 C   0  0  0  0  0  0  0  0  0  0  0  0
   -1.3360   14.3900   -1.0550 C   0  0  0  0  0  0  0  0  0  0  0  0
   -3.4180   15.1500    1.7860 N   0  0  0  0  0  0  0  0  0  0  0  0
   -1.3100   14.4340    1.7110 N   0  0  0  0  0  0  0  0  0  0  0  0
   -0.2070   13.9930   -0.3950 C   0  0  0  0  0  0  0  0  0  0  0  0
    0.9750   13.5280   -1.1820 C   0  0  0  0  0  0  0  0  0  0  0  0
   -0.2540   14.0390    0.9950 C   0  0  0  0  0  0  0  0  0  0  0  0
    0.8580   13.6230   -2.6160 N   0  0  0  0  0  0  0  0  0  0  0  0
    0.7320   12.5240   -3.2840 C   0  0  0  0  0  0  0  0  0  0  0  0
    0.6490   12.5810   -4.8010 C   0  0  1  0  0  0  0  0  0  0  0  0
    0.6840   11.2830   -2.7360 O   0  0  0  0  0  0  0  0  0  0  0  0
    1.9420   13.2240   -5.2420 C   0  0  0  0  0  0  0  0  0  0  0  0
    0.5590   11.3490   -5.4920 O   0  0  0  0  0  0  0  0  0  0  0  0
   -0.6530   10.7510   -5.6330 C   0  0  0  0  0  0  0  0  0  0  0  0
   -0.7230    9.7170   -6.5750 C   0  0  0  0  0  0  0  0  0  0  0  0
   -1.8090   11.0840   -4.9210 C   0  0  0  0  0  0  0  0  0  0  0  0
    0.3610    9.3650   -7.2870 F   0  0  0  0  0  0  0  0  0  0  0  0
   -1.9040    9.0270   -6.8070 C   0  0  0  0  0  0  0  0  0  0  0  0
   -3.0000   10.3930   -5.1530 C   0  0  0  0  0  0  0  0  0  0  0  0
   -3.0510    9.3660   -6.0920 C   0  0  0  0  0  0  0  0  0  0  0  0
  1  2  1  0
  2  3  2  0
  2  4  1  0
  3  5  1  0
  4  6  2  0
  3  7  1  0
  5  8  2  0
  6  8  1  0
  5  9  1  0
  7 10  2  0
 10 11  1  0
  9 12  2  0
 10 12  1  0
 11 13  1  0
 13 14  2  3
 14 15  1  0
 14 16  1  0
 15 17  1  6
 15 18  1  0
 18 19  1  0
 19 20  2  0
 19 21  1  0
 20 22  1  0
 20 23  1  0
 21 24  2  0
 23 25  2  0
 24 25  1  0
M  END
