x0849_0_A-x0438_0_A
     RDKit          3D

 20 22  0  0  0  0  0  0  0  0999 V2000
   -3.4360   15.3190   -2.9400 Br  0  0  0  0  0  0  0  0  0  0  0  0
   -3.5940   14.7680   -1.0670 C   0  0  1  0  0  0  0  0  0  0  0  0
   -2.3150   14.7070   -0.3060 C   0  0  0  0  0  0  0  0  0  0  0  0
   -4.6120   15.5620   -0.2660 C   0  0  0  0  0  0  0  0  0  0  0  0
   -2.4480   14.5790    1.0670 C   0  0  0  0  0  0  0  0  0  0  0  0
   -4.9200   14.6350    0.9130 C   0  0  1  0  0  0  0  0  0  0  0  0
   -1.0250   14.7650   -0.8560 C   0  0  0  0  0  0  0  0  0  0  0  0
   -3.6910   14.5100    1.6870 N   0  0  0  0  0  0  0  0  0  0  0  0
   -1.4080   14.5090    1.8870 N   0  0  0  0  0  0  0  0  0  0  0  0
    0.0680   14.6930   -0.0040 C   0  0  0  0  0  0  0  0  0  0  0  0
   -6.1510   14.9280    1.6370 N   0  0  0  0  0  0  0  0  0  0  0  0
   -5.4040   13.3150    0.2950 C   0  0  0  0  0  0  0  0  0  0  0  0
   -0.1870   14.5660    1.3470 C   0  0  0  0  0  0  0  0  0  0  0  0
   -6.7680   13.6380   -0.1790 N   0  0  0  0  0  0  0  0  0  0  0  0
   -7.2910   14.5880    0.7870 C   0  0  1  0  0  0  0  0  0  0  0  0
   -8.4540   14.0130    1.5860 C   0  0  0  0  0  0  0  0  0  0  0  0
   -9.3150   15.2440    2.5510 S   0  0  0  0  0  0  0  0  0  0  0  0
   -8.2590   15.5890    3.9440 C   0  0  0  0  0  0  0  0  0  0  0  0
  -10.5100   14.6190    3.0830 O   0  0  0  0  0  0  0  0  0  0  0  0
   -9.4500   16.4480    1.7550 O   0  0  0  0  0  0  0  0  0  0  0  0
  2  1  1  6
  2  3  1  0
  2  4  1  0
  3  5  2  0
  6  4  1  6
  3  7  1  0
  5  8  1  0
  6  8  1  0
  5  9  1  0
  7 10  2  0
  6 11  1  0
  6 12  1  0
  9 13  2  0
 10 13  1  0
 12 14  1  0
 11 15  1  0
 14 15  1  0
 15 16  1  1
 17 16  1  0
 17 18  1  0
 17 19  2  0
 17 20  2  0
M  END
