x0844_0_A_α-x0591_0_A_α
     RDKit          3D

 21 22  0  0  0  0  0  0  0  0999 V2000
   -6.5180   14.7540    0.2960 N   0  0  0  0  0  0  0  0  0  0  0  0
   -6.8090   14.2980   -0.8480 C   0  0  0  0  0  0  0  0  0  0  0  0
   -8.1110   13.9630   -0.9420 N   0  0  0  0  0  0  0  0  0  0  0  0
   -5.1960   15.0150    0.3620 C   0  0  0  0  0  0  0  0  0  0  0  0
   -4.6710   14.9740    1.5700 N   0  0  0  0  0  0  0  0  0  0  0  0
   -4.5000   15.2630   -0.7940 C   0  0  0  0  0  0  0  0  0  0  0  0
   -5.7610   14.1800   -1.9260 C   0  0  0  0  0  0  0  0  0  0  0  0
   -8.8760   13.9020    0.2880 C   0  0  0  0  0  0  0  0  0  0  0  0
   -3.3560   15.1840    1.6390 C   0  0  0  0  0  0  0  0  0  0  0  0
   -3.1510   15.4620   -0.6870 C   0  0  0  0  0  0  0  0  0  0  0  0
   -4.5290   13.5380   -1.6740 C   0  0  0  0  0  0  0  0  0  0  0  0
   -6.0170   14.7350   -3.1760 C   0  0  0  0  0  0  0  0  0  0  0  0
   -2.1330   15.7580   -2.2410 Br  0  0  0  0  0  0  0  0  0  0  0  0
   -2.5480   15.4290    0.5520 C   0  0  0  0  0  0  0  0  0  0  0  0
   -3.5510   13.4740   -2.6850 C   0  0  0  0  0  0  0  0  0  0  0  0
   -5.0430   14.6640   -4.1770 C   0  0  0  0  0  0  0  0  0  0  0  0
   -3.8190   14.0490   -3.9380 C   0  0  0  0  0  0  0  0  0  0  0  0
   -2.6190   14.0190   -5.2570 S   0  0  0  0  0  0  0  0  0  0  0  0
   -1.3790   15.0220   -4.7030 N   0  0  0  0  0  0  0  0  0  0  0  0
   -2.0340   12.7030   -5.3280 O   0  0  0  0  0  0  0  0  0  0  0  0
   -3.2100   14.6760   -6.4000 O   0  0  0  0  0  0  0  0  0  0  0  0
  1  2  2  3
  2  3  1  0
  1  4  1  0
  4  5  2  0
  4  6  1  0
  2  7  1  0
  3  8  1  0
  5  9  1  0
  6 10  2  0
  7 11  2  0
  7 12  1  0
 10 13  1  0
  9 14  2  0
 10 14  1  0
 11 15  1  0
 12 16  2  0
 15 17  2  0
 16 17  1  0
 17 18  1  0
 18 19  1  0
 18 20  2  0
 18 21  2  0
M  END
