x0849_0_A-x0910_0_A
     RDKit          3D

 11 12  0  0  0  0  0  0  0  0999 V2000
   -3.4220   15.1180   -2.9700 Br  0  0  0  0  0  0  0  0  0  0  0  0
   -3.4180   15.0770   -1.0700 C   0  0  0  0  0  0  0  0  0  0  0  0
   -2.2520   14.8270   -0.3210 C   0  0  0  0  0  0  0  0  0  0  0  0
   -4.6300   15.3070   -0.4400 C   0  0  0  0  0  0  0  0  0  0  0  0
   -2.3920   14.8150    1.0680 C   0  0  0  0  0  0  0  0  0  0  0  0
   -4.6330   15.2730    0.9280 C   0  0  0  0  0  0  0  0  0  0  0  0
   -0.9600   14.5920   -0.8480 C   0  0  0  0  0  0  0  0  0  0  0  0
   -3.5470   15.0330    1.6590 N   0  0  0  0  0  0  0  0  0  0  0  0
   -1.3840   14.5850    1.8700 N   0  0  0  0  0  0  0  0  0  0  0  0
    0.0980   14.3620    0.0110 C   0  0  0  0  0  0  0  0  0  0  0  0
   -0.1790   14.3700    1.3590 C   0  0  0  0  0  0  0  0  0  0  0  0
  1  2  1  0
  2  3  2  0
  2  4  1  0
  3  5  1  0
  4  6  2  0
  3  7  1  0
  5  8  2  0
  6  8  1  0
  5  9  1  0
  7 10  2  0
  9 11  2  0
 10 11  1  0
M  END
