x0844_0_A_α-x0910_2_B_α
     RDKit          3D

 21 22  0  0  0  0  0  0  0  0999 V2000
   -7.7080   14.2310    0.5060 O   0  0  0  0  0  0  0  0  0  0  0  0
   -6.5130   14.4660    0.3690 C   0  0  0  0  0  0  0  0  0  0  0  0
   -5.6880   14.6750    1.4470 N   0  0  0  0  0  0  0  0  0  0  0  0
   -5.8810   14.5530   -1.0050 C   0  0  1  0  0  0  0  0  0  0  0  0
   -6.3710   15.9080   -1.5300 C   0  0  0  0  0  0  0  0  0  0  0  0
   -4.4630   15.2620    1.3810 C   0  0  0  0  0  0  0  0  0  0  0  0
   -4.3470   14.3950   -0.8760 C   0  0  1  0  0  0  0  0  0  0  0  0
   -3.3860   14.8490   -2.5160 Br  0  0  0  0  0  0  0  0  0  0  0  0
   -7.8810   16.0840   -1.8370 C   0  0  0  0  0  0  0  0  0  0  0  0
   -3.7560   15.1550    0.2660 C   0  0  0  0  0  0  0  0  0  0  0  0
   -8.9840   16.0450   -0.7700 C   0  0  0  0  0  0  0  0  0  0  0  0
   -9.7210   17.3960   -0.6690 C   0  0  0  0  0  0  0  0  0  0  0  0
  -10.9710   17.5760   -1.5410 C   0  0  0  0  0  0  0  0  0  0  0  0
  -11.0860   19.0470   -1.9810 C   0  0  0  0  0  0  0  0  0  0  0  0
  -12.3880   19.5180   -2.6490 C   0  0  0  0  0  0  0  0  0  0  0  0
  -12.3000   20.9280   -3.0720 N   0  0  0  0  0  0  0  0  0  0  0  0
  -12.4860   22.0200   -2.2820 C   0  0  0  0  0  0  0  0  0  0  0  0
  -11.7800   23.1960   -2.3900 N   0  0  0  0  0  0  0  0  0  0  0  0
  -13.3570   22.1490   -1.2990 N   0  0  0  0  0  0  0  0  0  0  0  0
  -12.1810   24.0900   -1.4750 N   0  0  0  0  0  0  0  0  0  0  0  0
  -13.1340   23.4130   -0.8390 C   0  0  0  0  0  0  0  0  0  0  0  0
  1  2  2  0
  2  3  1  0
  2  4  1  0
  4  5  1  1
  3  6  1  0
  4  7  1  0
  7  8  1  6
  5  9  1  0
  6 10  2  0
  7 10  1  0
  9 11  1  0
 11 12  1  0
 12 13  1  0
 13 14  1  0
 14 15  1  0
 15 16  1  0
 16 17  1  0
 17 18  1  0
 17 19  2  0
 18 20  1  0
 19 21  1  0
 20 21  2  0
M  END
