x0844_0_A-x0587_0_A
     RDKit          3D

 14 14  0  0  0  0  0  0  0  0999 V2000
   -7.9800   14.6480   -0.3670 O   0  0  0  0  0  0  0  0  0  0  0  0
   -6.8270   14.7450    0.0500 C   0  0  0  0  0  0  0  0  0  0  0  0
   -6.4740   14.7880    1.3990 N   0  0  0  0  0  0  0  0  0  0  0  0
   -5.7370   14.8310   -0.9570 C   0  0  0  0  0  0  0  0  0  0  0  0
   -7.5290   14.9420    2.3710 C   0  0  0  0  0  0  0  0  0  0  0  0
   -5.1430   15.1720    1.7130 C   0  0  0  0  0  0  0  0  0  0  0  0
   -4.4790   15.1060   -0.5990 C   0  0  0  0  0  0  0  0  0  0  0  0
   -3.4190   15.1880   -1.4420 O   0  0  0  0  0  0  0  0  0  0  0  0
   -7.2080   15.0930    3.6760 N   0  0  0  0  0  0  0  0  0  0  0  0
   -8.7420   14.9640    2.1040 O   0  0  0  0  0  0  0  0  0  0  0  0
   -4.1790   15.3310    0.7880 C   0  0  0  0  0  0  0  0  0  0  0  0
   -3.6600   14.4710   -2.6140 C   0  0  0  0  0  0  0  0  0  0  0  0
   -4.1200   13.2500   -2.2470 F   0  0  0  0  0  0  0  0  0  0  0  0
   -4.6690   15.0870   -3.2670 F   0  0  0  0  0  0  0  0  0  0  0  0
  1  2  2  0
  2  3  1  0
  2  4  1  0
  3  5  1  0
  3  6  1  0
  4  7  2  0
  7  8  1  0
  5  9  1  0
  5 10  2  0
  6 11  2  0
  7 11  1  0
  8 12  1  0
 12 13  1  0
 12 14  1  0
M  END
