x0844_0_A_α-x0727_0_A_α
     RDKit          3D

 24 25  0  0  0  0  0  0  0  0999 V2000
   -7.6010   14.7400   -0.0160 O   0  0  0  0  0  0  0  0  0  0  0  0
   -6.3790   14.8790   -0.0410 C   0  0  0  0  0  0  0  0  0  0  0  0
   -5.6480   14.7430    1.1090 N   0  0  0  0  0  0  0  0  0  0  0  0
   -5.6490   15.2100   -1.3230 C   0  0  0  0  0  0  0  0  0  0  0  0
   -4.2990   14.8590    1.2090 C   0  0  0  0  0  0  0  0  0  0  0  0
   -4.1280   15.3070   -1.2320 C   0  0  2  0  0  0  0  0  0  0  0  0
   -3.5190   14.3410   -2.0930 O   0  0  0  0  0  0  0  0  0  0  0  0
   -3.5510   15.1200    0.1370 C   0  0  0  0  0  0  0  0  0  0  0  0
   -2.3650   14.7900   -2.8040 C   0  0  0  0  0  0  0  0  0  0  0  0
   -1.7310   13.6430   -3.5850 C   0  0  0  0  0  0  0  0  0  0  0  0
   -1.0460   14.1120   -4.8790 C   0  0  0  0  0  0  0  0  0  0  0  0
    0.4710   13.8500   -4.8980 C   0  0  0  0  0  0  0  0  0  0  0  0
    0.8890   12.3840   -4.7440 C   0  0  2  0  0  0  0  0  0  0  0  0
    0.1100   11.4970   -5.6120 N   0  0  0  0  0  0  0  0  0  0  0  0
    0.7210   11.9040   -3.3000 C   0  0  0  0  0  0  0  0  0  0  0  0
    0.1140   10.9030   -2.9400 O   0  0  0  0  0  0  0  0  0  0  0  0
    0.6750   11.1280   -6.8040 C   0  0  0  0  0  0  0  0  0  0  0  0
    1.3230   12.7020   -2.3970 O   0  0  0  0  0  0  0  0  0  0  0  0
    1.6410   11.7080   -7.2230 O   0  0  0  0  0  0  0  0  0  0  0  0
    0.0380    9.9450   -7.5190 C   0  0  0  0  0  0  0  0  0  0  0  0
   -1.2570   10.3210   -8.2440 C   0  0  0  0  0  0  0  0  0  0  0  0
   -0.3110    8.7610   -6.5980 C   0  0  0  0  0  0  0  0  0  0  0  0
   -2.1790    9.1280   -8.0560 C   0  0  0  0  0  0  0  0  0  0  0  0
   -1.8190    8.5850   -6.6880 C   0  0  0  0  0  0  0  0  0  0  0  0
  1  2  2  0
  2  3  1  0
  2  4  1  0
  3  5  1  0
  4  6  1  0
  6  7  1  6
  5  8  2  0
  6  8  1  0
  7  9  1  0
  9 10  1  0
 10 11  1  0
 11 12  1  0
 13 12  1  1
 13 14  1  0
 13 15  1  0
 15 16  2  0
 14 17  1  0
 15 18  1  0
 17 19  2  0
 17 20  1  0
 20 21  1  0
 20 22  1  0
 21 23  1  0
 22 24  1  0
 23 24  1  0
M  END
