x0844_0_A-x0662_0_A
     RDKit          3D

 29 31  0  0  0  0  0  0  0  0999 V2000
   -7.5210   14.8100   -0.1980 O   0  0  0  0  0  0  0  0  0  0  0  0
   -6.2940   14.9130   -0.1510 C   0  0  0  0  0  0  0  0  0  0  0  0
   -5.6230   14.8490    1.0510 N   0  0  0  0  0  0  0  0  0  0  0  0
   -5.4260   15.1180   -1.3730 C   0  0  0  0  0  0  0  0  0  0  0  0
   -4.3030   15.1620    1.1960 C   0  0  0  0  0  0  0  0  0  0  0  0
   -4.0180   14.5640   -1.1660 C   0  0  1  0  0  0  0  0  0  0  0  0
   -3.1620   14.9870   -2.2500 O   0  0  0  0  0  0  0  0  0  0  0  0
   -3.4810   15.0410    0.1540 C   0  0  0  0  0  0  0  0  0  0  0  0
   -1.9700   14.1730   -2.3550 C   0  0  0  0  0  0  0  0  0  0  0  0
   -2.0130   13.3300   -3.6360 C   0  0  0  0  0  0  0  0  0  0  0  0
   -0.7510   12.4690   -3.8250 C   0  0  0  0  0  0  0  0  0  0  0  0
   -0.9010   11.6150   -5.0080 N   0  0  0  0  0  0  0  0  0  0  0  0
    0.0610   11.4850   -5.8670 C   0  0  0  0  0  0  0  0  0  0  0  0
    1.1870   12.0130   -5.8410 O   0  0  0  0  0  0  0  0  0  0  0  0
   -0.0230   10.6330   -7.1130 C   0  0  0  0  0  0  0  0  0  0  0  0
   -0.9500    9.5870   -7.1850 C   0  0  0  0  0  0  0  0  0  0  0  0
    0.8200   10.8870   -8.2020 C   0  0  0  0  0  0  0  0  0  0  0  0
   -1.0300    8.8110   -8.3410 C   0  0  0  0  0  0  0  0  0  0  0  0
    0.7470   10.1190   -9.3730 C   0  0  0  0  0  0  0  0  0  0  0  0
    1.5420   10.3040  -10.5320 N   0  0  0  0  0  0  0  0  0  0  0  0
   -0.1890    9.0770   -9.4260 C   0  0  0  0  0  0  0  0  0  0  0  0
    2.2160    9.3530  -11.2870 C   0  0  0  0  0  0  0  0  0  0  0  0
    2.2950    8.1570  -11.0490 O   0  0  0  0  0  0  0  0  0  0  0  0
    2.9010    9.9120  -12.4840 C   0  0  0  0  0  0  0  0  0  0  0  0
    2.6950   11.1700  -13.1240 C   0  0  0  0  0  0  0  0  0  0  0  0
    3.8710    9.2120  -13.1170 N   0  0  0  0  0  0  0  0  0  0  0  0
    4.2630   10.0150  -14.1220 N   0  0  0  0  0  0  0  0  0  0  0  0
    3.5880   11.2000  -14.1700 C   0  0  0  0  0  0  0  0  0  0  0  0
    5.3130    9.5680  -15.0080 C   0  0  0  0  0  0  0  0  0  0  0  0
  1  2  2  0
  2  3  1  0
  2  4  1  0
  3  5  1  0
  4  6  1  0
  6  7  1  6
  5  8  2  0
  6  8  1  0
  7  9  1  0
  9 10  1  0
 10 11  1  0
 11 12  1  0
 12 13  2  3
 13 14  1  0
 13 15  1  0
 15 16  2  0
 15 17  1  0
 16 18  1  0
 17 19  2  0
 19 20  1  0
 18 21  2  0
 19 21  1  0
 20 22  1  0
 22 23  2  0
 22 24  1  0
 24 25  1  0
 24 26  2  0
 26 27  1  0
 25 28  2  0
 27 28  1  0
 27 29  1  0
M  CHG  1  14  -1
M  END
