x0844_0_A-x0727_0_A
     RDKit          3D

 24 25  0  0  0  0  0  0  0  0999 V2000
   -7.5760   14.8140   -0.0820 O   0  0  0  0  0  0  0  0  0  0  0  0
   -6.3440   14.8370   -0.0920 C   0  0  0  0  0  0  0  0  0  0  0  0
   -5.6470   14.7440    1.0830 N   0  0  0  0  0  0  0  0  0  0  0  0
   -5.5600   14.9660   -1.3810 C   0  0  0  0  0  0  0  0  0  0  0  0
   -4.2980   14.8700    1.2120 C   0  0  0  0  0  0  0  0  0  0  0  0
   -4.0800   15.3200   -1.2210 C   0  0  2  0  0  0  0  0  0  0  0  0
   -3.2520   14.5480   -2.1120 O   0  0  0  0  0  0  0  0  0  0  0  0
   -3.5310   15.1370    0.1580 C   0  0  0  0  0  0  0  0  0  0  0  0
   -3.1050   15.0870   -3.4270 C   0  0  0  0  0  0  0  0  0  0  0  0
   -1.6310   15.1550   -3.8500 C   0  0  0  0  0  0  0  0  0  0  0  0
   -1.2120   13.9610   -4.7230 C   0  0  0  0  0  0  0  0  0  0  0  0
    0.3120   13.8240   -4.8880 C   0  0  0  0  0  0  0  0  0  0  0  0
    0.8450   12.3920   -4.7390 C   0  0  2  0  0  0  0  0  0  0  0  0
    0.1130   11.4620   -5.6000 N   0  0  0  0  0  0  0  0  0  0  0  0
    0.6970   11.9070   -3.2970 C   0  0  0  0  0  0  0  0  0  0  0  0
    0.0890   10.9090   -2.9380 O   0  0  0  0  0  0  0  0  0  0  0  0
    0.6810   11.1140   -6.7970 C   0  0  0  0  0  0  0  0  0  0  0  0
    1.3200   12.6980   -2.4030 O   0  0  0  0  0  0  0  0  0  0  0  0
    1.6360   11.7120   -7.2140 O   0  0  0  0  0  0  0  0  0  0  0  0
    0.0580    9.9290   -7.5250 C   0  0  0  0  0  0  0  0  0  0  0  0
   -1.2290   10.3040   -8.2680 C   0  0  0  0  0  0  0  0  0  0  0  0
   -0.3030    8.7380   -6.6170 C   0  0  0  0  0  0  0  0  0  0  0  0
   -2.1710    9.1270   -8.0610 C   0  0  0  0  0  0  0  0  0  0  0  0
   -1.8130    8.5940   -6.6880 C   0  0  0  0  0  0  0  0  0  0  0  0
  1  2  2  0
  2  3  1  0
  2  4  1  0
  3  5  1  0
  4  6  1  0
  6  7  1  6
  5  8  2  0
  6  8  1  0
  7  9  1  0
  9 10  1  0
 10 11  1  0
 11 12  1  0
 13 12  1  1
 13 14  1  0
 13 15  1  0
 15 16  2  0
 14 17  1  0
 15 18  1  0
 17 19  2  0
 17 20  1  0
 20 21  1  0
 20 22  1  0
 21 23  1  0
 22 24  1  0
 23 24  1  0
M  END
