x0844_0_A-x0711_0_A
     RDKit          3D

 14 14  0  0  0  0  0  0  0  0999 V2000
   -6.9820   14.8520   -0.1950 N   0  0  0  0  0  0  0  0  0  0  0  0
   -7.3250   14.5140    0.9860 C   0  0  0  0  0  0  0  0  0  0  0  0
   -8.5170   14.3440    1.5670 N   0  0  0  0  0  0  0  0  0  0  0  0
   -5.6100   14.8960   -0.2710 C   0  0  0  0  0  0  0  0  0  0  0  0
   -5.0310   14.9340    0.9380 N   0  0  0  0  0  0  0  0  0  0  0  0
   -4.9140   14.8920   -1.4660 C   0  0  0  0  0  0  0  0  0  0  0  0
   -3.6980   14.9610    0.9840 C   0  0  0  0  0  0  0  0  0  0  0  0
   -3.5090   14.9230   -1.3940 C   0  0  0  0  0  0  0  0  0  0  0  0
   -2.7860   14.9200   -2.5930 O   0  0  0  0  0  0  0  0  0  0  0  0
   -2.8970   14.9560   -0.1390 C   0  0  0  0  0  0  0  0  0  0  0  0
   -1.2600   14.2750   -2.8500 S   0  0  0  0  0  0  0  0  0  0  0  0
   -1.7180   12.9470   -3.9450 C   0  0  0  0  0  0  0  0  0  0  0  0
   -0.4090   15.1690   -3.6200 O   0  0  0  0  0  0  0  0  0  0  0  0
   -0.7440   13.6560   -1.6440 O   0  0  0  0  0  0  0  0  0  0  0  0
  1  2  2  3
  2  3  1  0
  1  4  1  0
  4  5  2  0
  4  6  1  0
  5  7  1  0
  6  8  2  0
  8  9  1  0
  7 10  2  0
  8 10  1  0
 11  9  1  0
 11 12  1  0
 11 13  2  0
 11 14  2  0
M  END
