x0849_0_A_α-x0681_0_A_α
     RDKit          3D

 17 19  0  0  0  0  0  0  0  0999 V2000
   -3.6570   15.1310   -2.2790 C   0  0  0  0  0  0  0  0  0  0  0  0
   -4.8860   15.2400   -2.8490 N   0  0  0  0  0  0  0  0  0  0  0  0
   -2.6620   15.0520   -2.9900 O   0  0  0  0  0  0  0  0  0  0  0  0
   -3.6790   15.1060   -0.7720 C   0  0  2  0  0  0  0  0  0  0  0  0
   -2.3320   14.8400   -0.1150 C   0  0  0  0  0  0  0  0  0  0  0  0
   -4.7120   14.1140   -0.1470 C   0  0  0  0  0  0  0  0  0  0  0  0
   -2.3670   14.7970    1.2630 C   0  0  0  0  0  0  0  0  0  0  0  0
   -4.6400   14.2060    1.4160 C   0  0  0  0  0  0  0  0  0  0  0  0
   -1.0920   14.6430   -0.7420 C   0  0  0  0  0  0  0  0  0  0  0  0
   -4.5980   12.6840   -0.6030 N   0  0  0  0  0  0  0  0  0  0  0  0
   -6.1460   14.3010   -0.4590 N   0  0  0  0  0  0  0  0  0  0  0  0
   -3.5430   14.9890    1.9170 N   0  0  0  0  0  0  0  0  0  0  0  0
   -1.3180   14.5750    2.0130 N   0  0  0  0  0  0  0  0  0  0  0  0
    0.0270   14.4140    0.0470 C   0  0  0  0  0  0  0  0  0  0  0  0
   -6.7700   13.0690   -0.3160 C   0  0  0  0  0  0  0  0  0  0  0  0
   -5.8570   12.1130   -0.4120 C   0  0  0  0  0  0  0  0  0  0  0  0
   -0.1600   14.3910    1.4140 C   0  0  0  0  0  0  0  0  0  0  0  0
  1  2  1  0
  1  3  2  0
  4  1  1  6
  4  5  1  0
  4  6  1  0
  5  7  2  0
  6  8  1  0
  5  9  1  0
  6 10  1  0
  6 11  1  0
  7 12  1  0
  8 12  1  0
  7 13  1  0
  9 14  2  0
 11 15  1  0
 10 16  1  0
 15 16  2  0
 13 17  2  0
 14 17  1  0
M  END
