x0849_0_A-x0104_0_A
     RDKit          3D

 27 30  0  0  0  0  0  0  0  0999 V2000
   -3.5150   15.4360   -2.1460 O   0  0  0  0  0  0  0  0  0  0  0  0
   -4.7240   14.6710   -2.4630 O   0  0  0  0  0  0  0  0  0  0  0  0
   -5.4110   14.5980   -1.2650 C   0  0  0  0  0  0  0  0  0  0  0  0
   -3.4110   15.3840   -0.7620 C   0  0  0  0  0  0  0  0  0  0  0  0
   -2.2320   14.8540   -0.1870 C   0  0  0  0  0  0  0  0  0  0  0  0
   -4.4190   15.8270    0.0840 C   0  0  0  0  0  0  0  0  0  0  0  0
   -2.1690   14.7930    1.2110 C   0  0  0  0  0  0  0  0  0  0  0  0
   -4.2170   15.7050    1.4440 C   0  0  0  0  0  0  0  0  0  0  0  0
   -1.1130   14.3860   -0.9030 C   0  0  0  0  0  0  0  0  0  0  0  0
   -4.6820   14.1250   -0.2320 N   0  0  0  0  0  0  0  0  0  0  0  0
   -6.7320   14.9890   -1.1360 C   0  0  0  0  0  0  0  0  0  0  0  0
   -3.1130   15.1920    1.9880 N   0  0  0  0  0  0  0  0  0  0  0  0
   -1.1520   14.3250    1.8530 N   0  0  0  0  0  0  0  0  0  0  0  0
   -0.0270   13.8890   -0.2000 C   0  0  0  0  0  0  0  0  0  0  0  0
   -5.2950   14.0640    0.9780 C   0  0  0  0  0  0  0  0  0  0  0  0
   -7.3360   14.9070    0.1260 C   0  0  0  0  0  0  0  0  0  0  0  0
   -0.1260   13.8850    1.1740 C   0  0  0  0  0  0  0  0  0  0  0  0
   -6.6120   14.4450    1.2230 C   0  0  0  0  0  0  0  0  0  0  0  0
   -7.1090   14.3400    2.5450 N   0  0  0  0  0  0  0  0  0  0  0  0
   -8.1830   15.0180    3.0990 C   0  0  0  0  0  0  0  0  0  0  0  0
   -8.0690   15.0660    4.4840 N   0  0  0  0  0  0  0  0  0  0  0  0
   -9.1060   15.5060    2.4570 O   0  0  0  0  0  0  0  0  0  0  0  0
   -9.1440   15.0810    5.3480 C   0  0  0  0  0  0  0  0  0  0  0  0
   -9.2530   15.2040    6.7130 C   0  0  0  0  0  0  0  0  0  0  0  0
  -10.6610   14.9110    4.5880 S   0  0  0  0  0  0  0  0  0  0  0  0
  -11.4880   15.0000    6.0860 C   0  0  0  0  0  0  0  0  0  0  0  0
  -10.6170   15.1570    7.1440 C   0  0  0  0  0  0  0  0  0  0  0  0
  1  2  1  0
  2  3  1  0
  1  4  1  0
  4  5  1  0
  4  6  2  0
  5  7  2  0
  6  8  1  0
  5  9  1  0
  3 10  2  0
  3 11  1  0
  7 12  1  0
  8 12  2  0
  7 13  1  0
  9 14  2  0
 10 15  1  0
 11 16  2  0
 13 17  2  0
 14 17  1  0
 15 18  2  0
 16 18  1  0
 18 19  1  0
 19 20  1  0
 20 21  1  0
 20 22  2  0
 21 23  1  0
 23 24  2  0
 23 25  1  0
 25 26  1  0
 24 27  1  0
 26 27  2  0
M  END
