x0849_0_A-x0910_1_A
     RDKit          3D

 16 18  0  0  0  0  0  0  0  0999 V2000
   -3.5890   15.1100   -2.6420 Br  0  0  0  0  0  0  0  0  0  0  0  0
   -3.6460   14.3540   -0.8060 C   0  0  1  0  0  0  0  0  0  0  0  0
   -2.2810   14.5220   -0.2130 C   0  0  0  0  0  0  0  0  0  0  0  0
   -4.8150   14.9760    0.0380 C   0  0  1  0  0  0  0  0  0  0  0  0
   -2.1960   14.7740    1.1300 C   0  0  0  0  0  0  0  0  0  0  0  0
   -4.2560   15.7480    1.2690 C   0  0  0  0  0  0  0  0  0  0  0  0
   -1.0890   14.4420   -0.9460 C   0  0  0  0  0  0  0  0  0  0  0  0
   -5.7670   15.7550   -0.7720 N   0  0  0  0  0  0  0  0  0  0  0  0
   -5.6300   13.9070    0.6590 N   0  0  0  0  0  0  0  0  0  0  0  0
   -3.2970   14.8910    1.9030 N   0  0  0  0  0  0  0  0  0  0  0  0
   -1.0870   14.9390    1.7700 N   0  0  0  0  0  0  0  0  0  0  0  0
    0.1080   14.6300   -0.2760 C   0  0  0  0  0  0  0  0  0  0  0  0
   -6.9250   14.4770    0.7300 C   0  0  1  0  0  0  0  0  0  0  0  0
   -7.0730   15.1220   -0.5450 N   0  0  0  0  0  0  0  0  0  0  0  0
   -7.8570   13.4120    0.7650 N   0  0  0  0  0  0  0  0  0  0  0  0
    0.0250   14.8770    1.0730 C   0  0  0  0  0  0  0  0  0  0  0  0
  2  1  1  6
  2  3  1  0
  2  4  1  0
  3  5  2  0
  4  6  1  1
  3  7  1  0
  4  8  1  0
  4  9  1  0
  5 10  1  0
  6 10  1  0
  5 11  1  0
  7 12  2  0
  9 13  1  0
  8 14  1  0
 13 14  1  0
 13 15  1  6
 11 16  2  0
 12 16  1  0
M  END
