x0844_0_A_α-x0766_0_A_α
     RDKit          3D

 20 22  0  0  0  0  0  0  0  0999 V2000
   -7.5100   14.4860   -0.6710 O   0  0  0  0  0  0  0  0  0  0  0  0
   -6.2920   14.4710   -0.5050 C   0  0  0  0  0  0  0  0  0  0  0  0
   -5.7670   14.4260    0.7420 N   0  0  0  0  0  0  0  0  0  0  0  0
   -5.2590   14.5260   -1.6280 C   0  0  0  0  0  0  0  0  0  0  0  0
   -4.8920   15.3660    1.0990 C   0  0  0  0  0  0  0  0  0  0  0  0
   -4.0200   15.3920   -1.2810 C   0  0  1  0  0  0  0  0  0  0  0  0
   -4.0730   15.8600    0.1810 C   0  0  0  0  0  0  0  0  0  0  0  0
   -2.6110   14.8190   -1.2460 C   0  0  0  0  0  0  0  0  0  0  0  0
   -1.4030   14.4690   -1.9710 C   0  0  0  0  0  0  0  0  0  0  0  0
   -2.4630   14.4940    0.4300 S   0  0  0  0  0  0  0  0  0  0  0  0
   -0.7870   14.4640   -3.3950 C   0  0  2  0  0  0  0  0  0  0  0  0
   -0.4710   13.9670   -0.9860 C   0  0  0  0  0  0  0  0  0  0  0  0
   -0.9120   13.9370    0.2980 C   0  0  0  0  0  0  0  0  0  0  0  0
    0.4740   13.5440   -3.3900 C   0  0  1  0  0  0  0  0  0  0  0  0
   -0.0650   15.7160   -3.9530 C   0  0  0  0  0  0  0  0  0  0  0  0
    0.2790   12.1080   -2.9780 C   0  0  0  0  0  0  0  0  0  0  0  0
    1.0720   13.7260   -4.7700 C   0  0  0  0  0  0  0  0  0  0  0  0
    1.1550   15.2370   -4.7750 C   0  0  0  0  0  0  0  0  0  0  0  0
    0.6830   11.6300   -1.9420 O   0  0  0  0  0  0  0  0  0  0  0  0
   -0.4020   11.3610   -3.8660 O   0  0  0  0  0  0  0  0  0  0  0  0
  1  2  2  0
  2  3  1  0
  2  4  1  0
  3  5  1  0
  4  6  1  0
  5  7  2  0
  6  7  1  0
  6  8  1  1
  8  9  2  0
  8 10  1  0
 11  9  1  1
  9 12  1  0
 10 13  1  0
 12 13  2  0
 11 14  1  0
 11 15  1  0
 14 16  1  6
 14 17  1  0
 15 18  1  0
 17 18  1  0
 16 19  2  0
 16 20  1  0
M  END
