x0844_0_A-x0685_0_A
     RDKit          3D

 12 12  0  0  0  0  0  0  0  0999 V2000
   -7.5980   14.7780   -0.0640 O   0  0  0  0  0  0  0  0  0  0  0  0
   -6.3750   14.8330    0.0430 C   0  0  0  0  0  0  0  0  0  0  0  0
   -5.6230   14.7730    1.2410 N   0  0  0  0  0  0  0  0  0  0  0  0
   -5.5770   14.9760   -1.2050 C   0  0  0  0  0  0  0  0  0  0  0  0
   -6.2620   14.9730    2.4930 N   0  0  0  0  0  0  0  0  0  0  0  0
   -4.2510   14.8950    1.2510 C   0  0  0  0  0  0  0  0  0  0  0  0
   -4.2390   15.0670   -1.1570 C   0  0  0  0  0  0  0  0  0  0  0  0
   -3.4910   15.1820   -2.3660 C   0  0  0  0  0  0  0  0  0  0  0  0
   -7.7100   14.7920    2.5430 C   0  0  0  0  0  0  0  0  0  0  0  0
   -3.5560   15.0390    0.1200 C   0  0  0  0  0  0  0  0  0  0  0  0
   -8.0940   13.3670    2.9040 C   0  0  0  0  0  0  0  0  0  0  0  0
   -2.9070   15.2650   -3.3650 N   0  0  0  0  0  0  0  0  0  0  0  0
  1  2  2  0
  2  3  1  0
  2  4  1  0
  3  5  1  0
  3  6  1  0
  4  7  2  0
  7  8  1  0
  5  9  1  0
  6 10  2  0
  7 10  1  0
  9 11  1  0
  8 12  3  0
M  END
