x0849_0_A-x0290_0_A
     RDKit          3D

 18 19  0  0  0  0  0  0  0  0999 V2000
   -2.9980   14.7670   -3.7380 Br  0  0  0  0  0  0  0  0  0  0  0  0
   -3.2630   15.1470   -1.9370 C   0  0  0  0  0  0  0  0  0  0  0  0
   -2.2730   14.8310   -0.9300 C   0  0  0  0  0  0  0  0  0  0  0  0
   -4.4130   15.7100   -1.6130 C   0  0  0  0  0  0  0  0  0  0  0  0
   -2.9860   14.7120    0.3710 C   0  0  2  0  0  0  0  0  0  0  0  0
   -4.6260   16.0640   -0.2400 C   0  0  0  0  0  0  0  0  0  0  0  0
   -0.9550   14.6250   -1.0330 C   0  0  0  0  0  0  0  0  0  0  0  0
   -0.1340   14.7020   -2.2860 C   0  0  0  0  0  0  0  0  0  0  0  0
   -3.9930   15.6760    0.7530 N   0  0  0  0  0  0  0  0  0  0  0  0
   -2.2460   14.4130    1.4900 N   0  0  0  0  0  0  0  0  0  0  0  0
   -0.2270   14.2560    0.1780 C   0  0  0  0  0  0  0  0  0  0  0  0
   -3.3420   13.7040    2.0830 N   0  0  0  0  0  0  0  0  0  0  0  0
   -0.8730   14.1480    1.3680 C   0  0  0  0  0  0  0  0  0  0  0  0
   -4.5540   13.5840    1.2900 C   0  0  0  0  0  0  0  0  0  0  0  0
   -4.6370   13.3100    0.0890 O   0  0  0  0  0  0  0  0  0  0  0  0
   -5.8860   13.8390    2.0420 C   0  0  0  0  0  0  0  0  0  0  0  0
   -7.0880   13.5580    1.1800 N   0  0  0  0  0  0  0  0  0  0  0  0
   -8.0530   14.6630    1.1420 C   0  0  0  0  0  0  0  0  0  0  0  0
  1  2  1  0
  2  3  1  0
  2  4  2  0
  3  5  1  0
  4  6  1  0
  3  7  2  0
  7  8  1  0
  5  9  1  1
  6  9  2  0
  5 10  1  0
  7 11  1  0
 10 12  1  0
 10 13  1  0
 11 13  2  0
 12 14  1  0
 14 15  2  0
 14 16  1  0
 16 17  1  0
 17 18  1  0
M  END
