x0844_0_A_α-x0849_0_A_α
     RDKit          3D

 13 14  0  0  0  0  0  0  0  0999 V2000
   -7.2620   14.6020    0.2990 O   0  0  0  0  0  0  0  0  0  0  0  0
   -6.0810   14.9230    0.1630 C   0  0  0  0  0  0  0  0  0  0  0  0
   -5.2390   15.1510    1.2070 N   0  0  0  0  0  0  0  0  0  0  0  0
   -5.4300   15.1280   -1.1710 C   0  0  0  0  0  0  0  0  0  0  0  0
   -3.9240   15.7360    1.0020 C   0  0  0  0  0  0  0  0  0  0  0  0
   -4.0230   14.5360   -1.1910 C   0  0  1  0  0  0  0  0  0  0  0  0
   -3.2690   14.8920   -2.9680 Br  0  0  0  0  0  0  0  0  0  0  0  0
   -3.0670   14.9610   -0.0390 C   0  0  1  0  0  0  0  0  0  0  0  0
   -1.7430   15.6590   -0.5700 C   0  0  0  0  0  0  0  0  0  0  0  0
   -2.6070   13.7750    0.7840 C   0  0  0  0  0  0  0  0  0  0  0  0
   -1.5820   14.1800    1.7250 N   0  0  0  0  0  0  0  0  0  0  0  0
   -0.4250   15.2770    0.0830 C   0  0  0  0  0  0  0  0  0  0  0  0
   -0.4210   14.5710    1.1920 C   0  0  0  0  0  0  0  0  0  0  0  0
  1  2  2  0
  2  3  1  0
  2  4  1  0
  3  5  1  0
  4  6  1  0
  6  7  1  6
  8  5  1  1
  6  8  1  0
  8  9  1  0
  8 10  1  0
 10 11  1  0
  9 12  1  0
 11 13  1  0
 12 13  2  0
M  END
