x0849_0_A-x0587_0_A
     RDKit          3D

 23 25  0  0  0  0  0  0  0  0999 V2000
   -3.7240   15.2710   -1.8620 O   0  0  0  0  0  0  0  0  0  0  0  0
   -4.8280   14.4240   -2.2070 C   0  0  0  0  0  0  0  0  0  0  0  0
   -5.3050   14.8620   -3.3860 F   0  0  0  0  0  0  0  0  0  0  0  0
   -3.5330   15.2640   -0.5280 C   0  0  0  0  0  0  0  0  0  0  0  0
   -4.3630   13.1590   -2.4320 F   0  0  0  0  0  0  0  0  0  0  0  0
   -2.3250   14.7350   -0.0490 C   0  0  0  0  0  0  0  0  0  0  0  0
   -4.4690   15.7300    0.3630 C   0  0  0  0  0  0  0  0  0  0  0  0
   -5.8410   14.4880   -1.0300 C   0  0  0  0  0  0  0  0  0  0  0  0
   -2.1580   14.6960    1.3330 C   0  0  0  0  0  0  0  0  0  0  0  0
   -4.1830   15.6340    1.7000 C   0  0  0  0  0  0  0  0  0  0  0  0
   -1.2780   14.2420   -0.8500 C   0  0  0  0  0  0  0  0  0  0  0  0
   -7.0750   15.0370   -1.2000 N   0  0  0  0  0  0  0  0  0  0  0  0
   -5.4450   13.9900    0.1670 N   0  0  0  0  0  0  0  0  0  0  0  0
   -3.0480   15.1190    2.1660 N   0  0  0  0  0  0  0  0  0  0  0  0
   -1.1020   14.2280    1.9010 N   0  0  0  0  0  0  0  0  0  0  0  0
   -0.1490   13.7410   -0.2330 C   0  0  0  0  0  0  0  0  0  0  0  0
   -7.8960   15.0940   -0.1190 C   0  0  0  0  0  0  0  0  0  0  0  0
   -6.3080   14.0760    1.2030 C   0  0  0  0  0  0  0  0  0  0  0  0
   -0.1380   13.7590    1.1430 C   0  0  0  0  0  0  0  0  0  0  0  0
   -7.5550   14.6300    1.1330 C   0  0  0  0  0  0  0  0  0  0  0  0
   -8.3940   14.6920    2.3430 C   0  0  0  0  0  0  0  0  0  0  0  0
   -7.7570   14.6610    3.5570 N   0  0  0  0  0  0  0  0  0  0  0  0
   -9.6130   14.7890    2.2740 O   0  0  0  0  0  0  0  0  0  0  0  0
  1  2  1  0
  2  3  1  0
  1  4  1  0
  2  5  1  0
  4  6  1  0
  4  7  2  0
  2  8  1  0
  6  9  2  0
  7 10  1  0
  6 11  1  0
  8 12  2  0
  8 13  1  0
  9 14  1  0
 10 14  2  0
  9 15  1  0
 11 16  2  0
 12 17  1  0
 13 18  2  0
 15 19  2  0
 16 19  1  0
 17 20  2  0
 18 20  1  0
 20 21  1  0
 21 22  1  0
 21 23  2  0
M  END
