x0849_0_A-x0685_1_A
     RDKit          3D

 25 27  0  0  0  0  0  0  0  0999 V2000
   -3.8530   15.1820   -2.7790 Br  0  0  0  0  0  0  0  0  0  0  0  0
   -3.7230   15.1520   -0.8860 C   0  0  0  0  0  0  0  0  0  0  0  0
   -2.5090   14.9070   -0.2520 C   0  0  0  0  0  0  0  0  0  0  0  0
   -4.8640   15.3770   -0.1430 C   0  0  0  0  0  0  0  0  0  0  0  0
   -2.4740   14.8890    1.1380 C   0  0  0  0  0  0  0  0  0  0  0  0
   -4.7130   15.3370    1.2230 C   0  0  0  0  0  0  0  0  0  0  0  0
   -1.3250   14.6820   -0.9310 C   0  0  0  0  0  0  0  0  0  0  0  0
   -3.5560   15.1030    1.8410 N   0  0  0  0  0  0  0  0  0  0  0  0
   -1.3630   14.6590    1.8060 N   0  0  0  0  0  0  0  0  0  0  0  0
   -0.1590   14.4520   -0.2570 C   0  0  0  0  0  0  0  0  0  0  0  0
    1.0240   14.2290   -1.1120 C   0  0  0  0  0  0  0  0  0  0  0  0
   -0.2350   14.4500    1.1280 C   0  0  0  0  0  0  0  0  0  0  0  0
    0.4500   13.6500   -2.2650 O   0  0  0  0  0  0  0  0  0  0  0  0
    0.9620   12.2830   -2.9160 S   0  0  0  0  0  0  0  0  0  0  0  0
    0.2590   12.3600   -4.5510 C   0  0  0  0  0  0  0  0  0  0  0  0
    2.5480   12.2930   -3.1300 O   0  0  0  0  0  0  0  0  0  0  0  0
    0.4190   10.9220   -2.2200 O   0  0  0  0  0  0  0  0  0  0  0  0
   -1.2290   12.0160   -4.5280 C   0  0  0  0  0  0  0  0  0  0  0  0
   -1.4330   10.6160   -4.9470 N   0  0  0  0  0  0  0  0  0  0  0  0
   -0.8540   10.2850   -6.2610 C   0  0  0  0  0  0  0  0  0  0  0  0
   -0.5580    8.7870   -6.4770 C   0  0  0  0  0  0  0  0  0  0  0  0
   -1.6550   10.9300   -7.4110 C   0  0  0  0  0  0  0  0  0  0  0  0
    0.1300    8.5490   -7.8130 C   0  0  0  0  0  0  0  0  0  0  0  0
   -0.9960   10.6530   -8.7580 C   0  0  0  0  0  0  0  0  0  0  0  0
   -0.6780    9.1650   -8.9570 C   0  0  0  0  0  0  0  0  0  0  0  0
  1  2  1  0
  2  3  2  0
  2  4  1  0
  3  5  1  0
  4  6  2  0
  3  7  1  0
  5  8  2  0
  6  8  1  0
  5  9  1  0
  7 10  2  0
 10 11  1  0
  9 12  2  0
 10 12  1  0
 11 13  1  0
 14 13  1  0
 14 15  1  0
 14 16  1  0
 14 17  1  0
 15 18  1  0
 18 19  1  0
 19 20  1  0
 20 21  1  0
 20 22  1  0
 21 23  1  0
 22 24  1  0
 23 25  1  0
 24 25  1  0
M  END
