x0844_0_A-x0592_0_A
     RDKit          3D

 11 11  0  0  0  0  0  0  0  0999 V2000
   -7.6710   14.6470    0.5430 N   0  0  0  0  0  0  0  0  0  0  0  0
   -8.0120   14.2190    1.9030 C   0  0  0  0  0  0  0  0  0  0  0  0
   -7.4010   15.0290    2.9040 O   0  0  0  0  0  0  0  0  0  0  0  0
   -6.4120   14.7070    0.2780 C   0  0  0  0  0  0  0  0  0  0  0  0
   -5.6060   14.3640    1.3170 N   0  0  0  0  0  0  0  0  0  0  0  0
   -5.7250   15.0980   -1.0190 C   0  0  0  0  0  0  0  0  0  0  0  0
   -4.3270   14.9690    1.5880 C   0  0  0  0  0  0  0  0  0  0  0  0
   -4.2720   14.6720   -0.9200 C   0  0  1  0  0  0  0  0  0  0  0  0
   -3.2960   14.9690   -2.6040 Br  0  0  0  0  0  0  0  0  0  0  0  0
   -3.5650   15.2940    0.2970 C   0  0  2  0  0  0  0  0  0  0  0  0
   -2.1830   14.8030    0.4160 N   0  0  0  0  0  0  0  0  0  0  0  0
  1  2  1  0
  2  3  1  0
  1  4  2  3
  4  5  1  0
  4  6  1  0
  5  7  1  0
  6  8  1  0
  8  9  1  6
  7 10  1  0
  8 10  1  0
 10 11  1  1
M  END
