x0849_0_A-x0805_0_A
     RDKit          3D

 28 31  0  0  0  0  0  0  0  0999 V2000
   -2.4900   15.9100   -2.8790 Br  0  0  0  0  0  0  0  0  0  0  0  0
   -2.8720   15.4950   -1.0400 C   0  0  0  0  0  0  0  0  0  0  0  0
   -1.8760   15.2340   -0.1820 C   0  0  0  0  0  0  0  0  0  0  0  0
   -4.1500   15.4470   -0.6300 C   0  0  0  0  0  0  0  0  0  0  0  0
   -4.9810   15.6550   -1.6650 N   0  0  0  0  0  0  0  0  0  0  0  0
   -2.2240   14.9270    1.1330 C   0  0  0  0  0  0  0  0  0  0  0  0
   -4.4340   15.1690    0.6900 C   0  0  0  0  0  0  0  0  0  0  0  0
   -0.5620   15.2550   -0.5860 C   0  0  0  0  0  0  0  0  0  0  0  0
   -6.3570   15.4510   -1.2310 C   0  0  0  0  0  0  0  0  0  0  0  0
   -3.4730   14.9100    1.5810 N   0  0  0  0  0  0  0  0  0  0  0  0
   -1.3030   14.6300    1.9890 N   0  0  0  0  0  0  0  0  0  0  0  0
    0.3860   14.9490    0.3000 C   0  0  0  0  0  0  0  0  0  0  0  0
   -4.3510   14.6900   -2.5250 C   0  0  0  0  0  0  0  0  0  0  0  0
   -0.0360   14.6330    1.5720 C   0  0  0  0  0  0  0  0  0  0  0  0
   -4.9220   13.6420   -3.2200 C   0  0  0  0  0  0  0  0  0  0  0  0
   -2.9300   14.8200   -2.6570 C   0  0  0  0  0  0  0  0  0  0  0  0
   -4.1170   12.7840   -3.9950 C   0  0  0  0  0  0  0  0  0  0  0  0
   -2.0880   13.9820   -3.4230 C   0  0  0  0  0  0  0  0  0  0  0  0
   -2.7200   12.9450   -4.0990 C   0  0  0  0  0  0  0  0  0  0  0  0
   -0.5680   14.3200   -3.4240 C   0  0  1  0  0  0  0  0  0  0  0  0
    0.4930   13.2020   -3.3320 C   0  0  1  0  0  0  0  0  0  0  0  0
   -0.1180   15.2690   -4.5440 C   0  0  0  0  0  0  0  0  0  0  0  0
    0.2350   12.0460   -2.4180 C   0  0  0  0  0  0  0  0  0  0  0  0
    1.0830   12.8730   -4.6900 C   0  0  0  0  0  0  0  0  0  0  0  0
    1.4010   15.2620   -4.7100 C   0  0  0  0  0  0  0  0  0  0  0  0
    0.0890   10.8580   -3.0380 O   0  0  0  0  0  0  0  0  0  0  0  0
    0.1660   12.1490   -1.2150 O   0  0  0  0  0  0  0  0  0  0  0  0
    1.8600   13.9820   -5.1560 O   0  0  0  0  0  0  0  0  0  0  0  0
  1  2  1  0
  2  3  2  0
  2  4  1  0
  4  5  1  0
  3  6  1  0
  4  7  2  0
  3  8  1  0
  5  9  1  0
  6 10  2  0
  7 10  1  0
  6 11  1  0
  8 12  2  0
  5 13  1  0
 11 14  2  0
 12 14  1  0
 13 15  2  0
 13 16  1  0
 15 17  1  0
 16 18  2  0
 17 19  2  0
 18 19  1  0
 20 18  1  6
 20 21  1  0
 20 22  1  0
 21 23  1  6
 21 24  1  0
 22 25  1  0
 23 26  1  0
 23 27  2  0
 24 28  1  0
 25 28  1  0
M  END
