x0849_0_A-x0910_0_A
     RDKit          3D

 11 12  0  0  0  0  0  0  0  0999 V2000
   -3.4290   15.1250   -2.9620 Br  0  0  0  0  0  0  0  0  0  0  0  0
   -3.4210   15.0780   -1.0630 C   0  0  0  0  0  0  0  0  0  0  0  0
   -2.2520   14.8220   -0.3140 C   0  0  0  0  0  0  0  0  0  0  0  0
   -4.6310   15.3080   -0.4310 C   0  0  0  0  0  0  0  0  0  0  0  0
   -2.3940   14.8080    1.0750 C   0  0  0  0  0  0  0  0  0  0  0  0
   -4.6330   15.2700    0.9380 C   0  0  0  0  0  0  0  0  0  0  0  0
   -0.9630   14.5860   -0.8420 C   0  0  0  0  0  0  0  0  0  0  0  0
   -3.5460   15.0270    1.6680 N   0  0  0  0  0  0  0  0  0  0  0  0
   -1.3870   14.5730    1.8780 N   0  0  0  0  0  0  0  0  0  0  0  0
    0.0930   14.3510    0.0150 C   0  0  0  0  0  0  0  0  0  0  0  0
   -0.1840   14.3550    1.3650 C   0  0  0  0  0  0  0  0  0  0  0  0
  1  2  1  0
  2  3  2  0
  2  4  1  0
  3  5  1  0
  4  6  2  0
  3  7  1  0
  5  8  2  0
  6  8  1  0
  5  9  1  0
  7 10  2  0
  9 11  2  0
 10 11  1  0
M  END
