x0844_0_A-x0626_0_A
     RDKit          3D

 18 19  0  0  0  0  0  0  0  0999 V2000
   -7.3380   14.3960   -0.2430 N   0  0  0  0  0  0  0  0  0  0  0  0
   -7.2320   14.1990    1.1840 C   0  0  0  0  0  0  0  0  0  0  0  0
   -5.8660   13.5040    1.1390 C   0  0  0  0  0  0  0  0  0  0  0  0
   -6.2570   14.9680   -0.6290 C   0  0  0  0  0  0  0  0  0  0  0  0
   -5.4000   15.3410    0.3740 N   0  0  0  0  0  0  0  0  0  0  0  0
   -5.7810   15.2690   -2.0300 C   0  0  0  0  0  0  0  0  0  0  0  0
   -4.7380   13.9720    1.7470 N   0  0  0  0  0  0  0  0  0  0  0  0
   -5.7620   12.4770    0.4630 O   0  0  0  0  0  0  0  0  0  0  0  0
   -4.1570   15.8580    0.2190 C   0  0  0  0  0  0  0  0  0  0  0  0
   -4.2600   15.0070   -2.0370 C   0  0  1  0  0  0  0  0  0  0  0  0
   -3.3220   15.3400   -3.7290 Br  0  0  0  0  0  0  0  0  0  0  0  0
   -3.5300   15.7300   -0.9470 C   0  0  0  0  0  0  0  0  0  0  0  0
   -3.4840   14.0610    1.2060 C   0  0  0  0  0  0  0  0  0  0  0  0
   -2.3660   14.6110    1.6490 N   0  0  0  0  0  0  0  0  0  0  0  0
   -3.3980   13.3130   -0.3230 S   0  0  0  0  0  0  0  0  0  0  0  0
   -1.7510   13.7510   -0.4360 C   0  0  0  0  0  0  0  0  0  0  0  0
   -1.3740   14.4290    0.6980 C   0  0  0  0  0  0  0  0  0  0  0  0
   -0.0260   14.9550    0.9550 C   0  0  0  0  0  0  0  0  0  0  0  0
  1  2  1  0
  2  3  1  0
  1  4  2  3
  4  5  1  0
  4  6  1  0
  3  7  1  0
  3  8  2  0
  5  9  1  0
  6 10  1  0
 10 11  1  6
  9 12  2  0
 10 12  1  0
  7 13  1  0
 13 14  2  0
 13 15  1  0
 15 16  1  0
 14 17  1  0
 16 17  2  0
 17 18  1  0
M  END
