x0844_0_A-x0685_1_A
     RDKit          3D

 23 24  0  0  0  0  0  0  0  0999 V2000
   -7.4750   14.9110   -0.1910 O   0  0  0  0  0  0  0  0  0  0  0  0
   -6.2470   14.8170   -0.2220 C   0  0  0  0  0  0  0  0  0  0  0  0
   -5.5180   14.8450    0.9410 N   0  0  0  0  0  0  0  0  0  0  0  0
   -5.4810   14.6580   -1.5210 C   0  0  0  0  0  0  0  0  0  0  0  0
   -4.1560   14.8880    0.9940 C   0  0  0  0  0  0  0  0  0  0  0  0
   -4.0500   15.1970   -1.4710 C   0  0  2  0  0  0  0  0  0  0  0  0
   -3.1670   14.5650   -2.4480 O   0  0  0  0  0  0  0  0  0  0  0  0
   -3.4260   15.0470   -0.1110 C   0  0  0  0  0  0  0  0  0  0  0  0
   -3.7130   13.5200   -3.2910 C   0  0  0  0  0  0  0  0  0  0  0  0
   -2.7620   13.0940   -4.4450 C   0  0  0  0  0  0  0  0  0  0  0  0
   -1.7240   11.9940   -4.0760 C   0  0  1  0  0  0  0  0  0  0  0  0
   -1.8020   10.6460   -4.7160 N   0  0  0  0  0  0  0  0  0  0  0  0
   -0.2780   12.4970   -4.1010 C   0  0  0  0  0  0  0  0  0  0  0  0
    0.6720   12.0040   -2.6600 S   0  0  0  0  0  0  0  0  0  0  0  0
   -1.6280   10.2820   -6.1420 C   0  0  0  0  0  0  0  0  0  0  0  0
    2.2040   12.3390   -2.9790 O   0  0  0  0  0  0  0  0  0  0  0  0
    0.4560   10.4210   -2.4990 O   0  0  0  0  0  0  0  0  0  0  0  0
    0.1960   12.7430   -1.3200 O   0  0  0  0  0  0  0  0  0  0  0  0
   -0.7750    8.9970   -6.2620 C   0  0  0  0  0  0  0  0  0  0  0  0
   -1.0470   11.3830   -7.0420 C   0  0  0  0  0  0  0  0  0  0  0  0
   -0.0320    8.8730   -7.5970 C   0  0  0  0  0  0  0  0  0  0  0  0
   -1.0560   10.9850   -8.5300 C   0  0  0  0  0  0  0  0  0  0  0  0
   -0.8530    9.4830   -8.7300 C   0  0  0  0  0  0  0  0  0  0  0  0
  1  2  2  0
  2  3  1  0
  2  4  1  0
  3  5  1  0
  4  6  1  0
  6  7  1  6
  5  8  2  0
  6  8  1  0
  7  9  1  0
  9 10  1  0
 11 10  1  6
 11 12  1  0
 11 13  1  0
 13 14  1  0
 12 15  1  0
 14 16  1  0
 14 17  1  0
 14 18  1  0
 15 19  1  0
 15 20  1  0
 19 21  1  0
 20 22  1  0
 21 23  1  0
 22 23  1  0
M  END
