x0849_0_A_α-x0628_0_A_α
     RDKit          3D

 24 26  0  0  0  0  0  0  0  0999 V2000
   -3.8970   15.1760   -2.7740 Br  0  0  0  0  0  0  0  0  0  0  0  0
   -3.7220   15.1540   -0.8880 C   0  0  0  0  0  0  0  0  0  0  0  0
   -2.4920   14.8990   -0.2820 C   0  0  0  0  0  0  0  0  0  0  0  0
   -4.8410   15.3950   -0.1190 C   0  0  0  0  0  0  0  0  0  0  0  0
   -2.4340   14.8920    1.1060 C   0  0  0  0  0  0  0  0  0  0  0  0
   -4.6660   15.3630    1.2410 C   0  0  0  0  0  0  0  0  0  0  0  0
   -1.3200   14.6560   -0.9930 C   0  0  0  0  0  0  0  0  0  0  0  0
   -3.4950   15.1190    1.8360 N   0  0  0  0  0  0  0  0  0  0  0  0
   -1.3160   14.6580    1.7500 N   0  0  0  0  0  0  0  0  0  0  0  0
   -0.1390   14.4190   -0.3460 C   0  0  0  0  0  0  0  0  0  0  0  0
    1.0560   14.1780   -1.2140 C   0  0  0  0  0  0  0  0  0  0  0  0
   -0.2050   14.4310    1.0470 C   0  0  0  0  0  0  0  0  0  0  0  0
    0.5060   13.6390   -2.4240 O   0  0  0  0  0  0  0  0  0  0  0  0
    1.0160   12.5240   -2.9980 C   0  0  0  0  0  0  0  0  0  0  0  0
    0.9230   11.3770   -2.5760 O   0  0  0  0  0  0  0  0  0  0  0  0
    1.6850   12.9330   -4.2820 C   0  0  0  0  0  0  0  0  0  0  0  0
    0.6340   13.1470   -5.3630 C   0  0  0  0  0  0  0  0  0  0  0  0
   -0.2110   11.9850   -5.6020 N   0  0  0  0  0  0  0  0  0  0  0  0
    0.1730   11.0780   -6.5130 N   0  0  0  0  0  0  0  0  0  0  0  0
   -1.4060   11.6340   -5.0240 C   0  0  0  0  0  0  0  0  0  0  0  0
   -2.1110   12.4150   -3.9850 C   0  0  0  0  0  0  0  0  0  0  0  0
   -1.8050   10.4930   -5.5560 N   0  0  0  0  0  0  0  0  0  0  0  0
   -0.8200   10.1880   -6.4530 C   0  0  0  0  0  0  0  0  0  0  0  0
   -0.8420    8.9730   -7.2890 C   0  0  0  0  0  0  0  0  0  0  0  0
  1  2  1  0
  2  3  2  0
  2  4  1  0
  3  5  1  0
  4  6  2  0
  3  7  1  0
  5  8  2  0
  6  8  1  0
  5  9  1  0
  7 10  2  0
 10 11  1  0
  9 12  2  0
 10 12  1  0
 11 13  1  0
 13 14  1  0
 14 15  2  0
 14 16  1  0
 16 17  1  0
 17 18  1  0
 18 19  1  0
 18 20  1  0
 20 21  1  0
 20 22  2  0
 19 23  2  0
 22 23  1  0
 23 24  1  0
M  END
