x0844_0_A-x0950_0_A
     RDKit          3D

 17 17  0  0  0  0  0  0  0  0999 V2000
   -7.4950   14.8840   -0.2950 O   0  0  0  0  0  0  0  0  0  0  0  0
   -6.2730   14.9530   -0.1630 C   0  0  0  0  0  0  0  0  0  0  0  0
   -5.6880   14.8870    1.0820 N   0  0  0  0  0  0  0  0  0  0  0  0
   -5.3200   15.1220   -1.3290 C   0  0  0  0  0  0  0  0  0  0  0  0
   -4.3900   15.2300    1.3220 C   0  0  0  0  0  0  0  0  0  0  0  0
   -3.9380   14.5720   -0.9770 C   0  0  1  0  0  0  0  0  0  0  0  0
   -2.9040   14.8630   -1.9280 O   0  0  0  0  0  0  0  0  0  0  0  0
   -3.4990   15.0950    0.3490 C   0  0  0  0  0  0  0  0  0  0  0  0
   -1.8490   13.8930   -1.8480 C   0  0  0  0  0  0  0  0  0  0  0  0
   -0.5120   14.4620   -2.3350 C   0  0  0  0  0  0  0  0  0  0  0  0
    0.7090   13.9210   -1.5750 C   0  0  0  0  0  0  0  0  0  0  0  0
    0.7410   12.4890   -1.6050 O   0  0  0  0  0  0  0  0  0  0  0  0
    0.8110   11.8860   -2.8340 C   0  0  0  0  0  0  0  0  0  0  0  0
    1.4940   12.7140   -3.9500 C   0  0  1  0  0  0  0  0  0  0  0  0
    0.3700   10.7660   -3.0390 O   0  0  0  0  0  0  0  0  0  0  0  0
    2.9880   12.4600   -4.0690 C   0  0  0  0  0  0  0  0  0  0  0  0
    0.9090   12.3860   -5.2190 O   0  0  0  0  0  0  0  0  0  0  0  0
  1  2  2  0
  2  3  1  0
  2  4  1  0
  3  5  1  0
  4  6  1  0
  6  7  1  6
  5  8  2  0
  6  8  1  0
  7  9  1  0
  9 10  1  0
 10 11  1  0
 11 12  1  0
 12 13  1  0
 13 14  1  0
 13 15  2  0
 14 16  1  6
 14 17  1  0
M  END
