x0849_0_A-x0855_0_A
     RDKit          3D

 22 24  0  0  0  0  0  0  0  0999 V2000
   -3.8380   15.2440   -2.8290 Br  0  0  0  0  0  0  0  0  0  0  0  0
   -3.6540   15.1990   -0.9420 C   0  0  0  0  0  0  0  0  0  0  0  0
   -2.4490   14.8140   -0.3580 C   0  0  0  0  0  0  0  0  0  0  0  0
   -4.7370   15.5490   -0.1660 C   0  0  0  0  0  0  0  0  0  0  0  0
   -2.3850   14.7950    1.0370 C   0  0  0  0  0  0  0  0  0  0  0  0
   -4.5560   15.4870    1.1940 C   0  0  0  0  0  0  0  0  0  0  0  0
   -1.3180   14.4480   -1.0940 C   0  0  0  0  0  0  0  0  0  0  0  0
   -3.4120   15.1220    1.7760 N   0  0  0  0  0  0  0  0  0  0  0  0
   -1.2920   14.4440    1.6710 N   0  0  0  0  0  0  0  0  0  0  0  0
   -0.1700   14.0630   -0.4540 C   0  0  0  0  0  0  0  0  0  0  0  0
    1.0230   13.6390   -1.2640 C   0  0  0  0  0  0  0  0  0  0  0  0
   -0.2270   14.0840    0.9450 C   0  0  0  0  0  0  0  0  0  0  0  0
    0.8120   13.6900   -2.6780 O   0  0  0  0  0  0  0  0  0  0  0  0
    0.7800   12.4680   -3.3100 C   0  0  0  0  0  0  0  0  0  0  0  0
    0.8630   11.3830   -2.7420 O   0  0  0  0  0  0  0  0  0  0  0  0
    0.6090   12.6550   -4.7900 C   0  0  0  0  0  0  0  0  0  0  0  0
   -0.4080   11.7430   -5.2490 N   0  0  0  0  0  0  0  0  0  0  0  0
   -0.2860   10.7650   -6.1910 C   0  0  0  0  0  0  0  0  0  0  0  0
   -1.6460   11.8180   -4.7080 N   0  0  0  0  0  0  0  0  0  0  0  0
   -1.5160   10.1700   -6.2530 C   0  0  0  0  0  0  0  0  0  0  0  0
   -2.3210   10.8470   -5.3300 C   0  0  0  0  0  0  0  0  0  0  0  0
   -2.0560    8.7480   -7.3250 Br  0  0  0  0  0  0  0  0  0  0  0  0
  1  2  1  0
  2  3  2  0
  2  4  1  0
  3  5  1  0
  4  6  2  0
  3  7  1  0
  5  8  2  0
  6  8  1  0
  5  9  1  0
  7 10  2  0
 10 11  1  0
  9 12  2  0
 10 12  1  0
 11 13  1  0
 13 14  1  0
 14 15  2  0
 14 16  1  0
 16 17  1  0
 17 18  1  0
 17 19  1  0
 18 20  2  0
 19 21  2  0
 20 21  1  0
 20 22  1  0
M  END
