x0844_0_A-x1015_0_A
     RDKit          3D

 24 26  0  0  0  0  0  0  0  0999 V2000
   -7.5410   14.7990   -0.0610 O   0  0  0  0  0  0  0  0  0  0  0  0
   -6.3140   14.8700   -0.1190 C   0  0  0  0  0  0  0  0  0  0  0  0
   -5.5670   14.8240    1.0310 N   0  0  0  0  0  0  0  0  0  0  0  0
   -5.5890   15.0090   -1.4380 C   0  0  0  0  0  0  0  0  0  0  0  0
   -4.2110   14.9280    1.0890 C   0  0  0  0  0  0  0  0  0  0  0  0
   -4.0820   15.2610   -1.3690 C   0  0  2  0  0  0  0  0  0  0  0  0
   -3.3700   14.3630   -2.2410 O   0  0  0  0  0  0  0  0  0  0  0  0
   -3.4830   15.1260    0.0000 C   0  0  0  0  0  0  0  0  0  0  0  0
   -2.2740   14.9710   -2.9320 C   0  0  0  0  0  0  0  0  0  0  0  0
   -1.7510   14.0220   -4.0130 C   0  0  0  0  0  0  0  0  0  0  0  0
   -0.2590   13.6640   -3.8850 C   0  0  2  0  0  0  0  0  0  0  0  0
   -0.0380   12.2170   -3.9390 N   0  0  0  0  0  0  0  0  0  0  0  0
    0.2900   13.9500   -2.4910 C   0  0  0  0  0  0  0  0  0  0  0  0
    0.4600   15.0560   -1.9940 O   0  0  0  0  0  0  0  0  0  0  0  0
    0.2880   11.7190   -2.6650 C   0  0  0  0  0  0  0  0  0  0  0  0
    0.5780   12.7860   -1.8690 N   0  0  0  0  0  0  0  0  0  0  0  0
   -0.4550   11.4250   -5.0390 C   0  0  0  0  0  0  0  0  0  0  0  0
    0.3270   10.5510   -2.2720 O   0  0  0  0  0  0  0  0  0  0  0  0
    0.0940   11.6220   -6.3160 C   0  0  0  0  0  0  0  0  0  0  0  0
   -1.4210   10.4200   -4.8910 C   0  0  0  0  0  0  0  0  0  0  0  0
   -0.3110   10.8430   -7.4070 C   0  0  0  0  0  0  0  0  0  0  0  0
   -1.8290    9.6380   -5.9780 C   0  0  0  0  0  0  0  0  0  0  0  0
   -1.2710    9.8540   -7.2290 C   0  0  0  0  0  0  0  0  0  0  0  0
   -1.7760    8.8950   -8.5650 Cl  0  0  0  0  0  0  0  0  0  0  0  0
  1  2  2  0
  2  3  1  0
  2  4  1  0
  3  5  1  0
  4  6  1  0
  6  7  1  6
  5  8  2  0
  6  8  1  0
  7  9  1  0
  9 10  1  0
 11 10  1  1
 11 12  1  0
 11 13  1  0
 13 14  2  0
 12 15  1  0
 13 16  1  0
 15 16  1  0
 12 17  1  0
 15 18  2  0
 17 19  2  0
 17 20  1  0
 19 21  1  0
 20 22  2  0
 21 23  2  0
 22 23  1  0
 23 24  1  0
M  END
