x0849_0_A-x0591_0_A
     RDKit          3D

 25 27  0  0  0  0  0  0  0  0999 V2000
   -2.4830   16.0070   -2.8960 Br  0  0  0  0  0  0  0  0  0  0  0  0
   -2.9310   15.5240   -1.1270 C   0  0  0  0  0  0  0  0  0  0  0  0
   -1.9530   15.2080   -0.2500 C   0  0  0  0  0  0  0  0  0  0  0  0
   -4.2280   15.4710   -0.7540 C   0  0  0  0  0  0  0  0  0  0  0  0
   -2.3180   14.8290    1.0380 C   0  0  0  0  0  0  0  0  0  0  0  0
   -4.5420   15.0770    0.5080 C   0  0  0  0  0  0  0  0  0  0  0  0
   -0.6190   15.2530   -0.6250 C   0  0  0  0  0  0  0  0  0  0  0  0
   -5.9210   14.9870    0.7300 N   0  0  0  0  0  0  0  0  0  0  0  0
   -3.5940   14.7670    1.4220 N   0  0  0  0  0  0  0  0  0  0  0  0
   -1.3970   14.5050    1.9150 N   0  0  0  0  0  0  0  0  0  0  0  0
    0.3200   14.9170    0.2760 C   0  0  0  0  0  0  0  0  0  0  0  0
   -6.3590   14.4820    2.0280 C   0  0  0  0  0  0  0  0  0  0  0  0
   -6.5050   14.5780   -0.4700 C   0  0  0  0  0  0  0  0  0  0  0  0
   -0.1130   14.5460    1.5310 C   0  0  0  0  0  0  0  0  0  0  0  0
   -7.6900   14.3670   -0.6950 O   0  0  0  0  0  0  0  0  0  0  0  0
   -5.5190   14.4020   -1.6100 C   0  0  0  0  0  0  0  0  0  0  0  0
   -4.2780   13.7230   -1.4410 C   0  0  0  0  0  0  0  0  0  0  0  0
   -5.8180   14.9270   -2.8690 C   0  0  0  0  0  0  0  0  0  0  0  0
   -3.3660   13.6000   -2.5130 C   0  0  0  0  0  0  0  0  0  0  0  0
   -4.9080   14.7960   -3.9320 C   0  0  0  0  0  0  0  0  0  0  0  0
   -3.6890   14.1500   -3.7610 C   0  0  0  0  0  0  0  0  0  0  0  0
   -2.5900   14.0650   -5.1820 S   0  0  0  0  0  0  0  0  0  0  0  0
   -1.2740   15.0620   -4.8230 N   0  0  0  0  0  0  0  0  0  0  0  0
   -2.0770   12.7250   -5.2810 O   0  0  0  0  0  0  0  0  0  0  0  0
   -3.2390   14.7380   -6.2870 O   0  0  0  0  0  0  0  0  0  0  0  0
  1  2  1  0
  2  3  2  0
  2  4  1  0
  3  5  1  0
  4  6  2  0
  3  7  1  0
  6  8  1  0
  5  9  2  0
  6  9  1  0
  5 10  1  0
  7 11  2  0
  8 12  1  0
  8 13  1  0
 10 14  2  0
 11 14  1  0
 13 15  2  0
 13 16  1  0
 16 17  2  0
 16 18  1  0
 17 19  1  0
 18 20  2  0
 19 21  2  0
 20 21  1  0
 21 22  1  0
 22 23  1  0
 22 24  2  0
 22 25  2  0
M  END
