x0844_0_A-x1018_0_A
     RDKit          3D

 11 12  0  0  0  0  0  0  0  0999 V2000
   -7.3570   15.1380   -0.4200 O   0  0  0  0  0  0  0  0  0  0  0  0
   -6.2220   14.8480   -0.0630 C   0  0  0  0  0  0  0  0  0  0  0  0
   -5.6800   15.0370    1.2010 N   0  0  0  0  0  0  0  0  0  0  0  0
   -5.1420   14.1710   -0.8750 C   0  0  2  0  0  0  0  0  0  0  0  0
   -4.2590   15.2870    1.1130 C   0  0  0  0  0  0  0  0  0  0  0  0
   -3.8780   14.6270   -0.2020 C   0  0  2  0  0  0  0  0  0  0  0  0
   -4.9180   14.5760   -2.2440 N   0  0  0  0  0  0  0  0  0  0  0  0
   -2.8640   15.7920   -1.4200 Br  0  0  0  0  0  0  0  0  0  0  0  0
   -3.0470   13.4100   -0.2230 C   0  0  0  0  0  0  0  0  0  0  0  0
   -3.5930   14.0840   -2.5950 N   0  0  0  0  0  0  0  0  0  0  0  0
   -2.8210   13.2140   -1.6740 N   0  0  0  0  0  0  0  0  0  0  0  0
  1  2  2  0
  2  3  1  0
  2  4  1  0
  3  5  1  0
  4  6  1  0
  5  6  1  0
  4  7  1  6
  6  8  1  6
  6  9  1  0
  7 10  1  0
  9 11  1  0
 10 11  1  0
M  END
