x0849_0_A-x0962_0_A
     RDKit          3D

 12 13  0  0  0  0  0  0  0  0999 V2000
   -3.4560   15.2940   -2.2490 C   0  0  0  0  0  0  0  0  0  0  0  0
   -3.4080   15.3680   -3.4180 C   0  0  0  0  0  0  0  0  0  0  0  0
   -3.4700   15.1830   -0.8420 C   0  0  0  0  0  0  0  0  0  0  0  0
   -2.2980   14.8590   -0.1440 C   0  0  0  0  0  0  0  0  0  0  0  0
   -4.6610   15.3990   -0.1710 C   0  0  0  0  0  0  0  0  0  0  0  0
   -2.4010   14.7650    1.2380 C   0  0  0  0  0  0  0  0  0  0  0  0
   -4.6340   15.2760    1.1920 C   0  0  0  0  0  0  0  0  0  0  0  0
   -1.0360   14.6270   -0.7360 C   0  0  0  0  0  0  0  0  0  0  0  0
   -3.5340   14.9670    1.8760 N   0  0  0  0  0  0  0  0  0  0  0  0
   -1.3710   14.4690    1.9820 N   0  0  0  0  0  0  0  0  0  0  0  0
    0.0450   14.3190    0.0650 C   0  0  0  0  0  0  0  0  0  0  0  0
   -0.1900   14.2540    1.4190 C   0  0  0  0  0  0  0  0  0  0  0  0
  1  2  3  0
  1  3  1  0
  3  4  2  0
  3  5  1  0
  4  6  1  0
  5  7  2  0
  4  8  1  0
  6  9  2  0
  7  9  1  0
  6 10  1  0
  8 11  2  0
 10 12  2  0
 11 12  1  0
M  END
