x0849_0_A-x0910_1_A
     RDKit          3D

 16 18  0  0  0  0  0  0  0  0999 V2000
   -3.5820   15.1200   -2.6450 Br  0  0  0  0  0  0  0  0  0  0  0  0
   -3.6460   14.3590   -0.8100 C   0  0  1  0  0  0  0  0  0  0  0  0
   -2.2790   14.5210   -0.2120 C   0  0  0  0  0  0  0  0  0  0  0  0
   -4.8130   14.9810    0.0390 C   0  0  1  0  0  0  0  0  0  0  0  0
   -2.1960   14.7720    1.1330 C   0  0  0  0  0  0  0  0  0  0  0  0
   -4.2480   15.7510    1.2680 C   0  0  0  0  0  0  0  0  0  0  0  0
   -1.0860   14.4360   -0.9450 C   0  0  0  0  0  0  0  0  0  0  0  0
   -5.7690   15.7700   -0.7580 N   0  0  0  0  0  0  0  0  0  0  0  0
   -5.6260   13.9110    0.6580 N   0  0  0  0  0  0  0  0  0  0  0  0
   -3.2930   14.8940    1.9080 N   0  0  0  0  0  0  0  0  0  0  0  0
   -1.0890   14.9320    1.7730 N   0  0  0  0  0  0  0  0  0  0  0  0
    0.1100   14.6180   -0.2720 C   0  0  0  0  0  0  0  0  0  0  0  0
   -6.9240   14.4780    0.7350 C   0  0  1  0  0  0  0  0  0  0  0  0
   -7.0730   15.1300   -0.5360 N   0  0  0  0  0  0  0  0  0  0  0  0
   -7.8590   13.4120    0.7610 N   0  0  0  0  0  0  0  0  0  0  0  0
    0.0240   14.8660    1.0770 C   0  0  0  0  0  0  0  0  0  0  0  0
  2  1  1  6
  2  3  1  0
  2  4  1  0
  3  5  2  0
  4  6  1  1
  3  7  1  0
  4  8  1  0
  4  9  1  0
  5 10  1  0
  6 10  1  0
  5 11  1  0
  7 12  2  0
  9 13  1  0
  8 14  1  0
 13 14  1  0
 13 15  1  6
 11 16  2  0
 12 16  1  0
M  END
