x0849_0_A-x0685_1_A
     RDKit          3D

 25 27  0  0  0  0  0  0  0  0999 V2000
   -3.8430   15.2000   -2.7770 Br  0  0  0  0  0  0  0  0  0  0  0  0
   -3.7160   15.1600   -0.8830 C   0  0  0  0  0  0  0  0  0  0  0  0
   -2.5030   14.9070   -0.2470 C   0  0  0  0  0  0  0  0  0  0  0  0
   -4.8540   15.3860   -0.1410 C   0  0  0  0  0  0  0  0  0  0  0  0
   -2.4700   14.8810    1.1400 C   0  0  0  0  0  0  0  0  0  0  0  0
   -4.7070   15.3380    1.2240 C   0  0  0  0  0  0  0  0  0  0  0  0
   -1.3220   14.6830   -0.9250 C   0  0  0  0  0  0  0  0  0  0  0  0
   -3.5510   15.0950    1.8430 N   0  0  0  0  0  0  0  0  0  0  0  0
   -1.3590   14.6440    1.8100 N   0  0  0  0  0  0  0  0  0  0  0  0
   -0.1550   14.4460   -0.2550 C   0  0  0  0  0  0  0  0  0  0  0  0
    1.0270   14.2270   -1.1120 C   0  0  0  0  0  0  0  0  0  0  0  0
   -0.2310   14.4360    1.1330 C   0  0  0  0  0  0  0  0  0  0  0  0
    0.4560   13.6540   -2.2710 O   0  0  0  0  0  0  0  0  0  0  0  0
    0.9610   12.2830   -2.9140 S   0  0  0  0  0  0  0  0  0  0  0  0
    0.2570   12.3590   -4.5500 C   0  0  0  0  0  0  0  0  0  0  0  0
    2.5470   12.2880   -3.1380 O   0  0  0  0  0  0  0  0  0  0  0  0
    0.4220   10.9210   -2.2140 O   0  0  0  0  0  0  0  0  0  0  0  0
   -1.2330   12.0170   -4.5300 C   0  0  0  0  0  0  0  0  0  0  0  0
   -1.4280   10.6160   -4.9500 N   0  0  0  0  0  0  0  0  0  0  0  0
   -0.8500   10.2880   -6.2620 C   0  0  0  0  0  0  0  0  0  0  0  0
   -0.5590    8.7920   -6.4790 C   0  0  0  0  0  0  0  0  0  0  0  0
   -1.6530   10.9320   -7.4130 C   0  0  0  0  0  0  0  0  0  0  0  0
    0.1290    8.5480   -7.8120 C   0  0  0  0  0  0  0  0  0  0  0  0
   -0.9960   10.6520   -8.7600 C   0  0  0  0  0  0  0  0  0  0  0  0
   -0.6780    9.1660   -8.9590 C   0  0  0  0  0  0  0  0  0  0  0  0
  1  2  1  0
  2  3  2  0
  2  4  1  0
  3  5  1  0
  4  6  2  0
  3  7  1  0
  5  8  2  0
  6  8  1  0
  5  9  1  0
  7 10  2  0
 10 11  1  0
  9 12  2  0
 10 12  1  0
 11 13  1  0
 14 13  1  0
 14 15  1  0
 14 16  1  0
 14 17  1  0
 15 18  1  0
 18 19  1  0
 19 20  1  0
 20 21  1  0
 20 22  1  0
 21 23  1  0
 22 24  1  0
 23 25  1  0
 24 25  1  0
M  END
