x0849_0_A_α-x0967_0_A_α
     RDKit          3D

 16 18  0  0  0  0  0  0  0  0999 V2000
   -3.3930   15.3010   -2.9360 Br  0  0  0  0  0  0  0  0  0  0  0  0
   -3.5680   14.8050   -1.0450 C   0  0  1  0  0  0  0  0  0  0  0  0
   -2.2920   14.7190   -0.2910 C   0  0  0  0  0  0  0  0  0  0  0  0
   -4.5800   15.6020   -0.2240 C   0  0  0  0  0  0  0  0  0  0  0  0
   -2.4250   14.5500    1.0770 C   0  0  0  0  0  0  0  0  0  0  0  0
   -4.9140   14.7030    0.9530 C   0  0  2  0  0  0  0  0  0  0  0  0
   -1.0060   14.7940   -0.8480 C   0  0  0  0  0  0  0  0  0  0  0  0
   -3.6670   14.4560    1.6820 N   0  0  0  0  0  0  0  0  0  0  0  0
   -1.3800   14.4670    1.8900 N   0  0  0  0  0  0  0  0  0  0  0  0
    0.0890   14.7040   -0.0020 C   0  0  0  0  0  0  0  0  0  0  0  0
   -5.5050   13.4550    0.2220 C   0  0  0  0  0  0  0  0  0  0  0  0
   -5.9740   15.0110    1.9730 C   0  0  0  0  0  0  0  0  0  0  0  0
   -0.1660   14.5440    1.3470 C   0  0  0  0  0  0  0  0  0  0  0  0
   -6.7640   13.8110   -0.4900 N   0  0  0  0  0  0  0  0  0  0  0  0
   -7.2800   14.7770    1.7410 C   0  0  0  0  0  0  0  0  0  0  0  0
   -7.8080   14.2150    0.4570 C   0  0  0  0  0  0  0  0  0  0  0  0
  2  1  1  6
  2  3  1  0
  2  4  1  0
  3  5  2  0
  6  4  1  6
  3  7  1  0
  5  8  1  0
  6  8  1  0
  5  9  1  0
  7 10  2  0
  6 11  1  0
  6 12  1  0
  9 13  2  0
 10 13  1  0
 11 14  1  0
 12 15  2  0
 14 16  1  0
 15 16  1  0
M  END
