x0849_0_A_α-x1018_0_A_α
     RDKit          3D

 19 22  0  0  0  0  0  0  0  0999 V2000
   -3.3660   15.4510   -2.7780 Br  0  0  0  0  0  0  0  0  0  0  0  0
   -3.4380   14.5350   -1.0130 C   0  0  1  0  0  0  0  0  0  0  0  0
   -2.1400   14.5110   -0.2870 C   0  0  0  0  0  0  0  0  0  0  0  0
   -4.6170   14.7560   -0.0720 C   0  0  1  0  0  0  0  0  0  0  0  0
   -4.0120   13.3560   -1.6100 N   0  0  0  0  0  0  0  0  0  0  0  0
   -2.1990   14.7820    1.0840 C   0  0  0  0  0  0  0  0  0  0  0  0
   -4.2770   15.7990    0.9590 C   0  0  0  0  0  0  0  0  0  0  0  0
   -0.8890   14.2530   -0.8490 C   0  0  0  0  0  0  0  0  0  0  0  0
   -5.2520   14.0000   -2.0600 N   0  0  0  0  0  0  0  0  0  0  0  0
   -5.5970   15.0250   -1.1140 N   0  0  0  0  0  0  0  0  0  0  0  0
   -4.9870   13.6330    0.8560 C   0  0  0  0  0  0  0  0  0  0  0  0
   -3.3440   15.0840    1.7860 N   0  0  0  0  0  0  0  0  0  0  0  0
   -1.1710   14.7910    1.8590 N   0  0  0  0  0  0  0  0  0  0  0  0
    0.2100   14.2760   -0.0180 C   0  0  0  0  0  0  0  0  0  0  0  0
   -6.9710   15.0010   -0.7140 N   0  0  0  0  0  0  0  0  0  0  0  0
   -6.2600   13.3160    1.0330 C   0  0  0  0  0  0  0  0  0  0  0  0
   -0.0150   14.5500    1.3220 C   0  0  0  0  0  0  0  0  0  0  0  0
   -7.3650   14.0210    0.3110 C   0  0  1  0  0  0  0  0  0  0  0  0
   -8.5170   14.7590    1.4340 Cl  0  0  0  0  0  0  0  0  0  0  0  0
  2  1  1  6
  2  3  1  0
  2  4  1  0
  2  5  1  0
  3  6  2  0
  4  7  1  1
  3  8  1  0
  5  9  1  0
  4 10  1  0
  9 10  1  0
  4 11  1  0
  6 12  1  0
  7 12  1  0
  6 13  1  0
  8 14  2  0
 10 15  1  0
 11 16  2  0
 13 17  2  0
 14 17  1  0
 15 18  1  0
 16 18  1  0
 18 19  1  1
M  END
