x0852_0_B-x0438_0_A
     RDKit          3D

 23 25  0  0  0  0  0  0  0  0999 V2000
   -9.8100   18.0000    7.5290 N   0  0  0  0  0  0  0  0  0  0  0  0
   -9.4660   17.4560    6.5690 C   0  0  0  0  0  0  0  0  0  0  0  0
   -9.0420   16.7220    5.4310 C   0  0  0  0  0  0  0  0  0  0  0  0
   -8.0790   15.6970    5.5290 C   0  0  0  0  0  0  0  0  0  0  0  0
   -9.6000   17.0220    4.1910 C   0  0  0  0  0  0  0  0  0  0  0  0
   -7.4440   15.2920    6.6630 O   0  0  0  0  0  0  0  0  0  0  0  0
   -7.6830   14.9890    4.4260 C   0  0  0  0  0  0  0  0  0  0  0  0
   -9.1740   16.2780    3.1190 C   0  0  0  0  0  0  0  0  0  0  0  0
   -9.6540   16.4010    1.8110 N   0  0  0  0  0  0  0  0  0  0  0  0
   -8.2330   15.2820    3.2250 C   0  0  0  0  0  0  0  0  0  0  0  0
  -10.0410   14.9320    1.7780 S   0  0  2  0  0  0  0  0  0  0  0  0
  -11.6750   14.9470    1.2140 C   0  0  0  0  0  0  0  0  0  0  0  0
  -10.1420   14.1670    3.0070 O   0  0  0  0  0  0  0  0  0  0  0  0
   -9.0720   13.9420    0.6390 C   0  0  0  0  0  0  0  0  0  0  0  0
   -7.6300   14.2920    0.4320 C   0  0  0  0  0  0  0  0  0  0  0  0
   -7.2040   14.6740   -0.8120 N   0  0  0  0  0  0  0  0  0  0  0  0
   -6.6120   14.2790    1.2820 N   0  0  0  0  0  0  0  0  0  0  0  0
   -5.5020   14.6510    0.5450 C   0  0  0  0  0  0  0  0  0  0  0  0
   -5.8650   14.9010   -0.7690 C   0  0  0  0  0  0  0  0  0  0  0  0
   -4.9710   15.2880   -1.7590 C   0  0  0  0  0  0  0  0  0  0  0  0
   -4.1540   14.7950    0.9180 C   0  0  0  0  0  0  0  0  0  0  0  0
   -3.6430   15.4180   -1.3740 C   0  0  0  0  0  0  0  0  0  0  0  0
   -3.2350   15.1770   -0.0600 C   0  0  0  0  0  0  0  0  0  0  0  0
  1  2  3  0
  2  3  1  0
  3  4  2  0
  3  5  1  0
  4  6  1  0
  4  7  1  0
  5  8  2  0
  8  9  1  0
  7 10  2  0
  8 10  1  0
  9 11  2  0
 11 12  1  6
 11 13  2  0
 11 14  1  0
 14 15  1  0
 15 16  1  0
 15 17  2  0
 17 18  1  0
 16 19  1  0
 18 19  2  0
 19 20  1  0
 18 21  1  0
 20 22  2  0
 21 23  2  0
 22 23  1  0
M  END
