x0855_0_A_α-x0662_0_A_β
     RDKit          3D

 19 20  0  0  0  0  0  0  0  0999 V2000
    1.1980   13.0910   -3.1360 O   0  0  0  0  0  0  0  0  0  0  0  0
    0.5660   12.0140   -3.6630 C   0  0  0  0  0  0  0  0  0  0  0  0
   -0.0110   12.1690   -5.0620 C   0  0  1  0  0  0  0  0  0  0  0  0
    0.4740   10.9720   -3.0200 O   0  0  0  0  0  0  0  0  0  0  0  0
    0.9110   11.7350   -6.1770 C   0  0  0  0  0  0  0  0  0  0  0  0
   -1.2090   11.4120   -5.2250 N   0  0  0  0  0  0  0  0  0  0  0  0
    2.0350   12.1860   -6.2200 O   0  0  0  0  0  0  0  0  0  0  0  0
   -1.2470   10.1050   -5.5680 C   0  0  0  0  0  0  0  0  0  0  0  0
   -2.4250   11.9780   -5.0530 N   0  0  0  0  0  0  0  0  0  0  0  0
    0.5130   10.7180   -7.2470 C   0  0  0  0  0  0  0  0  0  0  0  0
   -2.5610    9.7900   -5.6450 C   0  0  0  0  0  0  0  0  0  0  0  0
   -3.2570   10.9630   -5.3190 C   0  0  0  0  0  0  0  0  0  0  0  0
    0.9570   10.8040   -8.5660 C   0  0  0  0  0  0  0  0  0  0  0  0
   -0.3230    9.6330   -6.9310 C   0  0  0  0  0  0  0  0  0  0  0  0
   -3.2940    8.1420   -6.0940 Br  0  0  0  0  0  0  0  0  0  0  0  0
    0.6150    9.8880   -9.5430 C   0  0  0  0  0  0  0  0  0  0  0  0
   -0.6830    8.6970   -7.9080 C   0  0  0  0  0  0  0  0  0  0  0  0
    1.1140   10.0570  -10.8380 N   0  0  0  0  0  0  0  0  0  0  0  0
   -0.2130    8.8260   -9.2120 C   0  0  0  0  0  0  0  0  0  0  0  0
  1  2  1  0
  3  2  1  1
  2  4  2  0
  3  5  1  0
  3  6  1  0
  5  7  2  0
  6  8  1  0
  6  9  1  0
  5 10  1  0
  8 11  2  0
  9 12  2  0
 11 12  1  0
 10 13  2  0
 10 14  1  0
 11 15  1  0
 13 16  1  0
 14 17  2  0
 16 18  1  0
 16 19  2  0
 17 19  1  0
M  END
