x0852_0_B_α-x0910_0_A_α
     RDKit          3D

 22 23  0  0  0  0  0  0  0  0999 V2000
   -9.6770   17.7300    7.1470 N   0  0  0  0  0  0  0  0  0  0  0  0
   -9.4340   17.2290    6.1220 C   0  0  0  0  0  0  0  0  0  0  0  0
   -9.2130   16.5380    4.8820 C   0  0  0  0  0  0  0  0  0  0  0  0
   -8.2580   15.5260    4.7700 C   0  0  0  0  0  0  0  0  0  0  0  0
   -9.9890   16.8900    3.7620 C   0  0  0  0  0  0  0  0  0  0  0  0
   -7.5100   15.1830    5.8690 O   0  0  0  0  0  0  0  0  0  0  0  0
   -8.0750   14.8700    3.5550 C   0  0  0  0  0  0  0  0  0  0  0  0
   -9.8250   16.2390    2.5320 C   0  0  0  0  0  0  0  0  0  0  0  0
  -10.5540   16.5050    1.3760 O   0  0  0  0  0  0  0  0  0  0  0  0
   -8.8580   15.2280    2.4420 C   0  0  0  0  0  0  0  0  0  0  0  0
   -9.9180   16.7310    0.0920 C   0  0  0  0  0  0  0  0  0  0  0  0
   -9.2520   15.4780   -0.4880 C   0  0  0  0  0  0  0  0  0  0  0  0
   -7.9210   15.7930   -1.1930 C   0  0  0  0  0  0  0  0  0  0  0  0
   -6.7370   14.9530   -0.6730 C   0  0  0  0  0  0  0  0  0  0  0  0
   -5.3550   15.3930   -1.1990 C   0  0  0  0  0  0  0  0  0  0  0  0
   -4.3090   14.2720   -1.1400 C   0  0  0  0  0  0  0  0  0  0  0  0
   -2.9740   14.6860   -1.5670 N   0  0  0  0  0  0  0  0  0  0  0  0
   -1.9990   14.7480   -0.6300 C   0  0  0  0  0  0  0  0  0  0  0  0
   -2.2910   14.7790    0.7110 N   0  0  0  0  0  0  0  0  0  0  0  0
   -0.6940   14.7940   -0.7780 N   0  0  0  0  0  0  0  0  0  0  0  0
   -1.1710   14.8480    1.4480 N   0  0  0  0  0  0  0  0  0  0  0  0
   -0.2370   14.8600    0.5030 C   0  0  0  0  0  0  0  0  0  0  0  0
  1  2  3  0
  2  3  1  0
  3  4  2  0
  3  5  1  0
  4  6  1  0
  4  7  1  0
  5  8  2  0
  8  9  1  0
  7 10  2  0
  8 10  1  0
  9 11  1  0
 11 12  1  0
 12 13  1  0
 13 14  1  0
 14 15  1  0
 15 16  1  0
 16 17  1  0
 17 18  1  0
 18 19  1  0
 18 20  2  0
 19 21  1  0
 20 22  1  0
 21 22  2  0
M  END
