x0855_0_A-x0282_0_A
     RDKit          3D

 26 28  0  0  0  0  0  0  0  0999 V2000
    2.6370   12.1760   -3.3900 O   0  0  0  0  0  0  0  0  0  0  0  0
    1.3090   12.6070   -3.4440 C   0  0  0  0  0  0  0  0  0  0  0  0
    0.8130   12.7430   -4.9050 C   0  0  0  0  0  0  0  0  0  0  0  0
    0.5770   11.6400   -2.6830 O   0  0  0  0  0  0  0  0  0  0  0  0
    1.3860   13.9420   -2.6810 C   0  0  0  0  0  0  0  0  0  0  0  0
    0.1010   14.7380   -2.4780 C   0  0  0  0  0  0  0  0  0  0  0  0
   -0.2660   11.8180   -5.2500 N   0  0  0  0  0  0  0  0  0  0  0  0
   -0.2190   10.8170   -6.1810 C   0  0  0  0  0  0  0  0  0  0  0  0
   -1.4670   11.9060   -4.6230 N   0  0  0  0  0  0  0  0  0  0  0  0
   -0.4070   14.6740   -1.0810 C   0  0  0  0  0  0  0  0  0  0  0  0
   -1.4510   10.2260   -6.1430 C   0  0  0  0  0  0  0  0  0  0  0  0
   -2.1860   10.9210   -5.1810 C   0  0  0  0  0  0  0  0  0  0  0  0
   -1.7080   14.5320   -0.9020 N   0  0  0  0  0  0  0  0  0  0  0  0
    0.4570   14.7580   -0.0340 C   0  0  0  0  0  0  0  0  0  0  0  0
   -2.0700    8.7840   -7.1540 Br  0  0  0  0  0  0  0  0  0  0  0  0
   -0.0980   14.6800    1.2180 C   0  0  0  0  0  0  0  0  0  0  0  0
   -2.1770   14.4690    0.3380 C   0  0  0  0  0  0  0  0  0  0  0  0
   -3.5180   14.3210    0.4610 N   0  0  0  0  0  0  0  0  0  0  0  0
   -1.4030   14.5390    1.4430 N   0  0  0  0  0  0  0  0  0  0  0  0
   -4.0440   14.1910    1.7950 C   0  0  0  0  0  0  0  0  0  0  0  0
   -4.3320   14.5420   -0.7630 C   0  0  0  0  0  0  0  0  0  0  0  0
   -5.3400   14.9470    1.8420 C   0  0  0  0  0  0  0  0  0  0  0  0
   -5.8000   14.9400   -0.5280 C   0  0  0  0  0  0  0  0  0  0  0  0
   -6.2610   14.3490    0.7960 C   0  0  0  0  0  0  0  0  0  0  0  0
   -7.7480   14.4530    1.1300 C   0  0  0  0  0  0  0  0  0  0  0  0
   -8.5390   14.6150   -0.0360 O   0  0  0  0  0  0  0  0  0  0  0  0
  2  1  1  0
  2  3  1  0
  2  4  1  0
  2  5  1  0
  5  6  1  0
  3  7  1  0
  7  8  1  0
  7  9  1  0
  6 10  1  0
  8 11  2  0
  9 12  2  0
 11 12  1  0
 10 13  2  0
 10 14  1  0
 11 15  1  0
 14 16  2  0
 13 17  1  0
 17 18  1  0
 16 19  1  0
 17 19  2  0
 18 20  1  0
 18 21  1  0
 20 22  1  0
 21 23  1  0
 22 24  1  0
 23 24  1  0
 24 25  1  0
 25 26  1  0
M  END
