x0855_0_A-x0805_0_A
     RDKit          3D

 24 26  0  0  0  0  0  0  0  0999 V2000
    0.5620   12.9950   -1.9730 O   0  0  0  0  0  0  0  0  0  0  0  0
    0.6310   12.2750   -3.1870 C   0  0  0  0  0  0  0  0  0  0  0  0
   -0.1620   10.9870   -3.2010 C   0  0  0  0  0  0  0  0  0  0  0  0
    1.9750   11.8920   -3.2300 O   0  0  0  0  0  0  0  0  0  0  0  0
    0.3300   13.1180   -4.4180 C   0  0  2  0  0  0  0  0  0  0  0  0
   -0.9080   10.7530   -4.4060 N   0  0  0  0  0  0  0  0  0  0  0  0
    1.6160   13.4660   -5.1290 C   0  0  0  0  0  0  0  0  0  0  0  0
   -0.5530   14.3630   -4.1490 C   0  0  1  0  0  0  0  0  0  0  0  0
   -0.7520    9.7320   -5.2810 C   0  0  0  0  0  0  0  0  0  0  0  0
   -1.8880   11.6100   -4.7420 N   0  0  0  0  0  0  0  0  0  0  0  0
   -1.7820   14.1990   -3.2520 C   0  0  0  0  0  0  0  0  0  0  0  0
    2.3700   14.3460   -4.3240 O   0  0  0  0  0  0  0  0  0  0  0  0
    0.3340   15.5050   -3.6050 C   0  0  0  0  0  0  0  0  0  0  0  0
   -1.6920    9.9350   -6.2380 C   0  0  0  0  0  0  0  0  0  0  0  0
   -2.3710   11.1000   -5.8740 C   0  0  0  0  0  0  0  0  0  0  0  0
   -2.9190   13.5020   -3.6940 C   0  0  0  0  0  0  0  0  0  0  0  0
   -1.8140   14.7400   -1.9600 C   0  0  0  0  0  0  0  0  0  0  0  0
    1.7080   15.5950   -4.2410 C   0  0  0  0  0  0  0  0  0  0  0  0
   -2.0250    8.8800   -7.7320 Br  0  0  0  0  0  0  0  0  0  0  0  0
   -2.9270   14.6100   -1.1330 C   0  0  0  0  0  0  0  0  0  0  0  0
   -4.0390   13.3570   -2.8710 C   0  0  0  0  0  0  0  0  0  0  0  0
   -3.0190   15.1230    0.1330 O   0  0  0  0  0  0  0  0  0  0  0  0
   -4.0410   13.9130   -1.5920 C   0  0  0  0  0  0  0  0  0  0  0  0
   -4.2830   15.6070    0.5700 C   0  0  0  0  0  0  0  0  0  0  0  0
  2  1  1  0
  2  3  1  0
  2  4  1  0
  5  2  1  1
  3  6  1  0
  5  7  1  0
  5  8  1  0
  6  9  1  0
  6 10  1  0
  8 11  1  1
  7 12  1  0
  8 13  1  0
  9 14  2  0
 10 15  2  0
 14 15  1  0
 11 16  2  0
 11 17  1  0
 12 18  1  0
 13 18  1  0
 14 19  1  0
 17 20  2  0
 16 21  1  0
 20 22  1  0
 20 23  1  0
 21 23  2  0
 22 24  1  0
M  END
