x0852_0_B-x0969_0_A
     RDKit          3D

 20 22  0  0  0  0  0  0  0  0999 V2000
   -9.5860   17.3290    7.3320 N   0  0  0  0  0  0  0  0  0  0  0  0
   -9.3970   16.9110    6.2640 C   0  0  0  0  0  0  0  0  0  0  0  0
   -9.2240   16.4700    4.9100 C   0  0  0  0  0  0  0  0  0  0  0  0
   -8.1910   15.5990    4.5030 C   0  0  0  0  0  0  0  0  0  0  0  0
  -10.1380   16.9440    3.9640 C   0  0  0  0  0  0  0  0  0  0  0  0
   -7.3030   15.1330    5.4410 O   0  0  0  0  0  0  0  0  0  0  0  0
   -8.0810   15.2200    3.1330 C   0  0  0  0  0  0  0  0  0  0  0  0
  -10.0240   16.5540    2.6370 C   0  0  0  0  0  0  0  0  0  0  0  0
  -11.2370   17.1750    1.3300 Br  0  0  0  0  0  0  0  0  0  0  0  0
   -7.0620   14.3730    2.5880 N   0  0  0  0  0  0  0  0  0  0  0  0
   -9.0170   15.7100    2.2340 C   0  0  0  0  0  0  0  0  0  0  0  0
   -6.6840   14.5330    1.2670 C   0  0  0  0  0  0  0  0  0  0  0  0
   -7.5570   14.4840    0.2820 N   0  0  0  0  0  0  0  0  0  0  0  0
   -5.4150   14.7720    0.7030 N   0  0  0  0  0  0  0  0  0  0  0  0
   -6.9270   14.6790   -0.9170 N   0  0  0  0  0  0  0  0  0  0  0  0
   -5.6550   14.8480   -0.6720 C   0  0  0  0  0  0  0  0  0  0  0  0
   -4.1280   14.9210    1.2360 C   0  0  0  0  0  0  0  0  0  0  0  0
   -4.5610   15.0750   -1.5430 C   0  0  0  0  0  0  0  0  0  0  0  0
   -3.0920   15.1300    0.4050 C   0  0  0  0  0  0  0  0  0  0  0  0
   -3.3310   15.2020   -1.0300 C   0  0  0  0  0  0  0  0  0  0  0  0
  1  2  3  0
  2  3  1  0
  3  4  2  0
  3  5  1  0
  4  6  1  0
  4  7  1  0
  5  8  2  0
  8  9  1  0
  7 10  1  0
  7 11  2  0
  8 11  1  0
 10 12  1  0
 12 13  2  0
 12 14  1  0
 13 15  1  0
 14 16  1  0
 15 16  2  0
 14 17  1  0
 16 18  1  0
 17 19  2  0
 18 20  2  0
 19 20  1  0
M  END
