x0852_0_B_α-x0962_1_A_α
     RDKit          3D

 16 17  0  0  0  0  0  0  0  0999 V2000
   -9.4910   16.8430    6.9230 N   0  0  0  0  0  0  0  0  0  0  0  0
   -9.1740   16.5610    5.8320 C   0  0  0  0  0  0  0  0  0  0  0  0
   -8.7750   16.3040    4.4200 C   0  0  1  0  0  0  0  0  0  0  0  0
   -8.3000   14.8590    4.0940 C   0  0  2  0  0  0  0  0  0  0  0  0
   -9.9490   16.7080    3.5220 C   0  0  0  0  0  0  0  0  0  0  0  0
   -7.3230   14.4590    5.0570 O   0  0  0  0  0  0  0  0  0  0  0  0
   -7.8260   14.6680    2.5320 C   0  0  1  0  0  0  0  0  0  0  0  0
   -9.8230   16.3820    2.0230 C   0  0  2  0  0  0  0  0  0  0  0  0
  -11.6100   16.0860    1.3160 Br  0  0  0  0  0  0  0  0  0  0  0  0
   -8.8990   15.2590    1.5670 C   0  0  0  0  0  0  0  0  0  0  0  0
   -6.3760   15.0450    2.2430 N   0  0  0  0  0  0  0  0  0  0  0  0
   -7.7830   13.3370    1.9100 N   0  0  0  0  0  0  0  0  0  0  0  0
   -5.8230   14.2550    1.0810 C   0  0  1  0  0  0  0  0  0  0  0  0
   -7.0850   13.5730    0.6110 C   0  0  0  0  0  0  0  0  0  0  0  0
   -5.0400   14.9500    0.0000 C   0  0  0  0  0  0  0  0  0  0  0  0
   -4.3920   15.4420   -0.8470 N   0  0  0  0  0  0  0  0  0  0  0  0
  1  2  3  0
  3  2  1  1
  3  4  1  0
  3  5  1  0
  4  6  1  1
  4  7  1  0
  5  8  1  0
  8  9  1  1
  7 10  1  6
  8 10  1  0
  7 11  1  0
  7 12  1  0
 11 13  1  0
 12 14  1  0
 13 14  1  0
 13 15  1  6
 15 16  3  0
M  END
