x0855_0_A_α-x0837_0_A_α
     RDKit          3D

 21 22  0  0  0  0  0  0  0  0999 V2000
    1.6810   12.9090   -2.3700 O   0  0  0  0  0  0  0  0  0  0  0  0
    0.9450   12.1810   -3.2850 C   0  0  0  0  0  0  0  0  0  0  0  0
    0.4530   12.7060   -4.5520 C   0  0  2  0  0  0  0  0  0  0  0  0
    0.6890   10.9920   -2.9930 O   0  0  0  0  0  0  0  0  0  0  0  0
   -0.0690   14.1070   -4.4780 C   0  0  0  0  0  0  0  0  0  0  0  0
   -0.5090   11.7840   -5.1150 N   0  0  0  0  0  0  0  0  0  0  0  0
    0.0120   14.8370   -3.1640 C   0  0  0  0  0  0  0  0  0  0  0  0
   -0.3350   10.8520   -6.0660 C   0  0  0  0  0  0  0  0  0  0  0  0
   -1.7590   11.7720   -4.6970 N   0  0  0  0  0  0  0  0  0  0  0  0
   -1.0010   14.2530   -2.1670 C   0  0  0  0  0  0  0  0  0  0  0  0
   -1.5560   10.2190   -6.2380 C   0  0  0  0  0  0  0  0  0  0  0  0
   -2.4170   10.8230   -5.3690 C   0  0  0  0  0  0  0  0  0  0  0  0
   -2.0230    8.8030   -7.4090 Br  0  0  0  0  0  0  0  0  0  0  0  0
   -3.0250   14.6370   -2.7180 I   0  0  0  0  0  0  0  0  0  0  0  0
   -4.1780   15.3380   -1.0480 C   0  0  2  0  0  0  0  0  0  0  0  0
   -3.4750   15.0530    0.2240 C   0  0  0  0  0  0  0  0  0  0  0  0
   -5.5390   14.7340   -1.1190 C   0  0  0  0  0  0  0  0  0  0  0  0
   -4.1220   14.8050    1.3360 C   0  0  0  0  0  0  0  0  0  0  0  0
   -6.2670   14.7500    0.1710 C   0  0  0  0  0  0  0  0  0  0  0  0
   -7.5070   14.7330    0.2010 O   0  0  0  0  0  0  0  0  0  0  0  0
   -5.5420   14.7850    1.3940 N   0  0  0  0  0  0  0  0  0  0  0  0
  1  2  1  0
  2  3  1  0
  2  4  2  0
  3  5  1  1
  3  6  1  0
  5  7  1  0
  6  8  1  0
  6  9  1  0
  7 10  1  0
  8 11  2  0
  9 12  2  0
 11 12  1  0
 11 13  1  0
 10 14  1  0
 15 14  1  6
 15 16  1  0
 15 17  1  0
 16 18  2  0
 17 19  1  0
 19 20  2  0
 18 21  1  0
 19 21  1  0
M  END
