x0852_0_B_α-x0438_0_A_α
     RDKit          3D

 23 25  0  0  0  0  0  0  0  0999 V2000
   -9.8350   17.9800    7.5320 N   0  0  0  0  0  0  0  0  0  0  0  0
   -9.4920   17.4420    6.5690 C   0  0  0  0  0  0  0  0  0  0  0  0
   -9.0600   16.7170    5.4240 C   0  0  0  0  0  0  0  0  0  0  0  0
   -8.0930   15.6990    5.5220 C   0  0  0  0  0  0  0  0  0  0  0  0
   -9.6180   17.0210    4.1850 C   0  0  0  0  0  0  0  0  0  0  0  0
   -7.4620   15.2900    6.6550 O   0  0  0  0  0  0  0  0  0  0  0  0
   -7.6890   15.0000    4.4140 C   0  0  0  0  0  0  0  0  0  0  0  0
   -9.1830   16.2830    3.1080 C   0  0  0  0  0  0  0  0  0  0  0  0
   -9.6580   16.4080    1.7990 N   0  0  0  0  0  0  0  0  0  0  0  0
   -8.2370   15.2940    3.2150 C   0  0  0  0  0  0  0  0  0  0  0  0
  -10.0430   14.9370    1.7760 S   0  0  2  0  0  0  0  0  0  0  0  0
  -11.6660   14.9360    1.1820 C   0  0  0  0  0  0  0  0  0  0  0  0
  -10.1640   14.1970    3.0180 O   0  0  0  0  0  0  0  0  0  0  0  0
   -9.0550   13.9270    0.6720 C   0  0  0  0  0  0  0  0  0  0  0  0
   -7.6120   14.2830    0.4640 C   0  0  0  0  0  0  0  0  0  0  0  0
   -7.1920   14.6760   -0.7740 N   0  0  0  0  0  0  0  0  0  0  0  0
   -6.5890   14.2650    1.3130 N   0  0  0  0  0  0  0  0  0  0  0  0
   -5.4830   14.6450    0.5770 C   0  0  0  0  0  0  0  0  0  0  0  0
   -5.8500   14.9050   -0.7360 C   0  0  0  0  0  0  0  0  0  0  0  0
   -4.9650   15.3020   -1.7250 C   0  0  0  0  0  0  0  0  0  0  0  0
   -4.1310   14.7900    0.9410 C   0  0  0  0  0  0  0  0  0  0  0  0
   -3.6340   15.4300   -1.3470 C   0  0  0  0  0  0  0  0  0  0  0  0
   -3.2170   15.1810   -0.0380 C   0  0  0  0  0  0  0  0  0  0  0  0
  1  2  3  0
  2  3  1  0
  3  4  2  0
  3  5  1  0
  4  6  1  0
  4  7  1  0
  5  8  2  0
  8  9  1  0
  7 10  2  0
  8 10  1  0
  9 11  2  0
 11 12  1  6
 11 13  2  0
 11 14  1  0
 14 15  1  0
 15 16  1  0
 15 17  2  0
 17 18  1  0
 16 19  1  0
 18 19  2  0
 19 20  1  0
 18 21  1  0
 20 22  2  0
 21 23  2  0
 22 23  1  0
M  END
