x0852_0_B_α-x0900_0_A_α
     RDKit          3D

 19 20  0  0  0  0  0  0  0  0999 V2000
   -9.6700   17.8420    7.1560 N   0  0  0  0  0  0  0  0  0  0  0  0
   -9.4330   17.3170    6.1460 C   0  0  0  0  0  0  0  0  0  0  0  0
   -9.1860   16.5950    4.9360 C   0  0  0  0  0  0  0  0  0  0  0  0
   -8.2740   15.5330    4.9000 C   0  0  0  0  0  0  0  0  0  0  0  0
   -9.8680   16.9630    3.7620 C   0  0  0  0  0  0  0  0  0  0  0  0
   -7.5500   15.0940    5.9800 O   0  0  0  0  0  0  0  0  0  0  0  0
   -8.0620   14.8440    3.7140 C   0  0  0  0  0  0  0  0  0  0  0  0
   -9.6530   16.2650    2.5630 C   0  0  0  0  0  0  0  0  0  0  0  0
  -10.3670   16.7000    1.4670 O   0  0  0  0  0  0  0  0  0  0  0  0
   -8.7480   15.2080    2.5560 C   0  0  0  0  0  0  0  0  0  0  0  0
  -10.3730   15.8360    0.3220 C   0  0  0  0  0  0  0  0  0  0  0  0
   -9.0760   15.9980   -0.4690 C   0  0  0  0  0  0  0  0  0  0  0  0
   -8.0530   14.9200   -0.1000 C   0  0  0  0  0  0  0  0  0  0  0  0
   -6.8860   15.0300   -0.9600 N   0  0  0  0  0  0  0  0  0  0  0  0
   -5.7330   14.9520   -0.3970 C   0  0  0  0  0  0  0  0  0  0  0  0
   -4.5620   15.0490   -1.0930 N   0  0  0  0  0  0  0  0  0  0  0  0
   -5.4180   14.7460    1.0740 C   0  0  0  0  0  0  0  0  0  0  0  0
   -4.0180   15.3570    1.1240 C   0  0  0  0  0  0  0  0  0  0  0  0
   -3.4290   14.8990   -0.2080 C   0  0  0  0  0  0  0  0  0  0  0  0
  1  2  3  0
  2  3  1  0
  3  4  2  0
  3  5  1  0
  4  6  1  0
  4  7  1  0
  5  8  2  0
  8  9  1  0
  7 10  2  0
  8 10  1  0
  9 11  1  0
 11 12  1  0
 12 13  1  0
 13 14  1  0
 14 15  2  3
 15 16  1  0
 15 17  1  0
 17 18  1  0
 16 19  1  0
 18 19  1  0
M  END
