x0855_0_A_α-x0128_0_A_α
     RDKit          3D

 30 32  0  0  0  0  0  0  0  0999 V2000
    1.6730   12.8570   -2.3340 O   0  0  0  0  0  0  0  0  0  0  0  0
    0.5420   12.2910   -2.9610 C   0  0  0  0  0  0  0  0  0  0  0  0
    0.5150   12.5200   -4.4870 C   0  0  0  0  0  0  0  0  0  0  0  0
    0.6670   10.8920   -2.7620 O   0  0  0  0  0  0  0  0  0  0  0  0
   -0.7660   12.7480   -2.2770 C   0  0  0  0  0  0  0  0  0  0  0  0
   -0.5840   13.5750   -0.9930 C   0  0  0  0  0  0  0  0  0  0  0  0
   -0.4820   11.6660   -5.0900 N   0  0  0  0  0  0  0  0  0  0  0  0
   -1.8940   13.6220   -0.1800 C   0  0  0  0  0  0  0  0  0  0  0  0
   -0.3160   10.7530   -6.0860 C   0  0  0  0  0  0  0  0  0  0  0  0
   -1.7480   11.7470   -4.6280 N   0  0  0  0  0  0  0  0  0  0  0  0
   -2.6230   14.9540   -0.2800 C   0  0  0  0  0  0  0  0  0  0  0  0
   -1.5560   10.2010   -6.2700 C   0  0  0  0  0  0  0  0  0  0  0  0
   -2.4040   10.8410   -5.3590 C   0  0  0  0  0  0  0  0  0  0  0  0
   -2.0570    8.8680   -7.4690 Br  0  0  0  0  0  0  0  0  0  0  0  0
   -4.1250   14.9120   -0.1660 C   0  0  0  0  0  0  0  0  0  0  0  0
   -4.9260   15.0670   -1.3040 C   0  0  0  0  0  0  0  0  0  0  0  0
   -4.7360   14.7200    1.0800 C   0  0  0  0  0  0  0  0  0  0  0  0
   -6.3130   15.0240   -1.1960 C   0  0  0  0  0  0  0  0  0  0  0  0
   -6.1320   14.6760    1.1960 C   0  0  0  0  0  0  0  0  0  0  0  0
   -6.7970   14.4870    2.4170 N   0  0  0  0  0  0  0  0  0  0  0  0
   -6.9140   14.8270    0.0460 C   0  0  0  0  0  0  0  0  0  0  0  0
   -7.8370   15.1480    3.0160 C   0  0  0  0  0  0  0  0  0  0  0  0
   -8.7770   15.5380    2.3270 O   0  0  0  0  0  0  0  0  0  0  0  0
   -7.7010   15.3010    4.3630 N   0  0  0  0  0  0  0  0  0  0  0  0
   -8.4870   16.0960    5.2340 C   0  0  0  0  0  0  0  0  0  0  0  0
   -9.1670   17.2510    4.8580 C   0  0  0  0  0  0  0  0  0  0  0  0
   -8.6010   15.7060    6.5710 C   0  0  0  0  0  0  0  0  0  0  0  0
   -9.9220   18.0060    5.6950 N   0  0  0  0  0  0  0  0  0  0  0  0
   -9.3700   16.4670    7.4550 C   0  0  0  0  0  0  0  0  0  0  0  0
  -10.0070   17.5990    6.9730 C   0  0  0  0  0  0  0  0  0  0  0  0
  2  1  1  0
  2  3  1  0
  2  4  1  0
  2  5  1  0
  5  6  1  0
  3  7  1  0
  6  8  1  0
  7  9  1  0
  7 10  1  0
  8 11  1  0
  9 12  2  0
 10 13  2  0
 12 13  1  0
 12 14  1  0
 11 15  1  0
 15 16  2  0
 15 17  1  0
 16 18  1  0
 17 19  2  0
 19 20  1  0
 18 21  2  0
 19 21  1  0
 20 22  1  0
 22 23  2  0
 22 24  1  0
 24 25  1  0
 25 26  2  0
 25 27  1  0
 26 28  1  0
 27 29  2  0
 28 30  2  0
 29 30  1  0
M  END
