x0855_0_A-x0628_0_A
     RDKit          3D

 12 12  0  0  0  0  0  0  0  0999 V2000
    1.2350   12.8280   -2.3770 O   0  0  0  0  0  0  0  0  0  0  0  0
    0.7760   11.9050   -3.2650 C   0  0  0  0  0  0  0  0  0  0  0  0
    0.8600   12.4050   -4.7140 C   0  0  2  0  0  0  0  0  0  0  0  0
    0.3420   10.8170   -2.9240 O   0  0  0  0  0  0  0  0  0  0  0  0
    1.4460   13.8070   -4.7420 C   0  0  0  0  0  0  0  0  0  0  0  0
   -0.4590   12.1700   -5.3970 N   0  0  0  0  0  0  0  0  0  0  0  0
   -0.3890   11.1030   -6.4270 C   0  0  0  0  0  0  0  0  0  0  0  0
   -1.4790   11.7380   -4.4330 N   0  0  0  0  0  0  0  0  0  0  0  0
   -2.3260   12.8560   -4.0300 C   0  0  0  0  0  0  0  0  0  0  0  0
   -1.2160    9.9630   -5.8730 C   0  0  1  0  0  0  0  0  0  0  0  0
   -2.2820   10.7100   -5.1150 C   0  0  0  0  0  0  0  0  0  0  0  0
   -1.9550    8.8220   -7.2440 Br  0  0  0  0  0  0  0  0  0  0  0  0
  1  2  1  0
  2  3  1  0
  2  4  2  0
  3  5  1  1
  3  6  1  0
  6  7  1  0
  6  8  1  0
  8  9  1  0
  7 10  1  0
  8 11  1  0
 10 11  1  0
 10 12  1  6
M  END
