x0852_0_B-x0962_1_A
     RDKit          3D

 16 17  0  0  0  0  0  0  0  0999 V2000
   -9.4590   16.8630    6.9390 N   0  0  0  0  0  0  0  0  0  0  0  0
   -9.1540   16.5840    5.8450 C   0  0  0  0  0  0  0  0  0  0  0  0
   -8.7750   16.3250    4.4320 C   0  0  1  0  0  0  0  0  0  0  0  0
   -8.3020   14.8820    4.1000 C   0  0  2  0  0  0  0  0  0  0  0  0
   -9.9610   16.7240    3.5460 C   0  0  0  0  0  0  0  0  0  0  0  0
   -7.3310   14.4760    5.0670 O   0  0  0  0  0  0  0  0  0  0  0  0
   -7.8230   14.7030    2.5350 C   0  0  1  0  0  0  0  0  0  0  0  0
   -9.8440   16.4000    2.0490 C   0  0  2  0  0  0  0  0  0  0  0  0
  -11.6200   16.0690    1.3460 Br  0  0  0  0  0  0  0  0  0  0  0  0
   -8.9090   15.2870    1.5840 C   0  0  0  0  0  0  0  0  0  0  0  0
   -6.3830   15.1100    2.2280 N   0  0  0  0  0  0  0  0  0  0  0  0
   -7.7860   13.3800    1.8950 N   0  0  0  0  0  0  0  0  0  0  0  0
   -5.8500   14.3260    1.0490 C   0  0  1  0  0  0  0  0  0  0  0  0
   -7.1050   13.6320    0.5900 C   0  0  0  0  0  0  0  0  0  0  0  0
   -5.0590   15.0180   -0.0300 C   0  0  0  0  0  0  0  0  0  0  0  0
   -4.4020   15.5000   -0.8770 N   0  0  0  0  0  0  0  0  0  0  0  0
  1  2  3  0
  3  2  1  1
  3  4  1  0
  3  5  1  0
  4  6  1  1
  4  7  1  0
  5  8  1  0
  8  9  1  1
  7 10  1  6
  8 10  1  0
  7 11  1  0
  7 12  1  0
 11 13  1  0
 12 14  1  0
 13 14  1  0
 13 15  1  6
 15 16  3  0
M  END
