x0855_0_A_α-x0685_0_A_α
     RDKit          3D

 24 25  0  0  0  0  0  0  0  0999 V2000
    1.5810   13.1360   -2.7080 O   0  0  0  0  0  0  0  0  0  0  0  0
    0.9480   12.2060   -3.4510 C   0  0  0  0  0  0  0  0  0  0  0  0
    0.6950   12.6110   -4.8960 C   0  0  2  0  0  0  0  0  0  0  0  0
    0.6400   11.1500   -2.9200 O   0  0  0  0  0  0  0  0  0  0  0  0
    0.4650   14.1270   -5.0620 C   0  0  0  0  0  0  0  0  0  0  0  0
   -0.4030   11.8080   -5.4020 N   0  0  0  0  0  0  0  0  0  0  0  0
   -0.4620   14.7280   -3.9880 C   0  0  0  0  0  0  0  0  0  0  0  0
   -0.3170   10.6950   -6.1890 C   0  0  0  0  0  0  0  0  0  0  0  0
   -1.6750   12.1300   -5.1010 N   0  0  0  0  0  0  0  0  0  0  0  0
   -1.8910   14.9970   -4.4810 C   0  0  0  0  0  0  0  0  0  0  0  0
   -1.5970   10.2760   -6.3820 C   0  0  0  0  0  0  0  0  0  0  0  0
   -2.4050   11.1850   -5.6990 C   0  0  0  0  0  0  0  0  0  0  0  0
   -2.1810    8.7980   -7.3490 Br  0  0  0  0  0  0  0  0  0  0  0  0
   -2.8110   14.9910   -3.3370 C   0  0  0  0  0  0  0  0  0  0  0  0
   -3.4510   14.9720   -2.3300 C   0  0  0  0  0  0  0  0  0  0  0  0
   -4.0940   14.9750   -1.0630 C   0  0  0  0  0  0  0  0  0  0  0  0
   -3.3330   15.0410    0.0870 C   0  0  0  0  0  0  0  0  0  0  0  0
   -5.4710   14.9150   -0.9410 C   0  0  0  0  0  0  0  0  0  0  0  0
   -3.9750   15.0560    1.3130 C   0  0  0  0  0  0  0  0  0  0  0  0
   -6.1180   14.9250    0.2500 N   0  0  0  0  0  0  0  0  0  0  0  0
   -5.3640   15.0030    1.3650 C   0  0  0  0  0  0  0  0  0  0  0  0
   -5.9430   15.0500    2.6330 N   0  0  0  0  0  0  0  0  0  0  0  0
   -7.3440   14.7100    2.8820 C   0  0  0  0  0  0  0  0  0  0  0  0
   -7.5870   13.2120    2.8890 C   0  0  0  0  0  0  0  0  0  0  0  0
  1  2  1  0
  2  3  1  0
  2  4  2  0
  3  5  1  1
  3  6  1  0
  5  7  1  0
  6  8  1  0
  6  9  1  0
  7 10  1  0
  8 11  2  0
  9 12  2  0
 11 12  1  0
 11 13  1  0
 10 14  1  0
 14 15  3  0
 15 16  1  0
 16 17  2  0
 16 18  1  0
 17 19  1  0
 18 20  2  0
 19 21  2  0
 20 21  1  0
 21 22  1  0
 22 23  1  0
 23 24  1  0
M  END
