x0852_0_B_α-x0895_1_A_α
     RDKit          3D

 18 19  0  0  0  0  0  0  0  0999 V2000
   -9.8970   17.7490    7.0070 N   0  0  0  0  0  0  0  0  0  0  0  0
   -9.5750   17.1930    6.0360 C   0  0  0  0  0  0  0  0  0  0  0  0
   -9.1010   16.4660    4.8930 C   0  0  0  0  0  0  0  0  0  0  0  0
   -8.0810   15.5450    5.0300 C   0  0  0  0  0  0  0  0  0  0  0  0
   -9.6540   16.6660    3.6110 C   0  0  0  0  0  0  0  0  0  0  0  0
   -7.5070   15.2970    6.2410 O   0  0  0  0  0  0  0  0  0  0  0  0
   -7.6050   14.8510    3.9500 C   0  0  0  0  0  0  0  0  0  0  0  0
   -9.1620   15.9410    2.4930 C   0  0  0  0  0  0  0  0  0  0  0  0
   -9.9970   16.2990    0.8260 Br  0  0  0  0  0  0  0  0  0  0  0  0
   -8.0960   15.0090    2.6620 C   0  0  0  0  0  0  0  0  0  0  0  0
   -7.3570   14.1050    1.6520 C   0  0  0  0  0  0  0  0  0  0  0  0
   -6.5760   14.7200    0.5350 N   0  0  0  0  0  0  0  0  0  0  0  0
   -5.2750   14.8740    0.4380 C   0  0  0  0  0  0  0  0  0  0  0  0
   -4.5310   15.3910   -0.5830 N   0  0  0  0  0  0  0  0  0  0  0  0
   -4.3720   14.5100    1.4020 N   0  0  0  0  0  0  0  0  0  0  0  0
   -3.2230   14.7590   -0.5540 C   0  0  0  0  0  0  0  0  0  0  0  0
   -3.0720   14.6670    0.9560 C   0  0  0  0  0  0  0  0  0  0  0  0
   -2.0180   14.7240    1.6130 O   0  0  0  0  0  0  0  0  0  0  0  0
  1  2  3  0
  2  3  1  0
  3  4  2  0
  3  5  1  0
  4  6  1  0
  4  7  1  0
  5  8  2  0
  8  9  1  0
  7 10  2  0
  8 10  1  0
 10 11  1  0
 11 12  1  0
 12 13  2  3
 13 14  1  0
 13 15  1  0
 14 16  1  0
 15 17  1  0
 16 17  1  0
 17 18  2  0
M  END
