x0855_0_A_α-x0471_0_A_α
     RDKit          3D

 30 32  0  0  0  0  0  0  0  0999 V2000
    2.0690   12.5850   -2.7300 O   0  0  0  0  0  0  0  0  0  0  0  0
    0.7290   12.2640   -3.0360 C   0  0  0  0  0  0  0  0  0  0  0  0
    0.5360   12.5580   -4.5440 C   0  0  0  0  0  0  0  0  0  0  0  0
    0.5690   10.8780   -2.7500 O   0  0  0  0  0  0  0  0  0  0  0  0
   -0.2050   13.0690   -2.1080 C   0  0  0  0  0  0  0  0  0  0  0  0
   -1.6980   12.7080   -2.2230 C   0  0  0  0  0  0  0  0  0  0  0  0
   -0.4630   11.6880   -5.1170 N   0  0  0  0  0  0  0  0  0  0  0  0
   -2.4300   13.6600   -3.1830 C   0  0  0  0  0  0  0  0  0  0  0  0
   -0.2950   10.7680   -6.1130 C   0  0  0  0  0  0  0  0  0  0  0  0
   -1.7250   11.7440   -4.6430 N   0  0  0  0  0  0  0  0  0  0  0  0
   -2.6280   15.0430   -2.5590 C   0  0  0  0  0  0  0  0  0  0  0  0
   -1.5250   10.1930   -6.2750 C   0  0  0  0  0  0  0  0  0  0  0  0
   -2.3700   10.8210   -5.3600 C   0  0  0  0  0  0  0  0  0  0  0  0
   -2.0130    8.8390   -7.4650 Br  0  0  0  0  0  0  0  0  0  0  0  0
   -3.6070   14.9930   -1.4150 C   0  0  0  0  0  0  0  0  0  0  0  0
   -4.9800   14.8920   -1.6830 C   0  0  0  0  0  0  0  0  0  0  0  0
   -3.1350   15.0320   -0.0930 C   0  0  0  0  0  0  0  0  0  0  0  0
   -5.8320   14.8130   -0.5860 C   0  0  0  0  0  0  0  0  0  0  0  0
   -4.0110   14.9600    0.9900 C   0  0  0  0  0  0  0  0  0  0  0  0
   -7.1930   14.6930   -0.4850 N   0  0  0  0  0  0  0  0  0  0  0  0
   -5.3840   14.8400    0.7260 C   0  0  0  0  0  0  0  0  0  0  0  0
   -7.5160   14.6450    0.8520 C   0  0  0  0  0  0  0  0  0  0  0  0
   -6.4370   14.7350    1.5990 N   0  0  0  0  0  0  0  0  0  0  0  0
   -8.9150   14.5100    1.3350 C   0  0  0  0  0  0  0  0  0  0  0  0
   -8.9030   14.0940    2.7200 N   0  0  0  0  0  0  0  0  0  0  0  0
   -8.9850   15.0140    3.7420 C   0  0  0  0  0  0  0  0  0  0  0  0
   -9.2850   16.1900    3.5380 O   0  0  0  0  0  0  0  0  0  0  0  0
   -8.6870   14.4350    5.1240 C   0  0  0  0  0  0  0  0  0  0  0  0
   -9.8900   13.6590    5.6580 C   0  0  0  0  0  0  0  0  0  0  0  0
   -8.2810   15.5370    6.1010 C   0  0  0  0  0  0  0  0  0  0  0  0
  2  1  1  0
  2  3  1  0
  2  4  1  0
  2  5  1  0
  5  6  1  0
  3  7  1  0
  6  8  1  0
  7  9  1  0
  7 10  1  0
  8 11  1  0
  9 12  2  0
 10 13  2  0
 12 13  1  0
 12 14  1  0
 11 15  1  0
 15 16  2  0
 15 17  1  0
 16 18  1  0
 17 19  2  0
 18 20  1  0
 18 21  2  0
 19 21  1  0
 20 22  1  0
 21 23  1  0
 22 23  2  0
 22 24  1  0
 24 25  1  0
 25 26  1  0
 26 27  2  0
 26 28  1  0
 28 29  1  0
 28 30  1  0
M  END
