x0852_0_B_α-x0969_0_A_α
     RDKit          3D

 20 22  0  0  0  0  0  0  0  0999 V2000
   -9.5900   17.3170    7.3410 N   0  0  0  0  0  0  0  0  0  0  0  0
   -9.3990   16.9090    6.2720 C   0  0  0  0  0  0  0  0  0  0  0  0
   -9.2300   16.4690    4.9170 C   0  0  0  0  0  0  0  0  0  0  0  0
   -8.1950   15.6010    4.5070 C   0  0  0  0  0  0  0  0  0  0  0  0
  -10.1460   16.9390    3.9730 C   0  0  0  0  0  0  0  0  0  0  0  0
   -7.3030   15.1370    5.4410 O   0  0  0  0  0  0  0  0  0  0  0  0
   -8.0860   15.2200    3.1360 C   0  0  0  0  0  0  0  0  0  0  0  0
  -10.0370   16.5510    2.6460 C   0  0  0  0  0  0  0  0  0  0  0  0
  -11.2500   17.1620    1.3360 Br  0  0  0  0  0  0  0  0  0  0  0  0
   -7.0670   14.3760    2.5970 N   0  0  0  0  0  0  0  0  0  0  0  0
   -9.0250   15.7070    2.2390 C   0  0  0  0  0  0  0  0  0  0  0  0
   -6.6910   14.5290    1.2720 C   0  0  0  0  0  0  0  0  0  0  0  0
   -7.5610   14.4730    0.2860 N   0  0  0  0  0  0  0  0  0  0  0  0
   -5.4210   14.7650    0.7140 N   0  0  0  0  0  0  0  0  0  0  0  0
   -6.9300   14.6600   -0.9100 N   0  0  0  0  0  0  0  0  0  0  0  0
   -5.6590   14.8320   -0.6640 C   0  0  0  0  0  0  0  0  0  0  0  0
   -4.1400   14.9210    1.2490 C   0  0  0  0  0  0  0  0  0  0  0  0
   -4.5640   15.0560   -1.5320 C   0  0  0  0  0  0  0  0  0  0  0  0
   -3.0990   15.1270    0.4220 C   0  0  0  0  0  0  0  0  0  0  0  0
   -3.3350   15.1890   -1.0140 C   0  0  0  0  0  0  0  0  0  0  0  0
  1  2  3  0
  2  3  1  0
  3  4  2  0
  3  5  1  0
  4  6  1  0
  4  7  1  0
  5  8  2  0
  8  9  1  0
  7 10  1  0
  7 11  2  0
  8 11  1  0
 10 12  1  0
 12 13  2  0
 12 14  1  0
 13 15  1  0
 14 16  1  0
 15 16  2  0
 14 17  1  0
 16 18  1  0
 17 19  2  0
 18 20  2  0
 19 20  1  0
M  END
