x0852_0_B-x0905_0_A
     RDKit          3D

 20 21  0  0  0  0  0  0  0  0999 V2000
   -9.7280   17.7710    7.0850 N   0  0  0  0  0  0  0  0  0  0  0  0
   -9.4730   17.2520    6.0730 C   0  0  0  0  0  0  0  0  0  0  0  0
   -9.1830   16.5470    4.8550 C   0  0  0  0  0  0  0  0  0  0  0  0
   -8.2540   15.4940    4.8340 C   0  0  0  0  0  0  0  0  0  0  0  0
   -9.8380   16.9120    3.6610 C   0  0  0  0  0  0  0  0  0  0  0  0
   -7.5960   15.1230    5.9800 O   0  0  0  0  0  0  0  0  0  0  0  0
   -7.9870   14.8140    3.6510 C   0  0  0  0  0  0  0  0  0  0  0  0
   -9.5600   16.2210    2.4670 C   0  0  0  0  0  0  0  0  0  0  0  0
  -10.2000   16.5870    1.2920 O   0  0  0  0  0  0  0  0  0  0  0  0
   -8.6390   15.1760    2.4750 C   0  0  0  0  0  0  0  0  0  0  0  0
   -9.7760   15.7780    0.1610 C   0  0  0  0  0  0  0  0  0  0  0  0
   -9.0790   16.6250   -0.9190 C   0  0  0  0  0  0  0  0  0  0  0  0
   -7.8500   15.9420   -1.5500 C   0  0  0  0  0  0  0  0  0  0  0  0
   -7.2770   14.9940   -0.6420 O   0  0  0  0  0  0  0  0  0  0  0  0
   -5.8980   15.0360   -0.4920 C   0  0  0  0  0  0  0  0  0  0  0  0
   -5.3800   14.9540    0.7490 N   0  0  0  0  0  0  0  0  0  0  0  0
   -5.1200   15.1560   -1.6360 C   0  0  0  0  0  0  0  0  0  0  0  0
   -4.0370   14.9850    0.8630 C   0  0  0  0  0  0  0  0  0  0  0  0
   -3.7340   15.1850   -1.4870 C   0  0  0  0  0  0  0  0  0  0  0  0
   -3.1810   15.0960   -0.2130 C   0  0  0  0  0  0  0  0  0  0  0  0
  1  2  3  0
  2  3  1  0
  3  4  2  0
  3  5  1  0
  4  6  1  0
  4  7  1  0
  5  8  2  0
  8  9  1  0
  7 10  2  0
  8 10  1  0
  9 11  1  0
 11 12  1  0
 12 13  1  0
 13 14  1  0
 14 15  1  0
 15 16  2  0
 15 17  1  0
 16 18  1  0
 17 19  2  0
 18 20  2  0
 19 20  1  0
M  END
