x0855_0_A_α-x0421_0_A_α
     RDKit          3D

 23 25  0  0  0  0  0  0  0  0999 V2000
    1.7290   12.8230   -2.3530 O   0  0  0  0  0  0  0  0  0  0  0  0
    0.5370   12.2580   -2.8800 C   0  0  0  0  0  0  0  0  0  0  0  0
    0.3960   12.5620   -4.3950 C   0  0  0  0  0  0  0  0  0  0  0  0
    0.7340   10.8570   -2.7710 O   0  0  0  0  0  0  0  0  0  0  0  0
   -0.6610   12.5650   -1.9570 C   0  0  0  0  0  0  0  0  0  0  0  0
   -0.8510   13.9960   -1.4380 C   0  0  0  0  0  0  0  0  0  0  0  0
   -0.5480   11.6860   -5.0460 N   0  0  0  0  0  0  0  0  0  0  0  0
   -1.8170   14.6020   -2.3290 N   0  0  0  0  0  0  0  0  0  0  0  0
   -0.3280   10.7820   -6.0520 C   0  0  0  0  0  0  0  0  0  0  0  0
   -1.8370   11.7200   -4.6400 N   0  0  0  0  0  0  0  0  0  0  0  0
   -2.9880   15.0020   -1.9630 C   0  0  0  0  0  0  0  0  0  0  0  0
   -1.5430   10.2000   -6.2820 C   0  0  0  0  0  0  0  0  0  0  0  0
   -2.4380   10.8050   -5.4000 C   0  0  0  0  0  0  0  0  0  0  0  0
   -1.9740    8.8640   -7.5070 Br  0  0  0  0  0  0  0  0  0  0  0  0
   -3.9420   15.5480   -2.7640 N   0  0  0  0  0  0  0  0  0  0  0  0
   -3.4970   14.9320   -0.5830 C   0  0  0  0  0  0  0  0  0  0  0  0
   -2.8190   15.0000    0.6240 C   0  0  0  0  0  0  0  0  0  0  0  0
   -4.8600   14.7830   -0.3460 N   0  0  0  0  0  0  0  0  0  0  0  0
   -3.7820   14.8910    1.5890 N   0  0  0  0  0  0  0  0  0  0  0  0
   -4.9830   14.7610    0.9610 C   0  0  0  0  0  0  0  0  0  0  0  0
   -6.3280   14.6080    1.7170 C   0  0  0  0  0  0  0  0  0  0  0  0
   -7.6220   14.6350    0.9520 C   0  0  0  0  0  0  0  0  0  0  0  0
   -7.1220   13.3470    1.5320 C   0  0  0  0  0  0  0  0  0  0  0  0
  2  1  1  0
  2  3  1  0
  2  4  1  0
  2  5  1  0
  5  6  1  0
  3  7  1  0
  6  8  1  0
  7  9  1  0
  7 10  1  0
  8 11  2  3
  9 12  2  0
 10 13  2  0
 12 13  1  0
 12 14  1  0
 11 15  1  0
 11 16  1  0
 16 17  2  0
 16 18  1  0
 17 19  1  0
 18 20  2  0
 19 20  1  0
 20 21  1  0
 21 22  1  0
 21 23  1  0
 22 23  1  0
M  END
