x0855_0_A-x1012_0_A
     RDKit          3D

 19 20  0  0  0  0  0  0  0  0999 V2000
    2.2170   12.5230   -3.0840 O   0  0  0  0  0  0  0  0  0  0  0  0
    0.9250   12.5070   -3.6470 C   0  0  0  0  0  0  0  0  0  0  0  0
    0.8450   12.1500   -5.1300 C   0  0  0  0  0  0  0  0  0  0  0  0
    0.2280   11.5150   -2.8770 O   0  0  0  0  0  0  0  0  0  0  0  0
    0.2390   13.8640   -3.5630 C   0  0  0  0  0  0  0  0  0  0  0  0
   -0.3110   11.3870   -5.4780 N   0  0  0  0  0  0  0  0  0  0  0  0
   -1.2260   14.0370   -3.2550 C   0  0  0  0  0  0  0  0  0  0  0  0
    1.0580   15.0970   -3.3220 C   0  0  0  0  0  0  0  0  0  0  0  0
   -0.3750   10.3740   -6.3720 C   0  0  0  0  0  0  0  0  0  0  0  0
   -1.4980   11.6590   -4.8830 N   0  0  0  0  0  0  0  0  0  0  0  0
   -1.7600   15.0040   -4.3140 C   0  0  0  0  0  0  0  0  0  0  0  0
    0.6240   16.0800   -4.3820 C   0  0  0  0  0  0  0  0  0  0  0  0
   -1.6710    9.9580   -6.3520 C   0  0  0  0  0  0  0  0  0  0  0  0
   -2.3300   10.7710   -5.4260 C   0  0  0  0  0  0  0  0  0  0  0  0
   -0.8400   16.1480   -4.5940 N   0  0  0  0  0  0  0  0  0  0  0  0
   -2.4300    8.5820   -7.3460 Br  0  0  0  0  0  0  0  0  0  0  0  0
   -1.3010   17.4130   -4.7990 C   0  0  0  0  0  0  0  0  0  0  0  0
   -0.3990   18.4030   -4.8680 N   0  0  0  0  0  0  0  0  0  0  0  0
   -2.4730   17.6900   -4.8890 O   0  0  0  0  0  0  0  0  0  0  0  0
  2  1  1  0
  2  3  1  0
  2  4  1  0
  2  5  1  0
  3  6  1  0
  5  7  1  0
  5  8  1  0
  6  9  1  0
  6 10  1  0
  7 11  1  0
  8 12  1  0
  9 13  2  0
 10 14  2  0
 13 14  1  0
 11 15  1  0
 12 15  1  0
 13 16  1  0
 15 17  1  0
 17 18  1  0
 17 19  2  0
M  END
