x0855_0_A_α-x0689_0_A_α
     RDKit          3D

 20 21  0  0  0  0  0  0  0  0999 V2000
    2.4210   12.5440   -3.0120 O   0  0  0  0  0  0  0  0  0  0  0  0
    1.0640   12.5010   -3.3480 C   0  0  0  0  0  0  0  0  0  0  0  0
    0.8150   12.5010   -4.8720 C   0  0  0  0  0  0  0  0  0  0  0  0
    0.6230   11.2330   -2.8510 O   0  0  0  0  0  0  0  0  0  0  0  0
    0.3050   13.6280   -2.6380 C   0  0  0  0  0  0  0  0  0  0  0  0
    0.7910   14.1140   -1.2670 C   0  0  0  0  0  0  0  0  0  0  0  0
   -0.2930   11.6680   -5.2710 N   0  0  0  0  0  0  0  0  0  0  0  0
   -0.2760   10.6840   -6.2190 C   0  0  0  0  0  0  0  0  0  0  0  0
   -1.5020   11.8240   -4.6830 N   0  0  0  0  0  0  0  0  0  0  0  0
   -0.3680   14.3720   -0.3760 C   0  0  0  0  0  0  0  0  0  0  0  0
   -1.5410   10.1740   -6.2330 C   0  0  0  0  0  0  0  0  0  0  0  0
   -2.2660   10.8980   -5.2790 C   0  0  0  0  0  0  0  0  0  0  0  0
   -1.5670   14.6540   -0.9530 C   0  0  0  0  0  0  0  0  0  0  0  0
   -0.3880   14.3560    1.0110 C   0  0  0  0  0  0  0  0  0  0  0  0
   -2.2030    8.7900   -7.2940 Br  0  0  0  0  0  0  0  0  0  0  0  0
   -2.6800   14.9090   -0.2790 N   0  0  0  0  0  0  0  0  0  0  0  0
   -1.4910   14.6050    1.7420 N   0  0  0  0  0  0  0  0  0  0  0  0
   -2.6000   14.8810    1.0490 C   0  0  0  0  0  0  0  0  0  0  0  0
   -3.7440   15.1680    1.7550 N   0  0  0  0  0  0  0  0  0  0  0  0
   -4.9010   15.2090    0.9050 C   0  0  0  0  0  0  0  0  0  0  0  0
  2  1  1  0
  2  3  1  0
  2  4  1  0
  2  5  1  0
  5  6  1  0
  3  7  1  0
  7  8  1  0
  7  9  1  0
  6 10  1  0
  8 11  2  0
  9 12  2  0
 11 12  1  0
 10 13  2  0
 10 14  1  0
 11 15  1  0
 13 16  1  0
 14 17  2  0
 16 18  2  0
 17 18  1  0
 18 19  1  0
 19 20  1  0
M  END
