x0855_0_A-x0910_0_A
     RDKit          3D

 19 20  0  0  0  0  0  0  0  0999 V2000
    2.2120   12.5230   -2.8460 O   0  0  0  0  0  0  0  0  0  0  0  0
    0.8720   12.2250   -3.1830 C   0  0  0  0  0  0  0  0  0  0  0  0
    0.6280   12.5460   -4.6750 C   0  0  0  0  0  0  0  0  0  0  0  0
    0.6350   10.8720   -2.8470 O   0  0  0  0  0  0  0  0  0  0  0  0
    0.0080   13.0990   -2.2630 C   0  0  0  0  0  0  0  0  0  0  0  0
   -1.3920   12.5770   -1.9200 C   0  0  0  0  0  0  0  0  0  0  0  0
   -0.4200   11.6820   -5.1870 N   0  0  0  0  0  0  0  0  0  0  0  0
   -2.5480   13.4160   -2.4560 C   0  0  0  0  0  0  0  0  0  0  0  0
   -0.3130   10.7290   -6.1530 C   0  0  0  0  0  0  0  0  0  0  0  0
   -1.6670   11.7970   -4.6690 N   0  0  0  0  0  0  0  0  0  0  0  0
   -2.7250   14.5800   -1.6080 N   0  0  0  0  0  0  0  0  0  0  0  0
   -1.5640   10.1870   -6.2570 C   0  0  0  0  0  0  0  0  0  0  0  0
   -2.3640   10.8690   -5.3340 C   0  0  0  0  0  0  0  0  0  0  0  0
   -2.1290    8.8130   -7.3830 Br  0  0  0  0  0  0  0  0  0  0  0  0
   -1.8570   14.7240   -0.5900 C   0  0  0  0  0  0  0  0  0  0  0  0
   -2.2580   14.6990    0.7150 N   0  0  0  0  0  0  0  0  0  0  0  0
   -0.5580   14.9050   -0.6360 N   0  0  0  0  0  0  0  0  0  0  0  0
   -1.2120   14.8610    1.5390 N   0  0  0  0  0  0  0  0  0  0  0  0
   -0.2100   14.9870    0.6760 C   0  0  0  0  0  0  0  0  0  0  0  0
  2  1  1  0
  2  3  1  0
  2  4  1  0
  2  5  1  0
  5  6  1  0
  3  7  1  0
  6  8  1  0
  7  9  1  0
  7 10  1  0
  8 11  1  0
  9 12  2  0
 10 13  2  0
 12 13  1  0
 12 14  1  0
 11 15  1  0
 15 16  1  0
 15 17  2  0
 16 18  1  0
 17 19  1  0
 18 19  2  0
M  END
