x0852_0_B-x0895_1_A
     RDKit          3D

 18 19  0  0  0  0  0  0  0  0999 V2000
   -9.9130   17.7510    7.0000 N   0  0  0  0  0  0  0  0  0  0  0  0
   -9.5890   17.1910    6.0320 C   0  0  0  0  0  0  0  0  0  0  0  0
   -9.1100   16.4650    4.8920 C   0  0  0  0  0  0  0  0  0  0  0  0
   -8.0870   15.5440    5.0310 C   0  0  0  0  0  0  0  0  0  0  0  0
   -9.6590   16.6630    3.6100 C   0  0  0  0  0  0  0  0  0  0  0  0
   -7.5140   15.2960    6.2450 O   0  0  0  0  0  0  0  0  0  0  0  0
   -7.6080   14.8480    3.9500 C   0  0  0  0  0  0  0  0  0  0  0  0
   -9.1630   15.9370    2.4900 C   0  0  0  0  0  0  0  0  0  0  0  0
   -9.9960   16.2940    0.8230 Br  0  0  0  0  0  0  0  0  0  0  0  0
   -8.0970   15.0070    2.6610 C   0  0  0  0  0  0  0  0  0  0  0  0
   -7.3540   14.1050    1.6510 C   0  0  0  0  0  0  0  0  0  0  0  0
   -6.5810   14.7250    0.5350 N   0  0  0  0  0  0  0  0  0  0  0  0
   -5.2780   14.8770    0.4380 C   0  0  0  0  0  0  0  0  0  0  0  0
   -4.5280   15.3980   -0.5740 N   0  0  0  0  0  0  0  0  0  0  0  0
   -4.3790   14.5020    1.4020 N   0  0  0  0  0  0  0  0  0  0  0  0
   -3.2230   14.7620   -0.5440 C   0  0  0  0  0  0  0  0  0  0  0  0
   -3.0780   14.6710    0.9690 C   0  0  0  0  0  0  0  0  0  0  0  0
   -2.0300   14.7370    1.6280 O   0  0  0  0  0  0  0  0  0  0  0  0
  1  2  3  0
  2  3  1  0
  3  4  2  0
  3  5  1  0
  4  6  1  0
  4  7  1  0
  5  8  2  0
  8  9  1  0
  7 10  2  0
  8 10  1  0
 10 11  1  0
 11 12  1  0
 12 13  2  3
 13 14  1  0
 13 15  1  0
 14 16  1  0
 15 17  1  0
 16 17  1  0
 17 18  2  0
M  END
