x0855_0_A_α-x0628_0_A_α
     RDKit          3D

 12 12  0  0  0  0  0  0  0  0999 V2000
    1.2460   12.8140   -2.3690 O   0  0  0  0  0  0  0  0  0  0  0  0
    0.7830   11.9000   -3.2620 C   0  0  0  0  0  0  0  0  0  0  0  0
    0.8700   12.4020   -4.7100 C   0  0  2  0  0  0  0  0  0  0  0  0
    0.3400   10.8160   -2.9280 O   0  0  0  0  0  0  0  0  0  0  0  0
    1.4680   13.7980   -4.7430 C   0  0  0  0  0  0  0  0  0  0  0  0
   -0.4430   12.1590   -5.4000 N   0  0  0  0  0  0  0  0  0  0  0  0
   -0.3680   11.0810   -6.4190 C   0  0  0  0  0  0  0  0  0  0  0  0
   -1.4660   11.7240   -4.4360 N   0  0  0  0  0  0  0  0  0  0  0  0
   -2.3060   12.8470   -4.0310 C   0  0  0  0  0  0  0  0  0  0  0  0
   -1.2050    9.9430   -5.8710 C   0  0  1  0  0  0  0  0  0  0  0  0
   -2.2700   10.6960   -5.1150 C   0  0  0  0  0  0  0  0  0  0  0  0
   -1.9400    8.8070   -7.2550 Br  0  0  0  0  0  0  0  0  0  0  0  0
  1  2  1  0
  2  3  1  0
  2  4  2  0
  3  5  1  1
  3  6  1  0
  6  7  1  0
  6  8  1  0
  8  9  1  0
  7 10  1  0
  8 11  1  0
 10 11  1  0
 10 12  1  6
M  END
