x0852_0_B_α-x0587_0_A_α
     RDKit          3D

 22 23  0  0  0  0  0  0  0  0999 V2000
   -9.4640   17.4020    7.1510 N   0  0  0  0  0  0  0  0  0  0  0  0
   -9.4030   17.0850    6.0320 C   0  0  0  0  0  0  0  0  0  0  0  0
   -9.4290   16.6990    4.6480 C   0  0  0  0  0  0  0  0  0  0  0  0
   -8.6090   15.7400    4.0500 C   0  0  0  0  0  0  0  0  0  0  0  0
  -10.3460   17.3070    3.7850 C   0  0  0  0  0  0  0  0  0  0  0  0
   -7.6350   14.9460    4.5010 O   0  0  0  0  0  0  0  0  0  0  0  0
   -8.6860   15.4010    2.7230 C   0  0  0  0  0  0  0  0  0  0  0  0
  -10.4010   16.9370    2.4220 C   0  0  0  0  0  0  0  0  0  0  0  0
  -11.5960   17.6930    1.1790 Br  0  0  0  0  0  0  0  0  0  0  0  0
   -7.8470   14.1270    3.3730 C   0  0  0  0  0  0  0  0  0  0  0  0
   -9.5730   15.9880    1.9030 C   0  0  0  0  0  0  0  0  0  0  0  0
   -8.7500   13.3030    3.3250 O   0  0  0  0  0  0  0  0  0  0  0  0
   -7.0010   14.3320    2.1330 C   0  0  0  0  0  0  0  0  0  0  0  0
   -7.4130   13.9040    0.8770 C   0  0  0  0  0  0  0  0  0  0  0  0
   -5.7630   14.9450    2.1200 C   0  0  0  0  0  0  0  0  0  0  0  0
   -6.6860   14.0350   -0.2640 N   0  0  0  0  0  0  0  0  0  0  0  0
   -4.9900   15.0950    1.0110 N   0  0  0  0  0  0  0  0  0  0  0  0
   -5.4700   14.6220   -0.1610 C   0  0  0  0  0  0  0  0  0  0  0  0
   -4.5960   14.7380   -1.4170 C   0  0  0  0  0  0  0  0  0  0  0  0
   -3.3420   15.2140   -1.1630 F   0  0  0  0  0  0  0  0  0  0  0  0
   -4.3990   13.5210   -2.0080 F   0  0  0  0  0  0  0  0  0  0  0  0
   -5.1040   15.5270   -2.3980 F   0  0  0  0  0  0  0  0  0  0  0  0
  1  2  3  0
  2  3  1  0
  3  4  2  0
  3  5  1  0
  4  6  1  0
  4  7  1  0
  5  8  2  0
  8  9  1  0
  6 10  1  0
  7 11  2  0
  8 11  1  0
 10 12  2  0
 10 13  1  0
 13 14  2  0
 13 15  1  0
 14 16  1  0
 15 17  2  0
 16 18  2  0
 17 18  1  0
 18 19  1  0
 19 20  1  0
 19 21  1  0
 19 22  1  0
M  END
