x0855_0_A-x0950_1_A
     RDKit          3D

 12 12  0  0  0  0  0  0  0  0999 V2000
    1.4570   12.9840   -2.5910 O   0  0  0  0  0  0  0  0  0  0  0  0
    0.8880   12.0610   -3.3950 C   0  0  0  0  0  0  0  0  0  0  0  0
    0.6880   12.5070   -4.8600 C   0  0  1  0  0  0  0  0  0  0  0  0
    0.5820   10.9760   -2.9250 O   0  0  0  0  0  0  0  0  0  0  0  0
    0.5980   14.0280   -4.9430 C   0  0  0  0  0  0  0  0  0  0  0  0
    1.7750   12.1530   -5.7110 O   0  0  0  0  0  0  0  0  0  0  0  0
   -0.4650   11.7650   -5.3790 N   0  0  0  0  0  0  0  0  0  0  0  0
   -0.4450   10.6150   -6.1130 C   0  0  0  0  0  0  0  0  0  0  0  0
   -1.7230   12.2080   -5.1420 N   0  0  0  0  0  0  0  0  0  0  0  0
   -1.7440   10.2940   -6.3450 C   0  0  0  0  0  0  0  0  0  0  0  0
   -2.5010   11.2950   -5.7370 C   0  0  0  0  0  0  0  0  0  0  0  0
   -2.3980    8.8220   -7.2830 Br  0  0  0  0  0  0  0  0  0  0  0  0
  1  2  1  0
  2  3  1  0
  2  4  2  0
  3  5  1  1
  3  6  1  0
  3  7  1  0
  7  8  1  0
  7  9  1  0
  8 10  2  0
  9 11  2  0
 10 11  1  0
 10 12  1  0
M  END
