x0852_0_B-x0689_0_A
     RDKit          3D

 20 21  0  0  0  0  0  0  0  0999 V2000
   -9.5400   17.3570    7.2190 N   0  0  0  0  0  0  0  0  0  0  0  0
   -9.3580   16.9190    6.1530 C   0  0  0  0  0  0  0  0  0  0  0  0
   -9.2370   16.4190    4.8110 C   0  0  0  0  0  0  0  0  0  0  0  0
   -8.3100   15.4160    4.4330 C   0  0  0  0  0  0  0  0  0  0  0  0
  -10.0920   16.9660    3.8470 C   0  0  0  0  0  0  0  0  0  0  0  0
   -7.4930   14.9070    5.4050 O   0  0  0  0  0  0  0  0  0  0  0  0
   -8.2500   14.9730    3.0780 C   0  0  0  0  0  0  0  0  0  0  0  0
  -10.0260   16.5200    2.5360 C   0  0  0  0  0  0  0  0  0  0  0  0
  -11.1590   17.2350    1.2060 Br  0  0  0  0  0  0  0  0  0  0  0  0
   -7.3330   13.9420    2.4420 C   0  0  0  0  0  0  0  0  0  0  0  0
   -9.1270   15.5490    2.1630 C   0  0  0  0  0  0  0  0  0  0  0  0
   -6.1500   14.6950    1.7960 C   0  0  0  0  0  0  0  0  0  0  0  0
   -4.8480   14.0090    1.3960 C   0  0  0  0  0  0  0  0  0  0  0  0
   -3.7350   14.9000    1.7060 N   0  0  0  0  0  0  0  0  0  0  0  0
   -2.5190   14.7000    1.0490 C   0  0  0  0  0  0  0  0  0  0  0  0
   -2.4080   14.7380   -0.2870 N   0  0  0  0  0  0  0  0  0  0  0  0
   -1.5050   14.4850    1.8670 N   0  0  0  0  0  0  0  0  0  0  0  0
   -1.1750   14.5480   -0.7980 C   0  0  0  0  0  0  0  0  0  0  0  0
   -0.3030   14.3040    1.3240 C   0  0  0  0  0  0  0  0  0  0  0  0
   -0.0630   14.3250   -0.0260 C   0  0  0  0  0  0  0  0  0  0  0  0
  1  2  3  0
  2  3  1  0
  3  4  2  0
  3  5  1  0
  4  6  1  0
  4  7  1  0
  5  8  2  0
  8  9  1  0
  7 10  1  0
  7 11  2  0
  8 11  1  0
 10 12  1  0
 12 13  1  0
 13 14  1  0
 14 15  1  0
 15 16  2  0
 15 17  1  0
 16 18  1  0
 17 19  2  0
 18 20  2  0
 19 20  1  0
M  END
