x0855_0_A-x0962_3_A
     RDKit          3D

 16 17  0  0  0  0  0  0  0  0999 V2000
    1.7260   12.9950   -2.2960 O   0  0  0  0  0  0  0  0  0  0  0  0
    0.7630   12.2080   -2.8080 C   0  0  0  0  0  0  0  0  0  0  0  0
   -0.2930   12.8740   -3.6280 C   0  0  0  0  0  0  0  0  0  0  0  0
    0.7450   10.9980   -2.6270 O   0  0  0  0  0  0  0  0  0  0  0  0
   -0.9700   11.8780   -4.4010 N   0  0  0  0  0  0  0  0  0  0  0  0
   -0.4070   11.2500   -5.4150 C   0  0  0  0  0  0  0  0  0  0  0  0
   -2.2490   11.4800   -4.1610 N   0  0  0  0  0  0  0  0  0  0  0  0
   -1.3250   10.3910   -5.8950 C   0  0  0  0  0  0  0  0  0  0  0  0
   -2.4730   10.5380   -5.1070 C   0  0  0  0  0  0  0  0  0  0  0  0
   -0.8980    9.6710   -6.9670 N   0  0  0  0  0  0  0  0  0  0  0  0
   -0.9820    8.4200   -7.5370 C   0  0  0  0  0  0  0  0  0  0  0  0
   -0.1150   10.4180   -7.7300 C   0  0  0  0  0  0  0  0  0  0  0  0
    0.2710    9.6650   -8.7240 C   0  0  0  0  0  0  0  0  0  0  0  0
   -0.2490    8.3900   -8.6500 N   0  0  0  0  0  0  0  0  0  0  0  0
    1.1130   10.2090   -9.6940 C   0  0  0  0  0  0  0  0  0  0  0  0
    1.7630   10.7770  -10.4370 N   0  0  0  0  0  0  0  0  0  0  0  0
  1  2  1  0
  2  3  1  0
  2  4  2  0
  3  5  1  0
  5  6  1  0
  5  7  1  0
  6  8  2  0
  7  9  2  0
  8  9  1  0
  8 10  1  0
 10 11  1  0
 10 12  1  0
 12 13  2  0
 11 14  2  0
 13 14  1  0
 13 15  1  0
 15 16  3  0
M  END
