x0852_0_B-x0724_0_A
     RDKit          3D

 23 25  0  0  0  0  0  0  0  0999 V2000
   -9.6730   17.6760    7.3780 N   0  0  0  0  0  0  0  0  0  0  0  0
   -9.5310   17.2480    6.3070 C   0  0  0  0  0  0  0  0  0  0  0  0
   -9.3860   16.7340    4.9810 C   0  0  0  0  0  0  0  0  0  0  0  0
   -8.4560   15.7470    4.6610 C   0  0  0  0  0  0  0  0  0  0  0  0
  -10.2070   17.2310    3.9610 C   0  0  0  0  0  0  0  0  0  0  0  0
   -7.6070   15.1630    5.5440 O   0  0  0  0  0  0  0  0  0  0  0  0
   -8.3440   15.2750    3.3630 C   0  0  0  0  0  0  0  0  0  0  0  0
  -10.0870   16.7370    2.6590 C   0  0  0  0  0  0  0  0  0  0  0  0
  -11.1730   17.3680    1.2490 Br  0  0  0  0  0  0  0  0  0  0  0  0
   -7.3280   13.9080    4.8560 N   0  0  0  0  0  0  0  0  0  0  0  0
   -9.1610   15.7700    2.3610 C   0  0  0  0  0  0  0  0  0  0  0  0
   -8.2850   13.8730    3.7370 C   0  0  0  0  0  0  0  0  0  0  0  0
   -7.5970   14.1170    2.4180 C   0  0  0  0  0  0  0  0  0  0  0  0
   -6.2450   14.2260    2.1380 C   0  0  0  0  0  0  0  0  0  0  0  0
   -8.2010   14.2780    1.1460 C   0  0  0  0  0  0  0  0  0  0  0  0
   -7.3260   14.4670    0.1660 N   0  0  0  0  0  0  0  0  0  0  0  0
   -6.1160   14.4280    0.7770 N   0  0  0  0  0  0  0  0  0  0  0  0
   -4.9250   14.5720    0.0250 C   0  0  0  0  0  0  0  0  0  0  0  0
   -3.6980   14.7020    0.6830 C   0  0  0  0  0  0  0  0  0  0  0  0
   -4.9660   14.5750   -1.3770 C   0  0  0  0  0  0  0  0  0  0  0  0
   -2.5230   14.8290   -0.0530 C   0  0  0  0  0  0  0  0  0  0  0  0
   -3.7890   14.7040   -2.1060 C   0  0  0  0  0  0  0  0  0  0  0  0
   -2.5690   14.8290   -1.4490 C   0  0  0  0  0  0  0  0  0  0  0  0
  1  2  3  0
  2  3  1  0
  3  4  2  0
  3  5  1  0
  4  6  1  0
  4  7  1  0
  5  8  2  0
  8  9  1  0
  6 10  1  0
  7 11  2  0
  8 11  1  0
 10 12  1  0
 12 13  1  0
 13 14  2  0
 13 15  1  0
 15 16  2  0
 14 17  1  0
 16 17  1  0
 17 18  1  0
 18 19  2  0
 18 20  1  0
 19 21  1  0
 20 22  2  0
 21 23  2  0
 22 23  1  0
M  END
