x0852_0_B-x0910_1_A
     RDKit          3D

 17 18  0  0  0  0  0  0  0  0999 V2000
   -9.6530   17.7600    7.2830 N   0  0  0  0  0  0  0  0  0  0  0  0
   -9.4180   17.2460    6.2670 C   0  0  0  0  0  0  0  0  0  0  0  0
   -9.2170   16.5630    5.0240 C   0  0  0  0  0  0  0  0  0  0  0  0
   -8.3020   15.5090    4.8940 C   0  0  0  0  0  0  0  0  0  0  0  0
   -9.9670   16.9670    3.9170 C   0  0  0  0  0  0  0  0  0  0  0  0
   -7.5630   15.1150    5.9800 O   0  0  0  0  0  0  0  0  0  0  0  0
   -8.1520   14.8650    3.6650 C   0  0  0  0  0  0  0  0  0  0  0  0
   -9.8190   16.3250    2.6860 C   0  0  0  0  0  0  0  0  0  0  0  0
  -10.8840   16.9400    1.2390 Br  0  0  0  0  0  0  0  0  0  0  0  0
   -8.9130   15.2650    2.5440 C   0  0  0  0  0  0  0  0  0  0  0  0
   -8.7210   14.5340    1.2340 C   0  0  0  0  0  0  0  0  0  0  0  0
   -7.4140   13.9200    1.2210 N   0  0  0  0  0  0  0  0  0  0  0  0
   -6.4470   14.5980    0.5790 C   0  0  0  0  0  0  0  0  0  0  0  0
   -6.5760   15.0050   -0.7210 N   0  0  0  0  0  0  0  0  0  0  0  0
   -5.2750   14.9830    1.0220 N   0  0  0  0  0  0  0  0  0  0  0  0
   -5.4820   15.6680   -1.1370 N   0  0  0  0  0  0  0  0  0  0  0  0
   -4.7250   15.6260   -0.0400 C   0  0  0  0  0  0  0  0  0  0  0  0
  1  2  3  0
  2  3  1  0
  3  4  2  0
  3  5  1  0
  4  6  1  0
  4  7  1  0
  5  8  2  0
  8  9  1  0
  7 10  2  0
  8 10  1  0
 10 11  1  0
 11 12  1  0
 12 13  1  0
 13 14  1  0
 13 15  2  0
 14 16  1  0
 15 17  1  0
 16 17  2  0
M  END
