x0855_0_A-x0662_0_A
     RDKit          3D

 27 29  0  0  0  0  0  0  0  0999 V2000
    0.9510   13.2570   -3.5220 O   0  0  0  0  0  0  0  0  0  0  0  0
    0.4820   12.0100   -3.3480 C   0  0  0  0  0  0  0  0  0  0  0  0
    0.1500   11.2300   -4.5870 C   0  0  2  0  0  0  0  0  0  0  0  0
    0.3820   11.5810   -2.2170 O   0  0  0  0  0  0  0  0  0  0  0  0
    0.6510   11.6130   -5.9430 C   0  0  0  0  0  0  0  0  0  0  0  0
   -1.1830   11.0120   -4.9010 N   0  0  0  0  0  0  0  0  0  0  0  0
    1.2550   12.6260   -6.1350 O   0  0  0  0  0  0  0  0  0  0  0  0
   -1.4620    9.9360   -5.6400 C   0  0  0  0  0  0  0  0  0  0  0  0
   -2.2360   11.7770   -4.5610 N   0  0  0  0  0  0  0  0  0  0  0  0
    0.3260   10.6760   -7.1120 C   0  0  0  0  0  0  0  0  0  0  0  0
   -2.7720    9.9580   -5.8330 C   0  0  0  0  0  0  0  0  0  0  0  0
   -3.2400   11.0990   -5.1560 C   0  0  0  0  0  0  0  0  0  0  0  0
   -0.5870    9.6120   -7.0400 C   0  0  0  0  0  0  0  0  0  0  0  0
    0.9670   10.8780   -8.3230 C   0  0  0  0  0  0  0  0  0  0  0  0
   -3.7100    8.6940   -6.8190 Br  0  0  0  0  0  0  0  0  0  0  0  0
   -0.8310    8.8030   -8.1560 C   0  0  0  0  0  0  0  0  0  0  0  0
    0.7460   10.0850   -9.4460 C   0  0  0  0  0  0  0  0  0  0  0  0
    1.3910   10.2650  -10.6870 N   0  0  0  0  0  0  0  0  0  0  0  0
   -0.1630    9.0410   -9.3570 C   0  0  0  0  0  0  0  0  0  0  0  0
    2.2120    9.3610  -11.3350 C   0  0  0  0  0  0  0  0  0  0  0  0
    2.3980    8.2000  -11.0010 O   0  0  0  0  0  0  0  0  0  0  0  0
    2.9040    9.9200  -12.5190 C   0  0  0  0  0  0  0  0  0  0  0  0
    2.7060   11.1790  -13.1460 C   0  0  0  0  0  0  0  0  0  0  0  0
    3.8720    9.2130  -13.1470 N   0  0  0  0  0  0  0  0  0  0  0  0
    4.2720   10.0220  -14.1460 N   0  0  0  0  0  0  0  0  0  0  0  0
    3.6040   11.2130  -14.1880 C   0  0  0  0  0  0  0  0  0  0  0  0
    5.3220    9.5780  -15.0330 C   0  0  0  0  0  0  0  0  0  0  0  0
  1  2  1  0
  3  2  1  1
  2  4  2  0
  3  5  1  0
  3  6  1  0
  5  7  2  0
  6  8  1  0
  6  9  1  0
  5 10  1  0
  8 11  2  0
  9 12  2  0
 11 12  1  0
 10 13  2  0
 10 14  1  0
 11 15  1  0
 13 16  1  0
 14 17  2  0
 17 18  1  0
 16 19  2  0
 17 19  1  0
 18 20  1  0
 20 21  2  0
 20 22  1  0
 22 23  1  0
 22 24  2  0
 24 25  1  0
 23 26  2  0
 25 26  1  0
 25 27  1  0
M  END
