x0852_0_B-x0900_0_A
     RDKit          3D

 19 20  0  0  0  0  0  0  0  0999 V2000
   -9.7200   17.8150    7.1520 N   0  0  0  0  0  0  0  0  0  0  0  0
   -9.4680   17.2900    6.1460 C   0  0  0  0  0  0  0  0  0  0  0  0
   -9.2040   16.5710    4.9380 C   0  0  0  0  0  0  0  0  0  0  0  0
   -8.2810   15.5180    4.9060 C   0  0  0  0  0  0  0  0  0  0  0  0
   -9.8910   16.9260    3.7610 C   0  0  0  0  0  0  0  0  0  0  0  0
   -7.5580   15.0890    5.9880 O   0  0  0  0  0  0  0  0  0  0  0  0
   -8.0540   14.8330    3.7230 C   0  0  0  0  0  0  0  0  0  0  0  0
   -9.6600   16.2310    2.5630 C   0  0  0  0  0  0  0  0  0  0  0  0
  -10.3800   16.6510    1.4660 O   0  0  0  0  0  0  0  0  0  0  0  0
   -8.7410   15.1860    2.5620 C   0  0  0  0  0  0  0  0  0  0  0  0
  -10.3900   15.7620    0.3440 C   0  0  0  0  0  0  0  0  0  0  0  0
   -9.1100   15.9300   -0.4780 C   0  0  0  0  0  0  0  0  0  0  0  0
   -8.0660   14.8700   -0.1180 C   0  0  0  0  0  0  0  0  0  0  0  0
   -6.9020   15.0090   -0.9800 N   0  0  0  0  0  0  0  0  0  0  0  0
   -5.7500   14.9360   -0.4210 C   0  0  0  0  0  0  0  0  0  0  0  0
   -4.5750   15.0600   -1.1180 N   0  0  0  0  0  0  0  0  0  0  0  0
   -5.4280   14.7050    1.0450 C   0  0  0  0  0  0  0  0  0  0  0  0
   -4.0270   15.3090    1.0950 C   0  0  0  0  0  0  0  0  0  0  0  0
   -3.4470   14.8470   -0.2380 C   0  0  0  0  0  0  0  0  0  0  0  0
  1  2  3  0
  2  3  1  0
  3  4  2  0
  3  5  1  0
  4  6  1  0
  4  7  1  0
  5  8  2  0
  8  9  1  0
  7 10  2  0
  8 10  1  0
  9 11  1  0
 11 12  1  0
 12 13  1  0
 13 14  1  0
 14 15  2  3
 15 16  1  0
 15 17  1  0
 17 18  1  0
 16 19  1  0
 18 19  1  0
M  END
