x0855_0_A-x0159_0_B
     RDKit          3D

 31 34  0  0  0  0  0  0  0  0999 V2000
    1.5500   13.1570   -2.6790 O   0  0  0  0  0  0  0  0  0  0  0  0
    0.9290   12.1720   -3.3560 C   0  0  0  0  0  0  0  0  0  0  0  0
    0.5510   12.5650   -4.7620 C   0  0  0  0  0  0  0  0  0  0  0  0
    0.7350   11.1070   -2.7990 O   0  0  0  0  0  0  0  0  0  0  0  0
   -0.4650   11.6490   -5.2340 N   0  0  0  0  0  0  0  0  0  0  0  0
   -0.3110   10.6630   -6.1720 C   0  0  0  0  0  0  0  0  0  0  0  0
   -1.7140   11.7200   -4.7260 N   0  0  0  0  0  0  0  0  0  0  0  0
   -1.5330   10.0430   -6.2730 C   0  0  0  0  0  0  0  0  0  0  0  0
   -2.3620   10.7360   -5.3630 C   0  0  0  0  0  0  0  0  0  0  0  0
   -1.9040    8.9930   -7.0560 O   0  0  0  0  0  0  0  0  0  0  0  0
   -1.3800    7.7140   -6.6560 C   0  0  0  0  0  0  0  0  0  0  0  0
   -1.3020    6.7430   -7.8460 C   0  0  0  0  0  0  0  0  0  0  0  0
   -0.6160    7.3800   -9.0650 C   0  0  0  0  0  0  0  0  0  0  0  0
    0.8460    6.9140   -9.3340 C   0  0  1  0  0  0  0  0  0  0  0  0
    1.8300    8.0910   -9.1890 C   0  0  0  0  0  0  0  0  0  0  0  0
    1.2810    5.7240   -8.5030 C   0  0  0  0  0  0  0  0  0  0  0  0
    1.4420    9.1600  -10.1010 N   0  0  0  0  0  0  0  0  0  0  0  0
    2.1700    4.8080   -9.0890 C   0  0  0  0  0  0  0  0  0  0  0  0
    0.8440    5.5040   -7.1980 C   0  0  0  0  0  0  0  0  0  0  0  0
    2.2160    9.3950  -11.1760 C   0  0  0  0  0  0  0  0  0  0  0  0
    2.6110    3.6970   -8.3840 C   0  0  0  0  0  0  0  0  0  0  0  0
    1.2850    4.3950   -6.5040 C   0  0  0  0  0  0  0  0  0  0  0  0
    2.0080   10.5360  -11.9040 N   0  0  0  0  0  0  0  0  0  0  0  0
    3.1920    8.6810  -11.6770 N   0  0  0  0  0  0  0  0  0  0  0  0
    2.1700    3.4930   -7.0960 C   0  0  0  0  0  0  0  0  0  0  0  0
    3.6460    9.3920  -12.7670 C   0  0  0  0  0  0  0  0  0  0  0  0
    2.9140   10.5640  -12.9270 C   0  0  0  0  0  0  0  0  0  0  0  0
    3.1540   11.4850  -13.9490 C   0  0  0  0  0  0  0  0  0  0  0  0
    4.6810    9.1030  -13.6650 C   0  0  0  0  0  0  0  0  0  0  0  0
    4.1890   11.1810  -14.8340 C   0  0  0  0  0  0  0  0  0  0  0  0
    4.9430   10.0130  -14.7000 C   0  0  0  0  0  0  0  0  0  0  0  0
  1  2  1  0
  2  3  1  0
  2  4  2  0
  3  5  1  0
  5  6  1  0
  5  7  1  0
  6  8  2  0
  7  9  2  0
  8  9  1  0
  8 10  1  0
 10 11  1  0
 11 12  1  0
 12 13  1  0
 14 13  1  1
 14 15  1  0
 14 16  1  0
 15 17  1  0
 16 18  2  0
 16 19  1  0
 17 20  1  0
 18 21  1  0
 19 22  2  0
 20 23  1  0
 20 24  2  0
 21 25  2  0
 22 25  1  0
 24 26  1  0
 23 27  1  0
 26 27  2  0
 27 28  1  0
 26 29  1  0
 28 30  2  0
 29 31  2  0
 30 31  1  0
M  END
