x0852_0_B-x0128_0_A
     RDKit          3D

 25 27  0  0  0  0  0  0  0  0999 V2000
  -11.3010   16.5990    6.5450 N   0  0  0  0  0  0  0  0  0  0  0  0
  -11.1430   16.1740    5.4720 C   0  0  0  0  0  0  0  0  0  0  0  0
  -11.0380   15.6530    4.1300 C   0  0  0  0  0  0  0  0  0  0  0  0
   -9.8770   15.0600    3.5570 C   0  0  0  0  0  0  0  0  0  0  0  0
  -12.1890   15.7660    3.3530 C   0  0  0  0  0  0  0  0  0  0  0  0
   -8.6340   14.9440    4.2320 N   0  0  0  0  0  0  0  0  0  0  0  0
   -9.9310   14.5850    2.2370 C   0  0  0  0  0  0  0  0  0  0  0  0
  -12.1980   15.3010    2.0450 C   0  0  0  0  0  0  0  0  0  0  0  0
  -13.7540   15.4810    1.0020 Br  0  0  0  0  0  0  0  0  0  0  0  0
   -7.8720   15.2130    3.0910 C   0  0  0  0  0  0  0  0  0  0  0  0
  -11.0810   14.7040    1.4850 C   0  0  0  0  0  0  0  0  0  0  0  0
   -8.8730   15.8690    5.3060 C   0  0  0  0  0  0  0  0  0  0  0  0
   -6.6110   14.8050    2.7670 N   0  0  0  0  0  0  0  0  0  0  0  0
   -8.4290   15.8560    2.2020 O   0  0  0  0  0  0  0  0  0  0  0  0
   -9.2200   17.1820    4.9910 C   0  0  0  0  0  0  0  0  0  0  0  0
   -8.8110   15.5050    6.6560 C   0  0  0  0  0  0  0  0  0  0  0  0
   -5.9310   14.8990    1.5250 C   0  0  0  0  0  0  0  0  0  0  0  0
   -9.5120   18.0590    6.0100 C   0  0  0  0  0  0  0  0  0  0  0  0
   -9.1170   16.4610    7.6100 C   0  0  0  0  0  0  0  0  0  0  0  0
   -6.5440   14.6550    0.2880 C   0  0  0  0  0  0  0  0  0  0  0  0
   -4.5790   15.2690    1.5350 C   0  0  0  0  0  0  0  0  0  0  0  0
   -9.4780   17.7300    7.3240 N   0  0  0  0  0  0  0  0  0  0  0  0
   -5.8220   14.7820   -0.9030 C   0  0  0  0  0  0  0  0  0  0  0  0
   -3.8590   15.3940    0.3490 C   0  0  0  0  0  0  0  0  0  0  0  0
   -4.4820   15.1530   -0.8760 C   0  0  0  0  0  0  0  0  0  0  0  0
  1  2  3  0
  2  3  1  0
  3  4  2  0
  3  5  1  0
  4  6  1  0
  4  7  1  0
  5  8  2  0
  8  9  1  0
  6 10  1  0
  7 11  2  0
  8 11  1  0
  6 12  1  0
 10 13  1  0
 10 14  2  0
 12 15  2  0
 12 16  1  0
 13 17  1  0
 15 18  1  0
 16 19  2  0
 17 20  2  0
 17 21  1  0
 18 22  2  0
 19 22  1  0
 20 23  1  0
 21 24  2  0
 23 25  2  0
 24 25  1  0
M  END
