x0852_0_B-x0371_0_A
     RDKit          3D

 27 30  0  0  0  0  0  0  0  0999 V2000
  -10.5450   18.7500    6.5490 N   0  0  0  0  0  0  0  0  0  0  0  0
  -10.2900   18.1740    5.5890 C   0  0  0  0  0  0  0  0  0  0  0  0
   -9.9310   17.2180    4.6200 C   0  0  0  0  0  0  0  0  0  0  0  0
   -9.2830   16.2410    5.1660 C   0  0  0  0  0  0  0  0  0  0  0  0
  -10.1520   17.1370    3.2550 C   0  0  0  0  0  0  0  0  0  0  0  0
   -9.0180   16.2330    6.5070 O   0  0  0  0  0  0  0  0  0  0  0  0
   -8.8420   15.1980    4.5040 C   0  0  0  0  0  0  0  0  0  0  0  0
   -9.6910   16.0690    2.5000 C   0  0  0  0  0  0  0  0  0  0  0  0
  -10.8210   18.0720    2.5860 O   0  0  0  0  0  0  0  0  0  0  0  0
  -10.1270   16.2060    0.6430 Br  0  0  0  0  0  0  0  0  0  0  0  0
   -8.9820   15.0150    3.1380 C   0  0  0  0  0  0  0  0  0  0  0  0
   -8.3220   14.5150    5.5660 C   0  0  0  0  0  0  0  0  0  0  0  0
   -7.7290   13.3390    5.4640 O   0  0  0  0  0  0  0  0  0  0  0  0
   -8.4000   14.9760    6.8500 C   0  0  0  0  0  0  0  0  0  0  0  0
   -8.4710   13.8740    2.5190 N   0  0  0  0  0  0  0  0  0  0  0  0
   -7.8260   14.0220    7.6220 C   0  0  0  0  0  0  0  0  0  0  0  0
   -7.4270   13.0400    6.7380 C   0  0  0  0  0  0  0  0  0  0  0  0
   -8.4260   13.9580    1.0800 C   0  0  0  0  0  0  0  0  0  0  0  0
   -7.1030   14.2940    0.5080 C   0  0  0  0  0  0  0  0  0  0  0  0
   -5.9200   14.2790    1.2180 N   0  0  0  0  0  0  0  0  0  0  0  0
   -6.9020   14.6370   -0.7390 N   0  0  0  0  0  0  0  0  0  0  0  0
   -5.5640   14.8310   -0.8520 C   0  0  0  0  0  0  0  0  0  0  0  0
   -4.9220   14.6120    0.3610 C   0  0  0  0  0  0  0  0  0  0  0  0
   -3.5540   14.7310    0.5370 C   0  0  0  0  0  0  0  0  0  0  0  0
   -4.8230   15.1930   -1.9690 C   0  0  0  0  0  0  0  0  0  0  0  0
   -2.8260   15.0800   -0.5960 C   0  0  0  0  0  0  0  0  0  0  0  0
   -3.4460   15.3110   -1.8300 C   0  0  0  0  0  0  0  0  0  0  0  0
  1  2  3  0
  2  3  1  0
  3  4  2  0
  3  5  1  0
  4  6  1  0
  4  7  1  0
  5  8  2  0
  5  9  1  0
  8 10  1  0
  7 11  2  0
  8 11  1  0
  7 12  1  0
 12 13  1  0
 12 14  2  0
 11 15  1  0
 14 16  1  0
 13 17  1  0
 16 17  2  0
 15 18  1  0
 18 19  1  0
 19 20  1  0
 19 21  2  0
 21 22  1  0
 20 23  1  0
 22 23  2  0
 23 24  1  0
 22 25  1  0
 24 26  2  0
 25 27  2  0
 26 27  1  0
M  END
