x0852_0_B_α-x0681_0_A_α
     RDKit          3D

 25 27  0  0  0  0  0  0  0  0999 V2000
   -9.6150   17.7350    7.2190 N   0  0  0  0  0  0  0  0  0  0  0  0
   -9.4570   17.2310    6.1830 C   0  0  0  0  0  0  0  0  0  0  0  0
   -9.3330   16.5780    4.9090 C   0  0  0  0  0  0  0  0  0  0  0  0
   -8.5160   15.4480    4.7340 C   0  0  0  0  0  0  0  0  0  0  0  0
  -10.0590   17.0870    3.8270 C   0  0  0  0  0  0  0  0  0  0  0  0
   -7.8250   14.9930    5.8180 O   0  0  0  0  0  0  0  0  0  0  0  0
   -8.4540   14.8480    3.4730 C   0  0  0  0  0  0  0  0  0  0  0  0
   -9.9750   16.4680    2.5780 C   0  0  0  0  0  0  0  0  0  0  0  0
  -10.9490   17.1330    1.1020 Br  0  0  0  0  0  0  0  0  0  0  0  0
   -6.8360   13.9950    5.5810 C   0  0  0  0  0  0  0  0  0  0  0  0
   -9.1780   15.3540    2.4020 C   0  0  0  0  0  0  0  0  0  0  0  0
   -6.8890   13.5700    4.1050 C   0  0  0  0  0  0  0  0  0  0  0  0
   -6.3270   14.5770    3.0750 C   0  0  0  0  0  0  0  0  0  0  0  0
   -5.1520   14.1330    2.1800 C   0  0  1  0  0  0  0  0  0  0  0  0
   -5.4320   13.4040    0.9290 N   0  0  0  0  0  0  0  0  0  0  0  0
   -4.2160   15.3360    2.0100 C   0  0  0  0  0  0  0  0  0  0  0  0
   -4.7340   13.5760   -0.2330 C   0  0  0  0  0  0  0  0  0  0  0  0
   -3.9850   15.7500    0.5710 C   0  0  0  0  0  0  0  0  0  0  0  0
   -6.3860   12.4540    0.6830 C   0  0  0  0  0  0  0  0  0  0  0  0
   -3.6180   14.5520   -0.3110 C   0  0  2  0  0  0  0  0  0  0  0  0
   -5.1840   12.7950   -1.2000 N   0  0  0  0  0  0  0  0  0  0  0  0
   -6.2120   12.0940   -0.6370 C   0  0  0  0  0  0  0  0  0  0  0  0
   -3.3950   14.9080   -1.7780 C   0  0  0  0  0  0  0  0  0  0  0  0
   -4.4750   15.4670   -2.3980 N   0  0  0  0  0  0  0  0  0  0  0  0
   -2.3530   14.7230   -2.3970 O   0  0  0  0  0  0  0  0  0  0  0  0
  1  2  3  0
  2  3  1  0
  3  4  2  0
  3  5  1  0
  4  6  1  0
  4  7  1  0
  5  8  2  0
  8  9  1  0
  6 10  1  0
  7 11  2  0
  8 11  1  0
 10 12  1  0
 12 13  1  0
 14 13  1  6
 14 15  1  0
 14 16  1  0
 15 17  1  0
 16 18  1  0
 15 19  1  0
 17 20  1  0
 18 20  1  0
 17 21  2  0
 19 22  2  0
 21 22  1  0
 20 23  1  6
 23 24  1  0
 23 25  2  0
M  END
