x0855_0_A-x0681_0_A
     RDKit          3D

 25 27  0  0  0  0  0  0  0  0999 V2000
    1.8600   12.9080   -2.6240 O   0  0  0  0  0  0  0  0  0  0  0  0
    0.9910   12.1260   -3.2960 C   0  0  0  0  0  0  0  0  0  0  0  0
    0.5260   12.7030   -4.6170 C   0  0  2  0  0  0  0  0  0  0  0  0
    0.6740   11.0560   -2.8040 O   0  0  0  0  0  0  0  0  0  0  0  0
   -0.0220   14.1440   -4.5340 C   0  0  0  0  0  0  0  0  0  0  0  0
   -0.4740   11.7810   -5.1460 N   0  0  0  0  0  0  0  0  0  0  0  0
   -0.0120   14.7540   -3.1130 C   0  0  0  0  0  0  0  0  0  0  0  0
   -0.2940   10.8320   -6.1130 C   0  0  0  0  0  0  0  0  0  0  0  0
   -1.7350   11.8140   -4.6630 N   0  0  0  0  0  0  0  0  0  0  0  0
   -1.1700   14.2710   -2.2220 C   0  0  0  0  0  0  0  0  0  0  0  0
   -1.5110   10.2160   -6.2480 C   0  0  0  0  0  0  0  0  0  0  0  0
   -2.3630   10.8540   -5.3410 C   0  0  0  0  0  0  0  0  0  0  0  0
   -1.9840    8.8190   -7.3840 Br  0  0  0  0  0  0  0  0  0  0  0  0
   -2.4210   14.8810   -2.6680 N   0  0  0  0  0  0  0  0  0  0  0  0
   -3.4990   14.9560   -1.9530 C   0  0  0  0  0  0  0  0  0  0  0  0
   -4.6660   15.5340   -2.3790 N   0  0  0  0  0  0  0  0  0  0  0  0
   -3.5020   14.3660   -0.5180 C   0  0  2  0  0  0  0  0  0  0  0  0
   -4.6130   13.3490   -0.4360 C   0  0  0  0  0  0  0  0  0  0  0  0
   -3.6450   15.4820    0.5420 C   0  0  0  0  0  0  0  0  0  0  0  0
   -5.5780   13.3830    0.5290 N   0  0  0  0  0  0  0  0  0  0  0  0
   -4.2740   14.9800    1.8300 C   0  0  0  0  0  0  0  0  0  0  0  0
   -4.8180   12.3250   -1.2420 N   0  0  0  0  0  0  0  0  0  0  0  0
   -5.6440   14.3750    1.5580 C   0  0  0  0  0  0  0  0  0  0  0  0
   -6.4310   12.3450    0.3400 C   0  0  0  0  0  0  0  0  0  0  0  0
   -5.9450   11.6980   -0.7670 C   0  0  0  0  0  0  0  0  0  0  0  0
  1  2  1  0
  2  3  1  0
  2  4  2  0
  3  5  1  1
  3  6  1  0
  5  7  1  0
  6  8  1  0
  6  9  1  0
  7 10  1  0
  8 11  2  0
  9 12  2  0
 11 12  1  0
 11 13  1  0
 10 14  1  0
 14 15  2  3
 15 16  1  0
 17 15  1  6
 17 18  1  0
 17 19  1  0
 18 20  1  0
 19 21  1  0
 18 22  2  0
 20 23  1  0
 21 23  1  0
 20 24  1  0
 22 25  1  0
 24 25  2  0
M  END
