x0852_0_B-x0967_0_A
     RDKit          3D

 22 24  0  0  0  0  0  0  0  0999 V2000
   -9.6650   17.8260    7.1600 N   0  0  0  0  0  0  0  0  0  0  0  0
   -9.4370   17.2860    6.1560 C   0  0  0  0  0  0  0  0  0  0  0  0
   -9.2150   16.5600    4.9430 C   0  0  0  0  0  0  0  0  0  0  0  0
   -8.3230   15.4770    4.8930 C   0  0  0  0  0  0  0  0  0  0  0  0
   -9.9160   16.9420    3.7760 C   0  0  0  0  0  0  0  0  0  0  0  0
   -7.5690   14.9880    5.9180 O   0  0  0  0  0  0  0  0  0  0  0  0
   -8.1450   14.7900    3.7140 C   0  0  0  0  0  0  0  0  0  0  0  0
   -9.7200   16.2320    2.5850 C   0  0  0  0  0  0  0  0  0  0  0  0
  -10.2760   16.4060    1.3510 O   0  0  0  0  0  0  0  0  0  0  0  0
   -8.8380   15.1660    2.5830 C   0  0  0  0  0  0  0  0  0  0  0  0
  -10.4440   15.1850    0.6030 C   0  0  0  0  0  0  0  0  0  0  0  0
   -9.3800   14.9380   -0.4830 C   0  0  0  0  0  0  0  0  0  0  0  0
   -7.9350   14.8500   -0.0110 C   0  0  0  0  0  0  0  0  0  0  0  0
   -7.0250   15.0080   -0.9930 N   0  0  0  0  0  0  0  0  0  0  0  0
   -7.5560   14.6320    1.3070 C   0  0  0  0  0  0  0  0  0  0  0  0
   -5.7220   14.9720   -0.7230 C   0  0  0  0  0  0  0  0  0  0  0  0
   -6.1950   14.5960    1.6070 C   0  0  0  0  0  0  0  0  0  0  0  0
   -5.2590   14.7690    0.5860 C   0  0  0  0  0  0  0  0  0  0  0  0
   -4.8750   15.1360   -1.7350 N   0  0  0  0  0  0  0  0  0  0  0  0
   -3.5520   15.1100   -1.4840 C   0  0  0  0  0  0  0  0  0  0  0  0
   -3.8770   14.7460    0.8310 C   0  0  0  0  0  0  0  0  0  0  0  0
   -3.0060   14.9210   -0.2310 C   0  0  0  0  0  0  0  0  0  0  0  0
  1  2  3  0
  2  3  1  0
  3  4  2  0
  3  5  1  0
  4  6  1  0
  4  7  1  0
  5  8  2  0
  8  9  1  0
  7 10  2  0
  8 10  1  0
  9 11  1  0
 11 12  1  0
 12 13  1  0
 13 14  2  0
 13 15  1  0
 14 16  1  0
 15 17  2  0
 16 18  2  0
 17 18  1  0
 16 19  1  0
 19 20  2  0
 18 21  1  0
 20 22  1  0
 21 22  2  0
M  END
