x0852_0_B_α-x0933_0_A_α
     RDKit          3D

 18 19  0  0  0  0  0  0  0  0999 V2000
   -9.7760   17.5050    7.2370 N   0  0  0  0  0  0  0  0  0  0  0  0
   -9.6050   17.0590    6.1780 C   0  0  0  0  0  0  0  0  0  0  0  0
   -9.3500   16.5690    4.8560 C   0  0  0  0  0  0  0  0  0  0  0  0
   -8.2570   15.7420    4.5870 C   0  0  0  0  0  0  0  0  0  0  0  0
  -10.2110   16.9360    3.8210 C   0  0  0  0  0  0  0  0  0  0  0  0
   -7.4190   15.3810    5.6010 O   0  0  0  0  0  0  0  0  0  0  0  0
   -8.0000   15.2820    3.2690 C   0  0  0  0  0  0  0  0  0  0  0  0
   -9.9740   16.4730    2.5310 C   0  0  0  0  0  0  0  0  0  0  0  0
  -11.1290   16.9690    1.1230 Br  0  0  0  0  0  0  0  0  0  0  0  0
   -6.8040   14.4240    2.8890 C   0  0  0  0  0  0  0  0  0  0  0  0
   -8.8890   15.6590    2.2550 C   0  0  0  0  0  0  0  0  0  0  0  0
   -6.5460   14.2380    1.4540 N   0  0  0  0  0  0  0  0  0  0  0  0
   -5.3320   14.8490    0.9520 C   0  0  0  0  0  0  0  0  0  0  0  0
   -5.4030   14.5560   -0.4510 N   0  0  0  0  0  0  0  0  0  0  0  0
   -4.1570   14.1790    1.4190 N   0  0  0  0  0  0  0  0  0  0  0  0
   -4.2900   15.1080   -1.2230 C   0  0  0  0  0  0  0  0  0  0  0  0
   -2.9580   14.8010    0.8410 C   0  0  0  0  0  0  0  0  0  0  0  0
   -2.9430   14.6520   -0.6730 C   0  0  0  0  0  0  0  0  0  0  0  0
  1  2  3  0
  2  3  1  0
  3  4  2  0
  3  5  1  0
  4  6  1  0
  4  7  1  0
  5  8  2  0
  8  9  1  0
  7 10  1  0
  7 11  2  0
  8 11  1  0
 10 12  1  0
 12 13  1  0
 13 14  1  0
 13 15  1  0
 14 16  1  0
 15 17  1  0
 16 18  1  0
 17 18  1  0
M  END
