x0855_0_A_α-x0967_0_A_α
     RDKit          3D

 24 26  0  0  0  0  0  0  0  0999 V2000
    2.0290   12.5520   -2.6130 O   0  0  0  0  0  0  0  0  0  0  0  0
    0.7530   12.1470   -3.0530 C   0  0  0  0  0  0  0  0  0  0  0  0
    0.5360   12.5390   -4.5340 C   0  0  0  0  0  0  0  0  0  0  0  0
    0.6250   10.7550   -2.8310 O   0  0  0  0  0  0  0  0  0  0  0  0
   -0.2930   12.8270   -2.1590 C   0  0  0  0  0  0  0  0  0  0  0  0
    0.3140   13.6330   -1.0040 C   0  0  0  0  0  0  0  0  0  0  0  0
   -0.4810   11.6830   -5.1070 N   0  0  0  0  0  0  0  0  0  0  0  0
   -0.4330   14.9230   -0.7120 C   0  0  0  0  0  0  0  0  0  0  0  0
   -0.3350   10.7640   -6.1050 C   0  0  0  0  0  0  0  0  0  0  0  0
   -1.7390   11.7650   -4.6180 N   0  0  0  0  0  0  0  0  0  0  0  0
   -1.4370   14.8650    0.4440 C   0  0  0  0  0  0  0  0  0  0  0  0
   -1.5780   10.2120   -6.2580 C   0  0  0  0  0  0  0  0  0  0  0  0
   -2.4070   10.8550   -5.3340 C   0  0  0  0  0  0  0  0  0  0  0  0
   -2.1020    8.8740   -7.4430 Br  0  0  0  0  0  0  0  0  0  0  0  0
   -2.9090   14.8440    0.0850 C   0  0  0  0  0  0  0  0  0  0  0  0
   -3.4120   14.8740   -1.2200 C   0  0  0  0  0  0  0  0  0  0  0  0
   -3.8520   14.7870    1.0960 C   0  0  0  0  0  0  0  0  0  0  0  0
   -5.2120   14.7510    0.7910 C   0  0  0  0  0  0  0  0  0  0  0  0
   -4.7350   14.8420   -1.5350 N   0  0  0  0  0  0  0  0  0  0  0  0
   -5.6320   14.7770   -0.5460 C   0  0  0  0  0  0  0  0  0  0  0  0
   -6.1680   14.6860    1.8070 C   0  0  0  0  0  0  0  0  0  0  0  0
   -6.9360   14.7330   -0.8460 N   0  0  0  0  0  0  0  0  0  0  0  0
   -7.5130   14.6390    1.4910 C   0  0  0  0  0  0  0  0  0  0  0  0
   -7.8440   14.6640    0.1540 C   0  0  0  0  0  0  0  0  0  0  0  0
  2  1  1  0
  2  3  1  0
  2  4  1  0
  2  5  1  0
  5  6  1  0
  3  7  1  0
  6  8  1  0
  7  9  1  0
  7 10  1  0
  8 11  1  0
  9 12  2  0
 10 13  2  0
 12 13  1  0
 12 14  1  0
 11 15  1  0
 15 16  2  0
 15 17  1  0
 17 18  2  0
 16 19  1  0
 18 20  1  0
 19 20  2  0
 18 21  1  0
 20 22  1  0
 21 23  2  0
 22 24  2  0
 23 24  1  0
M  END
