x0855_0_A_α-x0587_0_A_α
     RDKit          3D

 27 28  0  0  0  0  0  0  0  0999 V2000
    1.9840   12.7820   -2.5490 O   0  0  0  0  0  0  0  0  0  0  0  0
    0.7300   12.4370   -3.0910 C   0  0  0  0  0  0  0  0  0  0  0  0
    0.6460   12.5080   -4.6300 C   0  0  0  0  0  0  0  0  0  0  0  0
    0.5590   11.0560   -2.7600 O   0  0  0  0  0  0  0  0  0  0  0  0
   -0.3890   13.2360   -2.3820 C   0  0  0  0  0  0  0  0  0  0  0  0
   -0.3130   13.2720   -0.8620 C   0  0  0  0  0  0  0  0  0  0  0  0
   -0.3860   11.6640   -5.1690 N   0  0  0  0  0  0  0  0  0  0  0  0
   -0.9350   14.5270   -0.2470 C   0  0  0  0  0  0  0  0  0  0  0  0
   -0.2660   10.7100   -6.1350 C   0  0  0  0  0  0  0  0  0  0  0  0
   -1.6450   11.7810   -4.6790 N   0  0  0  0  0  0  0  0  0  0  0  0
   -2.4500   14.3710   -0.0390 C   0  0  0  0  0  0  0  0  0  0  0  0
   -1.5120   10.1740   -6.2710 C   0  0  0  0  0  0  0  0  0  0  0  0
   -2.3270   10.8610   -5.3670 C   0  0  0  0  0  0  0  0  0  0  0  0
   -2.0610    8.8080   -7.4110 Br  0  0  0  0  0  0  0  0  0  0  0  0
   -3.1350   15.1180   -1.0480 O   0  0  0  0  0  0  0  0  0  0  0  0
   -4.4330   14.6050   -1.4080 C   0  0  0  0  0  0  0  0  0  0  0  0
   -4.2240   13.3250   -1.8380 F   0  0  0  0  0  0  0  0  0  0  0  0
   -4.8400   15.2830   -2.5220 F   0  0  0  0  0  0  0  0  0  0  0  0
   -5.4680   14.6720   -0.2610 C   0  0  0  0  0  0  0  0  0  0  0  0
   -6.7880   14.5690   -0.5690 N   0  0  0  0  0  0  0  0  0  0  0  0
   -5.0190   14.8330    1.0060 N   0  0  0  0  0  0  0  0  0  0  0  0
   -7.6690   14.6420    0.4550 C   0  0  0  0  0  0  0  0  0  0  0  0
   -5.9410   14.9010    1.9860 C   0  0  0  0  0  0  0  0  0  0  0  0
   -7.2950   14.8100    1.7740 C   0  0  0  0  0  0  0  0  0  0  0  0
   -8.2970   14.9060    2.8390 C   0  0  0  0  0  0  0  0  0  0  0  0
   -7.8730   14.9120    4.1380 N   0  0  0  0  0  0  0  0  0  0  0  0
   -9.4870   14.9990    2.5650 O   0  0  0  0  0  0  0  0  0  0  0  0
  2  1  1  0
  2  3  1  0
  2  4  1  0
  2  5  1  0
  5  6  1  0
  3  7  1  0
  6  8  1  0
  7  9  1  0
  7 10  1  0
  8 11  1  0
  9 12  2  0
 10 13  2  0
 12 13  1  0
 12 14  1  0
 11 15  1  0
 15 16  1  0
 16 17  1  0
 16 18  1  0
 16 19  1  0
 19 20  2  0
 19 21  1  0
 20 22  1  0
 21 23  2  0
 22 24  2  0
 23 24  1  0
 24 25  1  0
 25 26  1  0
 25 27  2  0
M  END
