x0852_0_B-x0282_0_A
     RDKit          3D

 26 28  0  0  0  0  0  0  0  0999 V2000
   -9.6790   17.8080    7.0850 N   0  0  0  0  0  0  0  0  0  0  0  0
   -9.4530   17.2730    6.0770 C   0  0  0  0  0  0  0  0  0  0  0  0
   -9.2190   16.5490    4.8620 C   0  0  0  0  0  0  0  0  0  0  0  0
   -8.3020   15.5000    4.8170 C   0  0  0  0  0  0  0  0  0  0  0  0
   -9.9350   16.8990    3.7020 C   0  0  0  0  0  0  0  0  0  0  0  0
   -7.5560   15.0750    5.8790 O   0  0  0  0  0  0  0  0  0  0  0  0
   -8.1040   14.8090    3.6310 C   0  0  0  0  0  0  0  0  0  0  0  0
   -9.7410   16.1960    2.4960 C   0  0  0  0  0  0  0  0  0  0  0  0
  -10.3910   16.4270    1.2880 O   0  0  0  0  0  0  0  0  0  0  0  0
   -8.8180   15.1550    2.4880 C   0  0  0  0  0  0  0  0  0  0  0  0
   -9.6890   16.6440    0.0290 C   0  0  0  0  0  0  0  0  0  0  0  0
   -8.8840   15.4310   -0.4970 C   0  0  0  0  0  0  0  0  0  0  0  0
   -8.6520   14.3500    0.4200 O   0  0  0  0  0  0  0  0  0  0  0  0
   -7.3300   13.7760    0.5160 C   0  0  0  0  0  0  0  0  0  0  0  0
   -6.1860   14.7720    0.2710 C   0  0  0  0  0  0  0  0  0  0  0  0
   -5.3070   15.0480    1.5270 C   0  0  0  0  0  0  0  0  0  0  0  0
   -5.3990   14.4680   -1.0070 C   0  0  0  0  0  0  0  0  0  0  0  0
   -4.0970   14.1410    1.6410 C   0  0  0  0  0  0  0  0  0  0  0  0
   -4.1560   13.6270   -0.7760 C   0  0  0  0  0  0  0  0  0  0  0  0
   -3.4500   14.1400    0.3690 N   0  0  0  0  0  0  0  0  0  0  0  0
   -2.1190   14.3680    0.2780 C   0  0  0  0  0  0  0  0  0  0  0  0
   -1.6270   14.4950   -0.9600 N   0  0  0  0  0  0  0  0  0  0  0  0
   -1.3750   14.4520    1.3990 N   0  0  0  0  0  0  0  0  0  0  0  0
   -0.3260   14.7180   -1.0920 C   0  0  0  0  0  0  0  0  0  0  0  0
   -0.0740   14.6740    1.2020 C   0  0  0  0  0  0  0  0  0  0  0  0
    0.5070   14.8200   -0.0370 C   0  0  0  0  0  0  0  0  0  0  0  0
  1  2  3  0
  2  3  1  0
  3  4  2  0
  3  5  1  0
  4  6  1  0
  4  7  1  0
  5  8  2  0
  8  9  1  0
  7 10  2  0
  8 10  1  0
  9 11  1  0
 11 12  1  0
 12 13  1  0
 13 14  1  0
 14 15  1  0
 15 16  1  0
 15 17  1  0
 16 18  1  0
 17 19  1  0
 18 20  1  0
 19 20  1  0
 20 21  1  0
 21 22  2  0
 21 23  1  0
 22 24  1  0
 23 25  2  0
 24 26  2  0
 25 26  1  0
M  END
