x0852_0_B-x0104_0_A
     RDKit          3D

 26 28  0  0  0  0  0  0  0  0999 V2000
   -9.6150   17.7070    6.9200 N   0  0  0  0  0  0  0  0  0  0  0  0
   -9.5520   17.3280    5.8190 C   0  0  0  0  0  0  0  0  0  0  0  0
   -9.5550   16.8370    4.4600 C   0  0  0  0  0  0  0  0  0  0  0  0
   -8.8170   15.7600    4.0170 C   0  0  0  0  0  0  0  0  0  0  0  0
  -10.3520   17.4460    3.5160 C   0  0  0  0  0  0  0  0  0  0  0  0
   -8.0280   15.0230    4.8050 N   0  0  0  0  0  0  0  0  0  0  0  0
   -8.8500   15.3090    2.7050 C   0  0  0  0  0  0  0  0  0  0  0  0
  -10.3830   16.9820    2.1920 C   0  0  0  0  0  0  0  0  0  0  0  0
  -11.4520   17.7910    0.8760 Br  0  0  0  0  0  0  0  0  0  0  0  0
   -7.6300   14.2040    3.7110 C   0  0  0  0  0  0  0  0  0  0  0  0
   -9.6310   15.9170    1.7860 C   0  0  0  0  0  0  0  0  0  0  0  0
   -9.0340   14.7430    5.7290 C   0  0  0  0  0  0  0  0  0  0  0  0
   -6.5840   14.7630    2.9640 N   0  0  0  0  0  0  0  0  0  0  0  0
   -8.2060   13.1620    3.4350 O   0  0  0  0  0  0  0  0  0  0  0  0
   -9.0740   14.6780    7.1020 C   0  0  0  0  0  0  0  0  0  0  0  0
  -10.5910   14.4500    5.0410 S   0  0  0  0  0  0  0  0  0  0  0  0
   -6.2840   14.7530    1.5720 C   0  0  0  0  0  0  0  0  0  0  0  0
  -11.3100   14.2480    6.5680 C   0  0  0  0  0  0  0  0  0  0  0  0
  -10.3920   14.3930    7.5860 C   0  0  0  0  0  0  0  0  0  0  0  0
   -4.9390   14.9510    1.2230 C   0  0  0  0  0  0  0  0  0  0  0  0
   -7.1750   14.5810    0.5110 C   0  0  0  0  0  0  0  0  0  0  0  0
   -4.4440   14.9880   -0.0370 N   0  0  0  0  0  0  0  0  0  0  0  0
   -6.6940   14.6170   -0.8040 C   0  0  0  0  0  0  0  0  0  0  0  0
   -5.3400   14.8210   -1.0270 C   0  0  0  0  0  0  0  0  0  0  0  0
   -4.9330   14.8460   -2.3480 O   0  0  0  0  0  0  0  0  0  0  0  0
   -3.5460   15.1100   -2.5200 C   0  0  0  0  0  0  0  0  0  0  0  0
  1  2  3  0
  2  3  1  0
  3  4  2  0
  3  5  1  0
  4  6  1  0
  4  7  1  0
  5  8  2  0
  8  9  1  0
  6 10  1  0
  7 11  2  0
  8 11  1  0
  6 12  1  0
 10 13  1  0
 10 14  2  0
 12 15  2  0
 12 16  1  0
 13 17  1  0
 16 18  1  0
 15 19  1  0
 18 19  2  0
 17 20  2  0
 17 21  1  0
 20 22  1  0
 21 23  2  0
 22 24  2  0
 23 24  1  0
 24 25  1  0
 25 26  1  0
M  END
