x0855_0_A_α-x0766_0_A_α
     RDKit          3D

 20 22  0  0  0  0  0  0  0  0999 V2000
    0.7510   12.8840   -1.8600 O   0  0  0  0  0  0  0  0  0  0  0  0
    0.7200   12.3920   -3.1850 C   0  0  0  0  0  0  0  0  0  0  0  0
   -0.1510   11.1520   -3.1790 C   0  0  0  0  0  0  0  0  0  0  0  0
    2.0450   12.0430   -3.4700 O   0  0  0  0  0  0  0  0  0  0  0  0
    0.2210   13.4140   -4.2040 C   0  0  2  0  0  0  0  0  0  0  0  0
   -0.8970   10.9180   -4.3870 N   0  0  0  0  0  0  0  0  0  0  0  0
    1.3360   13.9350   -5.0890 C   0  0  0  0  0  0  0  0  0  0  0  0
   -0.5210   14.6970   -3.7520 C   0  0  2  0  0  0  0  0  0  0  0  0
   -0.7450    9.8740   -5.2400 C   0  0  0  0  0  0  0  0  0  0  0  0
   -1.8700   11.7810   -4.7540 N   0  0  0  0  0  0  0  0  0  0  0  0
    1.7230   15.2650   -4.4550 C   0  0  0  0  0  0  0  0  0  0  0  0
    0.6690   15.5860   -3.4080 C   0  0  0  0  0  0  0  0  0  0  0  0
   -1.5490   14.6820   -2.6320 C   0  0  0  0  0  0  0  0  0  0  0  0
   -1.6710   10.0610   -6.2090 C   0  0  0  0  0  0  0  0  0  0  0  0
   -2.3430   11.2420   -5.8810 C   0  0  0  0  0  0  0  0  0  0  0  0
   -2.9270   14.7700   -2.7650 C   0  0  0  0  0  0  0  0  0  0  0  0
   -1.2000   14.5840   -1.2350 C   0  0  0  0  0  0  0  0  0  0  0  0
   -1.9980    8.9700   -7.6800 Br  0  0  0  0  0  0  0  0  0  0  0  0
   -2.2970   14.6050   -0.4000 C   0  0  0  0  0  0  0  0  0  0  0  0
   -3.7570   14.7420   -1.2710 S   0  0  0  0  0  0  0  0  0  0  0  0
  2  1  1  0
  2  3  1  0
  2  4  1  0
  5  2  1  1
  3  6  1  0
  5  7  1  0
  5  8  1  0
  6  9  1  0
  6 10  1  0
  7 11  1  0
  8 12  1  0
 11 12  1  0
  8 13  1  1
  9 14  2  0
 10 15  2  0
 14 15  1  0
 13 16  2  0
 13 17  1  0
 14 18  1  0
 17 19  2  0
 16 20  1  0
 19 20  1  0
M  END
