x0852_0_B-x0926_0_A
     RDKit          3D

 20 21  0  0  0  0  0  0  0  0999 V2000
   -9.6960   17.8300    7.0960 N   0  0  0  0  0  0  0  0  0  0  0  0
   -9.4610   17.2760    6.0990 C   0  0  0  0  0  0  0  0  0  0  0  0
   -9.2220   16.5180    4.9060 C   0  0  0  0  0  0  0  0  0  0  0  0
   -8.2570   15.5040    4.8710 C   0  0  0  0  0  0  0  0  0  0  0  0
   -9.9770   16.7910    3.7490 C   0  0  0  0  0  0  0  0  0  0  0  0
   -7.5160   15.2260    5.9880 O   0  0  0  0  0  0  0  0  0  0  0  0
   -8.0520   14.7780    3.7080 C   0  0  0  0  0  0  0  0  0  0  0  0
   -9.7780   16.0550    2.5690 C   0  0  0  0  0  0  0  0  0  0  0  0
  -10.5740   16.3860    1.4920 O   0  0  0  0  0  0  0  0  0  0  0  0
   -8.8100   15.0500    2.5670 C   0  0  0  0  0  0  0  0  0  0  0  0
  -10.3630   15.6740    0.2610 C   0  0  0  0  0  0  0  0  0  0  0  0
   -9.0250   15.9770   -0.4250 C   0  0  0  0  0  0  0  0  0  0  0  0
   -7.9090   14.9790   -0.0530 C   0  0  0  0  0  0  0  0  0  0  0  0
   -6.8120   15.1630   -1.0020 N   0  0  0  0  0  0  0  0  0  0  0  0
   -5.5510   15.1220   -0.6720 C   0  0  0  0  0  0  0  0  0  0  0  0
   -5.1680   14.8430    0.8100 C   0  0  0  0  0  0  0  0  0  0  0  0
   -4.5000   15.3000   -1.5640 N   0  0  0  0  0  0  0  0  0  0  0  0
   -3.2110   15.0160   -1.1970 N   0  0  0  0  0  0  0  0  0  0  0  0
   -3.7080   15.0130    1.1100 C   0  0  0  0  0  0  0  0  0  0  0  0
   -2.8260   15.0810    0.1170 C   0  0  0  0  0  0  0  0  0  0  0  0
  1  2  3  0
  2  3  1  0
  3  4  2  0
  3  5  1  0
  4  6  1  0
  4  7  1  0
  5  8  2  0
  8  9  1  0
  7 10  2  0
  8 10  1  0
  9 11  1  0
 11 12  1  0
 12 13  1  0
 13 14  1  0
 14 15  2  3
 15 16  1  0
 15 17  1  0
 17 18  1  0
 16 19  1  0
 18 20  1  0
 19 20  2  0
M  END
