x0855_0_A-x0290_0_A
     RDKit          3D

 25 26  0  0  0  0  0  0  0  0999 V2000
    1.9760   12.8600   -2.6910 O   0  0  0  0  0  0  0  0  0  0  0  0
    1.0420   12.1300   -3.3300 C   0  0  0  0  0  0  0  0  0  0  0  0
    0.6020   12.7050   -4.6580 C   0  0  2  0  0  0  0  0  0  0  0  0
    0.6500   11.0940   -2.8190 O   0  0  0  0  0  0  0  0  0  0  0  0
    0.1940   14.1970   -4.5590 C   0  0  0  0  0  0  0  0  0  0  0  0
   -0.4430   11.8220   -5.1590 N   0  0  0  0  0  0  0  0  0  0  0  0
    0.0560   14.7360   -3.1160 C   0  0  0  0  0  0  0  0  0  0  0  0
   -0.3040   10.8520   -6.1160 C   0  0  0  0  0  0  0  0  0  0  0  0
   -1.6980   11.9080   -4.6700 N   0  0  0  0  0  0  0  0  0  0  0  0
   -1.3550   14.5430   -2.5350 C   0  0  0  0  0  0  0  0  0  0  0  0
   -1.5420   10.2790   -6.2330 C   0  0  0  0  0  0  0  0  0  0  0  0
   -2.3660   10.9600   -5.3310 C   0  0  0  0  0  0  0  0  0  0  0  0
   -2.0660    8.8830   -7.3460 Br  0  0  0  0  0  0  0  0  0  0  0  0
   -1.4550   14.5580   -1.0240 C   0  0  0  0  0  0  0  0  0  0  0  0
   -0.3220   14.4730   -0.2060 C   0  0  0  0  0  0  0  0  0  0  0  0
   -2.7080   14.6580   -0.3980 C   0  0  0  0  0  0  0  0  0  0  0  0
   -0.5050   14.4840    1.1680 C   0  0  0  0  0  0  0  0  0  0  0  0
   -2.7930   14.6630    0.9910 C   0  0  0  0  0  0  0  0  0  0  0  0
   -4.0680   14.7660    1.5680 N   0  0  0  0  0  0  0  0  0  0  0  0
   -1.7060   14.5720    1.7650 N   0  0  0  0  0  0  0  0  0  0  0  0
   -5.2530   14.4210    0.9400 C   0  0  0  0  0  0  0  0  0  0  0  0
   -5.4510   14.3150   -0.2670 O   0  0  0  0  0  0  0  0  0  0  0  0
   -6.3920   14.1590    1.9400 C   0  0  0  0  0  0  0  0  0  0  0  0
   -7.6410   13.7450    1.2730 N   0  0  0  0  0  0  0  0  0  0  0  0
   -8.4500   14.8420    0.7620 C   0  0  0  0  0  0  0  0  0  0  0  0
  1  2  1  0
  2  3  1  0
  2  4  2  0
  3  5  1  1
  3  6  1  0
  5  7  1  0
  6  8  1  0
  6  9  1  0
  7 10  1  0
  8 11  2  0
  9 12  2  0
 11 12  1  0
 11 13  1  0
 10 14  1  0
 14 15  2  0
 14 16  1  0
 15 17  1  0
 16 18  2  0
 18 19  1  0
 17 20  2  0
 18 20  1  0
 19 21  1  0
 21 22  2  0
 21 23  1  0
 23 24  1  0
 24 25  1  0
M  END
