x0852_0_B-x0626_0_A
     RDKit          3D

 23 24  0  0  0  0  0  0  0  0999 V2000
   -9.6840   17.7960    7.3050 N   0  0  0  0  0  0  0  0  0  0  0  0
   -9.4420   17.2880    6.2870 C   0  0  0  0  0  0  0  0  0  0  0  0
   -9.2190   16.6060    5.0490 C   0  0  0  0  0  0  0  0  0  0  0  0
   -8.3040   15.5420    4.9580 C   0  0  0  0  0  0  0  0  0  0  0  0
   -9.9400   17.0210    3.9150 C   0  0  0  0  0  0  0  0  0  0  0  0
   -7.5920   15.1390    6.0610 O   0  0  0  0  0  0  0  0  0  0  0  0
   -8.1260   14.8990    3.7470 C   0  0  0  0  0  0  0  0  0  0  0  0
   -9.7640   16.3790    2.6970 C   0  0  0  0  0  0  0  0  0  0  0  0
  -10.3870   16.6620    1.5060 O   0  0  0  0  0  0  0  0  0  0  0  0
   -8.8550   15.3170    2.6330 C   0  0  0  0  0  0  0  0  0  0  0  0
   -9.8820   16.0930    0.3040 C   0  0  0  0  0  0  0  0  0  0  0  0
   -9.7990   14.5660    0.3500 C   0  0  0  0  0  0  0  0  0  0  0  0
   -8.3920   13.9590    0.1900 C   0  0  0  0  0  0  0  0  0  0  0  0
   -7.3120   14.3160    1.2250 C   0  0  0  0  0  0  0  0  0  0  0  0
   -6.0020   14.7280    0.5890 C   0  0  0  0  0  0  0  0  0  0  0  0
   -4.8750   14.8860    1.3390 N   0  0  0  0  0  0  0  0  0  0  0  0
   -5.9280   14.9360   -0.6250 O   0  0  0  0  0  0  0  0  0  0  0  0
   -3.6070   14.7990    0.8730 C   0  0  0  0  0  0  0  0  0  0  0  0
   -2.4790   14.6670    1.5360 N   0  0  0  0  0  0  0  0  0  0  0  0
   -3.4930   14.8650   -0.8300 S   0  0  0  0  0  0  0  0  0  0  0  0
   -1.7940   14.6900   -0.6940 C   0  0  0  0  0  0  0  0  0  0  0  0
   -1.4410   14.6010    0.6380 C   0  0  0  0  0  0  0  0  0  0  0  0
   -0.0870   14.4410    1.1770 C   0  0  0  0  0  0  0  0  0  0  0  0
  1  2  3  0
  2  3  1  0
  3  4  2  0
  3  5  1  0
  4  6  1  0
  4  7  1  0
  5  8  2  0
  8  9  1  0
  7 10  2  0
  8 10  1  0
  9 11  1  0
 11 12  1  0
 12 13  1  0
 13 14  1  0
 14 15  1  0
 15 16  1  0
 15 17  2  0
 16 18  1  0
 18 19  2  0
 18 20  1  0
 20 21  1  0
 19 22  1  0
 21 22  2  0
 22 23  1  0
M  END
