x0855_0_A-x0685_0_A
     RDKit          3D

 24 25  0  0  0  0  0  0  0  0999 V2000
    1.5840   13.1280   -2.7100 O   0  0  0  0  0  0  0  0  0  0  0  0
    0.9520   12.1940   -3.4540 C   0  0  0  0  0  0  0  0  0  0  0  0
    0.6990   12.6040   -4.8970 C   0  0  2  0  0  0  0  0  0  0  0  0
    0.6490   11.1380   -2.9250 O   0  0  0  0  0  0  0  0  0  0  0  0
    0.4690   14.1210   -5.0590 C   0  0  0  0  0  0  0  0  0  0  0  0
   -0.4000   11.8030   -5.4060 N   0  0  0  0  0  0  0  0  0  0  0  0
   -0.4620   14.7330   -3.9930 C   0  0  0  0  0  0  0  0  0  0  0  0
   -0.3200   10.6950   -6.2020 C   0  0  0  0  0  0  0  0  0  0  0  0
   -1.6670   12.1280   -5.0940 N   0  0  0  0  0  0  0  0  0  0  0  0
   -1.8920   15.0000   -4.4880 C   0  0  0  0  0  0  0  0  0  0  0  0
   -1.6050   10.2810   -6.3890 C   0  0  0  0  0  0  0  0  0  0  0  0
   -2.4050   11.1890   -5.6960 C   0  0  0  0  0  0  0  0  0  0  0  0
   -2.2000    8.8120   -7.3640 Br  0  0  0  0  0  0  0  0  0  0  0  0
   -2.8140   14.9840   -3.3450 C   0  0  0  0  0  0  0  0  0  0  0  0
   -3.4570   14.9670   -2.3370 C   0  0  0  0  0  0  0  0  0  0  0  0
   -4.0990   14.9730   -1.0700 C   0  0  0  0  0  0  0  0  0  0  0  0
   -3.3430   15.0350    0.0860 C   0  0  0  0  0  0  0  0  0  0  0  0
   -5.4790   14.9210   -0.9460 C   0  0  0  0  0  0  0  0  0  0  0  0
   -3.9840   15.0530    1.3090 C   0  0  0  0  0  0  0  0  0  0  0  0
   -6.1280   14.9320    0.2450 N   0  0  0  0  0  0  0  0  0  0  0  0
   -5.3720   15.0050    1.3610 C   0  0  0  0  0  0  0  0  0  0  0  0
   -5.9530   15.0530    2.6260 N   0  0  0  0  0  0  0  0  0  0  0  0
   -7.3600   14.7260    2.8670 C   0  0  0  0  0  0  0  0  0  0  0  0
   -7.6080   13.2290    2.9510 C   0  0  0  0  0  0  0  0  0  0  0  0
  1  2  1  0
  2  3  1  0
  2  4  2  0
  3  5  1  1
  3  6  1  0
  5  7  1  0
  6  8  1  0
  6  9  1  0
  7 10  1  0
  8 11  2  0
  9 12  2  0
 11 12  1  0
 11 13  1  0
 10 14  1  0
 14 15  3  0
 15 16  1  0
 16 17  2  0
 16 18  1  0
 17 19  1  0
 18 20  2  0
 19 21  2  0
 20 21  1  0
 21 22  1  0
 22 23  1  0
 23 24  1  0
M  END
