x0852_0_B-x0574_0_A
     RDKit          3D

 22 24  0  0  0  0  0  0  0  0999 V2000
   -9.6140   17.2760    7.2470 N   0  0  0  0  0  0  0  0  0  0  0  0
   -9.4450   16.8650    6.1710 C   0  0  0  0  0  0  0  0  0  0  0  0
   -9.2650   16.4510    4.8040 C   0  0  0  0  0  0  0  0  0  0  0  0
   -8.2000   15.6230    4.3860 C   0  0  0  0  0  0  0  0  0  0  0  0
  -10.1940   16.9060    3.8640 C   0  0  0  0  0  0  0  0  0  0  0  0
   -7.3210   15.1970    5.3460 O   0  0  0  0  0  0  0  0  0  0  0  0
   -8.0710   15.2700    3.0090 C   0  0  0  0  0  0  0  0  0  0  0  0
  -10.0640   16.5390    2.5280 C   0  0  0  0  0  0  0  0  0  0  0  0
  -11.2930   17.1370    1.2320 Br  0  0  0  0  0  0  0  0  0  0  0  0
   -6.9750   14.4400    2.3800 C   0  0  0  0  0  0  0  0  0  0  0  0
   -9.0230   15.7380    2.1130 C   0  0  0  0  0  0  0  0  0  0  0  0
   -6.7550   14.8250    0.9910 O   0  0  0  0  0  0  0  0  0  0  0  0
   -5.4330   14.8110    0.6000 C   0  0  0  0  0  0  0  0  0  0  0  0
   -4.4230   14.5620    1.4880 C   0  0  0  0  0  0  0  0  0  0  0  0
   -5.1010   15.0510   -0.7410 C   0  0  0  0  0  0  0  0  0  0  0  0
   -3.0970   14.5280    1.0980 C   0  0  0  0  0  0  0  0  0  0  0  0
   -3.7520   15.0260   -1.1760 C   0  0  0  0  0  0  0  0  0  0  0  0
   -2.7520   14.7490   -0.2210 C   0  0  0  0  0  0  0  0  0  0  0  0
   -2.0780   14.2770    1.9550 N   0  0  0  0  0  0  0  0  0  0  0  0
   -0.9620   14.2770    1.3430 C   0  0  0  0  0  0  0  0  0  0  0  0
   -1.0250   14.6080   -0.3420 S   0  0  0  0  0  0  0  0  0  0  0  0
    0.1310   14.0220    2.0370 N   0  0  0  0  0  0  0  0  0  0  0  0
  1  2  3  0
  2  3  1  0
  3  4  2  0
  3  5  1  0
  4  6  1  0
  4  7  1  0
  5  8  2  0
  8  9  1  0
  7 10  1  0
  7 11  2  0
  8 11  1  0
 10 12  1  0
 12 13  1  0
 13 14  2  0
 13 15  1  0
 14 16  1  0
 15 17  2  0
 16 18  2  0
 17 18  1  0
 16 19  1  0
 19 20  2  0
 18 21  1  0
 20 21  1  0
 20 22  1  0
M  END
