x0852_0_B-x0591_0_A
     RDKit          3D

 25 26  0  0  0  0  0  0  0  0999 V2000
   -9.7640   17.6560    7.3900 N   0  0  0  0  0  0  0  0  0  0  0  0
   -9.5940   17.1870    6.3390 C   0  0  0  0  0  0  0  0  0  0  0  0
   -9.3940   16.6740    5.0220 C   0  0  0  0  0  0  0  0  0  0  0  0
   -8.3770   15.7610    4.7420 C   0  0  0  0  0  0  0  0  0  0  0  0
  -10.2380   17.1020    3.9910 C   0  0  0  0  0  0  0  0  0  0  0  0
   -7.5550   15.3390    5.7670 O   0  0  0  0  0  0  0  0  0  0  0  0
   -8.2030   15.2880    3.4390 C   0  0  0  0  0  0  0  0  0  0  0  0
  -10.0630   16.6140    2.6990 C   0  0  0  0  0  0  0  0  0  0  0  0
  -11.1810   17.1710    1.2830 Br  0  0  0  0  0  0  0  0  0  0  0  0
   -7.1250   14.3490    3.0790 C   0  0  0  0  0  0  0  0  0  0  0  0
   -9.0530   15.7140    2.4260 C   0  0  0  0  0  0  0  0  0  0  0  0
   -7.0140   13.8020    1.6590 C   0  0  0  0  0  0  0  0  0  0  0  0
   -6.0120   14.4720    0.8430 N   0  0  0  0  0  0  0  0  0  0  0  0
   -6.3180   14.8280   -0.4460 C   0  0  0  0  0  0  0  0  0  0  0  0
   -7.4450   15.1820   -0.7670 O   0  0  0  0  0  0  0  0  0  0  0  0
   -5.2550   14.7510   -1.4850 C   0  0  0  0  0  0  0  0  0  0  0  0
   -3.8930   14.5270   -1.2180 C   0  0  0  0  0  0  0  0  0  0  0  0
   -5.6790   14.9140   -2.8020 C   0  0  0  0  0  0  0  0  0  0  0  0
   -2.9700   14.4690   -2.2820 C   0  0  0  0  0  0  0  0  0  0  0  0
   -4.7670   14.8540   -3.8520 C   0  0  0  0  0  0  0  0  0  0  0  0
   -3.4270   14.6360   -3.5930 C   0  0  0  0  0  0  0  0  0  0  0  0
   -2.3310   14.5770   -4.9910 S   0  0  0  0  0  0  0  0  0  0  0  0
   -1.0770   15.6020   -4.5330 N   0  0  0  0  0  0  0  0  0  0  0  0
   -1.7580   13.2550   -5.0520 O   0  0  0  0  0  0  0  0  0  0  0  0
   -3.0250   15.1820   -6.1050 O   0  0  0  0  0  0  0  0  0  0  0  0
  1  2  3  0
  2  3  1  0
  3  4  2  0
  3  5  1  0
  4  6  1  0
  4  7  1  0
  5  8  2  0
  8  9  1  0
  7 10  1  0
  7 11  2  0
  8 11  1  0
 10 12  1  0
 12 13  1  0
 13 14  1  0
 14 15  2  0
 14 16  1  0
 16 17  2  0
 16 18  1  0
 17 19  1  0
 18 20  2  0
 19 21  2  0
 20 21  1  0
 21 22  1  0
 22 23  1  0
 22 24  2  0
 22 25  2  0
M  END
