x0852_0_B-x0290_0_A
     RDKit          3D

 24 25  0  0  0  0  0  0  0  0999 V2000
   -9.7200   17.8800    7.1830 N   0  0  0  0  0  0  0  0  0  0  0  0
   -9.4700   17.3340    6.1890 C   0  0  0  0  0  0  0  0  0  0  0  0
   -9.1950   16.5850    5.0020 C   0  0  0  0  0  0  0  0  0  0  0  0
   -8.2790   15.5260    5.0320 C   0  0  0  0  0  0  0  0  0  0  0  0
   -9.8610   16.9170    3.7980 C   0  0  0  0  0  0  0  0  0  0  0  0
   -7.5760   15.1250    6.1390 O   0  0  0  0  0  0  0  0  0  0  0  0
   -8.0370   14.7990    3.8840 C   0  0  0  0  0  0  0  0  0  0  0  0
   -9.6020   16.1730    2.6360 C   0  0  0  0  0  0  0  0  0  0  0  0
  -10.1170   16.3070    1.3730 O   0  0  0  0  0  0  0  0  0  0  0  0
   -8.6960   15.1250    2.7090 C   0  0  0  0  0  0  0  0  0  0  0  0
   -9.9910   15.1510    0.5100 C   0  0  0  0  0  0  0  0  0  0  0  0
   -8.5380   14.8810    0.0320 C   0  0  0  0  0  0  0  0  0  0  0  0
   -7.8420   13.8090    0.7980 N   0  0  0  0  0  0  0  0  0  0  0  0
   -6.6430   14.2480    1.5720 C   0  0  0  0  0  0  0  0  0  0  0  0
   -5.3730   14.4270    0.7450 C   0  0  0  0  0  0  0  0  0  0  0  0
   -5.4390   14.3590   -0.4890 O   0  0  0  0  0  0  0  0  0  0  0  0
   -4.1530   14.6570    1.3030 N   0  0  0  0  0  0  0  0  0  0  0  0
   -2.8630   14.6280    0.7830 C   0  0  0  0  0  0  0  0  0  0  0  0
   -1.8650   14.5690    1.7070 N   0  0  0  0  0  0  0  0  0  0  0  0
   -2.5970   14.6530   -0.5710 C   0  0  0  0  0  0  0  0  0  0  0  0
   -0.5910   14.5310    1.2520 C   0  0  0  0  0  0  0  0  0  0  0  0
   -1.2740   14.6140   -1.0220 C   0  0  0  0  0  0  0  0  0  0  0  0
   -0.9920   14.6360   -2.4900 C   0  0  0  0  0  0  0  0  0  0  0  0
   -0.2480   14.5510   -0.0840 C   0  0  0  0  0  0  0  0  0  0  0  0
  1  2  3  0
  2  3  1  0
  3  4  2  0
  3  5  1  0
  4  6  1  0
  4  7  1  0
  5  8  2  0
  8  9  1  0
  7 10  2  0
  8 10  1  0
  9 11  1  0
 11 12  1  0
 12 13  1  0
 13 14  1  0
 14 15  1  0
 15 16  2  0
 15 17  1  0
 17 18  1  0
 18 19  2  0
 18 20  1  0
 19 21  1  0
 20 22  2  0
 22 23  1  0
 21 24  2  0
 22 24  1  0
M  END
