x0855_0_A-x0950_0_A
     RDKit          3D

 12 12  0  0  0  0  0  0  0  0999 V2000
    1.2450   12.9970   -2.3840 O   0  0  0  0  0  0  0  0  0  0  0  0
    0.7260   12.1010   -3.2450 C   0  0  0  0  0  0  0  0  0  0  0  0
    0.4120   12.6610   -4.6120 C   0  0  1  0  0  0  0  0  0  0  0  0
    0.5600   10.9500   -2.8870 O   0  0  0  0  0  0  0  0  0  0  0  0
    1.6970   12.9130   -5.3810 C   0  0  0  0  0  0  0  0  0  0  0  0
   -0.5550   11.8070   -5.2860 N   0  0  0  0  0  0  0  0  0  0  0  0
    2.9020   13.0060   -4.4590 C   0  0  0  0  0  0  0  0  0  0  0  0
   -0.3360   10.7420   -6.1180 C   0  0  0  0  0  0  0  0  0  0  0  0
   -1.8650   12.0470   -5.1020 N   0  0  0  0  0  0  0  0  0  0  0  0
   -1.5710   10.2730   -6.4530 C   0  0  0  0  0  0  0  0  0  0  0  0
   -2.4820   11.1040   -5.8130 C   0  0  0  0  0  0  0  0  0  0  0  0
   -2.0000    8.8230   -7.5390 Br  0  0  0  0  0  0  0  0  0  0  0  0
  1  2  1  0
  2  3  1  0
  2  4  2  0
  3  5  1  6
  3  6  1  0
  5  7  1  0
  6  8  1  0
  6  9  1  0
  8 10  2  0
  9 11  2  0
 10 11  1  0
 10 12  1  0
M  END
