x0855_0_A-x1018_0_A
     RDKit          3D

 23 25  0  0  0  0  0  0  0  0999 V2000
    2.0890   12.6220   -2.6870 O   0  0  0  0  0  0  0  0  0  0  0  0
    0.7660   12.3470   -3.0820 C   0  0  0  0  0  0  0  0  0  0  0  0
    0.5840   12.6000   -4.5960 C   0  0  0  0  0  0  0  0  0  0  0  0
    0.5090   10.9950   -2.7220 O   0  0  0  0  0  0  0  0  0  0  0  0
   -0.1560   13.2400   -2.2170 C   0  0  0  0  0  0  0  0  0  0  0  0
   -1.5750   12.7160   -1.9580 C   0  0  0  0  0  0  0  0  0  0  0  0
   -0.4290   11.7110   -5.1330 N   0  0  0  0  0  0  0  0  0  0  0  0
   -2.6230   13.4870   -2.7890 C   0  0  0  0  0  0  0  0  0  0  0  0
   -0.2930   10.7820   -6.1210 C   0  0  0  0  0  0  0  0  0  0  0  0
   -1.6810   11.7710   -4.6180 N   0  0  0  0  0  0  0  0  0  0  0  0
   -1.5230   10.2010   -6.2410 C   0  0  0  0  0  0  0  0  0  0  0  0
   -2.3450   10.8360   -5.3050 C   0  0  0  0  0  0  0  0  0  0  0  0
   -3.1400   14.6930   -2.0930 N   0  0  0  0  0  0  0  0  0  0  0  0
   -2.0520    8.8380   -7.3980 Br  0  0  0  0  0  0  0  0  0  0  0  0
   -2.8730   14.5780   -0.6560 N   0  0  0  0  0  0  0  0  0  0  0  0
   -4.5740   14.7690   -2.2400 N   0  0  0  0  0  0  0  0  0  0  0  0
   -5.0480   15.2430   -1.0240 N   0  0  0  0  0  0  0  0  0  0  0  0
   -3.9980   15.2560   -0.0110 C   0  0  1  0  0  0  0  0  0  0  0  0
   -6.3800   15.0460   -0.7780 N   0  0  0  0  0  0  0  0  0  0  0  0
   -4.4520   14.6480    1.2680 C   0  0  0  0  0  0  0  0  0  0  0  0
   -6.6980   14.6330    0.4070 C   0  0  0  0  0  0  0  0  0  0  0  0
   -5.7360   14.3460    1.4920 C   0  0  0  0  0  0  0  0  0  0  0  0
   -8.3870   14.4220    0.7130 Cl  0  0  0  0  0  0  0  0  0  0  0  0
  2  1  1  0
  2  3  1  0
  2  4  1  0
  2  5  1  0
  5  6  1  0
  3  7  1  0
  6  8  1  0
  7  9  1  0
  7 10  1  0
  9 11  2  0
 10 12  2  0
 11 12  1  0
  8 13  1  0
 11 14  1  0
 13 15  1  0
 13 16  1  0
 16 17  1  0
 15 18  1  0
 17 18  1  0
 17 19  1  0
 18 20  1  1
 19 21  2  0
 20 22  2  0
 21 22  1  0
 21 23  1  0
M  END
