x0852_0_B-x0905_0_A
     RDKit          3D

 20 21  0  0  0  0  0  0  0  0999 V2000
   -9.7300   17.7830    7.0680 N   0  0  0  0  0  0  0  0  0  0  0  0
   -9.4690   17.2570    6.0610 C   0  0  0  0  0  0  0  0  0  0  0  0
   -9.1770   16.5490    4.8470 C   0  0  0  0  0  0  0  0  0  0  0  0
   -8.2470   15.4940    4.8300 C   0  0  0  0  0  0  0  0  0  0  0  0
   -9.8270   16.9100    3.6540 C   0  0  0  0  0  0  0  0  0  0  0  0
   -7.5950   15.1230    5.9770 O   0  0  0  0  0  0  0  0  0  0  0  0
   -7.9810   14.8120    3.6480 C   0  0  0  0  0  0  0  0  0  0  0  0
   -9.5510   16.2190    2.4600 C   0  0  0  0  0  0  0  0  0  0  0  0
  -10.1930   16.5860    1.2900 O   0  0  0  0  0  0  0  0  0  0  0  0
   -8.6290   15.1700    2.4700 C   0  0  0  0  0  0  0  0  0  0  0  0
   -9.7750   15.7720    0.1640 C   0  0  0  0  0  0  0  0  0  0  0  0
   -9.0830   16.6220   -0.9170 C   0  0  0  0  0  0  0  0  0  0  0  0
   -7.8520   15.9420   -1.5490 C   0  0  0  0  0  0  0  0  0  0  0  0
   -7.2740   14.9970   -0.6420 O   0  0  0  0  0  0  0  0  0  0  0  0
   -5.8930   15.0440   -0.4940 C   0  0  0  0  0  0  0  0  0  0  0  0
   -5.3720   14.9680    0.7450 N   0  0  0  0  0  0  0  0  0  0  0  0
   -5.1200   15.1630   -1.6380 C   0  0  0  0  0  0  0  0  0  0  0  0
   -4.0300   15.0030    0.8570 C   0  0  0  0  0  0  0  0  0  0  0  0
   -3.7340   15.1970   -1.4950 C   0  0  0  0  0  0  0  0  0  0  0  0
   -3.1780   15.1120   -0.2200 C   0  0  0  0  0  0  0  0  0  0  0  0
  1  2  3  0
  2  3  1  0
  3  4  2  0
  3  5  1  0
  4  6  1  0
  4  7  1  0
  5  8  2  0
  8  9  1  0
  7 10  2  0
  8 10  1  0
  9 11  1  0
 11 12  1  0
 12 13  1  0
 13 14  1  0
 14 15  1  0
 15 16  2  0
 15 17  1  0
 16 18  1  0
 17 19  2  0
 18 20  2  0
 19 20  1  0
M  END
