x0852_0_B_α-x0724_0_A_α
     RDKit          3D

 23 25  0  0  0  0  0  0  0  0999 V2000
   -9.6400   17.6870    7.3720 N   0  0  0  0  0  0  0  0  0  0  0  0
   -9.5060   17.2640    6.2990 C   0  0  0  0  0  0  0  0  0  0  0  0
   -9.3630   16.7580    4.9700 C   0  0  0  0  0  0  0  0  0  0  0  0
   -8.4360   15.7700    4.6480 C   0  0  0  0  0  0  0  0  0  0  0  0
  -10.1820   17.2660    3.9530 C   0  0  0  0  0  0  0  0  0  0  0  0
   -7.5930   15.1790    5.5330 O   0  0  0  0  0  0  0  0  0  0  0  0
   -8.3240   15.3040    3.3470 C   0  0  0  0  0  0  0  0  0  0  0  0
  -10.0610   16.7770    2.6490 C   0  0  0  0  0  0  0  0  0  0  0  0
  -11.1470   17.4270    1.2470 Br  0  0  0  0  0  0  0  0  0  0  0  0
   -7.3340   13.9120    4.8560 N   0  0  0  0  0  0  0  0  0  0  0  0
   -9.1380   15.8090    2.3460 C   0  0  0  0  0  0  0  0  0  0  0  0
   -8.2890   13.8860    3.7350 C   0  0  0  0  0  0  0  0  0  0  0  0
   -7.5970   14.1300    2.4170 C   0  0  0  0  0  0  0  0  0  0  0  0
   -6.2450   14.2460    2.1390 C   0  0  0  0  0  0  0  0  0  0  0  0
   -8.1990   14.2870    1.1420 C   0  0  0  0  0  0  0  0  0  0  0  0
   -7.3210   14.4790    0.1640 N   0  0  0  0  0  0  0  0  0  0  0  0
   -6.1120   14.4480    0.7790 N   0  0  0  0  0  0  0  0  0  0  0  0
   -4.9200   14.6000    0.0270 C   0  0  0  0  0  0  0  0  0  0  0  0
   -3.6970   14.7640    0.6900 C   0  0  0  0  0  0  0  0  0  0  0  0
   -4.9560   14.5810   -1.3720 C   0  0  0  0  0  0  0  0  0  0  0  0
   -2.5220   14.8990   -0.0440 C   0  0  0  0  0  0  0  0  0  0  0  0
   -3.7750   14.7180   -2.1010 C   0  0  0  0  0  0  0  0  0  0  0  0
   -2.5630   14.8760   -1.4390 C   0  0  0  0  0  0  0  0  0  0  0  0
  1  2  3  0
  2  3  1  0
  3  4  2  0
  3  5  1  0
  4  6  1  0
  4  7  1  0
  5  8  2  0
  8  9  1  0
  6 10  1  0
  7 11  2  0
  8 11  1  0
 10 12  1  0
 12 13  1  0
 13 14  2  0
 13 15  1  0
 15 16  2  0
 14 17  1  0
 16 17  1  0
 17 18  1  0
 18 19  2  0
 18 20  1  0
 19 21  1  0
 20 22  2  0
 21 23  2  0
 22 23  1  0
M  END
