x0855_0_A-x0159_0_B
     RDKit          3D

 31 34  0  0  0  0  0  0  0  0999 V2000
    1.5530   13.1530   -2.6770 O   0  0  0  0  0  0  0  0  0  0  0  0
    0.9210   12.1760   -3.3540 C   0  0  0  0  0  0  0  0  0  0  0  0
    0.5520   12.5660   -4.7620 C   0  0  0  0  0  0  0  0  0  0  0  0
    0.7110   11.1160   -2.7940 O   0  0  0  0  0  0  0  0  0  0  0  0
   -0.4640   11.6500   -5.2350 N   0  0  0  0  0  0  0  0  0  0  0  0
   -0.3100   10.6640   -6.1720 C   0  0  0  0  0  0  0  0  0  0  0  0
   -1.7130   11.7240   -4.7270 N   0  0  0  0  0  0  0  0  0  0  0  0
   -1.5340   10.0460   -6.2720 C   0  0  0  0  0  0  0  0  0  0  0  0
   -2.3610   10.7410   -5.3650 C   0  0  0  0  0  0  0  0  0  0  0  0
   -1.9070    8.9960   -7.0530 O   0  0  0  0  0  0  0  0  0  0  0  0
   -1.3720    7.7180   -6.6670 C   0  0  0  0  0  0  0  0  0  0  0  0
   -1.2980    6.7520   -7.8610 C   0  0  0  0  0  0  0  0  0  0  0  0
   -0.6000    7.3870   -9.0750 C   0  0  0  0  0  0  0  0  0  0  0  0
    0.8590    6.9090   -9.3390 C   0  0  1  0  0  0  0  0  0  0  0  0
    1.8270    8.0920   -9.1710 C   0  0  0  0  0  0  0  0  0  0  0  0
    1.2960    5.7210   -8.5110 C   0  0  0  0  0  0  0  0  0  0  0  0
    1.4390    9.1550  -10.0890 N   0  0  0  0  0  0  0  0  0  0  0  0
    2.1810    4.7980   -9.0900 C   0  0  0  0  0  0  0  0  0  0  0  0
    0.8600    5.5100   -7.2040 C   0  0  0  0  0  0  0  0  0  0  0  0
    2.2160    9.3860  -11.1610 C   0  0  0  0  0  0  0  0  0  0  0  0
    2.6200    3.6890   -8.3780 C   0  0  0  0  0  0  0  0  0  0  0  0
    1.2960    4.4040   -6.5030 C   0  0  0  0  0  0  0  0  0  0  0  0
    2.0130   10.5250  -11.8860 N   0  0  0  0  0  0  0  0  0  0  0  0
    3.1950    8.6700  -11.6600 N   0  0  0  0  0  0  0  0  0  0  0  0
    2.1790    3.4930   -7.0880 C   0  0  0  0  0  0  0  0  0  0  0  0
    3.6500    9.3830  -12.7480 C   0  0  0  0  0  0  0  0  0  0  0  0
    2.9170   10.5560  -12.9080 C   0  0  0  0  0  0  0  0  0  0  0  0
    3.1540   11.4790  -13.9220 C   0  0  0  0  0  0  0  0  0  0  0  0
    4.6860    9.1000  -13.6470 C   0  0  0  0  0  0  0  0  0  0  0  0
    4.1890   11.1820  -14.8080 C   0  0  0  0  0  0  0  0  0  0  0  0
    4.9470   10.0130  -14.6790 C   0  0  0  0  0  0  0  0  0  0  0  0
  1  2  1  0
  2  3  1  0
  2  4  2  0
  3  5  1  0
  5  6  1  0
  5  7  1  0
  6  8  2  0
  7  9  2  0
  8  9  1  0
  8 10  1  0
 10 11  1  0
 11 12  1  0
 12 13  1  0
 14 13  1  1
 14 15  1  0
 14 16  1  0
 15 17  1  0
 16 18  2  0
 16 19  1  0
 17 20  1  0
 18 21  1  0
 19 22  2  0
 20 23  1  0
 20 24  2  0
 21 25  2  0
 22 25  1  0
 24 26  1  0
 23 27  1  0
 26 27  2  0
 27 28  1  0
 26 29  1  0
 28 30  2  0
 29 31  2  0
 30 31  1  0
M  END
