x0855_0_A-x0962_0_A
     RDKit          3D

 20 21  0  0  0  0  0  0  0  0999 V2000
    1.6940   13.1040   -2.5660 O   0  0  0  0  0  0  0  0  0  0  0  0
    1.0270   12.2010   -3.3090 C   0  0  0  0  0  0  0  0  0  0  0  0
    0.7030   12.5660   -4.7500 C   0  0  2  0  0  0  0  0  0  0  0  0
    0.7030   11.1210   -2.8300 O   0  0  0  0  0  0  0  0  0  0  0  0
    0.4360   14.0780   -4.8890 C   0  0  0  0  0  0  0  0  0  0  0  0
   -0.3870   11.7220   -5.2210 N   0  0  0  0  0  0  0  0  0  0  0  0
   -0.2710   14.7020   -3.6720 C   0  0  0  0  0  0  0  0  0  0  0  0
   -0.3150   10.7560   -6.1770 C   0  0  0  0  0  0  0  0  0  0  0  0
   -1.6260   11.8620   -4.6830 N   0  0  0  0  0  0  0  0  0  0  0  0
   -1.7690   14.9510   -3.8950 C   0  0  0  0  0  0  0  0  0  0  0  0
   -1.5770   10.2310   -6.2540 C   0  0  0  0  0  0  0  0  0  0  0  0
   -2.3490   10.9380   -5.3270 C   0  0  0  0  0  0  0  0  0  0  0  0
   -2.1760    8.8560   -7.3560 Br  0  0  0  0  0  0  0  0  0  0  0  0
   -2.5200   14.9380   -2.6270 C   0  0  0  0  0  0  0  0  0  0  0  0
   -3.1410   14.9640   -1.6030 C   0  0  0  0  0  0  0  0  0  0  0  0
   -3.8910   15.0240   -0.4110 C   0  0  0  0  0  0  0  0  0  0  0  0
   -3.3740   15.1840    0.8410 N   0  0  0  0  0  0  0  0  0  0  0  0
   -5.2500   14.9410   -0.2380 C   0  0  0  0  0  0  0  0  0  0  0  0
   -4.4240   15.1930    1.7150 C   0  0  0  0  0  0  0  0  0  0  0  0
   -5.5710   15.0420    1.0870 N   0  0  0  0  0  0  0  0  0  0  0  0
  1  2  1  0
  2  3  1  0
  2  4  2  0
  3  5  1  1
  3  6  1  0
  5  7  1  0
  6  8  1  0
  6  9  1  0
  7 10  1  0
  8 11  2  0
  9 12  2  0
 11 12  1  0
 11 13  1  0
 10 14  1  0
 14 15  3  0
 15 16  1  0
 16 17  1  0
 16 18  2  0
 17 19  1  0
 18 20  1  0
 19 20  2  0
M  END
