x0855_0_A_α-x0282_0_A_α
     RDKit          3D

 26 28  0  0  0  0  0  0  0  0999 V2000
    2.6400   12.1840   -3.3990 O   0  0  0  0  0  0  0  0  0  0  0  0
    1.3120   12.6170   -3.4390 C   0  0  0  0  0  0  0  0  0  0  0  0
    0.8080   12.7510   -4.8950 C   0  0  0  0  0  0  0  0  0  0  0  0
    0.5880   11.6440   -2.6770 O   0  0  0  0  0  0  0  0  0  0  0  0
    1.3910   13.9570   -2.6800 C   0  0  0  0  0  0  0  0  0  0  0  0
    0.1040   14.7470   -2.4650 C   0  0  0  0  0  0  0  0  0  0  0  0
   -0.2670   11.8210   -5.2480 N   0  0  0  0  0  0  0  0  0  0  0  0
   -0.2170   10.8280   -6.1830 C   0  0  0  0  0  0  0  0  0  0  0  0
   -1.4730   11.9010   -4.6160 N   0  0  0  0  0  0  0  0  0  0  0  0
   -0.4150   14.6610   -1.0690 C   0  0  0  0  0  0  0  0  0  0  0  0
   -1.4520   10.2350   -6.1490 C   0  0  0  0  0  0  0  0  0  0  0  0
   -2.1910   10.9210   -5.1800 C   0  0  0  0  0  0  0  0  0  0  0  0
   -1.7170   14.5010   -0.9000 N   0  0  0  0  0  0  0  0  0  0  0  0
    0.4410   14.7450   -0.0170 C   0  0  0  0  0  0  0  0  0  0  0  0
   -2.0700    8.8030   -7.1650 Br  0  0  0  0  0  0  0  0  0  0  0  0
   -0.1170   14.6450    1.2330 C   0  0  0  0  0  0  0  0  0  0  0  0
   -2.1910   14.4200    0.3380 C   0  0  0  0  0  0  0  0  0  0  0  0
   -3.5320   14.2620    0.4480 N   0  0  0  0  0  0  0  0  0  0  0  0
   -1.4230   14.4870    1.4470 N   0  0  0  0  0  0  0  0  0  0  0  0
   -4.0060   14.2180    1.8040 C   0  0  0  0  0  0  0  0  0  0  0  0
   -4.2770   14.9570   -0.6230 C   0  0  0  0  0  0  0  0  0  0  0  0
   -5.3120   14.9570    1.8330 C   0  0  0  0  0  0  0  0  0  0  0  0
   -5.8180   14.8880   -0.5380 C   0  0  0  0  0  0  0  0  0  0  0  0
   -6.2340   14.3180    0.8110 C   0  0  0  0  0  0  0  0  0  0  0  0
   -7.7170   14.4140    1.1710 C   0  0  0  0  0  0  0  0  0  0  0  0
   -8.5150   14.6650    0.0260 O   0  0  0  0  0  0  0  0  0  0  0  0
  2  1  1  0
  2  3  1  0
  2  4  1  0
  2  5  1  0
  5  6  1  0
  3  7  1  0
  7  8  1  0
  7  9  1  0
  6 10  1  0
  8 11  2  0
  9 12  2  0
 11 12  1  0
 10 13  2  0
 10 14  1  0
 11 15  1  0
 14 16  2  0
 13 17  1  0
 17 18  1  0
 16 19  1  0
 17 19  2  0
 18 20  1  0
 18 21  1  0
 20 22  1  0
 21 23  1  0
 22 24  1  0
 23 24  1  0
 24 25  1  0
 25 26  1  0
M  END
