x0852_0_B-x0592_0_A
     RDKit          3D

 21 22  0  0  0  0  0  0  0  0999 V2000
   -9.6710   17.7270    7.3720 N   0  0  0  0  0  0  0  0  0  0  0  0
   -9.4510   17.2670    6.3350 C   0  0  0  0  0  0  0  0  0  0  0  0
   -9.3090   16.6760    5.0560 C   0  0  0  0  0  0  0  0  0  0  0  0
   -8.4080   15.6430    4.8040 C   0  0  0  0  0  0  0  0  0  0  0  0
  -10.1220   17.1620    4.0230 C   0  0  0  0  0  0  0  0  0  0  0  0
   -7.6090   15.1540    5.8240 O   0  0  0  0  0  0  0  0  0  0  0  0
   -8.3450   15.1190    3.5130 C   0  0  0  0  0  0  0  0  0  0  0  0
  -10.0360   16.6160    2.7560 C   0  0  0  0  0  0  0  0  0  0  0  0
  -11.1160   17.2380    1.3360 Br  0  0  0  0  0  0  0  0  0  0  0  0
   -7.4870   14.1290    3.2430 O   0  0  0  0  0  0  0  0  0  0  0  0
   -9.1550   15.6020    2.5060 C   0  0  0  0  0  0  0  0  0  0  0  0
   -7.7580   13.3900    2.0480 C   0  0  0  0  0  0  0  0  0  0  0  0
   -8.0060   14.2810    0.8290 C   0  0  0  0  0  0  0  0  0  0  0  0
   -6.7650   14.5970    0.1570 N   0  0  0  0  0  0  0  0  0  0  0  0
   -6.7570   15.0540   -1.1250 N   0  0  0  0  0  0  0  0  0  0  0  0
   -5.5270   14.4800    0.7010 C   0  0  0  0  0  0  0  0  0  0  0  0
   -4.6320   14.8740   -0.2610 C   0  0  0  0  0  0  0  0  0  0  0  0
   -5.4520   15.2200   -1.3690 C   0  0  0  0  0  0  0  0  0  0  0  0
   -3.1910   14.9230   -0.1720 C   0  0  0  0  0  0  0  0  0  0  0  0
   -2.6640   14.9470    1.0950 N   0  0  0  0  0  0  0  0  0  0  0  0
   -2.4660   14.9290   -1.1550 O   0  0  0  0  0  0  0  0  0  0  0  0
  1  2  3  0
  2  3  1  0
  3  4  2  0
  3  5  1  0
  4  6  1  0
  4  7  1  0
  5  8  2  0
  8  9  1  0
  7 10  1  0
  7 11  2  0
  8 11  1  0
 10 12  1  0
 12 13  1  0
 13 14  1  0
 14 15  1  0
 14 16  1  0
 16 17  2  0
 15 18  2  0
 17 18  1  0
 17 19  1  0
 19 20  1  0
 19 21  2  0
M  END
