x0855_0_A_α-x0631_0_A_α
     RDKit          3D

 22 23  0  0  0  0  0  0  0  0999 V2000
    1.4660   13.1150   -2.6930 O   0  0  0  0  0  0  0  0  0  0  0  0
    0.8930   12.1460   -3.4320 C   0  0  0  0  0  0  0  0  0  0  0  0
    0.6220   12.5650   -4.8570 C   0  0  0  0  0  0  0  0  0  0  0  0
    0.6660   11.0720   -2.9010 O   0  0  0  0  0  0  0  0  0  0  0  0
   -0.4390   11.7520   -5.4130 N   0  0  0  0  0  0  0  0  0  0  0  0
   -0.3160   10.6630   -6.2260 C   0  0  0  0  0  0  0  0  0  0  0  0
   -1.7170   12.0460   -5.1290 N   0  0  0  0  0  0  0  0  0  0  0  0
   -1.5830   10.2090   -6.4650 C   0  0  0  0  0  0  0  0  0  0  0  0
   -2.4160   11.0990   -5.7680 C   0  0  0  0  0  0  0  0  0  0  0  0
   -1.9600    9.1400   -7.2050 O   0  0  0  0  0  0  0  0  0  0  0  0
   -1.1230    7.9890   -7.0250 C   0  0  0  0  0  0  0  0  0  0  0  0
    0.0710    8.0130   -7.9850 C   0  0  0  0  0  0  0  0  0  0  0  0
   -0.0350    9.0210   -9.1410 C   0  0  0  0  0  0  0  0  0  0  0  0
    1.2820    9.7330   -9.4850 C   0  0  0  0  0  0  0  0  0  0  0  0
    1.3620   10.2630  -10.8530 N   0  0  0  0  0  0  0  0  0  0  0  0
    2.1060    9.4080  -11.7810 C   0  0  2  0  0  0  0  0  0  0  0  0
    2.8900    8.5410  -10.9770 O   0  0  0  0  0  0  0  0  0  0  0  0
    3.0630   10.0790  -12.8160 C   0  0  1  0  0  0  0  0  0  0  0  0
    3.3180    9.3420  -14.0000 O   0  0  0  0  0  0  0  0  0  0  0  0
    2.6830   11.4630  -13.3260 C   0  0  0  0  0  0  0  0  0  0  0  0
    4.1690   10.2350  -14.7290 C   0  0  0  0  0  0  0  0  0  0  0  0
    3.5700   11.6190  -14.5420 C   0  0  0  0  0  0  0  0  0  0  0  0
  1  2  1  0
  2  3  1  0
  2  4  2  0
  3  5  1  0
  5  6  1  0
  5  7  1  0
  6  8  2  0
  7  9  2  0
  8  9  1  0
  8 10  1  0
 10 11  1  0
 11 12  1  0
 12 13  1  0
 13 14  1  0
 14 15  1  0
 15 16  1  0
 16 17  1  1
 16 18  1  0
 18 19  1  0
 18 20  1  6
 19 21  1  0
 20 22  1  0
 21 22  1  0
M  END
