x0852_0_B_α-x0626_0_A_α
     RDKit          3D

 23 24  0  0  0  0  0  0  0  0999 V2000
   -9.6820   17.8040    7.3050 N   0  0  0  0  0  0  0  0  0  0  0  0
   -9.4470   17.2890    6.2870 C   0  0  0  0  0  0  0  0  0  0  0  0
   -9.2200   16.6050    5.0510 C   0  0  0  0  0  0  0  0  0  0  0  0
   -8.3080   15.5440    4.9590 C   0  0  0  0  0  0  0  0  0  0  0  0
   -9.9430   17.0200    3.9160 C   0  0  0  0  0  0  0  0  0  0  0  0
   -7.5980   15.1380    6.0610 O   0  0  0  0  0  0  0  0  0  0  0  0
   -8.1230   14.8990    3.7490 C   0  0  0  0  0  0  0  0  0  0  0  0
   -9.7590   16.3760    2.6980 C   0  0  0  0  0  0  0  0  0  0  0  0
  -10.3820   16.6630    1.5050 O   0  0  0  0  0  0  0  0  0  0  0  0
   -8.8510   15.3190    2.6330 C   0  0  0  0  0  0  0  0  0  0  0  0
   -9.8760   16.0930    0.3020 C   0  0  0  0  0  0  0  0  0  0  0  0
   -9.7950   14.5660    0.3560 C   0  0  0  0  0  0  0  0  0  0  0  0
   -8.3860   13.9610    0.1980 C   0  0  0  0  0  0  0  0  0  0  0  0
   -7.3100   14.3170    1.2310 C   0  0  0  0  0  0  0  0  0  0  0  0
   -5.9980   14.7280    0.5910 C   0  0  0  0  0  0  0  0  0  0  0  0
   -4.8730   14.8880    1.3380 N   0  0  0  0  0  0  0  0  0  0  0  0
   -5.9250   14.9330   -0.6250 O   0  0  0  0  0  0  0  0  0  0  0  0
   -3.6050   14.7990    0.8720 C   0  0  0  0  0  0  0  0  0  0  0  0
   -2.4790   14.6700    1.5370 N   0  0  0  0  0  0  0  0  0  0  0  0
   -3.4890   14.8620   -0.8340 S   0  0  0  0  0  0  0  0  0  0  0  0
   -1.7910   14.6900   -0.6910 C   0  0  0  0  0  0  0  0  0  0  0  0
   -1.4380   14.6040    0.6410 C   0  0  0  0  0  0  0  0  0  0  0  0
   -0.0870   14.4500    1.1800 C   0  0  0  0  0  0  0  0  0  0  0  0
  1  2  3  0
  2  3  1  0
  3  4  2  0
  3  5  1  0
  4  6  1  0
  4  7  1  0
  5  8  2  0
  8  9  1  0
  7 10  2  0
  8 10  1  0
  9 11  1  0
 11 12  1  0
 12 13  1  0
 13 14  1  0
 14 15  1  0
 15 16  1  0
 15 17  2  0
 16 18  1  0
 18 19  2  0
 18 20  1  0
 20 21  1  0
 19 22  1  0
 21 22  2  0
 22 23  1  0
M  END
