x0852_0_B_α-5LW0_0_A_δ
     RDKit          3D

 23 25  0  0  0  0  0  0  0  0999 V2000
   -9.4000   17.4640    6.9880 N   0  0  0  0  0  0  0  0  0  0  0  0
   -9.2360   16.9700    5.9430 C   0  0  0  0  0  0  0  0  0  0  0  0
   -9.1740   16.3410    4.6480 C   0  0  0  0  0  0  0  0  0  0  0  0
   -8.4840   15.1560    4.3660 C   0  0  0  0  0  0  0  0  0  0  0  0
   -9.8480   16.9480    3.6030 C   0  0  0  0  0  0  0  0  0  0  0  0
   -7.7740   14.5200    5.2900 O   0  0  0  0  0  0  0  0  0  0  0  0
   -8.4910   14.5930    3.1030 C   0  0  0  0  0  0  0  0  0  0  0  0
   -9.8530   16.3740    2.3210 C   0  0  0  0  0  0  0  0  0  0  0  0
  -10.7670   17.1550    0.8640 Br  0  0  0  0  0  0  0  0  0  0  0  0
   -6.4220   14.7420    4.9020 C   0  0  0  0  0  0  0  0  0  0  0  0
   -9.1770   15.1970    2.0790 C   0  0  0  0  0  0  0  0  0  0  0  0
   -6.0210   14.2610    3.4910 C   0  0  0  0  0  0  0  0  0  0  0  0
   -4.6220   14.7760    3.0720 C   0  0  0  0  0  0  0  0  0  0  0  0
   -4.5750   15.3400    1.7250 N   0  0  0  0  0  0  0  0  0  0  0  0
   -3.2390   15.4070    1.1180 C   0  0  2  0  0  0  0  0  0  0  0  0
   -3.2070   14.7490   -0.2500 C   0  0  2  0  0  0  0  0  0  0  0  0
   -2.2740   14.6680    1.9180 N   0  0  0  0  0  0  0  0  0  0  0  0
   -1.7970   14.8940   -0.7380 C   0  0  2  0  0  0  0  0  0  0  0  0
   -3.9340   15.3140   -1.3940 N   0  0  0  0  0  0  0  0  0  0  0  0
   -0.9030   14.7050    1.3670 C   0  0  0  0  0  0  0  0  0  0  0  0
   -1.8780   14.3130   -2.0530 N   0  0  0  0  0  0  0  0  0  0  0  0
   -3.2180   14.7080   -2.5180 C   0  0  0  0  0  0  0  0  0  0  0  0
   -0.8910   14.1170    0.0560 N   0  0  0  0  0  0  0  0  0  0  0  0
  1  2  3  0
  2  3  1  0
  3  4  2  0
  3  5  1  0
  4  6  1  0
  4  7  1  0
  5  8  2  0
  8  9  1  0
  6 10  1  0
  7 11  2  0
  8 11  1  0
 10 12  1  0
 12 13  1  0
 13 14  1  0
 15 14  1  1
 15 16  1  0
 15 17  1  0
 16 18  1  0
 16 19  1  6
 17 20  1  0
 18 21  1  6
 19 22  1  0
 21 22  1  0
 18 23  1  0
 20 23  1  0
M  END
