x0855_0_A-x0282_0_A
     RDKit          3D

 26 28  0  0  0  0  0  0  0  0999 V2000
    2.6350   12.1640   -3.4010 O   0  0  0  0  0  0  0  0  0  0  0  0
    1.3130   12.6080   -3.4460 C   0  0  0  0  0  0  0  0  0  0  0  0
    0.8080   12.7510   -4.9030 C   0  0  0  0  0  0  0  0  0  0  0  0
    0.5700   11.6420   -2.6920 O   0  0  0  0  0  0  0  0  0  0  0  0
    1.3960   13.9400   -2.6730 C   0  0  0  0  0  0  0  0  0  0  0  0
    0.1150   14.7340   -2.4620 C   0  0  0  0  0  0  0  0  0  0  0  0
   -0.2680   11.8190   -5.2450 N   0  0  0  0  0  0  0  0  0  0  0  0
   -0.2150   10.8160   -6.1650 C   0  0  0  0  0  0  0  0  0  0  0  0
   -1.4750   11.9050   -4.6220 N   0  0  0  0  0  0  0  0  0  0  0  0
   -0.4130   14.6540   -1.0670 C   0  0  0  0  0  0  0  0  0  0  0  0
   -1.4430   10.2170   -6.1360 C   0  0  0  0  0  0  0  0  0  0  0  0
   -2.1880   10.9160   -5.1780 C   0  0  0  0  0  0  0  0  0  0  0  0
   -1.7160   14.4970   -0.9000 N   0  0  0  0  0  0  0  0  0  0  0  0
    0.4380   14.7400   -0.0150 C   0  0  0  0  0  0  0  0  0  0  0  0
   -2.0340    8.7700   -7.1470 Br  0  0  0  0  0  0  0  0  0  0  0  0
   -0.1230   14.6450    1.2370 C   0  0  0  0  0  0  0  0  0  0  0  0
   -2.1920   14.4200    0.3370 C   0  0  0  0  0  0  0  0  0  0  0  0
   -3.5350   14.2620    0.4490 N   0  0  0  0  0  0  0  0  0  0  0  0
   -1.4290   14.4890    1.4470 N   0  0  0  0  0  0  0  0  0  0  0  0
   -4.0000   14.2050    1.8080 C   0  0  0  0  0  0  0  0  0  0  0  0
   -4.2860   15.0150   -0.5830 C   0  0  0  0  0  0  0  0  0  0  0  0
   -5.3080   14.9430    1.8460 C   0  0  0  0  0  0  0  0  0  0  0  0
   -5.8200   14.8740   -0.5250 C   0  0  0  0  0  0  0  0  0  0  0  0
   -6.2310   14.3070    0.8230 C   0  0  0  0  0  0  0  0  0  0  0  0
   -7.7130   14.4050    1.1850 C   0  0  0  0  0  0  0  0  0  0  0  0
   -8.5210   14.6020    0.0390 O   0  0  0  0  0  0  0  0  0  0  0  0
  2  1  1  0
  2  3  1  0
  2  4  1  0
  2  5  1  0
  5  6  1  0
  3  7  1  0
  7  8  1  0
  7  9  1  0
  6 10  1  0
  8 11  2  0
  9 12  2  0
 11 12  1  0
 10 13  2  0
 10 14  1  0
 11 15  1  0
 14 16  2  0
 13 17  1  0
 17 18  1  0
 16 19  1  0
 17 19  2  0
 18 20  1  0
 18 21  1  0
 20 22  1  0
 21 23  1  0
 22 24  1  0
 23 24  1  0
 24 25  1  0
 25 26  1  0
M  END
