x0855_0_A_α-x1012_0_A_α
     RDKit          3D

 19 20  0  0  0  0  0  0  0  0999 V2000
    2.2150   12.5230   -3.0820 O   0  0  0  0  0  0  0  0  0  0  0  0
    0.9230   12.5090   -3.6470 C   0  0  0  0  0  0  0  0  0  0  0  0
    0.8440   12.1510   -5.1300 C   0  0  0  0  0  0  0  0  0  0  0  0
    0.2210   11.5170   -2.8810 O   0  0  0  0  0  0  0  0  0  0  0  0
    0.2390   13.8670   -3.5650 C   0  0  0  0  0  0  0  0  0  0  0  0
   -0.3120   11.3870   -5.4790 N   0  0  0  0  0  0  0  0  0  0  0  0
   -1.2260   14.0410   -3.2540 C   0  0  0  0  0  0  0  0  0  0  0  0
    1.0570   15.1000   -3.3230 C   0  0  0  0  0  0  0  0  0  0  0  0
   -0.3760   10.3740   -6.3730 C   0  0  0  0  0  0  0  0  0  0  0  0
   -1.4980   11.6550   -4.8830 N   0  0  0  0  0  0  0  0  0  0  0  0
   -1.7600   15.0040   -4.3150 C   0  0  0  0  0  0  0  0  0  0  0  0
    0.6200   16.0810   -4.3830 C   0  0  0  0  0  0  0  0  0  0  0  0
   -1.6720    9.9560   -6.3520 C   0  0  0  0  0  0  0  0  0  0  0  0
   -2.3310   10.7690   -5.4250 C   0  0  0  0  0  0  0  0  0  0  0  0
   -0.8400   16.1490   -4.5960 N   0  0  0  0  0  0  0  0  0  0  0  0
   -2.4290    8.5810   -7.3470 Br  0  0  0  0  0  0  0  0  0  0  0  0
   -1.3000   17.4130   -4.7970 C   0  0  0  0  0  0  0  0  0  0  0  0
   -0.3970   18.4020   -4.8670 N   0  0  0  0  0  0  0  0  0  0  0  0
   -2.4720   17.6910   -4.8890 O   0  0  0  0  0  0  0  0  0  0  0  0
  2  1  1  0
  2  3  1  0
  2  4  1  0
  2  5  1  0
  3  6  1  0
  5  7  1  0
  5  8  1  0
  6  9  1  0
  6 10  1  0
  7 11  1  0
  8 12  1  0
  9 13  2  0
 10 14  2  0
 13 14  1  0
 11 15  1  0
 12 15  1  0
 13 16  1  0
 15 17  1  0
 17 18  1  0
 17 19  2  0
M  END
