x0852_0_B-x0962_2_B
     RDKit          3D

 11 11  0  0  0  0  0  0  0  0999 V2000
   -9.7790   17.8000    7.2200 N   0  0  0  0  0  0  0  0  0  0  0  0
   -9.4880   17.2560    6.2330 C   0  0  0  0  0  0  0  0  0  0  0  0
   -9.1490   16.5320    5.0500 C   0  0  0  0  0  0  0  0  0  0  0  0
   -8.2080   15.4920    5.0810 C   0  0  0  0  0  0  0  0  0  0  0  0
   -9.7710   16.8640    3.8340 C   0  0  0  0  0  0  0  0  0  0  0  0
   -7.5320   15.0810    6.1970 O   0  0  0  0  0  0  0  0  0  0  0  0
   -7.9010   14.7910    3.9240 C   0  0  0  0  0  0  0  0  0  0  0  0
   -9.4390   16.1450    2.6840 C   0  0  0  0  0  0  0  0  0  0  0  0
   -9.9980   16.4060    1.4200 C   0  0  0  0  0  0  0  0  0  0  0  0
   -8.5160   15.1180    2.7320 C   0  0  0  0  0  0  0  0  0  0  0  0
  -10.3600   16.5680    0.3160 C   0  0  0  0  0  0  0  0  0  0  0  0
  1  2  3  0
  2  3  1  0
  3  4  2  0
  3  5  1  0
  4  6  1  0
  4  7  1  0
  5  8  2  0
  8  9  1  0
  7 10  2  0
  8 10  1  0
  9 11  3  0
M  END
