x0855_0_A-x0290_0_A
     RDKit          3D

 25 26  0  0  0  0  0  0  0  0999 V2000
    1.9730   12.8740   -2.6840 O   0  0  0  0  0  0  0  0  0  0  0  0
    1.0460   12.1380   -3.3250 C   0  0  0  0  0  0  0  0  0  0  0  0
    0.6020   12.7100   -4.6550 C   0  0  2  0  0  0  0  0  0  0  0  0
    0.6560   11.1010   -2.8130 O   0  0  0  0  0  0  0  0  0  0  0  0
    0.1900   14.1990   -4.5550 C   0  0  0  0  0  0  0  0  0  0  0  0
   -0.4420   11.8240   -5.1550 N   0  0  0  0  0  0  0  0  0  0  0  0
    0.0560   14.7390   -3.1120 C   0  0  0  0  0  0  0  0  0  0  0  0
   -0.2990   10.8500   -6.1020 C   0  0  0  0  0  0  0  0  0  0  0  0
   -1.7000   11.9150   -4.6700 N   0  0  0  0  0  0  0  0  0  0  0  0
   -1.3560   14.5530   -2.5350 C   0  0  0  0  0  0  0  0  0  0  0  0
   -1.5350   10.2740   -6.2230 C   0  0  0  0  0  0  0  0  0  0  0  0
   -2.3650   10.9610   -5.3290 C   0  0  0  0  0  0  0  0  0  0  0  0
   -2.0460    8.8690   -7.3300 Br  0  0  0  0  0  0  0  0  0  0  0  0
   -1.4540   14.5660   -1.0240 C   0  0  0  0  0  0  0  0  0  0  0  0
   -0.3190   14.4790   -0.2050 C   0  0  0  0  0  0  0  0  0  0  0  0
   -2.7050   14.6650   -0.3990 C   0  0  0  0  0  0  0  0  0  0  0  0
   -0.5020   14.4860    1.1670 C   0  0  0  0  0  0  0  0  0  0  0  0
   -2.7890   14.6660    0.9910 C   0  0  0  0  0  0  0  0  0  0  0  0
   -4.0630   14.7690    1.5630 N   0  0  0  0  0  0  0  0  0  0  0  0
   -1.7020   14.5720    1.7640 N   0  0  0  0  0  0  0  0  0  0  0  0
   -5.2460   14.4260    0.9290 C   0  0  0  0  0  0  0  0  0  0  0  0
   -5.4430   14.3220   -0.2780 O   0  0  0  0  0  0  0  0  0  0  0  0
   -6.3820   14.1650    1.9330 C   0  0  0  0  0  0  0  0  0  0  0  0
   -7.6340   13.7460    1.2730 N   0  0  0  0  0  0  0  0  0  0  0  0
   -8.4460   14.8390    0.7620 C   0  0  0  0  0  0  0  0  0  0  0  0
  1  2  1  0
  2  3  1  0
  2  4  2  0
  3  5  1  1
  3  6  1  0
  5  7  1  0
  6  8  1  0
  6  9  1  0
  7 10  1  0
  8 11  2  0
  9 12  2  0
 11 12  1  0
 11 13  1  0
 10 14  1  0
 14 15  2  0
 14 16  1  0
 15 17  1  0
 16 18  2  0
 18 19  1  0
 17 20  2  0
 18 20  1  0
 19 21  1  0
 21 22  2  0
 21 23  1  0
 23 24  1  0
 24 25  1  0
M  END
