x0855_0_A_α-x0742_0_A_α
     RDKit          3D

 28 31  0  0  0  0  0  0  0  0999 V2000
    2.5160   12.3920   -3.2370 O   0  0  0  0  0  0  0  0  0  0  0  0
    1.1050   12.4130   -3.3440 C   0  0  0  0  0  0  0  0  0  0  0  0
    0.7650   12.5340   -4.8400 C   0  0  0  0  0  0  0  0  0  0  0  0
    0.6520   11.1660   -2.8360 O   0  0  0  0  0  0  0  0  0  0  0  0
    0.6210   13.5940   -2.5110 C   0  0  0  0  0  0  0  0  0  0  0  0
   -0.8860   13.6340   -2.2810 C   0  0  0  0  0  0  0  0  0  0  0  0
   -0.3250   11.6900   -5.2620 N   0  0  0  0  0  0  0  0  0  0  0  0
   -0.2800   10.7080   -6.2030 C   0  0  0  0  0  0  0  0  0  0  0  0
   -1.5500   11.8380   -4.6980 N   0  0  0  0  0  0  0  0  0  0  0  0
   -1.1750   13.9770   -0.8540 C   0  0  0  0  0  0  0  0  0  0  0  0
   -1.5370   10.1830   -6.2440 C   0  0  0  0  0  0  0  0  0  0  0  0
   -2.2890   10.9030   -5.3110 C   0  0  0  0  0  0  0  0  0  0  0  0
   -0.0620   14.0650   -0.0010 C   0  0  0  0  0  0  0  0  0  0  0  0
   -2.4470   14.2110   -0.3260 C   0  0  0  0  0  0  0  0  0  0  0  0
   -2.1630    8.7920   -7.3140 Br  0  0  0  0  0  0  0  0  0  0  0  0
   -3.7820   14.1640   -1.0630 C   0  0  1  0  0  0  0  0  0  0  0  0
   -0.2440   14.3760    1.3230 C   0  0  0  0  0  0  0  0  0  0  0  0
   -2.4870   14.5290    1.0420 C   0  0  0  0  0  0  0  0  0  0  0  0
   -5.0060   13.6570   -0.1960 C   0  0  1  0  0  0  0  0  0  0  0  0
   -4.3220   15.3000   -1.9330 C   0  0  0  0  0  0  0  0  0  0  0  0
   -1.4300   14.6100    1.8520 N   0  0  0  0  0  0  0  0  0  0  0  0
   -3.7890   14.8060    1.6820 C   0  0  0  0  0  0  0  0  0  0  0  0
   -5.4520   12.2240   -0.5940 C   0  0  0  0  0  0  0  0  0  0  0  0
   -4.7910   13.7320    1.3160 C   0  0  0  0  0  0  0  0  0  0  0  0
   -6.1810   14.5880   -0.5730 C   0  0  0  0  0  0  0  0  0  0  0  0
   -5.5530   15.8130   -1.2020 C   0  0  0  0  0  0  0  0  0  0  0  0
   -4.9220   11.6060   -1.5260 O   0  0  0  0  0  0  0  0  0  0  0  0
   -6.5690   11.5650    0.1750 C   0  0  0  0  0  0  0  0  0  0  0  0
  2  1  1  0
  2  3  1  0
  2  4  1  0
  2  5  1  0
  5  6  1  0
  3  7  1  0
  7  8  1  0
  7  9  1  0
  6 10  1  0
  8 11  2  0
  9 12  2  0
 11 12  1  0
 10 13  2  0
 10 14  1  0
 11 15  1  0
 14 16  1  0
 13 17  1  0
 14 18  2  0
 16 19  1  0
 16 20  1  1
 17 21  2  0
 18 21  1  0
 18 22  1  0
 19 23  1  6
 19 24  1  0
 22 24  1  0
 19 25  1  0
 20 26  1  0
 25 26  1  0
 23 27  2  0
 23 28  1  0
M  END
