x0852_0_B-x0969_0_A
     RDKit          3D

 20 22  0  0  0  0  0  0  0  0999 V2000
   -9.5850   17.3200    7.3400 N   0  0  0  0  0  0  0  0  0  0  0  0
   -9.4000   16.9040    6.2690 C   0  0  0  0  0  0  0  0  0  0  0  0
   -9.2330   16.4630    4.9130 C   0  0  0  0  0  0  0  0  0  0  0  0
   -8.1980   15.5960    4.5070 C   0  0  0  0  0  0  0  0  0  0  0  0
  -10.1470   16.9350    3.9710 C   0  0  0  0  0  0  0  0  0  0  0  0
   -7.3050   15.1330    5.4380 O   0  0  0  0  0  0  0  0  0  0  0  0
   -8.0870   15.2160    3.1370 C   0  0  0  0  0  0  0  0  0  0  0  0
  -10.0350   16.5460    2.6460 C   0  0  0  0  0  0  0  0  0  0  0  0
  -11.2530   17.1640    1.3420 Br  0  0  0  0  0  0  0  0  0  0  0  0
   -7.0660   14.3720    2.5950 N   0  0  0  0  0  0  0  0  0  0  0  0
   -9.0260   15.7040    2.2390 C   0  0  0  0  0  0  0  0  0  0  0  0
   -6.6930   14.5250    1.2680 C   0  0  0  0  0  0  0  0  0  0  0  0
   -7.5660   14.4660    0.2840 N   0  0  0  0  0  0  0  0  0  0  0  0
   -5.4250   14.7610    0.7070 N   0  0  0  0  0  0  0  0  0  0  0  0
   -6.9350   14.6540   -0.9160 N   0  0  0  0  0  0  0  0  0  0  0  0
   -5.6610   14.8290   -0.6690 C   0  0  0  0  0  0  0  0  0  0  0  0
   -4.1440   14.9150    1.2430 C   0  0  0  0  0  0  0  0  0  0  0  0
   -4.5600   15.0550   -1.5370 C   0  0  0  0  0  0  0  0  0  0  0  0
   -3.1010   15.1220    0.4170 C   0  0  0  0  0  0  0  0  0  0  0  0
   -3.3310   15.1880   -1.0190 C   0  0  0  0  0  0  0  0  0  0  0  0
  1  2  3  0
  2  3  1  0
  3  4  2  0
  3  5  1  0
  4  6  1  0
  4  7  1  0
  5  8  2  0
  8  9  1  0
  7 10  1  0
  7 11  2  0
  8 11  1  0
 10 12  1  0
 12 13  2  0
 12 14  1  0
 13 15  1  0
 14 16  1  0
 15 16  2  0
 14 17  1  0
 16 18  1  0
 17 19  2  0
 18 20  2  0
 19 20  1  0
M  END
