x0852_0_B-x0805_0_A
     RDKit          3D

 30 32  0  0  0  0  0  0  0  0999 V2000
   -9.4250   17.3250    7.0850 N   0  0  0  0  0  0  0  0  0  0  0  0
   -9.1870   16.8820    6.0320 C   0  0  0  0  0  0  0  0  0  0  0  0
   -9.0240   16.3310    4.7140 C   0  0  0  0  0  0  0  0  0  0  0  0
   -8.1770   15.2620    4.4040 C   0  0  0  0  0  0  0  0  0  0  0  0
   -9.7650   16.9100    3.7180 C   0  0  0  0  0  0  0  0  0  0  0  0
   -7.4410   14.6880    5.3910 O   0  0  0  0  0  0  0  0  0  0  0  0
   -8.0980   14.7880    3.0460 C   0  0  0  0  0  0  0  0  0  0  0  0
   -9.7100   16.4400    2.3990 C   0  0  0  0  0  0  0  0  0  0  0  0
  -10.7190   17.1550    0.9650 Br  0  0  0  0  0  0  0  0  0  0  0  0
   -7.2470   13.6680    2.4570 C   0  0  0  0  0  0  0  0  0  0  0  0
   -8.8830   15.3970    2.0890 C   0  0  0  0  0  0  0  0  0  0  0  0
   -5.8380   14.1070    1.9540 C   0  0  0  0  0  0  0  0  0  0  0  0
   -5.6380   14.5460    0.5030 C   0  0  0  0  0  0  0  0  0  0  0  0
   -4.6120   15.6850    0.3420 C   0  0  0  0  0  0  0  0  0  0  0  0
   -3.3290   15.2460   -0.1370 O   0  0  0  0  0  0  0  0  0  0  0  0
   -3.2440   14.5420   -1.3010 C   0  0  0  0  0  0  0  0  0  0  0  0
   -4.2660   13.7880   -1.8630 C   0  0  0  0  0  0  0  0  0  0  0  0
   -2.0050   14.6010   -1.9650 C   0  0  0  0  0  0  0  0  0  0  0  0
   -4.0650   13.1090   -3.0530 C   0  0  0  0  0  0  0  0  0  0  0  0
   -1.7800   13.9180   -3.1800 C   0  0  0  0  0  0  0  0  0  0  0  0
   -2.8370   13.1720   -3.7060 C   0  0  0  0  0  0  0  0  0  0  0  0
   -0.4240   13.9870   -3.8950 C   0  0  2  0  0  0  0  0  0  0  0  0
    0.7490   13.3040   -3.2130 C   0  0  1  0  0  0  0  0  0  0  0  0
    0.0620   15.3890   -4.2340 C   0  0  0  0  0  0  0  0  0  0  0  0
    0.4560   12.1550   -2.3090 C   0  0  0  0  0  0  0  0  0  0  0  0
    1.8410   12.9900   -4.1910 C   0  0  0  0  0  0  0  0  0  0  0  0
    1.5770   15.4040   -4.4230 C   0  0  0  0  0  0  0  0  0  0  0  0
    0.4420   10.9200   -2.8260 O   0  0  0  0  0  0  0  0  0  0  0  0
    0.2510   12.3320   -1.1280 O   0  0  0  0  0  0  0  0  0  0  0  0
    2.1150   14.1620   -4.9330 O   0  0  0  0  0  0  0  0  0  0  0  0
  1  2  3  0
  2  3  1  0
  3  4  2  0
  3  5  1  0
  4  6  1  0
  4  7  1  0
  5  8  2  0
  8  9  1  0
  7 10  1  0
  7 11  2  0
  8 11  1  0
 10 12  1  0
 12 13  1  0
 13 14  1  0
 14 15  1  0
 15 16  1  0
 16 17  2  0
 16 18  1  0
 17 19  1  0
 18 20  2  0
 19 21  2  0
 20 21  1  0
 22 20  1  1
 22 23  1  0
 22 24  1  0
 23 25  1  6
 23 26  1  0
 24 27  1  0
 25 28  1  0
 25 29  2  0
 26 30  1  0
 27 30  1  0
M  END
