x0852_0_B_α-x0837_0_A_α
     RDKit          3D

 20 21  0  0  0  0  0  0  0  0999 V2000
   -9.7380   17.7940    7.1790 N   0  0  0  0  0  0  0  0  0  0  0  0
   -9.4760   17.2680    6.1740 C   0  0  0  0  0  0  0  0  0  0  0  0
   -9.1730   16.5430    4.9750 C   0  0  0  0  0  0  0  0  0  0  0  0
   -8.2070   15.5260    4.9760 C   0  0  0  0  0  0  0  0  0  0  0  0
   -9.8570   16.8560    3.7840 C   0  0  0  0  0  0  0  0  0  0  0  0
   -7.5300   15.2060    6.1200 O   0  0  0  0  0  0  0  0  0  0  0  0
   -7.9240   14.8270    3.8150 C   0  0  0  0  0  0  0  0  0  0  0  0
   -9.5700   16.1450    2.6100 C   0  0  0  0  0  0  0  0  0  0  0  0
  -10.1210   16.2970    1.3680 O   0  0  0  0  0  0  0  0  0  0  0  0
   -8.6020   15.1390    2.6490 C   0  0  0  0  0  0  0  0  0  0  0  0
   -9.7050   15.2910    0.4230 C   0  0  0  0  0  0  0  0  0  0  0  0
   -8.8130   15.9630   -0.6120 C   0  0  0  0  0  0  0  0  0  0  0  0
   -7.5670   15.2470   -0.9750 N   0  0  0  0  0  0  0  0  0  0  0  0
   -6.4930   14.8940   -0.3150 C   0  0  0  0  0  0  0  0  0  0  0  0
   -6.0180   14.9870    0.9860 N   0  0  0  0  0  0  0  0  0  0  0  0
   -5.4570   14.2580   -1.2100 C   0  0  0  0  0  0  0  0  0  0  0  0
   -4.6690   15.2050    1.2420 C   0  0  0  0  0  0  0  0  0  0  0  0
   -4.2700   15.2040   -1.1570 C   0  0  2  0  0  0  0  0  0  0  0  0
   -2.7610   14.6710   -2.6000 I   0  0  0  0  0  0  0  0  0  0  0  0
   -3.7600   15.3120    0.2560 C   0  0  0  0  0  0  0  0  0  0  0  0
  1  2  3  0
  2  3  1  0
  3  4  2  0
  3  5  1  0
  4  6  1  0
  4  7  1  0
  5  8  2  0
  8  9  1  0
  7 10  2  0
  8 10  1  0
  9 11  1  0
 11 12  1  0
 12 13  1  0
 13 14  2  3
 14 15  1  0
 14 16  1  0
 15 17  1  0
 16 18  1  0
 18 19  1  6
 17 20  2  0
 18 20  1  0
M  END
