x0855_0_A-x0722_0_A
     RDKit          3D

 24 25  0  0  0  0  0  0  0  0999 V2000
    1.9550   12.6790   -2.4970 O   0  0  0  0  0  0  0  0  0  0  0  0
    0.6960   12.3000   -3.0030 C   0  0  0  0  0  0  0  0  0  0  0  0
    0.5290   12.5220   -4.5250 C   0  0  0  0  0  0  0  0  0  0  0  0
    0.6270   10.8870   -2.8180 O   0  0  0  0  0  0  0  0  0  0  0  0
   -0.4170   12.8810   -2.1130 C   0  0  0  0  0  0  0  0  0  0  0  0
   -0.2440   14.3410   -1.6820 C   0  0  0  0  0  0  0  0  0  0  0  0
   -0.4790   11.6720   -5.0990 N   0  0  0  0  0  0  0  0  0  0  0  0
   -1.5780   15.0980   -1.5980 C   0  0  0  0  0  0  0  0  0  0  0  0
   -0.3270   10.7480   -6.0890 C   0  0  0  0  0  0  0  0  0  0  0  0
   -1.7430   11.7570   -4.6280 N   0  0  0  0  0  0  0  0  0  0  0  0
   -1.5660   10.1960   -6.2560 C   0  0  0  0  0  0  0  0  0  0  0  0
   -2.4050   10.8450   -5.3440 C   0  0  0  0  0  0  0  0  0  0  0  0
   -2.2920   15.0120   -0.2840 C   0  0  0  0  0  0  0  0  0  0  0  0
   -2.0770    8.8510   -7.4400 Br  0  0  0  0  0  0  0  0  0  0  0  0
   -3.6420   15.2090    0.0100 C   0  0  0  0  0  0  0  0  0  0  0  0
   -1.6970   14.7060    0.9260 N   0  0  0  0  0  0  0  0  0  0  0  0
   -0.3100   14.4030    1.2160 C   0  0  0  0  0  0  0  0  0  0  0  0
   -4.7770   15.5600   -0.9080 C   0  0  0  0  0  0  0  0  0  0  0  0
   -2.5650   14.7020    1.9400 N   0  0  0  0  0  0  0  0  0  0  0  0
   -3.7390   15.0050    1.4010 C   0  0  0  0  0  0  0  0  0  0  0  0
   -4.9490   15.0920    2.2450 C   0  0  0  0  0  0  0  0  0  0  0  0
   -6.0280   14.7340   -0.6520 C   0  0  0  0  0  0  0  0  0  0  0  0
   -7.1620   15.1570   -0.8560 O   0  0  0  0  0  0  0  0  0  0  0  0
   -5.8500   13.4650   -0.1700 N   0  0  0  0  0  0  0  0  0  0  0  0
  2  1  1  0
  2  3  1  0
  2  4  1  0
  2  5  1  0
  5  6  1  0
  3  7  1  0
  6  8  1  0
  7  9  1  0
  7 10  1  0
  9 11  2  0
 10 12  2  0
 11 12  1  0
  8 13  1  0
 11 14  1  0
 13 15  2  0
 13 16  1  0
 16 17  1  0
 15 18  1  0
 16 19  1  0
 15 20  1  0
 19 20  2  0
 20 21  1  0
 18 22  1  0
 22 23  2  0
 22 24  1  0
M  END
