x0855_0_A_α-x0524_0_A_α
     RDKit          3D

 26 28  0  0  0  0  0  0  0  0999 V2000
    1.6540   13.0810   -2.3810 O   0  0  0  0  0  0  0  0  0  0  0  0
    0.9770   12.1990   -3.1370 C   0  0  0  0  0  0  0  0  0  0  0  0
    0.4780   12.6770   -4.4670 C   0  0  0  0  0  0  0  0  0  0  0  0
    0.7790   11.0570   -2.7510 O   0  0  0  0  0  0  0  0  0  0  0  0
   -0.5600   11.7940   -4.9310 N   0  0  0  0  0  0  0  0  0  0  0  0
   -0.4530   10.8560   -5.8970 C   0  0  0  0  0  0  0  0  0  0  0  0
   -1.7950   11.8580   -4.3730 N   0  0  0  0  0  0  0  0  0  0  0  0
   -1.6840   10.2640   -5.9800 C   0  0  0  0  0  0  0  0  0  0  0  0
   -2.4870   10.9090   -5.0250 C   0  0  0  0  0  0  0  0  0  0  0  0
   -1.8440    9.2950   -6.8750 O   0  0  0  0  0  0  0  0  0  0  0  0
   -1.0300    9.5440   -7.9160 C   0  0  0  0  0  0  0  0  0  0  0  0
   -0.4200    8.4110   -8.3350 N   0  0  0  0  0  0  0  0  0  0  0  0
   -0.8630   10.6600   -8.3700 O   0  0  0  0  0  0  0  0  0  0  0  0
    0.6700    8.4110   -9.2010 C   0  0  0  0  0  0  0  0  0  0  0  0
    1.7980    7.6270   -9.0460 C   0  0  0  0  0  0  0  0  0  0  0  0
    0.5890    9.2810  -10.2940 C   0  0  0  0  0  0  0  0  0  0  0  0
    2.8410    7.7060   -9.9740 C   0  0  0  0  0  0  0  0  0  0  0  0
    1.6300    9.3560  -11.2180 C   0  0  0  0  0  0  0  0  0  0  0  0
    2.7730    8.5670  -11.0720 C   0  0  0  0  0  0  0  0  0  0  0  0
    3.7970    8.6600  -12.0200 N   0  0  0  0  0  0  0  0  0  0  0  0
    4.0400    9.5340  -13.0910 C   0  0  0  0  0  0  0  0  0  0  0  0
    3.2440   10.6780  -13.2750 C   0  0  0  0  0  0  0  0  0  0  0  0
    5.0710    9.3030  -14.0000 C   0  0  0  0  0  0  0  0  0  0  0  0
    3.4790   11.5530  -14.3360 C   0  0  0  0  0  0  0  0  0  0  0  0
    5.3090   10.1760  -15.0600 C   0  0  0  0  0  0  0  0  0  0  0  0
    4.5120   11.3010  -15.2290 C   0  0  0  0  0  0  0  0  0  0  0  0
  1  2  1  0
  2  3  1  0
  2  4  2  0
  3  5  1  0
  5  6  1  0
  5  7  1  0
  6  8  2  0
  7  9  2  0
  8  9  1  0
  8 10  1  0
 10 11  1  0
 11 12  1  0
 11 13  2  0
 12 14  1  0
 14 15  2  0
 14 16  1  0
 15 17  1  0
 16 18  2  0
 17 19  2  0
 18 19  1  0
 19 20  1  0
 20 21  1  0
 21 22  2  0
 21 23  1  0
 22 24  1  0
 23 25  2  0
 24 26  2  0
 25 26  1  0
M  END
