x0855_0_A-x0900_1_A
     RDKit          3D

 15 16  0  0  0  0  0  0  0  0999 V2000
    1.7630   13.0510   -2.1120 O   0  0  0  0  0  0  0  0  0  0  0  0
    0.9470   12.3080   -2.8810 C   0  0  0  0  0  0  0  0  0  0  0  0
    0.2280   13.0040   -3.9890 C   0  0  0  0  0  0  0  0  0  0  0  0
    0.7970   11.1070   -2.6930 O   0  0  0  0  0  0  0  0  0  0  0  0
   -0.5180   12.0350   -4.7280 N   0  0  0  0  0  0  0  0  0  0  0  0
   -0.0350   11.3390   -5.7560 C   0  0  0  0  0  0  0  0  0  0  0  0
   -1.8030   11.7460   -4.4160 N   0  0  0  0  0  0  0  0  0  0  0  0
   -1.0350   10.5260   -6.1710 C   0  0  0  0  0  0  0  0  0  0  0  0
   -2.1230   10.8050   -5.3140 C   0  0  0  0  0  0  0  0  0  0  0  0
   -0.8840    9.6080   -7.2950 C   0  0  2  0  0  0  0  0  0  0  0  0
   -2.0700    9.3590   -8.1750 C   0  0  0  0  0  0  0  0  0  0  0  0
   -0.3460    8.2060   -7.1100 C   0  0  0  0  0  0  0  0  0  0  0  0
   -0.3530    7.8650   -8.5130 N   0  0  0  0  0  0  0  0  0  0  0  0
   -1.1670    8.7660   -9.2020 C   0  0  0  0  0  0  0  0  0  0  0  0
   -1.1280    9.0400  -10.3820 O   0  0  0  0  0  0  0  0  0  0  0  0
  1  2  1  0
  2  3  1  0
  2  4  2  0
  3  5  1  0
  5  6  1  0
  5  7  1  0
  6  8  2  0
  7  9  2  0
  8  9  1  0
 10  8  1  1
 10 11  1  0
 10 12  1  0
 12 13  1  0
 11 14  1  0
 13 14  1  0
 14 15  2  0
M  END
