x0855_0_A-x0727_0_A
     RDKit          3D

 19 20  0  0  0  0  0  0  0  0999 V2000
    1.1940   13.1770   -2.8820 O   0  0  0  0  0  0  0  0  0  0  0  0
    0.6270   12.1210   -3.5080 C   0  0  0  0  0  0  0  0  0  0  0  0
    0.2270   12.3600   -4.9930 C   0  0  2  0  0  0  0  0  0  0  0  0
    0.4850   11.0890   -2.8660 O   0  0  0  0  0  0  0  0  0  0  0  0
    1.2910   11.7610   -5.8160 N   0  0  0  0  0  0  0  0  0  0  0  0
    0.0320   13.8460   -5.3420 C   0  0  0  0  0  0  0  0  0  0  0  0
   -1.0170   11.6180   -5.1980 N   0  0  0  0  0  0  0  0  0  0  0  0
    1.3170   11.2610   -7.1210 C   0  0  0  0  0  0  0  0  0  0  0  0
   -1.1370   10.2680   -5.3640 C   0  0  0  0  0  0  0  0  0  0  0  0
   -2.2080   12.2740   -5.2410 N   0  0  0  0  0  0  0  0  0  0  0  0
    2.2690   11.5210   -7.8110 O   0  0  0  0  0  0  0  0  0  0  0  0
   -2.4680   10.0410   -5.5340 C   0  0  0  0  0  0  0  0  0  0  0  0
   -3.0880   11.2890   -5.4500 C   0  0  0  0  0  0  0  0  0  0  0  0
    0.2680   10.3050   -7.7120 C   0  0  0  0  0  0  0  0  0  0  0  0
   -3.3320    8.4160   -5.8250 Br  0  0  0  0  0  0  0  0  0  0  0  0
   -1.1220   10.8720   -7.9660 C   0  0  0  0  0  0  0  0  0  0  0  0
    0.0280    8.9750   -7.0020 C   0  0  0  0  0  0  0  0  0  0  0  0
   -2.0050    9.6380   -8.1680 C   0  0  0  0  0  0  0  0  0  0  0  0
   -1.1780    8.4160   -7.7380 C   0  0  0  0  0  0  0  0  0  0  0  0
  1  2  1  0
  3  2  1  0
  2  4  2  0
  3  5  1  0
  3  6  1  1
  3  7  1  0
  5  8  1  0
  7  9  1  0
  7 10  1  0
  8 11  2  0
  9 12  2  0
 10 13  2  0
 12 13  1  0
  8 14  1  0
 12 15  1  0
 14 16  1  0
 14 17  1  0
 16 18  1  0
 17 19  1  0
 18 19  1  0
M  END
