x0855_0_A_α-x0722_0_A_α
     RDKit          3D

 24 25  0  0  0  0  0  0  0  0999 V2000
    1.9740   12.6490   -2.5200 O   0  0  0  0  0  0  0  0  0  0  0  0
    0.7120   12.2730   -3.0240 C   0  0  0  0  0  0  0  0  0  0  0  0
    0.5390   12.5040   -4.5410 C   0  0  0  0  0  0  0  0  0  0  0  0
    0.6400   10.8600   -2.8380 O   0  0  0  0  0  0  0  0  0  0  0  0
   -0.3920   12.8540   -2.1290 C   0  0  0  0  0  0  0  0  0  0  0  0
   -0.1830   14.2970   -1.6640 C   0  0  0  0  0  0  0  0  0  0  0  0
   -0.4770   11.6610   -5.1120 N   0  0  0  0  0  0  0  0  0  0  0  0
   -1.4960   15.0890   -1.6110 C   0  0  0  0  0  0  0  0  0  0  0  0
   -0.3320   10.7360   -6.1000 C   0  0  0  0  0  0  0  0  0  0  0  0
   -1.7390   11.7580   -4.6400 N   0  0  0  0  0  0  0  0  0  0  0  0
   -1.5750   10.1920   -6.2660 C   0  0  0  0  0  0  0  0  0  0  0  0
   -2.4090   10.8480   -5.3540 C   0  0  0  0  0  0  0  0  0  0  0  0
   -2.2410   15.0140   -0.3150 C   0  0  0  0  0  0  0  0  0  0  0  0
   -2.0950    8.8490   -7.4460 Br  0  0  0  0  0  0  0  0  0  0  0  0
   -3.5980   15.2030   -0.0580 C   0  0  0  0  0  0  0  0  0  0  0  0
   -1.6720   14.7240    0.9100 N   0  0  0  0  0  0  0  0  0  0  0  0
   -0.2870   14.4300    1.2220 C   0  0  0  0  0  0  0  0  0  0  0  0
   -4.7220   15.5320   -0.9940 C   0  0  0  0  0  0  0  0  0  0  0  0
   -2.5600   14.7210    1.9100 N   0  0  0  0  0  0  0  0  0  0  0  0
   -3.7200   15.0110    1.3280 C   0  0  0  0  0  0  0  0  0  0  0  0
   -4.9630   15.0980    2.1080 C   0  0  0  0  0  0  0  0  0  0  0  0
   -5.9890   14.7330   -0.7230 C   0  0  0  0  0  0  0  0  0  0  0  0
   -7.1180   15.1860   -0.8830 O   0  0  0  0  0  0  0  0  0  0  0  0
   -5.8330   13.4490   -0.2750 N   0  0  0  0  0  0  0  0  0  0  0  0
  2  1  1  0
  2  3  1  0
  2  4  1  0
  2  5  1  0
  5  6  1  0
  3  7  1  0
  6  8  1  0
  7  9  1  0
  7 10  1  0
  9 11  2  0
 10 12  2  0
 11 12  1  0
  8 13  1  0
 11 14  1  0
 13 15  2  0
 13 16  1  0
 16 17  1  0
 15 18  1  0
 16 19  1  0
 15 20  1  0
 19 20  2  0
 20 21  1  0
 18 22  1  0
 22 23  2  0
 22 24  1  0
M  END
