x0855_0_A_α-x0905_0_A_α
     RDKit          3D

 21 22  0  0  0  0  0  0  0  0999 V2000
    2.2800   12.6700   -3.0130 O   0  0  0  0  0  0  0  0  0  0  0  0
    0.9410   12.5600   -3.4490 C   0  0  0  0  0  0  0  0  0  0  0  0
    0.8470   12.4900   -4.9790 C   0  0  0  0  0  0  0  0  0  0  0  0
    0.4360   11.3880   -2.8280 O   0  0  0  0  0  0  0  0  0  0  0  0
    0.2200   13.8380   -2.9590 C   0  0  0  0  0  0  0  0  0  0  0  0
   -0.7750   14.5340   -3.9190 C   0  0  0  0  0  0  0  0  0  0  0  0
   -0.2760   11.6470   -5.3520 N   0  0  0  0  0  0  0  0  0  0  0  0
   -2.1770   14.7840   -3.3570 C   0  0  0  0  0  0  0  0  0  0  0  0
   -0.2770   10.6520   -6.2770 C   0  0  0  0  0  0  0  0  0  0  0  0
   -1.4740   11.8250   -4.7380 N   0  0  0  0  0  0  0  0  0  0  0  0
   -2.1630   14.5470   -1.8550 C   0  0  0  0  0  0  0  0  0  0  0  0
   -1.5470   10.1500   -6.2560 C   0  0  0  0  0  0  0  0  0  0  0  0
   -2.2510   10.8940   -5.3030 C   0  0  0  0  0  0  0  0  0  0  0  0
   -2.2330    8.7500   -7.2800 Br  0  0  0  0  0  0  0  0  0  0  0  0
   -3.3750   14.8050   -1.0290 C   0  0  0  0  0  0  0  0  0  0  0  0
   -3.1820   14.9980    0.3320 C   0  0  0  0  0  0  0  0  0  0  0  0
   -4.6770   14.8470   -1.5450 C   0  0  0  0  0  0  0  0  0  0  0  0
   -4.2720   15.2140    1.1340 C   0  0  0  0  0  0  0  0  0  0  0  0
   -5.6980   15.0660   -0.6420 C   0  0  0  0  0  0  0  0  0  0  0  0
   -6.9970   15.1120   -1.0360 O   0  0  0  0  0  0  0  0  0  0  0  0
   -5.5340   15.2460    0.6730 N   0  0  0  0  0  0  0  0  0  0  0  0
  2  1  1  0
  2  3  1  0
  2  4  1  0
  2  5  1  0
  5  6  1  0
  3  7  1  0
  6  8  1  0
  7  9  1  0
  7 10  1  0
  8 11  1  0
  9 12  2  0
 10 13  2  0
 12 13  1  0
 12 14  1  0
 11 15  1  0
 15 16  2  0
 15 17  1  0
 16 18  1  0
 17 19  2  0
 19 20  1  0
 18 21  2  0
 19 21  1  0
M  END
