x0852_0_B_α-x0592_0_A_α
     RDKit          3D

 21 22  0  0  0  0  0  0  0  0999 V2000
   -9.6820   17.7410    7.3620 N   0  0  0  0  0  0  0  0  0  0  0  0
   -9.4530   17.2790    6.3290 C   0  0  0  0  0  0  0  0  0  0  0  0
   -9.3020   16.6800    5.0490 C   0  0  0  0  0  0  0  0  0  0  0  0
   -8.3990   15.6490    4.8020 C   0  0  0  0  0  0  0  0  0  0  0  0
  -10.1120   17.1620    4.0120 C   0  0  0  0  0  0  0  0  0  0  0  0
   -7.6030   15.1670    5.8260 O   0  0  0  0  0  0  0  0  0  0  0  0
   -8.3300   15.1180    3.5130 C   0  0  0  0  0  0  0  0  0  0  0  0
  -10.0180   16.6080    2.7490 C   0  0  0  0  0  0  0  0  0  0  0  0
  -11.0930   17.2230    1.3240 Br  0  0  0  0  0  0  0  0  0  0  0  0
   -7.4740   14.1300    3.2470 O   0  0  0  0  0  0  0  0  0  0  0  0
   -9.1370   15.5970    2.5040 C   0  0  0  0  0  0  0  0  0  0  0  0
   -7.7530   13.3900    2.0540 C   0  0  0  0  0  0  0  0  0  0  0  0
   -8.0000   14.2800    0.8330 C   0  0  0  0  0  0  0  0  0  0  0  0
   -6.7620   14.5960    0.1540 N   0  0  0  0  0  0  0  0  0  0  0  0
   -6.7580   15.0470   -1.1300 N   0  0  0  0  0  0  0  0  0  0  0  0
   -5.5210   14.4840    0.6980 C   0  0  0  0  0  0  0  0  0  0  0  0
   -4.6330   14.8770   -0.2720 C   0  0  0  0  0  0  0  0  0  0  0  0
   -5.4550   15.2140   -1.3770 C   0  0  0  0  0  0  0  0  0  0  0  0
   -3.1900   14.9340   -0.1870 C   0  0  0  0  0  0  0  0  0  0  0  0
   -2.6680   15.0360    1.0770 N   0  0  0  0  0  0  0  0  0  0  0  0
   -2.4630   14.8860   -1.1680 O   0  0  0  0  0  0  0  0  0  0  0  0
  1  2  3  0
  2  3  1  0
  3  4  2  0
  3  5  1  0
  4  6  1  0
  4  7  1  0
  5  8  2  0
  8  9  1  0
  7 10  1  0
  7 11  2  0
  8 11  1  0
 10 12  1  0
 12 13  1  0
 13 14  1  0
 14 15  1  0
 14 16  1  0
 16 17  2  0
 15 18  2  0
 17 18  1  0
 17 19  1  0
 19 20  1  0
 19 21  2  0
M  END
