x0852_0_B-x0282_0_A
     RDKit          3D

 26 28  0  0  0  0  0  0  0  0999 V2000
   -9.6860   17.8090    7.0810 N   0  0  0  0  0  0  0  0  0  0  0  0
   -9.4560   17.2730    6.0750 C   0  0  0  0  0  0  0  0  0  0  0  0
   -9.2200   16.5490    4.8610 C   0  0  0  0  0  0  0  0  0  0  0  0
   -8.3040   15.5010    4.8160 C   0  0  0  0  0  0  0  0  0  0  0  0
   -9.9370   16.9000    3.6980 C   0  0  0  0  0  0  0  0  0  0  0  0
   -7.5570   15.0760    5.8800 O   0  0  0  0  0  0  0  0  0  0  0  0
   -8.1020   14.8080    3.6310 C   0  0  0  0  0  0  0  0  0  0  0  0
   -9.7400   16.1950    2.4940 C   0  0  0  0  0  0  0  0  0  0  0  0
  -10.3920   16.4280    1.2860 O   0  0  0  0  0  0  0  0  0  0  0  0
   -8.8180   15.1560    2.4860 C   0  0  0  0  0  0  0  0  0  0  0  0
   -9.6910   16.6430    0.0270 C   0  0  0  0  0  0  0  0  0  0  0  0
   -8.8850   15.4280   -0.4960 C   0  0  0  0  0  0  0  0  0  0  0  0
   -8.6520   14.3470    0.4200 O   0  0  0  0  0  0  0  0  0  0  0  0
   -7.3290   13.7750    0.5160 C   0  0  0  0  0  0  0  0  0  0  0  0
   -6.1880   14.7720    0.2710 C   0  0  0  0  0  0  0  0  0  0  0  0
   -5.3070   15.0480    1.5260 C   0  0  0  0  0  0  0  0  0  0  0  0
   -5.4000   14.4670   -1.0070 C   0  0  0  0  0  0  0  0  0  0  0  0
   -4.0960   14.1420    1.6390 C   0  0  0  0  0  0  0  0  0  0  0  0
   -4.1570   13.6270   -0.7770 C   0  0  0  0  0  0  0  0  0  0  0  0
   -3.4500   14.1430    0.3670 N   0  0  0  0  0  0  0  0  0  0  0  0
   -2.1190   14.3710    0.2740 C   0  0  0  0  0  0  0  0  0  0  0  0
   -1.6250   14.4970   -0.9630 N   0  0  0  0  0  0  0  0  0  0  0  0
   -1.3750   14.4540    1.3970 N   0  0  0  0  0  0  0  0  0  0  0  0
   -0.3230   14.7220   -1.0930 C   0  0  0  0  0  0  0  0  0  0  0  0
   -0.0740   14.6770    1.2010 C   0  0  0  0  0  0  0  0  0  0  0  0
    0.5080   14.8250   -0.0360 C   0  0  0  0  0  0  0  0  0  0  0  0
  1  2  3  0
  2  3  1  0
  3  4  2  0
  3  5  1  0
  4  6  1  0
  4  7  1  0
  5  8  2  0
  8  9  1  0
  7 10  2  0
  8 10  1  0
  9 11  1  0
 11 12  1  0
 12 13  1  0
 13 14  1  0
 14 15  1  0
 15 16  1  0
 15 17  1  0
 16 18  1  0
 17 19  1  0
 18 20  1  0
 19 20  1  0
 20 21  1  0
 21 22  2  0
 21 23  1  0
 22 24  1  0
 23 25  2  0
 24 26  2  0
 25 26  1  0
M  END
