x0852_0_B-x0926_0_A
     RDKit          3D

 20 21  0  0  0  0  0  0  0  0999 V2000
   -9.6960   17.8320    7.0980 N   0  0  0  0  0  0  0  0  0  0  0  0
   -9.4600   17.2770    6.1020 C   0  0  0  0  0  0  0  0  0  0  0  0
   -9.2220   16.5190    4.9090 C   0  0  0  0  0  0  0  0  0  0  0  0
   -8.2570   15.5070    4.8750 C   0  0  0  0  0  0  0  0  0  0  0  0
   -9.9800   16.7920    3.7530 C   0  0  0  0  0  0  0  0  0  0  0  0
   -7.5140   15.2290    5.9920 O   0  0  0  0  0  0  0  0  0  0  0  0
   -8.0530   14.7770    3.7110 C   0  0  0  0  0  0  0  0  0  0  0  0
   -9.7800   16.0530    2.5730 C   0  0  0  0  0  0  0  0  0  0  0  0
  -10.5770   16.3850    1.4960 O   0  0  0  0  0  0  0  0  0  0  0  0
   -8.8140   15.0520    2.5720 C   0  0  0  0  0  0  0  0  0  0  0  0
  -10.3590   15.6750    0.2600 C   0  0  0  0  0  0  0  0  0  0  0  0
   -9.0230   15.9790   -0.4240 C   0  0  0  0  0  0  0  0  0  0  0  0
   -7.9040   14.9810   -0.0530 C   0  0  0  0  0  0  0  0  0  0  0  0
   -6.8110   15.1650   -1.0000 N   0  0  0  0  0  0  0  0  0  0  0  0
   -5.5520   15.1220   -0.6680 C   0  0  0  0  0  0  0  0  0  0  0  0
   -5.1680   14.8420    0.8120 C   0  0  0  0  0  0  0  0  0  0  0  0
   -4.5020   15.2990   -1.5620 N   0  0  0  0  0  0  0  0  0  0  0  0
   -3.2130   15.0130   -1.1950 N   0  0  0  0  0  0  0  0  0  0  0  0
   -3.7060   15.0090    1.1130 C   0  0  0  0  0  0  0  0  0  0  0  0
   -2.8250   15.0790    0.1180 C   0  0  0  0  0  0  0  0  0  0  0  0
  1  2  3  0
  2  3  1  0
  3  4  2  0
  3  5  1  0
  4  6  1  0
  4  7  1  0
  5  8  2  0
  8  9  1  0
  7 10  2  0
  8 10  1  0
  9 11  1  0
 11 12  1  0
 12 13  1  0
 13 14  1  0
 14 15  2  3
 15 16  1  0
 15 17  1  0
 17 18  1  0
 16 19  1  0
 18 20  1  0
 19 20  2  0
M  END
