x0855_0_A_α-x1018_0_A_α
     RDKit          3D

 23 25  0  0  0  0  0  0  0  0999 V2000
    2.0910   12.6210   -2.6890 O   0  0  0  0  0  0  0  0  0  0  0  0
    0.7680   12.3470   -3.0830 C   0  0  0  0  0  0  0  0  0  0  0  0
    0.5860   12.5970   -4.5970 C   0  0  0  0  0  0  0  0  0  0  0  0
    0.5070   10.9960   -2.7210 O   0  0  0  0  0  0  0  0  0  0  0  0
   -0.1550   13.2430   -2.2210 C   0  0  0  0  0  0  0  0  0  0  0  0
   -1.5710   12.7140   -1.9550 C   0  0  0  0  0  0  0  0  0  0  0  0
   -0.4280   11.7090   -5.1340 N   0  0  0  0  0  0  0  0  0  0  0  0
   -2.6270   13.4800   -2.7850 C   0  0  0  0  0  0  0  0  0  0  0  0
   -0.2910   10.7800   -6.1220 C   0  0  0  0  0  0  0  0  0  0  0  0
   -1.6780   11.7680   -4.6180 N   0  0  0  0  0  0  0  0  0  0  0  0
   -1.5250   10.1990   -6.2420 C   0  0  0  0  0  0  0  0  0  0  0  0
   -2.3440   10.8370   -5.3050 C   0  0  0  0  0  0  0  0  0  0  0  0
   -3.1400   14.6870   -2.0920 N   0  0  0  0  0  0  0  0  0  0  0  0
   -2.0520    8.8370   -7.3970 Br  0  0  0  0  0  0  0  0  0  0  0  0
   -2.8740   14.5760   -0.6550 N   0  0  0  0  0  0  0  0  0  0  0  0
   -4.5760   14.7680   -2.2390 N   0  0  0  0  0  0  0  0  0  0  0  0
   -5.0500   15.2430   -1.0250 N   0  0  0  0  0  0  0  0  0  0  0  0
   -4.0000   15.2590   -0.0090 C   0  0  1  0  0  0  0  0  0  0  0  0
   -6.3840   15.0480   -0.7770 N   0  0  0  0  0  0  0  0  0  0  0  0
   -4.4520   14.6510    1.2690 C   0  0  0  0  0  0  0  0  0  0  0  0
   -6.7000   14.6350    0.4080 C   0  0  0  0  0  0  0  0  0  0  0  0
   -5.7360   14.3470    1.4920 C   0  0  0  0  0  0  0  0  0  0  0  0
   -8.3860   14.4220    0.7130 Cl  0  0  0  0  0  0  0  0  0  0  0  0
  2  1  1  0
  2  3  1  0
  2  4  1  0
  2  5  1  0
  5  6  1  0
  3  7  1  0
  6  8  1  0
  7  9  1  0
  7 10  1  0
  9 11  2  0
 10 12  2  0
 11 12  1  0
  8 13  1  0
 11 14  1  0
 13 15  1  0
 13 16  1  0
 16 17  1  0
 15 18  1  0
 17 18  1  0
 17 19  1  0
 18 20  1  1
 19 21  2  0
 20 22  2  0
 21 22  1  0
 21 23  1  0
M  END
