x0855_0_A-x0724_0_A
     RDKit          3D

 27 29  0  0  0  0  0  0  0  0999 V2000
    2.2670   12.7640   -2.7960 O   0  0  0  0  0  0  0  0  0  0  0  0
    0.9390   12.4940   -3.2000 C   0  0  0  0  0  0  0  0  0  0  0  0
    0.7010   12.7320   -4.7150 C   0  0  0  0  0  0  0  0  0  0  0  0
    0.7570   11.1060   -2.9710 O   0  0  0  0  0  0  0  0  0  0  0  0
   -0.0040   13.1870   -2.2140 C   0  0  0  0  0  0  0  0  0  0  0  0
    0.1230   14.6660   -1.8680 C   0  0  0  0  0  0  0  0  0  0  0  0
   -0.3410   11.8710   -5.2530 N   0  0  0  0  0  0  0  0  0  0  0  0
   -1.1520   15.4100   -2.3150 C   0  0  0  0  0  0  0  0  0  0  0  0
   -0.1990   10.8270   -6.1240 C   0  0  0  0  0  0  0  0  0  0  0  0
   -1.6160   12.0760   -4.8830 N   0  0  0  0  0  0  0  0  0  0  0  0
   -1.4600   10.3280   -6.3030 C   0  0  0  0  0  0  0  0  0  0  0  0
   -2.3010   11.1250   -5.5290 C   0  0  0  0  0  0  0  0  0  0  0  0
   -2.4250   15.2110   -1.4770 C   0  0  0  0  0  0  0  0  0  0  0  0
   -1.9870    8.8850   -7.3570 Br  0  0  0  0  0  0  0  0  0  0  0  0
   -2.4350   15.2740   -0.0700 C   0  0  0  0  0  0  0  0  0  0  0  0
   -3.6440   14.9660   -2.1350 C   0  0  0  0  0  0  0  0  0  0  0  0
   -3.6390   15.1100    0.6480 C   0  0  0  0  0  0  0  0  0  0  0  0
   -4.8420   14.8010   -1.4250 C   0  0  0  0  0  0  0  0  0  0  0  0
   -4.8550   14.8780   -0.0280 C   0  0  0  0  0  0  0  0  0  0  0  0
   -6.0820   14.7520    0.7010 N   0  0  0  0  0  0  0  0  0  0  0  0
   -7.2570   14.4780    0.0630 N   0  0  0  0  0  0  0  0  0  0  0  0
   -6.2960   14.9000    2.0580 C   0  0  0  0  0  0  0  0  0  0  0  0
   -7.6500   14.7430    2.3020 C   0  0  0  0  0  0  0  0  0  0  0  0
   -8.1810   14.4760    1.0250 C   0  0  0  0  0  0  0  0  0  0  0  0
   -8.3840   14.8450    3.5950 C   0  0  0  0  0  0  0  0  0  0  0  0
   -8.1810   13.6340    4.3730 N   0  0  0  0  0  0  0  0  0  0  0  0
   -8.6040   13.8430    5.7500 C   0  0  0  0  0  0  0  0  0  0  0  0
  2  1  1  0
  2  3  1  0
  2  4  1  0
  2  5  1  0
  5  6  1  0
  3  7  1  0
  6  8  1  0
  7  9  1  0
  7 10  1  0
  9 11  2  0
 10 12  2  0
 11 12  1  0
  8 13  1  0
 11 14  1  0
 13 15  2  0
 13 16  1  0
 15 17  1  0
 16 18  2  0
 17 19  2  0
 18 19  1  0
 19 20  1  0
 20 21  1  0
 20 22  1  0
 22 23  2  0
 21 24  2  0
 23 24  1  0
 23 25  1  0
 25 26  1  0
 26 27  1  0
M  END
