x0852_0_B-x0711_0_A
     RDKit          3D

 26 27  0  0  0  0  0  0  0  0999 V2000
   -9.7470   17.8550    7.1300 N   0  0  0  0  0  0  0  0  0  0  0  0
   -9.4820   17.3200    6.1320 C   0  0  0  0  0  0  0  0  0  0  0  0
   -9.1890   16.5780    4.9480 C   0  0  0  0  0  0  0  0  0  0  0  0
   -8.2720   15.5200    4.9710 C   0  0  0  0  0  0  0  0  0  0  0  0
   -9.8330   16.9100    3.7350 C   0  0  0  0  0  0  0  0  0  0  0  0
   -7.5790   15.1060    6.0810 O   0  0  0  0  0  0  0  0  0  0  0  0
   -8.0110   14.8060    3.8180 C   0  0  0  0  0  0  0  0  0  0  0  0
   -9.5600   16.1810    2.5640 C   0  0  0  0  0  0  0  0  0  0  0  0
  -10.2150   16.5610    1.4170 O   0  0  0  0  0  0  0  0  0  0  0  0
   -8.6520   15.1350    2.6290 C   0  0  0  0  0  0  0  0  0  0  0  0
   -9.6190   16.1670    0.1620 C   0  0  0  0  0  0  0  0  0  0  0  0
   -8.9450   14.7720    0.2250 C   0  0  0  0  0  0  0  0  0  0  0  0
   -7.6060   14.8200   -0.3840 N   0  0  0  0  0  0  0  0  0  0  0  0
   -6.4860   14.6640    0.2710 C   0  0  0  0  0  0  0  0  0  0  0  0
   -6.5430   14.4370    1.6260 N   0  0  0  0  0  0  0  0  0  0  0  0
   -5.1650   14.7400   -0.4030 C   0  0  0  0  0  0  0  0  0  0  0  0
   -5.1640   15.0900   -1.7530 C   0  0  0  0  0  0  0  0  0  0  0  0
   -3.9640   14.4780    0.2700 C   0  0  0  0  0  0  0  0  0  0  0  0
   -3.9620   15.1870   -2.4470 C   0  0  0  0  0  0  0  0  0  0  0  0
   -2.7520   14.5780   -0.4320 C   0  0  0  0  0  0  0  0  0  0  0  0
   -2.7570   14.9350   -1.7900 C   0  0  0  0  0  0  0  0  0  0  0  0
   -1.5400   15.0730   -2.5370 N   0  0  0  0  0  0  0  0  0  0  0  0
   -0.5650   13.7990   -3.0680 S   0  0  0  0  0  0  0  0  0  0  0  0
   -1.7430   12.7670   -3.9010 C   0  0  0  0  0  0  0  0  0  0  0  0
    0.3690   14.3150   -4.0450 O   0  0  0  0  0  0  0  0  0  0  0  0
   -0.1060   13.1200   -1.8750 O   0  0  0  0  0  0  0  0  0  0  0  0
  1  2  3  0
  2  3  1  0
  3  4  2  0
  3  5  1  0
  4  6  1  0
  4  7  1  0
  5  8  2  0
  8  9  1  0
  7 10  2  0
  8 10  1  0
  9 11  1  0
 11 12  1  0
 12 13  1  0
 13 14  2  3
 14 15  1  0
 14 16  1  0
 16 17  2  0
 16 18  1  0
 17 19  1  0
 18 20  2  0
 19 21  2  0
 20 21  1  0
 21 22  1  0
 23 22  1  0
 23 24  1  0
 23 25  2  0
 23 26  2  0
M  END
