x0855_0_A-x0844_0_A
     RDKit          3D

 21 22  0  0  0  0  0  0  0  0999 V2000
    1.7770   12.9220   -2.6370 O   0  0  0  0  0  0  0  0  0  0  0  0
    0.9500   12.0650   -3.2720 C   0  0  0  0  0  0  0  0  0  0  0  0
    0.3260   12.6510   -4.5110 C   0  0  2  0  0  0  0  0  0  0  0  0
    0.7730   10.9580   -2.8000 O   0  0  0  0  0  0  0  0  0  0  0  0
   -0.4560   13.9050   -4.1160 C   0  0  0  0  0  0  0  0  0  0  0  0
   -0.5530   11.6870   -5.1570 N   0  0  0  0  0  0  0  0  0  0  0  0
   -1.3590   13.6260   -2.8990 C   0  0  0  0  0  0  0  0  0  0  0  0
   -0.3180   10.7680   -6.1390 C   0  0  0  0  0  0  0  0  0  0  0  0
   -1.8370   11.6710   -4.7240 N   0  0  0  0  0  0  0  0  0  0  0  0
   -2.1670   14.8380   -2.4900 C   0  0  0  0  0  0  0  0  0  0  0  0
   -1.5120   10.1270   -6.3310 C   0  0  0  0  0  0  0  0  0  0  0  0
   -2.4140   10.7160   -5.4460 C   0  0  0  0  0  0  0  0  0  0  0  0
   -1.9200    8.7460   -7.5100 Br  0  0  0  0  0  0  0  0  0  0  0  0
   -3.5010   14.4370   -2.2080 O   0  0  0  0  0  0  0  0  0  0  0  0
   -4.1840   15.3120   -1.3070 C   0  0  2  0  0  0  0  0  0  0  0  0
   -3.5790   15.2070    0.0580 C   0  0  0  0  0  0  0  0  0  0  0  0
   -5.6820   15.0190   -1.3840 C   0  0  0  0  0  0  0  0  0  0  0  0
   -4.2970   14.9790    1.1450 C   0  0  0  0  0  0  0  0  0  0  0  0
   -6.3990   14.8630   -0.0630 C   0  0  0  0  0  0  0  0  0  0  0  0
   -7.6260   14.7910   -0.0010 O   0  0  0  0  0  0  0  0  0  0  0  0
   -5.6460   14.8110    1.0820 N   0  0  0  0  0  0  0  0  0  0  0  0
  1  2  1  0
  2  3  1  0
  2  4  2  0
  3  5  1  1
  3  6  1  0
  5  7  1  0
  6  8  1  0
  6  9  1  0
  7 10  1  0
  8 11  2  0
  9 12  2  0
 11 12  1  0
 11 13  1  0
 10 14  1  0
 15 14  1  6
 15 16  1  0
 15 17  1  0
 16 18  2  0
 17 19  1  0
 19 20  2  0
 18 21  1  0
 19 21  1  0
M  END
