x0852_0_B-x0689_0_A
     RDKit          3D

 20 21  0  0  0  0  0  0  0  0999 V2000
   -9.5390   17.3510    7.2150 N   0  0  0  0  0  0  0  0  0  0  0  0
   -9.3590   16.9150    6.1500 C   0  0  0  0  0  0  0  0  0  0  0  0
   -9.2380   16.4140    4.8070 C   0  0  0  0  0  0  0  0  0  0  0  0
   -8.3130   15.4140    4.4300 C   0  0  0  0  0  0  0  0  0  0  0  0
  -10.0940   16.9620    3.8470 C   0  0  0  0  0  0  0  0  0  0  0  0
   -7.4940   14.9080    5.4060 O   0  0  0  0  0  0  0  0  0  0  0  0
   -8.2520   14.9710    3.0750 C   0  0  0  0  0  0  0  0  0  0  0  0
  -10.0280   16.5180    2.5340 C   0  0  0  0  0  0  0  0  0  0  0  0
  -11.1660   17.2350    1.2090 Br  0  0  0  0  0  0  0  0  0  0  0  0
   -7.3340   13.9400    2.4420 C   0  0  0  0  0  0  0  0  0  0  0  0
   -9.1290   15.5460    2.1600 C   0  0  0  0  0  0  0  0  0  0  0  0
   -6.1500   14.6910    1.7980 C   0  0  0  0  0  0  0  0  0  0  0  0
   -4.8460   14.0080    1.3940 C   0  0  0  0  0  0  0  0  0  0  0  0
   -3.7370   14.9020    1.7070 N   0  0  0  0  0  0  0  0  0  0  0  0
   -2.5170   14.7010    1.0510 C   0  0  0  0  0  0  0  0  0  0  0  0
   -2.4100   14.7350   -0.2840 N   0  0  0  0  0  0  0  0  0  0  0  0
   -1.5020   14.4870    1.8700 N   0  0  0  0  0  0  0  0  0  0  0  0
   -1.1750   14.5440   -0.7980 C   0  0  0  0  0  0  0  0  0  0  0  0
   -0.2990   14.3050    1.3250 C   0  0  0  0  0  0  0  0  0  0  0  0
   -0.0630   14.3230   -0.0260 C   0  0  0  0  0  0  0  0  0  0  0  0
  1  2  3  0
  2  3  1  0
  3  4  2  0
  3  5  1  0
  4  6  1  0
  4  7  1  0
  5  8  2  0
  8  9  1  0
  7 10  1  0
  7 11  2  0
  8 11  1  0
 10 12  1  0
 12 13  1  0
 13 14  1  0
 14 15  1  0
 15 16  2  0
 15 17  1  0
 16 18  1  0
 17 19  2  0
 18 20  2  0
 19 20  1  0
M  END
