x0852_0_B-x0574_0_A
     RDKit          3D

 22 24  0  0  0  0  0  0  0  0999 V2000
   -9.6080   17.2630    7.2480 N   0  0  0  0  0  0  0  0  0  0  0  0
   -9.4420   16.8570    6.1690 C   0  0  0  0  0  0  0  0  0  0  0  0
   -9.2670   16.4510    4.8020 C   0  0  0  0  0  0  0  0  0  0  0  0
   -8.2000   15.6330    4.3790 C   0  0  0  0  0  0  0  0  0  0  0  0
  -10.2020   16.9030    3.8670 C   0  0  0  0  0  0  0  0  0  0  0  0
   -7.3150   15.2080    5.3340 O   0  0  0  0  0  0  0  0  0  0  0  0
   -8.0680   15.2830    3.0050 C   0  0  0  0  0  0  0  0  0  0  0  0
  -10.0720   16.5410    2.5320 C   0  0  0  0  0  0  0  0  0  0  0  0
  -11.3070   17.1340    1.2380 Br  0  0  0  0  0  0  0  0  0  0  0  0
   -6.9650   14.4600    2.3810 C   0  0  0  0  0  0  0  0  0  0  0  0
   -9.0280   15.7470    2.1120 C   0  0  0  0  0  0  0  0  0  0  0  0
   -6.7530   14.8280    0.9850 O   0  0  0  0  0  0  0  0  0  0  0  0
   -5.4290   14.8180    0.5980 C   0  0  0  0  0  0  0  0  0  0  0  0
   -4.4230   14.5520    1.4810 C   0  0  0  0  0  0  0  0  0  0  0  0
   -5.0940   15.0840   -0.7400 C   0  0  0  0  0  0  0  0  0  0  0  0
   -3.0980   14.5220    1.0970 C   0  0  0  0  0  0  0  0  0  0  0  0
   -3.7440   15.0630   -1.1700 C   0  0  0  0  0  0  0  0  0  0  0  0
   -2.7500   14.7660   -0.2150 C   0  0  0  0  0  0  0  0  0  0  0  0
   -2.0850   14.2550    1.9530 N   0  0  0  0  0  0  0  0  0  0  0  0
   -0.9670   14.2640    1.3460 C   0  0  0  0  0  0  0  0  0  0  0  0
   -1.0240   14.6230   -0.3310 S   0  0  0  0  0  0  0  0  0  0  0  0
    0.1250   14.0010    2.0370 N   0  0  0  0  0  0  0  0  0  0  0  0
  1  2  3  0
  2  3  1  0
  3  4  2  0
  3  5  1  0
  4  6  1  0
  4  7  1  0
  5  8  2  0
  8  9  1  0
  7 10  1  0
  7 11  2  0
  8 11  1  0
 10 12  1  0
 12 13  1  0
 13 14  2  0
 13 15  1  0
 14 16  1  0
 15 17  2  0
 16 18  2  0
 17 18  1  0
 16 19  1  0
 19 20  2  0
 18 21  1  0
 20 21  1  0
 20 22  1  0
M  END
