x0855_0_A-x0864_0_A
     RDKit          3D

 11 11  0  0  0  0  0  0  0  0999 V2000
    1.4820   12.9130   -2.3170 O   0  0  0  0  0  0  0  0  0  0  0  0
    0.8990   12.0750   -3.1940 C   0  0  0  0  0  0  0  0  0  0  0  0
    0.7310   12.6740   -4.5760 C   0  0  0  0  0  0  0  0  0  0  0  0
    0.5540   10.9570   -2.8440 O   0  0  0  0  0  0  0  0  0  0  0  0
   -0.3640   11.9960   -5.2310 N   0  0  0  0  0  0  0  0  0  0  0  0
   -0.1970   11.2140   -6.3640 C   0  0  0  0  0  0  0  0  0  0  0  0
   -1.6710   11.9830   -4.7090 N   0  0  0  0  0  0  0  0  0  0  0  0
    0.8340   11.1480   -7.0210 O   0  0  0  0  0  0  0  0  0  0  0  0
   -1.5240   10.5240   -6.5850 C   0  0  2  0  0  0  0  0  0  0  0  0
   -2.2400   10.7420   -5.2550 C   0  0  0  0  0  0  0  0  0  0  0  0
   -1.3270    8.6510   -6.9900 Br  0  0  0  0  0  0  0  0  0  0  0  0
  1  2  1  0
  2  3  1  0
  2  4  2  0
  3  5  1  0
  5  6  1  0
  5  7  1  0
  6  8  2  0
  6  9  1  0
  7 10  1  0
  9 10  1  0
  9 11  1  1
M  END
