x0852_0_B-x0685_0_A
     RDKit          3D

 21 22  0  0  0  0  0  0  0  0999 V2000
   -9.7520   17.7140    7.3270 N   0  0  0  0  0  0  0  0  0  0  0  0
   -9.5660   17.2020    6.2990 C   0  0  0  0  0  0  0  0  0  0  0  0
   -9.3120   16.6210    5.0200 C   0  0  0  0  0  0  0  0  0  0  0  0
   -8.2920   15.6800    4.8330 C   0  0  0  0  0  0  0  0  0  0  0  0
  -10.1050   17.0090    3.9320 C   0  0  0  0  0  0  0  0  0  0  0  0
   -7.4840   15.2570    5.8600 O   0  0  0  0  0  0  0  0  0  0  0  0
   -8.0570   15.1320    3.5680 C   0  0  0  0  0  0  0  0  0  0  0  0
   -9.8770   16.4560    2.6770 C   0  0  0  0  0  0  0  0  0  0  0  0
  -10.9430   16.9710    1.2010 Br  0  0  0  0  0  0  0  0  0  0  0  0
   -6.9400   14.1340    3.3670 C   0  0  2  0  0  0  0  0  0  0  0  0
   -8.8650   15.5260    2.4910 C   0  0  0  0  0  0  0  0  0  0  0  0
   -5.6750   14.8180    3.0090 N   0  0  0  0  0  0  0  0  0  0  0  0
   -7.3580   13.1430    2.2840 C   0  0  0  0  0  0  0  0  0  0  0  0
   -5.2180   14.8560    1.6710 C   0  0  0  0  0  0  0  0  0  0  0  0
   -3.8380   14.9310    1.4980 C   0  0  0  0  0  0  0  0  0  0  0  0
   -6.0460   14.8320    0.6030 N   0  0  0  0  0  0  0  0  0  0  0  0
   -3.2940   14.9880    0.2170 C   0  0  0  0  0  0  0  0  0  0  0  0
   -5.5020   14.8910   -0.6400 C   0  0  0  0  0  0  0  0  0  0  0  0
   -4.1410   14.9710   -0.8850 C   0  0  0  0  0  0  0  0  0  0  0  0
   -3.6340   15.0360   -2.2160 C   0  0  0  0  0  0  0  0  0  0  0  0
   -3.2160   15.0990   -3.3000 N   0  0  0  0  0  0  0  0  0  0  0  0
  1  2  3  0
  2  3  1  0
  3  4  2  0
  3  5  1  0
  4  6  1  0
  4  7  1  0
  5  8  2  0
  8  9  1  0
  7 10  1  0
  7 11  2  0
  8 11  1  0
 10 12  1  0
 10 13  1  6
 12 14  1  0
 14 15  2  0
 14 16  1  0
 15 17  1  0
 16 18  2  0
 17 19  2  0
 18 19  1  0
 19 20  1  0
 20 21  3  0
M  END
