x0855_0_A-x0962_0_A
     RDKit          3D

 20 21  0  0  0  0  0  0  0  0999 V2000
    1.6840   13.1170   -2.5650 O   0  0  0  0  0  0  0  0  0  0  0  0
    1.0170   12.2140   -3.3090 C   0  0  0  0  0  0  0  0  0  0  0  0
    0.6950   12.5760   -4.7510 C   0  0  2  0  0  0  0  0  0  0  0  0
    0.6890   11.1340   -2.8320 O   0  0  0  0  0  0  0  0  0  0  0  0
    0.4270   14.0890   -4.8890 C   0  0  0  0  0  0  0  0  0  0  0  0
   -0.3890   11.7290   -5.2170 N   0  0  0  0  0  0  0  0  0  0  0  0
   -0.2610   14.7080   -3.6630 C   0  0  0  0  0  0  0  0  0  0  0  0
   -0.3110   10.7500   -6.1650 C   0  0  0  0  0  0  0  0  0  0  0  0
   -1.6320   11.8680   -4.6870 N   0  0  0  0  0  0  0  0  0  0  0  0
   -1.7620   14.9290   -3.8780 C   0  0  0  0  0  0  0  0  0  0  0  0
   -1.5680   10.2220   -6.2430 C   0  0  0  0  0  0  0  0  0  0  0  0
   -2.3500   10.9330   -5.3270 C   0  0  0  0  0  0  0  0  0  0  0  0
   -2.1590    8.8320   -7.3340 Br  0  0  0  0  0  0  0  0  0  0  0  0
   -2.5050   14.9280   -2.6100 C   0  0  0  0  0  0  0  0  0  0  0  0
   -3.1280   14.9600   -1.5870 C   0  0  0  0  0  0  0  0  0  0  0  0
   -3.8840   15.0210   -0.4000 C   0  0  0  0  0  0  0  0  0  0  0  0
   -3.3730   15.1750    0.8570 N   0  0  0  0  0  0  0  0  0  0  0  0
   -5.2430   14.9480   -0.2350 C   0  0  0  0  0  0  0  0  0  0  0  0
   -4.4290   15.1920    1.7210 C   0  0  0  0  0  0  0  0  0  0  0  0
   -5.5730   15.0490    1.0880 N   0  0  0  0  0  0  0  0  0  0  0  0
  1  2  1  0
  2  3  1  0
  2  4  2  0
  3  5  1  1
  3  6  1  0
  5  7  1  0
  6  8  1  0
  6  9  1  0
  7 10  1  0
  8 11  2  0
  9 12  2  0
 11 12  1  0
 11 13  1  0
 10 14  1  0
 14 15  3  0
 15 16  1  0
 16 17  1  0
 16 18  2  0
 17 19  1  0
 18 20  1  0
 19 20  2  0
M  END
