x0852_0_B_α-x0905_0_A_α
     RDKit          3D

 20 21  0  0  0  0  0  0  0  0999 V2000
   -9.7370   17.7700    7.0800 N   0  0  0  0  0  0  0  0  0  0  0  0
   -9.4820   17.2490    6.0700 C   0  0  0  0  0  0  0  0  0  0  0  0
   -9.1860   16.5460    4.8520 C   0  0  0  0  0  0  0  0  0  0  0  0
   -8.2570   15.4930    4.8330 C   0  0  0  0  0  0  0  0  0  0  0  0
   -9.8370   16.9100    3.6580 C   0  0  0  0  0  0  0  0  0  0  0  0
   -7.6060   15.1210    5.9830 O   0  0  0  0  0  0  0  0  0  0  0  0
   -7.9870   14.8130    3.6520 C   0  0  0  0  0  0  0  0  0  0  0  0
   -9.5560   16.2220    2.4650 C   0  0  0  0  0  0  0  0  0  0  0  0
  -10.1940   16.5920    1.2920 O   0  0  0  0  0  0  0  0  0  0  0  0
   -8.6350   15.1760    2.4730 C   0  0  0  0  0  0  0  0  0  0  0  0
   -9.7670   15.7860    0.1590 C   0  0  0  0  0  0  0  0  0  0  0  0
   -9.0750   16.6360   -0.9160 C   0  0  0  0  0  0  0  0  0  0  0  0
   -7.8460   15.9520   -1.5490 C   0  0  0  0  0  0  0  0  0  0  0  0
   -7.2770   15.0060   -0.6420 O   0  0  0  0  0  0  0  0  0  0  0  0
   -5.8940   15.0450   -0.4930 C   0  0  0  0  0  0  0  0  0  0  0  0
   -5.3760   14.9670    0.7470 N   0  0  0  0  0  0  0  0  0  0  0  0
   -5.1210   15.1620   -1.6370 C   0  0  0  0  0  0  0  0  0  0  0  0
   -4.0320   14.9990    0.8600 C   0  0  0  0  0  0  0  0  0  0  0  0
   -3.7320   15.1940   -1.4920 C   0  0  0  0  0  0  0  0  0  0  0  0
   -3.1810   15.1080   -0.2170 C   0  0  0  0  0  0  0  0  0  0  0  0
  1  2  3  0
  2  3  1  0
  3  4  2  0
  3  5  1  0
  4  6  1  0
  4  7  1  0
  5  8  2  0
  8  9  1  0
  7 10  2  0
  8 10  1  0
  9 11  1  0
 11 12  1  0
 12 13  1  0
 13 14  1  0
 14 15  1  0
 15 16  2  0
 15 17  1  0
 16 18  1  0
 17 19  2  0
 18 20  2  0
 19 20  1  0
M  END
