x0852_0_B_α-x0290_0_A_α
     RDKit          3D

 24 25  0  0  0  0  0  0  0  0999 V2000
   -9.7330   17.9030    7.1740 N   0  0  0  0  0  0  0  0  0  0  0  0
   -9.4770   17.3490    6.1860 C   0  0  0  0  0  0  0  0  0  0  0  0
   -9.2010   16.5920    5.0050 C   0  0  0  0  0  0  0  0  0  0  0  0
   -8.2830   15.5320    5.0360 C   0  0  0  0  0  0  0  0  0  0  0  0
   -9.8680   16.9170    3.8010 C   0  0  0  0  0  0  0  0  0  0  0  0
   -7.5750   15.1330    6.1430 O   0  0  0  0  0  0  0  0  0  0  0  0
   -8.0420   14.8010    3.8910 C   0  0  0  0  0  0  0  0  0  0  0  0
   -9.6110   16.1700    2.6440 C   0  0  0  0  0  0  0  0  0  0  0  0
  -10.1300   16.3010    1.3820 O   0  0  0  0  0  0  0  0  0  0  0  0
   -8.7060   15.1240    2.7160 C   0  0  0  0  0  0  0  0  0  0  0  0
   -9.9990   15.1470    0.5180 C   0  0  0  0  0  0  0  0  0  0  0  0
   -8.5420   14.8880    0.0340 C   0  0  0  0  0  0  0  0  0  0  0  0
   -7.8310   13.8200    0.7970 N   0  0  0  0  0  0  0  0  0  0  0  0
   -6.6390   14.2540    1.5870 C   0  0  0  0  0  0  0  0  0  0  0  0
   -5.3580   14.4290    0.7710 C   0  0  0  0  0  0  0  0  0  0  0  0
   -5.4170   14.3580   -0.4640 O   0  0  0  0  0  0  0  0  0  0  0  0
   -4.1350   14.6510    1.3270 N   0  0  0  0  0  0  0  0  0  0  0  0
   -2.8500   14.6280    0.8000 C   0  0  0  0  0  0  0  0  0  0  0  0
   -1.8420   14.5730    1.7130 N   0  0  0  0  0  0  0  0  0  0  0  0
   -2.5900   14.6540   -0.5570 C   0  0  0  0  0  0  0  0  0  0  0  0
   -0.5710   14.5410    1.2510 C   0  0  0  0  0  0  0  0  0  0  0  0
   -1.2710   14.6210   -1.0140 C   0  0  0  0  0  0  0  0  0  0  0  0
   -0.9910   14.6430   -2.4880 C   0  0  0  0  0  0  0  0  0  0  0  0
   -0.2360   14.5640   -0.0890 C   0  0  0  0  0  0  0  0  0  0  0  0
  1  2  3  0
  2  3  1  0
  3  4  2  0
  3  5  1  0
  4  6  1  0
  4  7  1  0
  5  8  2  0
  8  9  1  0
  7 10  2  0
  8 10  1  0
  9 11  1  0
 11 12  1  0
 12 13  1  0
 13 14  1  0
 14 15  1  0
 15 16  2  0
 15 17  1  0
 17 18  1  0
 18 19  2  0
 18 20  1  0
 19 21  1  0
 20 22  2  0
 22 23  1  0
 21 24  2  0
 22 24  1  0
M  END
