x0852_0_B-x0910_1_A
     RDKit          3D

 17 18  0  0  0  0  0  0  0  0999 V2000
   -9.6440   17.7610    7.2820 N   0  0  0  0  0  0  0  0  0  0  0  0
   -9.4100   17.2470    6.2630 C   0  0  0  0  0  0  0  0  0  0  0  0
   -9.2080   16.5610    5.0230 C   0  0  0  0  0  0  0  0  0  0  0  0
   -8.2990   15.5030    4.8940 C   0  0  0  0  0  0  0  0  0  0  0  0
   -9.9540   16.9680    3.9110 C   0  0  0  0  0  0  0  0  0  0  0  0
   -7.5640   15.1040    5.9840 O   0  0  0  0  0  0  0  0  0  0  0  0
   -8.1470   14.8570    3.6660 C   0  0  0  0  0  0  0  0  0  0  0  0
   -9.8050   16.3240    2.6830 C   0  0  0  0  0  0  0  0  0  0  0  0
  -10.8660   16.9450    1.2320 Br  0  0  0  0  0  0  0  0  0  0  0  0
   -8.9050   15.2620    2.5420 C   0  0  0  0  0  0  0  0  0  0  0  0
   -8.7180   14.5350    1.2320 C   0  0  0  0  0  0  0  0  0  0  0  0
   -7.4130   13.9140    1.2170 N   0  0  0  0  0  0  0  0  0  0  0  0
   -6.4480   14.5930    0.5740 C   0  0  0  0  0  0  0  0  0  0  0  0
   -6.5810   15.0050   -0.7250 N   0  0  0  0  0  0  0  0  0  0  0  0
   -5.2770   14.9730    1.0170 N   0  0  0  0  0  0  0  0  0  0  0  0
   -5.4840   15.6650   -1.1410 N   0  0  0  0  0  0  0  0  0  0  0  0
   -4.7240   15.6180   -0.0460 C   0  0  0  0  0  0  0  0  0  0  0  0
  1  2  3  0
  2  3  1  0
  3  4  2  0
  3  5  1  0
  4  6  1  0
  4  7  1  0
  5  8  2  0
  8  9  1  0
  7 10  2  0
  8 10  1  0
 10 11  1  0
 11 12  1  0
 12 13  1  0
 13 14  1  0
 13 15  2  0
 14 16  1  0
 15 17  1  0
 16 17  2  0
M  END
