x0864_0_A_α-x0282_0_A_α
     RDKit          3D

 27 29  0  0  0  0  0  0  0  0999 V2000
    1.5540   11.4630   -7.1230 O   0  0  0  0  0  0  0  0  0  0  0  0
    0.4340   11.1120   -6.7800 C   0  0  0  0  0  0  0  0  0  0  0  0
   -0.2750   11.7610   -5.8060 N   0  0  0  0  0  0  0  0  0  0  0  0
   -0.2160    9.9470   -7.3990 C   0  0  0  0  0  0  0  0  0  0  0  0
    0.4410   12.8440   -5.1830 C   0  0  0  0  0  0  0  0  0  0  0  0
   -1.3440   11.1710   -5.1560 C   0  0  0  0  0  0  0  0  0  0  0  0
   -1.3220    9.4490   -6.8370 C   0  0  0  0  0  0  0  0  0  0  0  0
    0.6100   12.5260   -3.7330 C   0  0  0  0  0  0  0  0  0  0  0  0
   -2.1970    7.9750   -7.5660 Br  0  0  0  0  0  0  0  0  0  0  0  0
   -1.8730   10.0420   -5.6400 C   0  0  0  0  0  0  0  0  0  0  0  0
    0.5650   11.2280   -3.3470 O   0  0  0  0  0  0  0  0  0  0  0  0
    0.7830   13.4870   -2.9560 N   0  0  0  0  0  0  0  0  0  0  0  0
    0.9330   13.1050   -1.5990 C   0  0  0  0  0  0  0  0  0  0  0  0
    0.0040   13.8820   -0.7320 C   0  0  0  0  0  0  0  0  0  0  0  0
   -1.3060   13.5670   -0.6350 N   0  0  0  0  0  0  0  0  0  0  0  0
    0.5550   14.8980   -0.0730 C   0  0  0  0  0  0  0  0  0  0  0  0
   -0.2710   15.5830    0.7090 C   0  0  0  0  0  0  0  0  0  0  0  0
   -2.0710   14.3160    0.1780 C   0  0  0  0  0  0  0  0  0  0  0  0
   -3.4310   14.0570    0.3040 N   0  0  0  0  0  0  0  0  0  0  0  0
   -1.5670   15.3230    0.8710 N   0  0  0  0  0  0  0  0  0  0  0  0
   -3.8510   14.1460    1.7000 C   0  0  0  0  0  0  0  0  0  0  0  0
   -4.1770   14.8620   -0.6970 C   0  0  0  0  0  0  0  0  0  0  0  0
   -5.1440   14.9280    1.7730 C   0  0  0  0  0  0  0  0  0  0  0  0
   -5.7080   14.8070   -0.5600 C   0  0  0  0  0  0  0  0  0  0  0  0
   -6.0970   14.2520    0.8070 C   0  0  0  0  0  0  0  0  0  0  0  0
   -7.5760   14.3780    1.1920 C   0  0  0  0  0  0  0  0  0  0  0  0
   -8.4030   14.6040    0.0650 O   0  0  0  0  0  0  0  0  0  0  0  0
  1  2  2  0
  2  3  1  0
  2  4  1  0
  3  5  1  0
  3  6  1  0
  4  7  2  0
  5  8  1  0
  7  9  1  0
  6 10  2  0
  7 10  1  0
  8 11  1  0
  8 12  2  3
 12 13  1  0
 13 14  1  0
 14 15  2  0
 14 16  1  0
 16 17  2  0
 15 18  1  0
 18 19  1  0
 17 20  1  0
 18 20  2  0
 19 21  1  0
 19 22  1  0
 21 23  1  0
 22 24  1  0
 23 25  1  0
 24 25  1  0
 25 26  1  0
 26 27  1  0
M  END
