x0864_0_A-x0438_0_A
     RDKit          3D

 29 31  0  0  0  0  0  0  0  0999 V2000
    1.4610   12.0380   -6.7060 O   0  0  0  0  0  0  0  0  0  0  0  0
    0.4670   11.4520   -6.3020 C   0  0  0  0  0  0  0  0  0  0  0  0
   -0.1930   11.7470   -5.1070 N   0  0  0  0  0  0  0  0  0  0  0  0
   -0.0820   10.3260   -7.1050 C   0  0  0  0  0  0  0  0  0  0  0  0
    0.5610   12.4330   -4.0460 C   0  0  0  0  0  0  0  0  0  0  0  0
   -1.3970   11.1430   -4.7840 C   0  0  0  0  0  0  0  0  0  0  0  0
   -1.2160    9.7230   -6.7240 C   0  0  0  0  0  0  0  0  0  0  0  0
    0.4710   11.7470   -2.6760 C   0  0  0  0  0  0  0  0  0  0  0  0
   -1.9530    8.2980   -7.6780 Br  0  0  0  0  0  0  0  0  0  0  0  0
   -1.9140   10.1650   -5.5420 C   0  0  0  0  0  0  0  0  0  0  0  0
    0.5130   10.3940   -2.6970 O   0  0  0  0  0  0  0  0  0  0  0  0
    0.3510   12.1800   -1.4770 N   0  0  0  0  0  0  0  0  0  0  0  0
    0.2520   13.5680   -1.0800 C   0  0  0  0  0  0  0  0  0  0  0  0
   -0.7350   13.6080    0.0910 C   0  0  0  0  0  0  0  0  0  0  0  0
   -1.4280   14.9360    0.1720 C   0  0  0  0  0  0  0  0  0  0  0  0
   -2.9440   14.9300   -0.0530 C   0  0  0  0  0  0  0  0  0  0  0  0
   -3.5040   15.2980   -1.2960 C   0  0  0  0  0  0  0  0  0  0  0  0
   -3.8050   14.5500    0.9960 C   0  0  0  0  0  0  0  0  0  0  0  0
   -5.1950   14.5380    0.7700 C   0  0  0  0  0  0  0  0  0  0  0  0
   -4.8880   15.2970   -1.5290 C   0  0  0  0  0  0  0  0  0  0  0  0
   -6.2230   14.1980    1.6180 N   0  0  0  0  0  0  0  0  0  0  0  0
   -5.7010   14.9040   -0.4680 C   0  0  0  0  0  0  0  0  0  0  0  0
   -7.0640   14.7730   -0.3410 N   0  0  0  0  0  0  0  0  0  0  0  0
   -7.3390   14.3350    0.9370 C   0  0  0  0  0  0  0  0  0  0  0  0
   -8.7120   14.0540    1.4380 C   0  0  0  0  0  0  0  0  0  0  0  0
   -9.3390   15.3130    2.5390 S   0  0  0  0  0  0  0  0  0  0  0  0
   -8.1170   15.5040    3.8280 C   0  0  0  0  0  0  0  0  0  0  0  0
  -10.5510   14.7880    3.1480 O   0  0  0  0  0  0  0  0  0  0  0  0
   -9.4290   16.5390    1.7770 O   0  0  0  0  0  0  0  0  0  0  0  0
  1  2  2  0
  2  3  1  0
  2  4  1  0
  3  5  1  0
  3  6  1  0
  4  7  2  0
  5  8  1  0
  7  9  1  0
  6 10  2  0
  7 10  1  0
  8 11  1  0
  8 12  2  3
 12 13  1  0
 13 14  1  0
 14 15  1  0
 15 16  1  0
 16 17  2  0
 16 18  1  0
 18 19  2  0
 17 20  1  0
 19 21  1  0
 19 22  1  0
 20 22  2  0
 22 23  1  0
 21 24  2  0
 23 24  1  0
 24 25  1  0
 26 25  1  0
 26 27  1  0
 26 28  2  0
 26 29  2  0
M  END
