x0864_0_A-x0676_0_B
     RDKit          3D

 28 30  0  0  0  0  0  0  0  0999 V2000
    1.6430   11.9400   -6.6950 O   0  0  0  0  0  0  0  0  0  0  0  0
    0.5650   11.4080   -6.4460 C   0  0  0  0  0  0  0  0  0  0  0  0
   -0.1840   11.7540   -5.3390 N   0  0  0  0  0  0  0  0  0  0  0  0
    0.0230   10.3550   -7.3260 C   0  0  0  0  0  0  0  0  0  0  0  0
    0.3760   12.7800   -4.4690 C   0  0  0  0  0  0  0  0  0  0  0  0
   -1.3150   11.0410   -4.9740 C   0  0  0  0  0  0  0  0  0  0  0  0
   -1.0990    9.7040   -6.9820 C   0  0  0  0  0  0  0  0  0  0  0  0
    0.6500   12.2800   -3.0570 C   0  0  0  0  0  0  0  0  0  0  0  0
   -1.7110    8.7050   -7.7010 O   0  0  0  0  0  0  0  0  0  0  0  0
   -1.7780   10.0470   -5.7480 C   0  0  0  0  0  0  0  0  0  0  0  0
    0.3960   10.9650   -2.8510 O   0  0  0  0  0  0  0  0  0  0  0  0
    1.0690   12.9980   -2.1640 O   0  0  0  0  0  0  0  0  0  0  0  0
   -1.7840    8.8610   -9.1240 C   0  0  0  0  0  0  0  0  0  0  0  0
   -0.7960    7.9230   -9.8400 C   0  0  0  0  0  0  0  0  0  0  0  0
    0.6780    8.1470   -9.4620 C   0  0  0  0  0  0  0  0  0  0  0  0
    1.4820    8.4650  -10.6420 N   0  0  0  0  0  0  0  0  0  0  0  0
    2.6680    7.9930  -10.7420 C   0  0  0  0  0  0  0  0  0  0  0  0
    3.2770    7.1020   -9.6890 C   0  0  0  0  0  0  0  0  0  0  0  0
    3.6580    8.1300  -11.7230 N   0  0  0  0  0  0  0  0  0  0  0  0
    4.9040    7.7010  -11.2550 N   0  0  0  0  0  0  0  0  0  0  0  0
    4.7070    7.1450  -10.1030 C   0  0  0  0  0  0  0  0  0  0  0  0
    3.7430    9.1710  -12.7030 C   0  0  0  0  0  0  0  0  0  0  0  0
    5.7870    6.5950   -9.2470 C   0  0  0  0  0  0  0  0  0  0  0  0
    2.8510   10.2680  -12.6960 C   0  0  0  0  0  0  0  0  0  0  0  0
    4.7130    9.1700  -13.7190 C   0  0  0  0  0  0  0  0  0  0  0  0
    2.9270   11.3020  -13.6380 C   0  0  0  0  0  0  0  0  0  0  0  0
    4.7940   10.1990  -14.6660 C   0  0  0  0  0  0  0  0  0  0  0  0
    3.9040   11.2660  -14.6260 C   0  0  0  0  0  0  0  0  0  0  0  0
  1  2  2  0
  2  3  1  0
  2  4  1  0
  3  5  1  0
  3  6  1  0
  4  7  2  0
  5  8  1  0
  7  9  1  0
  6 10  2  0
  7 10  1  0
  8 11  1  0
  8 12  2  0
  9 13  1  0
 13 14  1  0
 14 15  1  0
 15 16  1  0
 16 17  2  3
 17 18  1  0
 17 19  1  0
 19 20  1  0
 18 21  1  0
 20 21  2  0
 19 22  1  0
 21 23  1  0
 22 24  2  0
 22 25  1  0
 24 26  1  0
 25 27  2  0
 26 28  2  0
 27 28  1  0
M  END
