x0864_0_A_α-x0805_0_A_β
     RDKit          3D

 18 19  0  0  0  0  0  0  0  0999 V2000
    0.7570   12.1700   -6.3210 O   0  0  0  0  0  0  0  0  0  0  0  0
   -0.2160   11.4350   -6.1470 C   0  0  0  0  0  0  0  0  0  0  0  0
   -1.0440   11.3230   -4.9800 N   0  0  0  0  0  0  0  0  0  0  0  0
   -0.5680   10.5270   -7.2620 C   0  0  0  0  0  0  0  0  0  0  0  0
   -0.5090   11.2650   -3.6060 C   0  0  0  0  0  0  0  0  0  0  0  0
   -2.2640   10.7250   -5.0600 C   0  0  0  0  0  0  0  0  0  0  0  0
   -1.7040    9.8290   -7.2050 C   0  0  0  0  0  0  0  0  0  0  0  0
    0.6690   12.1470   -3.3380 C   0  0  0  0  0  0  0  0  0  0  0  0
   -2.1850    8.6010   -8.5140 Br  0  0  0  0  0  0  0  0  0  0  0  0
   -2.6100    9.9940   -6.1050 C   0  0  0  0  0  0  0  0  0  0  0  0
    1.8220   11.3400   -3.5080 O   0  0  0  0  0  0  0  0  0  0  0  0
    0.7550   12.6650   -2.0160 O   0  0  0  0  0  0  0  0  0  0  0  0
    0.6100   13.2290   -4.3720 C   0  0  1  0  0  0  0  0  0  0  0  0
   -0.4270   14.3360   -4.1350 C   0  0  0  0  0  0  0  0  0  0  0  0
    1.9670   13.6640   -4.8100 C   0  0  0  0  0  0  0  0  0  0  0  0
    2.4040   14.7300   -3.9850 O   0  0  0  0  0  0  0  0  0  0  0  0
    0.2000   15.5790   -3.5480 C   0  0  0  0  0  0  0  0  0  0  0  0
    1.5320   15.8330   -4.1870 C   0  0  0  0  0  0  0  0  0  0  0  0
  1  2  2  0
  2  3  1  0
  2  4  1  0
  3  5  1  0
  3  6  1  0
  4  7  2  0
  5  8  1  0
  7  9  1  0
  6 10  2  0
  7 10  1  0
  8 11  1  0
  8 12  1  0
 13  8  1  1
 13 14  1  0
 13 15  1  0
 15 16  1  0
 14 17  1  0
 16 18  1  0
 17 18  1  0
M  END
