x0864_0_A-x0104_0_A
     RDKit          3D

 32 34  0  0  0  0  0  0  0  0999 V2000
    1.3930   12.0700   -6.4740 O   0  0  0  0  0  0  0  0  0  0  0  0
    0.3280   11.4920   -6.2670 C   0  0  0  0  0  0  0  0  0  0  0  0
   -0.5750   11.8470   -5.2550 N   0  0  0  0  0  0  0  0  0  0  0  0
   -0.0520   10.3360   -7.1200 C   0  0  0  0  0  0  0  0  0  0  0  0
   -0.2850   12.8430   -4.2030 C   0  0  1  0  0  0  0  0  0  0  0  0
   -1.6900   11.0720   -4.9950 C   0  0  0  0  0  0  0  0  0  0  0  0
   -1.1690    9.6440   -6.8450 C   0  0  0  0  0  0  0  0  0  0  0  0
    0.7260   12.3590   -3.1510 C   0  0  0  0  0  0  0  0  0  0  0  0
   -1.7210    8.1800   -7.8540 Br  0  0  0  0  0  0  0  0  0  0  0  0
   -0.0710   14.3070   -4.6450 C   0  0  0  0  0  0  0  0  0  0  0  0
   -2.0010   10.0140   -5.7340 C   0  0  0  0  0  0  0  0  0  0  0  0
    0.7050   11.0370   -2.8980 O   0  0  0  0  0  0  0  0  0  0  0  0
    1.4920   13.1040   -2.5600 O   0  0  0  0  0  0  0  0  0  0  0  0
   -0.9460   15.3250   -3.8760 C   0  0  0  0  0  0  0  0  0  0  0  0
   -2.4760   15.0810   -3.8990 C   0  0  0  0  0  0  0  0  0  0  0  0
   -3.0850   14.7760   -2.5130 C   0  0  0  0  0  0  0  0  0  0  0  0
   -4.4840   15.0960   -2.4160 O   0  0  0  0  0  0  0  0  0  0  0  0
   -5.0470   14.9540   -1.1540 C   0  0  0  0  0  0  0  0  0  0  0  0
   -4.2570   14.8720   -0.0650 N   0  0  0  0  0  0  0  0  0  0  0  0
   -6.4350   14.8990   -1.0800 C   0  0  0  0  0  0  0  0  0  0  0  0
   -4.8680   14.7380    1.1420 C   0  0  0  0  0  0  0  0  0  0  0  0
   -7.0400   14.7540    0.1740 C   0  0  0  0  0  0  0  0  0  0  0  0
   -6.2540   14.6710    1.3290 C   0  0  0  0  0  0  0  0  0  0  0  0
   -6.8890   14.5270    2.5890 N   0  0  0  0  0  0  0  0  0  0  0  0
   -8.0730   15.0840    3.0770 C   0  0  0  0  0  0  0  0  0  0  0  0
   -8.0240   15.1280    4.4670 N   0  0  0  0  0  0  0  0  0  0  0  0
   -9.0040   15.4710    2.3860 O   0  0  0  0  0  0  0  0  0  0  0  0
   -9.1270   15.1200    5.3040 C   0  0  0  0  0  0  0  0  0  0  0  0
   -9.2560   15.2230    6.6700 C   0  0  0  0  0  0  0  0  0  0  0  0
  -10.6290   14.9460    4.5210 S   0  0  0  0  0  0  0  0  0  0  0  0
  -11.4790   15.0080    6.0100 C   0  0  0  0  0  0  0  0  0  0  0  0
  -10.6250   15.1590    7.0810 C   0  0  0  0  0  0  0  0  0  0  0  0
  1  2  2  0
  2  3  1  0
  2  4  1  0
  3  5  1  0
  3  6  1  0
  4  7  2  0
  5  8  1  0
  7  9  1  0
  5 10  1  6
  6 11  2  0
  7 11  1  0
  8 12  1  0
  8 13  2  0
 10 14  1  0
 14 15  1  0
 15 16  1  0
 16 17  1  0
 17 18  1  0
 18 19  2  0
 18 20  1  0
 19 21  1  0
 20 22  2  0
 21 23  2  0
 22 23  1  0
 23 24  1  0
 24 25  1  0
 25 26  1  0
 25 27  2  0
 26 28  1  0
 28 29  2  0
 28 30  1  0
 30 31  1  0
 29 32  1  0
 31 32  2  0
M  END
