x0864_0_A_α-x0592_0_A_α
     RDKit          3D

 26 27  0  0  0  0  0  0  0  0999 V2000
    1.4840   11.9990   -6.6820 O   0  0  0  0  0  0  0  0  0  0  0  0
    0.4790   11.4040   -6.3070 C   0  0  0  0  0  0  0  0  0  0  0  0
   -0.1850   11.7100   -5.1210 N   0  0  0  0  0  0  0  0  0  0  0  0
   -0.0700   10.2880   -7.1120 C   0  0  0  0  0  0  0  0  0  0  0  0
    0.5810   12.3710   -4.0590 C   0  0  0  0  0  0  0  0  0  0  0  0
   -1.4110   11.1440   -4.8170 C   0  0  0  0  0  0  0  0  0  0  0  0
   -1.2240    9.7130   -6.7490 C   0  0  0  0  0  0  0  0  0  0  0  0
    0.5060   11.5840   -2.7440 C   0  0  0  0  0  0  0  0  0  0  0  0
   -1.9710    8.2980   -7.7060 Br  0  0  0  0  0  0  0  0  0  0  0  0
   -1.9360   10.1820   -5.5810 C   0  0  0  0  0  0  0  0  0  0  0  0
    0.4130   10.2430   -2.8130 O   0  0  0  0  0  0  0  0  0  0  0  0
    0.5130   12.1010   -1.5790 N   0  0  0  0  0  0  0  0  0  0  0  0
    0.5890   13.5120   -1.3060 C   0  0  0  0  0  0  0  0  0  0  0  0
   -0.2870   13.6520   -0.0750 C   0  0  0  0  0  0  0  0  0  0  0  0
   -0.9720   14.9710   -0.0770 C   0  0  0  0  0  0  0  0  0  0  0  0
   -2.3400   14.8620   -0.6000 N   0  0  0  0  0  0  0  0  0  0  0  0
   -3.2560   14.8900    0.2890 C   0  0  0  0  0  0  0  0  0  0  0  0
   -3.0820   14.9790    1.6390 N   0  0  0  0  0  0  0  0  0  0  0  0
   -4.6580   14.8530   -0.0700 C   0  0  0  0  0  0  0  0  0  0  0  0
   -5.3650   15.0520   -1.2860 C   0  0  0  0  0  0  0  0  0  0  0  0
   -5.6610   14.5980    0.8350 C   0  0  0  0  0  0  0  0  0  0  0  0
   -6.6950   14.9300   -1.1410 N   0  0  0  0  0  0  0  0  0  0  0  0
   -6.8340   14.6540    0.1730 N   0  0  0  0  0  0  0  0  0  0  0  0
   -8.1340   14.4490    0.7760 C   0  0  0  0  0  0  0  0  0  0  0  0
   -8.0020   14.0670    2.2510 C   0  0  0  0  0  0  0  0  0  0  0  0
   -7.2300   15.0120    3.0000 O   0  0  0  0  0  0  0  0  0  0  0  0
  1  2  2  0
  2  3  1  0
  2  4  1  0
  3  5  1  0
  3  6  1  0
  4  7  2  0
  5  8  1  0
  7  9  1  0
  6 10  2  0
  7 10  1  0
  8 11  1  0
  8 12  2  3
 12 13  1  0
 13 14  1  0
 14 15  1  0
 15 16  1  0
 16 17  2  3
 17 18  1  0
 17 19  1  0
 19 20  1  0
 19 21  2  0
 20 22  2  0
 21 23  1  0
 22 23  1  0
 23 24  1  0
 24 25  1  0
 25 26  1  0
M  END
