x0864_0_A-x0685_0_A
     RDKit          3D

 26 27  0  0  0  0  0  0  0  0999 V2000
    1.3260   11.9830   -6.6000 O   0  0  0  0  0  0  0  0  0  0  0  0
    0.3300   11.3260   -6.3080 C   0  0  0  0  0  0  0  0  0  0  0  0
   -0.4690   11.5170   -5.1760 N   0  0  0  0  0  0  0  0  0  0  0  0
   -0.0820   10.2150   -7.2050 C   0  0  0  0  0  0  0  0  0  0  0  0
   -0.2050   12.6210   -4.2530 C   0  0  1  0  0  0  0  0  0  0  0  0
   -1.6440   10.8230   -4.9870 C   0  0  0  0  0  0  0  0  0  0  0  0
   -1.2100    9.5320   -6.9470 C   0  0  0  0  0  0  0  0  0  0  0  0
    0.7790   12.4250   -3.1100 C   0  0  0  0  0  0  0  0  0  0  0  0
   -1.7940    8.1220   -8.0130 Br  0  0  0  0  0  0  0  0  0  0  0  0
   -0.3800   14.0050   -4.8920 C   0  0  0  0  0  0  0  0  0  0  0  0
   -2.0260    9.8670   -5.8190 C   0  0  0  0  0  0  0  0  0  0  0  0
    0.6300   11.2410   -2.4890 O   0  0  0  0  0  0  0  0  0  0  0  0
    1.6250   13.2120   -2.7270 O   0  0  0  0  0  0  0  0  0  0  0  0
   -1.8420   14.3340   -5.2400 C   0  0  0  0  0  0  0  0  0  0  0  0
   -2.4140   15.6140   -4.6440 C   0  0  0  0  0  0  0  0  0  0  0  0
   -3.0640   15.3660   -3.3530 C   0  0  0  0  0  0  0  0  0  0  0  0
   -3.5670   15.2220   -2.2770 C   0  0  0  0  0  0  0  0  0  0  0  0
   -4.1840   15.1330   -0.9990 C   0  0  0  0  0  0  0  0  0  0  0  0
   -3.4490   15.1560    0.1810 C   0  0  0  0  0  0  0  0  0  0  0  0
   -5.5550   15.0240   -0.9060 C   0  0  0  0  0  0  0  0  0  0  0  0
   -4.1220   15.0830    1.3970 C   0  0  0  0  0  0  0  0  0  0  0  0
   -6.2260   14.9480    0.2610 N   0  0  0  0  0  0  0  0  0  0  0  0
   -5.5090   14.9870    1.3970 C   0  0  0  0  0  0  0  0  0  0  0  0
   -6.2700   14.9410    2.5580 N   0  0  0  0  0  0  0  0  0  0  0  0
   -7.7050   14.7350    2.4790 C   0  0  0  0  0  0  0  0  0  0  0  0
   -8.0840   13.3500    2.9720 C   0  0  0  0  0  0  0  0  0  0  0  0
  1  2  2  0
  2  3  1  0
  2  4  1  0
  3  5  1  0
  3  6  1  0
  4  7  2  0
  5  8  1  0
  7  9  1  0
  5 10  1  6
  6 11  2  0
  7 11  1  0
  8 12  1  0
  8 13  2  0
 10 14  1  0
 14 15  1  0
 15 16  1  0
 16 17  3  0
 17 18  1  0
 18 19  2  0
 18 20  1  0
 19 21  1  0
 20 22  2  0
 21 23  2  0
 22 23  1  0
 23 24  1  0
 24 25  1  0
 25 26  1  0
M  END
