x0864_0_A_α-x0910_1_A_α
     RDKit          3D

 22 23  0  0  0  0  0  0  0  0999 V2000
    1.6110   11.7070   -7.0410 O   0  0  0  0  0  0  0  0  0  0  0  0
    0.6020   11.2560   -6.5240 C   0  0  0  0  0  0  0  0  0  0  0  0
   -0.0280   11.7780   -5.4180 N   0  0  0  0  0  0  0  0  0  0  0  0
   -0.0260   10.0320   -7.0770 C   0  0  0  0  0  0  0  0  0  0  0  0
    0.7150   12.7420   -4.5990 C   0  0  0  0  0  0  0  0  0  0  0  0
   -1.3840   11.6350   -5.2760 C   0  0  0  0  0  0  0  0  0  0  0  0
   -1.2940    9.7490   -6.7650 C   0  0  0  0  0  0  0  0  0  0  0  0
    0.5890   12.6170   -3.0760 C   0  0  0  0  0  0  0  0  0  0  0  0
   -2.1470    8.2250   -7.4140 Br  0  0  0  0  0  0  0  0  0  0  0  0
   -2.0370   10.6480   -5.9100 C   0  0  0  0  0  0  0  0  0  0  0  0
    0.5410   11.3480   -2.5950 O   0  0  0  0  0  0  0  0  0  0  0  0
    0.5380   13.7130   -2.3820 N   0  0  0  0  0  0  0  0  0  0  0  0
    0.4220   13.9130   -0.9320 C   0  0  0  0  0  0  0  0  0  0  0  0
   -0.5780   15.0190   -0.5080 C   0  0  0  0  0  0  0  0  0  0  0  0
   -2.0640   14.6240   -0.2890 C   0  0  0  0  0  0  0  0  0  0  0  0
   -3.0660   15.7540   -0.0040 C   0  0  0  0  0  0  0  0  0  0  0  0
   -4.5200   15.3820   -0.0370 C   0  0  0  0  0  0  0  0  0  0  0  0
   -5.2840   15.5740   -1.1210 N   0  0  0  0  0  0  0  0  0  0  0  0
   -5.1910   14.8220    1.0260 N   0  0  0  0  0  0  0  0  0  0  0  0
   -6.4130   14.6600    0.5760 C   0  0  0  0  0  0  0  0  0  0  0  0
   -6.4780   15.1100   -0.7170 N   0  0  0  0  0  0  0  0  0  0  0  0
   -7.4650   14.1450    1.2310 N   0  0  0  0  0  0  0  0  0  0  0  0
  1  2  2  0
  2  3  1  0
  2  4  1  0
  3  5  1  0
  3  6  1  0
  4  7  2  0
  5  8  1  0
  7  9  1  0
  6 10  2  0
  7 10  1  0
  8 11  1  0
  8 12  2  3
 12 13  1  0
 13 14  1  0
 14 15  1  0
 15 16  1  0
 16 17  1  0
 17 18  2  0
 17 19  1  0
 19 20  2  0
 18 21  1  0
 20 21  1  0
 20 22  1  0
M  END
