x0864_0_A-x0371_0_A
     RDKit          3D

 33 36  0  0  0  0  0  0  0  0999 V2000
    1.4880   11.9340   -6.7680 O   0  0  0  0  0  0  0  0  0  0  0  0
    0.4860   11.3760   -6.3410 C   0  0  0  0  0  0  0  0  0  0  0  0
   -0.1440   11.6950   -5.1400 N   0  0  0  0  0  0  0  0  0  0  0  0
   -0.1040   10.2640   -7.1290 C   0  0  0  0  0  0  0  0  0  0  0  0
    0.6600   12.3800   -4.1240 C   0  0  0  0  0  0  0  0  0  0  0  0
   -1.3630   11.1350   -4.7980 C   0  0  0  0  0  0  0  0  0  0  0  0
   -1.2500    9.7000   -6.7310 C   0  0  0  0  0  0  0  0  0  0  0  0
    0.5390   11.8220   -2.6960 C   0  0  0  0  0  0  0  0  0  0  0  0
   -2.0350    8.2930   -7.6710 Br  0  0  0  0  0  0  0  0  0  0  0  0
   -1.9180   10.1720   -5.5460 C   0  0  0  0  0  0  0  0  0  0  0  0
    0.2750   10.4860   -2.5930 O   0  0  0  0  0  0  0  0  0  0  0  0
    0.6550   12.4460   -1.5860 N   0  0  0  0  0  0  0  0  0  0  0  0
    0.9580   13.8690   -1.5670 C   0  0  0  0  0  0  0  0  0  0  0  0
   -0.3400   14.6640   -1.6810 C   0  0  0  0  0  0  0  0  0  0  0  0
   -1.1910   14.6920   -0.3980 C   0  0  0  0  0  0  0  0  0  0  0  0
   -2.7080   14.8030   -0.5240 C   0  0  0  0  0  0  0  0  0  0  0  0
   -3.4560   14.5200    0.6260 C   0  0  0  0  0  0  0  0  0  0  0  0
   -3.3840   15.1610   -1.7140 C   0  0  0  0  0  0  0  0  0  0  0  0
   -4.8390   14.5880    0.5290 C   0  0  0  0  0  0  0  0  0  0  0  0
   -4.7870   15.2270   -1.7800 C   0  0  0  0  0  0  0  0  0  0  0  0
   -5.8100   14.3570    1.4480 N   0  0  0  0  0  0  0  0  0  0  0  0
   -5.5250   14.9260   -0.6300 C   0  0  0  0  0  0  0  0  0  0  0  0
   -7.0260   14.5430    0.8460 C   0  0  0  0  0  0  0  0  0  0  0  0
   -6.8840   14.8960   -0.4190 N   0  0  0  0  0  0  0  0  0  0  0  0
   -8.2810   14.3450    1.6050 C   0  0  0  0  0  0  0  0  0  0  0  0
   -8.0260   14.5930    3.0020 N   0  0  0  0  0  0  0  0  0  0  0  0
   -8.7450   15.5580    3.6640 C   0  0  0  0  0  0  0  0  0  0  0  0
   -9.4430   16.3710    3.0580 O   0  0  0  0  0  0  0  0  0  0  0  0
   -8.6220   15.5240    5.0980 C   0  0  0  0  0  0  0  0  0  0  0  0
   -8.0590   14.4290    5.6910 O   0  0  0  0  0  0  0  0  0  0  0  0
   -8.9850   16.4360    6.0650 C   0  0  0  0  0  0  0  0  0  0  0  0
   -8.6230   15.8660    7.3110 C   0  0  0  0  0  0  0  0  0  0  0  0
   -8.0620   14.6470    7.0270 C   0  0  0  0  0  0  0  0  0  0  0  0
  1  2  2  0
  2  3  1  0
  2  4  1  0
  3  5  1  0
  3  6  1  0
  4  7  2  0
  5  8  1  0
  7  9  1  0
  6 10  2  0
  7 10  1  0
  8 11  1  0
  8 12  2  3
 12 13  1  0
 13 14  1  0
 14 15  1  0
 15 16  1  0
 16 17  2  0
 16 18  1  0
 17 19  1  0
 18 20  2  0
 19 21  1  0
 19 22  2  0
 20 22  1  0
 21 23  1  0
 22 24  1  0
 23 24  2  0
 23 25  1  0
 25 26  1  0
 26 27  1  0
 27 28  2  0
 27 29  1  0
 29 30  1  0
 29 31  2  0
 31 32  1  0
 30 33  1  0
 32 33  2  0
M  END
