x0864_0_A_α-x0837_0_A_α
     RDKit          3D

 23 24  0  0  0  0  0  0  0  0999 V2000
    1.5210   11.7620   -6.9520 O   0  0  0  0  0  0  0  0  0  0  0  0
    0.4530   11.3010   -6.5130 C   0  0  0  0  0  0  0  0  0  0  0  0
   -0.0560   11.8290   -5.4140 N   0  0  0  0  0  0  0  0  0  0  0  0
   -0.1110   10.2480   -7.1990 C   0  0  0  0  0  0  0  0  0  0  0  0
    0.8060   12.6450   -4.5980 C   0  0  2  0  0  0  0  0  0  0  0  0
   -1.1840   11.3010   -4.9310 C   0  0  0  0  0  0  0  0  0  0  0  0
   -1.2680    9.6910   -6.7210 C   0  0  0  0  0  0  0  0  0  0  0  0
    0.7950   12.1530   -3.1900 C   0  0  0  0  0  0  0  0  0  0  0  0
   -2.0820    8.2200   -7.6340 Br  0  0  0  0  0  0  0  0  0  0  0  0
    0.4970   14.0810   -4.6110 C   0  0  0  0  0  0  0  0  0  0  0  0
   -1.8160   10.2220   -5.5720 C   0  0  0  0  0  0  0  0  0  0  0  0
    0.3630   10.8740   -2.8860 O   0  0  0  0  0  0  0  0  0  0  0  0
    1.1830   12.8800   -2.2670 O   0  0  0  0  0  0  0  0  0  0  0  0
   -0.9220   14.4850   -4.6910 C   0  0  0  0  0  0  0  0  0  0  0  0
   -1.6120   15.1090   -3.5630 C   0  0  0  0  0  0  0  0  0  0  0  0
   -3.3040   14.2540   -2.7210 I   0  0  0  0  0  0  0  0  0  0  0  0
   -4.1980   15.3200   -1.1240 C   0  0  2  0  0  0  0  0  0  0  0  0
   -3.4900   15.2130    0.1450 C   0  0  0  0  0  0  0  0  0  0  0  0
   -5.6560   15.0360   -1.1400 C   0  0  0  0  0  0  0  0  0  0  0  0
   -4.1360   15.0170    1.2560 C   0  0  0  0  0  0  0  0  0  0  0  0
   -6.3030   14.8380    0.1750 C   0  0  0  0  0  0  0  0  0  0  0  0
   -7.5280   14.6460    0.2070 O   0  0  0  0  0  0  0  0  0  0  0  0
   -5.5380   14.8780    1.3540 N   0  0  0  0  0  0  0  0  0  0  0  0
  1  2  2  0
  2  3  1  0
  2  4  1  0
  3  5  1  0
  3  6  1  0
  4  7  2  0
  5  8  1  0
  7  9  1  0
  5 10  1  1
  6 11  2  0
  7 11  1  0
  8 12  1  0
  8 13  2  0
 10 14  1  0
 14 15  1  0
 15 16  1  0
 17 16  1  6
 17 18  1  0
 17 19  1  0
 18 20  2  0
 19 21  1  0
 21 22  2  0
 20 23  1  0
 21 23  1  0
M  END
