x0864_0_A_α-x0371_0_A_β
     RDKit          3D

 25 27  0  0  0  0  0  0  0  0999 V2000
    1.4810   11.9660   -6.7120 O   0  0  0  0  0  0  0  0  0  0  0  0
    0.4850   11.3840   -6.3000 C   0  0  0  0  0  0  0  0  0  0  0  0
   -0.1500   11.6670   -5.0930 N   0  0  0  0  0  0  0  0  0  0  0  0
   -0.0980   10.2810   -7.1020 C   0  0  0  0  0  0  0  0  0  0  0  0
    0.6350   12.3710   -4.0720 C   0  0  0  0  0  0  0  0  0  0  0  0
   -1.3740   11.1160   -4.7650 C   0  0  0  0  0  0  0  0  0  0  0  0
   -1.2470    9.7110   -6.7190 C   0  0  0  0  0  0  0  0  0  0  0  0
    0.5300   11.7700   -2.6580 C   0  0  0  0  0  0  0  0  0  0  0  0
   -2.0260    8.3130   -7.6790 Br  0  0  0  0  0  0  0  0  0  0  0  0
   -1.9290   10.1690   -5.5310 C   0  0  0  0  0  0  0  0  0  0  0  0
    0.3210   10.4290   -2.6290 O   0  0  0  0  0  0  0  0  0  0  0  0
    0.6350   12.4660   -1.5850 N   0  0  0  0  0  0  0  0  0  0  0  0
    0.8720   13.8950   -1.6160 C   0  0  0  0  0  0  0  0  0  0  0  0
   -0.4760   14.6060   -1.7010 C   0  0  0  0  0  0  0  0  0  0  0  0
   -1.2310   14.6850   -0.3630 C   0  0  0  0  0  0  0  0  0  0  0  0
   -2.7490   14.8060   -0.4900 C   0  0  0  0  0  0  0  0  0  0  0  0
   -3.5150   14.5690    0.6530 C   0  0  0  0  0  0  0  0  0  0  0  0
   -3.3870   15.1310   -1.7100 C   0  0  0  0  0  0  0  0  0  0  0  0
   -4.8970   14.6490    0.5220 C   0  0  0  0  0  0  0  0  0  0  0  0
   -4.7920   15.2110   -1.8040 C   0  0  0  0  0  0  0  0  0  0  0  0
   -5.8880   14.4610    1.4340 N   0  0  0  0  0  0  0  0  0  0  0  0
   -5.5540   14.9540   -0.6570 C   0  0  0  0  0  0  0  0  0  0  0  0
   -7.0960   14.6380    0.8100 C   0  0  0  0  0  0  0  0  0  0  0  0
   -6.9200   14.9450   -0.4640 N   0  0  0  0  0  0  0  0  0  0  0  0
   -8.3810   14.4930    1.5290 C   0  0  0  0  0  0  0  0  0  0  0  0
  1  2  2  0
  2  3  1  0
  2  4  1  0
  3  5  1  0
  3  6  1  0
  4  7  2  0
  5  8  1  0
  7  9  1  0
  6 10  2  0
  7 10  1  0
  8 11  1  0
  8 12  2  3
 12 13  1  0
 13 14  1  0
 14 15  1  0
 15 16  1  0
 16 17  2  0
 16 18  1  0
 17 19  1  0
 18 20  2  0
 19 21  1  0
 19 22  2  0
 20 22  1  0
 21 23  1  0
 22 24  1  0
 23 24  2  0
 23 25  1  0
M  END
