x0864_0_A-x0689_0_A
     RDKit          3D

 21 22  0  0  0  0  0  0  0  0999 V2000
    1.7170   11.5190   -6.8520 O   0  0  0  0  0  0  0  0  0  0  0  0
    0.6420   11.1060   -6.4490 C   0  0  0  0  0  0  0  0  0  0  0  0
   -0.0190   11.6190   -5.3510 N   0  0  0  0  0  0  0  0  0  0  0  0
   -0.0210    9.9840   -7.1490 C   0  0  0  0  0  0  0  0  0  0  0  0
    0.5550   12.8140   -4.7680 C   0  0  0  0  0  0  0  0  0  0  0  0
   -1.3010   11.2250   -5.0020 C   0  0  0  0  0  0  0  0  0  0  0  0
   -1.2380    9.5850   -6.7610 C   0  0  0  0  0  0  0  0  0  0  0  0
    0.6720   12.6480   -3.2710 C   0  0  0  0  0  0  0  0  0  0  0  0
   -2.1190    8.1730   -7.6070 Br  0  0  0  0  0  0  0  0  0  0  0  0
   -1.9160   10.2400   -5.6690 C   0  0  0  0  0  0  0  0  0  0  0  0
    0.6920   11.3590   -2.8500 O   0  0  0  0  0  0  0  0  0  0  0  0
    0.7360   13.6940   -2.5370 N   0  0  0  0  0  0  0  0  0  0  0  0
    0.8390   13.6210   -1.1030 C   0  0  0  0  0  0  0  0  0  0  0  0
   -0.3460   14.0760   -0.3370 C   0  0  0  0  0  0  0  0  0  0  0  0
   -1.5030   14.4540   -0.9510 C   0  0  0  0  0  0  0  0  0  0  0  0
   -0.3880   14.1400    1.0470 C   0  0  0  0  0  0  0  0  0  0  0  0
   -2.5920   14.8500   -0.2900 N   0  0  0  0  0  0  0  0  0  0  0  0
   -1.4560   14.5330    1.7550 N   0  0  0  0  0  0  0  0  0  0  0  0
   -2.5290   14.8730    1.0450 C   0  0  0  0  0  0  0  0  0  0  0  0
   -3.6410   15.2770    1.7450 N   0  0  0  0  0  0  0  0  0  0  0  0
   -4.7880   15.3540    0.8850 C   0  0  0  0  0  0  0  0  0  0  0  0
  1  2  2  0
  2  3  1  0
  2  4  1  0
  3  5  1  0
  3  6  1  0
  4  7  2  0
  5  8  1  0
  7  9  1  0
  6 10  2  0
  7 10  1  0
  8 11  1  0
  8 12  2  3
 12 13  1  0
 13 14  1  0
 14 15  2  0
 14 16  1  0
 15 17  1  0
 16 18  2  0
 17 19  2  0
 18 19  1  0
 19 20  1  0
 20 21  1  0
M  END
