x0864_0_A_α-x0895_0_A_α
     RDKit          3D

 22 23  0  0  0  0  0  0  0  0999 V2000
    1.6200   11.7290   -7.0320 O   0  0  0  0  0  0  0  0  0  0  0  0
    0.5680   11.3080   -6.5940 C   0  0  0  0  0  0  0  0  0  0  0  0
   -0.0480   11.8120   -5.4680 N   0  0  0  0  0  0  0  0  0  0  0  0
   -0.0970   10.1680   -7.2700 C   0  0  0  0  0  0  0  0  0  0  0  0
    0.8320   12.5430   -4.5540 C   0  0  0  0  0  0  0  0  0  0  0  0
   -1.2260   11.2670   -4.9770 C   0  0  0  0  0  0  0  0  0  0  0  0
   -1.2310    9.6660   -6.7760 C   0  0  0  0  0  0  0  0  0  0  0  0
    0.3460   12.4420   -3.1290 C   0  0  0  0  0  0  0  0  0  0  0  0
   -2.1000    8.2270   -7.5870 Br  0  0  0  0  0  0  0  0  0  0  0  0
   -1.8200   10.2290   -5.5870 C   0  0  0  0  0  0  0  0  0  0  0  0
    0.3400   11.2060   -2.5960 O   0  0  0  0  0  0  0  0  0  0  0  0
   -0.0810   13.4000   -2.3990 N   0  0  0  0  0  0  0  0  0  0  0  0
   -0.6020   13.1740   -1.0590 C   0  0  0  0  0  0  0  0  0  0  0  0
    0.3270   13.7930   -0.0210 C   0  0  0  0  0  0  0  0  0  0  0  0
   -0.1650   15.0180    0.7230 C   0  0  0  0  0  0  0  0  0  0  0  0
   -1.3240   14.7860    1.5870 N   0  0  0  0  0  0  0  0  0  0  0  0
   -2.4710   14.7860    1.0360 C   0  0  0  0  0  0  0  0  0  0  0  0
   -3.7850   14.6240    1.7610 C   0  0  0  0  0  0  0  0  0  0  0  0
   -2.7290   14.9420   -0.2810 N   0  0  0  0  0  0  0  0  0  0  0  0
   -4.6650   15.1360    0.7450 N   0  0  0  0  0  0  0  0  0  0  0  0
   -4.0320   15.2200   -0.4690 C   0  0  0  0  0  0  0  0  0  0  0  0
   -4.5540   15.4950   -1.5300 O   0  0  0  0  0  0  0  0  0  0  0  0
  1  2  2  0
  2  3  1  0
  2  4  1  0
  3  5  1  0
  3  6  1  0
  4  7  2  0
  5  8  1  0
  7  9  1  0
  6 10  2  0
  7 10  1  0
  8 11  1  0
  8 12  2  3
 12 13  1  0
 13 14  1  0
 14 15  1  0
 15 16  1  0
 16 17  2  3
 17 18  1  0
 17 19  1  0
 18 20  1  0
 19 21  1  0
 20 21  1  0
 21 22  2  0
M  END
