x0864_0_A_α-x0933_0_A_α
     RDKit          3D

 22 23  0  0  0  0  0  0  0  0999 V2000
    1.4530   12.0530   -6.6760 O   0  0  0  0  0  0  0  0  0  0  0  0
    0.4690   11.4310   -6.2830 C   0  0  0  0  0  0  0  0  0  0  0  0
   -0.1520   11.6880   -5.0620 N   0  0  0  0  0  0  0  0  0  0  0  0
   -0.0910   10.3290   -7.1020 C   0  0  0  0  0  0  0  0  0  0  0  0
    0.5910   12.4460   -4.0480 C   0  0  0  0  0  0  0  0  0  0  0  0
   -1.3690   11.1110   -4.7390 C   0  0  0  0  0  0  0  0  0  0  0  0
   -1.2290    9.7340   -6.7160 C   0  0  0  0  0  0  0  0  0  0  0  0
    0.5220   11.7860   -2.6600 C   0  0  0  0  0  0  0  0  0  0  0  0
   -1.9910    8.3330   -7.6830 Br  0  0  0  0  0  0  0  0  0  0  0  0
   -1.9090   10.1670   -5.5180 C   0  0  0  0  0  0  0  0  0  0  0  0
    0.4140   10.4310   -2.6320 O   0  0  0  0  0  0  0  0  0  0  0  0
    0.5640   12.4520   -1.5490 N   0  0  0  0  0  0  0  0  0  0  0  0
    0.6810   13.9140   -1.5660 C   0  0  0  0  0  0  0  0  0  0  0  0
   -0.4920   14.4580   -0.7490 C   0  0  0  0  0  0  0  0  0  0  0  0
   -1.7990   14.4790   -1.5620 C   0  0  0  0  0  0  0  0  0  0  0  0
   -3.0680   14.9290   -0.7950 C   0  0  1  0  0  0  0  0  0  0  0  0
   -4.3410   14.2220   -1.2590 C   0  0  0  0  0  0  0  0  0  0  0  0
   -2.8850   14.7500    0.7330 C   0  0  0  0  0  0  0  0  0  0  0  0
   -5.2170   13.9440   -0.1340 N   0  0  0  0  0  0  0  0  0  0  0  0
   -4.0550   15.1870    1.4790 N   0  0  0  0  0  0  0  0  0  0  0  0
   -5.2500   15.0710    0.7220 C   0  0  2  0  0  0  0  0  0  0  0  0
   -6.2010   14.7310    1.7180 N   0  0  0  0  0  0  0  0  0  0  0  0
  1  2  2  0
  2  3  1  0
  2  4  1  0
  3  5  1  0
  3  6  1  0
  4  7  2  0
  5  8  1  0
  7  9  1  0
  6 10  2  0
  7 10  1  0
  8 11  1  0
  8 12  2  3
 12 13  1  0
 13 14  1  0
 14 15  1  0
 16 15  1  6
 16 17  1  0
 16 18  1  0
 17 19  1  0
 18 20  1  0
 19 21  1  0
 20 21  1  0
 21 22  1  1
M  END
