x0864_0_A_α-x0628_0_A_α
     RDKit          3D

 14 14  0  0  0  0  0  0  0  0999 V2000
    1.5530   11.7740   -6.9830 O   0  0  0  0  0  0  0  0  0  0  0  0
    0.5170   11.3440   -6.5060 C   0  0  0  0  0  0  0  0  0  0  0  0
   -0.0870   11.8730   -5.3670 N   0  0  0  0  0  0  0  0  0  0  0  0
   -0.1060   10.1780   -7.1550 C   0  0  0  0  0  0  0  0  0  0  0  0
    0.9290   12.4910   -4.4760 C   0  0  2  0  0  0  0  0  0  0  0  0
   -1.3540   11.4110   -4.9560 C   0  0  0  0  0  0  0  0  0  0  0  0
   -1.2730    9.7200   -6.7090 C   0  0  0  0  0  0  0  0  0  0  0  0
    0.7600   12.1490   -3.0020 C   0  0  0  0  0  0  0  0  0  0  0  0
   -2.1010    8.2430   -7.4890 Br  0  0  0  0  0  0  0  0  0  0  0  0
   -2.1030   12.0460   -3.8160 C   0  0  0  0  0  0  0  0  0  0  0  0
    1.2390   13.9510   -4.7350 C   0  0  0  0  0  0  0  0  0  0  0  0
   -1.9250   10.3700   -5.6020 C   0  0  0  0  0  0  0  0  0  0  0  0
    0.2700   10.9120   -2.7970 O   0  0  0  0  0  0  0  0  0  0  0  0
    1.0260   12.8660   -2.0490 O   0  0  0  0  0  0  0  0  0  0  0  0
  1  2  2  0
  2  3  1  0
  2  4  1  0
  3  5  1  0
  3  6  1  0
  4  7  2  0
  5  8  1  0
  7  9  1  0
  6 10  1  0
  5 11  1  1
  6 12  2  0
  7 12  1  0
  8 13  1  0
  8 14  2  0
M  END
