x0864_0_A_α-x0574_0_A_α
     RDKit          3D

 26 28  0  0  0  0  0  0  0  0999 V2000
    1.5600   11.5390   -7.1750 O   0  0  0  0  0  0  0  0  0  0  0  0
    0.4870   11.1870   -6.7310 C   0  0  0  0  0  0  0  0  0  0  0  0
   -0.1220   11.7790   -5.6540 N   0  0  0  0  0  0  0  0  0  0  0  0
   -0.2120   10.0410   -7.3470 C   0  0  0  0  0  0  0  0  0  0  0  0
    0.7470   12.6720   -4.9150 C   0  0  0  0  0  0  0  0  0  0  0  0
   -1.2380   11.2250   -5.0440 C   0  0  0  0  0  0  0  0  0  0  0  0
   -1.3160    9.5580   -6.7770 C   0  0  0  0  0  0  0  0  0  0  0  0
    0.6080   12.4360   -3.4400 C   0  0  0  0  0  0  0  0  0  0  0  0
   -2.2320    8.1110   -7.5180 Br  0  0  0  0  0  0  0  0  0  0  0  0
   -1.8370   10.1470   -5.5670 C   0  0  0  0  0  0  0  0  0  0  0  0
    0.5600   11.1400   -3.0590 O   0  0  0  0  0  0  0  0  0  0  0  0
    0.5410   13.4390   -2.6780 N   0  0  0  0  0  0  0  0  0  0  0  0
    0.3860   13.1880   -1.2850 C   0  0  0  0  0  0  0  0  0  0  0  0
    0.7760   14.4220   -0.4630 C   0  0  0  0  0  0  0  0  0  0  0  0
    0.2000   14.3390    0.8900 N   0  0  0  0  0  0  0  0  0  0  0  0
   -1.0900   14.4780    0.7700 C   0  0  0  0  0  0  0  0  0  0  0  0
   -2.0450   14.4690    1.6650 N   0  0  0  0  0  0  0  0  0  0  0  0
   -1.5140   14.6980   -0.8550 S   0  0  0  0  0  0  0  0  0  0  0  0
   -3.2470   14.6530    0.9630 C   0  0  0  0  0  0  0  0  0  0  0  0
   -3.1230   14.8040   -0.4180 C   0  0  0  0  0  0  0  0  0  0  0  0
   -4.5510   14.7030    1.4720 C   0  0  0  0  0  0  0  0  0  0  0  0
   -4.1850   15.0080   -1.2850 C   0  0  0  0  0  0  0  0  0  0  0  0
   -5.6450   14.8960    0.6110 C   0  0  0  0  0  0  0  0  0  0  0  0
   -5.4510   15.0520   -0.7500 C   0  0  0  0  0  0  0  0  0  0  0  0
   -6.8790   14.9180    1.1960 O   0  0  0  0  0  0  0  0  0  0  0  0
   -6.9760   14.6790    2.5900 C   0  0  0  0  0  0  0  0  0  0  0  0
  1  2  2  0
  2  3  1  0
  2  4  1  0
  3  5  1  0
  3  6  1  0
  4  7  2  0
  5  8  1  0
  7  9  1  0
  6 10  2  0
  7 10  1  0
  8 11  1  0
  8 12  2  3
 12 13  1  0
 13 14  1  0
 14 15  1  0
 15 16  1  0
 16 17  2  0
 16 18  1  0
 17 19  1  0
 18 20  1  0
 19 20  2  0
 19 21  1  0
 20 22  1  0
 21 23  2  0
 22 24  2  0
 23 24  1  0
 23 25  1  0
 25 26  1  0
M  END
