x0864_0_A_α-x0711_0_A_α
     RDKit          3D

 24 25  0  0  0  0  0  0  0  0999 V2000
    1.5040   12.0010   -6.5840 O   0  0  0  0  0  0  0  0  0  0  0  0
    0.4220   11.5000   -6.2810 C   0  0  0  0  0  0  0  0  0  0  0  0
   -0.3830   11.9400   -5.2240 N   0  0  0  0  0  0  0  0  0  0  0  0
   -0.0720   10.3470   -7.0730 C   0  0  0  0  0  0  0  0  0  0  0  0
    0.1910   12.8950   -4.2360 C   0  0  2  0  0  0  0  0  0  0  0  0
   -1.5300   11.2410   -4.8700 C   0  0  0  0  0  0  0  0  0  0  0  0
   -1.2040    9.7270   -6.7140 C   0  0  0  0  0  0  0  0  0  0  0  0
    0.6900   12.2810   -2.9340 C   0  0  0  0  0  0  0  0  0  0  0  0
   -1.8790    8.2670   -7.6610 Br  0  0  0  0  0  0  0  0  0  0  0  0
   -0.8700   14.3870   -4.0390 S   0  0  0  0  0  0  0  0  0  0  0  0
   -1.9450   10.1770   -5.5660 C   0  0  0  0  0  0  0  0  0  0  0  0
    0.4320   10.9540   -2.8010 O   0  0  0  0  0  0  0  0  0  0  0  0
    1.2810   12.8360   -2.0290 O   0  0  0  0  0  0  0  0  0  0  0  0
   -1.2620   14.5580   -2.3700 N   0  0  0  0  0  0  0  0  0  0  0  0
   -0.0510   15.5470   -4.4880 O   0  0  0  0  0  0  0  0  0  0  0  0
   -2.5720   14.6350   -1.8010 C   0  0  0  0  0  0  0  0  0  0  0  0
   -3.7610   14.9670   -2.4820 C   0  0  0  0  0  0  0  0  0  0  0  0
   -2.6790   14.3510   -0.4260 C   0  0  0  0  0  0  0  0  0  0  0  0
   -5.0020   15.0000   -1.8130 C   0  0  0  0  0  0  0  0  0  0  0  0
   -3.9040   14.3810    0.2460 C   0  0  0  0  0  0  0  0  0  0  0  0
   -5.0730   14.7010   -0.4440 C   0  0  0  0  0  0  0  0  0  0  0  0
   -6.3850   14.7210    0.2580 C   0  0  0  0  0  0  0  0  0  0  0  0
   -6.3410   14.6660    1.6230 N   0  0  0  0  0  0  0  0  0  0  0  0
   -7.4540   14.7790   -0.3340 O   0  0  0  0  0  0  0  0  0  0  0  0
  1  2  2  0
  2  3  1  0
  2  4  1  0
  3  5  1  0
  3  6  1  0
  4  7  2  0
  5  8  1  1
  7  9  1  0
  5 10  1  0
  6 11  2  0
  7 11  1  0
  8 12  1  0
  8 13  2  0
 10 14  1  1
 10 15  2  0
 14 16  1  0
 16 17  2  0
 16 18  1  0
 17 19  1  0
 18 20  2  0
 19 21  2  0
 20 21  1  0
 21 22  1  0
 22 23  1  0
 22 24  2  0
M  END
