x0864_0_A-x0685_0_A
     RDKit          3D

 26 27  0  0  0  0  0  0  0  0999 V2000
    1.3240   11.9920   -6.6070 O   0  0  0  0  0  0  0  0  0  0  0  0
    0.3260   11.3370   -6.3140 C   0  0  0  0  0  0  0  0  0  0  0  0
   -0.4740   11.5350   -5.1820 N   0  0  0  0  0  0  0  0  0  0  0  0
   -0.0830   10.2200   -7.2040 C   0  0  0  0  0  0  0  0  0  0  0  0
   -0.1960   12.6280   -4.2520 C   0  0  1  0  0  0  0  0  0  0  0  0
   -1.6470   10.8390   -4.9910 C   0  0  0  0  0  0  0  0  0  0  0  0
   -1.2090    9.5370   -6.9430 C   0  0  0  0  0  0  0  0  0  0  0  0
    0.7800   12.4050   -3.1030 C   0  0  0  0  0  0  0  0  0  0  0  0
   -1.7920    8.1200   -8.0020 Br  0  0  0  0  0  0  0  0  0  0  0  0
   -0.3410   14.0180   -4.8840 C   0  0  0  0  0  0  0  0  0  0  0  0
   -2.0280    9.8760   -5.8150 C   0  0  0  0  0  0  0  0  0  0  0  0
    0.5970   11.2270   -2.4810 O   0  0  0  0  0  0  0  0  0  0  0  0
    1.6430   13.1660   -2.7170 O   0  0  0  0  0  0  0  0  0  0  0  0
   -1.8020   14.3660   -5.2260 C   0  0  0  0  0  0  0  0  0  0  0  0
   -2.3620   15.6430   -4.6200 C   0  0  0  0  0  0  0  0  0  0  0  0
   -3.0360   15.3780   -3.3450 C   0  0  0  0  0  0  0  0  0  0  0  0
   -3.5560   15.2290   -2.2800 C   0  0  0  0  0  0  0  0  0  0  0  0
   -4.1760   15.1400   -1.0060 C   0  0  0  0  0  0  0  0  0  0  0  0
   -3.4410   15.1680    0.1720 C   0  0  0  0  0  0  0  0  0  0  0  0
   -5.5490   15.0280   -0.9160 C   0  0  0  0  0  0  0  0  0  0  0  0
   -4.1140   15.0960    1.3880 C   0  0  0  0  0  0  0  0  0  0  0  0
   -6.2230   14.9520    0.2500 N   0  0  0  0  0  0  0  0  0  0  0  0
   -5.5030   14.9960    1.3860 C   0  0  0  0  0  0  0  0  0  0  0  0
   -6.2610   14.9490    2.5470 N   0  0  0  0  0  0  0  0  0  0  0  0
   -7.6940   14.7450    2.4740 C   0  0  0  0  0  0  0  0  0  0  0  0
   -8.0760   13.3630    2.9770 C   0  0  0  0  0  0  0  0  0  0  0  0
  1  2  2  0
  2  3  1  0
  2  4  1  0
  3  5  1  0
  3  6  1  0
  4  7  2  0
  5  8  1  0
  7  9  1  0
  5 10  1  6
  6 11  2  0
  7 11  1  0
  8 12  1  0
  8 13  2  0
 10 14  1  0
 14 15  1  0
 15 16  1  0
 16 17  3  0
 17 18  1  0
 18 19  2  0
 18 20  1  0
 19 21  1  0
 20 22  2  0
 21 23  2  0
 22 23  1  0
 23 24  1  0
 24 25  1  0
 25 26  1  0
M  END
