x0864_0_A_α-x0471_0_A_α
     RDKit          3D

 31 33  0  0  0  0  0  0  0  0999 V2000
    1.4480   12.0830   -6.5710 O   0  0  0  0  0  0  0  0  0  0  0  0
    0.4420   11.4920   -6.2060 C   0  0  0  0  0  0  0  0  0  0  0  0
   -0.2740   11.7930   -5.0390 N   0  0  0  0  0  0  0  0  0  0  0  0
   -0.0720   10.3620   -7.0230 C   0  0  0  0  0  0  0  0  0  0  0  0
    0.4100   12.5210   -3.9530 C   0  0  0  0  0  0  0  0  0  0  0  0
   -1.4840   11.1770   -4.7610 C   0  0  0  0  0  0  0  0  0  0  0  0
   -1.2170    9.7520   -6.6870 C   0  0  0  0  0  0  0  0  0  0  0  0
    0.4080   11.7740   -2.6110 C   0  0  0  0  0  0  0  0  0  0  0  0
   -1.9070    8.3240   -7.6640 Br  0  0  0  0  0  0  0  0  0  0  0  0
   -1.9610   10.1950   -5.5330 C   0  0  0  0  0  0  0  0  0  0  0  0
    0.5140   10.4270   -2.6560 O   0  0  0  0  0  0  0  0  0  0  0  0
    0.3000   12.3210   -1.4490 N   0  0  0  0  0  0  0  0  0  0  0  0
    0.1280   13.7400   -1.1500 C   0  0  0  0  0  0  0  0  0  0  0  0
   -0.6340   13.6960    0.1810 C   0  0  0  0  0  0  0  0  0  0  0  0
   -1.4210   14.9120    0.6520 C   0  0  0  0  0  0  0  0  0  0  0  0
   -2.8970   14.9600    0.2240 C   0  0  0  0  0  0  0  0  0  0  0  0
   -3.3150   15.2290   -1.1070 C   0  0  0  0  0  0  0  0  0  0  0  0
   -3.8850   14.7160    1.1900 C   0  0  0  0  0  0  0  0  0  0  0  0
   -5.2380   14.7350    0.8270 C   0  0  0  0  0  0  0  0  0  0  0  0
   -4.6700   15.2580   -1.4850 C   0  0  0  0  0  0  0  0  0  0  0  0
   -6.3480   14.5170    1.6010 N   0  0  0  0  0  0  0  0  0  0  0  0
   -5.6050   14.9990   -0.4850 C   0  0  0  0  0  0  0  0  0  0  0  0
   -6.9790   14.9310   -0.4720 N   0  0  0  0  0  0  0  0  0  0  0  0
   -7.3870   14.6350    0.8100 C   0  0  0  0  0  0  0  0  0  0  0  0
   -8.8100   14.4810    1.2160 C   0  0  0  0  0  0  0  0  0  0  0  0
   -8.9050   14.1320    2.6230 N   0  0  0  0  0  0  0  0  0  0  0  0
   -8.9890   14.9730    3.7020 C   0  0  0  0  0  0  0  0  0  0  0  0
   -9.3020   16.1460    3.4870 O   0  0  0  0  0  0  0  0  0  0  0  0
   -8.7130   14.4380    5.1050 C   0  0  0  0  0  0  0  0  0  0  0  0
   -9.9480   13.7010    5.6260 C   0  0  0  0  0  0  0  0  0  0  0  0
   -8.3400   15.5830    6.0500 C   0  0  0  0  0  0  0  0  0  0  0  0
  1  2  2  0
  2  3  1  0
  2  4  1  0
  3  5  1  0
  3  6  1  0
  4  7  2  0
  5  8  1  0
  7  9  1  0
  6 10  2  0
  7 10  1  0
  8 11  1  0
  8 12  2  3
 12 13  1  0
 13 14  1  0
 14 15  1  0
 15 16  1  0
 16 17  2  0
 16 18  1  0
 18 19  2  0
 17 20  1  0
 19 21  1  0
 19 22  1  0
 20 22  2  0
 22 23  1  0
 21 24  2  0
 23 24  1  0
 24 25  1  0
 25 26  1  0
 26 27  1  0
 27 28  2  0
 27 29  1  0
 29 30  1  0
 29 31  1  0
M  END
