x0864_0_A-x0849_0_A
     RDKit          3D

 24 26  0  0  0  0  0  0  0  0999 V2000
    1.5660   11.7080   -6.9870 O   0  0  0  0  0  0  0  0  0  0  0  0
    0.5100   11.2690   -6.5660 C   0  0  0  0  0  0  0  0  0  0  0  0
   -0.1330   11.7580   -5.4480 N   0  0  0  0  0  0  0  0  0  0  0  0
   -0.1370   10.1320   -7.2530 C   0  0  0  0  0  0  0  0  0  0  0  0
    0.5080   12.8880   -4.7960 C   0  0  0  0  0  0  0  0  0  0  0  0
   -1.2900   11.1970   -4.9460 C   0  0  0  0  0  0  0  0  0  0  0  0
   -1.2670    9.6100   -6.7580 C   0  0  0  0  0  0  0  0  0  0  0  0
    0.6800   12.7080   -3.3020 C   0  0  0  0  0  0  0  0  0  0  0  0
   -2.1200    8.1730   -7.5820 Br  0  0  0  0  0  0  0  0  0  0  0  0
   -1.8640   10.1540   -5.5570 C   0  0  0  0  0  0  0  0  0  0  0  0
    0.6640   11.4230   -2.8640 O   0  0  0  0  0  0  0  0  0  0  0  0
    0.8240   13.7500   -2.5710 N   0  0  0  0  0  0  0  0  0  0  0  0
    0.9840   13.6210   -1.1540 C   0  0  0  0  0  0  0  0  0  0  0  0
   -0.2010   14.0530   -0.3580 C   0  0  0  0  0  0  0  0  0  0  0  0
   -0.2590   14.0940    1.0340 C   0  0  0  0  0  0  0  0  0  0  0  0
   -1.3390   14.4220   -1.0210 C   0  0  0  0  0  0  0  0  0  0  0  0
   -2.4760   14.7980   -0.3080 C   0  0  0  0  0  0  0  0  0  0  0  0
   -1.3290   14.4600    1.7440 N   0  0  0  0  0  0  0  0  0  0  0  0
   -2.4170   14.7970    1.0830 C   0  0  0  0  0  0  0  0  0  0  0  0
   -3.6740   15.1720   -0.9160 C   0  0  0  0  0  0  0  0  0  0  0  0
   -3.8430   15.1940   -2.8040 Br  0  0  0  0  0  0  0  0  0  0  0  0
   -3.4590   15.1310    1.8080 N   0  0  0  0  0  0  0  0  0  0  0  0
   -4.7660   15.5280   -0.1490 C   0  0  0  0  0  0  0  0  0  0  0  0
   -4.5940   15.4830    1.2110 C   0  0  0  0  0  0  0  0  0  0  0  0
  1  2  2  0
  2  3  1  0
  2  4  1  0
  3  5  1  0
  3  6  1  0
  4  7  2  0
  5  8  1  0
  7  9  1  0
  6 10  2  0
  7 10  1  0
  8 11  1  0
  8 12  2  3
 12 13  1  0
 13 14  1  0
 14 15  2  0
 14 16  1  0
 16 17  2  0
 15 18  1  0
 17 19  1  0
 18 19  2  0
 17 20  1  0
 20 21  1  0
 19 22  1  0
 20 23  2  0
 22 24  2  0
 23 24  1  0
M  END
