x0864_0_A-x0689_0_A
     RDKit          3D

 21 22  0  0  0  0  0  0  0  0999 V2000
    1.7190   11.5190   -6.8490 O   0  0  0  0  0  0  0  0  0  0  0  0
    0.6410   11.1060   -6.4480 C   0  0  0  0  0  0  0  0  0  0  0  0
   -0.0210   11.6200   -5.3530 N   0  0  0  0  0  0  0  0  0  0  0  0
   -0.0200    9.9850   -7.1480 C   0  0  0  0  0  0  0  0  0  0  0  0
    0.5550   12.8150   -4.7680 C   0  0  0  0  0  0  0  0  0  0  0  0
   -1.3040   11.2250   -5.0030 C   0  0  0  0  0  0  0  0  0  0  0  0
   -1.2400    9.5840   -6.7620 C   0  0  0  0  0  0  0  0  0  0  0  0
    0.6710   12.6460   -3.2730 C   0  0  0  0  0  0  0  0  0  0  0  0
   -2.1190    8.1730   -7.6060 Br  0  0  0  0  0  0  0  0  0  0  0  0
   -1.9160   10.2410   -5.6680 C   0  0  0  0  0  0  0  0  0  0  0  0
    0.6960   11.3590   -2.8480 O   0  0  0  0  0  0  0  0  0  0  0  0
    0.7350   13.6930   -2.5370 N   0  0  0  0  0  0  0  0  0  0  0  0
    0.8380   13.6170   -1.1080 C   0  0  0  0  0  0  0  0  0  0  0  0
   -0.3470   14.0750   -0.3360 C   0  0  0  0  0  0  0  0  0  0  0  0
   -1.5020   14.4540   -0.9520 C   0  0  0  0  0  0  0  0  0  0  0  0
   -0.3860   14.1400    1.0450 C   0  0  0  0  0  0  0  0  0  0  0  0
   -2.5910   14.8500   -0.2910 N   0  0  0  0  0  0  0  0  0  0  0  0
   -1.4560   14.5350    1.7560 N   0  0  0  0  0  0  0  0  0  0  0  0
   -2.5320   14.8750    1.0430 C   0  0  0  0  0  0  0  0  0  0  0  0
   -3.6420   15.2800    1.7440 N   0  0  0  0  0  0  0  0  0  0  0  0
   -4.7900   15.3530    0.8830 C   0  0  0  0  0  0  0  0  0  0  0  0
  1  2  2  0
  2  3  1  0
  2  4  1  0
  3  5  1  0
  3  6  1  0
  4  7  2  0
  5  8  1  0
  7  9  1  0
  6 10  2  0
  7 10  1  0
  8 11  1  0
  8 12  2  3
 12 13  1  0
 13 14  1  0
 14 15  2  0
 14 16  1  0
 15 17  1  0
 16 18  2  0
 17 19  2  0
 18 19  1  0
 19 20  1  0
 20 21  1  0
M  END
