x0864_0_A_α-x0855_0_A_α
     RDKit          3D

 12 12  0  0  0  0  0  0  0  0999 V2000
    1.5630   11.8130   -6.8730 O   0  0  0  0  0  0  0  0  0  0  0  0
    0.5000   11.3500   -6.4900 C   0  0  0  0  0  0  0  0  0  0  0  0
   -0.1900   11.8170   -5.3830 N   0  0  0  0  0  0  0  0  0  0  0  0
   -0.1020   10.2070   -7.2150 C   0  0  0  0  0  0  0  0  0  0  0  0
    0.5320   12.7670   -4.5370 C   0  0  0  0  0  0  0  0  0  0  0  0
   -1.3490   11.2100   -4.9290 C   0  0  0  0  0  0  0  0  0  0  0  0
   -1.2330    9.6530   -6.7640 C   0  0  0  0  0  0  0  0  0  0  0  0
    0.7250   12.3160   -3.0970 C   0  0  0  0  0  0  0  0  0  0  0  0
   -2.0330    8.2120   -7.6330 Br  0  0  0  0  0  0  0  0  0  0  0  0
   -1.8740   10.1630   -5.5760 C   0  0  0  0  0  0  0  0  0  0  0  0
    0.4530   11.0260   -2.8270 O   0  0  0  0  0  0  0  0  0  0  0  0
    1.1100   13.0370   -2.1930 O   0  0  0  0  0  0  0  0  0  0  0  0
  1  2  2  0
  2  3  1  0
  2  4  1  0
  3  5  1  0
  3  6  1  0
  4  7  2  0
  5  8  1  0
  7  9  1  0
  6 10  2  0
  7 10  1  0
  8 11  1  0
  8 12  2  0
M  END
