x0864_0_A_α-x0900_1_A_α
     RDKit          3D

 18 19  0  0  0  0  0  0  0  0999 V2000
    0.5220   12.6650   -6.4370 O   0  0  0  0  0  0  0  0  0  0  0  0
   -0.2870   11.9000   -5.9280 C   0  0  0  0  0  0  0  0  0  0  0  0
   -0.8310   12.0170   -4.6420 N   0  0  0  0  0  0  0  0  0  0  0  0
   -0.7540   10.7070   -6.6800 C   0  0  0  0  0  0  0  0  0  0  0  0
   -0.0070   11.5770   -3.5220 C   0  0  0  0  0  0  0  0  0  0  0  0
   -2.1300   11.6120   -4.4600 C   0  0  0  0  0  0  0  0  0  0  0  0
   -1.9010   10.0990   -6.3100 C   0  0  0  0  0  0  0  0  0  0  0  0
    1.1240   12.4920   -3.1360 C   0  0  0  0  0  0  0  0  0  0  0  0
   -2.5080    8.9620   -6.7910 O   0  0  0  0  0  0  0  0  0  0  0  0
   -2.6640   10.6790   -5.2420 C   0  0  0  0  0  0  0  0  0  0  0  0
    2.3090   11.9270   -3.4200 O   0  0  0  0  0  0  0  0  0  0  0  0
    1.0660   13.5890   -2.6190 O   0  0  0  0  0  0  0  0  0  0  0  0
   -2.2870    8.4880   -8.1110 C   0  0  1  0  0  0  0  0  0  0  0  0
   -2.0240    9.7210   -8.9670 C   0  0  0  0  0  0  0  0  0  0  0  0
   -1.0270    7.6250   -8.2280 C   0  0  0  0  0  0  0  0  0  0  0  0
   -0.0430    8.5160   -8.7510 N   0  0  0  0  0  0  0  0  0  0  0  0
   -0.6300    9.5130   -9.4810 C   0  0  0  0  0  0  0  0  0  0  0  0
   -0.1090   10.1160  -10.3930 O   0  0  0  0  0  0  0  0  0  0  0  0
  1  2  2  0
  2  3  1  0
  2  4  1  0
  3  5  1  0
  3  6  1  0
  4  7  2  0
  5  8  1  0
  7  9  1  0
  6 10  2  0
  7 10  1  0
  8 11  1  0
  8 12  2  0
 13  9  1  1
 13 14  1  0
 13 15  1  0
 15 16  1  0
 14 17  1  0
 16 17  1  0
 17 18  2  0
M  END
