x0864_0_A_α-x0849_0_A_α
     RDKit          3D

 24 26  0  0  0  0  0  0  0  0999 V2000
    1.5620   11.7150   -6.9880 O   0  0  0  0  0  0  0  0  0  0  0  0
    0.5090   11.2720   -6.5630 C   0  0  0  0  0  0  0  0  0  0  0  0
   -0.1320   11.7570   -5.4430 N   0  0  0  0  0  0  0  0  0  0  0  0
   -0.1380   10.1340   -7.2500 C   0  0  0  0  0  0  0  0  0  0  0  0
    0.5020   12.8910   -4.7900 C   0  0  0  0  0  0  0  0  0  0  0  0
   -1.2910   11.1970   -4.9420 C   0  0  0  0  0  0  0  0  0  0  0  0
   -1.2670    9.6140   -6.7580 C   0  0  0  0  0  0  0  0  0  0  0  0
    0.6770   12.7100   -3.3010 C   0  0  0  0  0  0  0  0  0  0  0  0
   -2.1190    8.1750   -7.5820 Br  0  0  0  0  0  0  0  0  0  0  0  0
   -1.8650   10.1560   -5.5570 C   0  0  0  0  0  0  0  0  0  0  0  0
    0.6600   11.4260   -2.8600 O   0  0  0  0  0  0  0  0  0  0  0  0
    0.8210   13.7530   -2.5690 N   0  0  0  0  0  0  0  0  0  0  0  0
    0.9810   13.6320   -1.1520 C   0  0  0  0  0  0  0  0  0  0  0  0
   -0.2060   14.0590   -0.3530 C   0  0  0  0  0  0  0  0  0  0  0  0
   -0.2620   14.0950    1.0390 C   0  0  0  0  0  0  0  0  0  0  0  0
   -1.3470   14.4280   -1.0090 C   0  0  0  0  0  0  0  0  0  0  0  0
   -2.4830   14.7980   -0.2910 C   0  0  0  0  0  0  0  0  0  0  0  0
   -1.3320   14.4560    1.7550 N   0  0  0  0  0  0  0  0  0  0  0  0
   -2.4230   14.7920    1.1020 C   0  0  0  0  0  0  0  0  0  0  0  0
   -3.6830   15.1700   -0.8920 C   0  0  0  0  0  0  0  0  0  0  0  0
   -3.8560   15.1970   -2.7800 Br  0  0  0  0  0  0  0  0  0  0  0  0
   -3.4630   15.1200    1.8340 N   0  0  0  0  0  0  0  0  0  0  0  0
   -4.7760   15.5190   -0.1190 C   0  0  0  0  0  0  0  0  0  0  0  0
   -4.6010   15.4690    1.2410 C   0  0  0  0  0  0  0  0  0  0  0  0
  1  2  2  0
  2  3  1  0
  2  4  1  0
  3  5  1  0
  3  6  1  0
  4  7  2  0
  5  8  1  0
  7  9  1  0
  6 10  2  0
  7 10  1  0
  8 11  1  0
  8 12  2  3
 12 13  1  0
 13 14  1  0
 14 15  2  0
 14 16  1  0
 16 17  2  0
 15 18  1  0
 17 19  1  0
 18 19  2  0
 17 20  1  0
 20 21  1  0
 19 22  1  0
 20 23  2  0
 22 24  2  0
 23 24  1  0
M  END
