x0864_0_A-x0524_0_A
     RDKit          3D

 28 30  0  0  0  0  0  0  0  0999 V2000
    1.6550   12.0490   -6.5800 O   0  0  0  0  0  0  0  0  0  0  0  0
    0.5750   11.6200   -6.1920 C   0  0  0  0  0  0  0  0  0  0  0  0
   -0.1160   12.1170   -5.1000 N   0  0  0  0  0  0  0  0  0  0  0  0
   -0.0650   10.5000   -6.8860 C   0  0  0  0  0  0  0  0  0  0  0  0
    0.6660   12.9890   -4.2490 C   0  0  0  0  0  0  0  0  0  0  0  0
   -1.2410   11.4880   -4.5780 C   0  0  0  0  0  0  0  0  0  0  0  0
   -1.1790    9.9560   -6.3840 C   0  0  0  0  0  0  0  0  0  0  0  0
    0.7880   12.4080   -2.8540 C   0  0  0  0  0  0  0  0  0  0  0  0
   -1.8070    8.9230   -7.0250 O   0  0  0  0  0  0  0  0  0  0  0  0
   -1.7820   10.4280   -5.1810 C   0  0  0  0  0  0  0  0  0  0  0  0
    0.5500   11.0780   -2.8080 O   0  0  0  0  0  0  0  0  0  0  0  0
    1.0670   13.0060   -1.8360 O   0  0  0  0  0  0  0  0  0  0  0  0
   -1.3990    9.0350   -8.2840 C   0  0  0  0  0  0  0  0  0  0  0  0
   -0.4740    8.0800   -8.5080 N   0  0  0  0  0  0  0  0  0  0  0  0
   -1.7770    9.9040   -9.0350 O   0  0  0  0  0  0  0  0  0  0  0  0
    0.6340    8.2130   -9.3370 C   0  0  0  0  0  0  0  0  0  0  0  0
    1.8340    7.5520   -9.1410 C   0  0  0  0  0  0  0  0  0  0  0  0
    0.4920    9.0700  -10.4270 C   0  0  0  0  0  0  0  0  0  0  0  0
    2.8860    7.7390  -10.0380 C   0  0  0  0  0  0  0  0  0  0  0  0
    1.5450    9.2540  -11.3230 C   0  0  0  0  0  0  0  0  0  0  0  0
    2.7530    8.5860  -11.1410 C   0  0  0  0  0  0  0  0  0  0  0  0
    3.8370    8.7170  -12.0110 N   0  0  0  0  0  0  0  0  0  0  0  0
    4.0790    9.5600  -13.0970 C   0  0  0  0  0  0  0  0  0  0  0  0
    3.2800   10.6980  -13.2830 C   0  0  0  0  0  0  0  0  0  0  0  0
    5.1000    9.3120  -14.0130 C   0  0  0  0  0  0  0  0  0  0  0  0
    3.4990   11.5610  -14.3530 C   0  0  0  0  0  0  0  0  0  0  0  0
    5.3230   10.1730  -15.0860 C   0  0  0  0  0  0  0  0  0  0  0  0
    4.5230   11.2990  -15.2560 C   0  0  0  0  0  0  0  0  0  0  0  0
  1  2  2  0
  2  3  1  0
  2  4  1  0
  3  5  1  0
  3  6  1  0
  4  7  2  0
  5  8  1  0
  7  9  1  0
  6 10  2  0
  7 10  1  0
  8 11  1  0
  8 12  2  0
  9 13  1  0
 13 14  1  0
 13 15  2  0
 14 16  1  0
 16 17  2  0
 16 18  1  0
 17 19  1  0
 18 20  2  0
 19 21  2  0
 20 21  1  0
 21 22  1  0
 22 23  1  0
 23 24  2  0
 23 25  1  0
 24 26  1  0
 25 27  2  0
 26 28  2  0
 27 28  1  0
M  END
