x0864_0_A-x0967_0_A
     RDKit          3D

 25 27  0  0  0  0  0  0  0  0999 V2000
    1.4640   12.0660   -6.6470 O   0  0  0  0  0  0  0  0  0  0  0  0
    0.4700   11.4500   -6.2740 C   0  0  0  0  0  0  0  0  0  0  0  0
   -0.2040   11.7390   -5.0840 N   0  0  0  0  0  0  0  0  0  0  0  0
   -0.0560   10.3260   -7.0870 C   0  0  0  0  0  0  0  0  0  0  0  0
    0.5410   12.4140   -4.0080 C   0  0  0  0  0  0  0  0  0  0  0  0
   -1.4220   11.1530   -4.7940 C   0  0  0  0  0  0  0  0  0  0  0  0
   -1.2020    9.7310   -6.7320 C   0  0  0  0  0  0  0  0  0  0  0  0
    0.4990   11.6210   -2.6930 C   0  0  0  0  0  0  0  0  0  0  0  0
   -1.9250    8.3050   -7.6940 Br  0  0  0  0  0  0  0  0  0  0  0  0
   -1.9270   10.1850   -5.5670 C   0  0  0  0  0  0  0  0  0  0  0  0
    0.5480   10.2760   -2.7710 O   0  0  0  0  0  0  0  0  0  0  0  0
    0.4100   12.1280   -1.5180 N   0  0  0  0  0  0  0  0  0  0  0  0
    0.3200   13.5360   -1.2140 C   0  0  0  0  0  0  0  0  0  0  0  0
   -0.6430   13.6240   -0.0300 C   0  0  0  0  0  0  0  0  0  0  0  0
   -1.3540   14.9450   -0.0600 C   0  0  0  0  0  0  0  0  0  0  0  0
   -2.8630   14.8790   -0.2100 C   0  0  0  0  0  0  0  0  0  0  0  0
   -3.4810   14.8630   -1.4600 C   0  0  0  0  0  0  0  0  0  0  0  0
   -3.7120   14.8360    0.8910 C   0  0  0  0  0  0  0  0  0  0  0  0
   -5.1000   14.7690    0.6980 C   0  0  0  0  0  0  0  0  0  0  0  0
   -4.8190   14.8010   -1.6630 N   0  0  0  0  0  0  0  0  0  0  0  0
   -5.6280   14.7500   -0.6060 C   0  0  0  0  0  0  0  0  0  0  0  0
   -5.9870   14.7180    1.7800 C   0  0  0  0  0  0  0  0  0  0  0  0
   -6.9490   14.6790   -0.8110 N   0  0  0  0  0  0  0  0  0  0  0  0
   -7.3510   14.6400    1.5620 C   0  0  0  0  0  0  0  0  0  0  0  0
   -7.7830   14.6240    0.2520 C   0  0  0  0  0  0  0  0  0  0  0  0
  1  2  2  0
  2  3  1  0
  2  4  1  0
  3  5  1  0
  3  6  1  0
  4  7  2  0
  5  8  1  0
  7  9  1  0
  6 10  2  0
  7 10  1  0
  8 11  1  0
  8 12  2  3
 12 13  1  0
 13 14  1  0
 14 15  1  0
 15 16  1  0
 16 17  2  0
 16 18  1  0
 18 19  2  0
 17 20  1  0
 19 21  1  0
 20 21  2  0
 19 22  1  0
 21 23  1  0
 22 24  2  0
 23 25  2  0
 24 25  1  0
M  END
