x0864_0_A-x0837_0_A
     RDKit          3D

 23 24  0  0  0  0  0  0  0  0999 V2000
    1.5500   11.7530   -6.9440 O   0  0  0  0  0  0  0  0  0  0  0  0
    0.4760   11.2970   -6.5120 C   0  0  0  0  0  0  0  0  0  0  0  0
   -0.0440   11.8390   -5.4240 N   0  0  0  0  0  0  0  0  0  0  0  0
   -0.0810   10.2370   -7.1900 C   0  0  0  0  0  0  0  0  0  0  0  0
    0.8100   12.6580   -4.6040 C   0  0  2  0  0  0  0  0  0  0  0  0
   -1.1800   11.3220   -4.9510 C   0  0  0  0  0  0  0  0  0  0  0  0
   -1.2440    9.6880   -6.7170 C   0  0  0  0  0  0  0  0  0  0  0  0
    0.8030   12.1620   -3.1980 C   0  0  0  0  0  0  0  0  0  0  0  0
   -2.0530    8.2090   -7.6230 Br  0  0  0  0  0  0  0  0  0  0  0  0
    0.4920   14.0940   -4.6110 C   0  0  0  0  0  0  0  0  0  0  0  0
   -1.8110   10.2390   -5.5850 C   0  0  0  0  0  0  0  0  0  0  0  0
    0.3740   10.8780   -2.9000 O   0  0  0  0  0  0  0  0  0  0  0  0
    1.1860   12.8860   -2.2730 O   0  0  0  0  0  0  0  0  0  0  0  0
   -0.9290   14.4970   -4.6780 C   0  0  0  0  0  0  0  0  0  0  0  0
   -1.6080   15.1460   -3.5530 C   0  0  0  0  0  0  0  0  0  0  0  0
   -3.2960   14.3050   -2.6840 I   0  0  0  0  0  0  0  0  0  0  0  0
   -4.1810   15.3820   -1.0870 C   0  0  2  0  0  0  0  0  0  0  0  0
   -3.4910   15.2500    0.1920 C   0  0  0  0  0  0  0  0  0  0  0  0
   -5.6470   15.1340   -1.1220 C   0  0  0  0  0  0  0  0  0  0  0  0
   -4.1550   15.0400    1.2900 C   0  0  0  0  0  0  0  0  0  0  0  0
   -6.3080   14.8870    0.1770 C   0  0  0  0  0  0  0  0  0  0  0  0
   -7.5310   14.6810    0.1900 O   0  0  0  0  0  0  0  0  0  0  0  0
   -5.5590   14.9040    1.3680 N   0  0  0  0  0  0  0  0  0  0  0  0
  1  2  2  0
  2  3  1  0
  2  4  1  0
  3  5  1  0
  3  6  1  0
  4  7  2  0
  5  8  1  0
  7  9  1  0
  5 10  1  1
  6 11  2  0
  7 11  1  0
  8 12  1  0
  8 13  2  0
 10 14  1  0
 14 15  1  0
 15 16  1  0
 17 16  1  6
 17 18  1  0
 17 19  1  0
 18 20  2  0
 19 21  1  0
 21 22  2  0
 20 23  1  0
 21 23  1  0
M  END
