x0864_0_A-x1018_0_A
     RDKit          3D

 25 27  0  0  0  0  0  0  0  0999 V2000
    1.4740   12.0520   -6.6430 O   0  0  0  0  0  0  0  0  0  0  0  0
    0.4900   11.4300   -6.2570 C   0  0  0  0  0  0  0  0  0  0  0  0
   -0.1520   11.6910   -5.0490 N   0  0  0  0  0  0  0  0  0  0  0  0
   -0.0600   10.3240   -7.0750 C   0  0  0  0  0  0  0  0  0  0  0  0
    0.6030   12.4030   -4.0100 C   0  0  0  0  0  0  0  0  0  0  0  0
   -1.3710   11.1210   -4.7370 C   0  0  0  0  0  0  0  0  0  0  0  0
   -1.2040    9.7360   -6.7030 C   0  0  0  0  0  0  0  0  0  0  0  0
    0.5120   11.6940   -2.6450 C   0  0  0  0  0  0  0  0  0  0  0  0
   -1.9540    8.3320   -7.6750 Br  0  0  0  0  0  0  0  0  0  0  0  0
   -1.9010   10.1750   -5.5190 C   0  0  0  0  0  0  0  0  0  0  0  0
    0.4200   10.3450   -2.6530 O   0  0  0  0  0  0  0  0  0  0  0  0
    0.5170   12.3230   -1.5180 N   0  0  0  0  0  0  0  0  0  0  0  0
    0.6040   13.7690   -1.4890 C   0  0  0  0  0  0  0  0  0  0  0  0
   -0.7940   14.3040   -1.7690 C   0  0  0  0  0  0  0  0  0  0  0  0
   -1.8570   14.2400   -0.6480 C   0  0  0  0  0  0  0  0  0  0  0  0
   -2.9550   15.1400   -1.0120 N   0  0  0  0  0  0  0  0  0  0  0  0
   -3.4470   14.8400   -2.3550 N   0  0  0  0  0  0  0  0  0  0  0  0
   -4.1410   15.2970   -0.1430 C   0  0  1  0  0  0  0  0  0  0  0  0
   -4.8580   15.0850   -2.3780 N   0  0  0  0  0  0  0  0  0  0  0  0
   -5.2160   14.9540   -1.0530 N   0  0  0  0  0  0  0  0  0  0  0  0
   -4.3330   14.4600    1.0720 C   0  0  0  0  0  0  0  0  0  0  0  0
   -6.5240   14.9250   -0.7010 N   0  0  0  0  0  0  0  0  0  0  0  0
   -5.5810   14.0640    1.4050 C   0  0  0  0  0  0  0  0  0  0  0  0
   -6.6920   14.4960    0.5070 C   0  0  0  0  0  0  0  0  0  0  0  0
   -8.3270   14.4410    1.0670 Cl  0  0  0  0  0  0  0  0  0  0  0  0
  1  2  2  0
  2  3  1  0
  2  4  1  0
  3  5  1  0
  3  6  1  0
  4  7  2  0
  5  8  1  0
  7  9  1  0
  6 10  2  0
  7 10  1  0
  8 11  1  0
  8 12  2  3
 12 13  1  0
 13 14  1  0
 14 15  1  0
 15 16  1  0
 16 17  1  0
 16 18  1  0
 17 19  1  0
 18 20  1  0
 19 20  1  0
 18 21  1  1
 20 22  1  0
 21 23  2  0
 22 24  2  0
 23 24  1  0
 24 25  1  0
M  END
