x0864_0_A_α-x1018_0_A_α
     RDKit          3D

 25 27  0  0  0  0  0  0  0  0999 V2000
    1.4750   12.0650   -6.6190 O   0  0  0  0  0  0  0  0  0  0  0  0
    0.4840   11.4460   -6.2410 C   0  0  0  0  0  0  0  0  0  0  0  0
   -0.1740   11.7130   -5.0410 N   0  0  0  0  0  0  0  0  0  0  0  0
   -0.0540   10.3370   -7.0660 C   0  0  0  0  0  0  0  0  0  0  0  0
    0.5480   12.4550   -3.9970 C   0  0  0  0  0  0  0  0  0  0  0  0
   -1.3880   11.1270   -4.7390 C   0  0  0  0  0  0  0  0  0  0  0  0
   -1.1970    9.7400   -6.7000 C   0  0  0  0  0  0  0  0  0  0  0  0
    0.4500   11.7630   -2.6250 C   0  0  0  0  0  0  0  0  0  0  0  0
   -1.9310    8.3310   -7.6790 Br  0  0  0  0  0  0  0  0  0  0  0  0
   -1.9040   10.1720   -5.5210 C   0  0  0  0  0  0  0  0  0  0  0  0
    0.4610   10.4060   -2.6270 O   0  0  0  0  0  0  0  0  0  0  0  0
    0.3560   12.3940   -1.4960 N   0  0  0  0  0  0  0  0  0  0  0  0
    0.3200   13.8540   -1.4240 C   0  0  0  0  0  0  0  0  0  0  0  0
   -0.4900   14.2420   -0.1740 C   0  0  0  0  0  0  0  0  0  0  0  0
   -2.0030   13.9250   -0.1840 C   0  0  0  0  0  0  0  0  0  0  0  0
   -2.8250   14.9960   -0.7820 N   0  0  0  0  0  0  0  0  0  0  0  0
   -3.2100   14.6920   -2.1690 N   0  0  0  0  0  0  0  0  0  0  0  0
   -4.0920   15.3080   -0.0830 C   0  0  1  0  0  0  0  0  0  0  0  0
   -4.6120   14.9690   -2.3350 N   0  0  0  0  0  0  0  0  0  0  0  0
   -5.0890   14.8860   -1.0440 N   0  0  0  0  0  0  0  0  0  0  0  0
   -4.4120   14.6270    1.2010 C   0  0  0  0  0  0  0  0  0  0  0  0
   -6.4280   14.8650   -0.8040 N   0  0  0  0  0  0  0  0  0  0  0  0
   -5.6810   14.2630    1.4660 C   0  0  0  0  0  0  0  0  0  0  0  0
   -6.7040   14.5660    0.4260 C   0  0  0  0  0  0  0  0  0  0  0  0
   -8.3810   14.5270    0.8520 Cl  0  0  0  0  0  0  0  0  0  0  0  0
  1  2  2  0
  2  3  1  0
  2  4  1  0
  3  5  1  0
  3  6  1  0
  4  7  2  0
  5  8  1  0
  7  9  1  0
  6 10  2  0
  7 10  1  0
  8 11  1  0
  8 12  2  3
 12 13  1  0
 13 14  1  0
 14 15  1  0
 15 16  1  0
 16 17  1  0
 16 18  1  0
 17 19  1  0
 18 20  1  0
 19 20  1  0
 18 21  1  1
 20 22  1  0
 21 23  2  0
 22 24  2  0
 23 24  1  0
 24 25  1  0
M  END
