x0864_0_A-x0524_0_A
     RDKit          3D

 28 30  0  0  0  0  0  0  0  0999 V2000
    1.6560   12.0480   -6.5810 O   0  0  0  0  0  0  0  0  0  0  0  0
    0.5740   11.6190   -6.1910 C   0  0  0  0  0  0  0  0  0  0  0  0
   -0.1150   12.1170   -5.1010 N   0  0  0  0  0  0  0  0  0  0  0  0
   -0.0650   10.5010   -6.8850 C   0  0  0  0  0  0  0  0  0  0  0  0
    0.6670   12.9900   -4.2480 C   0  0  0  0  0  0  0  0  0  0  0  0
   -1.2420   11.4880   -4.5770 C   0  0  0  0  0  0  0  0  0  0  0  0
   -1.1800    9.9550   -6.3830 C   0  0  0  0  0  0  0  0  0  0  0  0
    0.7890   12.4090   -2.8530 C   0  0  0  0  0  0  0  0  0  0  0  0
   -1.8070    8.9230   -7.0260 O   0  0  0  0  0  0  0  0  0  0  0  0
   -1.7820   10.4290   -5.1810 C   0  0  0  0  0  0  0  0  0  0  0  0
    0.5520   11.0790   -2.8070 O   0  0  0  0  0  0  0  0  0  0  0  0
    1.0690   13.0070   -1.8350 O   0  0  0  0  0  0  0  0  0  0  0  0
   -1.3980    9.0330   -8.2850 C   0  0  0  0  0  0  0  0  0  0  0  0
   -0.4750    8.0760   -8.5100 N   0  0  0  0  0  0  0  0  0  0  0  0
   -1.7700    9.9060   -9.0360 O   0  0  0  0  0  0  0  0  0  0  0  0
    0.6320    8.2100   -9.3370 C   0  0  0  0  0  0  0  0  0  0  0  0
    1.8320    7.5490   -9.1400 C   0  0  0  0  0  0  0  0  0  0  0  0
    0.4910    9.0690  -10.4290 C   0  0  0  0  0  0  0  0  0  0  0  0
    2.8830    7.7360  -10.0370 C   0  0  0  0  0  0  0  0  0  0  0  0
    1.5440    9.2530  -11.3230 C   0  0  0  0  0  0  0  0  0  0  0  0
    2.7530    8.5840  -11.1400 C   0  0  0  0  0  0  0  0  0  0  0  0
    3.8350    8.7190  -12.0110 N   0  0  0  0  0  0  0  0  0  0  0  0
    4.0790    9.5610  -13.0980 C   0  0  0  0  0  0  0  0  0  0  0  0
    3.2790   10.7020  -13.2840 C   0  0  0  0  0  0  0  0  0  0  0  0
    5.0990    9.3150  -14.0140 C   0  0  0  0  0  0  0  0  0  0  0  0
    3.5010   11.5630  -14.3540 C   0  0  0  0  0  0  0  0  0  0  0  0
    5.3240   10.1730  -15.0870 C   0  0  0  0  0  0  0  0  0  0  0  0
    4.5250   11.3010  -15.2570 C   0  0  0  0  0  0  0  0  0  0  0  0
  1  2  2  0
  2  3  1  0
  2  4  1  0
  3  5  1  0
  3  6  1  0
  4  7  2  0
  5  8  1  0
  7  9  1  0
  6 10  2  0
  7 10  1  0
  8 11  1  0
  8 12  2  0
  9 13  1  0
 13 14  1  0
 13 15  2  0
 14 16  1  0
 16 17  2  0
 16 18  1  0
 17 19  1  0
 18 20  2  0
 19 21  2  0
 20 21  1  0
 21 22  1  0
 22 23  1  0
 23 24  2  0
 23 25  1  0
 24 26  1  0
 25 27  2  0
 26 28  2  0
 27 28  1  0
M  END
