x0864_0_A-x0159_0_B
     RDKit          3D

 32 35  0  0  0  0  0  0  0  0999 V2000
    1.5770   11.8840   -6.8380 O   0  0  0  0  0  0  0  0  0  0  0  0
    0.5230   11.3830   -6.4740 C   0  0  0  0  0  0  0  0  0  0  0  0
   -0.1830   11.8090   -5.3650 N   0  0  0  0  0  0  0  0  0  0  0  0
   -0.0410   10.2380   -7.2310 C   0  0  0  0  0  0  0  0  0  0  0  0
    0.4820   12.8030   -4.5270 C   0  0  0  0  0  0  0  0  0  0  0  0
   -1.3400   11.1740   -4.9450 C   0  0  0  0  0  0  0  0  0  0  0  0
   -1.1670    9.6410   -6.8110 C   0  0  0  0  0  0  0  0  0  0  0  0
    0.6600   12.3330   -3.0910 C   0  0  0  0  0  0  0  0  0  0  0  0
   -1.7990    8.5700   -7.3930 O   0  0  0  0  0  0  0  0  0  0  0  0
   -1.8340   10.1280   -5.6240 C   0  0  0  0  0  0  0  0  0  0  0  0
    0.2610   11.0580   -2.9010 O   0  0  0  0  0  0  0  0  0  0  0  0
    1.1060   12.9670   -2.1530 O   0  0  0  0  0  0  0  0  0  0  0  0
   -1.0520    7.3700   -7.5790 C   0  0  0  0  0  0  0  0  0  0  0  0
   -0.6140    7.1870   -9.0380 C   0  0  0  0  0  0  0  0  0  0  0  0
    0.8870    6.8840   -9.3040 C   0  0  1  0  0  0  0  0  0  0  0  0
    1.8130    8.1040   -9.1560 C   0  0  0  0  0  0  0  0  0  0  0  0
    1.3650    5.6710   -8.5420 C   0  0  0  0  0  0  0  0  0  0  0  0
    1.4170    9.1300  -10.1100 N   0  0  0  0  0  0  0  0  0  0  0  0
    2.2800    4.7610   -9.0840 C   0  0  0  0  0  0  0  0  0  0  0  0
    0.8810    5.4480   -7.2530 C   0  0  0  0  0  0  0  0  0  0  0  0
    2.2080    9.3640  -11.1730 C   0  0  0  0  0  0  0  0  0  0  0  0
    2.7010    3.6610   -8.3560 C   0  0  0  0  0  0  0  0  0  0  0  0
    1.3010    4.3520   -6.5340 C   0  0  0  0  0  0  0  0  0  0  0  0
    2.0070   10.5080  -11.8910 N   0  0  0  0  0  0  0  0  0  0  0  0
    3.1970    8.6540  -11.6710 N   0  0  0  0  0  0  0  0  0  0  0  0
    2.2160    3.4550   -7.0830 C   0  0  0  0  0  0  0  0  0  0  0  0
    3.6530    9.3780  -12.7500 C   0  0  0  0  0  0  0  0  0  0  0  0
    2.9200   10.5490  -12.9080 C   0  0  0  0  0  0  0  0  0  0  0  0
    3.1580   11.4830  -13.9150 C   0  0  0  0  0  0  0  0  0  0  0  0
    4.6960    9.1030  -13.6450 C   0  0  0  0  0  0  0  0  0  0  0  0
    4.2020   11.1930  -14.7970 C   0  0  0  0  0  0  0  0  0  0  0  0
    4.9590   10.0260  -14.6680 C   0  0  0  0  0  0  0  0  0  0  0  0
  1  2  2  0
  2  3  1  0
  2  4  1  0
  3  5  1  0
  3  6  1  0
  4  7  2  0
  5  8  1  0
  7  9  1  0
  6 10  2  0
  7 10  1  0
  8 11  1  0
  8 12  2  0
  9 13  1  0
 13 14  1  0
 15 14  1  1
 15 16  1  0
 15 17  1  0
 16 18  1  0
 17 19  2  0
 17 20  1  0
 18 21  1  0
 19 22  1  0
 20 23  2  0
 21 24  1  0
 21 25  2  0
 22 26  2  0
 23 26  1  0
 25 27  1  0
 24 28  1  0
 27 28  2  0
 28 29  1  0
 27 30  1  0
 29 31  2  0
 30 32  2  0
 31 32  1  0
M  END
