x0864_0_A_α-x0104_0_A_β
     RDKit          3D

 24 25  0  0  0  0  0  0  0  0999 V2000
    1.5530   11.8480   -6.8090 O   0  0  0  0  0  0  0  0  0  0  0  0
    0.4690   11.4020   -6.4570 C   0  0  0  0  0  0  0  0  0  0  0  0
   -0.2750   11.8890   -5.3830 N   0  0  0  0  0  0  0  0  0  0  0  0
   -0.1040   10.2520   -7.2020 C   0  0  0  0  0  0  0  0  0  0  0  0
    0.4150   12.8870   -4.5250 C   0  0  2  0  0  0  0  0  0  0  0  0
   -1.4060   11.2250   -4.9430 C   0  0  0  0  0  0  0  0  0  0  0  0
   -1.2250    9.6710   -6.7710 C   0  0  0  0  0  0  0  0  0  0  0  0
    0.6650   12.3680   -3.1000 C   0  0  0  0  0  0  0  0  0  0  0  0
   -1.9890    8.2190   -7.6590 Br  0  0  0  0  0  0  0  0  0  0  0  0
   -0.1500   14.3350   -4.6110 C   0  0  0  0  0  0  0  0  0  0  0  0
   -1.8880   10.1550   -5.5890 C   0  0  0  0  0  0  0  0  0  0  0  0
    0.2790   11.0970   -2.8670 O   0  0  0  0  0  0  0  0  0  0  0  0
    1.1710   13.0050   -2.1920 O   0  0  0  0  0  0  0  0  0  0  0  0
   -1.6760   14.5890   -4.5590 C   0  0  0  0  0  0  0  0  0  0  0  0
   -2.4150   14.0740   -3.3130 C   0  0  0  0  0  0  0  0  0  0  0  0
   -3.3000   15.1480   -2.6540 C   0  0  0  0  0  0  0  0  0  0  0  0
   -4.6640   14.7480   -2.5050 O   0  0  0  0  0  0  0  0  0  0  0  0
   -5.1570   14.7560   -1.2130 C   0  0  0  0  0  0  0  0  0  0  0  0
   -4.3190   14.8050   -0.1580 N   0  0  0  0  0  0  0  0  0  0  0  0
   -6.5390   14.7060   -1.0930 C   0  0  0  0  0  0  0  0  0  0  0  0
   -4.8990   14.8060    1.0660 C   0  0  0  0  0  0  0  0  0  0  0  0
   -7.1000   14.7020    0.1790 C   0  0  0  0  0  0  0  0  0  0  0  0
   -6.2780   14.7540    1.2980 C   0  0  0  0  0  0  0  0  0  0  0  0
   -6.8170   14.7570    2.5820 N   0  0  0  0  0  0  0  0  0  0  0  0
  1  2  2  0
  2  3  1  0
  2  4  1  0
  3  5  1  0
  3  6  1  0
  4  7  2  0
  5  8  1  0
  7  9  1  0
  5 10  1  1
  6 11  2  0
  7 11  1  0
  8 12  1  0
  8 13  2  0
 10 14  1  0
 14 15  1  0
 15 16  1  0
 16 17  1  0
 17 18  1  0
 18 19  2  0
 18 20  1  0
 19 21  1  0
 20 22  2  0
 21 23  2  0
 22 23  1  0
 23 24  1  0
M  END
