x0864_0_A_α-x0421_0_A_α
     RDKit          3D

 25 27  0  0  0  0  0  0  0  0999 V2000
    1.6290   11.8330   -6.8680 O   0  0  0  0  0  0  0  0  0  0  0  0
    0.5750   11.3610   -6.4750 C   0  0  0  0  0  0  0  0  0  0  0  0
   -0.2080   11.9070   -5.4800 N   0  0  0  0  0  0  0  0  0  0  0  0
    0.0640   10.0960   -7.0650 C   0  0  0  0  0  0  0  0  0  0  0  0
    0.4280   12.7410   -4.4460 C   0  0  0  0  0  0  0  0  0  0  0  0
   -1.5570   11.6170   -5.4190 C   0  0  0  0  0  0  0  0  0  0  0  0
   -1.2030    9.7260   -6.8460 C   0  0  0  0  0  0  0  0  0  0  0  0
    0.6150   12.0790   -3.0710 C   0  0  0  0  0  0  0  0  0  0  0  0
   -1.9130    8.1460   -7.5430 Br  0  0  0  0  0  0  0  0  0  0  0  0
   -2.0650   10.5620   -6.0620 C   0  0  0  0  0  0  0  0  0  0  0  0
    0.5190   10.7340   -3.0700 O   0  0  0  0  0  0  0  0  0  0  0  0
    0.8350   12.7070   -1.9680 N   0  0  0  0  0  0  0  0  0  0  0  0
    0.9150   14.1610   -1.9280 C   0  0  0  0  0  0  0  0  0  0  0  0
   -0.3410   14.7810   -1.2710 C   0  0  0  0  0  0  0  0  0  0  0  0
   -1.4610   14.9320   -2.2300 N   0  0  0  0  0  0  0  0  0  0  0  0
   -2.7460   15.0010   -2.0030 C   0  0  0  0  0  0  0  0  0  0  0  0
   -3.7270   15.1470   -2.9450 N   0  0  0  0  0  0  0  0  0  0  0  0
   -3.3420   14.9250   -0.6510 C   0  0  0  0  0  0  0  0  0  0  0  0
   -2.7080   14.9210    0.5740 C   0  0  0  0  0  0  0  0  0  0  0  0
   -4.7210   14.8400   -0.4510 N   0  0  0  0  0  0  0  0  0  0  0  0
   -3.7050   14.8270    1.5000 N   0  0  0  0  0  0  0  0  0  0  0  0
   -4.8940   14.7820    0.8450 C   0  0  0  0  0  0  0  0  0  0  0  0
   -6.2690   14.6690    1.5690 C   0  0  0  0  0  0  0  0  0  0  0  0
   -7.5440   14.6680    0.7660 C   0  0  0  0  0  0  0  0  0  0  0  0
   -7.0700   13.4040    1.4260 C   0  0  0  0  0  0  0  0  0  0  0  0
  1  2  2  0
  2  3  1  0
  2  4  1  0
  3  5  1  0
  3  6  1  0
  4  7  2  0
  5  8  1  0
  7  9  1  0
  6 10  2  0
  7 10  1  0
  8 11  1  0
  8 12  2  3
 12 13  1  0
 13 14  1  0
 14 15  1  0
 15 16  2  3
 16 17  1  0
 16 18  1  0
 18 19  2  0
 18 20  1  0
 19 21  1  0
 20 22  2  0
 21 22  1  0
 22 23  1  0
 23 24  1  0
 23 25  1  0
 24 25  1  0
M  END
