x0864_0_A_α-x0724_0_A_α
     RDKit          3D

 29 31  0  0  0  0  0  0  0  0999 V2000
    1.4660   11.8200   -6.9320 O   0  0  0  0  0  0  0  0  0  0  0  0
    0.4450   11.2830   -6.5210 C   0  0  0  0  0  0  0  0  0  0  0  0
   -0.1810   11.6750   -5.3560 N   0  0  0  0  0  0  0  0  0  0  0  0
   -0.1590   10.1540   -7.2560 C   0  0  0  0  0  0  0  0  0  0  0  0
    0.5350   12.6350   -4.5360 C   0  0  0  0  0  0  0  0  0  0  0  0
   -1.3610   11.1040   -4.9140 C   0  0  0  0  0  0  0  0  0  0  0  0
   -1.2870    9.5980   -6.7940 C   0  0  0  0  0  0  0  0  0  0  0  0
    0.7350   12.0850   -3.1340 C   0  0  0  0  0  0  0  0  0  0  0  0
   -2.0960    8.1650   -7.6660 Br  0  0  0  0  0  0  0  0  0  0  0  0
   -1.9170   10.0950   -5.5930 C   0  0  0  0  0  0  0  0  0  0  0  0
    0.5660   10.7590   -2.9490 O   0  0  0  0  0  0  0  0  0  0  0  0
    1.0410   12.8890   -2.1970 N   0  0  0  0  0  0  0  0  0  0  0  0
    1.1520   14.2830   -2.6070 C   0  0  0  0  0  0  0  0  0  0  0  0
   -0.2520   14.8730   -2.4970 C   0  0  0  0  0  0  0  0  0  0  0  0
   -0.7360   14.6690   -1.0630 C   0  0  0  0  0  0  0  0  0  0  0  0
   -2.2330   14.6700   -0.7790 C   0  0  0  0  0  0  0  0  0  0  0  0
   -2.5350   14.7860    0.5720 C   0  0  0  0  0  0  0  0  0  0  0  0
   -3.2970   14.5650   -1.7090 C   0  0  0  0  0  0  0  0  0  0  0  0
   -3.8330   14.7960    1.0290 C   0  0  0  0  0  0  0  0  0  0  0  0
   -4.6360   14.5740   -1.2420 C   0  0  0  0  0  0  0  0  0  0  0  0
   -4.8960   14.6890    0.1430 C   0  0  0  0  0  0  0  0  0  0  0  0
   -6.1980   14.7030    0.7170 N   0  0  0  0  0  0  0  0  0  0  0  0
   -7.3540   14.5980    0.0090 N   0  0  0  0  0  0  0  0  0  0  0  0
   -6.4550   14.8300    2.0670 C   0  0  0  0  0  0  0  0  0  0  0  0
   -7.8170   14.8220    2.2500 C   0  0  0  0  0  0  0  0  0  0  0  0
   -8.3170   14.6710    0.9370 C   0  0  0  0  0  0  0  0  0  0  0  0
   -8.5720   14.9500    3.5260 C   0  0  0  0  0  0  0  0  0  0  0  0
   -8.2890   13.7890    4.3620 N   0  0  0  0  0  0  0  0  0  0  0  0
   -8.7270   14.0050    5.7350 C   0  0  0  0  0  0  0  0  0  0  0  0
  1  2  2  0
  2  3  1  0
  2  4  1  0
  3  5  1  0
  3  6  1  0
  4  7  2  0
  5  8  1  0
  7  9  1  0
  6 10  2  0
  7 10  1  0
  8 11  1  0
  8 12  2  3
 12 13  1  0
 13 14  1  0
 14 15  1  0
 15 16  1  0
 16 17  2  0
 16 18  1  0
 17 19  1  0
 18 20  2  0
 19 21  2  0
 20 21  1  0
 21 22  1  0
 22 23  1  0
 22 24  1  0
 24 25  2  0
 23 26  2  0
 25 26  1  0
 25 27  1  0
 27 28  1  0
 28 29  1  0
M  END
