x0864_0_A_α-x0900_0_A_α
     RDKit          3D

 22 23  0  0  0  0  0  0  0  0999 V2000
    1.4970   11.9900   -6.7300 O   0  0  0  0  0  0  0  0  0  0  0  0
    0.5010   11.4150   -6.3180 C   0  0  0  0  0  0  0  0  0  0  0  0
   -0.1420   11.7190   -5.1200 N   0  0  0  0  0  0  0  0  0  0  0  0
   -0.0730   10.2940   -7.1040 C   0  0  0  0  0  0  0  0  0  0  0  0
    0.6460   12.4010   -4.0920 C   0  0  0  0  0  0  0  0  0  0  0  0
   -1.3540   11.1500   -4.7770 C   0  0  0  0  0  0  0  0  0  0  0  0
   -1.2170    9.7170   -6.7080 C   0  0  0  0  0  0  0  0  0  0  0  0
    0.5070   11.8300   -2.6700 C   0  0  0  0  0  0  0  0  0  0  0  0
   -1.9840    8.3010   -7.6490 Br  0  0  0  0  0  0  0  0  0  0  0  0
   -1.8960   10.1820   -5.5240 C   0  0  0  0  0  0  0  0  0  0  0  0
    0.2960   10.4960   -2.5500 O   0  0  0  0  0  0  0  0  0  0  0  0
    0.5680   12.4560   -1.5430 N   0  0  0  0  0  0  0  0  0  0  0  0
    0.8200   13.8960   -1.5060 C   0  0  0  0  0  0  0  0  0  0  0  0
   -0.3820   14.6960   -0.9940 C   0  0  0  0  0  0  0  0  0  0  0  0
   -1.1630   14.0460    0.1570 C   0  0  0  0  0  0  0  0  0  0  0  0
   -2.6220   13.7340   -0.2460 C   0  0  0  0  0  0  0  0  0  0  0  0
   -3.5160   14.9740   -0.3350 C   0  0  1  0  0  0  0  0  0  0  0  0
   -4.7330   14.7920   -1.0910 N   0  0  0  0  0  0  0  0  0  0  0  0
   -4.0170   15.4170    1.0400 C   0  0  0  0  0  0  0  0  0  0  0  0
   -5.8460   14.8600   -0.2820 C   0  0  0  0  0  0  0  0  0  0  0  0
   -5.3600   14.7080    1.1310 C   0  0  0  0  0  0  0  0  0  0  0  0
   -6.9960   15.0120   -0.6570 O   0  0  0  0  0  0  0  0  0  0  0  0
  1  2  2  0
  2  3  1  0
  2  4  1  0
  3  5  1  0
  3  6  1  0
  4  7  2  0
  5  8  1  0
  7  9  1  0
  6 10  2  0
  7 10  1  0
  8 11  1  0
  8 12  2  3
 12 13  1  0
 13 14  1  0
 14 15  1  0
 15 16  1  0
 17 16  1  1
 17 18  1  0
 17 19  1  0
 18 20  1  0
 19 21  1  0
 20 21  1  0
 20 22  2  0
M  END
