x0864_0_A-x0766_0_A
     RDKit          3D

 22 24  0  0  0  0  0  0  0  0999 V2000
    1.1240   12.0010   -6.4470 O   0  0  0  0  0  0  0  0  0  0  0  0
    0.1680   11.2620   -6.2120 C   0  0  0  0  0  0  0  0  0  0  0  0
   -0.6270   11.3080   -5.0540 N   0  0  0  0  0  0  0  0  0  0  0  0
   -0.1930   10.2170   -7.1980 C   0  0  0  0  0  0  0  0  0  0  0  0
   -0.6090   12.4630   -4.1800 C   0  0  0  0  0  0  0  0  0  0  0  0
   -1.7140   10.4990   -4.8820 C   0  0  0  0  0  0  0  0  0  0  0  0
   -1.2540    9.4330   -6.9650 C   0  0  0  0  0  0  0  0  0  0  0  0
    0.2690   12.3420   -2.9070 C   0  0  0  0  0  0  0  0  0  0  0  0
   -1.7880    8.0900   -8.1380 Br  0  0  0  0  0  0  0  0  0  0  0  0
   -2.0460    9.5890   -5.7790 C   0  0  0  0  0  0  0  0  0  0  0  0
    0.9580   11.1280   -2.9330 O   0  0  0  0  0  0  0  0  0  0  0  0
   -0.4130   12.3190   -1.6640 O   0  0  0  0  0  0  0  0  0  0  0  0
    1.1020   13.5950   -2.9320 C   0  0  1  0  0  0  0  0  0  0  0  0
    1.7570   13.8550   -4.3090 C   0  0  0  0  0  0  0  0  0  0  0  0
    0.2270   14.8730   -2.6930 C   0  0  1  0  0  0  0  0  0  0  0  0
    1.6620   15.3510   -4.4840 C   0  0  0  0  0  0  0  0  0  0  0  0
    0.3160   15.7160   -3.9460 C   0  0  0  0  0  0  0  0  0  0  0  0
   -1.1430   14.7630   -2.0720 C   0  0  0  0  0  0  0  0  0  0  0  0
   -2.3960   14.7680   -2.6860 C   0  0  0  0  0  0  0  0  0  0  0  0
   -1.3040   14.6470   -0.6480 C   0  0  0  0  0  0  0  0  0  0  0  0
   -2.6160   14.5790   -0.2490 C   0  0  0  0  0  0  0  0  0  0  0  0
   -3.6900   14.6490   -1.5730 S   0  0  0  0  0  0  0  0  0  0  0  0
  1  2  2  0
  2  3  1  0
  2  4  1  0
  3  5  1  0
  3  6  1  0
  4  7  2  0
  5  8  1  0
  7  9  1  0
  6 10  2  0
  7 10  1  0
  8 11  1  0
  8 12  1  0
 13  8  1  6
 13 14  1  0
 13 15  1  0
 14 16  1  0
 15 17  1  0
 16 17  1  0
 15 18  1  6
 18 19  2  0
 18 20  1  0
 20 21  2  0
 19 22  1  0
 21 22  1  0
M  END
