x0864_0_A-x0681_0_A
     RDKit          3D

 26 28  0  0  0  0  0  0  0  0999 V2000
    1.3830   12.2160   -6.3110 O   0  0  0  0  0  0  0  0  0  0  0  0
    0.3220   11.6300   -6.0950 C   0  0  0  0  0  0  0  0  0  0  0  0
   -0.6520   12.0070   -5.1420 N   0  0  0  0  0  0  0  0  0  0  0  0
    0.0280   10.4080   -6.9050 C   0  0  0  0  0  0  0  0  0  0  0  0
   -0.2780   12.5450   -3.7960 C   0  0  1  0  0  0  0  0  0  0  0  0
   -1.8870   11.3760   -5.1470 C   0  0  0  0  0  0  0  0  0  0  0  0
   -1.1610    9.7970   -6.7980 C   0  0  0  0  0  0  0  0  0  0  0  0
    0.8300   11.9080   -2.9870 C   0  0  0  0  0  0  0  0  0  0  0  0
   -1.6040    8.2630   -7.7600 Br  0  0  0  0  0  0  0  0  0  0  0  0
   -0.3820   14.0580   -3.5410 C   0  0  0  0  0  0  0  0  0  0  0  0
   -2.1550   10.3230   -5.9170 C   0  0  0  0  0  0  0  0  0  0  0  0
    0.6430   10.5920   -2.7790 O   0  0  0  0  0  0  0  0  0  0  0  0
    1.7980   12.4840   -2.5200 O   0  0  0  0  0  0  0  0  0  0  0  0
   -1.1880   14.4040   -2.2670 C   0  0  0  0  0  0  0  0  0  0  0  0
   -2.4810   14.8250   -2.7660 N   0  0  0  0  0  0  0  0  0  0  0  0
   -3.6220   14.9770   -2.1560 C   0  0  0  0  0  0  0  0  0  0  0  0
   -4.5920   15.3670   -3.0140 N   0  0  0  0  0  0  0  0  0  0  0  0
   -4.1480   14.8100   -0.7250 C   0  0  1  0  0  0  0  0  0  0  0  0
   -4.9240   13.5460   -0.6010 C   0  0  0  0  0  0  0  0  0  0  0  0
   -3.2240   15.0280    0.4770 C   0  0  0  0  0  0  0  0  0  0  0  0
   -5.5610   13.3570    0.5510 N   0  0  0  0  0  0  0  0  0  0  0  0
   -3.9740   14.7230    1.7860 C   0  0  0  0  0  0  0  0  0  0  0  0
   -5.1250   12.5450   -1.4310 N   0  0  0  0  0  0  0  0  0  0  0  0
   -5.4510   14.3430    1.5730 C   0  0  0  0  0  0  0  0  0  0  0  0
   -6.2310   12.1800    0.5160 C   0  0  0  0  0  0  0  0  0  0  0  0
   -5.9460   11.6830   -0.7380 C   0  0  0  0  0  0  0  0  0  0  0  0
  1  2  2  0
  2  3  1  0
  2  4  1  0
  3  5  1  0
  3  6  1  0
  4  7  2  0
  5  8  1  0
  7  9  1  0
  5 10  1  6
  6 11  2  0
  7 11  1  0
  8 12  1  0
  8 13  2  0
 10 14  1  0
 14 15  1  0
 15 16  2  3
 16 17  1  0
 18 16  1  6
 18 19  1  0
 18 20  1  0
 19 21  1  0
 20 22  1  0
 19 23  2  0
 21 24  1  0
 22 24  1  0
 21 25  1  0
 23 26  1  0
 25 26  2  0
M  END
