x0864_0_A_α-x0465_0_A_α
     RDKit          3D

 14 14  0  0  0  0  0  0  0  0999 V2000
    1.5640   11.7550   -7.0220 O   0  0  0  0  0  0  0  0  0  0  0  0
    0.5490   11.2960   -6.5260 C   0  0  0  0  0  0  0  0  0  0  0  0
   -0.0060   11.8650   -5.3860 N   0  0  0  0  0  0  0  0  0  0  0  0
   -0.1170   10.0980   -7.0810 C   0  0  0  0  0  0  0  0  0  0  0  0
    1.0120   12.4990   -4.5160 C   0  0  2  0  0  0  0  0  0  0  0  0
    0.5260    9.4560   -8.0630 F   0  0  0  0  0  0  0  0  0  0  0  0
   -1.2670   11.4670   -4.9540 C   0  0  0  0  0  0  0  0  0  0  0  0
   -1.2870    9.6860   -6.6020 C   0  0  0  0  0  0  0  0  0  0  0  0
    0.7750   12.2100   -3.0270 C   0  0  0  0  0  0  0  0  0  0  0  0
   -2.1590    8.1810   -7.2740 Br  0  0  0  0  0  0  0  0  0  0  0  0
    1.3670   13.9490   -4.7890 C   0  0  0  0  0  0  0  0  0  0  0  0
   -1.9070   10.4260   -5.5220 C   0  0  0  0  0  0  0  0  0  0  0  0
    0.2550   10.9820   -2.7850 O   0  0  0  0  0  0  0  0  0  0  0  0
    1.0350   12.9940   -2.1300 O   0  0  0  0  0  0  0  0  0  0  0  0
  1  2  2  0
  2  3  1  0
  2  4  1  0
  3  5  1  0
  4  6  1  0
  3  7  1  0
  4  8  2  0
  5  9  1  0
  8 10  1  0
  5 11  1  1
  7 12  2  0
  8 12  1  0
  9 13  1  0
  9 14  2  0
M  END
