x0864_0_A_α-x0962_1_A_α
     RDKit          3D

 22 23  0  0  0  0  0  0  0  0999 V2000
    1.4710   11.9830   -6.7470 O   0  0  0  0  0  0  0  0  0  0  0  0
    0.4890   11.3960   -6.3170 C   0  0  0  0  0  0  0  0  0  0  0  0
   -0.1390   11.6790   -5.1040 N   0  0  0  0  0  0  0  0  0  0  0  0
   -0.0910   10.2780   -7.1080 C   0  0  0  0  0  0  0  0  0  0  0  0
    0.6320   12.4220   -4.0970 C   0  0  0  0  0  0  0  0  0  0  0  0
   -1.3600   11.1190   -4.7710 C   0  0  0  0  0  0  0  0  0  0  0  0
   -1.2300    9.6990   -6.7160 C   0  0  0  0  0  0  0  0  0  0  0  0
    0.5150   11.8380   -2.6850 C   0  0  0  0  0  0  0  0  0  0  0  0
   -1.9980    8.2850   -7.6600 Br  0  0  0  0  0  0  0  0  0  0  0  0
   -1.9120   10.1610   -5.5280 C   0  0  0  0  0  0  0  0  0  0  0  0
    0.4130   10.4890   -2.5990 O   0  0  0  0  0  0  0  0  0  0  0  0
    0.4990   12.4380   -1.5460 N   0  0  0  0  0  0  0  0  0  0  0  0
    0.5980   13.8880   -1.4920 C   0  0  0  0  0  0  0  0  0  0  0  0
   -0.7100   14.4310   -0.9210 C   0  0  0  0  0  0  0  0  0  0  0  0
   -1.8380   14.5650   -1.9600 C   0  0  0  0  0  0  0  0  0  0  0  0
   -3.1480   14.8240   -1.3400 C   0  0  0  0  0  0  0  0  0  0  0  0
   -4.1980   14.9000   -0.7660 C   0  0  0  0  0  0  0  0  0  0  0  0
   -5.3980   14.8020   -0.0270 C   0  0  0  0  0  0  0  0  0  0  0  0
   -5.4700   14.7070    1.3320 N   0  0  0  0  0  0  0  0  0  0  0  0
   -6.7080   14.7680   -0.4500 C   0  0  0  0  0  0  0  0  0  0  0  0
   -6.7850   14.6150    1.6800 C   0  0  0  0  0  0  0  0  0  0  0  0
   -7.5660   14.6490    0.6200 N   0  0  0  0  0  0  0  0  0  0  0  0
  1  2  2  0
  2  3  1  0
  2  4  1  0
  3  5  1  0
  3  6  1  0
  4  7  2  0
  5  8  1  0
  7  9  1  0
  6 10  2  0
  7 10  1  0
  8 11  1  0
  8 12  2  3
 12 13  1  0
 13 14  1  0
 14 15  1  0
 15 16  1  0
 16 17  3  0
 17 18  1  0
 18 19  1  0
 18 20  2  0
 19 21  1  0
 20 22  1  0
 21 22  2  0
M  END
