x0864_0_A-x0631_0_A
     RDKit          3D

 27 29  0  0  0  0  0  0  0  0999 V2000
    0.7690   12.9190   -6.6040 O   0  0  0  0  0  0  0  0  0  0  0  0
    0.0280   12.0720   -6.1610 C   0  0  0  0  0  0  0  0  0  0  0  0
   -0.1720   11.9660   -4.8250 N   0  0  0  0  0  0  0  0  0  0  0  0
   -0.6750   11.0970   -7.0150 C   0  0  0  0  0  0  0  0  0  0  0  0
    0.4900   12.9670   -4.0050 C   0  0  0  0  0  0  0  0  0  0  0  0
   -0.5640   10.7610   -4.2890 C   0  0  0  0  0  0  0  0  0  0  0  0
   -1.2050    9.9770   -6.4890 C   0  0  0  0  0  0  0  0  0  0  0  0
    0.8080   12.4490   -2.6180 C   0  0  0  0  0  0  0  0  0  0  0  0
   -1.8330    8.9720   -7.2150 N   0  0  0  0  0  0  0  0  0  0  0  0
   -1.0650    9.8060   -5.0640 C   0  0  0  0  0  0  0  0  0  0  0  0
    0.8060   11.1040   -2.5200 O   0  0  0  0  0  0  0  0  0  0  0  0
    1.0420   13.1740   -1.6690 O   0  0  0  0  0  0  0  0  0  0  0  0
   -2.9150    9.2400   -8.1670 C   0  0  0  0  0  0  0  0  0  0  0  0
   -0.8610    8.0010   -7.7640 C   0  0  0  0  0  0  0  0  0  0  0  0
    0.4420    8.5170   -8.2540 N   0  0  0  0  0  0  0  0  0  0  0  0
    0.7550    9.8490   -7.8030 N   0  0  0  0  0  0  0  0  0  0  0  0
    0.4230    8.5790   -9.6950 N   0  0  0  0  0  0  0  0  0  0  0  0
    0.9600   10.6530   -9.0040 N   0  0  0  0  0  0  0  0  0  0  0  0
    1.3560    9.6280   -9.9450 C   0  0  2  0  0  0  0  0  0  0  0  0
    1.2300   10.0890  -11.2760 N   0  0  0  0  0  0  0  0  0  0  0  0
    2.2750    9.5370  -12.0960 C   0  0  1  0  0  0  0  0  0  0  0  0
    2.1880    8.1260  -12.1100 O   0  0  0  0  0  0  0  0  0  0  0  0
    2.5370   10.1280  -13.5070 C   0  0  2  0  0  0  0  0  0  0  0  0
    3.6300    9.4580  -14.1670 O   0  0  0  0  0  0  0  0  0  0  0  0
    2.7730   11.6300  -13.5940 C   0  0  0  0  0  0  0  0  0  0  0  0
    3.7150   11.7570  -14.7670 C   0  0  0  0  0  0  0  0  0  0  0  0
    4.4740   10.4460  -14.7690 C   0  0  0  0  0  0  0  0  0  0  0  0
  1  2  2  0
  2  3  1  0
  2  4  1  0
  3  5  1  0
  3  6  1  0
  4  7  2  0
  5  8  1  0
  7  9  1  0
  6 10  2  0
  7 10  1  0
  8 11  1  0
  8 12  2  0
  9 13  1  0
  9 14  1  0
 14 15  1  0
 15 16  1  0
 15 17  1  0
 16 18  1  0
 17 19  1  0
 18 19  1  0
 19 20  1  6
 20 21  1  0
 21 22  1  6
 21 23  1  0
 23 24  1  0
 23 25  1  1
 25 26  1  0
 24 27  1  0
 26 27  1  0
M  END
