x0864_0_A_α-x0524_0_A_α
     RDKit          3D

 28 30  0  0  0  0  0  0  0  0999 V2000
    1.6560   12.0490   -6.5820 O   0  0  0  0  0  0  0  0  0  0  0  0
    0.5710   11.6280   -6.1960 C   0  0  0  0  0  0  0  0  0  0  0  0
   -0.1200   12.1280   -5.1070 N   0  0  0  0  0  0  0  0  0  0  0  0
   -0.0690   10.5090   -6.8910 C   0  0  0  0  0  0  0  0  0  0  0  0
    0.6700   12.9920   -4.2530 C   0  0  0  0  0  0  0  0  0  0  0  0
   -1.2450   11.4980   -4.5820 C   0  0  0  0  0  0  0  0  0  0  0  0
   -1.1840    9.9640   -6.3880 C   0  0  0  0  0  0  0  0  0  0  0  0
    0.7790   12.4080   -2.8580 C   0  0  0  0  0  0  0  0  0  0  0  0
   -1.8120    8.9300   -7.0320 O   0  0  0  0  0  0  0  0  0  0  0  0
   -1.7840   10.4370   -5.1850 C   0  0  0  0  0  0  0  0  0  0  0  0
    0.5360   11.0790   -2.8210 O   0  0  0  0  0  0  0  0  0  0  0  0
    1.0530   13.0020   -1.8350 O   0  0  0  0  0  0  0  0  0  0  0  0
   -1.3950    9.0340   -8.2930 C   0  0  0  0  0  0  0  0  0  0  0  0
   -0.4980    8.0540   -8.5280 N   0  0  0  0  0  0  0  0  0  0  0  0
   -1.7460    9.9230   -9.0370 O   0  0  0  0  0  0  0  0  0  0  0  0
    0.6160    8.1880   -9.3490 C   0  0  0  0  0  0  0  0  0  0  0  0
    1.8170    7.5320   -9.1440 C   0  0  0  0  0  0  0  0  0  0  0  0
    0.4780    9.0490  -10.4400 C   0  0  0  0  0  0  0  0  0  0  0  0
    2.8760    7.7290  -10.0330 C   0  0  0  0  0  0  0  0  0  0  0  0
    1.5370    9.2420  -11.3240 C   0  0  0  0  0  0  0  0  0  0  0  0
    2.7500    8.5830  -11.1360 C   0  0  0  0  0  0  0  0  0  0  0  0
    3.8410    8.7270  -11.9990 N   0  0  0  0  0  0  0  0  0  0  0  0
    4.0790    9.5660  -13.0960 C   0  0  0  0  0  0  0  0  0  0  0  0
    3.2710   10.7000  -13.2920 C   0  0  0  0  0  0  0  0  0  0  0  0
    5.0990    9.3170  -14.0110 C   0  0  0  0  0  0  0  0  0  0  0  0
    3.4860   11.5540  -14.3730 C   0  0  0  0  0  0  0  0  0  0  0  0
    5.3160   10.1700  -15.0930 C   0  0  0  0  0  0  0  0  0  0  0  0
    4.5080   11.2890  -15.2750 C   0  0  0  0  0  0  0  0  0  0  0  0
  1  2  2  0
  2  3  1  0
  2  4  1  0
  3  5  1  0
  3  6  1  0
  4  7  2  0
  5  8  1  0
  7  9  1  0
  6 10  2  0
  7 10  1  0
  8 11  1  0
  8 12  2  0
  9 13  1  0
 13 14  1  0
 13 15  2  0
 14 16  1  0
 16 17  2  0
 16 18  1  0
 17 19  1  0
 18 20  2  0
 19 21  2  0
 20 21  1  0
 21 22  1  0
 22 23  1  0
 23 24  2  0
 23 25  1  0
 24 26  1  0
 25 27  2  0
 26 28  2  0
 27 28  1  0
M  END
