x0864_0_A-x0722_0_A
     RDKit          3D

 26 27  0  0  0  0  0  0  0  0999 V2000
    1.5500   11.8650   -6.8550 O   0  0  0  0  0  0  0  0  0  0  0  0
    0.5090   11.3700   -6.4440 C   0  0  0  0  0  0  0  0  0  0  0  0
   -0.1490   11.7880   -5.2970 N   0  0  0  0  0  0  0  0  0  0  0  0
   -0.0970   10.2340   -7.1840 C   0  0  0  0  0  0  0  0  0  0  0  0
    0.6380   12.6080   -4.3730 C   0  0  0  0  0  0  0  0  0  0  0  0
   -1.3330   11.2060   -4.8780 C   0  0  0  0  0  0  0  0  0  0  0  0
   -1.2330    9.6830   -6.7440 C   0  0  0  0  0  0  0  0  0  0  0  0
    0.6560   12.0490   -2.9540 C   0  0  0  0  0  0  0  0  0  0  0  0
   -2.0350    8.2490   -7.6280 Br  0  0  0  0  0  0  0  0  0  0  0  0
   -1.8800   10.1860   -5.5570 C   0  0  0  0  0  0  0  0  0  0  0  0
    0.3390   10.7390   -2.8830 O   0  0  0  0  0  0  0  0  0  0  0  0
    0.9440   12.7470   -1.9210 N   0  0  0  0  0  0  0  0  0  0  0  0
    1.3050   14.1490   -1.9860 C   0  0  0  0  0  0  0  0  0  0  0  0
    0.1380   15.0230   -1.5070 C   0  0  0  0  0  0  0  0  0  0  0  0
   -1.2650   14.3830   -1.5940 C   0  0  0  0  0  0  0  0  0  0  0  0
   -2.0950   14.6220   -0.3600 C   0  0  0  0  0  0  0  0  0  0  0  0
   -3.4370   14.9710   -0.1770 C   0  0  0  0  0  0  0  0  0  0  0  0
   -1.5740   14.5140    0.9080 N   0  0  0  0  0  0  0  0  0  0  0  0
   -0.2260   14.1790    1.2850 C   0  0  0  0  0  0  0  0  0  0  0  0
   -4.5210   15.2340   -1.1800 C   0  0  0  0  0  0  0  0  0  0  0  0
   -2.4610   14.7540    1.8670 N   0  0  0  0  0  0  0  0  0  0  0  0
   -3.5880   15.0280    1.2250 C   0  0  0  0  0  0  0  0  0  0  0  0
   -4.8090   15.3400    1.9670 C   0  0  0  0  0  0  0  0  0  0  0  0
   -5.8690   14.6820   -0.7330 C   0  0  0  0  0  0  0  0  0  0  0  0
   -6.9330   15.2940   -0.8330 O   0  0  0  0  0  0  0  0  0  0  0  0
   -5.8500   13.4200   -0.2000 N   0  0  0  0  0  0  0  0  0  0  0  0
  1  2  2  0
  2  3  1  0
  2  4  1  0
  3  5  1  0
  3  6  1  0
  4  7  2  0
  5  8  1  0
  7  9  1  0
  6 10  2  0
  7 10  1  0
  8 11  1  0
  8 12  2  3
 12 13  1  0
 13 14  1  0
 14 15  1  0
 15 16  1  0
 16 17  2  0
 16 18  1  0
 18 19  1  0
 17 20  1  0
 18 21  1  0
 17 22  1  0
 21 22  2  0
 22 23  1  0
 20 24  1  0
 24 25  2  0
 24 26  1  0
M  END
