x0864_0_A_α-x0438_0_A_α
     RDKit          3D

 29 31  0  0  0  0  0  0  0  0999 V2000
    1.4610   12.0320   -6.7030 O   0  0  0  0  0  0  0  0  0  0  0  0
    0.4650   11.4450   -6.3010 C   0  0  0  0  0  0  0  0  0  0  0  0
   -0.1910   11.7390   -5.1050 N   0  0  0  0  0  0  0  0  0  0  0  0
   -0.0860   10.3240   -7.1060 C   0  0  0  0  0  0  0  0  0  0  0  0
    0.5630   12.4310   -4.0470 C   0  0  0  0  0  0  0  0  0  0  0  0
   -1.3990   11.1380   -4.7840 C   0  0  0  0  0  0  0  0  0  0  0  0
   -1.2220    9.7220   -6.7280 C   0  0  0  0  0  0  0  0  0  0  0  0
    0.4750   11.7500   -2.6760 C   0  0  0  0  0  0  0  0  0  0  0  0
   -1.9600    8.2990   -7.6860 Br  0  0  0  0  0  0  0  0  0  0  0  0
   -1.9200   10.1650   -5.5440 C   0  0  0  0  0  0  0  0  0  0  0  0
    0.5240   10.3970   -2.6980 O   0  0  0  0  0  0  0  0  0  0  0  0
    0.3540   12.1830   -1.4770 N   0  0  0  0  0  0  0  0  0  0  0  0
    0.2490   13.5700   -1.0760 C   0  0  0  0  0  0  0  0  0  0  0  0
   -0.7370   13.6070    0.0940 C   0  0  0  0  0  0  0  0  0  0  0  0
   -1.4300   14.9370    0.1770 C   0  0  0  0  0  0  0  0  0  0  0  0
   -2.9430   14.9310   -0.0470 C   0  0  0  0  0  0  0  0  0  0  0  0
   -3.5020   15.2970   -1.2950 C   0  0  0  0  0  0  0  0  0  0  0  0
   -3.8120   14.5550    0.9960 C   0  0  0  0  0  0  0  0  0  0  0  0
   -5.1980   14.5410    0.7670 C   0  0  0  0  0  0  0  0  0  0  0  0
   -4.8830   15.2960   -1.5320 C   0  0  0  0  0  0  0  0  0  0  0  0
   -6.2280   14.2030    1.6110 N   0  0  0  0  0  0  0  0  0  0  0  0
   -5.7020   14.9050   -0.4770 C   0  0  0  0  0  0  0  0  0  0  0  0
   -7.0650   14.7710   -0.3500 N   0  0  0  0  0  0  0  0  0  0  0  0
   -7.3410   14.3360    0.9300 C   0  0  0  0  0  0  0  0  0  0  0  0
   -8.7130   14.0510    1.4350 C   0  0  0  0  0  0  0  0  0  0  0  0
   -9.3320   15.3140    2.5340 S   0  0  0  0  0  0  0  0  0  0  0  0
   -8.1140   15.5000    3.8290 C   0  0  0  0  0  0  0  0  0  0  0  0
  -10.5490   14.7950    3.1400 O   0  0  0  0  0  0  0  0  0  0  0  0
   -9.4150   16.5410    1.7750 O   0  0  0  0  0  0  0  0  0  0  0  0
  1  2  2  0
  2  3  1  0
  2  4  1  0
  3  5  1  0
  3  6  1  0
  4  7  2  0
  5  8  1  0
  7  9  1  0
  6 10  2  0
  7 10  1  0
  8 11  1  0
  8 12  2  3
 12 13  1  0
 13 14  1  0
 14 15  1  0
 15 16  1  0
 16 17  2  0
 16 18  1  0
 18 19  2  0
 17 20  1  0
 19 21  1  0
 19 22  1  0
 20 22  2  0
 22 23  1  0
 21 24  2  0
 23 24  1  0
 24 25  1  0
 26 25  1  0
 26 27  1  0
 26 28  2  0
 26 29  2  0
M  END
