x0864_0_A_α-x0159_0_B_β
     RDKit          3D

 25 27  0  0  0  0  0  0  0  0999 V2000
    1.5700   11.9850   -6.7700 O   0  0  0  0  0  0  0  0  0  0  0  0
    0.5380   11.4040   -6.4640 C   0  0  0  0  0  0  0  0  0  0  0  0
   -0.2250   11.8040   -5.3850 N   0  0  0  0  0  0  0  0  0  0  0  0
    0.0790   10.2220   -7.2270 C   0  0  0  0  0  0  0  0  0  0  0  0
    0.3870   12.7890   -4.4890 C   0  0  0  0  0  0  0  0  0  0  0  0
   -1.3610   11.1110   -5.0030 C   0  0  0  0  0  0  0  0  0  0  0  0
   -1.0250    9.5640   -6.8430 C   0  0  0  0  0  0  0  0  0  0  0  0
    0.6590   12.2750   -3.0790 C   0  0  0  0  0  0  0  0  0  0  0  0
   -1.5560    8.4420   -7.4410 O   0  0  0  0  0  0  0  0  0  0  0  0
   -1.7680   10.0270   -5.6900 C   0  0  0  0  0  0  0  0  0  0  0  0
    0.4250   10.9590   -2.8730 O   0  0  0  0  0  0  0  0  0  0  0  0
    1.0650   12.9990   -2.1820 O   0  0  0  0  0  0  0  0  0  0  0  0
   -0.6540    7.3610   -7.7340 C   0  0  0  0  0  0  0  0  0  0  0  0
   -0.2530    7.3810   -9.2160 C   0  0  0  0  0  0  0  0  0  0  0  0
    1.2260    7.7050   -9.4720 C   0  0  0  0  0  0  0  0  0  0  0  0
    1.4300    9.0520  -10.0010 N   0  0  0  0  0  0  0  0  0  0  0  0
    2.1850    9.3260  -11.0920 C   0  0  0  0  0  0  0  0  0  0  0  0
    1.9800   10.4670  -11.8190 N   0  0  0  0  0  0  0  0  0  0  0  0
    3.1670    8.6100  -11.5950 N   0  0  0  0  0  0  0  0  0  0  0  0
    2.8840   10.5030  -12.8450 C   0  0  0  0  0  0  0  0  0  0  0  0
    3.6180    9.3300  -12.6850 C   0  0  0  0  0  0  0  0  0  0  0  0
    3.1160   11.4310  -13.8570 C   0  0  0  0  0  0  0  0  0  0  0  0
    4.6540    9.0540  -13.5900 C   0  0  0  0  0  0  0  0  0  0  0  0
    4.1510   11.1400  -14.7470 C   0  0  0  0  0  0  0  0  0  0  0  0
    4.9090    9.9710  -14.6190 C   0  0  0  0  0  0  0  0  0  0  0  0
  1  2  2  0
  2  3  1  0
  2  4  1  0
  3  5  1  0
  3  6  1  0
  4  7  2  0
  5  8  1  0
  7  9  1  0
  6 10  2  0
  7 10  1  0
  8 11  1  0
  8 12  2  0
  9 13  1  0
 13 14  1  0
 14 15  1  0
 15 16  1  0
 16 17  1  0
 17 18  1  0
 17 19  2  0
 18 20  1  0
 19 21  1  0
 20 21  2  0
 20 22  1  0
 21 23  1  0
 22 24  2  0
 23 25  2  0
 24 25  1  0
M  END
