x0864_0_A_α-x0631_0_A_α
     RDKit          3D

 24 25  0  0  0  0  0  0  0  0999 V2000
    1.5440   11.9370   -6.7220 O   0  0  0  0  0  0  0  0  0  0  0  0
    0.4890   11.4200   -6.3720 C   0  0  0  0  0  0  0  0  0  0  0  0
   -0.2950   11.8840   -5.3290 N   0  0  0  0  0  0  0  0  0  0  0  0
    0.0000   10.2150   -7.0680 C   0  0  0  0  0  0  0  0  0  0  0  0
    0.3450   12.8370   -4.4310 C   0  0  0  0  0  0  0  0  0  0  0  0
   -1.4880   11.2700   -4.9760 C   0  0  0  0  0  0  0  0  0  0  0  0
   -1.1420    9.6340   -6.7060 C   0  0  0  0  0  0  0  0  0  0  0  0
    0.6990   12.2730   -3.0630 C   0  0  0  0  0  0  0  0  0  0  0  0
   -1.5950    8.5000   -7.3510 O   0  0  0  0  0  0  0  0  0  0  0  0
   -1.9270   10.1790   -5.6220 C   0  0  0  0  0  0  0  0  0  0  0  0
    0.4120   10.9710   -2.8710 O   0  0  0  0  0  0  0  0  0  0  0  0
    1.2090   12.9130   -2.1600 O   0  0  0  0  0  0  0  0  0  0  0  0
   -0.6250    7.4420   -7.2770 C   0  0  0  0  0  0  0  0  0  0  0  0
    0.5990    7.7650   -8.1440 C   0  0  0  0  0  0  0  0  0  0  0  0
    0.3520    8.6560   -9.3850 C   0  0  0  0  0  0  0  0  0  0  0  0
    1.1100    9.9960   -9.4320 C   0  0  0  0  0  0  0  0  0  0  0  0
    1.2720   10.5220  -10.7750 N   0  0  0  0  0  0  0  0  0  0  0  0
    2.0890    9.8000  -11.7330 C   0  0  2  0  0  0  0  0  0  0  0  0
    2.8340    8.7970  -11.0530 O   0  0  0  0  0  0  0  0  0  0  0  0
    2.9670   10.5870  -12.7390 C   0  0  1  0  0  0  0  0  0  0  0  0
    4.0130    9.7870  -13.3140 O   0  0  0  0  0  0  0  0  0  0  0  0
    2.3270   11.3380  -13.8820 C   0  0  0  0  0  0  0  0  0  0  0  0
    4.3890   10.3940  -14.5540 C   0  0  0  0  0  0  0  0  0  0  0  0
    3.5520   11.6500  -14.7070 C   0  0  0  0  0  0  0  0  0  0  0  0
  1  2  2  0
  2  3  1  0
  2  4  1  0
  3  5  1  0
  3  6  1  0
  4  7  2  0
  5  8  1  0
  7  9  1  0
  6 10  2  0
  7 10  1  0
  8 11  1  0
  8 12  2  0
  9 13  1  0
 13 14  1  0
 14 15  1  0
 15 16  1  0
 16 17  1  0
 17 18  1  0
 18 19  1  1
 18 20  1  0
 20 21  1  0
 20 22  1  6
 21 23  1  0
 22 24  1  0
 23 24  1  0
M  END
