x0864_0_A-x0662_0_A
     RDKit          3D

 28 31  0  0  0  0  0  0  0  0999 V2000
   -0.0180   10.8260   -6.7730 N   0  0  0  0  0  0  0  0  0  0  0  0
    0.8040   11.4620   -6.2180 C   0  0  0  0  0  0  0  0  0  0  0  0
    0.5540   11.8310   -4.8570 C   0  0  0  0  0  0  0  0  0  0  0  0
   -0.8210   10.6160   -6.1210 C   0  0  0  0  0  0  0  0  0  0  0  0
   -0.7050   11.1490   -4.8840 N   0  0  0  0  0  0  0  0  0  0  0  0
   -1.7470    9.8450   -6.6540 C   0  0  0  0  0  0  0  0  0  0  0  0
    1.0460   11.1050   -7.5390 C   0  0  0  0  0  0  0  0  0  0  0  0
    1.0680   12.4840   -3.6860 C   0  0  0  0  0  0  0  0  0  0  0  0
   -1.7700   10.8530   -4.0670 C   0  0  0  0  0  0  0  0  0  0  0  0
   -2.6770    9.4980   -5.9360 C   0  0  0  0  0  0  0  0  0  0  0  0
    0.0890   10.0090   -7.5050 C   0  0  0  0  0  0  0  0  0  0  0  0
    1.6660   11.2950   -8.7040 C   0  0  0  0  0  0  0  0  0  0  0  0
    1.4990   11.5120   -2.8680 O   0  0  0  0  0  0  0  0  0  0  0  0
    1.1570   13.6290   -3.3030 O   0  0  0  0  0  0  0  0  0  0  0  0
   -3.8360    8.3120   -6.7510 Br  0  0  0  0  0  0  0  0  0  0  0  0
   -2.7590   10.0230   -4.5690 C   0  0  0  0  0  0  0  0  0  0  0  0
   -0.2430    9.1680   -8.5430 C   0  0  0  0  0  0  0  0  0  0  0  0
    1.3220   10.4330   -9.7640 C   0  0  0  0  0  0  0  0  0  0  0  0
    1.8720   10.5140  -10.9840 N   0  0  0  0  0  0  0  0  0  0  0  0
    0.3920    9.3950   -9.7000 C   0  0  0  0  0  0  0  0  0  0  0  0
    2.4950    9.4680  -11.5620 C   0  0  0  0  0  0  0  0  0  0  0  0
    2.5000    8.2930  -11.2040 O   0  0  0  0  0  0  0  0  0  0  0  0
    3.2150    9.9560  -12.7080 C   0  0  0  0  0  0  0  0  0  0  0  0
    3.0640   11.2210  -13.3150 C   0  0  0  0  0  0  0  0  0  0  0  0
    4.1400    9.2020  -13.3070 N   0  0  0  0  0  0  0  0  0  0  0  0
    4.5800    9.9970  -14.2920 N   0  0  0  0  0  0  0  0  0  0  0  0
    3.9640   11.2200  -14.3390 C   0  0  0  0  0  0  0  0  0  0  0  0
    5.6190    9.5010  -15.1630 C   0  0  0  0  0  0  0  0  0  0  0  0
  1  2  1  0
  2  3  2  0
  1  4  2  0
  3  5  1  0
  4  5  1  0
  4  6  1  0
  2  7  1  0
  3  8  1  0
  5  9  1  0
  6 10  2  0
  7 11  2  0
  7 12  1  0
  8 13  1  0
  8 14  2  0
 10 15  1  0
  9 16  2  0
 10 16  1  0
 11 17  1  0
 12 18  2  0
 18 19  1  0
 17 20  2  0
 18 20  1  0
 19 21  1  0
 21 22  2  0
 21 23  1  0
 23 24  1  0
 23 25  2  0
 25 26  1  0
 24 27  2  0
 26 27  1  0
 26 28  1  0
M  END
