x0864_0_A-x0926_0_A
     RDKit          3D

 22 23  0  0  0  0  0  0  0  0999 V2000
    1.4590   12.0870   -6.5980 O   0  0  0  0  0  0  0  0  0  0  0  0
    0.4740   11.4570   -6.2250 C   0  0  0  0  0  0  0  0  0  0  0  0
   -0.1850   11.7130   -5.0210 N   0  0  0  0  0  0  0  0  0  0  0  0
   -0.0610   10.3460   -7.0520 C   0  0  0  0  0  0  0  0  0  0  0  0
    0.5290   12.4700   -3.9810 C   0  0  0  0  0  0  0  0  0  0  0  0
   -1.4020   11.1340   -4.7290 C   0  0  0  0  0  0  0  0  0  0  0  0
   -1.2040    9.7490   -6.6950 C   0  0  0  0  0  0  0  0  0  0  0  0
    0.4260   11.7880   -2.6050 C   0  0  0  0  0  0  0  0  0  0  0  0
   -1.9340    8.3380   -7.6740 Br  0  0  0  0  0  0  0  0  0  0  0  0
   -1.9230   10.1830   -5.5160 C   0  0  0  0  0  0  0  0  0  0  0  0
    0.4620   10.4300   -2.5990 O   0  0  0  0  0  0  0  0  0  0  0  0
    0.3050   12.4260   -1.4830 N   0  0  0  0  0  0  0  0  0  0  0  0
    0.2390   13.8860   -1.4000 C   0  0  0  0  0  0  0  0  0  0  0  0
   -0.2050   14.3070    0.0130 C   0  0  0  0  0  0  0  0  0  0  0  0
   -1.6430   13.9420    0.4310 C   0  0  0  0  0  0  0  0  0  0  0  0
   -2.6930   15.0520    0.3000 C   0  0  1  0  0  0  0  0  0  0  0  0
   -3.1870   15.1170   -1.1040 N   0  0  0  0  0  0  0  0  0  0  0  0
   -3.7670   14.9360    1.3130 C   0  0  0  0  0  0  0  0  0  0  0  0
   -5.0680   14.9840    1.0310 C   0  0  0  0  0  0  0  0  0  0  0  0
   -4.5500   15.4700   -1.2880 N   0  0  0  0  0  0  0  0  0  0  0  0
   -5.5160   15.1490   -0.3650 C   0  0  0  0  0  0  0  0  0  0  0  0
   -6.6960   14.9950   -0.6630 O   0  0  0  0  0  0  0  0  0  0  0  0
  1  2  2  0
  2  3  1  0
  2  4  1  0
  3  5  1  0
  3  6  1  0
  4  7  2  0
  5  8  1  0
  7  9  1  0
  6 10  2  0
  7 10  1  0
  8 11  1  0
  8 12  2  3
 12 13  1  0
 13 14  1  0
 14 15  1  0
 16 15  1  6
 16 17  1  0
 16 18  1  0
 18 19  2  0
 17 20  1  0
 19 21  1  0
 20 21  1  0
 21 22  2  0
M  END
