x0864_0_A-x0967_0_A
     RDKit          3D

 25 27  0  0  0  0  0  0  0  0999 V2000
    1.4590   12.0750   -6.6430 O   0  0  0  0  0  0  0  0  0  0  0  0
    0.4660   11.4580   -6.2710 C   0  0  0  0  0  0  0  0  0  0  0  0
   -0.2090   11.7440   -5.0860 N   0  0  0  0  0  0  0  0  0  0  0  0
   -0.0550   10.3310   -7.0860 C   0  0  0  0  0  0  0  0  0  0  0  0
    0.5400   12.4150   -4.0070 C   0  0  0  0  0  0  0  0  0  0  0  0
   -1.4260   11.1570   -4.7920 C   0  0  0  0  0  0  0  0  0  0  0  0
   -1.1990    9.7310   -6.7300 C   0  0  0  0  0  0  0  0  0  0  0  0
    0.4960   11.6210   -2.6940 C   0  0  0  0  0  0  0  0  0  0  0  0
   -1.9150    8.3020   -7.6900 Br  0  0  0  0  0  0  0  0  0  0  0  0
   -1.9240   10.1840   -5.5680 C   0  0  0  0  0  0  0  0  0  0  0  0
    0.5430   10.2770   -2.7740 O   0  0  0  0  0  0  0  0  0  0  0  0
    0.4070   12.1270   -1.5170 N   0  0  0  0  0  0  0  0  0  0  0  0
    0.3200   13.5350   -1.2140 C   0  0  0  0  0  0  0  0  0  0  0  0
   -0.6420   13.6270   -0.0310 C   0  0  0  0  0  0  0  0  0  0  0  0
   -1.3490   14.9460   -0.0620 C   0  0  0  0  0  0  0  0  0  0  0  0
   -2.8610   14.8800   -0.2080 C   0  0  0  0  0  0  0  0  0  0  0  0
   -3.4800   14.8650   -1.4560 C   0  0  0  0  0  0  0  0  0  0  0  0
   -3.7100   14.8340    0.8940 C   0  0  0  0  0  0  0  0  0  0  0  0
   -5.1010   14.7690    0.7040 C   0  0  0  0  0  0  0  0  0  0  0  0
   -4.8190   14.8040   -1.6570 N   0  0  0  0  0  0  0  0  0  0  0  0
   -5.6300   14.7530   -0.6030 C   0  0  0  0  0  0  0  0  0  0  0  0
   -5.9880   14.7160    1.7830 C   0  0  0  0  0  0  0  0  0  0  0  0
   -6.9530   14.6850   -0.8060 N   0  0  0  0  0  0  0  0  0  0  0  0
   -7.3550   14.6430    1.5690 C   0  0  0  0  0  0  0  0  0  0  0  0
   -7.7870   14.6300    0.2590 C   0  0  0  0  0  0  0  0  0  0  0  0
  1  2  2  0
  2  3  1  0
  2  4  1  0
  3  5  1  0
  3  6  1  0
  4  7  2  0
  5  8  1  0
  7  9  1  0
  6 10  2  0
  7 10  1  0
  8 11  1  0
  8 12  2  3
 12 13  1  0
 13 14  1  0
 14 15  1  0
 15 16  1  0
 16 17  2  0
 16 18  1  0
 18 19  2  0
 17 20  1  0
 19 21  1  0
 20 21  2  0
 19 22  1  0
 21 23  1  0
 22 24  2  0
 23 25  2  0
 24 25  1  0
M  END
