x0864_0_A-x0950_0_A
     RDKit          3D

 13 13  0  0  0  0  0  0  0  0999 V2000
    1.5740   11.8730   -6.9490 O   0  0  0  0  0  0  0  0  0  0  0  0
    0.5760   11.3580   -6.4830 C   0  0  0  0  0  0  0  0  0  0  0  0
    0.0150   11.7720   -5.2820 N   0  0  0  0  0  0  0  0  0  0  0  0
   -0.0600   10.2290   -7.1920 C   0  0  0  0  0  0  0  0  0  0  0  0
    0.8310   12.6680   -4.4110 C   0  0  1  0  0  0  0  0  0  0  0  0
   -1.2100   11.2580   -4.8670 C   0  0  0  0  0  0  0  0  0  0  0  0
   -1.2010    9.7170   -6.7270 C   0  0  0  0  0  0  0  0  0  0  0  0
    0.7640   12.1970   -2.9590 C   0  0  0  0  0  0  0  0  0  0  0  0
   -2.0510    8.2880   -7.5680 Br  0  0  0  0  0  0  0  0  0  0  0  0
    2.3050   12.9470   -4.7660 C   0  0  0  0  0  0  0  0  0  0  0  0
   -1.8120   10.2690   -5.5440 C   0  0  0  0  0  0  0  0  0  0  0  0
    0.4150   10.8960   -2.8100 O   0  0  0  0  0  0  0  0  0  0  0  0
    1.0050   12.9100   -2.0000 O   0  0  0  0  0  0  0  0  0  0  0  0
  1  2  2  0
  2  3  1  0
  2  4  1  0
  3  5  1  0
  3  6  1  0
  4  7  2  0
  5  8  1  0
  7  9  1  0
  5 10  1  6
  6 11  2  0
  7 11  1  0
  8 12  1  0
  8 13  2  0
M  END
