x0864_0_A-x0910_0_A
     RDKit          3D

 21 22  0  0  0  0  0  0  0  0999 V2000
    1.5440   11.7300   -6.9990 O   0  0  0  0  0  0  0  0  0  0  0  0
    0.5030   11.2730   -6.5510 C   0  0  0  0  0  0  0  0  0  0  0  0
   -0.1020   11.7350   -5.4010 N   0  0  0  0  0  0  0  0  0  0  0  0
   -0.1530   10.1480   -7.2470 C   0  0  0  0  0  0  0  0  0  0  0  0
    0.7100   12.5990   -4.5550 C   0  0  0  0  0  0  0  0  0  0  0  0
   -1.2740   11.1810   -4.9120 C   0  0  0  0  0  0  0  0  0  0  0  0
   -1.2810    9.6270   -6.7530 C   0  0  0  0  0  0  0  0  0  0  0  0
    0.7380   12.1600   -3.1040 C   0  0  0  0  0  0  0  0  0  0  0  0
   -2.1450    8.2040   -7.5860 Br  0  0  0  0  0  0  0  0  0  0  0  0
   -1.8650   10.1620   -5.5460 C   0  0  0  0  0  0  0  0  0  0  0  0
    0.3990   10.8710   -2.8860 O   0  0  0  0  0  0  0  0  0  0  0  0
    1.0320   12.8330   -2.0590 N   0  0  0  0  0  0  0  0  0  0  0  0
    1.4180   14.2290   -2.2730 C   0  0  0  0  0  0  0  0  0  0  0  0
    0.2440   15.0530   -2.8360 C   0  0  0  0  0  0  0  0  0  0  0  0
   -1.1010   14.3060   -3.0050 C   0  0  0  0  0  0  0  0  0  0  0  0
   -2.0360   14.5970   -1.9190 N   0  0  0  0  0  0  0  0  0  0  0  0
   -1.4990   14.6860   -0.6960 C   0  0  0  0  0  0  0  0  0  0  0  0
   -2.2470   14.7160    0.4490 N   0  0  0  0  0  0  0  0  0  0  0  0
   -0.2350   14.7590   -0.3830 N   0  0  0  0  0  0  0  0  0  0  0  0
   -1.4600   14.8110    1.5270 N   0  0  0  0  0  0  0  0  0  0  0  0
   -0.2540   14.8370    0.9720 C   0  0  0  0  0  0  0  0  0  0  0  0
  1  2  2  0
  2  3  1  0
  2  4  1  0
  3  5  1  0
  3  6  1  0
  4  7  2  0
  5  8  1  0
  7  9  1  0
  6 10  2  0
  7 10  1  0
  8 11  1  0
  8 12  2  3
 12 13  1  0
 13 14  1  0
 14 15  1  0
 15 16  1  0
 16 17  1  0
 17 18  1  0
 17 19  2  0
 18 20  1  0
 19 21  1  0
 20 21  2  0
M  END
