x0864_0_A-x0724_0_A
     RDKit          3D

 29 31  0  0  0  0  0  0  0  0999 V2000
    1.4890   11.8110   -6.9570 O   0  0  0  0  0  0  0  0  0  0  0  0
    0.4800   11.2640   -6.5290 C   0  0  0  0  0  0  0  0  0  0  0  0
   -0.1360   11.6490   -5.3560 N   0  0  0  0  0  0  0  0  0  0  0  0
   -0.1230   10.1240   -7.2480 C   0  0  0  0  0  0  0  0  0  0  0  0
    0.5600   12.6410   -4.5560 C   0  0  0  0  0  0  0  0  0  0  0  0
   -1.3410   11.1210   -4.9370 C   0  0  0  0  0  0  0  0  0  0  0  0
   -1.2650    9.5910   -6.7950 C   0  0  0  0  0  0  0  0  0  0  0  0
    0.7590   12.1180   -3.1460 C   0  0  0  0  0  0  0  0  0  0  0  0
   -2.0760    8.1490   -7.6530 Br  0  0  0  0  0  0  0  0  0  0  0  0
   -1.9120   10.1210   -5.6160 C   0  0  0  0  0  0  0  0  0  0  0  0
    0.6210   10.7890   -2.9440 O   0  0  0  0  0  0  0  0  0  0  0  0
    1.0380   12.9420   -2.2170 N   0  0  0  0  0  0  0  0  0  0  0  0
    1.1220   14.3360   -2.6380 C   0  0  0  0  0  0  0  0  0  0  0  0
   -0.2860   14.9130   -2.5220 C   0  0  0  0  0  0  0  0  0  0  0  0
   -0.7500   14.7250   -1.0800 C   0  0  0  0  0  0  0  0  0  0  0  0
   -2.2430   14.7210   -0.7830 C   0  0  0  0  0  0  0  0  0  0  0  0
   -2.5350   14.8410    0.5690 C   0  0  0  0  0  0  0  0  0  0  0  0
   -3.3100   14.6040   -1.7070 C   0  0  0  0  0  0  0  0  0  0  0  0
   -3.8310   14.8500    1.0340 C   0  0  0  0  0  0  0  0  0  0  0  0
   -4.6460   14.6130   -1.2330 C   0  0  0  0  0  0  0  0  0  0  0  0
   -4.8980   14.7310    0.1540 C   0  0  0  0  0  0  0  0  0  0  0  0
   -6.1980   14.7450    0.7320 N   0  0  0  0  0  0  0  0  0  0  0  0
   -7.3550   14.6400    0.0280 N   0  0  0  0  0  0  0  0  0  0  0  0
   -6.4490   14.8710    2.0840 C   0  0  0  0  0  0  0  0  0  0  0  0
   -7.8110   14.8620    2.2700 C   0  0  0  0  0  0  0  0  0  0  0  0
   -8.3160   14.7120    0.9590 C   0  0  0  0  0  0  0  0  0  0  0  0
   -8.5600   14.9900    3.5490 C   0  0  0  0  0  0  0  0  0  0  0  0
   -8.2900   13.8120    4.3660 N   0  0  0  0  0  0  0  0  0  0  0  0
   -8.7300   14.0080    5.7410 C   0  0  0  0  0  0  0  0  0  0  0  0
  1  2  2  0
  2  3  1  0
  2  4  1  0
  3  5  1  0
  3  6  1  0
  4  7  2  0
  5  8  1  0
  7  9  1  0
  6 10  2  0
  7 10  1  0
  8 11  1  0
  8 12  2  3
 12 13  1  0
 13 14  1  0
 14 15  1  0
 15 16  1  0
 16 17  2  0
 16 18  1  0
 17 19  1  0
 18 20  2  0
 19 21  2  0
 20 21  1  0
 21 22  1  0
 22 23  1  0
 22 24  1  0
 24 25  2  0
 23 26  2  0
 25 26  1  0
 25 27  1  0
 27 28  1  0
 28 29  1  0
M  END
