x0864_0_A_α-x0950_0_A_α
     RDKit          3D

 13 13  0  0  0  0  0  0  0  0999 V2000
    1.5800   11.8820   -6.9450 O   0  0  0  0  0  0  0  0  0  0  0  0
    0.5670   11.3790   -6.4900 C   0  0  0  0  0  0  0  0  0  0  0  0
   -0.0060   11.8120   -5.3000 N   0  0  0  0  0  0  0  0  0  0  0  0
   -0.0730   10.2520   -7.2060 C   0  0  0  0  0  0  0  0  0  0  0  0
    0.8230   12.6920   -4.4230 C   0  0  1  0  0  0  0  0  0  0  0  0
   -1.2110   11.2680   -4.8700 C   0  0  0  0  0  0  0  0  0  0  0  0
   -1.2090    9.7320   -6.7330 C   0  0  0  0  0  0  0  0  0  0  0  0
    0.7470   12.2020   -2.9770 C   0  0  0  0  0  0  0  0  0  0  0  0
   -2.0610    8.3050   -7.5810 Br  0  0  0  0  0  0  0  0  0  0  0  0
    2.3070   12.9250   -4.7720 C   0  0  0  0  0  0  0  0  0  0  0  0
   -1.8100   10.2710   -5.5350 C   0  0  0  0  0  0  0  0  0  0  0  0
    0.3150   10.9230   -2.8510 O   0  0  0  0  0  0  0  0  0  0  0  0
    1.0480   12.8790   -2.0080 O   0  0  0  0  0  0  0  0  0  0  0  0
  1  2  2  0
  2  3  1  0
  2  4  1  0
  3  5  1  0
  3  6  1  0
  4  7  2  0
  5  8  1  0
  7  9  1  0
  5 10  1  6
  6 11  2  0
  7 11  1  0
  8 12  1  0
  8 13  2  0
M  END
