x0864_0_A-x0628_0_A
     RDKit          3D

 14 14  0  0  0  0  0  0  0  0999 V2000
    1.5560   11.7730   -6.9820 O   0  0  0  0  0  0  0  0  0  0  0  0
    0.5180   11.3490   -6.5100 C   0  0  0  0  0  0  0  0  0  0  0  0
   -0.0860   11.8750   -5.3680 N   0  0  0  0  0  0  0  0  0  0  0  0
   -0.1070   10.1790   -7.1560 C   0  0  0  0  0  0  0  0  0  0  0  0
    0.9330   12.4890   -4.4770 C   0  0  2  0  0  0  0  0  0  0  0  0
   -1.3560   11.4110   -4.9530 C   0  0  0  0  0  0  0  0  0  0  0  0
   -1.2720    9.7170   -6.7100 C   0  0  0  0  0  0  0  0  0  0  0  0
    0.7630   12.1510   -3.0030 C   0  0  0  0  0  0  0  0  0  0  0  0
   -2.0980    8.2410   -7.4950 Br  0  0  0  0  0  0  0  0  0  0  0  0
   -2.1000   12.0430   -3.8080 C   0  0  0  0  0  0  0  0  0  0  0  0
    1.2480   13.9470   -4.7370 C   0  0  0  0  0  0  0  0  0  0  0  0
   -1.9260   10.3660   -5.6010 C   0  0  0  0  0  0  0  0  0  0  0  0
    0.2690   10.9160   -2.7970 O   0  0  0  0  0  0  0  0  0  0  0  0
    1.0330   12.8680   -2.0520 O   0  0  0  0  0  0  0  0  0  0  0  0
  1  2  2  0
  2  3  1  0
  2  4  1  0
  3  5  1  0
  3  6  1  0
  4  7  2  0
  5  8  1  0
  7  9  1  0
  6 10  1  0
  5 11  1  1
  6 12  2  0
  7 12  1  0
  8 13  1  0
  8 14  2  0
M  END
