x0864_0_A_α-x0805_0_A_α
     RDKit          3D

 21 22  0  0  0  0  0  0  0  0999 V2000
    1.4080   12.0560   -6.4730 O   0  0  0  0  0  0  0  0  0  0  0  0
    0.3570   11.4410   -6.2910 C   0  0  0  0  0  0  0  0  0  0  0  0
   -0.5800   11.7780   -5.3120 N   0  0  0  0  0  0  0  0  0  0  0  0
    0.0400   10.2640   -7.1390 C   0  0  0  0  0  0  0  0  0  0  0  0
   -0.2830   12.5000   -4.0560 C   0  0  1  0  0  0  0  0  0  0  0  0
   -1.7590   11.0650   -5.1920 C   0  0  0  0  0  0  0  0  0  0  0  0
   -1.1130    9.6000   -6.9570 C   0  0  0  0  0  0  0  0  0  0  0  0
    0.8670   12.0960   -3.1460 C   0  0  0  0  0  0  0  0  0  0  0  0
   -1.6000    8.1120   -7.9620 Br  0  0  0  0  0  0  0  0  0  0  0  0
   -0.6040   13.9900   -3.9950 C   0  0  0  0  0  0  0  0  0  0  0  0
   -2.0420   10.0260   -5.9550 C   0  0  0  0  0  0  0  0  0  0  0  0
    0.8130   10.8260   -2.7170 O   0  0  0  0  0  0  0  0  0  0  0  0
    1.7570   12.8570   -2.7980 O   0  0  0  0  0  0  0  0  0  0  0  0
   -1.8560   14.0710   -3.1570 C   0  0  0  0  0  0  0  0  0  0  0  0
   -3.0270   13.4530   -3.6020 C   0  0  0  0  0  0  0  0  0  0  0  0
   -1.8570   14.7450   -1.9340 C   0  0  0  0  0  0  0  0  0  0  0  0
   -4.1840   13.5070   -2.8330 C   0  0  0  0  0  0  0  0  0  0  0  0
   -3.0140   14.8060   -1.1590 C   0  0  0  0  0  0  0  0  0  0  0  0
   -3.1080   15.4450    0.0480 O   0  0  0  0  0  0  0  0  0  0  0  0
   -4.1760   14.1830   -1.6120 C   0  0  0  0  0  0  0  0  0  0  0  0
   -4.3550   15.4620    0.7220 C   0  0  0  0  0  0  0  0  0  0  0  0
  1  2  2  0
  2  3  1  0
  2  4  1  0
  3  5  1  0
  3  6  1  0
  4  7  2  0
  5  8  1  0
  7  9  1  0
  5 10  1  6
  6 11  2  0
  7 11  1  0
  8 12  1  0
  8 13  2  0
 10 14  1  0
 14 15  2  0
 14 16  1  0
 15 17  1  0
 16 18  2  0
 18 19  1  0
 17 20  2  0
 18 20  1  0
 19 21  1  0
M  END
