x0864_0_A-x0905_0_A
     RDKit          3D

 22 23  0  0  0  0  0  0  0  0999 V2000
    1.4870   12.0830   -6.5520 O   0  0  0  0  0  0  0  0  0  0  0  0
    0.4860   11.4650   -6.1970 C   0  0  0  0  0  0  0  0  0  0  0  0
   -0.2100   11.7470   -5.0180 N   0  0  0  0  0  0  0  0  0  0  0  0
   -0.0260   10.3400   -7.0210 C   0  0  0  0  0  0  0  0  0  0  0  0
    0.4630   12.5260   -3.9610 C   0  0  0  0  0  0  0  0  0  0  0  0
   -1.4380   11.1710   -4.7560 C   0  0  0  0  0  0  0  0  0  0  0  0
   -1.1820    9.7500   -6.6880 C   0  0  0  0  0  0  0  0  0  0  0  0
    0.4290   11.7680   -2.6250 C   0  0  0  0  0  0  0  0  0  0  0  0
   -1.8860    8.3250   -7.6660 Br  0  0  0  0  0  0  0  0  0  0  0  0
   -1.9320   10.2080   -5.5440 C   0  0  0  0  0  0  0  0  0  0  0  0
    0.5340   10.4210   -2.6860 O   0  0  0  0  0  0  0  0  0  0  0  0
    0.2930   12.2890   -1.4490 N   0  0  0  0  0  0  0  0  0  0  0  0
    0.1130   13.7080   -1.1570 C   0  0  0  0  0  0  0  0  0  0  0  0
   -0.6910   13.6820    0.1550 C   0  0  0  0  0  0  0  0  0  0  0  0
   -1.4390   14.9260    0.5930 C   0  0  0  0  0  0  0  0  0  0  0  0
   -2.8880   15.0320    0.1080 C   0  0  0  0  0  0  0  0  0  0  0  0
   -3.9250   14.9470    1.0290 C   0  0  0  0  0  0  0  0  0  0  0  0
   -3.2690   15.2050   -1.2350 C   0  0  0  0  0  0  0  0  0  0  0  0
   -5.2400   15.0160    0.7270 N   0  0  0  0  0  0  0  0  0  0  0  0
   -4.6230   15.2820   -1.5790 C   0  0  0  0  0  0  0  0  0  0  0  0
   -5.5590   15.1810   -0.5640 C   0  0  0  0  0  0  0  0  0  0  0  0
   -6.9010   15.2380   -0.8220 O   0  0  0  0  0  0  0  0  0  0  0  0
  1  2  2  0
  2  3  1  0
  2  4  1  0
  3  5  1  0
  3  6  1  0
  4  7  2  0
  5  8  1  0
  7  9  1  0
  6 10  2  0
  7 10  1  0
  8 11  1  0
  8 12  2  3
 12 13  1  0
 13 14  1  0
 14 15  1  0
 15 16  1  0
 16 17  2  0
 16 18  1  0
 17 19  1  0
 18 20  2  0
 19 21  2  0
 20 21  1  0
 21 22  1  0
M  END
