x0864_0_A-x0849_0_A
     RDKit          3D

 24 26  0  0  0  0  0  0  0  0999 V2000
    1.5590   11.7140   -6.9890 O   0  0  0  0  0  0  0  0  0  0  0  0
    0.5070   11.2710   -6.5630 C   0  0  0  0  0  0  0  0  0  0  0  0
   -0.1330   11.7560   -5.4450 N   0  0  0  0  0  0  0  0  0  0  0  0
   -0.1410   10.1310   -7.2510 C   0  0  0  0  0  0  0  0  0  0  0  0
    0.5070   12.8890   -4.7970 C   0  0  0  0  0  0  0  0  0  0  0  0
   -1.2910   11.1990   -4.9390 C   0  0  0  0  0  0  0  0  0  0  0  0
   -1.2700    9.6140   -6.7550 C   0  0  0  0  0  0  0  0  0  0  0  0
    0.6820   12.7090   -3.3050 C   0  0  0  0  0  0  0  0  0  0  0  0
   -2.1220    8.1750   -7.5780 Br  0  0  0  0  0  0  0  0  0  0  0  0
   -1.8660   10.1560   -5.5570 C   0  0  0  0  0  0  0  0  0  0  0  0
    0.6610   11.4240   -2.8670 O   0  0  0  0  0  0  0  0  0  0  0  0
    0.8310   13.7520   -2.5720 N   0  0  0  0  0  0  0  0  0  0  0  0
    0.9900   13.6260   -1.1550 C   0  0  0  0  0  0  0  0  0  0  0  0
   -0.1980   14.0560   -0.3630 C   0  0  0  0  0  0  0  0  0  0  0  0
   -0.2570   14.0930    1.0260 C   0  0  0  0  0  0  0  0  0  0  0  0
   -1.3350   14.4300   -1.0230 C   0  0  0  0  0  0  0  0  0  0  0  0
   -2.4720   14.8040   -0.3100 C   0  0  0  0  0  0  0  0  0  0  0  0
   -1.3270   14.4580    1.7370 N   0  0  0  0  0  0  0  0  0  0  0  0
   -2.4130   14.7970    1.0820 C   0  0  0  0  0  0  0  0  0  0  0  0
   -3.6690   15.1810   -0.9160 C   0  0  0  0  0  0  0  0  0  0  0  0
   -3.8370   15.2130   -2.8060 Br  0  0  0  0  0  0  0  0  0  0  0  0
   -3.4510   15.1260    1.8060 N   0  0  0  0  0  0  0  0  0  0  0  0
   -4.7590   15.5320   -0.1490 C   0  0  0  0  0  0  0  0  0  0  0  0
   -4.5860   15.4800    1.2130 C   0  0  0  0  0  0  0  0  0  0  0  0
  1  2  2  0
  2  3  1  0
  2  4  1  0
  3  5  1  0
  3  6  1  0
  4  7  2  0
  5  8  1  0
  7  9  1  0
  6 10  2  0
  7 10  1  0
  8 11  1  0
  8 12  2  3
 12 13  1  0
 13 14  1  0
 14 15  2  0
 14 16  1  0
 16 17  2  0
 15 18  1  0
 17 19  1  0
 18 19  2  0
 17 20  1  0
 20 21  1  0
 19 22  1  0
 20 23  2  0
 22 24  2  0
 23 24  1  0
M  END
