x0864_0_A-x0926_0_A
     RDKit          3D

 22 23  0  0  0  0  0  0  0  0999 V2000
    1.4730   12.0750   -6.5870 O   0  0  0  0  0  0  0  0  0  0  0  0
    0.4790   11.4560   -6.2170 C   0  0  0  0  0  0  0  0  0  0  0  0
   -0.1860   11.7190   -5.0210 N   0  0  0  0  0  0  0  0  0  0  0  0
   -0.0600   10.3480   -7.0490 C   0  0  0  0  0  0  0  0  0  0  0  0
    0.5210   12.4770   -3.9730 C   0  0  0  0  0  0  0  0  0  0  0  0
   -1.4040   11.1400   -4.7270 C   0  0  0  0  0  0  0  0  0  0  0  0
   -1.2080    9.7540   -6.6920 C   0  0  0  0  0  0  0  0  0  0  0  0
    0.4120   11.7850   -2.6040 C   0  0  0  0  0  0  0  0  0  0  0  0
   -1.9440    8.3500   -7.6770 Br  0  0  0  0  0  0  0  0  0  0  0  0
   -1.9210   10.1870   -5.5150 C   0  0  0  0  0  0  0  0  0  0  0  0
    0.4550   10.4270   -2.6050 O   0  0  0  0  0  0  0  0  0  0  0  0
    0.2850   12.4160   -1.4750 N   0  0  0  0  0  0  0  0  0  0  0  0
    0.2140   13.8730   -1.3790 C   0  0  0  0  0  0  0  0  0  0  0  0
   -0.2220   14.2790    0.0420 C   0  0  0  0  0  0  0  0  0  0  0  0
   -1.6660   13.9360    0.4590 C   0  0  0  0  0  0  0  0  0  0  0  0
   -2.6950   15.0600    0.3070 C   0  0  1  0  0  0  0  0  0  0  0  0
   -3.1770   15.1170   -1.1030 N   0  0  0  0  0  0  0  0  0  0  0  0
   -3.7810   14.9770    1.3180 C   0  0  0  0  0  0  0  0  0  0  0  0
   -5.0780   15.0120    1.0200 C   0  0  0  0  0  0  0  0  0  0  0  0
   -4.5400   15.4550   -1.2980 N   0  0  0  0  0  0  0  0  0  0  0  0
   -5.5140   15.1340   -0.3790 C   0  0  0  0  0  0  0  0  0  0  0  0
   -6.6890   14.9550   -0.6870 O   0  0  0  0  0  0  0  0  0  0  0  0
  1  2  2  0
  2  3  1  0
  2  4  1  0
  3  5  1  0
  3  6  1  0
  4  7  2  0
  5  8  1  0
  7  9  1  0
  6 10  2  0
  7 10  1  0
  8 11  1  0
  8 12  2  3
 12 13  1  0
 13 14  1  0
 14 15  1  0
 16 15  1  6
 16 17  1  0
 16 18  1  0
 18 19  2  0
 17 20  1  0
 19 21  1  0
 20 21  1  0
 21 22  2  0
M  END
