x0864_0_A-x0855_0_A
     RDKit          3D

 12 12  0  0  0  0  0  0  0  0999 V2000
    1.5610   11.8150   -6.8760 O   0  0  0  0  0  0  0  0  0  0  0  0
    0.4990   11.3510   -6.4920 C   0  0  0  0  0  0  0  0  0  0  0  0
   -0.1890   11.8160   -5.3830 N   0  0  0  0  0  0  0  0  0  0  0  0
   -0.1040   10.2100   -7.2160 C   0  0  0  0  0  0  0  0  0  0  0  0
    0.5300   12.7630   -4.5380 C   0  0  0  0  0  0  0  0  0  0  0  0
   -1.3480   11.2110   -4.9270 C   0  0  0  0  0  0  0  0  0  0  0  0
   -1.2350    9.6550   -6.7650 C   0  0  0  0  0  0  0  0  0  0  0  0
    0.7250   12.3160   -3.0950 C   0  0  0  0  0  0  0  0  0  0  0  0
   -2.0360    8.2130   -7.6310 Br  0  0  0  0  0  0  0  0  0  0  0  0
   -1.8760   10.1640   -5.5750 C   0  0  0  0  0  0  0  0  0  0  0  0
    0.4530   11.0240   -2.8270 O   0  0  0  0  0  0  0  0  0  0  0  0
    1.1080   13.0380   -2.1930 O   0  0  0  0  0  0  0  0  0  0  0  0
  1  2  2  0
  2  3  1  0
  2  4  1  0
  3  5  1  0
  3  6  1  0
  4  7  2  0
  5  8  1  0
  7  9  1  0
  6 10  2  0
  7 10  1  0
  8 11  1  0
  8 12  2  0
M  END
