x0864_0_A_α-x0290_0_A_α
     RDKit          3D

 27 28  0  0  0  0  0  0  0  0999 V2000
    1.5390   11.8220   -6.9150 O   0  0  0  0  0  0  0  0  0  0  0  0
    0.5080   11.3150   -6.4980 C   0  0  0  0  0  0  0  0  0  0  0  0
   -0.1130   11.7450   -5.3410 N   0  0  0  0  0  0  0  0  0  0  0  0
   -0.1180   10.1820   -7.2150 C   0  0  0  0  0  0  0  0  0  0  0  0
    0.6700   12.6420   -4.4940 C   0  0  0  0  0  0  0  0  0  0  0  0
   -1.3000   11.1990   -4.8950 C   0  0  0  0  0  0  0  0  0  0  0  0
   -1.2540    9.6530   -6.7490 C   0  0  0  0  0  0  0  0  0  0  0  0
    0.7410   12.1400   -3.0600 C   0  0  0  0  0  0  0  0  0  0  0  0
   -2.0860    8.2170   -7.6020 Br  0  0  0  0  0  0  0  0  0  0  0  0
   -1.8780   10.1830   -5.5550 C   0  0  0  0  0  0  0  0  0  0  0  0
    0.3320   10.8680   -2.8430 O   0  0  0  0  0  0  0  0  0  0  0  0
    1.1640   12.8960   -2.1160 N   0  0  0  0  0  0  0  0  0  0  0  0
    1.6080   14.2530   -2.4480 C   0  0  0  0  0  0  0  0  0  0  0  0
    0.4100   15.1290   -2.8380 C   0  0  0  0  0  0  0  0  0  0  0  0
   -0.9600   14.5480   -2.4640 C   0  0  0  0  0  0  0  0  0  0  0  0
   -1.2480   14.5540   -0.9800 C   0  0  0  0  0  0  0  0  0  0  0  0
   -0.2180   14.4920   -0.0410 C   0  0  0  0  0  0  0  0  0  0  0  0
   -2.5670   14.6260   -0.5200 C   0  0  0  0  0  0  0  0  0  0  0  0
   -0.5570   14.5000    1.2970 C   0  0  0  0  0  0  0  0  0  0  0  0
   -2.8260   14.6310    0.8380 C   0  0  0  0  0  0  0  0  0  0  0  0
   -4.1030   14.6930    1.3810 N   0  0  0  0  0  0  0  0  0  0  0  0
   -1.8230   14.5680    1.7540 N   0  0  0  0  0  0  0  0  0  0  0  0
   -5.3320   14.4710    0.8420 C   0  0  0  0  0  0  0  0  0  0  0  0
   -5.4500   14.5250   -0.3880 O   0  0  0  0  0  0  0  0  0  0  0  0
   -6.5560   14.1440    1.7020 C   0  0  0  0  0  0  0  0  0  0  0  0
   -7.7170   13.8410    0.8470 N   0  0  0  0  0  0  0  0  0  0  0  0
   -8.6350   14.9680    0.7590 C   0  0  0  0  0  0  0  0  0  0  0  0
  1  2  2  0
  2  3  1  0
  2  4  1  0
  3  5  1  0
  3  6  1  0
  4  7  2  0
  5  8  1  0
  7  9  1  0
  6 10  2  0
  7 10  1  0
  8 11  1  0
  8 12  2  3
 12 13  1  0
 13 14  1  0
 14 15  1  0
 15 16  1  0
 16 17  2  0
 16 18  1  0
 17 19  1  0
 18 20  2  0
 20 21  1  0
 19 22  2  0
 20 22  1  0
 21 23  1  0
 23 24  2  0
 23 25  1  0
 25 26  1  0
 26 27  1  0
M  END
