x0864_0_A-x0962_3_A
     RDKit          3D

 18 19  0  0  0  0  0  0  0  0999 V2000
    0.8740   11.4030   -7.1590 C   0  0  0  0  0  0  0  0  0  0  0  0
    1.0080   10.3950   -7.6660 C   0  0  0  0  0  0  0  0  0  0  0  0
    0.4410    9.1850   -7.9380 C   0  0  0  0  0  0  0  0  0  0  0  0
    0.0190   12.3330   -6.5170 C   0  0  2  0  0  0  0  0  0  0  0  0
   -0.1000   12.0670   -5.0790 N   0  0  0  0  0  0  0  0  0  0  0  0
   -1.3050   11.9720   -7.2350 C   0  0  0  0  0  0  0  0  0  0  0  0
    0.9430   12.6990   -4.2670 C   0  0  0  0  0  0  0  0  0  0  0  0
   -0.6840   10.8740   -4.6820 C   0  0  0  0  0  0  0  0  0  0  0  0
   -2.1540   10.8320   -6.6320 C   0  0  1  0  0  0  0  0  0  0  0  0
    0.5400    8.4280   -9.0520 N   0  0  0  0  0  0  0  0  0  0  0  0
   -0.3810    8.5200   -7.0810 C   0  0  0  0  0  0  0  0  0  0  0  0
    0.8930   12.3020   -2.7950 C   0  0  0  0  0  0  0  0  0  0  0  0
   -2.4560    9.3570   -7.8900 Br  0  0  0  0  0  0  0  0  0  0  0  0
   -1.6390   10.2590   -5.3660 C   0  0  0  0  0  0  0  0  0  0  0  0
   -0.2420    7.3290   -8.8190 C   0  0  0  0  0  0  0  0  0  0  0  0
   -0.8120    7.3600   -7.6350 N   0  0  0  0  0  0  0  0  0  0  0  0
    0.4900   11.0180   -2.6140 O   0  0  0  0  0  0  0  0  0  0  0  0
    1.1600   12.9950   -1.8370 O   0  0  0  0  0  0  0  0  0  0  0  0
  1  2  3  0
  2  3  1  0
  4  1  1  6
  4  5  1  0
  4  6  1  0
  5  7  1  0
  5  8  1  0
  6  9  1  0
  3 10  1  0
  3 11  2  0
  7 12  1  0
  9 13  1  6
  8 14  2  0
  9 14  1  0
 10 15  1  0
 11 16  1  0
 15 16  2  0
 12 17  1  0
 12 18  2  0
M  END
