x0864_0_A-x0933_0_A
     RDKit          3D

 22 23  0  0  0  0  0  0  0  0999 V2000
    1.4480   12.0430   -6.6920 O   0  0  0  0  0  0  0  0  0  0  0  0
    0.4650   11.4230   -6.2990 C   0  0  0  0  0  0  0  0  0  0  0  0
   -0.1600   11.6870   -5.0850 N   0  0  0  0  0  0  0  0  0  0  0  0
   -0.0990   10.3210   -7.1140 C   0  0  0  0  0  0  0  0  0  0  0  0
    0.5890   12.4480   -4.0770 C   0  0  0  0  0  0  0  0  0  0  0  0
   -1.3720   11.1120   -4.7530 C   0  0  0  0  0  0  0  0  0  0  0  0
   -1.2340    9.7280   -6.7240 C   0  0  0  0  0  0  0  0  0  0  0  0
    0.5370   11.7840   -2.6880 C   0  0  0  0  0  0  0  0  0  0  0  0
   -1.9970    8.3280   -7.6930 Br  0  0  0  0  0  0  0  0  0  0  0  0
   -1.9140   10.1620   -5.5250 C   0  0  0  0  0  0  0  0  0  0  0  0
    0.4030   10.4300   -2.6620 O   0  0  0  0  0  0  0  0  0  0  0  0
    0.6170   12.4500   -1.5810 N   0  0  0  0  0  0  0  0  0  0  0  0
    0.7700   13.9090   -1.6170 C   0  0  0  0  0  0  0  0  0  0  0  0
   -0.3890   14.4840   -0.8050 C   0  0  0  0  0  0  0  0  0  0  0  0
   -1.7160   14.4460   -1.5830 C   0  0  0  0  0  0  0  0  0  0  0  0
   -2.9730   14.8770   -0.7820 C   0  0  1  0  0  0  0  0  0  0  0  0
   -4.2090   14.0280   -1.0610 C   0  0  0  0  0  0  0  0  0  0  0  0
   -2.6820   14.8480    0.7280 C   0  0  0  0  0  0  0  0  0  0  0  0
   -5.3860   14.5290   -0.3570 N   0  0  0  0  0  0  0  0  0  0  0  0
   -3.8910   14.5690    1.4730 N   0  0  0  0  0  0  0  0  0  0  0  0
   -5.0330   15.1550    0.8730 C   0  0  2  0  0  0  0  0  0  0  0  0
   -6.0770   14.7780    1.7620 N   0  0  0  0  0  0  0  0  0  0  0  0
  1  2  2  0
  2  3  1  0
  2  4  1  0
  3  5  1  0
  3  6  1  0
  4  7  2  0
  5  8  1  0
  7  9  1  0
  6 10  2  0
  7 10  1  0
  8 11  1  0
  8 12  2  3
 12 13  1  0
 13 14  1  0
 14 15  1  0
 16 15  1  6
 16 17  1  0
 16 18  1  0
 17 19  1  0
 18 20  1  0
 19 21  1  0
 20 21  1  0
 21 22  1  1
M  END
