x0864_0_A_α-x0969_0_A_α
     RDKit          3D

 25 27  0  0  0  0  0  0  0  0999 V2000
    1.4710   11.9530   -6.7690 O   0  0  0  0  0  0  0  0  0  0  0  0
    0.4840   11.3730   -6.3370 C   0  0  0  0  0  0  0  0  0  0  0  0
   -0.1330   11.6620   -5.1240 N   0  0  0  0  0  0  0  0  0  0  0  0
   -0.1070   10.2600   -7.1240 C   0  0  0  0  0  0  0  0  0  0  0  0
    0.6360   12.4200   -4.1320 C   0  0  0  0  0  0  0  0  0  0  0  0
   -1.3600   11.1150   -4.7850 C   0  0  0  0  0  0  0  0  0  0  0  0
   -1.2540    9.6930   -6.7230 C   0  0  0  0  0  0  0  0  0  0  0  0
    0.5270   11.8380   -2.7170 C   0  0  0  0  0  0  0  0  0  0  0  0
   -2.0440    8.2850   -7.6550 Br  0  0  0  0  0  0  0  0  0  0  0  0
   -1.9230   10.1630   -5.5390 C   0  0  0  0  0  0  0  0  0  0  0  0
    0.3860   10.4910   -2.6280 O   0  0  0  0  0  0  0  0  0  0  0  0
    0.5540   12.4530   -1.5900 N   0  0  0  0  0  0  0  0  0  0  0  0
    0.7060   13.9030   -1.5920 C   0  0  0  0  0  0  0  0  0  0  0  0
   -0.5330   14.5210   -0.9410 C   0  0  0  0  0  0  0  0  0  0  0  0
   -1.7920   14.6040   -1.8480 C   0  0  0  0  0  0  0  0  0  0  0  0
   -3.0730   14.7330   -1.0580 C   0  0  0  0  0  0  0  0  0  0  0  0
   -4.3090   14.6600   -1.6160 C   0  0  0  0  0  0  0  0  0  0  0  0
   -2.9140   14.9220    0.3800 C   0  0  0  0  0  0  0  0  0  0  0  0
   -5.4600   14.6960   -0.7770 C   0  0  0  0  0  0  0  0  0  0  0  0
   -3.9950   14.9680    1.1580 C   0  0  0  0  0  0  0  0  0  0  0  0
   -6.7510   14.6040   -1.0160 N   0  0  0  0  0  0  0  0  0  0  0  0
   -5.2530   14.8280    0.5840 N   0  0  0  0  0  0  0  0  0  0  0  0
   -6.5110   14.7820    1.1470 C   0  0  0  0  0  0  0  0  0  0  0  0
   -7.4080   14.6560    0.1950 N   0  0  0  0  0  0  0  0  0  0  0  0
   -6.7200   14.8660    2.4770 N   0  0  0  0  0  0  0  0  0  0  0  0
  1  2  2  0
  2  3  1  0
  2  4  1  0
  3  5  1  0
  3  6  1  0
  4  7  2  0
  5  8  1  0
  7  9  1  0
  6 10  2  0
  7 10  1  0
  8 11  1  0
  8 12  2  3
 12 13  1  0
 13 14  1  0
 14 15  1  0
 15 16  1  0
 16 17  2  0
 16 18  1  0
 17 19  1  0
 18 20  2  0
 19 21  2  0
 19 22  1  0
 20 22  1  0
 22 23  1  0
 21 24  1  0
 23 24  2  0
 23 25  1  0
M  END
