x0895_0_A-x1018_0_A
     RDKit          3D

 16 18  0  0  0  0  0  0  0  0999 V2000
   -1.3180   14.5390    1.9960 O   0  0  0  0  0  0  0  0  0  0  0  0
   -2.3350   14.8500    1.4270 C   0  0  0  0  0  0  0  0  0  0  0  0
   -3.7010   15.1250    2.0240 C   0  0  0  0  0  0  0  0  0  0  0  0
   -2.4940   15.0330    0.0800 N   0  0  0  0  0  0  0  0  0  0  0  0
   -4.2840   15.9620    0.9820 N   0  0  0  0  0  0  0  0  0  0  0  0
   -3.8890   15.1240   -0.1030 C   0  0  1  0  0  0  0  0  0  0  0  0
   -4.3880   15.4770   -1.4140 N   0  0  0  0  0  0  0  0  0  0  0  0
   -3.4290   14.8570   -2.2840 N   0  0  0  0  0  0  0  0  0  0  0  0
   -5.3960   14.5570   -1.5260 N   0  0  0  0  0  0  0  0  0  0  0  0
   -3.3190   13.5630   -1.5980 N   0  0  0  0  0  0  0  0  0  0  0  0
   -4.6820   13.3920   -1.0200 C   0  0  1  0  0  0  0  0  0  0  0  0
   -6.6590   14.8470   -1.0710 N   0  0  0  0  0  0  0  0  0  0  0  0
   -6.8870   14.5290    0.1740 C   0  0  0  0  0  0  0  0  0  0  0  0
   -4.8110   13.3670    0.4810 C   0  0  0  0  0  0  0  0  0  0  0  0
   -8.4760   14.8370    0.7780 Cl  0  0  0  0  0  0  0  0  0  0  0  0
   -5.8830   13.9180    1.0770 C   0  0  0  0  0  0  0  0  0  0  0  0
  1  2  2  0
  2  3  1  0
  2  4  1  0
  3  5  1  0
  4  6  1  0
  5  6  1  0
  6  7  1  6
  7  8  1  0
  7  9  1  0
  8 10  1  0
  9 11  1  0
 10 11  1  0
  9 12  1  0
 12 13  2  0
 11 14  1  1
 13 15  1  0
 13 16  1  0
 14 16  2  0
M  END
