x0895_1_A-x0864_0_A
     RDKit          3D

 22 23  0  0  0  0  0  0  0  0999 V2000
   -1.6310   14.8750    1.7210 O   0  0  0  0  0  0  0  0  0  0  0  0
   -2.6340   14.9540    1.0250 C   0  0  0  0  0  0  0  0  0  0  0  0
   -2.7030   15.2760   -0.4770 C   0  0  1  0  0  0  0  0  0  0  0  0
   -3.9030   14.7580    1.4730 N   0  0  0  0  0  0  0  0  0  0  0  0
   -1.6560   14.5130   -1.2950 C   0  0  0  0  0  0  0  0  0  0  0  0
   -4.0700   14.8550   -0.7210 N   0  0  0  0  0  0  0  0  0  0  0  0
   -4.7830   14.7970    0.4510 C   0  0  0  0  0  0  0  0  0  0  0  0
   -5.9970   14.7810    0.5490 O   0  0  0  0  0  0  0  0  0  0  0  0
   -0.2040   15.0070   -1.1130 C   0  0  0  0  0  0  0  0  0  0  0  0
    0.8430   14.3510   -2.0330 C   0  0  0  0  0  0  0  0  0  0  0  0
    0.7480   12.8940   -1.8960 N   0  0  0  0  0  0  0  0  0  0  0  0
    0.5950   12.1670   -2.9520 C   0  0  0  0  0  0  0  0  0  0  0  0
    0.5120   12.7490   -4.3640 C   0  0  0  0  0  0  0  0  0  0  0  0
    0.4930   10.8230   -2.8700 O   0  0  0  0  0  0  0  0  0  0  0  0
   -0.1710   11.8080   -5.2510 N   0  0  0  0  0  0  0  0  0  0  0  0
   -1.3480   11.2070   -4.8500 C   0  0  0  0  0  0  0  0  0  0  0  0
    0.5120   11.4020   -6.3930 C   0  0  0  0  0  0  0  0  0  0  0  0
    1.5590   11.9220   -6.7600 O   0  0  0  0  0  0  0  0  0  0  0  0
   -1.8740   10.1880   -5.5430 C   0  0  0  0  0  0  0  0  0  0  0  0
   -0.0720   10.2730   -7.1560 C   0  0  0  0  0  0  0  0  0  0  0  0
   -1.2090    9.7070   -6.7310 C   0  0  0  0  0  0  0  0  0  0  0  0
   -1.9950    8.2750   -7.6360 Br  0  0  0  0  0  0  0  0  0  0  0  0
  1  2  2  0
  2  3  1  0
  2  4  1  0
  3  5  1  6
  3  6  1  0
  4  7  1  0
  6  7  1  0
  7  8  2  0
  5  9  1  0
  9 10  1  0
 10 11  1  0
 11 12  2  3
 12 13  1  0
 12 14  1  0
 13 15  1  0
 15 16  1  0
 15 17  1  0
 17 18  2  0
 16 19  2  0
 17 20  1  0
 19 21  1  0
 20 21  2  0
 21 22  1  0
M  END
