x0895_0_A-x0290_0_A
     RDKit          3D

 12 12  0  0  0  0  0  0  0  0999 V2000
   -1.3260   14.4410    1.7340 O   0  0  0  0  0  0  0  0  0  0  0  0
   -2.3360   14.6750    1.0940 C   0  0  0  0  0  0  0  0  0  0  0  0
   -3.6670   15.0860    1.6330 C   0  0  0  0  0  0  0  0  0  0  0  0
   -2.5840   14.6430   -0.2850 N   0  0  0  0  0  0  0  0  0  0  0  0
   -1.5690   14.5120   -1.3150 C   0  0  0  0  0  0  0  0  0  0  0  0
   -4.0310   16.0780    0.6140 N   0  0  0  0  0  0  0  0  0  0  0  0
   -3.8700   15.2420   -0.5540 C   0  0  2  0  0  0  0  0  0  0  0  0
   -4.9130   14.2660   -0.4590 N   0  0  0  0  0  0  0  0  0  0  0  0
   -5.5030   14.3180    0.7100 C   0  0  0  0  0  0  0  0  0  0  0  0
   -6.6220   13.5020    1.3290 C   0  0  0  0  0  0  0  0  0  0  0  0
   -7.8350   13.6290    0.5120 N   0  0  0  0  0  0  0  0  0  0  0  0
   -8.5450   14.8710    0.7870 C   0  0  0  0  0  0  0  0  0  0  0  0
  1  2  2  0
  2  3  1  0
  2  4  1  0
  4  5  1  0
  3  6  1  0
  4  7  1  0
  6  7  1  0
  7  8  1  1
  8  9  2  3
  9 10  1  0
 10 11  1  0
 11 12  1  0
M  END
