x0895_0_A-x0727_0_A
     RDKit          3D

 23 24  0  0  0  0  0  0  0  0999 V2000
   -1.5020   14.4720    1.9330 O   0  0  0  0  0  0  0  0  0  0  0  0
   -2.3970   14.8160    1.1750 C   0  0  0  0  0  0  0  0  0  0  0  0
   -3.6430   15.6130    1.5360 C   0  0  0  0  0  0  0  0  0  0  0  0
   -2.4550   14.5560   -0.1690 N   0  0  0  0  0  0  0  0  0  0  0  0
   -1.2780   14.6050   -1.0300 C   0  0  0  0  0  0  0  0  0  0  0  0
   -4.4910   15.1360    0.4940 N   0  0  0  0  0  0  0  0  0  0  0  0
   -3.7090   14.9150   -0.6050 C   0  0  0  0  0  0  0  0  0  0  0  0
   -4.1040   15.0310   -1.7540 O   0  0  0  0  0  0  0  0  0  0  0  0
   -0.3070   13.4210   -0.9620 C   0  0  0  0  0  0  0  0  0  0  0  0
    1.0190   13.7500   -1.6590 C   0  0  0  0  0  0  0  0  0  0  0  0
    1.6020   12.5870   -2.2680 O   0  0  0  0  0  0  0  0  0  0  0  0
    0.8550   11.9500   -3.2120 C   0  0  0  0  0  0  0  0  0  0  0  0
    1.1120   12.5060   -4.6250 C   0  0  1  0  0  0  0  0  0  0  0  0
    0.0790   11.0230   -2.9680 O   0  0  0  0  0  0  0  0  0  0  0  0
    0.1700   11.8570   -5.5190 N   0  0  0  0  0  0  0  0  0  0  0  0
    0.8880   14.0070   -4.6770 C   0  0  0  0  0  0  0  0  0  0  0  0
    0.5140   11.1810   -6.6600 C   0  0  0  0  0  0  0  0  0  0  0  0
    1.5360   11.3740   -7.2920 O   0  0  0  0  0  0  0  0  0  0  0  0
   -0.5530   10.1650   -6.9950 C   0  0  0  0  0  0  0  0  0  0  0  0
   -1.0330   10.1050   -8.4300 C   0  0  0  0  0  0  0  0  0  0  0  0
   -0.2340    8.7090   -6.7110 C   0  0  0  0  0  0  0  0  0  0  0  0
   -1.9640    8.8910   -8.3880 C   0  0  0  0  0  0  0  0  0  0  0  0
   -1.5190    8.0520   -7.1790 C   0  0  0  0  0  0  0  0  0  0  0  0
  1  2  2  0
  2  3  1  0
  2  4  1  0
  4  5  1  0
  3  6  1  0
  4  7  1  0
  6  7  1  0
  7  8  2  0
  5  9  1  0
  9 10  1  0
 10 11  1  0
 11 12  1  0
 12 13  1  0
 12 14  2  0
 13 15  1  0
 13 16  1  1
 15 17  1  0
 17 18  2  0
 17 19  1  0
 19 20  1  0
 19 21  1  0
 20 22  1  0
 21 23  1  0
 22 23  1  0
M  END
