x0895_1_A_α-x0910_0_A_α
     RDKit          3D

 13 14  0  0  0  0  0  0  0  0999 V2000
   -2.2360   15.0010    1.6210 O   0  0  0  0  0  0  0  0  0  0  0  0
   -3.3270   15.0390    1.0270 C   0  0  0  0  0  0  0  0  0  0  0  0
   -3.5900   15.1740   -0.4860 C   0  0  1  0  0  0  0  0  0  0  0  0
   -4.5430   14.9610    1.5980 N   0  0  0  0  0  0  0  0  0  0  0  0
   -2.5930   14.5660   -1.3180 N   0  0  0  0  0  0  0  0  0  0  0  0
   -4.8350   14.5230   -0.5710 N   0  0  0  0  0  0  0  0  0  0  0  0
   -5.4640   14.7010    0.6400 C   0  0  0  0  0  0  0  0  0  0  0  0
   -6.6610   14.6330    0.8180 O   0  0  0  0  0  0  0  0  0  0  0  0
   -1.4040   14.6320   -0.7290 C   0  0  0  0  0  0  0  0  0  0  0  0
   -1.2970   14.3080    0.5880 N   0  0  0  0  0  0  0  0  0  0  0  0
   -0.2490   14.9820   -1.1840 N   0  0  0  0  0  0  0  0  0  0  0  0
   -0.0580   14.4570    1.0340 N   0  0  0  0  0  0  0  0  0  0  0  0
    0.5390   14.8690   -0.0890 C   0  0  0  0  0  0  0  0  0  0  0  0
  1  2  2  0
  2  3  1  0
  2  4  1  0
  3  5  1  6
  3  6  1  0
  4  7  1  0
  6  7  1  0
  7  8  2  0
  5  9  1  0
  9 10  1  0
  9 11  2  0
 10 12  1  0
 11 13  1  0
 12 13  2  0
M  END
