x0895_0_A-x0724_0_A
     RDKit          3D

 14 15  0  0  0  0  0  0  0  0999 V2000
   -1.7640   14.4240    1.8200 O   0  0  0  0  0  0  0  0  0  0  0  0
   -2.7890   14.3890    1.1340 C   0  0  0  0  0  0  0  0  0  0  0  0
   -4.0080   13.5260    1.2990 C   0  0  0  0  0  0  0  0  0  0  0  0
   -3.0310   15.1620    0.0680 N   0  0  0  0  0  0  0  0  0  0  0  0
   -5.1330   14.4880    0.9340 C   0  0  1  0  0  0  0  0  0  0  0  0
   -4.3760   15.3060   -0.1410 C   0  0  0  0  0  0  0  0  0  0  0  0
   -4.8420   15.9490   -1.0580 O   0  0  0  0  0  0  0  0  0  0  0  0
   -6.3350   13.8370    0.2900 N   0  0  0  0  0  0  0  0  0  0  0  0
   -5.7220   15.1020    2.1670 C   0  0  0  0  0  0  0  0  0  0  0  0
   -7.0390   14.8360    2.3190 C   0  0  0  0  0  0  0  0  0  0  0  0
   -7.3290   14.0750    1.1130 C   0  0  0  0  0  0  0  0  0  0  0  0
   -8.0160   15.1980    3.3930 C   0  0  0  0  0  0  0  0  0  0  0  0
   -8.6730   14.0670    4.0560 N   0  0  0  0  0  0  0  0  0  0  0  0
   -8.5540   14.0970    5.5070 C   0  0  0  0  0  0  0  0  0  0  0  0
  1  2  2  0
  2  3  1  0
  2  4  1  0
  5  3  1  1
  4  6  1  0
  5  6  1  0
  6  7  2  0
  5  8  1  0
  5  9  1  0
  9 10  2  0
  8 11  2  0
 10 11  1  0
 10 12  1  0
 12 13  1  0
 13 14  1  0
M  END
