x0895_0_A-x0471_0_A
     RDKit          3D

 18 19  0  0  0  0  0  0  0  0999 V2000
   -1.8180   14.6580    1.9660 O   0  0  0  0  0  0  0  0  0  0  0  0
   -2.7260   14.7990    1.1560 C   0  0  0  0  0  0  0  0  0  0  0  0
   -3.9800   15.6490    1.2780 C   0  0  0  0  0  0  0  0  0  0  0  0
   -2.7560   14.1760   -0.0350 N   0  0  0  0  0  0  0  0  0  0  0  0
   -4.9300   14.9100    0.3270 C   0  0  1  0  0  0  0  0  0  0  0  0
   -3.9670   14.2710   -0.6230 C   0  0  0  0  0  0  0  0  0  0  0  0
   -4.2170   13.9280   -1.7600 O   0  0  0  0  0  0  0  0  0  0  0  0
   -5.8620   14.0490    1.1300 N   0  0  0  0  0  0  0  0  0  0  0  0
   -5.9100   15.6350   -0.5200 C   0  0  0  0  0  0  0  0  0  0  0  0
   -7.1400   15.2970   -0.2840 N   0  0  0  0  0  0  0  0  0  0  0  0
   -7.0710   14.3890    0.7360 C   0  0  0  0  0  0  0  0  0  0  0  0
   -8.3700   13.8480    1.3470 C   0  0  0  0  0  0  0  0  0  0  0  0
   -8.3300   13.9840    2.8120 N   0  0  0  0  0  0  0  0  0  0  0  0
   -8.9750   15.0220    3.4810 C   0  0  0  0  0  0  0  0  0  0  0  0
   -9.3560   16.0370    2.9130 O   0  0  0  0  0  0  0  0  0  0  0  0
   -9.2020   14.8120    4.9870 C   0  0  0  0  0  0  0  0  0  0  0  0
   -9.6070   13.3730    5.3110 C   0  0  0  0  0  0  0  0  0  0  0  0
   -7.9970   15.2500    5.8130 C   0  0  0  0  0  0  0  0  0  0  0  0
  1  2  2  0
  2  3  1  0
  2  4  1  0
  5  3  1  1
  4  6  1  0
  5  6  1  0
  6  7  2  0
  5  8  1  0
  5  9  1  0
  9 10  2  0
  8 11  2  0
 10 11  1  0
 11 12  1  0
 12 13  1  0
 13 14  1  0
 14 15  2  0
 14 16  1  0
 16 17  1  0
 16 18  1  0
M  END
