x0895_0_A-x0926_0_A
     RDKit          3D

  8  8  0  0  0  0  0  0  0  0999 V2000
   -1.6210   14.5590    1.8660 O   0  0  0  0  0  0  0  0  0  0  0  0
   -2.6100   14.7360    1.1700 C   0  0  0  0  0  0  0  0  0  0  0  0
   -4.0340   14.9340    1.6530 C   0  0  0  0  0  0  0  0  0  0  0  0
   -2.5970   14.7800   -0.1910 N   0  0  0  0  0  0  0  0  0  0  0  0
   -4.8060   15.0370    0.3730 C   0  0  0  0  0  0  0  0  0  0  0  0
   -3.7900   15.1250   -0.7390 C   0  0  0  0  0  0  0  0  0  0  0  0
   -4.0360   15.4280   -1.8810 O   0  0  0  0  0  0  0  0  0  0  0  0
   -6.0180   15.0410    0.1930 O   0  0  0  0  0  0  0  0  0  0  0  0
  1  2  2  0
  2  3  1  0
  2  4  1  0
  3  5  1  0
  4  6  1  0
  5  6  1  0
  6  7  2  0
  5  8  2  0
M  END
