x0895_0_A-x0592_0_A
     RDKit          3D

 17 19  0  0  0  0  0  0  0  0999 V2000
   -2.8060   14.7580    1.0690 N   0  0  0  0  0  0  0  0  0  0  0  0
   -3.4790   14.9230   -0.1440 C   0  0  0  0  0  0  0  0  0  0  0  0
   -2.9970   15.1180   -1.3030 N   0  0  0  0  0  0  0  0  0  0  0  0
   -1.5680   14.4540    0.9350 C   0  0  0  0  0  0  0  0  0  0  0  0
   -1.0070   14.3240   -0.2700 N   0  0  0  0  0  0  0  0  0  0  0  0
   -4.9040   14.8590   -0.1220 C   0  0  0  0  0  0  0  0  0  0  0  0
    0.4100   14.3960   -0.5400 C   0  0  0  0  0  0  0  0  0  0  0  0
   -1.5890   15.1540   -1.2510 C   0  0  1  0  0  0  0  0  0  0  0  0
   -5.7830   15.1180   -1.2040 C   0  0  0  0  0  0  0  0  0  0  0  0
   -5.7330   14.5400    0.9160 C   0  0  0  0  0  0  0  0  0  0  0  0
   -0.9380   14.8480   -2.5180 N   0  0  0  0  0  0  0  0  0  0  0  0
   -7.0670   14.9730   -0.8750 N   0  0  0  0  0  0  0  0  0  0  0  0
   -6.9970   14.6210    0.4250 N   0  0  0  0  0  0  0  0  0  0  0  0
    0.4510   14.5510   -2.0840 C   0  0  0  0  0  0  0  0  0  0  0  0
   -8.1930   14.3720    1.1850 C   0  0  0  0  0  0  0  0  0  0  0  0
   -7.9790   14.9150    2.5880 C   0  0  0  0  0  0  0  0  0  0  0  0
   -8.0050   13.9150    3.5820 O   0  0  0  0  0  0  0  0  0  0  0  0
  1  2  1  0
  2  3  2  0
  1  4  2  0
  4  5  1  0
  2  6  1  0
  5  7  1  0
  8  3  1  6
  5  8  1  0
  6  9  1  0
  6 10  2  0
  8 11  1  0
  9 12  2  0
 10 13  1  0
 12 13  1  0
  7 14  1  0
 11 14  1  0
 13 15  1  0
 15 16  1  0
 16 17  1  0
M  END
