x0895_0_A_α-x0631_0_A_β
     RDKit          3D

 21 22  0  0  0  0  0  0  0  0999 V2000
   -1.7690   14.7380    1.8460 O   0  0  0  0  0  0  0  0  0  0  0  0
   -2.6740   15.1150    1.1100 C   0  0  0  0  0  0  0  0  0  0  0  0
   -3.9320   15.9030    1.4860 C   0  0  0  0  0  0  0  0  0  0  0  0
   -2.7400   14.9150   -0.2460 N   0  0  0  0  0  0  0  0  0  0  0  0
   -4.7490   15.6030    0.3370 N   0  0  0  0  0  0  0  0  0  0  0  0
   -3.9630   15.2470   -0.7030 C   0  0  0  0  0  0  0  0  0  0  0  0
   -4.3540   15.2510   -1.9070 N   0  0  0  0  0  0  0  0  0  0  0  0
   -3.4830   14.8590   -3.0050 C   0  0  0  0  0  0  0  0  0  0  0  0
   -3.8900   13.4500   -3.4250 C   0  0  0  0  0  0  0  0  0  0  0  0
   -2.9350   12.8440   -4.4480 C   0  0  0  0  0  0  0  0  0  0  0  0
   -3.5470   11.6600   -5.1950 C   0  0  0  0  0  0  0  0  0  0  0  0
   -2.6000   10.6140   -5.7950 C   0  0  0  0  0  0  0  0  0  0  0  0
   -2.8420   10.3300   -7.2870 C   0  0  0  0  0  0  0  0  0  0  0  0
   -2.2260    9.0580   -7.8810 C   0  0  0  0  0  0  0  0  0  0  0  0
   -1.5870    8.1240   -6.8510 C   0  0  0  0  0  0  0  0  0  0  0  0
   -0.2370    8.6170   -6.3150 C   0  0  0  0  0  0  0  0  0  0  0  0
    0.6160    9.4130   -7.2360 N   0  0  0  0  0  0  0  0  0  0  0  0
    0.6190    8.9960   -8.6090 N   0  0  0  0  0  0  0  0  0  0  0  0
    0.2220   10.7870   -7.2220 N   0  0  0  0  0  0  0  0  0  0  0  0
    0.9270   10.2400   -9.3080 C   0  0  0  0  0  0  0  0  0  0  0  0
    0.2020   11.2610   -8.5790 N   0  0  0  0  0  0  0  0  0  0  0  0
  1  2  2  0
  2  3  1  0
  2  4  1  0
  3  5  1  0
  4  6  1  0
  5  6  1  0
  6  7  2  3
  7  8  1  0
  8  9  1  0
  9 10  1  0
 10 11  1  0
 11 12  1  0
 12 13  1  0
 13 14  1  0
 14 15  1  0
 15 16  1  0
 16 17  1  0
 17 18  1  0
 17 19  1  0
 18 20  1  0
 19 21  1  0
 20 21  1  0
M  END
