x0895_0_A-x0438_0_A
     RDKit          3D

 16 17  0  0  0  0  0  0  0  0999 V2000
   -1.7860   14.6510    1.9580 O   0  0  0  0  0  0  0  0  0  0  0  0
   -2.6960   14.7930    1.1540 C   0  0  0  0  0  0  0  0  0  0  0  0
   -3.9500   15.6400    1.2810 C   0  0  0  0  0  0  0  0  0  0  0  0
   -2.7220   14.1770   -0.0460 N   0  0  0  0  0  0  0  0  0  0  0  0
   -4.8950   14.9010    0.3340 C   0  0  1  0  0  0  0  0  0  0  0  0
   -3.9370   14.2820   -0.6290 C   0  0  0  0  0  0  0  0  0  0  0  0
   -4.1930   13.9660   -1.7730 O   0  0  0  0  0  0  0  0  0  0  0  0
   -5.8100   14.0230    1.1400 N   0  0  0  0  0  0  0  0  0  0  0  0
   -5.8960   15.6160   -0.4890 C   0  0  0  0  0  0  0  0  0  0  0  0
   -7.1200   15.2660   -0.2360 N   0  0  0  0  0  0  0  0  0  0  0  0
   -7.0240   14.3520    0.7750 C   0  0  0  0  0  0  0  0  0  0  0  0
   -8.2840   13.8060    1.3850 C   0  0  0  0  0  0  0  0  0  0  0  0
   -9.1430   15.0280    2.3790 S   0  0  0  0  0  0  0  0  0  0  0  0
   -8.0730   15.3890    3.7630 C   0  0  0  0  0  0  0  0  0  0  0  0
  -10.3600   14.4510    2.9210 O   0  0  0  0  0  0  0  0  0  0  0  0
   -9.2510   16.2460    1.5980 O   0  0  0  0  0  0  0  0  0  0  0  0
  1  2  2  0
  2  3  1  0
  2  4  1  0
  5  3  1  1
  4  6  1  0
  5  6  1  0
  6  7  2  0
  5  8  1  0
  5  9  1  0
  9 10  2  0
  8 11  2  0
 10 11  1  0
 11 12  1  0
 13 12  1  0
 13 14  1  0
 13 15  2  0
 13 16  2  0
M  END
