x0895_1_A-x0626_0_A
     RDKit          3D

 11 11  0  0  0  0  0  0  0  0999 V2000
   -1.7040   14.8450    1.5440 O   0  0  0  0  0  0  0  0  0  0  0  0
   -2.7670   14.8140    0.9220 C   0  0  0  0  0  0  0  0  0  0  0  0
   -3.0350   14.9820   -0.5550 C   0  0  0  0  0  0  0  0  0  0  0  0
   -4.0320   14.6080    1.4200 N   0  0  0  0  0  0  0  0  0  0  0  0
   -4.6340   15.4760    2.3170 N   0  0  0  0  0  0  0  0  0  0  0  0
   -4.1620   14.0770   -0.8070 N   0  0  0  0  0  0  0  0  0  0  0  0
   -4.8290   13.8780    0.5010 C   0  0  2  0  0  0  0  0  0  0  0  0
   -6.2590   14.4310    0.3970 C   0  0  0  0  0  0  0  0  0  0  0  0
   -6.6340   14.9610   -0.6490 O   0  0  0  0  0  0  0  0  0  0  0  0
   -7.2080   14.3210    1.5700 C   0  0  0  0  0  0  0  0  0  0  0  0
   -8.6230   14.6330    1.1210 C   0  0  0  0  0  0  0  0  0  0  0  0
  1  2  2  0
  2  3  1  0
  2  4  1  0
  4  5  1  0
  3  6  1  0
  4  7  1  0
  6  7  1  0
  7  8  1  6
  8  9  2  0
  8 10  1  0
 10 11  1  0
M  END
