x0895_1_A-x0844_0_A
     RDKit          3D

  8  8  0  0  0  0  0  0  0  0999 V2000
   -1.7180   14.9270    1.5110 O   0  0  0  0  0  0  0  0  0  0  0  0
   -2.7830   14.9450    0.8820 C   0  0  0  0  0  0  0  0  0  0  0  0
   -3.0580   15.5030   -0.5240 C   0  0  1  0  0  0  0  0  0  0  0  0
   -3.9630   14.4660    1.3490 N   0  0  0  0  0  0  0  0  0  0  0  0
   -2.4430   14.3650   -1.9400 Br  0  0  0  0  0  0  0  0  0  0  0  0
   -4.4840   15.5080   -0.5320 N   0  0  0  0  0  0  0  0  0  0  0  0
   -4.9900   14.8750    0.5710 C   0  0  0  0  0  0  0  0  0  0  0  0
   -6.1730   14.7170    0.7970 O   0  0  0  0  0  0  0  0  0  0  0  0
  1  2  2  0
  2  3  1  0
  2  4  1  0
  3  5  1  6
  3  6  1  0
  4  7  1  0
  6  7  1  0
  7  8  2  0
M  END
