x0895_0_A-x0962_0_A
     RDKit          3D

  8  8  0  0  0  0  0  0  0  0999 V2000
   -1.5730   14.5520    2.0150 O   0  0  0  0  0  0  0  0  0  0  0  0
   -2.5030   14.7520    1.2680 C   0  0  0  0  0  0  0  0  0  0  0  0
   -3.6900   15.6700    1.4490 C   0  0  0  0  0  0  0  0  0  0  0  0
   -2.6480   14.1540    0.0550 N   0  0  0  0  0  0  0  0  0  0  0  0
   -4.6400   15.2820    0.3890 N   0  0  0  0  0  0  0  0  0  0  0  0
   -3.8950   14.4370   -0.5580 C   0  0  1  0  0  0  0  0  0  0  0  0
   -3.6350   15.0100   -1.8840 C   0  0  0  0  0  0  0  0  0  0  0  0
   -3.3450   15.4150   -2.9230 N   0  0  0  0  0  0  0  0  0  0  0  0
  1  2  2  0
  2  3  1  0
  2  4  1  0
  3  5  1  0
  4  6  1  0
  5  6  1  0
  6  7  1  6
  7  8  3  0
M  END
