x0895_0_A-x0685_0_A
     RDKit          3D

 11 11  0  0  0  0  0  0  0  0999 V2000
   -1.9670   14.4150    2.0270 O   0  0  0  0  0  0  0  0  0  0  0  0
   -2.9270   14.6050    1.2980 C   0  0  0  0  0  0  0  0  0  0  0  0
   -4.4090   15.0240    1.5780 C   0  0  2  0  0  0  0  0  0  0  0  0
   -2.8450   14.4860   -0.0580 N   0  0  0  0  0  0  0  0  0  0  0  0
   -5.3410   14.0390    2.1240 N   0  0  0  0  0  0  0  0  0  0  0  0
   -4.9740   15.1170    0.2260 N   0  0  0  0  0  0  0  0  0  0  0  0
   -3.8190   15.3370   -0.6230 C   0  0  2  0  0  0  0  0  0  0  0  0
   -3.9650   15.1270   -2.0810 C   0  0  0  0  0  0  0  0  0  0  0  0
   -6.6650   14.5820    2.4880 C   0  0  0  0  0  0  0  0  0  0  0  0
   -7.5790   13.4660    2.9800 C   0  0  0  0  0  0  0  0  0  0  0  0
   -3.9850   14.9880   -3.2370 N   0  0  0  0  0  0  0  0  0  0  0  0
  1  2  2  0
  2  3  1  0
  2  4  1  0
  3  5  1  1
  3  6  1  0
  4  7  1  0
  6  7  1  0
  7  8  1  6
  5  9  1  0
  9 10  1  0
  8 11  3  0
M  END
