x0895_0_A-x0685_1_A
     RDKit          3D

 22 23  0  0  0  0  0  0  0  0999 V2000
   -1.5900   14.5560    1.8500 O   0  0  0  0  0  0  0  0  0  0  0  0
   -2.5140   14.8750    1.1080 C   0  0  0  0  0  0  0  0  0  0  0  0
   -3.7580   15.6570    1.5050 C   0  0  0  0  0  0  0  0  0  0  0  0
   -2.6350   14.6190   -0.2340 N   0  0  0  0  0  0  0  0  0  0  0  0
   -1.7710   13.7620   -1.0250 C   0  0  0  0  0  0  0  0  0  0  0  0
   -4.6400   15.1920    0.4910 N   0  0  0  0  0  0  0  0  0  0  0  0
   -3.8850   15.0050   -0.6360 C   0  0  0  0  0  0  0  0  0  0  0  0
   -4.2960   15.1680   -1.7730 O   0  0  0  0  0  0  0  0  0  0  0  0
   -0.2910   13.8890   -0.6790 C   0  0  0  0  0  0  0  0  0  0  0  0
    0.5150   13.7730   -1.8620 O   0  0  0  0  0  0  0  0  0  0  0  0
    0.7380   12.3830   -2.6470 S   0  0  0  0  0  0  0  0  0  0  0  0
   -0.0210   12.5370   -4.2670 C   0  0  0  0  0  0  0  0  0  0  0  0
    2.2990   12.2410   -2.9990 O   0  0  0  0  0  0  0  0  0  0  0  0
    0.1690   11.0740   -1.8820 O   0  0  0  0  0  0  0  0  0  0  0  0
   -1.4200   11.9510   -4.3520 C   0  0  0  0  0  0  0  0  0  0  0  0
   -1.3470   10.5540   -4.8220 N   0  0  0  0  0  0  0  0  0  0  0  0
   -0.8150   10.3420   -6.1760 C   0  0  0  0  0  0  0  0  0  0  0  0
   -0.5940    8.8420   -6.4580 C   0  0  0  0  0  0  0  0  0  0  0  0
   -1.6070   11.0060   -7.3110 C   0  0  0  0  0  0  0  0  0  0  0  0
    0.0810    8.5940   -7.8110 C   0  0  0  0  0  0  0  0  0  0  0  0
   -1.0030   10.7040   -8.6900 C   0  0  0  0  0  0  0  0  0  0  0  0
   -0.7150    9.2210   -8.9460 C   0  0  0  0  0  0  0  0  0  0  0  0
  1  2  2  0
  2  3  1  0
  2  4  1  0
  4  5  1  0
  3  6  1  0
  4  7  1  0
  6  7  1  0
  7  8  2  0
  5  9  1  0
  9 10  1  0
 11 10  1  0
 11 12  1  0
 11 13  1  0
 11 14  1  0
 12 15  1  0
 15 16  1  0
 16 17  1  0
 17 18  1  0
 17 19  1  0
 18 20  1  0
 19 21  1  0
 20 22  1  0
 21 22  1  0
M  END
