x0895_0_A-x0722_0_A
     RDKit          3D

 12 12  0  0  0  0  0  0  0  0999 V2000
   -1.2360   14.8330    1.6170 O   0  0  0  0  0  0  0  0  0  0  0  0
   -2.3120   14.7900    1.0500 C   0  0  0  0  0  0  0  0  0  0  0  0
   -3.6210   14.6170    1.7830 C   0  0  1  0  0  0  0  0  0  0  0  0
   -2.6240   14.8690   -0.3040 N   0  0  0  0  0  0  0  0  0  0  0  0
   -4.1190   15.8500    2.4650 C   0  0  0  0  0  0  0  0  0  0  0  0
   -1.6870   14.4870   -1.3360 C   0  0  0  0  0  0  0  0  0  0  0  0
   -4.4900   14.2870    0.7130 N   0  0  0  0  0  0  0  0  0  0  0  0
   -3.9870   14.7720   -0.4290 C   0  0  0  0  0  0  0  0  0  0  0  0
   -4.6710   15.0820   -1.4480 N   0  0  0  0  0  0  0  0  0  0  0  0
   -5.9960   14.8370   -1.2050 C   0  0  0  0  0  0  0  0  0  0  0  0
   -6.9450   15.6050   -1.2740 O   0  0  0  0  0  0  0  0  0  0  0  0
   -6.1820   13.5480   -0.8270 N   0  0  0  0  0  0  0  0  0  0  0  0
  1  2  2  0
  2  3  1  0
  2  4  1  0
  3  5  1  6
  4  6  1  0
  3  7  1  0
  4  8  1  0
  7  8  1  0
  8  9  2  3
  9 10  1  0
 10 11  2  0
 10 12  1  0
M  END
