x0895_0_A_α-x0895_1_A_α
     RDKit          3D

  8  8  0  0  0  0  0  0  0  0999 V2000
   -1.5550   14.5650    1.8520 O   0  0  0  0  0  0  0  0  0  0  0  0
   -2.5400   14.8710    1.1900 C   0  0  0  0  0  0  0  0  0  0  0  0
   -3.8300   15.4760    1.6990 C   0  0  0  0  0  0  0  0  0  0  0  0
   -2.6580   14.7100   -0.1630 N   0  0  0  0  0  0  0  0  0  0  0  0
   -4.7580   15.0770    0.6230 C   0  0  0  0  0  0  0  0  0  0  0  0
   -3.8960   15.0320   -0.6190 C   0  0  0  0  0  0  0  0  0  0  0  0
   -4.2600   15.2390   -1.7530 O   0  0  0  0  0  0  0  0  0  0  0  0
   -5.9460   14.8230    0.6910 O   0  0  0  0  0  0  0  0  0  0  0  0
  1  2  2  0
  2  3  1  0
  2  4  1  0
  3  5  1  0
  4  6  1  0
  5  6  1  0
  6  7  2  0
  5  8  2  0
M  END
