x0895_1_A-x1012_0_A
     RDKit          3D

 21 22  0  0  0  0  0  0  0  0999 V2000
   -1.6820   14.9030    1.6720 O   0  0  0  0  0  0  0  0  0  0  0  0
   -2.7240   14.9760    1.0260 C   0  0  0  0  0  0  0  0  0  0  0  0
   -2.8610   15.3600   -0.4480 C   0  0  2  0  0  0  0  0  0  0  0  0
   -3.9740   14.7300    1.4960 N   0  0  0  0  0  0  0  0  0  0  0  0
   -4.2160   14.9220   -0.6870 N   0  0  0  0  0  0  0  0  0  0  0  0
   -4.8870   14.7980    0.5010 C   0  0  0  0  0  0  0  0  0  0  0  0
   -1.8070   14.7500   -1.3610 C   0  0  0  0  0  0  0  0  0  0  0  0
   -6.1000   14.7530    0.6280 O   0  0  0  0  0  0  0  0  0  0  0  0
   -2.3690   13.9500   -2.5500 C   0  0  0  0  0  0  0  0  0  0  0  0
   -1.3380   13.7390   -3.6910 C   0  0  1  0  0  0  0  0  0  0  0  0
   -1.6000   14.7370   -4.8340 C   0  0  0  0  0  0  0  0  0  0  0  0
    0.1200   13.8400   -3.1810 C   0  0  1  0  0  0  0  0  0  0  0  0
    0.6010   12.5350   -2.6060 C   0  0  0  0  0  0  0  0  0  0  0  0
    1.1250   14.3600   -4.2170 C   0  0  0  0  0  0  0  0  0  0  0  0
   -0.7390   15.9230   -4.7610 N   0  0  0  0  0  0  0  0  0  0  0  0
   -1.3290   17.1590   -4.6260 C   0  0  0  0  0  0  0  0  0  0  0  0
   -0.1340   11.4490   -2.9100 O   0  0  0  0  0  0  0  0  0  0  0  0
    1.5740   12.4250   -1.9080 O   0  0  0  0  0  0  0  0  0  0  0  0
    0.7100   15.7250   -4.7420 C   0  0  0  0  0  0  0  0  0  0  0  0
   -0.4990   18.2130   -4.4830 N   0  0  0  0  0  0  0  0  0  0  0  0
   -2.5290   17.3560   -4.6290 O   0  0  0  0  0  0  0  0  0  0  0  0
  1  2  2  0
  2  3  1  0
  2  4  1  0
  3  5  1  0
  4  6  1  0
  5  6  1  0
  3  7  1  6
  6  8  2  0
  7  9  1  0
 10  9  1  1
 10 11  1  0
 10 12  1  0
 12 13  1  6
 12 14  1  0
 11 15  1  0
 15 16  1  0
 13 17  1  0
 13 18  2  0
 14 19  1  0
 15 19  1  0
 16 20  1  0
 16 21  2  0
M  END
