x0895_0_A-x0844_0_A
     RDKit          3D

  8  8  0  0  0  0  0  0  0  0999 V2000
   -1.6610   14.5880    1.8420 O   0  0  0  0  0  0  0  0  0  0  0  0
   -2.6760   14.7460    1.1710 C   0  0  0  0  0  0  0  0  0  0  0  0
   -4.0870   14.9150    1.6940 C   0  0  0  0  0  0  0  0  0  0  0  0
   -2.7010   14.7930   -0.1900 N   0  0  0  0  0  0  0  0  0  0  0  0
   -4.9030   15.0230    0.4410 C   0  0  0  0  0  0  0  0  0  0  0  0
   -3.9170   15.1240   -0.7040 C   0  0  0  0  0  0  0  0  0  0  0  0
   -4.1930   15.4270   -1.8370 O   0  0  0  0  0  0  0  0  0  0  0  0
   -6.1310   15.0210    0.3130 O   0  0  0  0  0  0  0  0  0  0  0  0
  1  2  2  0
  2  3  1  0
  2  4  1  0
  3  5  1  0
  4  6  1  0
  5  6  1  0
  6  7  2  0
  5  8  2  0
M  END
