x0895_1_A-x0465_0_A
     RDKit          3D

 23 24  0  0  0  0  0  0  0  0999 V2000
   -1.6980   14.8150    1.5870 O   0  0  0  0  0  0  0  0  0  0  0  0
   -2.7480   14.7700    0.9490 C   0  0  0  0  0  0  0  0  0  0  0  0
   -2.8950   14.7150   -0.5790 C   0  0  1  0  0  0  0  0  0  0  0  0
   -3.9950   14.7520    1.4920 N   0  0  0  0  0  0  0  0  0  0  0  0
   -1.8850   13.7540   -1.2070 C   0  0  0  0  0  0  0  0  0  0  0  0
   -4.2790   14.3390   -0.6590 N   0  0  0  0  0  0  0  0  0  0  0  0
   -4.9220   14.5920    0.5250 C   0  0  0  0  0  0  0  0  0  0  0  0
   -6.1310   14.6610    0.6710 O   0  0  0  0  0  0  0  0  0  0  0  0
   -0.6400   14.4690   -1.7670 C   0  0  0  0  0  0  0  0  0  0  0  0
    0.7140   13.7920   -1.5490 C   0  0  0  0  0  0  0  0  0  0  0  0
    0.5470   12.3680   -1.7370 N   0  0  0  0  0  0  0  0  0  0  0  0
    0.5340   11.8470   -2.9180 C   0  0  0  0  0  0  0  0  0  0  0  0
    0.6780   12.4990   -4.3180 C   0  0  1  0  0  0  0  0  0  0  0  0
    0.3540   10.5100   -2.9370 O   0  0  0  0  0  0  0  0  0  0  0  0
    2.0730   13.1280   -4.4470 C   0  0  0  0  0  0  0  0  0  0  0  0
    0.6160   11.5400   -5.3920 O   0  0  0  0  0  0  0  0  0  0  0  0
   -0.5150   10.8020   -5.6550 C   0  0  0  0  0  0  0  0  0  0  0  0
   -0.6460    9.7560   -6.5790 C   0  0  0  0  0  0  0  0  0  0  0  0
   -1.6370   11.1560   -4.8990 C   0  0  0  0  0  0  0  0  0  0  0  0
    0.3790    9.3550   -7.3440 F   0  0  0  0  0  0  0  0  0  0  0  0
   -1.8520    9.0840   -6.7460 C   0  0  0  0  0  0  0  0  0  0  0  0
   -2.8520   10.4840   -5.0630 C   0  0  0  0  0  0  0  0  0  0  0  0
   -2.9600    9.4470   -5.9860 C   0  0  0  0  0  0  0  0  0  0  0  0
  1  2  2  0
  2  3  1  0
  2  4  1  0
  3  5  1  1
  3  6  1  0
  4  7  1  0
  6  7  1  0
  7  8  2  0
  5  9  1  0
  9 10  1  0
 10 11  1  0
 11 12  2  3
 12 13  1  0
 12 14  1  0
 13 15  1  1
 13 16  1  0
 16 17  1  0
 17 18  2  0
 17 19  1  0
 18 20  1  0
 18 21  1  0
 19 22  2  0
 21 23  2  0
 22 23  1  0
M  END
