x0895_1_A_α-x0628_0_A_α
     RDKit          3D

 21 22  0  0  0  0  0  0  0  0999 V2000
   -1.6090   14.7000    1.4130 O   0  0  0  0  0  0  0  0  0  0  0  0
   -2.6940   14.5500    0.8520 C   0  0  0  0  0  0  0  0  0  0  0  0
   -3.0020   14.0670   -0.5910 C   0  0  2  0  0  0  0  0  0  0  0  0
   -3.9000   14.7860    1.4350 N   0  0  0  0  0  0  0  0  0  0  0  0
   -1.9460   14.3390   -1.6700 C   0  0  0  0  0  0  0  0  0  0  0  0
   -4.2200   14.8240   -0.7410 N   0  0  0  0  0  0  0  0  0  0  0  0
   -4.8520   14.8550    0.4780 C   0  0  0  0  0  0  0  0  0  0  0  0
   -6.0560   14.9240    0.6470 O   0  0  0  0  0  0  0  0  0  0  0  0
   -1.4680   13.1050   -2.5040 C   0  0  0  0  0  0  0  0  0  0  0  0
   -2.2630   12.6820   -3.7730 C   0  0  0  0  0  0  0  0  0  0  0  0
   -1.5470   11.8330   -4.8100 C   0  0  0  0  0  0  0  0  0  0  0  0
   -1.9590   10.6850   -5.3340 N   0  0  0  0  0  0  0  0  0  0  0  0
   -0.3300   12.1350   -5.3880 N   0  0  0  0  0  0  0  0  0  0  0  0
    0.5480   13.2690   -5.1750 C   0  0  0  0  0  0  0  0  0  0  0  0
   -0.9650   10.3310   -6.2180 C   0  0  0  0  0  0  0  0  0  0  0  0
    0.0470   11.1970   -6.2810 N   0  0  0  0  0  0  0  0  0  0  0  0
   -1.0020    9.0990   -7.0330 C   0  0  0  0  0  0  0  0  0  0  0  0
    1.6960   12.9580   -4.2160 C   0  0  0  0  0  0  0  0  0  0  0  0
    1.1890   12.2600   -2.9820 C   0  0  0  0  0  0  0  0  0  0  0  0
    0.6780   11.1520   -2.9480 O   0  0  0  0  0  0  0  0  0  0  0  0
    1.3520   13.0020   -1.8710 O   0  0  0  0  0  0  0  0  0  0  0  0
  1  2  2  0
  2  3  1  0
  2  4  1  0
  3  5  1  6
  3  6  1  0
  4  7  1  0
  6  7  1  0
  7  8  2  0
  5  9  1  0
  9 10  1  0
 10 11  1  0
 11 12  2  0
 11 13  1  0
 13 14  1  0
 12 15  1  0
 13 16  1  0
 15 16  2  0
 15 17  1  0
 14 18  1  0
 18 19  1  0
 19 20  2  0
 19 21  1  0
M  END
