x0895_1_A-x0587_0_A
     RDKit          3D

 19 20  0  0  0  0  0  0  0  0999 V2000
   -1.3690   14.7580    2.0200 O   0  0  0  0  0  0  0  0  0  0  0  0
   -2.4700   14.9180    1.5800 C   0  0  0  0  0  0  0  0  0  0  0  0
   -2.8540   15.1900    0.1460 C   0  0  0  0  0  0  0  0  0  0  0  0
   -3.6960   14.8810    2.2690 N   0  0  0  0  0  0  0  0  0  0  0  0
   -3.9250   14.3020    0.1880 N   0  0  0  0  0  0  0  0  0  0  0  0
   -4.6160   14.6480    1.3340 C   0  0  0  0  0  0  0  0  0  0  0  0
   -5.8850   14.6220    1.0750 C   0  0  0  0  0  0  0  0  0  0  0  0
   -7.3150   14.7700    1.4290 C   0  0  0  0  0  0  0  0  0  0  0  0
   -5.5200   14.3700   -0.1600 N   0  0  0  0  0  0  0  0  0  0  0  0
   -8.0780   14.8990    2.7130 C   0  0  0  0  0  0  0  0  0  0  0  0
   -8.1150   14.8360    0.3190 C   0  0  0  0  0  0  0  0  0  0  0  0
   -6.2410   14.4650   -1.1160 C   0  0  0  0  0  0  0  0  0  0  0  0
   -7.3800   15.0430    3.8660 N   0  0  0  0  0  0  0  0  0  0  0  0
   -9.3050   14.8960    2.7320 O   0  0  0  0  0  0  0  0  0  0  0  0
   -5.3860   14.2680   -2.3670 C   0  0  0  0  0  0  0  0  0  0  0  0
   -7.5870   14.7660   -0.9790 N   0  0  0  0  0  0  0  0  0  0  0  0
   -4.5050   15.3130   -2.4820 F   0  0  0  0  0  0  0  0  0  0  0  0
   -6.0270   14.0780   -3.5220 F   0  0  0  0  0  0  0  0  0  0  0  0
   -4.5550   13.2340   -2.2330 F   0  0  0  0  0  0  0  0  0  0  0  0
  1  2  2  0
  2  3  1  0
  2  4  1  0
  3  5  1  0
  4  6  1  0
  5  6  1  0
  6  7  2  3
  7  8  1  0
  7  9  1  0
  8 10  1  0
  8 11  2  0
  9 12  2  0
 10 13  1  0
 10 14  2  0
 12 15  1  0
 11 16  1  0
 12 16  1  0
 15 17  1  0
 15 18  1  0
 15 19  1  0
M  END
