x0895_0_A-x0253_0_A
     RDKit          3D

 24 25  0  0  0  0  0  0  0  0999 V2000
   -1.6490   14.5720    1.9080 O   0  0  0  0  0  0  0  0  0  0  0  0
   -2.5620   14.8980    1.1580 C   0  0  0  0  0  0  0  0  0  0  0  0
   -3.8220   15.6810    1.5210 C   0  0  0  0  0  0  0  0  0  0  0  0
   -2.6500   14.6480   -0.1760 N   0  0  0  0  0  0  0  0  0  0  0  0
   -1.5820   14.1850   -1.0400 C   0  0  0  0  0  0  0  0  0  0  0  0
   -4.6720   15.2010    0.4830 N   0  0  0  0  0  0  0  0  0  0  0  0
   -3.8920   15.0090   -0.6210 C   0  0  0  0  0  0  0  0  0  0  0  0
   -4.2680   15.1470   -1.7720 O   0  0  0  0  0  0  0  0  0  0  0  0
   -0.1890   14.4370   -0.4590 C   0  0  0  0  0  0  0  0  0  0  0  0
    0.8710   13.8670   -1.3950 C   0  0  0  0  0  0  0  0  0  0  0  0
    0.5680   12.4520   -1.5780 N   0  0  0  0  0  0  0  0  0  0  0  0
    0.6540   11.8690   -2.7240 C   0  0  0  0  0  0  0  0  0  0  0  0
    0.3390   10.5400   -2.7060 O   0  0  0  0  0  0  0  0  0  0  0  0
    1.0610   12.4570   -4.1020 C   0  0  0  0  0  0  0  0  0  0  0  0
    0.3730   11.8670   -5.2480 N   0  0  0  0  0  0  0  0  0  0  0  0
    1.0620   11.6620   -6.4340 C   0  0  0  0  0  0  0  0  0  0  0  0
    2.1500   12.1930   -6.5900 O   0  0  0  0  0  0  0  0  0  0  0  0
    0.4520   10.7500   -7.4600 C   0  0  0  0  0  0  0  0  0  0  0  0
   -0.5320    9.8280   -7.0910 C   0  0  0  0  0  0  0  0  0  0  0  0
    0.8540   10.7990   -8.8060 C   0  0  0  0  0  0  0  0  0  0  0  0
   -1.1080    8.9710   -8.0430 C   0  0  0  0  0  0  0  0  0  0  0  0
    0.2870    9.9520   -9.7570 C   0  0  0  0  0  0  0  0  0  0  0  0
   -2.1620    7.9930   -7.6230 C   0  0  0  0  0  0  0  0  0  0  0  0
   -0.6910    9.0410   -9.3760 C   0  0  0  0  0  0  0  0  0  0  0  0
  1  2  2  0
  2  3  1  0
  2  4  1  0
  4  5  1  0
  3  6  1  0
  4  7  1  0
  6  7  1  0
  7  8  2  0
  5  9  1  0
  9 10  1  0
 10 11  1  0
 11 12  2  3
 12 13  1  0
 12 14  1  0
 14 15  1  0
 15 16  1  0
 16 17  2  0
 16 18  1  0
 18 19  2  0
 18 20  1  0
 19 21  1  0
 20 22  2  0
 21 23  1  0
 21 24  2  0
 22 24  1  0
M  END
