x0895_0_A-x0685_0_A
     RDKit          3D

 11 11  0  0  0  0  0  0  0  0999 V2000
   -1.9640   14.4120    2.0280 O   0  0  0  0  0  0  0  0  0  0  0  0
   -2.9270   14.6060    1.2990 C   0  0  0  0  0  0  0  0  0  0  0  0
   -4.4120   15.0270    1.5760 C   0  0  2  0  0  0  0  0  0  0  0  0
   -2.8440   14.4890   -0.0590 N   0  0  0  0  0  0  0  0  0  0  0  0
   -5.3440   14.0430    2.1200 N   0  0  0  0  0  0  0  0  0  0  0  0
   -4.9770   15.1090    0.2240 N   0  0  0  0  0  0  0  0  0  0  0  0
   -3.8160   15.3370   -0.6220 C   0  0  2  0  0  0  0  0  0  0  0  0
   -3.9610   15.1230   -2.0770 C   0  0  0  0  0  0  0  0  0  0  0  0
   -6.6690   14.5830    2.4910 C   0  0  0  0  0  0  0  0  0  0  0  0
   -7.5770   13.4650    2.9840 C   0  0  0  0  0  0  0  0  0  0  0  0
   -3.9780   14.9730   -3.2320 N   0  0  0  0  0  0  0  0  0  0  0  0
  1  2  2  0
  2  3  1  0
  2  4  1  0
  3  5  1  1
  3  6  1  0
  4  7  1  0
  6  7  1  0
  7  8  1  6
  5  9  1  0
  9 10  1  0
  8 11  3  0
M  END
