x0895_0_A_α-x0104_0_A_α
     RDKit          3D

 17 18  0  0  0  0  0  0  0  0999 V2000
   -1.5530   14.5320    1.8330 O   0  0  0  0  0  0  0  0  0  0  0  0
   -2.5820   14.7630    1.2130 C   0  0  0  0  0  0  0  0  0  0  0  0
   -3.8630   15.3810    1.7480 C   0  0  0  0  0  0  0  0  0  0  0  0
   -2.8010   14.5030   -0.1090 N   0  0  0  0  0  0  0  0  0  0  0  0
   -4.7630   14.7010    0.8560 N   0  0  0  0  0  0  0  0  0  0  0  0
   -4.1260   14.6720   -0.3750 C   0  0  0  0  0  0  0  0  0  0  0  0
   -4.6220   14.7900   -1.4820 O   0  0  0  0  0  0  0  0  0  0  0  0
   -5.9170   13.8930    1.3270 C   0  0  0  0  0  0  0  0  0  0  0  0
   -6.8930   14.8270    2.0470 C   0  0  0  0  0  0  0  0  0  0  0  0
   -8.0840   14.4030    2.8930 C   0  0  0  0  0  0  0  0  0  0  0  0
   -7.8780   14.6040    4.2520 N   0  0  0  0  0  0  0  0  0  0  0  0
   -9.1090   13.9840    2.3800 O   0  0  0  0  0  0  0  0  0  0  0  0
   -8.9110   14.8140    5.1720 C   0  0  0  0  0  0  0  0  0  0  0  0
   -8.9490   15.0550    6.5320 C   0  0  0  0  0  0  0  0  0  0  0  0
  -10.4750   14.7640    4.4940 S   0  0  0  0  0  0  0  0  0  0  0  0
  -10.2940   15.1960    7.0140 C   0  0  0  0  0  0  0  0  0  0  0  0
  -11.2240   15.0600    6.0080 C   0  0  0  0  0  0  0  0  0  0  0  0
  1  2  2  0
  2  3  1  0
  2  4  1  0
  3  5  1  0
  4  6  1  0
  5  6  1  0
  6  7  2  0
  5  8  1  0
  8  9  1  0
  9 10  1  0
 10 11  1  0
 10 12  2  0
 11 13  1  0
 13 14  2  0
 13 15  1  0
 14 16  1  0
 15 17  1  0
 16 17  2  0
M  END
