x0895_0_A_α-6mea_B_0_B_γ
     RDKit          3D

 18 19  0  0  0  0  0  0  0  0999 V2000
   -1.4840   14.4790    1.7720 O   0  0  0  0  0  0  0  0  0  0  0  0
   -2.5520   14.6260    1.1980 C   0  0  0  0  0  0  0  0  0  0  0  0
   -3.9050   14.9100    1.8280 C   0  0  0  0  0  0  0  0  0  0  0  0
   -2.8070   14.5730   -0.1620 N   0  0  0  0  0  0  0  0  0  0  0  0
   -4.4600   15.6710    0.7450 N   0  0  0  0  0  0  0  0  0  0  0  0
   -4.0500   15.0800   -0.3940 C   0  0  0  0  0  0  0  0  0  0  0  0
   -4.7940   15.0520   -1.4380 N   0  0  0  0  0  0  0  0  0  0  0  0
   -4.4980   14.4300   -2.7240 C   0  0  0  0  0  0  0  0  0  0  0  0
   -3.0140   14.3530   -3.0020 C   0  0  0  0  0  0  0  0  0  0  0  0
   -2.6230   12.9540   -3.4850 C   0  0  0  0  0  0  0  0  0  0  0  0
   -1.5040   13.0770   -4.3620 O   0  0  0  0  0  0  0  0  0  0  0  0
   -0.9240   14.3890   -4.2740 C   0  0  1  0  0  0  0  0  0  0  0  0
   -0.3750   14.6860   -2.8860 C   0  0  0  0  0  0  0  0  0  0  0  0
    0.3740   14.4350   -5.0580 C   0  0  2  0  0  0  0  0  0  0  0  0
    1.1480   13.2520   -4.9170 O   0  0  0  0  0  0  0  0  0  0  0  0
    0.6040   15.7200   -3.0640 O   0  0  0  0  0  0  0  0  0  0  0  0
    1.0280   15.6750   -4.4430 C   0  0  2  0  0  0  0  0  0  0  0  0
    0.6440   16.9760   -5.1290 C   0  0  0  0  0  0  0  0  0  0  0  0
  1  2  2  0
  2  3  1  0
  2  4  1  0
  3  5  1  0
  4  6  1  0
  5  6  1  0
  6  7  2  3
  7  8  1  0
  8  9  1  0
  9 10  1  0
 10 11  1  0
 12 11  1  1
 12 13  1  0
 12 14  1  0
 14 15  1  1
 13 16  1  0
 14 17  1  0
 16 17  1  0
 17 18  1  6
M  END
