x0895_1_A-x0727_0_A
     RDKit          3D

 23 24  0  0  0  0  0  0  0  0999 V2000
   -1.6040   14.7930    1.6670 O   0  0  0  0  0  0  0  0  0  0  0  0
   -2.6230   14.8200    0.9850 C   0  0  0  0  0  0  0  0  0  0  0  0
   -2.7020   14.9930   -0.5360 C   0  0  1  0  0  0  0  0  0  0  0  0
   -3.8900   14.7040    1.4590 N   0  0  0  0  0  0  0  0  0  0  0  0
   -2.0540   13.8740   -1.3630 C   0  0  0  0  0  0  0  0  0  0  0  0
   -4.1350   15.0690   -0.7090 N   0  0  0  0  0  0  0  0  0  0  0  0
   -4.8030   14.8540    0.4760 C   0  0  0  0  0  0  0  0  0  0  0  0
   -6.0140   14.8080    0.6040 O   0  0  0  0  0  0  0  0  0  0  0  0
   -0.6750   13.3540   -0.8940 C   0  0  0  0  0  0  0  0  0  0  0  0
    0.4900   13.8880   -1.7370 C   0  0  0  0  0  0  0  0  0  0  0  0
    1.2720   12.7850   -2.2460 O   0  0  0  0  0  0  0  0  0  0  0  0
    0.6680   11.9200   -3.1130 C   0  0  0  0  0  0  0  0  0  0  0  0
    0.8280   12.3560   -4.5900 C   0  0  1  0  0  0  0  0  0  0  0  0
    0.0810   10.9020   -2.7560 O   0  0  0  0  0  0  0  0  0  0  0  0
    0.1930   11.4670   -5.5750 N   0  0  0  0  0  0  0  0  0  0  0  0
    0.5550   13.8370   -4.8250 C   0  0  0  0  0  0  0  0  0  0  0  0
    0.6860   11.0740   -6.7770 C   0  0  0  0  0  0  0  0  0  0  0  0
    1.6300   11.7110   -7.1900 O   0  0  0  0  0  0  0  0  0  0  0  0
    0.1180    9.8850   -7.5410 C   0  0  0  0  0  0  0  0  0  0  0  0
   -1.1950   10.2900   -8.2240 C   0  0  0  0  0  0  0  0  0  0  0  0
   -0.2300    8.6890   -6.6330 C   0  0  0  0  0  0  0  0  0  0  0  0
   -2.1320    9.1030   -8.0370 C   0  0  0  0  0  0  0  0  0  0  0  0
   -1.7380    8.5290   -6.6900 C   0  0  0  0  0  0  0  0  0  0  0  0
  1  2  2  0
  2  3  1  0
  2  4  1  0
  3  5  1  6
  3  6  1  0
  4  7  1  0
  6  7  1  0
  7  8  2  0
  5  9  1  0
  9 10  1  0
 10 11  1  0
 11 12  1  0
 12 13  1  0
 12 14  2  0
 13 15  1  0
 13 16  1  1
 15 17  1  0
 17 18  2  0
 17 19  1  0
 19 20  1  0
 19 21  1  0
 20 22  1  0
 21 23  1  0
 22 23  1  0
M  END
