x0895_0_A-x0950_0_A
     RDKit          3D

 16 16  0  0  0  0  0  0  0  0999 V2000
   -1.5040   14.5770    1.9300 O   0  0  0  0  0  0  0  0  0  0  0  0
   -2.5140   14.7340    1.2610 C   0  0  0  0  0  0  0  0  0  0  0  0
   -3.9270   14.8390    1.7930 C   0  0  0  0  0  0  0  0  0  0  0  0
   -2.5780   14.8420   -0.0950 N   0  0  0  0  0  0  0  0  0  0  0  0
   -1.5680   14.3730   -1.0070 C   0  0  0  0  0  0  0  0  0  0  0  0
   -4.5780   15.4060    0.6550 N   0  0  0  0  0  0  0  0  0  0  0  0
   -3.8360   15.2050   -0.4760 C   0  0  0  0  0  0  0  0  0  0  0  0
   -4.2680   15.3320   -1.6080 O   0  0  0  0  0  0  0  0  0  0  0  0
   -0.1500   14.5280   -0.4740 C   0  0  0  0  0  0  0  0  0  0  0  0
    0.7940   13.6170   -1.2320 C   0  0  0  0  0  0  0  0  0  0  0  0
    0.2860   13.4210   -2.5470 O   0  0  0  0  0  0  0  0  0  0  0  0
    0.7200   12.3290   -3.2260 C   0  0  0  0  0  0  0  0  0  0  0  0
    1.4250   12.8200   -4.4860 C   0  0  1  0  0  0  0  0  0  0  0  0
    0.5680   11.1600   -2.8900 O   0  0  0  0  0  0  0  0  0  0  0  0
    2.9080   12.9360   -4.1920 C   0  0  0  0  0  0  0  0  0  0  0  0
    1.1890   12.0210   -5.6390 O   0  0  0  0  0  0  0  0  0  0  0  0
  1  2  2  0
  2  3  1  0
  2  4  1  0
  4  5  1  0
  3  6  1  0
  4  7  1  0
  6  7  1  0
  7  8  2  0
  5  9  1  0
  9 10  1  0
 10 11  1  0
 11 12  1  0
 12 13  1  0
 12 14  2  0
 13 15  1  1
 13 16  1  0
M  END
