x0895_0_A-x0290_0_A
     RDKit          3D

 12 12  0  0  0  0  0  0  0  0999 V2000
   -1.3250   14.4340    1.7220 O   0  0  0  0  0  0  0  0  0  0  0  0
   -2.3370   14.6640    1.0800 C   0  0  0  0  0  0  0  0  0  0  0  0
   -3.6660   15.0760    1.6180 C   0  0  0  0  0  0  0  0  0  0  0  0
   -2.5800   14.6220   -0.3020 N   0  0  0  0  0  0  0  0  0  0  0  0
   -1.5660   14.4860   -1.3350 C   0  0  0  0  0  0  0  0  0  0  0  0
   -4.0360   16.0620    0.5890 N   0  0  0  0  0  0  0  0  0  0  0  0
   -3.8730   15.2170   -0.5710 C   0  0  2  0  0  0  0  0  0  0  0  0
   -4.9120   14.2370   -0.4630 N   0  0  0  0  0  0  0  0  0  0  0  0
   -5.5100   14.3060    0.7030 C   0  0  0  0  0  0  0  0  0  0  0  0
   -6.6290   13.5000    1.3230 C   0  0  0  0  0  0  0  0  0  0  0  0
   -7.8370   13.6240    0.5030 N   0  0  0  0  0  0  0  0  0  0  0  0
   -8.5510   14.8600    0.7880 C   0  0  0  0  0  0  0  0  0  0  0  0
  1  2  2  0
  2  3  1  0
  2  4  1  0
  4  5  1  0
  3  6  1  0
  4  7  1  0
  6  7  1  0
  7  8  1  1
  8  9  2  3
  9 10  1  0
 10 11  1  0
 11 12  1  0
M  END
