x0895_1_A-x0727_0_A
     RDKit          3D

 23 24  0  0  0  0  0  0  0  0999 V2000
   -1.6010   14.7830    1.6630 O   0  0  0  0  0  0  0  0  0  0  0  0
   -2.6210   14.8130    0.9830 C   0  0  0  0  0  0  0  0  0  0  0  0
   -2.7010   14.9870   -0.5410 C   0  0  1  0  0  0  0  0  0  0  0  0
   -3.8870   14.7050    1.4600 N   0  0  0  0  0  0  0  0  0  0  0  0
   -2.0530   13.8700   -1.3670 C   0  0  0  0  0  0  0  0  0  0  0  0
   -4.1370   15.0620   -0.7090 N   0  0  0  0  0  0  0  0  0  0  0  0
   -4.8000   14.8540    0.4760 C   0  0  0  0  0  0  0  0  0  0  0  0
   -6.0120   14.8110    0.6070 O   0  0  0  0  0  0  0  0  0  0  0  0
   -0.6730   13.3560   -0.8980 C   0  0  0  0  0  0  0  0  0  0  0  0
    0.4870   13.8880   -1.7450 C   0  0  0  0  0  0  0  0  0  0  0  0
    1.2680   12.7820   -2.2470 O   0  0  0  0  0  0  0  0  0  0  0  0
    0.6610   11.9170   -3.1150 C   0  0  0  0  0  0  0  0  0  0  0  0
    0.8290   12.3550   -4.5890 C   0  0  1  0  0  0  0  0  0  0  0  0
    0.0660   10.9050   -2.7610 O   0  0  0  0  0  0  0  0  0  0  0  0
    0.1960   11.4670   -5.5780 N   0  0  0  0  0  0  0  0  0  0  0  0
    0.5550   13.8280   -4.8250 C   0  0  0  0  0  0  0  0  0  0  0  0
    0.6880   11.0730   -6.7760 C   0  0  0  0  0  0  0  0  0  0  0  0
    1.6340   11.7080   -7.1890 O   0  0  0  0  0  0  0  0  0  0  0  0
    0.1210    9.8880   -7.5400 C   0  0  0  0  0  0  0  0  0  0  0  0
   -1.1920   10.2950   -8.2180 C   0  0  0  0  0  0  0  0  0  0  0  0
   -0.2250    8.6910   -6.6280 C   0  0  0  0  0  0  0  0  0  0  0  0
   -2.1250    9.1080   -8.0310 C   0  0  0  0  0  0  0  0  0  0  0  0
   -1.7300    8.5340   -6.6840 C   0  0  0  0  0  0  0  0  0  0  0  0
  1  2  2  0
  2  3  1  0
  2  4  1  0
  3  5  1  6
  3  6  1  0
  4  7  1  0
  6  7  1  0
  7  8  2  0
  5  9  1  0
  9 10  1  0
 10 11  1  0
 11 12  1  0
 12 13  1  0
 12 14  2  0
 13 15  1  0
 13 16  1  1
 15 17  1  0
 17 18  2  0
 17 19  1  0
 19 20  1  0
 19 21  1  0
 20 22  1  0
 21 23  1  0
 22 23  1  0
M  END
