x0895_0_A-x0962_2_B
     RDKit          3D

 16 17  0  0  0  0  0  0  0  0999 V2000
   -1.6120   14.5510    1.8260 O   0  0  0  0  0  0  0  0  0  0  0  0
   -2.5610   14.8800    1.1250 C   0  0  0  0  0  0  0  0  0  0  0  0
   -3.7880   15.6960    1.5240 C   0  0  0  0  0  0  0  0  0  0  0  0
   -2.7170   14.5780   -0.1970 N   0  0  0  0  0  0  0  0  0  0  0  0
   -4.6970   15.1710    0.5420 N   0  0  0  0  0  0  0  0  0  0  0  0
   -3.9570   14.9640   -0.6000 C   0  0  0  0  0  0  0  0  0  0  0  0
   -4.3380   15.1040   -1.7480 O   0  0  0  0  0  0  0  0  0  0  0  0
   -5.8560   14.3580    0.9210 C   0  0  0  0  0  0  0  0  0  0  0  0
   -6.1110   14.3040    2.4350 C   0  0  0  0  0  0  0  0  0  0  0  0
   -7.3750   14.8790    2.8410 N   0  0  0  0  0  0  0  0  0  0  0  0
   -7.7200   15.4100    4.0650 C   0  0  0  0  0  0  0  0  0  0  0  0
   -8.4220   14.9830    2.0210 C   0  0  0  0  0  0  0  0  0  0  0  0
   -9.3810   15.5950    2.7500 C   0  0  0  0  0  0  0  0  0  0  0  0
   -8.9600   15.8650    4.0330 N   0  0  0  0  0  0  0  0  0  0  0  0
  -10.6500   15.9120    2.2230 C   0  0  0  0  0  0  0  0  0  0  0  0
  -11.6430   16.1530    1.6890 N   0  0  0  0  0  0  0  0  0  0  0  0
  1  2  2  0
  2  3  1  0
  2  4  1  0
  3  5  1  0
  4  6  1  0
  5  6  1  0
  6  7  2  0
  5  8  1  0
  8  9  1  0
  9 10  1  0
 10 11  1  0
 10 12  1  0
 12 13  2  0
 11 14  2  0
 13 14  1  0
 13 15  1  0
 15 16  3  0
M  END
