x0895_0_A-x0967_0_A
     RDKit          3D

 12 13  0  0  0  0  0  0  0  0999 V2000
   -1.5410   14.6170    1.8190 O   0  0  0  0  0  0  0  0  0  0  0  0
   -2.4920   14.4680    1.0650 C   0  0  0  0  0  0  0  0  0  0  0  0
   -3.6840   13.5990    1.2500 C   0  0  0  0  0  0  0  0  0  0  0  0
   -2.6800   15.0810   -0.1060 N   0  0  0  0  0  0  0  0  0  0  0  0
   -4.8190   14.3900    0.6020 C   0  0  1  0  0  0  0  0  0  0  0  0
   -4.0090   15.2760   -0.3430 C   0  0  0  0  0  0  0  0  0  0  0  0
   -4.4240   16.0040   -1.2140 O   0  0  0  0  0  0  0  0  0  0  0  0
   -5.6880   13.5130   -0.3390 C   0  0  0  0  0  0  0  0  0  0  0  0
   -5.6620   14.9620    1.7150 C   0  0  0  0  0  0  0  0  0  0  0  0
   -7.0090   14.0980   -0.6060 N   0  0  0  0  0  0  0  0  0  0  0  0
   -7.0080   14.8310    1.7200 C   0  0  0  0  0  0  0  0  0  0  0  0
   -7.7780   14.1610    0.6270 C   0  0  0  0  0  0  0  0  0  0  0  0
  1  2  2  0
  2  3  1  0
  2  4  1  0
  5  3  1  1
  4  6  1  0
  5  6  1  0
  6  7  2  0
  5  8  1  0
  5  9  1  0
  8 10  1  0
  9 11  2  0
 10 12  1  0
 11 12  1  0
M  END
