x0895_1_A-x0900_0_A
     RDKit          3D

  8  8  0  0  0  0  0  0  0  0999 V2000
   -1.7820   14.8120    1.4440 O   0  0  0  0  0  0  0  0  0  0  0  0
   -2.8990   14.8020    0.9300 C   0  0  0  0  0  0  0  0  0  0  0  0
   -3.2350   14.7090   -0.5490 C   0  0  0  0  0  0  0  0  0  0  0  0
   -4.0640   14.8720    1.6300 N   0  0  0  0  0  0  0  0  0  0  0  0
   -4.7290   14.8610   -0.5590 C   0  0  0  0  0  0  0  0  0  0  0  0
   -5.1790   14.8590    0.8680 C   0  0  0  0  0  0  0  0  0  0  0  0
   -6.3350   14.8420    1.2140 O   0  0  0  0  0  0  0  0  0  0  0  0
   -5.5040   14.9690   -1.4930 O   0  0  0  0  0  0  0  0  0  0  0  0
  1  2  2  0
  2  3  1  0
  2  4  1  0
  3  5  1  0
  4  6  1  0
  5  6  1  0
  6  7  2  0
  5  8  2  0
M  END
