x0895_1_A-x0685_1_A
     RDKit          3D

 22 23  0  0  0  0  0  0  0  0999 V2000
   -1.6480   14.7220    1.5200 O   0  0  0  0  0  0  0  0  0  0  0  0
   -2.7060   14.7010    0.8900 C   0  0  0  0  0  0  0  0  0  0  0  0
   -2.8780   14.6610   -0.6460 C   0  0  1  0  0  0  0  0  0  0  0  0
   -3.9390   14.7150    1.4540 N   0  0  0  0  0  0  0  0  0  0  0  0
   -2.3030   13.4410   -1.3420 C   0  0  0  0  0  0  0  0  0  0  0  0
   -4.3190   14.7030   -0.7270 N   0  0  0  0  0  0  0  0  0  0  0  0
   -4.9030   14.7660    0.5120 C   0  0  0  0  0  0  0  0  0  0  0  0
   -6.1010   14.8470    0.7160 O   0  0  0  0  0  0  0  0  0  0  0  0
   -0.8880   13.0760   -0.8990 C   0  0  0  0  0  0  0  0  0  0  0  0
    0.1020   13.4350   -1.8520 O   0  0  0  0  0  0  0  0  0  0  0  0
    0.7260   12.2800   -2.7890 S   0  0  0  0  0  0  0  0  0  0  0  0
    0.0440   12.5330   -4.4160 C   0  0  0  0  0  0  0  0  0  0  0  0
    2.3120   12.3930   -2.9640 O   0  0  0  0  0  0  0  0  0  0  0  0
    0.3020   10.7880   -2.3230 O   0  0  0  0  0  0  0  0  0  0  0  0
   -1.3770   11.9980   -4.5470 C   0  0  0  0  0  0  0  0  0  0  0  0
   -1.4590   10.6020   -4.9930 N   0  0  0  0  0  0  0  0  0  0  0  0
   -0.7560   10.3510   -6.2520 C   0  0  0  0  0  0  0  0  0  0  0  0
   -0.5400    8.8450   -6.4800 C   0  0  0  0  0  0  0  0  0  0  0  0
   -1.5840   10.9400   -7.4020 C   0  0  0  0  0  0  0  0  0  0  0  0
    0.1080    8.5580   -7.8300 C   0  0  0  0  0  0  0  0  0  0  0  0
   -0.9840   10.6430   -8.7750 C   0  0  0  0  0  0  0  0  0  0  0  0
   -0.7250    9.1470   -8.9660 C   0  0  0  0  0  0  0  0  0  0  0  0
  1  2  2  0
  2  3  1  0
  2  4  1  0
  3  5  1  1
  3  6  1  0
  4  7  1  0
  6  7  1  0
  7  8  2  0
  5  9  1  0
  9 10  1  0
 11 10  1  0
 11 12  1  0
 11 13  1  0
 11 14  1  0
 12 15  1  0
 15 16  1  0
 16 17  1  0
 17 18  1  0
 17 19  1  0
 18 20  1  0
 19 21  1  0
 20 22  1  0
 21 22  1  0
M  END
