x0895_0_A-x0855_0_A
     RDKit          3D

 20 21  0  0  0  0  0  0  0  0999 V2000
   -1.5410   14.5200    1.8840 O   0  0  0  0  0  0  0  0  0  0  0  0
   -2.4360   14.8860    1.1330 C   0  0  0  0  0  0  0  0  0  0  0  0
   -3.6820   15.6790    1.5160 C   0  0  0  0  0  0  0  0  0  0  0  0
   -2.5150   14.6670   -0.2200 N   0  0  0  0  0  0  0  0  0  0  0  0
   -1.6070   13.8400   -0.9970 C   0  0  0  0  0  0  0  0  0  0  0  0
   -4.5350   15.2340    0.4690 N   0  0  0  0  0  0  0  0  0  0  0  0
   -3.7690   15.0300   -0.6410 C   0  0  0  0  0  0  0  0  0  0  0  0
   -4.1720   15.1600   -1.7820 O   0  0  0  0  0  0  0  0  0  0  0  0
   -0.1230   14.1790   -0.7870 C   0  0  0  0  0  0  0  0  0  0  0  0
    0.6200   14.2670   -2.1220 C   0  0  0  0  0  0  0  0  0  0  0  0
    1.4160   13.0810   -2.3310 O   0  0  0  0  0  0  0  0  0  0  0  0
    0.8680   12.1150   -3.1210 C   0  0  0  0  0  0  0  0  0  0  0  0
    0.6020   10.9870   -2.7160 O   0  0  0  0  0  0  0  0  0  0  0  0
    0.6120   12.5520   -4.5410 C   0  0  0  0  0  0  0  0  0  0  0  0
   -0.4230   11.7100   -5.1010 N   0  0  0  0  0  0  0  0  0  0  0  0
   -0.2910   10.7810   -6.0930 C   0  0  0  0  0  0  0  0  0  0  0  0
   -1.6810   11.8060   -4.6190 N   0  0  0  0  0  0  0  0  0  0  0  0
   -1.5360   10.2380   -6.2450 C   0  0  0  0  0  0  0  0  0  0  0  0
   -2.3590   10.8980   -5.3260 C   0  0  0  0  0  0  0  0  0  0  0  0
   -2.0730    8.8950   -7.4190 Br  0  0  0  0  0  0  0  0  0  0  0  0
  1  2  2  0
  2  3  1  0
  2  4  1  0
  4  5  1  0
  3  6  1  0
  4  7  1  0
  6  7  1  0
  7  8  2  0
  5  9  1  0
  9 10  1  0
 10 11  1  0
 11 12  1  0
 12 13  2  0
 12 14  1  0
 14 15  1  0
 15 16  1  0
 15 17  1  0
 16 18  2  0
 17 19  2  0
 18 19  1  0
 18 20  1  0
M  END
