x0895_0_A-x0933_0_A
     RDKit          3D

  8  8  0  0  0  0  0  0  0  0999 V2000
   -1.5980   14.4680    1.8570 O   0  0  0  0  0  0  0  0  0  0  0  0
   -2.5760   14.8170    1.2110 C   0  0  0  0  0  0  0  0  0  0  0  0
   -3.7530   15.6420    1.7040 C   0  0  0  0  0  0  0  0  0  0  0  0
   -2.8050   14.5250   -0.1010 N   0  0  0  0  0  0  0  0  0  0  0  0
   -4.7280   15.1350    0.8100 N   0  0  0  0  0  0  0  0  0  0  0  0
   -4.0830   14.8880   -0.4110 C   0  0  0  0  0  0  0  0  0  0  0  0
   -4.5530   14.9890   -1.5310 O   0  0  0  0  0  0  0  0  0  0  0  0
   -5.8130   14.3950    1.3270 N   0  0  0  0  0  0  0  0  0  0  0  0
  1  2  2  0
  2  3  1  0
  2  4  1  0
  3  5  1  0
  4  6  1  0
  5  6  1  0
  6  7  2  0
  5  8  1  0
M  END
