x0895_0_A-x0421_0_A
     RDKit          3D

 11 12  0  0  0  0  0  0  0  0999 V2000
   -1.4150   14.6330    1.9630 O   0  0  0  0  0  0  0  0  0  0  0  0
   -2.4470   14.6810    1.3280 C   0  0  0  0  0  0  0  0  0  0  0  0
   -3.8490   14.4740    1.8140 C   0  0  0  0  0  0  0  0  0  0  0  0
   -2.5170   14.9480    0.0030 N   0  0  0  0  0  0  0  0  0  0  0  0
   -4.7060   14.5270    0.5740 C   0  0  0  0  0  0  0  0  0  0  0  0
   -3.8470   15.2620   -0.4640 C   0  0  2  0  0  0  0  0  0  0  0  0
   -3.7850   14.8560   -1.9440 C   0  0  0  0  0  0  0  0  0  0  0  0
   -6.2120   14.8020    0.6940 C   0  0  0  0  0  0  0  0  0  0  0  0
   -5.7480   13.4300    0.3460 C   0  0  0  0  0  0  0  0  0  0  0  0
   -4.9060   14.9190   -2.7080 N   0  0  0  0  0  0  0  0  0  0  0  0
   -2.7160   14.5010   -2.4490 O   0  0  0  0  0  0  0  0  0  0  0  0
  1  2  2  0
  2  3  1  0
  2  4  1  0
  5  3  1  0
  4  6  1  0
  5  6  1  0
  6  7  1  6
  5  8  1  0
  5  9  1  0
  8  9  1  0
  7 10  1  0
  7 11  2  0
M  END
