x0895_0_A-x0253_0_A
     RDKit          3D

 24 25  0  0  0  0  0  0  0  0999 V2000
   -1.6510   14.5860    1.9030 O   0  0  0  0  0  0  0  0  0  0  0  0
   -2.5640   14.9090    1.1520 C   0  0  0  0  0  0  0  0  0  0  0  0
   -3.8310   15.6800    1.5080 C   0  0  0  0  0  0  0  0  0  0  0  0
   -2.6400   14.6640   -0.1890 N   0  0  0  0  0  0  0  0  0  0  0  0
   -1.5780   14.1610   -1.0300 C   0  0  0  0  0  0  0  0  0  0  0  0
   -4.6660   15.2410    0.4410 N   0  0  0  0  0  0  0  0  0  0  0  0
   -3.8760   15.0160   -0.6470 C   0  0  0  0  0  0  0  0  0  0  0  0
   -4.2440   15.1210   -1.8060 O   0  0  0  0  0  0  0  0  0  0  0  0
   -0.1880   14.4370   -0.4580 C   0  0  0  0  0  0  0  0  0  0  0  0
    0.8710   13.8680   -1.3950 C   0  0  0  0  0  0  0  0  0  0  0  0
    0.5690   12.4540   -1.5790 N   0  0  0  0  0  0  0  0  0  0  0  0
    0.6570   11.8690   -2.7240 C   0  0  0  0  0  0  0  0  0  0  0  0
    0.3420   10.5410   -2.7070 O   0  0  0  0  0  0  0  0  0  0  0  0
    1.0660   12.4590   -4.1050 C   0  0  0  0  0  0  0  0  0  0  0  0
    0.3760   11.8680   -5.2560 N   0  0  0  0  0  0  0  0  0  0  0  0
    1.0650   11.6580   -6.4400 C   0  0  0  0  0  0  0  0  0  0  0  0
    2.1520   12.1860   -6.6000 O   0  0  0  0  0  0  0  0  0  0  0  0
    0.4490   10.7430   -7.4600 C   0  0  0  0  0  0  0  0  0  0  0  0
   -0.5340    9.8220   -7.0920 C   0  0  0  0  0  0  0  0  0  0  0  0
    0.8510   10.7930   -8.8080 C   0  0  0  0  0  0  0  0  0  0  0  0
   -1.1110    8.9670   -8.0410 C   0  0  0  0  0  0  0  0  0  0  0  0
    0.2830    9.9460   -9.7550 C   0  0  0  0  0  0  0  0  0  0  0  0
   -2.1670    7.9860   -7.6240 C   0  0  0  0  0  0  0  0  0  0  0  0
   -0.6970    9.0350   -9.3760 C   0  0  0  0  0  0  0  0  0  0  0  0
  1  2  2  0
  2  3  1  0
  2  4  1  0
  4  5  1  0
  3  6  1  0
  4  7  1  0
  6  7  1  0
  7  8  2  0
  5  9  1  0
  9 10  1  0
 10 11  1  0
 11 12  2  3
 12 13  1  0
 12 14  1  0
 14 15  1  0
 15 16  1  0
 16 17  2  0
 16 18  1  0
 18 19  2  0
 18 20  1  0
 19 21  1  0
 20 22  2  0
 21 23  1  0
 21 24  2  0
 22 24  1  0
M  END
