x0895_1_A-x0837_0_A
     RDKit          3D

  8  8  0  0  0  0  0  0  0  0999 V2000
   -1.7130   14.9000    1.5180 O   0  0  0  0  0  0  0  0  0  0  0  0
   -2.7770   14.9390    0.8930 C   0  0  0  0  0  0  0  0  0  0  0  0
   -3.0360   15.5160   -0.5140 C   0  0  1  0  0  0  0  0  0  0  0  0
   -3.9630   14.4760    1.3650 N   0  0  0  0  0  0  0  0  0  0  0  0
   -2.4240   14.3390   -2.1000 I   0  0  0  0  0  0  0  0  0  0  0  0
   -4.4720   15.5140   -0.5190 N   0  0  0  0  0  0  0  0  0  0  0  0
   -4.9840   14.8900    0.5830 C   0  0  0  0  0  0  0  0  0  0  0  0
   -6.1730   14.7420    0.8080 O   0  0  0  0  0  0  0  0  0  0  0  0
  1  2  2  0
  2  3  1  0
  2  4  1  0
  3  5  1  6
  3  6  1  0
  4  7  1  0
  6  7  1  0
  7  8  2  0
M  END
