x0895_1_A-x0950_1_A
     RDKit          3D

 16 16  0  0  0  0  0  0  0  0999 V2000
   -1.6090   14.8270    1.6700 O   0  0  0  0  0  0  0  0  0  0  0  0
   -2.6290   14.8660    0.9920 C   0  0  0  0  0  0  0  0  0  0  0  0
   -2.7120   15.1080   -0.5220 C   0  0  1  0  0  0  0  0  0  0  0  0
   -3.8900   14.7020    1.4670 N   0  0  0  0  0  0  0  0  0  0  0  0
   -1.9680   14.0490   -1.3430 C   0  0  0  0  0  0  0  0  0  0  0  0
   -4.1460   15.0470   -0.7000 N   0  0  0  0  0  0  0  0  0  0  0  0
   -4.8060   14.8460    0.4880 C   0  0  0  0  0  0  0  0  0  0  0  0
   -6.0170   14.8060    0.6190 O   0  0  0  0  0  0  0  0  0  0  0  0
   -0.6230   13.5420   -0.7870 C   0  0  0  0  0  0  0  0  0  0  0  0
    0.6270   14.0320   -1.5250 C   0  0  0  0  0  0  0  0  0  0  0  0
    1.4350   12.9420   -2.0100 O   0  0  0  0  0  0  0  0  0  0  0  0
    0.8990   12.1350   -2.9680 C   0  0  0  0  0  0  0  0  0  0  0  0
    1.3440   12.5410   -4.3840 C   0  0  2  0  0  0  0  0  0  0  0  0
    0.1600   11.1830   -2.7420 O   0  0  0  0  0  0  0  0  0  0  0  0
    1.0700   13.9960   -4.7110 C   0  0  0  0  0  0  0  0  0  0  0  0
    0.6820   11.7360   -5.3650 O   0  0  0  0  0  0  0  0  0  0  0  0
  1  2  2  0
  2  3  1  0
  2  4  1  0
  3  5  1  6
  3  6  1  0
  4  7  1  0
  6  7  1  0
  7  8  2  0
  5  9  1  0
  9 10  1  0
 10 11  1  0
 11 12  1  0
 12 13  1  0
 12 14  2  0
 13 15  1  6
 13 16  1  0
M  END
