x0895_1_A-x0628_0_A
     RDKit          3D

 21 22  0  0  0  0  0  0  0  0999 V2000
   -1.6120   14.6960    1.4210 O   0  0  0  0  0  0  0  0  0  0  0  0
   -2.6970   14.5480    0.8550 C   0  0  0  0  0  0  0  0  0  0  0  0
   -3.0060   14.0640   -0.5850 C   0  0  2  0  0  0  0  0  0  0  0  0
   -3.9060   14.7850    1.4380 N   0  0  0  0  0  0  0  0  0  0  0  0
   -1.9480   14.3380   -1.6680 C   0  0  0  0  0  0  0  0  0  0  0  0
   -4.2210   14.8230   -0.7410 N   0  0  0  0  0  0  0  0  0  0  0  0
   -4.8550   14.8580    0.4760 C   0  0  0  0  0  0  0  0  0  0  0  0
   -6.0580   14.9280    0.6480 O   0  0  0  0  0  0  0  0  0  0  0  0
   -1.4640   13.1070   -2.5010 C   0  0  0  0  0  0  0  0  0  0  0  0
   -2.2580   12.6800   -3.7730 C   0  0  0  0  0  0  0  0  0  0  0  0
   -1.5390   11.8370   -4.8120 C   0  0  0  0  0  0  0  0  0  0  0  0
   -1.9460   10.6850   -5.3360 N   0  0  0  0  0  0  0  0  0  0  0  0
   -0.3240   12.1440   -5.3950 N   0  0  0  0  0  0  0  0  0  0  0  0
    0.5440   13.2830   -5.1820 C   0  0  0  0  0  0  0  0  0  0  0  0
   -0.9550   10.3370   -6.2210 C   0  0  0  0  0  0  0  0  0  0  0  0
    0.0520   11.2060   -6.2880 N   0  0  0  0  0  0  0  0  0  0  0  0
   -0.9940    9.1020   -7.0330 C   0  0  0  0  0  0  0  0  0  0  0  0
    1.6910   12.9680   -4.2260 C   0  0  0  0  0  0  0  0  0  0  0  0
    1.1820   12.2580   -2.9970 C   0  0  0  0  0  0  0  0  0  0  0  0
    0.6780   11.1470   -2.9720 O   0  0  0  0  0  0  0  0  0  0  0  0
    1.3290   12.9910   -1.8760 O   0  0  0  0  0  0  0  0  0  0  0  0
  1  2  2  0
  2  3  1  0
  2  4  1  0
  3  5  1  6
  3  6  1  0
  4  7  1  0
  6  7  1  0
  7  8  2  0
  5  9  1  0
  9 10  1  0
 10 11  1  0
 11 12  2  0
 11 13  1  0
 13 14  1  0
 12 15  1  0
 13 16  1  0
 15 16  2  0
 15 17  1  0
 14 18  1  0
 18 19  1  0
 19 20  2  0
 19 21  1  0
M  END
