x0895_1_A_α-x0722_0_A_α
     RDKit          3D

 11 11  0  0  0  0  0  0  0  0999 V2000
   -1.7230   14.8330    1.6560 O   0  0  0  0  0  0  0  0  0  0  0  0
   -2.8040   14.8330    1.0700 C   0  0  0  0  0  0  0  0  0  0  0  0
   -3.0330   14.9650   -0.4430 C   0  0  1  0  0  0  0  0  0  0  0  0
   -4.0750   14.7110    1.6150 N   0  0  0  0  0  0  0  0  0  0  0  0
   -4.3970   15.3150    2.8820 C   0  0  0  0  0  0  0  0  0  0  0  0
   -1.9200   14.3600   -1.2750 C   0  0  0  0  0  0  0  0  0  0  0  0
   -4.2600   14.2390   -0.5370 N   0  0  0  0  0  0  0  0  0  0  0  0
   -4.9490   14.5360    0.5980 C   0  0  0  0  0  0  0  0  0  0  0  0
   -6.2190   14.6110    0.5520 N   0  0  0  0  0  0  0  0  0  0  0  0
   -6.8370   14.4020   -0.6290 C   0  0  0  0  0  0  0  0  0  0  0  0
   -7.5290   15.2160   -1.2130 O   0  0  0  0  0  0  0  0  0  0  0  0
  1  2  2  0
  2  3  1  0
  2  4  1  0
  4  5  1  0
  3  6  1  6
  3  7  1  0
  4  8  1  0
  7  8  1  0
  8  9  2  3
  9 10  1  0
 10 11  2  0
M  END
