x0895_0_A-x0727_0_A
     RDKit          3D

 23 24  0  0  0  0  0  0  0  0999 V2000
   -1.4180   14.5230    1.9280 O   0  0  0  0  0  0  0  0  0  0  0  0
   -2.3710   14.6700    1.1800 C   0  0  0  0  0  0  0  0  0  0  0  0
   -3.8080   14.9280    1.5900 C   0  0  0  0  0  0  0  0  0  0  0  0
   -2.3440   14.6270   -0.1850 N   0  0  0  0  0  0  0  0  0  0  0  0
   -1.1100   14.7050   -0.9580 C   0  0  0  0  0  0  0  0  0  0  0  0
   -4.2650   15.5730    0.4100 N   0  0  0  0  0  0  0  0  0  0  0  0
   -3.5570   15.0800   -0.6530 C   0  0  0  0  0  0  0  0  0  0  0  0
   -3.9860   15.0570   -1.7910 O   0  0  0  0  0  0  0  0  0  0  0  0
   -0.1990   13.4770   -0.9510 C   0  0  0  0  0  0  0  0  0  0  0  0
    1.1080   13.7630   -1.6980 C   0  0  0  0  0  0  0  0  0  0  0  0
    1.6460   12.5740   -2.2930 O   0  0  0  0  0  0  0  0  0  0  0  0
    0.8670   11.9530   -3.2240 C   0  0  0  0  0  0  0  0  0  0  0  0
    1.1110   12.5070   -4.6390 C   0  0  1  0  0  0  0  0  0  0  0  0
    0.0780   11.0440   -2.9670 O   0  0  0  0  0  0  0  0  0  0  0  0
    0.1600   11.8520   -5.5190 N   0  0  0  0  0  0  0  0  0  0  0  0
    0.8850   14.0060   -4.6980 C   0  0  0  0  0  0  0  0  0  0  0  0
    0.5050   11.1850   -6.6630 C   0  0  0  0  0  0  0  0  0  0  0  0
    1.5220   11.3820   -7.2950 O   0  0  0  0  0  0  0  0  0  0  0  0
   -0.5640   10.1690   -6.9940 C   0  0  0  0  0  0  0  0  0  0  0  0
   -1.0390   10.1080   -8.4300 C   0  0  0  0  0  0  0  0  0  0  0  0
   -0.2430    8.7160   -6.7020 C   0  0  0  0  0  0  0  0  0  0  0  0
   -1.9660    8.8920   -8.3890 C   0  0  0  0  0  0  0  0  0  0  0  0
   -1.5240    8.0550   -7.1790 C   0  0  0  0  0  0  0  0  0  0  0  0
  1  2  2  0
  2  3  1  0
  2  4  1  0
  4  5  1  0
  3  6  1  0
  4  7  1  0
  6  7  1  0
  7  8  2  0
  5  9  1  0
  9 10  1  0
 10 11  1  0
 11 12  1  0
 12 13  1  0
 12 14  2  0
 13 15  1  0
 13 16  1  1
 15 17  1  0
 17 18  2  0
 17 19  1  0
 19 20  1  0
 19 21  1  0
 20 22  1  0
 21 23  1  0
 22 23  1  0
M  END
