x0895_1_A_α-x0104_0_A_α
     RDKit          3D

 16 17  0  0  0  0  0  0  0  0999 V2000
   -1.6900   14.7330    1.5530 O   0  0  0  0  0  0  0  0  0  0  0  0
   -2.7920   14.7240    1.0100 C   0  0  0  0  0  0  0  0  0  0  0  0
   -3.0930   14.6130   -0.4830 C   0  0  0  0  0  0  0  0  0  0  0  0
   -4.0050   14.8090    1.6370 N   0  0  0  0  0  0  0  0  0  0  0  0
   -4.5110   14.9550   -0.5110 N   0  0  0  0  0  0  0  0  0  0  0  0
   -5.0310   14.8310    0.7450 C   0  0  0  0  0  0  0  0  0  0  0  0
   -6.2540   14.7390    1.1580 N   0  0  0  0  0  0  0  0  0  0  0  0
   -6.4450   14.6170    2.6160 C   0  0  0  0  0  0  0  0  0  0  0  0
   -7.8580   15.0050    3.1050 C   0  0  0  0  0  0  0  0  0  0  0  0
   -7.8910   15.0100    4.4920 N   0  0  0  0  0  0  0  0  0  0  0  0
   -8.7790   15.2640    2.3270 O   0  0  0  0  0  0  0  0  0  0  0  0
   -9.0270   15.0560    5.2840 C   0  0  0  0  0  0  0  0  0  0  0  0
   -9.2000   15.1870    6.6470 C   0  0  0  0  0  0  0  0  0  0  0  0
  -10.5140   14.9290    4.4590 S   0  0  0  0  0  0  0  0  0  0  0  0
  -10.5800   15.1790    7.0140 C   0  0  0  0  0  0  0  0  0  0  0  0
  -11.4070   15.0440    5.9200 C   0  0  0  0  0  0  0  0  0  0  0  0
  1  2  2  0
  2  3  1  0
  2  4  1  0
  3  5  1  0
  4  6  1  0
  5  6  1  0
  6  7  2  3
  7  8  1  0
  8  9  1  0
  9 10  1  0
  9 11  2  0
 10 12  1  0
 12 13  2  0
 12 14  1  0
 13 15  1  0
 14 16  1  0
 15 16  2  0
M  END
