x0895_0_A-x0950_1_A
     RDKit          3D

 16 16  0  0  0  0  0  0  0  0999 V2000
   -1.5810   14.4830    1.9390 O   0  0  0  0  0  0  0  0  0  0  0  0
   -2.4650   14.8390    1.1730 C   0  0  0  0  0  0  0  0  0  0  0  0
   -3.6980   15.6590    1.5250 C   0  0  0  0  0  0  0  0  0  0  0  0
   -2.5240   14.5880   -0.1720 N   0  0  0  0  0  0  0  0  0  0  0  0
   -1.3460   14.6830   -1.0170 C   0  0  0  0  0  0  0  0  0  0  0  0
   -4.5530   15.1730    0.5040 N   0  0  0  0  0  0  0  0  0  0  0  0
   -3.7790   14.9420   -0.6040 C   0  0  0  0  0  0  0  0  0  0  0  0
   -4.1820   15.0540   -1.7460 O   0  0  0  0  0  0  0  0  0  0  0  0
   -0.5350   13.4140   -1.1990 C   0  0  0  0  0  0  0  0  0  0  0  0
    0.9260   13.7530   -1.5020 C   0  0  0  0  0  0  0  0  0  0  0  0
    1.6190   12.6750   -2.1380 O   0  0  0  0  0  0  0  0  0  0  0  0
    0.9470   12.0080   -3.1010 C   0  0  0  0  0  0  0  0  0  0  0  0
    1.3240   12.5020   -4.5060 C   0  0  2  0  0  0  0  0  0  0  0  0
    0.1420   11.1050   -2.8860 O   0  0  0  0  0  0  0  0  0  0  0  0
    1.0180   13.9740   -4.7360 C   0  0  0  0  0  0  0  0  0  0  0  0
    0.6300   11.7490   -5.5040 O   0  0  0  0  0  0  0  0  0  0  0  0
  1  2  2  0
  2  3  1  0
  2  4  1  0
  4  5  1  0
  3  6  1  0
  4  7  1  0
  6  7  1  0
  7  8  2  0
  5  9  1  0
  9 10  1  0
 10 11  1  0
 11 12  1  0
 12 13  1  0
 12 14  2  0
 13 15  1  1
 13 16  1  0
M  END
