x0895_0_A-x0962_1_A
     RDKit          3D

 13 14  0  0  0  0  0  0  0  0999 V2000
   -1.0010   14.7440    1.8520 O   0  0  0  0  0  0  0  0  0  0  0  0
   -2.0110   14.8250    1.2090 C   0  0  0  0  0  0  0  0  0  0  0  0
   -3.3970   14.9130    1.7150 C   0  0  0  0  0  0  0  0  0  0  0  0
   -2.1760   14.8160   -0.1530 N   0  0  0  0  0  0  0  0  0  0  0  0
   -3.8850   13.7990    0.9050 N   0  0  0  0  0  0  0  0  0  0  0  0
   -3.4340   14.2390   -0.4020 C   0  0  1  0  0  0  0  0  0  0  0  0
   -4.4580   15.0950   -0.9100 N   0  0  0  0  0  0  0  0  0  0  0  0
   -4.3770   15.1680   -2.3850 N   0  0  0  0  0  0  0  0  0  0  0  0
   -5.7350   14.6170   -0.3660 C   0  0  1  0  0  0  0  0  0  0  0  0
   -5.7430   14.9020    1.0670 N   0  0  0  0  0  0  0  0  0  0  0  0
   -7.0920   15.1470   -0.7910 C   0  0  0  0  0  0  0  0  0  0  0  0
   -7.0690   14.5330    1.4940 C   0  0  0  0  0  0  0  0  0  0  0  0
   -7.9490   14.7300    0.3430 N   0  0  0  0  0  0  0  0  0  0  0  0
  1  2  2  0
  2  3  1  0
  2  4  1  0
  3  5  1  0
  4  6  1  0
  5  6  1  0
  6  7  1  1
  7  8  1  0
  9  7  1  6
  9 10  1  0
  9 11  1  0
 10 12  1  0
 11 13  1  0
 12 13  1  0
M  END
