x0895_1_A_α-x0631_0_A_β
     RDKit          3D

 21 22  0  0  0  0  0  0  0  0999 V2000
   -1.6520   14.8280    1.5660 O   0  0  0  0  0  0  0  0  0  0  0  0
   -2.7080   14.7580    0.9390 C   0  0  0  0  0  0  0  0  0  0  0  0
   -2.8680   14.5640   -0.5710 C   0  0  1  0  0  0  0  0  0  0  0  0
   -3.9540   14.8330    1.4780 N   0  0  0  0  0  0  0  0  0  0  0  0
   -2.5360   13.1440   -1.0220 C   0  0  0  0  0  0  0  0  0  0  0  0
   -4.2500   14.9360   -0.7140 N   0  0  0  0  0  0  0  0  0  0  0  0
   -4.8900   14.8800    0.5010 C   0  0  0  0  0  0  0  0  0  0  0  0
   -6.0960   14.8730    0.6570 O   0  0  0  0  0  0  0  0  0  0  0  0
   -2.3340   12.9450   -2.5300 C   0  0  0  0  0  0  0  0  0  0  0  0
   -1.9200   11.4980   -2.8510 C   0  0  0  0  0  0  0  0  0  0  0  0
   -2.8970   10.7710   -3.7880 C   0  0  0  0  0  0  0  0  0  0  0  0
   -2.2720    9.7790   -4.7780 C   0  0  0  0  0  0  0  0  0  0  0  0
   -2.5910   10.1020   -6.2450 C   0  0  0  0  0  0  0  0  0  0  0  0
   -2.6470    8.8600   -7.1450 C   0  0  0  0  0  0  0  0  0  0  0  0
   -1.5400    7.8620   -6.8200 C   0  0  0  0  0  0  0  0  0  0  0  0
   -0.1550    8.5110   -6.8000 C   0  0  0  0  0  0  0  0  0  0  0  0
    0.1090    9.5500   -7.8020 N   0  0  0  0  0  0  0  0  0  0  0  0
    0.9690    9.1960   -8.8720 N   0  0  0  0  0  0  0  0  0  0  0  0
    0.5890   10.7770   -7.3390 N   0  0  0  0  0  0  0  0  0  0  0  0
    0.9980   10.4760   -9.5760 C   0  0  0  0  0  0  0  0  0  0  0  0
    0.6720   11.4990   -8.5700 N   0  0  0  0  0  0  0  0  0  0  0  0
  1  2  2  0
  2  3  1  0
  2  4  1  0
  3  5  1  1
  3  6  1  0
  4  7  1  0
  6  7  1  0
  7  8  2  0
  5  9  1  0
  9 10  1  0
 10 11  1  0
 11 12  1  0
 12 13  1  0
 13 14  1  0
 14 15  1  0
 15 16  1  0
 16 17  1  0
 17 18  1  0
 17 19  1  0
 18 20  1  0
 19 21  1  0
 20 21  1  0
M  END
