x0895_1_A-x0895_0_A
     RDKit          3D

  8  8  0  0  0  0  0  0  0  0999 V2000
   -1.5900   14.6970    1.6750 O   0  0  0  0  0  0  0  0  0  0  0  0
   -2.6230   14.6810    1.0170 C   0  0  0  0  0  0  0  0  0  0  0  0
   -2.7180   14.5250   -0.4770 C   0  0  0  0  0  0  0  0  0  0  0  0
   -3.8890   14.7930    1.5260 N   0  0  0  0  0  0  0  0  0  0  0  0
   -4.1100   14.9770   -0.7410 C   0  0  0  0  0  0  0  0  0  0  0  0
   -4.8520   14.8780    0.5740 C   0  0  0  0  0  0  0  0  0  0  0  0
   -6.0530   14.8660    0.7090 O   0  0  0  0  0  0  0  0  0  0  0  0
   -4.5700   15.3480   -1.7970 O   0  0  0  0  0  0  0  0  0  0  0  0
  1  2  2  0
  2  3  1  0
  2  4  1  0
  3  5  1  0
  4  6  1  0
  5  6  1  0
  6  7  2  0
  5  8  2  0
M  END
