x0895_0_A_α-x0900_1_A_α
     RDKit          3D

 19 20  0  0  0  0  0  0  0  0999 V2000
   -1.5030   14.5330    1.8660 O   0  0  0  0  0  0  0  0  0  0  0  0
   -2.4630   14.7160    1.1350 C   0  0  0  0  0  0  0  0  0  0  0  0
   -3.9100   14.9760    1.5270 C   0  0  0  0  0  0  0  0  0  0  0  0
   -2.4690   14.7330   -0.2360 N   0  0  0  0  0  0  0  0  0  0  0  0
   -4.3790   15.6510    0.3420 N   0  0  0  0  0  0  0  0  0  0  0  0
   -3.6900   15.1050   -0.6870 C   0  0  0  0  0  0  0  0  0  0  0  0
   -3.9830   14.8940   -1.9030 N   0  0  0  0  0  0  0  0  0  0  0  0
   -2.9660   14.2720   -2.7580 C   0  0  0  0  0  0  0  0  0  0  0  0
   -2.8950   12.7670   -2.4680 C   0  0  0  0  0  0  0  0  0  0  0  0
   -1.6320   12.0880   -3.0140 C   0  0  0  0  0  0  0  0  0  0  0  0
   -1.9240   10.7780   -3.7570 C   0  0  0  0  0  0  0  0  0  0  0  0
   -0.9300   10.4580   -4.8860 C   0  0  0  0  0  0  0  0  0  0  0  0
   -1.3620   10.8530   -6.3120 C   0  0  0  0  0  0  0  0  0  0  0  0
   -1.7850    9.7010   -7.2430 C   0  0  1  0  0  0  0  0  0  0  0  0
   -0.8420    9.5350   -8.4190 C   0  0  0  0  0  0  0  0  0  0  0  0
   -1.6880    8.2990   -6.6310 C   0  0  0  0  0  0  0  0  0  0  0  0
   -0.9460    9.9970   -9.5410 O   0  0  0  0  0  0  0  0  0  0  0  0
    0.1810    8.7310   -7.9690 N   0  0  0  0  0  0  0  0  0  0  0  0
   -0.2310    7.9260   -6.8500 C   0  0  0  0  0  0  0  0  0  0  0  0
  1  2  2  0
  2  3  1  0
  2  4  1  0
  3  5  1  0
  4  6  1  0
  5  6  1  0
  6  7  2  3
  7  8  1  0
  8  9  1  0
  9 10  1  0
 10 11  1  0
 11 12  1  0
 12 13  1  0
 14 13  1  1
 14 15  1  0
 14 16  1  0
 15 17  2  0
 15 18  1  0
 16 19  1  0
 18 19  1  0
M  END
