x0895_1_A_α-x0910_1_A_α
     RDKit          3D

 11 12  0  0  0  0  0  0  0  0999 V2000
   -1.3930   14.7720    1.7300 O   0  0  0  0  0  0  0  0  0  0  0  0
   -2.4260   14.7260    1.1010 C   0  0  0  0  0  0  0  0  0  0  0  0
   -2.6390   14.6760   -0.3830 C   0  0  0  0  0  0  0  0  0  0  0  0
   -3.6940   14.6850    1.6130 N   0  0  0  0  0  0  0  0  0  0  0  0
   -3.6960   13.6650   -0.4380 N   0  0  0  0  0  0  0  0  0  0  0  0
   -4.5330   13.9840    0.7230 C   0  0  2  0  0  0  0  0  0  0  0  0
   -5.6010   14.6700    0.1070 N   0  0  0  0  0  0  0  0  0  0  0  0
   -6.9310   14.4660    0.2140 C   0  0  0  0  0  0  0  0  0  0  0  0
   -5.4210   15.6950   -0.7530 C   0  0  0  0  0  0  0  0  0  0  0  0
   -7.5400   15.3260   -0.5600 N   0  0  0  0  0  0  0  0  0  0  0  0
   -6.5780   16.1020   -1.1700 N   0  0  0  0  0  0  0  0  0  0  0  0
  1  2  2  0
  2  3  1  0
  2  4  1  0
  3  5  1  0
  4  6  1  0
  5  6  1  0
  6  7  1  6
  7  8  1  0
  7  9  1  0
  8 10  2  0
  9 11  2  0
 10 11  1  0
M  END
