x0895_1_A_α-x0592_0_A_α
     RDKit          3D

 17 18  0  0  0  0  0  0  0  0999 V2000
   -2.8470   14.4400   -1.1940 N   0  0  0  0  0  0  0  0  0  0  0  0
   -3.7900   15.0270   -1.9880 C   0  0  0  0  0  0  0  0  0  0  0  0
   -3.5350   15.6010   -3.0360 O   0  0  0  0  0  0  0  0  0  0  0  0
   -2.7720   14.8650   -0.0120 C   0  0  0  0  0  0  0  0  0  0  0  0
   -1.8990   14.5010    1.1440 C   0  0  0  0  0  0  0  0  0  0  0  0
   -3.6060   15.8290    0.4150 N   0  0  0  0  0  0  0  0  0  0  0  0
   -5.1630   14.9220   -1.4810 C   0  0  0  0  0  0  0  0  0  0  0  0
   -2.9850   14.5630    2.0660 N   0  0  0  0  0  0  0  0  0  0  0  0
   -3.8390   15.5670    1.7060 C   0  0  0  0  0  0  0  0  0  0  0  0
   -6.3650   15.1700   -2.1830 C   0  0  0  0  0  0  0  0  0  0  0  0
   -5.6200   14.5590   -0.2110 C   0  0  0  0  0  0  0  0  0  0  0  0
   -4.6400   16.0890    2.4320 O   0  0  0  0  0  0  0  0  0  0  0  0
   -7.4620   14.9900   -1.4510 N   0  0  0  0  0  0  0  0  0  0  0  0
   -6.9910   14.6190   -0.2520 N   0  0  0  0  0  0  0  0  0  0  0  0
   -7.9540   14.3400    0.8060 C   0  0  0  0  0  0  0  0  0  0  0  0
   -7.3200   13.7370    2.0530 C   0  0  0  0  0  0  0  0  0  0  0  0
   -7.1420   14.7080    3.0780 O   0  0  0  0  0  0  0  0  0  0  0  0
  1  2  1  0
  2  3  2  0
  1  4  2  3
  4  5  1  0
  4  6  1  0
  2  7  1  0
  5  8  1  0
  6  9  1  0
  8  9  1  0
  7 10  1  0
  7 11  2  0
  9 12  2  0
 10 13  2  0
 11 14  1  0
 13 14  1  0
 14 15  1  0
 15 16  1  0
 16 17  1  0
M  END
