x0895_0_A-x0864_0_A
     RDKit          3D

 22 23  0  0  0  0  0  0  0  0999 V2000
   -1.4410   14.6070    1.9330 O   0  0  0  0  0  0  0  0  0  0  0  0
   -2.4050   14.8210    1.2140 C   0  0  0  0  0  0  0  0  0  0  0  0
   -3.8420   14.9090    1.6820 C   0  0  0  0  0  0  0  0  0  0  0  0
   -2.3890   15.0350   -0.1360 N   0  0  0  0  0  0  0  0  0  0  0  0
   -1.1880   15.3660   -0.8740 C   0  0  0  0  0  0  0  0  0  0  0  0
   -4.4390   15.5260    0.5440 N   0  0  0  0  0  0  0  0  0  0  0  0
   -3.6670   15.2900   -0.5620 C   0  0  0  0  0  0  0  0  0  0  0  0
   -4.1050   15.3160   -1.7000 O   0  0  0  0  0  0  0  0  0  0  0  0
    0.0550   14.5760   -0.4370 C   0  0  0  0  0  0  0  0  0  0  0  0
    0.8100   13.9190   -1.5970 C   0  0  0  0  0  0  0  0  0  0  0  0
    0.6070   12.4650   -1.5670 N   0  0  0  0  0  0  0  0  0  0  0  0
    0.5280   11.7870   -2.6670 C   0  0  0  0  0  0  0  0  0  0  0  0
    0.6260   12.4260   -4.0580 C   0  0  0  0  0  0  0  0  0  0  0  0
    0.3490   10.4390   -2.6260 O   0  0  0  0  0  0  0  0  0  0  0  0
   -0.1390   11.6820   -5.0700 N   0  0  0  0  0  0  0  0  0  0  0  0
   -1.3600   11.1230   -4.7470 C   0  0  0  0  0  0  0  0  0  0  0  0
    0.4840   11.4160   -6.2850 C   0  0  0  0  0  0  0  0  0  0  0  0
    1.4660   12.0340   -6.6830 O   0  0  0  0  0  0  0  0  0  0  0  0
   -1.9080   10.1730   -5.5200 C   0  0  0  0  0  0  0  0  0  0  0  0
   -0.0800   10.3080   -7.0950 C   0  0  0  0  0  0  0  0  0  0  0  0
   -1.2220    9.7250   -6.7110 C   0  0  0  0  0  0  0  0  0  0  0  0
   -1.9850    8.3180   -7.6710 Br  0  0  0  0  0  0  0  0  0  0  0  0
  1  2  2  0
  2  3  1  0
  2  4  1  0
  4  5  1  0
  3  6  1  0
  4  7  1  0
  6  7  1  0
  7  8  2  0
  5  9  1  0
  9 10  1  0
 10 11  1  0
 11 12  2  3
 12 13  1  0
 12 14  1  0
 13 15  1  0
 15 16  1  0
 15 17  1  0
 17 18  2  0
 16 19  2  0
 17 20  1  0
 19 21  1  0
 20 21  2  0
 21 22  1  0
M  END
