x0895_1_A-x0864_0_A
     RDKit          3D

 22 23  0  0  0  0  0  0  0  0999 V2000
   -1.6140   14.8530    1.7160 O   0  0  0  0  0  0  0  0  0  0  0  0
   -2.6180   14.9490    1.0200 C   0  0  0  0  0  0  0  0  0  0  0  0
   -2.6850   15.2780   -0.4780 C   0  0  1  0  0  0  0  0  0  0  0  0
   -3.8880   14.7660    1.4730 N   0  0  0  0  0  0  0  0  0  0  0  0
   -1.6390   14.5130   -1.2960 C   0  0  0  0  0  0  0  0  0  0  0  0
   -4.0580   14.8620   -0.7210 N   0  0  0  0  0  0  0  0  0  0  0  0
   -4.7660   14.8070    0.4520 C   0  0  0  0  0  0  0  0  0  0  0  0
   -5.9820   14.7890    0.5500 O   0  0  0  0  0  0  0  0  0  0  0  0
   -0.1980   15.0500   -1.1500 C   0  0  0  0  0  0  0  0  0  0  0  0
    0.8560   14.3930   -2.0580 C   0  0  0  0  0  0  0  0  0  0  0  0
    0.7660   12.9390   -1.9060 N   0  0  0  0  0  0  0  0  0  0  0  0
    0.6000   12.1980   -2.9510 C   0  0  0  0  0  0  0  0  0  0  0  0
    0.4910   12.7670   -4.3660 C   0  0  0  0  0  0  0  0  0  0  0  0
    0.5060   10.8570   -2.8520 O   0  0  0  0  0  0  0  0  0  0  0  0
   -0.1690   11.7980   -5.2380 N   0  0  0  0  0  0  0  0  0  0  0  0
   -1.3560   11.2060   -4.8470 C   0  0  0  0  0  0  0  0  0  0  0  0
    0.5100   11.4070   -6.3850 C   0  0  0  0  0  0  0  0  0  0  0  0
    1.5470   11.9430   -6.7580 O   0  0  0  0  0  0  0  0  0  0  0  0
   -1.8810   10.1950   -5.5490 C   0  0  0  0  0  0  0  0  0  0  0  0
   -0.0680   10.2780   -7.1500 C   0  0  0  0  0  0  0  0  0  0  0  0
   -1.2090    9.7110   -6.7320 C   0  0  0  0  0  0  0  0  0  0  0  0
   -1.9880    8.2800   -7.6410 Br  0  0  0  0  0  0  0  0  0  0  0  0
  1  2  2  0
  2  3  1  0
  2  4  1  0
  3  5  1  6
  3  6  1  0
  4  7  1  0
  6  7  1  0
  7  8  2  0
  5  9  1  0
  9 10  1  0
 10 11  1  0
 11 12  2  3
 12 13  1  0
 12 14  1  0
 13 15  1  0
 15 16  1  0
 15 17  1  0
 17 18  2  0
 16 19  2  0
 17 20  1  0
 19 21  1  0
 20 21  2  0
 21 22  1  0
M  END
