x0895_0_A_α-x0524_0_A_α
     RDKit          3D

 30 32  0  0  0  0  0  0  0  0999 V2000
   -1.5420   14.5400    1.9220 O   0  0  0  0  0  0  0  0  0  0  0  0
   -2.4870   14.7370    1.1750 C   0  0  0  0  0  0  0  0  0  0  0  0
   -3.9430   15.0340    1.5300 C   0  0  0  0  0  0  0  0  0  0  0  0
   -2.4500   14.7320   -0.1930 N   0  0  0  0  0  0  0  0  0  0  0  0
   -4.3650   15.6660    0.3130 N   0  0  0  0  0  0  0  0  0  0  0  0
   -3.6630   15.0760   -0.6800 C   0  0  0  0  0  0  0  0  0  0  0  0
   -4.0920   14.8820   -1.8570 N   0  0  0  0  0  0  0  0  0  0  0  0
   -3.2510   14.2260   -2.8530 C   0  0  0  0  0  0  0  0  0  0  0  0
   -2.6960   12.9050   -2.2960 C   0  0  0  0  0  0  0  0  0  0  0  0
   -1.8220   12.1460   -3.2980 C   0  0  0  0  0  0  0  0  0  0  0  0
   -1.8360   10.6230   -3.1230 C   0  0  0  0  0  0  0  0  0  0  0  0
   -2.6940    9.8790   -4.1580 C   0  0  0  0  0  0  0  0  0  0  0  0
   -1.9550    8.9660   -5.1490 C   0  0  0  0  0  0  0  0  0  0  0  0
   -2.1150    9.3560   -6.6190 C   0  0  0  0  0  0  0  0  0  0  0  0
   -0.8020    9.6410   -7.3310 C   0  0  0  0  0  0  0  0  0  0  0  0
   -0.4550    8.6040   -8.1780 N   0  0  0  0  0  0  0  0  0  0  0  0
   -0.1690   10.6700   -7.1470 O   0  0  0  0  0  0  0  0  0  0  0  0
    0.6080    8.5760   -9.0960 C   0  0  0  0  0  0  0  0  0  0  0  0
    1.7070    7.7350   -8.9780 C   0  0  0  0  0  0  0  0  0  0  0  0
    0.5450    9.4450  -10.1870 C   0  0  0  0  0  0  0  0  0  0  0  0
    2.7290    7.7610   -9.9350 C   0  0  0  0  0  0  0  0  0  0  0  0
    1.5670    9.4690  -11.1420 C   0  0  0  0  0  0  0  0  0  0  0  0
    2.6770    8.6230  -11.0290 C   0  0  0  0  0  0  0  0  0  0  0  0
    3.6810    8.6750  -12.0090 N   0  0  0  0  0  0  0  0  0  0  0  0
    3.9420    9.5650  -13.0630 C   0  0  0  0  0  0  0  0  0  0  0  0
    3.2070   10.7300  -13.3040 C   0  0  0  0  0  0  0  0  0  0  0  0
    5.0070    9.2690  -13.9260 C   0  0  0  0  0  0  0  0  0  0  0  0
    3.5230   11.5740  -14.3710 C   0  0  0  0  0  0  0  0  0  0  0  0
    5.3260   10.1100  -14.9920 C   0  0  0  0  0  0  0  0  0  0  0  0
    4.5830   11.2630  -15.2150 C   0  0  0  0  0  0  0  0  0  0  0  0
  1  2  2  0
  2  3  1  0
  2  4  1  0
  3  5  1  0
  4  6  1  0
  5  6  1  0
  6  7  2  3
  7  8  1  0
  8  9  1  0
  9 10  1  0
 10 11  1  0
 11 12  1  0
 12 13  1  0
 13 14  1  0
 14 15  1  0
 15 16  1  0
 15 17  2  0
 16 18  1  0
 18 19  2  0
 18 20  1  0
 19 21  1  0
 20 22  2  0
 21 23  2  0
 22 23  1  0
 23 24  1  0
 24 25  1  0
 25 26  2  0
 25 27  1  0
 26 28  1  0
 27 29  2  0
 28 30  2  0
 29 30  1  0
M  END
