x0895_1_A-x0685_0_A
     RDKit          3D

 11 11  0  0  0  0  0  0  0  0999 V2000
   -1.9050   14.7510    0.9550 O   0  0  0  0  0  0  0  0  0  0  0  0
   -3.0860   14.8940    0.6600 C   0  0  0  0  0  0  0  0  0  0  0  0
   -3.7330   15.2940   -0.6760 C   0  0  1  0  0  0  0  0  0  0  0  0
   -4.1790   14.7190    1.4950 N   0  0  0  0  0  0  0  0  0  0  0  0
   -3.0370   15.0000   -1.9310 C   0  0  0  0  0  0  0  0  0  0  0  0
   -4.9230   14.4800   -0.5560 N   0  0  0  0  0  0  0  0  0  0  0  0
   -5.3100   14.5760    0.7350 C   0  0  0  0  0  0  0  0  0  0  0  0
   -6.5010   14.5480    1.2080 N   0  0  0  0  0  0  0  0  0  0  0  0
   -2.5820   14.8260   -2.9850 N   0  0  0  0  0  0  0  0  0  0  0  0
   -6.8430   14.6570    2.6230 C   0  0  0  0  0  0  0  0  0  0  0  0
   -7.4740   13.3540    3.0700 C   0  0  0  0  0  0  0  0  0  0  0  0
  1  2  2  0
  2  3  1  0
  2  4  1  0
  3  5  1  6
  3  6  1  0
  4  7  1  0
  6  7  1  0
  7  8  2  3
  5  9  3  0
  8 10  1  0
 10 11  1  0
M  END
