x0895_0_A-x0895_1_A
     RDKit          3D

  8  8  0  0  0  0  0  0  0  0999 V2000
   -1.5520   14.5680    1.8530 O   0  0  0  0  0  0  0  0  0  0  0  0
   -2.5370   14.8740    1.1970 C   0  0  0  0  0  0  0  0  0  0  0  0
   -3.8250   15.4780    1.7030 C   0  0  0  0  0  0  0  0  0  0  0  0
   -2.6550   14.7160   -0.1590 N   0  0  0  0  0  0  0  0  0  0  0  0
   -4.7550   15.0780    0.6230 C   0  0  0  0  0  0  0  0  0  0  0  0
   -3.8920   15.0370   -0.6200 C   0  0  0  0  0  0  0  0  0  0  0  0
   -4.2550   15.2480   -1.7510 O   0  0  0  0  0  0  0  0  0  0  0  0
   -5.9430   14.8250    0.6900 O   0  0  0  0  0  0  0  0  0  0  0  0
  1  2  2  0
  2  3  1  0
  2  4  1  0
  3  5  1  0
  4  6  1  0
  5  6  1  0
  6  7  2  0
  5  8  2  0
M  END
