x0895_0_A-x0626_0_A
     RDKit          3D

 12 12  0  0  0  0  0  0  0  0999 V2000
   -1.4240   14.4650    1.8630 O   0  0  0  0  0  0  0  0  0  0  0  0
   -2.3240   14.8470    1.1280 C   0  0  0  0  0  0  0  0  0  0  0  0
   -3.5130   15.7040    1.5160 C   0  0  0  0  0  0  0  0  0  0  0  0
   -2.4280   14.5750   -0.2030 N   0  0  0  0  0  0  0  0  0  0  0  0
   -4.3920   15.2050    0.5360 N   0  0  0  0  0  0  0  0  0  0  0  0
   -3.6680   14.9590   -0.6170 C   0  0  0  0  0  0  0  0  0  0  0  0
   -4.0610   15.0680   -1.7660 O   0  0  0  0  0  0  0  0  0  0  0  0
   -5.2860   14.2630    0.9970 N   0  0  0  0  0  0  0  0  0  0  0  0
   -6.5640   14.4360    0.5320 C   0  0  0  0  0  0  0  0  0  0  0  0
   -6.8240   14.6600   -0.6450 O   0  0  0  0  0  0  0  0  0  0  0  0
   -7.5900   14.3310    1.6300 C   0  0  0  0  0  0  0  0  0  0  0  0
   -8.9680   14.7100    1.1290 C   0  0  0  0  0  0  0  0  0  0  0  0
  1  2  2  0
  2  3  1  0
  2  4  1  0
  3  5  1  0
  4  6  1  0
  5  6  1  0
  6  7  2  0
  5  8  1  0
  8  9  1  0
  9 10  2  0
  9 11  1  0
 11 12  1  0
M  END
