x0895_0_A-x0128_0_A
     RDKit          3D

 22 24  0  0  0  0  0  0  0  0999 V2000
   -1.5510   14.6380    1.9330 O   0  0  0  0  0  0  0  0  0  0  0  0
   -2.4490   14.9270    1.1610 C   0  0  0  0  0  0  0  0  0  0  0  0
   -3.3540   16.1750    1.0620 C   0  0  0  0  0  0  0  0  0  0  0  0
   -2.9230   14.1630    0.1270 N   0  0  0  0  0  0  0  0  0  0  0  0
   -3.7720   16.0420   -0.3410 N   0  0  0  0  0  0  0  0  0  0  0  0
   -4.0590   14.7990   -0.2430 C   0  0  0  0  0  0  0  0  0  0  0  0
   -5.2170   14.3100   -0.3940 C   0  0  0  0  0  0  0  0  0  0  0  0
   -6.4130   15.0460   -0.7520 C   0  0  0  0  0  0  0  0  0  0  0  0
   -5.3070   12.9600   -0.0410 C   0  0  0  0  0  0  0  0  0  0  0  0
   -7.4400   14.8120    0.0570 C   0  0  0  0  0  0  0  0  0  0  0  0
   -6.3170   12.7310    0.7930 C   0  0  0  0  0  0  0  0  0  0  0  0
   -7.2800   13.8390    1.2030 C   0  0  0  0  0  0  0  0  0  0  0  0
   -6.8550   14.5580    2.3840 N   0  0  0  0  0  0  0  0  0  0  0  0
   -7.8370   15.2170    3.1040 C   0  0  0  0  0  0  0  0  0  0  0  0
   -8.8780   15.5560    2.5560 O   0  0  0  0  0  0  0  0  0  0  0  0
   -7.5230   15.4430    4.4330 N   0  0  0  0  0  0  0  0  0  0  0  0
   -8.3620   16.1120    5.3600 C   0  0  0  0  0  0  0  0  0  0  0  0
   -9.0680   17.2400    4.9310 C   0  0  0  0  0  0  0  0  0  0  0  0
   -8.5450   15.7320    6.6870 C   0  0  0  0  0  0  0  0  0  0  0  0
   -9.9050   17.9760    5.7000 N   0  0  0  0  0  0  0  0  0  0  0  0
   -9.4020   16.4730    7.5080 C   0  0  0  0  0  0  0  0  0  0  0  0
  -10.0520   17.5750    6.9750 C   0  0  0  0  0  0  0  0  0  0  0  0
  1  2  2  0
  2  3  1  0
  2  4  1  0
  3  5  1  0
  4  6  1  0
  5  6  1  0
  6  7  2  3
  7  8  1  0
  7  9  1  0
  8 10  2  0
  9 11  2  0
 10 12  1  0
 11 12  1  0
 12 13  1  0
 13 14  1  0
 14 15  2  0
 14 16  1  0
 16 17  1  0
 17 18  2  0
 17 19  1  0
 18 20  1  0
 19 21  2  0
 20 22  2  0
 21 22  1  0
M  END
