x0895_1_A-x0910_0_A
     RDKit          3D

 13 14  0  0  0  0  0  0  0  0999 V2000
   -2.2440   15.0030    1.6220 O   0  0  0  0  0  0  0  0  0  0  0  0
   -3.3320   15.0420    1.0210 C   0  0  0  0  0  0  0  0  0  0  0  0
   -3.5920   15.1930   -0.4920 C   0  0  1  0  0  0  0  0  0  0  0  0
   -4.5520   14.9490    1.5890 N   0  0  0  0  0  0  0  0  0  0  0  0
   -2.5990   14.5690   -1.3200 N   0  0  0  0  0  0  0  0  0  0  0  0
   -4.8490   14.5710   -0.5940 N   0  0  0  0  0  0  0  0  0  0  0  0
   -5.4670   14.7030    0.6260 C   0  0  0  0  0  0  0  0  0  0  0  0
   -6.6660   14.6090    0.8100 O   0  0  0  0  0  0  0  0  0  0  0  0
   -1.4130   14.6310   -0.7330 C   0  0  0  0  0  0  0  0  0  0  0  0
   -1.3010   14.3080    0.5830 N   0  0  0  0  0  0  0  0  0  0  0  0
   -0.2540   14.9790   -1.1880 N   0  0  0  0  0  0  0  0  0  0  0  0
   -0.0630   14.4530    1.0280 N   0  0  0  0  0  0  0  0  0  0  0  0
    0.5350   14.8660   -0.0950 C   0  0  0  0  0  0  0  0  0  0  0  0
  1  2  2  0
  2  3  1  0
  2  4  1  0
  3  5  1  6
  3  6  1  0
  4  7  1  0
  6  7  1  0
  7  8  2  0
  5  9  1  0
  9 10  1  0
  9 11  2  0
 10 12  1  0
 11 13  1  0
 12 13  2  0
M  END
