x0895_0_A_α-x0104_0_A_β
     RDKit          3D

 15 16  0  0  0  0  0  0  0  0999 V2000
   -1.5930   14.2230    2.1030 O   0  0  0  0  0  0  0  0  0  0  0  0
   -1.9130   14.8380    1.1260 C   0  0  0  0  0  0  0  0  0  0  0  0
   -1.0200   15.5440    0.1630 C   0  0  0  0  0  0  0  0  0  0  0  0
   -3.1560   15.0630    0.6080 N   0  0  0  0  0  0  0  0  0  0  0  0
   -1.8120   15.4360   -1.0770 N   0  0  0  0  0  0  0  0  0  0  0  0
   -3.0980   15.1920   -0.7570 C   0  0  0  0  0  0  0  0  0  0  0  0
   -4.1830   15.0710   -1.5190 C   0  0  0  0  0  0  0  0  0  0  0  0
   -4.3300   15.1400   -3.0070 C   0  0  0  0  0  0  0  0  0  0  0  0
   -5.2990   14.8530   -0.6530 C   0  0  0  0  0  0  0  0  0  0  0  0
   -4.7740   15.1440    0.5170 N   0  0  0  0  0  0  0  0  0  0  0  0
   -6.6120   14.4490   -0.8320 C   0  0  0  0  0  0  0  0  0  0  0  0
   -5.5050   15.0410    1.5800 C   0  0  0  0  0  0  0  0  0  0  0  0
   -7.3920   14.3400    0.3440 C   0  0  0  0  0  0  0  0  0  0  0  0
   -6.8070   14.6430    1.5870 C   0  0  0  0  0  0  0  0  0  0  0  0
   -7.4310   14.5740    2.8210 N   0  0  0  0  0  0  0  0  0  0  0  0
  1  2  2  0
  2  3  1  0
  2  4  1  0
  3  5  1  0
  4  6  1  0
  5  6  1  0
  6  7  2  3
  7  8  1  0
  7  9  1  0
  9 10  2  0
  9 11  1  0
 10 12  1  0
 11 13  2  0
 12 14  2  0
 13 14  1  0
 14 15  1  0
M  END
