x0895_1_A-x0910_1_A
     RDKit          3D

 11 12  0  0  0  0  0  0  0  0999 V2000
   -1.4030   14.8110    1.7370 O   0  0  0  0  0  0  0  0  0  0  0  0
   -2.4330   14.7450    1.1050 C   0  0  0  0  0  0  0  0  0  0  0  0
   -2.6300   14.6900   -0.3760 C   0  0  0  0  0  0  0  0  0  0  0  0
   -3.6980   14.6950    1.6140 N   0  0  0  0  0  0  0  0  0  0  0  0
   -3.6830   13.6650   -0.4250 N   0  0  0  0  0  0  0  0  0  0  0  0
   -4.5320   13.9890    0.7230 C   0  0  2  0  0  0  0  0  0  0  0  0
   -5.5990   14.6730    0.0970 N   0  0  0  0  0  0  0  0  0  0  0  0
   -6.9280   14.4650    0.1950 C   0  0  0  0  0  0  0  0  0  0  0  0
   -5.4160   15.6990   -0.7640 C   0  0  0  0  0  0  0  0  0  0  0  0
   -7.5370   15.3220   -0.5830 N   0  0  0  0  0  0  0  0  0  0  0  0
   -6.5750   16.0990   -1.1880 N   0  0  0  0  0  0  0  0  0  0  0  0
  1  2  2  0
  2  3  1  0
  2  4  1  0
  3  5  1  0
  4  6  1  0
  5  6  1  0
  6  7  1  6
  7  8  1  0
  7  9  1  0
  8 10  2  0
  9 11  2  0
 10 11  1  0
M  END
