x0895_1_A-x0844_0_A
     RDKit          3D

  8  8  0  0  0  0  0  0  0  0999 V2000
   -1.7140   14.9190    1.5030 O   0  0  0  0  0  0  0  0  0  0  0  0
   -2.7880   14.9510    0.8840 C   0  0  0  0  0  0  0  0  0  0  0  0
   -3.0580   15.5140   -0.5150 C   0  0  1  0  0  0  0  0  0  0  0  0
   -3.9700   14.4810    1.3590 N   0  0  0  0  0  0  0  0  0  0  0  0
   -2.4390   14.4020   -1.9470 Br  0  0  0  0  0  0  0  0  0  0  0  0
   -4.4850   15.5140   -0.5280 N   0  0  0  0  0  0  0  0  0  0  0  0
   -4.9940   14.8880    0.5780 C   0  0  0  0  0  0  0  0  0  0  0  0
   -6.1790   14.7390    0.8060 O   0  0  0  0  0  0  0  0  0  0  0  0
  1  2  2  0
  2  3  1  0
  2  4  1  0
  3  5  1  6
  3  6  1  0
  4  7  1  0
  6  7  1  0
  7  8  2  0
M  END
