x0895_0_A_α-x0421_0_A_α
     RDKit          3D

 11 12  0  0  0  0  0  0  0  0999 V2000
   -1.4160   14.6350    1.9610 O   0  0  0  0  0  0  0  0  0  0  0  0
   -2.4470   14.6800    1.3250 C   0  0  0  0  0  0  0  0  0  0  0  0
   -3.8490   14.4740    1.8100 C   0  0  0  0  0  0  0  0  0  0  0  0
   -2.5190   14.9440   -0.0010 N   0  0  0  0  0  0  0  0  0  0  0  0
   -4.7070   14.5280    0.5700 C   0  0  0  0  0  0  0  0  0  0  0  0
   -3.8450   15.2620   -0.4660 C   0  0  2  0  0  0  0  0  0  0  0  0
   -3.7840   14.8590   -1.9450 C   0  0  0  0  0  0  0  0  0  0  0  0
   -6.2110   14.8020    0.6920 C   0  0  0  0  0  0  0  0  0  0  0  0
   -5.7470   13.4290    0.3510 C   0  0  0  0  0  0  0  0  0  0  0  0
   -4.9020   14.9210   -2.7090 N   0  0  0  0  0  0  0  0  0  0  0  0
   -2.7140   14.5020   -2.4510 O   0  0  0  0  0  0  0  0  0  0  0  0
  1  2  2  0
  2  3  1  0
  2  4  1  0
  5  3  1  0
  4  6  1  0
  5  6  1  0
  6  7  1  6
  5  8  1  0
  5  9  1  0
  8  9  1  0
  7 10  1  0
  7 11  2  0
M  END
