x0895_0_A_α-x0910_1_A_α
     RDKit          3D

 13 14  0  0  0  0  0  0  0  0999 V2000
   -0.9520   14.7370    1.6620 O   0  0  0  0  0  0  0  0  0  0  0  0
   -2.0170   14.6010    1.1150 C   0  0  0  0  0  0  0  0  0  0  0  0
   -3.3030   14.3360    1.8740 C   0  0  0  0  0  0  0  0  0  0  0  0
   -2.3400   14.6550   -0.2400 N   0  0  0  0  0  0  0  0  0  0  0  0
   -4.1460   14.0560    0.7740 N   0  0  0  0  0  0  0  0  0  0  0  0
   -3.6900   14.6900   -0.3080 C   0  0  0  0  0  0  0  0  0  0  0  0
   -4.3820   15.2270   -1.2060 N   0  0  0  0  0  0  0  0  0  0  0  0
   -5.6240   15.0310   -0.7200 N   0  0  0  0  0  0  0  0  0  0  0  0
   -6.7990   14.8740   -1.3550 N   0  0  0  0  0  0  0  0  0  0  0  0
   -5.8290   14.9490    0.6350 C   0  0  0  0  0  0  0  0  0  0  0  0
   -7.6260   14.6990   -0.3200 C   0  0  0  0  0  0  0  0  0  0  0  0
   -7.0820   14.7360    0.9100 N   0  0  0  0  0  0  0  0  0  0  0  0
   -8.9300   14.4900   -0.3730 N   0  0  0  0  0  0  0  0  0  0  0  0
  1  2  2  0
  2  3  1  0
  2  4  1  0
  3  5  1  0
  4  6  1  0
  5  6  1  0
  6  7  2  3
  7  8  1  0
  8  9  1  0
  8 10  1  0
  9 11  2  0
 10 12  2  0
 11 12  1  0
 11 13  1  0
M  END
