x0895_1_A_α-x0253_0_A_α
     RDKit          3D

 24 25  0  0  0  0  0  0  0  0999 V2000
   -1.6030   14.6390    1.7750 O   0  0  0  0  0  0  0  0  0  0  0  0
   -2.6130   14.6430    1.0850 C   0  0  0  0  0  0  0  0  0  0  0  0
   -2.6640   14.5460   -0.4390 C   0  0  2  0  0  0  0  0  0  0  0  0
   -3.8910   14.7410    1.5330 N   0  0  0  0  0  0  0  0  0  0  0  0
   -1.4570   15.2380   -1.0660 C   0  0  0  0  0  0  0  0  0  0  0  0
   -3.9590   15.1610   -0.6310 N   0  0  0  0  0  0  0  0  0  0  0  0
   -4.7290   14.9410    0.4890 C   0  0  0  0  0  0  0  0  0  0  0  0
   -5.9480   14.9210    0.5300 O   0  0  0  0  0  0  0  0  0  0  0  0
   -0.1340   14.6530   -0.5340 C   0  0  0  0  0  0  0  0  0  0  0  0
    0.7130   13.9940   -1.6340 C   0  0  0  0  0  0  0  0  0  0  0  0
    0.4410   12.5500   -1.5920 N   0  0  0  0  0  0  0  0  0  0  0  0
    0.5900   11.8570   -2.6830 C   0  0  0  0  0  0  0  0  0  0  0  0
    0.3490   10.5190   -2.6660 O   0  0  0  0  0  0  0  0  0  0  0  0
    1.0360   12.4630   -4.0370 C   0  0  0  0  0  0  0  0  0  0  0  0
    0.3640   11.8690   -5.2030 N   0  0  0  0  0  0  0  0  0  0  0  0
    1.0520   11.6800   -6.3990 C   0  0  0  0  0  0  0  0  0  0  0  0
    2.1300   12.2260   -6.5670 O   0  0  0  0  0  0  0  0  0  0  0  0
    0.4420   10.7610   -7.4270 C   0  0  0  0  0  0  0  0  0  0  0  0
   -0.5430    9.8390   -7.0590 C   0  0  0  0  0  0  0  0  0  0  0  0
    0.8480   10.8060   -8.7710 C   0  0  0  0  0  0  0  0  0  0  0  0
   -1.1150    8.9810   -8.0120 C   0  0  0  0  0  0  0  0  0  0  0  0
    0.2850    9.9570   -9.7220 C   0  0  0  0  0  0  0  0  0  0  0  0
   -2.1710    8.0010   -7.6010 C   0  0  0  0  0  0  0  0  0  0  0  0
   -0.6950    9.0460   -9.3440 C   0  0  0  0  0  0  0  0  0  0  0  0
  1  2  2  0
  2  3  1  0
  2  4  1  0
  3  5  1  6
  3  6  1  0
  4  7  1  0
  6  7  1  0
  7  8  2  0
  5  9  1  0
  9 10  1  0
 10 11  1  0
 11 12  2  3
 12 13  1  0
 12 14  1  0
 14 15  1  0
 15 16  1  0
 16 17  2  0
 16 18  1  0
 18 19  2  0
 18 20  1  0
 19 21  1  0
 20 22  2  0
 21 23  1  0
 21 24  2  0
 22 24  1  0
M  END
