x0895_0_A_α-x0689_0_A_α
     RDKit          3D

 14 15  0  0  0  0  0  0  0  0999 V2000
   -2.6960   13.7920    2.2720 O   0  0  0  0  0  0  0  0  0  0  0  0
   -3.3210   14.0670    1.2890 C   0  0  0  0  0  0  0  0  0  0  0  0
   -3.3860   15.4040    0.7500 C   0  0  2  0  0  0  0  0  0  0  0  0
   -3.9640   13.2560    0.4120 N   0  0  0  0  0  0  0  0  0  0  0  0
   -4.3150   15.2240   -0.3220 N   0  0  0  0  0  0  0  0  0  0  0  0
   -4.1240   13.9730   -0.7310 C   0  0  0  0  0  0  0  0  0  0  0  0
   -2.0170   15.1280    0.3950 C   0  0  0  0  0  0  0  0  0  0  0  0
   -4.1050   13.5940   -1.8790 O   0  0  0  0  0  0  0  0  0  0  0  0
   -1.7600   14.8770   -0.8980 N   0  0  0  0  0  0  0  0  0  0  0  0
   -1.1610   15.1240    1.4010 N   0  0  0  0  0  0  0  0  0  0  0  0
   -5.6020   15.7410   -0.3330 C   0  0  0  0  0  0  0  0  0  0  0  0
   -0.4950   14.6080   -1.1880 C   0  0  0  0  0  0  0  0  0  0  0  0
    0.0730   14.8510    1.0490 C   0  0  0  0  0  0  0  0  0  0  0  0
    0.4790   14.5820   -0.2400 C   0  0  0  0  0  0  0  0  0  0  0  0
  1  2  2  0
  2  3  1  0
  2  4  1  0
  3  5  1  0
  4  6  1  0
  5  6  1  0
  3  7  1  6
  6  8  2  0
  7  9  2  0
  7 10  1  0
  5 11  1  0
  9 12  1  0
 10 13  2  0
 12 14  2  0
 13 14  1  0
M  END
