x0895_1_A_α-x0465_0_A_α
     RDKit          3D

 23 24  0  0  0  0  0  0  0  0999 V2000
   -1.6940   14.8030    1.6220 O   0  0  0  0  0  0  0  0  0  0  0  0
   -2.7320   14.7540    0.9660 C   0  0  0  0  0  0  0  0  0  0  0  0
   -2.8470   14.7150   -0.5650 C   0  0  1  0  0  0  0  0  0  0  0  0
   -3.9900   14.7230    1.4800 N   0  0  0  0  0  0  0  0  0  0  0  0
   -1.7360   13.8630   -1.1900 C   0  0  0  0  0  0  0  0  0  0  0  0
   -4.1930   14.2220   -0.6510 N   0  0  0  0  0  0  0  0  0  0  0  0
   -4.8870   14.5290    0.4920 C   0  0  0  0  0  0  0  0  0  0  0  0
   -6.1000   14.6110    0.5930 O   0  0  0  0  0  0  0  0  0  0  0  0
   -0.4080   14.6420   -1.3290 C   0  0  0  0  0  0  0  0  0  0  0  0
    0.8820   13.8820   -1.6620 C   0  0  0  0  0  0  0  0  0  0  0  0
    0.6300   12.4530   -1.7730 N   0  0  0  0  0  0  0  0  0  0  0  0
    0.5700   11.8930   -2.9380 C   0  0  0  0  0  0  0  0  0  0  0  0
    0.7150   12.5110   -4.3550 C   0  0  1  0  0  0  0  0  0  0  0  0
    0.3410   10.5610   -2.9340 O   0  0  0  0  0  0  0  0  0  0  0  0
    2.1110   13.1260   -4.5060 C   0  0  0  0  0  0  0  0  0  0  0  0
    0.6380   11.5320   -5.4060 O   0  0  0  0  0  0  0  0  0  0  0  0
   -0.5020   10.8070   -5.6590 C   0  0  0  0  0  0  0  0  0  0  0  0
   -0.6410    9.7620   -6.5850 C   0  0  0  0  0  0  0  0  0  0  0  0
   -1.6190   11.1660   -4.8970 C   0  0  0  0  0  0  0  0  0  0  0  0
    0.3780    9.3570   -7.3530 F   0  0  0  0  0  0  0  0  0  0  0  0
   -1.8530    9.0960   -6.7450 C   0  0  0  0  0  0  0  0  0  0  0  0
   -2.8390   10.5000   -5.0580 C   0  0  0  0  0  0  0  0  0  0  0  0
   -2.9540    9.4640   -5.9820 C   0  0  0  0  0  0  0  0  0  0  0  0
  1  2  2  0
  2  3  1  0
  2  4  1  0
  3  5  1  6
  3  6  1  0
  4  7  1  0
  6  7  1  0
  7  8  2  0
  5  9  1  0
  9 10  1  0
 10 11  1  0
 11 12  2  3
 12 13  1  0
 12 14  1  0
 13 15  1  1
 13 16  1  0
 16 17  1  0
 17 18  2  0
 17 19  1  0
 18 20  1  0
 18 21  1  0
 19 22  2  0
 21 23  2  0
 22 23  1  0
M  END
