x0895_1_A_α-x0926_0_A_α
     RDKit          3D

  7  7  0  0  0  0  0  0  0  0999 V2000
   -1.6440   14.7640    1.5800 O   0  0  0  0  0  0  0  0  0  0  0  0
   -2.7070   14.7390    0.9660 C   0  0  0  0  0  0  0  0  0  0  0  0
   -2.8780   14.5910   -0.5420 C   0  0  0  0  0  0  0  0  0  0  0  0
   -3.9440   14.8360    1.5120 N   0  0  0  0  0  0  0  0  0  0  0  0
   -4.2370   15.0380   -0.6650 N   0  0  0  0  0  0  0  0  0  0  0  0
   -4.8790   14.9100    0.5370 C   0  0  0  0  0  0  0  0  0  0  0  0
   -6.0880   14.8620    0.6860 O   0  0  0  0  0  0  0  0  0  0  0  0
  1  2  2  0
  2  3  1  0
  2  4  1  0
  3  5  1  0
  4  6  1  0
  5  6  1  0
  6  7  2  0
M  END
