x0895_0_A-x1015_0_A
     RDKit          3D

 24 26  0  0  0  0  0  0  0  0999 V2000
   -1.5030   14.5620    1.8230 O   0  0  0  0  0  0  0  0  0  0  0  0
   -2.5410   14.6910    1.1880 C   0  0  0  0  0  0  0  0  0  0  0  0
   -3.9470   14.8570    1.7460 C   0  0  0  0  0  0  0  0  0  0  0  0
   -2.6650   14.7100   -0.1790 N   0  0  0  0  0  0  0  0  0  0  0  0
   -4.6670   15.2720    0.5650 N   0  0  0  0  0  0  0  0  0  0  0  0
   -3.9110   15.1030   -0.5450 C   0  0  0  0  0  0  0  0  0  0  0  0
   -4.3820   15.3040   -1.7190 N   0  0  0  0  0  0  0  0  0  0  0  0
   -3.6420   15.1530   -2.9730 C   0  0  0  0  0  0  0  0  0  0  0  0
   -2.2920   14.4790   -2.7630 C   0  0  0  0  0  0  0  0  0  0  0  0
   -1.4290   14.3790   -4.0290 C   0  0  0  0  0  0  0  0  0  0  0  0
   -0.0690   13.6610   -3.9150 C   0  0  2  0  0  0  0  0  0  0  0  0
   -0.0850   12.2050   -3.9330 N   0  0  0  0  0  0  0  0  0  0  0  0
    0.5560   13.9120   -2.5470 C   0  0  0  0  0  0  0  0  0  0  0  0
    0.7450   14.9940   -2.0180 O   0  0  0  0  0  0  0  0  0  0  0  0
    0.3430   11.6920   -2.6990 C   0  0  0  0  0  0  0  0  0  0  0  0
    0.8870   12.7190   -1.9970 N   0  0  0  0  0  0  0  0  0  0  0  0
   -0.4890   11.4220   -5.0410 C   0  0  0  0  0  0  0  0  0  0  0  0
    0.2740   10.5380   -2.2750 O   0  0  0  0  0  0  0  0  0  0  0  0
    0.0740   11.6250   -6.3100 C   0  0  0  0  0  0  0  0  0  0  0  0
   -1.4590   10.4200   -4.9050 C   0  0  0  0  0  0  0  0  0  0  0  0
   -0.3220   10.8510   -7.4040 C   0  0  0  0  0  0  0  0  0  0  0  0
   -1.8560    9.6440   -5.9950 C   0  0  0  0  0  0  0  0  0  0  0  0
   -1.2860    9.8620   -7.2430 C   0  0  0  0  0  0  0  0  0  0  0  0
   -1.7770    8.9060   -8.5840 Cl  0  0  0  0  0  0  0  0  0  0  0  0
  1  2  2  0
  2  3  1  0
  2  4  1  0
  3  5  1  0
  4  6  1  0
  5  6  1  0
  6  7  2  3
  7  8  1  0
  8  9  1  0
  9 10  1  0
 11 10  1  1
 11 12  1  0
 11 13  1  0
 13 14  2  0
 12 15  1  0
 13 16  1  0
 15 16  1  0
 12 17  1  0
 15 18  2  0
 17 19  2  0
 17 20  1  0
 19 21  1  0
 20 22  2  0
 21 23  2  0
 22 23  1  0
 23 24  1  0
M  END
