x0895_0_A-x0837_0_A
     RDKit          3D

  8  8  0  0  0  0  0  0  0  0999 V2000
   -1.6380   14.5800    1.8360 O   0  0  0  0  0  0  0  0  0  0  0  0
   -2.6600   14.7390    1.1750 C   0  0  0  0  0  0  0  0  0  0  0  0
   -4.0640   14.8810    1.7150 C   0  0  0  0  0  0  0  0  0  0  0  0
   -2.7010   14.8100   -0.1840 N   0  0  0  0  0  0  0  0  0  0  0  0
   -4.8990   15.0000    0.4780 C   0  0  0  0  0  0  0  0  0  0  0  0
   -3.9290   15.1270   -0.6800 C   0  0  0  0  0  0  0  0  0  0  0  0
   -4.2250   15.4340   -1.8090 O   0  0  0  0  0  0  0  0  0  0  0  0
   -6.1270   14.9860    0.3740 O   0  0  0  0  0  0  0  0  0  0  0  0
  1  2  2  0
  2  3  1  0
  2  4  1  0
  3  5  1  0
  4  6  1  0
  5  6  1  0
  6  7  2  0
  5  8  2  0
M  END
