x0895_1_A-x0722_0_A
     RDKit          3D

 11 11  0  0  0  0  0  0  0  0999 V2000
   -1.7220   14.8330    1.6580 O   0  0  0  0  0  0  0  0  0  0  0  0
   -2.8030   14.8320    1.0710 C   0  0  0  0  0  0  0  0  0  0  0  0
   -3.0310   14.9590   -0.4460 C   0  0  1  0  0  0  0  0  0  0  0  0
   -4.0750   14.7090    1.6160 N   0  0  0  0  0  0  0  0  0  0  0  0
   -4.3960   15.3140    2.8820 C   0  0  0  0  0  0  0  0  0  0  0  0
   -1.9190   14.3590   -1.2760 C   0  0  0  0  0  0  0  0  0  0  0  0
   -4.2590   14.2370   -0.5370 N   0  0  0  0  0  0  0  0  0  0  0  0
   -4.9460   14.5360    0.5980 C   0  0  0  0  0  0  0  0  0  0  0  0
   -6.2160   14.6140    0.5520 N   0  0  0  0  0  0  0  0  0  0  0  0
   -6.8330   14.4020   -0.6260 C   0  0  0  0  0  0  0  0  0  0  0  0
   -7.5310   15.2150   -1.2130 O   0  0  0  0  0  0  0  0  0  0  0  0
  1  2  2  0
  2  3  1  0
  2  4  1  0
  4  5  1  0
  3  6  1  6
  3  7  1  0
  4  8  1  0
  7  8  1  0
  8  9  2  3
  9 10  1  0
 10 11  2  0
M  END
