x0895_1_A-x1012_0_A
     RDKit          3D

 21 22  0  0  0  0  0  0  0  0999 V2000
   -1.6800   14.9140    1.6660 O   0  0  0  0  0  0  0  0  0  0  0  0
   -2.7240   14.9810    1.0220 C   0  0  0  0  0  0  0  0  0  0  0  0
   -2.8680   15.3590   -0.4520 C   0  0  2  0  0  0  0  0  0  0  0  0
   -3.9710   14.7350    1.4960 N   0  0  0  0  0  0  0  0  0  0  0  0
   -4.2210   14.9140   -0.6860 N   0  0  0  0  0  0  0  0  0  0  0  0
   -4.8890   14.7960    0.5090 C   0  0  0  0  0  0  0  0  0  0  0  0
   -1.8160   14.7460   -1.3700 C   0  0  0  0  0  0  0  0  0  0  0  0
   -6.0990   14.7510    0.6360 O   0  0  0  0  0  0  0  0  0  0  0  0
   -2.3870   13.9670   -2.5680 C   0  0  0  0  0  0  0  0  0  0  0  0
   -1.3600   13.7560   -3.7130 C   0  0  1  0  0  0  0  0  0  0  0  0
   -1.6230   14.7540   -4.8530 C   0  0  0  0  0  0  0  0  0  0  0  0
    0.1000   13.8520   -3.2150 C   0  0  1  0  0  0  0  0  0  0  0  0
    0.5590   12.5540   -2.6040 C   0  0  0  0  0  0  0  0  0  0  0  0
    1.1030   14.3530   -4.2600 C   0  0  0  0  0  0  0  0  0  0  0  0
   -0.7500   15.9310   -4.7950 N   0  0  0  0  0  0  0  0  0  0  0  0
   -1.3280   17.1650   -4.6370 C   0  0  0  0  0  0  0  0  0  0  0  0
    0.0230   11.4330   -3.1180 O   0  0  0  0  0  0  0  0  0  0  0  0
    1.3540   12.4860   -1.7060 O   0  0  0  0  0  0  0  0  0  0  0  0
    0.6990   15.7250   -4.7720 C   0  0  0  0  0  0  0  0  0  0  0  0
   -0.4900   18.2090   -4.4760 N   0  0  0  0  0  0  0  0  0  0  0  0
   -2.5270   17.3710   -4.6350 O   0  0  0  0  0  0  0  0  0  0  0  0
  1  2  2  0
  2  3  1  0
  2  4  1  0
  3  5  1  0
  4  6  1  0
  5  6  1  0
  3  7  1  6
  6  8  2  0
  7  9  1  0
 10  9  1  1
 10 11  1  0
 10 12  1  0
 12 13  1  6
 12 14  1  0
 11 15  1  0
 15 16  1  0
 13 17  1  0
 13 18  2  0
 14 19  1  0
 15 19  1  0
 16 20  1  0
 16 21  2  0
M  END
