x0895_1_A_α-x0128_0_A_α
     RDKit          3D

 16 17  0  0  0  0  0  0  0  0999 V2000
   -1.9650   14.8140    1.6850 O   0  0  0  0  0  0  0  0  0  0  0  0
   -3.1200   14.9590    1.2720 C   0  0  0  0  0  0  0  0  0  0  0  0
   -3.5720   14.9350   -0.1740 C   0  0  0  0  0  0  0  0  0  0  0  0
   -4.2850   15.1690    1.9990 N   0  0  0  0  0  0  0  0  0  0  0  0
   -4.8820   14.3500    0.0500 N   0  0  0  0  0  0  0  0  0  0  0  0
   -5.3780   14.7700    1.2720 C   0  0  0  0  0  0  0  0  0  0  0  0
   -6.6990   14.7360    1.5160 N   0  0  0  0  0  0  0  0  0  0  0  0
   -7.6570   15.0790    2.5450 C   0  0  0  0  0  0  0  0  0  0  0  0
   -8.8280   15.2350    2.2170 O   0  0  0  0  0  0  0  0  0  0  0  0
   -7.2970   15.2710    3.8760 N   0  0  0  0  0  0  0  0  0  0  0  0
   -8.1190   15.8920    4.9100 C   0  0  0  0  0  0  0  0  0  0  0  0
   -8.9210   17.0060    4.5870 C   0  0  0  0  0  0  0  0  0  0  0  0
   -8.2060   15.4860    6.2500 C   0  0  0  0  0  0  0  0  0  0  0  0
   -9.7330   17.6860    5.4410 N   0  0  0  0  0  0  0  0  0  0  0  0
   -9.0380   16.1690    7.1560 C   0  0  0  0  0  0  0  0  0  0  0  0
   -9.7750   17.2560    6.7090 C   0  0  0  0  0  0  0  0  0  0  0  0
  1  2  2  0
  2  3  1  0
  2  4  1  0
  3  5  1  0
  4  6  1  0
  5  6  1  0
  6  7  2  3
  7  8  1  0
  8  9  2  0
  8 10  1  0
 10 11  1  0
 11 12  2  0
 11 13  1  0
 12 14  1  0
 13 15  2  0
 14 16  2  0
 15 16  1  0
M  END
