x0895_1_A_α-x0524_0_A_α
     RDKit          3D

 29 31  0  0  0  0  0  0  0  0999 V2000
   -1.5910   14.6640    1.5720 O   0  0  0  0  0  0  0  0  0  0  0  0
   -2.6690   14.5230    0.9990 C   0  0  0  0  0  0  0  0  0  0  0  0
   -2.9420   13.9610   -0.4000 C   0  0  2  0  0  0  0  0  0  0  0  0
   -3.8930   14.8350    1.5100 N   0  0  0  0  0  0  0  0  0  0  0  0
   -1.7530   14.0010   -1.3650 C   0  0  0  0  0  0  0  0  0  0  0  0
   -4.0550   14.8290   -0.6820 N   0  0  0  0  0  0  0  0  0  0  0  0
   -4.7800   14.8790    0.4850 C   0  0  0  0  0  0  0  0  0  0  0  0
   -5.9940   14.9330    0.5790 O   0  0  0  0  0  0  0  0  0  0  0  0
   -2.0050   13.1340   -2.6200 C   0  0  0  0  0  0  0  0  0  0  0  0
   -1.1700   11.8360   -2.7320 C   0  0  0  0  0  0  0  0  0  0  0  0
   -1.7390   10.7860   -3.7120 C   0  0  0  0  0  0  0  0  0  0  0  0
   -0.7570   10.1330   -4.7010 C   0  0  0  0  0  0  0  0  0  0  0  0
   -1.4020    9.3810   -5.8860 C   0  0  0  0  0  0  0  0  0  0  0  0
   -0.7300    9.7620   -7.2020 C   0  0  0  0  0  0  0  0  0  0  0  0
   -0.4080    8.6720   -8.0020 N   0  0  0  0  0  0  0  0  0  0  0  0
   -0.5040   10.9270   -7.4770 O   0  0  0  0  0  0  0  0  0  0  0  0
    0.6160    8.6290   -8.9740 C   0  0  0  0  0  0  0  0  0  0  0  0
    1.6980    7.7590   -8.9310 C   0  0  0  0  0  0  0  0  0  0  0  0
    0.5280    9.5260  -10.0460 C   0  0  0  0  0  0  0  0  0  0  0  0
    2.6770    7.7840   -9.9340 C   0  0  0  0  0  0  0  0  0  0  0  0
    1.5060    9.5480  -11.0480 C   0  0  0  0  0  0  0  0  0  0  0  0
    2.5980    8.6790  -11.0100 C   0  0  0  0  0  0  0  0  0  0  0  0
    3.6110    8.6570  -11.9850 N   0  0  0  0  0  0  0  0  0  0  0  0
    3.9380    9.5140  -13.0510 C   0  0  0  0  0  0  0  0  0  0  0  0
    3.1880   10.6820  -13.2680 C   0  0  0  0  0  0  0  0  0  0  0  0
    5.0010    9.2470  -13.9180 C   0  0  0  0  0  0  0  0  0  0  0  0
    3.4920   11.5510  -14.3190 C   0  0  0  0  0  0  0  0  0  0  0  0
    5.3080   10.1140  -14.9710 C   0  0  0  0  0  0  0  0  0  0  0  0
    4.5520   11.2650  -15.1690 C   0  0  0  0  0  0  0  0  0  0  0  0
  1  2  2  0
  2  3  1  0
  2  4  1  0
  3  5  1  6
  3  6  1  0
  4  7  1  0
  6  7  1  0
  7  8  2  0
  5  9  1  0
  9 10  1  0
 10 11  1  0
 11 12  1  0
 12 13  1  0
 13 14  1  0
 14 15  1  0
 14 16  2  0
 15 17  1  0
 17 18  2  0
 17 19  1  0
 18 20  1  0
 19 21  2  0
 20 22  2  0
 21 22  1  0
 22 23  1  0
 23 24  1  0
 24 25  2  0
 24 26  1  0
 25 27  1  0
 26 28  2  0
 27 29  2  0
 28 29  1  0
M  END
