x0895_1_A-x0253_0_A
     RDKit          3D

 24 25  0  0  0  0  0  0  0  0999 V2000
   -1.6060   14.6390    1.7740 O   0  0  0  0  0  0  0  0  0  0  0  0
   -2.6140   14.6410    1.0820 C   0  0  0  0  0  0  0  0  0  0  0  0
   -2.6640   14.5450   -0.4400 C   0  0  2  0  0  0  0  0  0  0  0  0
   -3.8920   14.7350    1.5290 N   0  0  0  0  0  0  0  0  0  0  0  0
   -1.4540   15.2390   -1.0670 C   0  0  0  0  0  0  0  0  0  0  0  0
   -3.9590   15.1630   -0.6330 N   0  0  0  0  0  0  0  0  0  0  0  0
   -4.7300   14.9420    0.4870 C   0  0  0  0  0  0  0  0  0  0  0  0
   -5.9490   14.9270    0.5270 O   0  0  0  0  0  0  0  0  0  0  0  0
   -0.1290   14.6480   -0.5390 C   0  0  0  0  0  0  0  0  0  0  0  0
    0.7130   13.9900   -1.6410 C   0  0  0  0  0  0  0  0  0  0  0  0
    0.4450   12.5480   -1.5930 N   0  0  0  0  0  0  0  0  0  0  0  0
    0.5820   11.8540   -2.6860 C   0  0  0  0  0  0  0  0  0  0  0  0
    0.3400   10.5150   -2.6660 O   0  0  0  0  0  0  0  0  0  0  0  0
    1.0140   12.4660   -4.0410 C   0  0  0  0  0  0  0  0  0  0  0  0
    0.3480   11.8680   -5.2110 N   0  0  0  0  0  0  0  0  0  0  0  0
    1.0480   11.6580   -6.3990 C   0  0  0  0  0  0  0  0  0  0  0  0
    2.1410   12.1850   -6.5560 O   0  0  0  0  0  0  0  0  0  0  0  0
    0.4320   10.7370   -7.4180 C   0  0  0  0  0  0  0  0  0  0  0  0
   -0.5560    9.8200   -7.0530 C   0  0  0  0  0  0  0  0  0  0  0  0
    0.8410   10.7790   -8.7660 C   0  0  0  0  0  0  0  0  0  0  0  0
   -1.1320    8.9620   -8.0020 C   0  0  0  0  0  0  0  0  0  0  0  0
    0.2770    9.9300   -9.7120 C   0  0  0  0  0  0  0  0  0  0  0  0
   -2.1940    7.9840   -7.5930 C   0  0  0  0  0  0  0  0  0  0  0  0
   -0.7070    9.0250   -9.3340 C   0  0  0  0  0  0  0  0  0  0  0  0
  1  2  2  0
  2  3  1  0
  2  4  1  0
  3  5  1  6
  3  6  1  0
  4  7  1  0
  6  7  1  0
  7  8  2  0
  5  9  1  0
  9 10  1  0
 10 11  1  0
 11 12  2  3
 12 13  1  0
 12 14  1  0
 14 15  1  0
 15 16  1  0
 16 17  2  0
 16 18  1  0
 18 19  2  0
 18 20  1  0
 19 21  1  0
 20 22  2  0
 21 23  1  0
 21 24  2  0
 22 24  1  0
M  END
