x0895_0_A-x0689_0_A
     RDKit          3D

 14 15  0  0  0  0  0  0  0  0999 V2000
   -2.5590   13.8610    2.3200 O   0  0  0  0  0  0  0  0  0  0  0  0
   -3.2960   14.0790    1.4140 C   0  0  0  0  0  0  0  0  0  0  0  0
   -3.5100   15.4100    0.8780 C   0  0  2  0  0  0  0  0  0  0  0  0
   -3.9600   13.1970    0.6270 N   0  0  0  0  0  0  0  0  0  0  0  0
   -4.6370   15.1020    0.0420 N   0  0  0  0  0  0  0  0  0  0  0  0
   -4.3610   13.8990   -0.4480 C   0  0  0  0  0  0  0  0  0  0  0  0
   -2.1470   15.1410    0.4150 C   0  0  0  0  0  0  0  0  0  0  0  0
   -4.4480   13.5570   -1.6080 O   0  0  0  0  0  0  0  0  0  0  0  0
   -1.9310   14.8750   -0.8840 N   0  0  0  0  0  0  0  0  0  0  0  0
   -1.2210   15.1540    1.3810 N   0  0  0  0  0  0  0  0  0  0  0  0
   -5.3990   16.0200   -0.7050 C   0  0  0  0  0  0  0  0  0  0  0  0
   -0.6580   14.6130   -1.2180 C   0  0  0  0  0  0  0  0  0  0  0  0
    0.0120   14.8890    0.9910 C   0  0  0  0  0  0  0  0  0  0  0  0
    0.3660   14.6080   -0.3060 C   0  0  0  0  0  0  0  0  0  0  0  0
  1  2  2  0
  2  3  1  0
  2  4  1  0
  3  5  1  0
  4  6  1  0
  5  6  1  0
  3  7  1  6
  6  8  2  0
  7  9  2  0
  7 10  1  0
  5 11  1  0
  9 12  1  0
 10 13  2  0
 12 14  2  0
 13 14  1  0
M  END
