x0895_1_A-x0852_0_B
     RDKit          3D

 18 19  0  0  0  0  0  0  0  0999 V2000
   -2.0270   14.7410    1.6300 O   0  0  0  0  0  0  0  0  0  0  0  0
   -3.0760   14.6670    0.9700 C   0  0  0  0  0  0  0  0  0  0  0  0
   -3.2260   14.7660   -0.5380 C   0  0  0  0  0  0  0  0  0  0  0  0
   -4.3760   14.4890    1.4030 N   0  0  0  0  0  0  0  0  0  0  0  0
   -4.5330   15.4080   -0.5690 N   0  0  0  0  0  0  0  0  0  0  0  0
   -5.2780   14.8760    0.4490 C   0  0  0  0  0  0  0  0  0  0  0  0
   -6.5790   14.7260    0.5520 N   0  0  0  0  0  0  0  0  0  0  0  0
   -7.3400   14.0950    1.6680 C   0  0  0  0  0  0  0  0  0  0  0  0
   -8.0930   15.0030    2.6640 C   0  0  0  0  0  0  0  0  0  0  0  0
   -7.6110   14.8490    3.9530 C   0  0  0  0  0  0  0  0  0  0  0  0
   -9.1610   15.9330    2.4890 C   0  0  0  0  0  0  0  0  0  0  0  0
   -9.9920   16.2900    0.8200 Br  0  0  0  0  0  0  0  0  0  0  0  0
   -8.0900   15.5450    5.0360 C   0  0  0  0  0  0  0  0  0  0  0  0
   -9.6580   16.6590    3.6060 C   0  0  0  0  0  0  0  0  0  0  0  0
   -7.5210   15.3020    6.2480 O   0  0  0  0  0  0  0  0  0  0  0  0
   -9.1130   16.4640    4.8890 C   0  0  0  0  0  0  0  0  0  0  0  0
   -9.5950   17.1920    6.0270 C   0  0  0  0  0  0  0  0  0  0  0  0
   -9.9170   17.7560    6.9940 N   0  0  0  0  0  0  0  0  0  0  0  0
  1  2  2  0
  2  3  1  0
  2  4  1  0
  3  5  1  0
  4  6  1  0
  5  6  1  0
  6  7  2  3
  7  8  1  0
  8  9  1  0
  9 10  2  0
  9 11  1  0
 11 12  1  0
 10 13  1  0
 11 14  2  0
 13 15  1  0
 13 16  2  0
 14 16  1  0
 16 17  1  0
 17 18  3  0
M  END
