x0895_1_A_α-x0371_0_A_α
     RDKit          3D

 16 17  0  0  0  0  0  0  0  0999 V2000
   -1.6430   14.7170    1.5320 O   0  0  0  0  0  0  0  0  0  0  0  0
   -2.7640   14.7190    1.0290 C   0  0  0  0  0  0  0  0  0  0  0  0
   -3.1220   14.6390   -0.4580 C   0  0  0  0  0  0  0  0  0  0  0  0
   -3.9490   14.7960    1.7060 N   0  0  0  0  0  0  0  0  0  0  0  0
   -4.5500   14.9150   -0.4110 N   0  0  0  0  0  0  0  0  0  0  0  0
   -5.0100   14.7740    0.8640 C   0  0  0  0  0  0  0  0  0  0  0  0
   -6.2580   14.6490    1.1810 N   0  0  0  0  0  0  0  0  0  0  0  0
   -6.6500   14.5080    2.5860 C   0  0  0  0  0  0  0  0  0  0  0  0
   -8.0890   14.5210    2.7230 N   0  0  0  0  0  0  0  0  0  0  0  0
   -8.7650   15.5230    3.4130 C   0  0  0  0  0  0  0  0  0  0  0  0
   -9.4360   16.3530    2.8010 O   0  0  0  0  0  0  0  0  0  0  0  0
   -8.6480   15.5300    4.8670 C   0  0  0  0  0  0  0  0  0  0  0  0
   -8.2140   14.3940    5.4890 O   0  0  0  0  0  0  0  0  0  0  0  0
   -8.8960   16.4920    5.8350 C   0  0  0  0  0  0  0  0  0  0  0  0
   -8.1780   14.6260    6.8240 C   0  0  0  0  0  0  0  0  0  0  0  0
   -8.5920   15.9060    7.0920 C   0  0  0  0  0  0  0  0  0  0  0  0
  1  2  2  0
  2  3  1  0
  2  4  1  0
  3  5  1  0
  4  6  1  0
  5  6  1  0
  6  7  2  3
  7  8  1  0
  8  9  1  0
  9 10  1  0
 10 11  2  0
 10 12  1  0
 12 13  1  0
 12 14  2  0
 13 15  1  0
 14 16  1  0
 15 16  2  0
M  END
