x0895_0_A-x0591_0_A
     RDKit          3D

 21 22  0  0  0  0  0  0  0  0999 V2000
   -1.1090   14.2540    1.9370 O   0  0  0  0  0  0  0  0  0  0  0  0
   -2.1670   14.5120    1.4400 C   0  0  0  0  0  0  0  0  0  0  0  0
   -3.4370   14.8840    2.1650 C   0  0  0  0  0  0  0  0  0  0  0  0
   -2.5140   14.5990    0.1250 N   0  0  0  0  0  0  0  0  0  0  0  0
   -3.6940   15.9820    1.3340 N   0  0  0  0  0  0  0  0  0  0  0  0
   -3.5860   15.4230    0.1490 C   0  0  0  0  0  0  0  0  0  0  0  0
   -4.4320   15.6970   -0.6660 N   0  0  0  0  0  0  0  0  0  0  0  0
   -4.5310   15.1840   -1.8830 C   0  0  0  0  0  0  0  0  0  0  0  0
   -5.7700   14.6840   -2.1110 C   0  0  0  0  0  0  0  0  0  0  0  0
   -3.5040   15.1750   -2.8100 C   0  0  0  0  0  0  0  0  0  0  0  0
   -6.7690   14.7330   -0.9890 C   0  0  0  0  0  0  0  0  0  0  0  0
   -3.7690   14.6420   -4.0480 C   0  0  0  0  0  0  0  0  0  0  0  0
   -6.0460   14.1550   -3.3550 C   0  0  0  0  0  0  0  0  0  0  0  0
   -6.2430   14.4730    0.2740 N   0  0  0  0  0  0  0  0  0  0  0  0
   -7.9460   14.9790   -1.1940 O   0  0  0  0  0  0  0  0  0  0  0  0
   -2.5130   14.5970   -5.2870 S   0  0  0  0  0  0  0  0  0  0  0  0
   -5.0430   14.1350   -4.3330 C   0  0  0  0  0  0  0  0  0  0  0  0
   -7.0190   14.4430    1.4930 C   0  0  0  0  0  0  0  0  0  0  0  0
   -1.3330   15.6590   -4.7250 N   0  0  0  0  0  0  0  0  0  0  0  0
   -1.9420   13.2730   -5.3020 O   0  0  0  0  0  0  0  0  0  0  0  0
   -3.0900   15.2190   -6.4520 O   0  0  0  0  0  0  0  0  0  0  0  0
  1  2  2  0
  2  3  1  0
  2  4  1  0
  3  5  1  0
  4  6  1  0
  5  6  1  0
  6  7  2  3
  7  8  1  0
  8  9  2  0
  8 10  1  0
  9 11  1  0
 10 12  2  0
  9 13  1  0
 11 14  1  0
 11 15  2  0
 12 16  1  0
 12 17  1  0
 13 17  2  0
 14 18  1  0
 16 19  1  0
 16 20  2  0
 16 21  2  0
M  END
