x0895_0_A-x0933_0_A
     RDKit          3D

  8  8  0  0  0  0  0  0  0  0999 V2000
   -1.3180   14.6810    1.7500 O   0  0  0  0  0  0  0  0  0  0  0  0
   -2.3960   14.6940    1.1860 C   0  0  0  0  0  0  0  0  0  0  0  0
   -3.7270   14.6410    1.8820 C   0  0  0  0  0  0  0  0  0  0  0  0
   -2.6120   14.7520   -0.1550 N   0  0  0  0  0  0  0  0  0  0  0  0
   -4.5990   15.0490    0.8240 N   0  0  0  0  0  0  0  0  0  0  0  0
   -3.9080   15.1010   -0.4000 C   0  0  0  0  0  0  0  0  0  0  0  0
   -4.3680   15.4010   -1.4890 O   0  0  0  0  0  0  0  0  0  0  0  0
   -5.9600   14.7240    0.9420 N   0  0  0  0  0  0  0  0  0  0  0  0
  1  2  2  0
  2  3  1  0
  2  4  1  0
  3  5  1  0
  4  6  1  0
  5  6  1  0
  6  7  2  0
  5  8  1  0
M  END
