x0895_1_A-x0592_0_A
     RDKit          3D

 17 18  0  0  0  0  0  0  0  0999 V2000
   -2.8490   14.4430   -1.1960 N   0  0  0  0  0  0  0  0  0  0  0  0
   -3.7930   15.0280   -1.9890 C   0  0  0  0  0  0  0  0  0  0  0  0
   -3.5310   15.6010   -3.0350 O   0  0  0  0  0  0  0  0  0  0  0  0
   -2.7740   14.8680   -0.0120 C   0  0  0  0  0  0  0  0  0  0  0  0
   -1.8980   14.5050    1.1410 C   0  0  0  0  0  0  0  0  0  0  0  0
   -3.6100   15.8310    0.4190 N   0  0  0  0  0  0  0  0  0  0  0  0
   -5.1660   14.9230   -1.4840 C   0  0  0  0  0  0  0  0  0  0  0  0
   -2.9840   14.5670    2.0650 N   0  0  0  0  0  0  0  0  0  0  0  0
   -3.8390   15.5690    1.7090 C   0  0  0  0  0  0  0  0  0  0  0  0
   -6.3680   15.1710   -2.1830 C   0  0  0  0  0  0  0  0  0  0  0  0
   -5.6190   14.5570   -0.2100 C   0  0  0  0  0  0  0  0  0  0  0  0
   -4.6400   16.0860    2.4350 O   0  0  0  0  0  0  0  0  0  0  0  0
   -7.4650   14.9910   -1.4500 N   0  0  0  0  0  0  0  0  0  0  0  0
   -6.9890   14.6190   -0.2530 N   0  0  0  0  0  0  0  0  0  0  0  0
   -7.9520   14.3400    0.8070 C   0  0  0  0  0  0  0  0  0  0  0  0
   -7.3220   13.7370    2.0540 C   0  0  0  0  0  0  0  0  0  0  0  0
   -7.1420   14.7090    3.0780 O   0  0  0  0  0  0  0  0  0  0  0  0
  1  2  1  0
  2  3  2  0
  1  4  2  3
  4  5  1  0
  4  6  1  0
  2  7  1  0
  5  8  1  0
  6  9  1  0
  8  9  1  0
  7 10  1  0
  7 11  2  0
  9 12  2  0
 10 13  2  0
 11 14  1  0
 13 14  1  0
 14 15  1  0
 15 16  1  0
 16 17  1  0
M  END
