x0895_0_A-x0689_0_A
     RDKit          3D

 14 15  0  0  0  0  0  0  0  0999 V2000
   -2.6870   13.7910    2.2690 O   0  0  0  0  0  0  0  0  0  0  0  0
   -3.3130   14.0640    1.2890 C   0  0  0  0  0  0  0  0  0  0  0  0
   -3.3860   15.4030    0.7570 C   0  0  2  0  0  0  0  0  0  0  0  0
   -3.9510   13.2520    0.4050 N   0  0  0  0  0  0  0  0  0  0  0  0
   -4.3180   15.2210   -0.3110 N   0  0  0  0  0  0  0  0  0  0  0  0
   -4.1120   13.9760   -0.7330 C   0  0  0  0  0  0  0  0  0  0  0  0
   -2.0180   15.1290    0.3990 C   0  0  0  0  0  0  0  0  0  0  0  0
   -4.0860   13.6100   -1.8850 O   0  0  0  0  0  0  0  0  0  0  0  0
   -1.7590   14.8800   -0.8940 N   0  0  0  0  0  0  0  0  0  0  0  0
   -1.1590   15.1250    1.4040 N   0  0  0  0  0  0  0  0  0  0  0  0
   -5.6160   15.7080   -0.3020 C   0  0  0  0  0  0  0  0  0  0  0  0
   -0.4940   14.6120   -1.1850 C   0  0  0  0  0  0  0  0  0  0  0  0
    0.0730   14.8520    1.0520 C   0  0  0  0  0  0  0  0  0  0  0  0
    0.4820   14.5830   -0.2390 C   0  0  0  0  0  0  0  0  0  0  0  0
  1  2  2  0
  2  3  1  0
  2  4  1  0
  3  5  1  0
  4  6  1  0
  5  6  1  0
  3  7  1  6
  6  8  2  0
  7  9  2  0
  7 10  1  0
  5 11  1  0
  9 12  1  0
 10 13  2  0
 12 14  2  0
 13 14  1  0
M  END
