x0895_0_A-x0465_0_A
     RDKit          3D

 23 24  0  0  0  0  0  0  0  0999 V2000
   -1.5910   14.4260    2.1310 O   0  0  0  0  0  0  0  0  0  0  0  0
   -2.4940   14.6210    1.3520 C   0  0  0  0  0  0  0  0  0  0  0  0
   -3.9480   14.8940    1.6820 C   0  0  0  0  0  0  0  0  0  0  0  0
   -2.3250   14.6360    0.0180 N   0  0  0  0  0  0  0  0  0  0  0  0
   -0.9450   14.6630   -0.4740 C   0  0  0  0  0  0  0  0  0  0  0  0
   -4.3550   15.4670    0.4370 N   0  0  0  0  0  0  0  0  0  0  0  0
   -3.4670   15.1360   -0.5700 C   0  0  0  0  0  0  0  0  0  0  0  0
   -3.7230   15.2750   -1.7530 O   0  0  0  0  0  0  0  0  0  0  0  0
   -0.6950   14.5270   -1.9700 C   0  0  0  0  0  0  0  0  0  0  0  0
    0.7370   14.0520   -2.2010 C   0  0  0  0  0  0  0  0  0  0  0  0
    0.6760   12.6080   -2.0730 N   0  0  0  0  0  0  0  0  0  0  0  0
    0.6640   11.9430   -3.1630 C   0  0  0  0  0  0  0  0  0  0  0  0
    0.7500   12.4800   -4.6010 C   0  0  1  0  0  0  0  0  0  0  0  0
    0.5510   10.6190   -2.9840 O   0  0  0  0  0  0  0  0  0  0  0  0
    2.0970   13.1340   -4.8840 C   0  0  0  0  0  0  0  0  0  0  0  0
    0.5740   11.3860   -5.5000 O   0  0  0  0  0  0  0  0  0  0  0  0
   -0.6350   10.7740   -5.6270 C   0  0  0  0  0  0  0  0  0  0  0  0
   -0.7030    9.7420   -6.5740 C   0  0  0  0  0  0  0  0  0  0  0  0
   -1.7830   11.0870   -4.9020 C   0  0  0  0  0  0  0  0  0  0  0  0
    0.3730    9.4040   -7.3030 F   0  0  0  0  0  0  0  0  0  0  0  0
   -1.8800    9.0350   -6.7950 C   0  0  0  0  0  0  0  0  0  0  0  0
   -2.9690   10.3790   -5.1220 C   0  0  0  0  0  0  0  0  0  0  0  0
   -3.0210    9.3560   -6.0640 C   0  0  0  0  0  0  0  0  0  0  0  0
  1  2  2  0
  2  3  1  0
  2  4  1  0
  4  5  1  0
  3  6  1  0
  4  7  1  0
  6  7  1  0
  7  8  2  0
  5  9  1  0
  9 10  1  0
 10 11  1  0
 11 12  2  3
 12 13  1  0
 12 14  1  0
 13 15  1  6
 13 16  1  0
 16 17  1  0
 17 18  2  0
 17 19  1  0
 18 20  1  0
 18 21  1  0
 19 22  2  0
 21 23  2  0
 22 23  1  0
M  END
