x0895_1_A-x1015_0_A
     RDKit          3D

 24 26  0  0  0  0  0  0  0  0999 V2000
   -2.0040   14.0560    2.2610 O   0  0  0  0  0  0  0  0  0  0  0  0
   -2.8230   14.5090    1.5420 C   0  0  0  0  0  0  0  0  0  0  0  0
   -2.4520   15.4750    0.5310 C   0  0  1  0  0  0  0  0  0  0  0  0
   -4.1380   14.2770    1.4650 N   0  0  0  0  0  0  0  0  0  0  0  0
   -0.8900   15.3230    0.5410 C   0  0  0  0  0  0  0  0  0  0  0  0
   -3.3880   14.9410   -0.4620 N   0  0  0  0  0  0  0  0  0  0  0  0
   -4.5530   14.6810    0.2550 C   0  0  0  0  0  0  0  0  0  0  0  0
   -5.7170   14.7940   -0.1060 O   0  0  0  0  0  0  0  0  0  0  0  0
   -0.2170   14.3090   -0.3690 C   0  0  0  0  0  0  0  0  0  0  0  0
   -0.3570   14.6700   -1.7660 N   0  0  0  0  0  0  0  0  0  0  0  0
    0.0780   13.7670   -2.5420 C   0  0  0  0  0  0  0  0  0  0  0  0
    0.1160   13.6160   -4.0460 C   0  0  2  0  0  0  0  0  0  0  0  0
    0.6200   12.6660   -1.9900 N   0  0  0  0  0  0  0  0  0  0  0  0
   -1.1020   14.3050   -4.6600 C   0  0  0  0  0  0  0  0  0  0  0  0
    0.0050   12.1480   -4.0480 N   0  0  0  0  0  0  0  0  0  0  0  0
    0.3020   11.6160   -2.7770 C   0  0  0  0  0  0  0  0  0  0  0  0
    0.2960   10.4480   -2.3870 O   0  0  0  0  0  0  0  0  0  0  0  0
   -0.4420   11.3800   -5.1490 C   0  0  0  0  0  0  0  0  0  0  0  0
    0.0930   11.5810   -6.4300 C   0  0  0  0  0  0  0  0  0  0  0  0
   -1.4240   10.3960   -4.9860 C   0  0  0  0  0  0  0  0  0  0  0  0
   -0.3450   10.8130   -7.5140 C   0  0  0  0  0  0  0  0  0  0  0  0
   -1.8640    9.6260   -6.0660 C   0  0  0  0  0  0  0  0  0  0  0  0
   -1.3200    9.8400   -7.3240 C   0  0  0  0  0  0  0  0  0  0  0  0
   -1.8610    8.8940   -8.6560 Cl  0  0  0  0  0  0  0  0  0  0  0  0
  1  2  2  0
  2  3  1  0
  2  4  1  0
  3  5  1  6
  3  6  1  0
  4  7  1  0
  6  7  1  0
  7  8  2  0
  5  9  1  0
  9 10  1  0
 10 11  2  3
 11 12  1  0
 11 13  1  0
 12 14  1  6
 12 15  1  0
 13 16  1  0
 15 16  1  0
 16 17  2  0
 15 18  1  0
 18 19  2  0
 18 20  1  0
 19 21  1  0
 20 22  2  0
 21 23  2  0
 22 23  1  0
 23 24  1  0
M  END
