x0895_0_A-x0849_0_A
     RDKit          3D

 11 12  0  0  0  0  0  0  0  0999 V2000
   -2.3460   13.9090    2.0580 O   0  0  0  0  0  0  0  0  0  0  0  0
   -2.4240   14.9560    1.1560 C   0  0  2  0  0  0  0  0  0  0  0  0
   -3.7250   15.7480    1.4210 C   0  0  0  0  0  0  0  0  0  0  0  0
   -2.5520   14.5060   -0.1990 N   0  0  0  0  0  0  0  0  0  0  0  0
   -1.1950   15.6310    1.3130 N   0  0  0  0  0  0  0  0  0  0  0  0
   -4.6020   15.1930    0.4260 N   0  0  0  0  0  0  0  0  0  0  0  0
   -3.8050   14.9280   -0.6800 C   0  0  0  0  0  0  0  0  0  0  0  0
   -0.0560   14.8290    0.9260 C   0  0  0  0  0  0  0  0  0  0  0  0
   -1.4470   14.2070   -0.9810 C   0  0  0  0  0  0  0  0  0  0  0  0
   -4.1780   15.0520   -1.8290 O   0  0  0  0  0  0  0  0  0  0  0  0
   -0.2150   14.3470   -0.4650 C   0  0  0  0  0  0  0  0  0  0  0  0
  2  1  1  1
  2  3  1  0
  2  4  1  0
  2  5  1  0
  3  6  1  0
  4  7  1  0
  6  7  1  0
  5  8  1  0
  4  9  1  0
  7 10  2  0
  8 11  1  0
  9 11  2  0
M  END
