x0895_1_A-x0685_1_A
     RDKit          3D

 22 23  0  0  0  0  0  0  0  0999 V2000
   -1.6470   14.7200    1.5200 O   0  0  0  0  0  0  0  0  0  0  0  0
   -2.7050   14.6980    0.8880 C   0  0  0  0  0  0  0  0  0  0  0  0
   -2.8780   14.6590   -0.6470 C   0  0  1  0  0  0  0  0  0  0  0  0
   -3.9390   14.7110    1.4530 N   0  0  0  0  0  0  0  0  0  0  0  0
   -2.3030   13.4410   -1.3430 C   0  0  0  0  0  0  0  0  0  0  0  0
   -4.3170   14.6990   -0.7270 N   0  0  0  0  0  0  0  0  0  0  0  0
   -4.9030   14.7660    0.5100 C   0  0  0  0  0  0  0  0  0  0  0  0
   -6.1000   14.8510    0.7140 O   0  0  0  0  0  0  0  0  0  0  0  0
   -0.8850   13.0730   -0.8990 C   0  0  0  0  0  0  0  0  0  0  0  0
    0.1050   13.4340   -1.8520 O   0  0  0  0  0  0  0  0  0  0  0  0
    0.7270   12.2780   -2.7880 S   0  0  0  0  0  0  0  0  0  0  0  0
    0.0420   12.5340   -4.4150 C   0  0  0  0  0  0  0  0  0  0  0  0
    2.3130   12.3890   -2.9680 O   0  0  0  0  0  0  0  0  0  0  0  0
    0.2980   10.7880   -2.3230 O   0  0  0  0  0  0  0  0  0  0  0  0
   -1.3780   11.9980   -4.5460 C   0  0  0  0  0  0  0  0  0  0  0  0
   -1.4610   10.6050   -4.9910 N   0  0  0  0  0  0  0  0  0  0  0  0
   -0.7560   10.3490   -6.2520 C   0  0  0  0  0  0  0  0  0  0  0  0
   -0.5400    8.8460   -6.4790 C   0  0  0  0  0  0  0  0  0  0  0  0
   -1.5860   10.9420   -7.4010 C   0  0  0  0  0  0  0  0  0  0  0  0
    0.1090    8.5570   -7.8300 C   0  0  0  0  0  0  0  0  0  0  0  0
   -0.9820   10.6430   -8.7770 C   0  0  0  0  0  0  0  0  0  0  0  0
   -0.7270    9.1470   -8.9670 C   0  0  0  0  0  0  0  0  0  0  0  0
  1  2  2  0
  2  3  1  0
  2  4  1  0
  3  5  1  1
  3  6  1  0
  4  7  1  0
  6  7  1  0
  7  8  2  0
  5  9  1  0
  9 10  1  0
 11 10  1  0
 11 12  1  0
 11 13  1  0
 11 14  1  0
 12 15  1  0
 15 16  1  0
 16 17  1  0
 17 18  1  0
 17 19  1  0
 18 20  1  0
 19 21  1  0
 20 22  1  0
 21 22  1  0
M  END
