x0895_0_A-x0864_0_A
     RDKit          3D

 22 23  0  0  0  0  0  0  0  0999 V2000
   -1.4480   14.6120    1.9320 O   0  0  0  0  0  0  0  0  0  0  0  0
   -2.4080   14.8230    1.2080 C   0  0  0  0  0  0  0  0  0  0  0  0
   -3.8490   14.9030    1.6730 C   0  0  0  0  0  0  0  0  0  0  0  0
   -2.3920   15.0350   -0.1420 N   0  0  0  0  0  0  0  0  0  0  0  0
   -1.1880   15.3670   -0.8790 C   0  0  0  0  0  0  0  0  0  0  0  0
   -4.4430   15.5280    0.5370 N   0  0  0  0  0  0  0  0  0  0  0  0
   -3.6670   15.2940   -0.5690 C   0  0  0  0  0  0  0  0  0  0  0  0
   -4.0990   15.3190   -1.7090 O   0  0  0  0  0  0  0  0  0  0  0  0
    0.0540   14.5750   -0.4450 C   0  0  0  0  0  0  0  0  0  0  0  0
    0.8140   13.9220   -1.6040 C   0  0  0  0  0  0  0  0  0  0  0  0
    0.6080   12.4690   -1.5710 N   0  0  0  0  0  0  0  0  0  0  0  0
    0.5270   11.7890   -2.6690 C   0  0  0  0  0  0  0  0  0  0  0  0
    0.6280   12.4320   -4.0630 C   0  0  0  0  0  0  0  0  0  0  0  0
    0.3470   10.4410   -2.6310 O   0  0  0  0  0  0  0  0  0  0  0  0
   -0.1370   11.6860   -5.0720 N   0  0  0  0  0  0  0  0  0  0  0  0
   -1.3580   11.1260   -4.7450 C   0  0  0  0  0  0  0  0  0  0  0  0
    0.4870   11.4150   -6.2870 C   0  0  0  0  0  0  0  0  0  0  0  0
    1.4740   12.0300   -6.6800 O   0  0  0  0  0  0  0  0  0  0  0  0
   -1.9070   10.1790   -5.5190 C   0  0  0  0  0  0  0  0  0  0  0  0
   -0.0800   10.3130   -7.0970 C   0  0  0  0  0  0  0  0  0  0  0  0
   -1.2240    9.7310   -6.7110 C   0  0  0  0  0  0  0  0  0  0  0  0
   -1.9910    8.3280   -7.6730 Br  0  0  0  0  0  0  0  0  0  0  0  0
  1  2  2  0
  2  3  1  0
  2  4  1  0
  4  5  1  0
  3  6  1  0
  4  7  1  0
  6  7  1  0
  7  8  2  0
  5  9  1  0
  9 10  1  0
 10 11  1  0
 11 12  2  3
 12 13  1  0
 12 14  1  0
 13 15  1  0
 15 16  1  0
 15 17  1  0
 17 18  2  0
 16 19  2  0
 17 20  1  0
 19 21  1  0
 20 21  2  0
 21 22  1  0
M  END
