x0895_0_A-x0910_0_A
     RDKit          3D

 12 13  0  0  0  0  0  0  0  0999 V2000
   -2.5820   14.3580    2.5640 O   0  0  0  0  0  0  0  0  0  0  0  0
   -3.2750   14.7990    1.7030 C   0  0  0  0  0  0  0  0  0  0  0  0
   -4.7900   14.8150    1.5340 C   0  0  0  0  0  0  0  0  0  0  0  0
   -2.8310   15.4020    0.6260 N   0  0  0  0  0  0  0  0  0  0  0  0
   -4.8630   15.1430    0.0970 N   0  0  0  0  0  0  0  0  0  0  0  0
   -3.5890   14.9270   -0.3380 C   0  0  0  0  0  0  0  0  0  0  0  0
   -2.9650   14.4180   -1.3190 N   0  0  0  0  0  0  0  0  0  0  0  0
   -1.5830   14.4750   -1.0410 C   0  0  0  0  0  0  0  0  0  0  0  0
   -1.0950   14.1670    0.1850 N   0  0  0  0  0  0  0  0  0  0  0  0
   -0.6210   14.8320   -1.9400 N   0  0  0  0  0  0  0  0  0  0  0  0
    0.2260   14.3530    0.0110 N   0  0  0  0  0  0  0  0  0  0  0  0
    0.4930   14.7460   -1.2470 C   0  0  0  0  0  0  0  0  0  0  0  0
  1  2  2  0
  2  3  1  0
  2  4  1  0
  3  5  1  0
  4  6  1  0
  5  6  1  0
  6  7  2  3
  7  8  1  0
  8  9  2  0
  8 10  1  0
  9 11  1  0
 10 12  2  0
 11 12  1  0
M  END
