x0895_1_A-x0926_0_A
     RDKit          3D

  7  7  0  0  0  0  0  0  0  0999 V2000
   -1.6360   14.7610    1.5830 O   0  0  0  0  0  0  0  0  0  0  0  0
   -2.6980   14.7410    0.9630 C   0  0  0  0  0  0  0  0  0  0  0  0
   -2.8720   14.6020   -0.5460 C   0  0  0  0  0  0  0  0  0  0  0  0
   -3.9390   14.8400    1.5090 N   0  0  0  0  0  0  0  0  0  0  0  0
   -4.2310   15.0420   -0.6670 N   0  0  0  0  0  0  0  0  0  0  0  0
   -4.8730   14.9090    0.5360 C   0  0  0  0  0  0  0  0  0  0  0  0
   -6.0820   14.8560    0.6860 O   0  0  0  0  0  0  0  0  0  0  0  0
  1  2  2  0
  2  3  1  0
  2  4  1  0
  3  5  1  0
  4  6  1  0
  5  6  1  0
  6  7  2  0
M  END
