x0895_1_A-x0128_0_A
     RDKit          3D

 16 17  0  0  0  0  0  0  0  0999 V2000
   -1.9720   14.7830    1.6850 O   0  0  0  0  0  0  0  0  0  0  0  0
   -3.1230   14.9440    1.2740 C   0  0  0  0  0  0  0  0  0  0  0  0
   -3.5760   14.9380   -0.1750 C   0  0  0  0  0  0  0  0  0  0  0  0
   -4.2850   15.1590    2.0040 N   0  0  0  0  0  0  0  0  0  0  0  0
   -4.8890   14.3530    0.0490 N   0  0  0  0  0  0  0  0  0  0  0  0
   -5.3780   14.7670    1.2730 C   0  0  0  0  0  0  0  0  0  0  0  0
   -6.6990   14.7380    1.5190 N   0  0  0  0  0  0  0  0  0  0  0  0
   -7.6550   15.0800    2.5510 C   0  0  0  0  0  0  0  0  0  0  0  0
   -8.8250   15.2190    2.2290 O   0  0  0  0  0  0  0  0  0  0  0  0
   -7.2830   15.2810    3.8780 N   0  0  0  0  0  0  0  0  0  0  0  0
   -8.1060   15.8970    4.9110 C   0  0  0  0  0  0  0  0  0  0  0  0
   -8.9060   17.0080    4.5870 C   0  0  0  0  0  0  0  0  0  0  0  0
   -8.1950   15.4870    6.2540 C   0  0  0  0  0  0  0  0  0  0  0  0
   -9.7220   17.6900    5.4360 N   0  0  0  0  0  0  0  0  0  0  0  0
   -9.0350   16.1730    7.1570 C   0  0  0  0  0  0  0  0  0  0  0  0
   -9.7690   17.2560    6.7050 C   0  0  0  0  0  0  0  0  0  0  0  0
  1  2  2  0
  2  3  1  0
  2  4  1  0
  3  5  1  0
  4  6  1  0
  5  6  1  0
  6  7  2  3
  7  8  1  0
  8  9  2  0
  8 10  1  0
 10 11  1  0
 11 12  2  0
 11 13  1  0
 12 14  1  0
 13 15  2  0
 14 16  2  0
 15 16  1  0
M  END
