x0895_0_A-x0722_0_A
     RDKit          3D

 12 12  0  0  0  0  0  0  0  0999 V2000
   -1.2290   14.8300    1.6100 O   0  0  0  0  0  0  0  0  0  0  0  0
   -2.3060   14.7860    1.0480 C   0  0  0  0  0  0  0  0  0  0  0  0
   -3.6120   14.6140    1.7810 C   0  0  1  0  0  0  0  0  0  0  0  0
   -2.6250   14.8640   -0.3020 N   0  0  0  0  0  0  0  0  0  0  0  0
   -4.1060   15.8500    2.4600 C   0  0  0  0  0  0  0  0  0  0  0  0
   -1.6910   14.4840   -1.3410 C   0  0  0  0  0  0  0  0  0  0  0  0
   -4.4870   14.2810    0.7170 N   0  0  0  0  0  0  0  0  0  0  0  0
   -3.9880   14.7680   -0.4260 C   0  0  0  0  0  0  0  0  0  0  0  0
   -4.6730   15.0820   -1.4460 N   0  0  0  0  0  0  0  0  0  0  0  0
   -5.9980   14.8410   -1.2120 C   0  0  0  0  0  0  0  0  0  0  0  0
   -6.9470   15.6050   -1.2890 O   0  0  0  0  0  0  0  0  0  0  0  0
   -6.1860   13.5540   -0.8240 N   0  0  0  0  0  0  0  0  0  0  0  0
  1  2  2  0
  2  3  1  0
  2  4  1  0
  3  5  1  6
  4  6  1  0
  3  7  1  0
  4  8  1  0
  7  8  1  0
  8  9  2  3
  9 10  1  0
 10 11  2  0
 10 12  1  0
M  END
