x0895_0_A_α-x0591_0_A_α
     RDKit          3D

 21 22  0  0  0  0  0  0  0  0999 V2000
   -1.1000   14.2540    1.9400 O   0  0  0  0  0  0  0  0  0  0  0  0
   -2.1590   14.5110    1.4420 C   0  0  0  0  0  0  0  0  0  0  0  0
   -3.4310   14.8790    2.1680 C   0  0  0  0  0  0  0  0  0  0  0  0
   -2.5030   14.5970    0.1270 N   0  0  0  0  0  0  0  0  0  0  0  0
   -3.6910   15.9740    1.3340 N   0  0  0  0  0  0  0  0  0  0  0  0
   -3.5820   15.4170    0.1510 C   0  0  0  0  0  0  0  0  0  0  0  0
   -4.4300   15.6860   -0.6630 N   0  0  0  0  0  0  0  0  0  0  0  0
   -4.5350   15.1780   -1.8850 C   0  0  0  0  0  0  0  0  0  0  0  0
   -5.7740   14.6830   -2.1150 C   0  0  0  0  0  0  0  0  0  0  0  0
   -3.5070   15.1680   -2.8080 C   0  0  0  0  0  0  0  0  0  0  0  0
   -6.7740   14.7270   -0.9950 C   0  0  0  0  0  0  0  0  0  0  0  0
   -3.7760   14.6360   -4.0510 C   0  0  0  0  0  0  0  0  0  0  0  0
   -6.0540   14.1550   -3.3630 C   0  0  0  0  0  0  0  0  0  0  0  0
   -6.2400   14.4780    0.2640 N   0  0  0  0  0  0  0  0  0  0  0  0
   -7.9530   14.9670   -1.1950 O   0  0  0  0  0  0  0  0  0  0  0  0
   -2.5240   14.5870   -5.2930 S   0  0  0  0  0  0  0  0  0  0  0  0
   -5.0480   14.1370   -4.3360 C   0  0  0  0  0  0  0  0  0  0  0  0
   -7.0140   14.4370    1.4790 C   0  0  0  0  0  0  0  0  0  0  0  0
   -1.3470   15.6490   -4.7280 N   0  0  0  0  0  0  0  0  0  0  0  0
   -1.9510   13.2660   -5.3110 O   0  0  0  0  0  0  0  0  0  0  0  0
   -3.1070   15.2090   -6.4550 O   0  0  0  0  0  0  0  0  0  0  0  0
  1  2  2  0
  2  3  1  0
  2  4  1  0
  3  5  1  0
  4  6  1  0
  5  6  1  0
  6  7  2  3
  7  8  1  0
  8  9  2  0
  8 10  1  0
  9 11  1  0
 10 12  2  0
  9 13  1  0
 11 14  1  0
 11 15  2  0
 12 16  1  0
 12 17  1  0
 13 17  2  0
 14 18  1  0
 16 19  1  0
 16 20  2  0
 16 21  2  0
M  END
