x0895_0_A-x0766_0_A
     RDKit          3D

 20 22  0  0  0  0  0  0  0  0999 V2000
   -2.6860   14.5260    2.3150 O   0  0  0  0  0  0  0  0  0  0  0  0
   -3.4780   14.8140    1.4220 C   0  0  0  0  0  0  0  0  0  0  0  0
   -4.9990   14.6640    1.2990 C   0  0  0  0  0  0  0  0  0  0  0  0
   -3.1560   15.3610    0.2550 N   0  0  0  0  0  0  0  0  0  0  0  0
   -5.1930   14.9440   -0.1420 N   0  0  0  0  0  0  0  0  0  0  0  0
   -3.9420   14.8120   -0.6570 C   0  0  0  0  0  0  0  0  0  0  0  0
   -3.3380   14.3350   -1.6880 N   0  0  0  0  0  0  0  0  0  0  0  0
   -2.0120   14.5030   -1.4190 C   0  0  0  0  0  0  0  0  0  0  0  0
   -0.8110   14.5460   -2.1350 C   0  0  0  0  0  0  0  0  0  0  0  0
   -1.6840   14.7130    0.2530 S   0  0  0  0  0  0  0  0  0  0  0  0
   -0.5650   14.3900   -3.6020 C   0  0  2  0  0  0  0  0  0  0  0  0
    0.3070   14.7720   -1.2580 C   0  0  0  0  0  0  0  0  0  0  0  0
   -0.0340   14.8820    0.0510 C   0  0  0  0  0  0  0  0  0  0  0  0
    0.6480   13.4590   -3.7350 C   0  0  1  0  0  0  0  0  0  0  0  0
   -0.0760   15.6680   -4.3120 C   0  0  0  0  0  0  0  0  0  0  0  0
    0.3560   12.0330   -3.3620 C   0  0  0  0  0  0  0  0  0  0  0  0
    1.1830   13.7730   -5.1150 C   0  0  0  0  0  0  0  0  0  0  0  0
    1.2470   15.2920   -4.9780 C   0  0  0  0  0  0  0  0  0  0  0  0
    0.7140   11.5240   -2.3150 O   0  0  0  0  0  0  0  0  0  0  0  0
   -0.3460   11.3270   -4.2540 O   0  0  0  0  0  0  0  0  0  0  0  0
  1  2  2  0
  2  3  1  0
  2  4  1  0
  3  5  1  0
  4  6  1  0
  5  6  1  0
  6  7  2  3
  7  8  1  0
  8  9  2  0
  8 10  1  0
 11  9  1  1
  9 12  1  0
 10 13  1  0
 12 13  2  0
 11 14  1  0
 11 15  1  0
 14 16  1  6
 14 17  1  0
 15 18  1  0
 17 18  1  0
 16 19  2  0
 16 20  1  0
M  END
