x0895_1_A-x0574_0_A
     RDKit          3D

 12 13  0  0  0  0  0  0  0  0999 V2000
   -2.8850   16.4840    1.1330 O   0  0  0  0  0  0  0  0  0  0  0  0
   -3.0050   15.1360    0.9880 C   0  0  2  0  0  0  0  0  0  0  0  0
   -3.0260   14.8160   -0.5480 C   0  0  2  0  0  0  0  0  0  0  0  0
   -4.3230   14.8590    1.3980 N   0  0  0  0  0  0  0  0  0  0  0  0
   -1.9070   14.5550    1.6820 N   0  0  0  0  0  0  0  0  0  0  0  0
   -4.2410   14.0160   -0.6390 N   0  0  0  0  0  0  0  0  0  0  0  0
   -5.0740   14.2980    0.4310 C   0  0  0  0  0  0  0  0  0  0  0  0
   -0.8330   14.5360    0.7740 C   0  0  2  0  0  0  0  0  0  0  0  0
   -1.4580   13.9470   -0.7910 S   0  0  0  0  0  0  0  0  0  0  0  0
   -6.3250   14.1220    0.6290 N   0  0  0  0  0  0  0  0  0  0  0  0
    0.0200   13.5990    1.3940 N   0  0  0  0  0  0  0  0  0  0  0  0
   -6.8410   14.5370    1.9340 C   0  0  0  0  0  0  0  0  0  0  0  0
  2  1  1  6
  2  3  1  0
  2  4  1  0
  2  5  1  0
  3  6  1  1
  4  7  1  0
  6  7  1  0
  5  8  1  0
  3  9  1  0
  8  9  1  0
  7 10  2  3
  8 11  1  1
 10 12  1  0
M  END
