x0895_1_A_α-x0855_0_A_α
     RDKit          3D

 20 21  0  0  0  0  0  0  0  0999 V2000
   -1.6230   14.8100    1.7240 O   0  0  0  0  0  0  0  0  0  0  0  0
   -2.6320   14.8460    1.0310 C   0  0  0  0  0  0  0  0  0  0  0  0
   -2.6760   15.0420   -0.4860 C   0  0  1  0  0  0  0  0  0  0  0  0
   -3.9030   14.7180    1.4910 N   0  0  0  0  0  0  0  0  0  0  0  0
   -1.8490   13.9980   -1.2450 C   0  0  0  0  0  0  0  0  0  0  0  0
   -4.1010   14.8760   -0.7030 N   0  0  0  0  0  0  0  0  0  0  0  0
   -4.7920   14.8110    0.4830 C   0  0  0  0  0  0  0  0  0  0  0  0
   -6.0070   14.8340    0.5910 O   0  0  0  0  0  0  0  0  0  0  0  0
   -0.3510   14.0240   -0.8930 C   0  0  0  0  0  0  0  0  0  0  0  0
    0.5280   14.2500   -2.1260 C   0  0  0  0  0  0  0  0  0  0  0  0
    1.3570   13.0920   -2.3630 O   0  0  0  0  0  0  0  0  0  0  0  0
    0.8410   12.0860   -3.1300 C   0  0  0  0  0  0  0  0  0  0  0  0
    0.6030   10.9640   -2.7060 O   0  0  0  0  0  0  0  0  0  0  0  0
    0.6030   12.5410   -4.5470 C   0  0  0  0  0  0  0  0  0  0  0  0
   -0.4290   11.7020   -5.1110 N   0  0  0  0  0  0  0  0  0  0  0  0
   -0.3010   10.7740   -6.1050 C   0  0  0  0  0  0  0  0  0  0  0  0
   -1.6890   11.7990   -4.6270 N   0  0  0  0  0  0  0  0  0  0  0  0
   -1.5500   10.2350   -6.2560 C   0  0  0  0  0  0  0  0  0  0  0  0
   -2.3690   10.8970   -5.3340 C   0  0  0  0  0  0  0  0  0  0  0  0
   -2.0960    8.8990   -7.4300 Br  0  0  0  0  0  0  0  0  0  0  0  0
  1  2  2  0
  2  3  1  0
  2  4  1  0
  3  5  1  6
  3  6  1  0
  4  7  1  0
  6  7  1  0
  7  8  2  0
  5  9  1  0
  9 10  1  0
 10 11  1  0
 11 12  1  0
 12 13  2  0
 12 14  1  0
 14 15  1  0
 15 16  1  0
 15 17  1  0
 16 18  2  0
 17 19  2  0
 18 19  1  0
 18 20  1  0
M  END
