x0895_1_A-x0910_0_A
     RDKit          3D

 13 14  0  0  0  0  0  0  0  0999 V2000
   -2.2420   15.0020    1.6250 O   0  0  0  0  0  0  0  0  0  0  0  0
   -3.3290   15.0440    1.0250 C   0  0  0  0  0  0  0  0  0  0  0  0
   -3.5890   15.1940   -0.4900 C   0  0  1  0  0  0  0  0  0  0  0  0
   -4.5500   14.9510    1.5880 N   0  0  0  0  0  0  0  0  0  0  0  0
   -2.5960   14.5740   -1.3210 N   0  0  0  0  0  0  0  0  0  0  0  0
   -4.8430   14.5720   -0.5910 N   0  0  0  0  0  0  0  0  0  0  0  0
   -5.4660   14.7020    0.6280 C   0  0  0  0  0  0  0  0  0  0  0  0
   -6.6630   14.6140    0.8080 O   0  0  0  0  0  0  0  0  0  0  0  0
   -1.4100   14.6350   -0.7350 C   0  0  0  0  0  0  0  0  0  0  0  0
   -1.3000   14.3090    0.5810 N   0  0  0  0  0  0  0  0  0  0  0  0
   -0.2490   14.9810   -1.1890 N   0  0  0  0  0  0  0  0  0  0  0  0
   -0.0640   14.4520    1.0270 N   0  0  0  0  0  0  0  0  0  0  0  0
    0.5360   14.8660   -0.0920 C   0  0  0  0  0  0  0  0  0  0  0  0
  1  2  2  0
  2  3  1  0
  2  4  1  0
  3  5  1  6
  3  6  1  0
  4  7  1  0
  6  7  1  0
  7  8  2  0
  5  9  1  0
  9 10  1  0
  9 11  2  0
 10 12  1  0
 11 13  1  0
 12 13  2  0
M  END
