x0895_1_A_α-x0421_0_A_α
     RDKit          3D

 12 13  0  0  0  0  0  0  0  0999 V2000
   -1.7940   14.8230    0.8980 O   0  0  0  0  0  0  0  0  0  0  0  0
   -3.0420   14.9090    0.6600 C   0  0  0  0  0  0  0  0  0  0  0  0
   -3.6470   15.0300   -0.6940 C   0  0  1  0  0  0  0  0  0  0  0  0
   -4.1400   14.9090    1.5700 N   0  0  0  0  0  0  0  0  0  0  0  0
   -2.6940   14.7980   -1.8140 C   0  0  0  0  0  0  0  0  0  0  0  0
   -4.6450   14.0270   -0.6200 N   0  0  0  0  0  0  0  0  0  0  0  0
   -5.4910   14.5430    0.4600 S   0  0  0  0  0  0  0  0  0  0  0  0
   -6.0280   15.7370   -0.2300 O   0  0  0  0  0  0  0  0  0  0  0  0
   -3.1390   14.8370   -3.1570 N   0  0  0  0  0  0  0  0  0  0  0  0
   -1.4920   14.5780   -1.5880 O   0  0  0  0  0  0  0  0  0  0  0  0
   -6.8070   14.3210    1.4080 C   0  0  0  0  0  0  0  0  0  0  0  0
   -6.2190   13.1360    0.9980 C   0  0  0  0  0  0  0  0  0  0  0  0
  1  2  2  0
  2  3  1  0
  2  4  1  0
  3  5  1  6
  3  6  1  0
  4  7  1  0
  6  7  1  0
  7  8  2  0
  5  9  1  0
  5 10  2  0
  7 11  1  0
  7 12  1  0
 11 12  1  0
M  END
