x0895_0_A_α-x0253_0_A_α
     RDKit          3D

 24 25  0  0  0  0  0  0  0  0999 V2000
   -1.6520   14.5670    1.9140 O   0  0  0  0  0  0  0  0  0  0  0  0
   -2.5590   14.9020    1.1640 C   0  0  0  0  0  0  0  0  0  0  0  0
   -3.8210   15.6850    1.5240 C   0  0  0  0  0  0  0  0  0  0  0  0
   -2.6440   14.6620   -0.1770 N   0  0  0  0  0  0  0  0  0  0  0  0
   -1.5790   14.1790   -1.0330 C   0  0  0  0  0  0  0  0  0  0  0  0
   -4.6670   15.2080    0.4830 N   0  0  0  0  0  0  0  0  0  0  0  0
   -3.8860   15.0170   -0.6200 C   0  0  0  0  0  0  0  0  0  0  0  0
   -4.2630   15.1490   -1.7730 O   0  0  0  0  0  0  0  0  0  0  0  0
   -0.1850   14.4380   -0.4620 C   0  0  0  0  0  0  0  0  0  0  0  0
    0.8750   13.8600   -1.3970 C   0  0  0  0  0  0  0  0  0  0  0  0
    0.5680   12.4480   -1.5790 N   0  0  0  0  0  0  0  0  0  0  0  0
    0.6520   11.8650   -2.7270 C   0  0  0  0  0  0  0  0  0  0  0  0
    0.3360   10.5390   -2.7130 O   0  0  0  0  0  0  0  0  0  0  0  0
    1.0570   12.4550   -4.1040 C   0  0  0  0  0  0  0  0  0  0  0  0
    0.3700   11.8630   -5.2510 N   0  0  0  0  0  0  0  0  0  0  0  0
    1.0600   11.6630   -6.4350 C   0  0  0  0  0  0  0  0  0  0  0  0
    2.1440   12.1990   -6.5970 O   0  0  0  0  0  0  0  0  0  0  0  0
    0.4480   10.7470   -7.4590 C   0  0  0  0  0  0  0  0  0  0  0  0
   -0.5320    9.8270   -7.0920 C   0  0  0  0  0  0  0  0  0  0  0  0
    0.8520   10.7980   -8.8050 C   0  0  0  0  0  0  0  0  0  0  0  0
   -1.1090    8.9700   -8.0400 C   0  0  0  0  0  0  0  0  0  0  0  0
    0.2860    9.9520   -9.7540 C   0  0  0  0  0  0  0  0  0  0  0  0
   -2.1620    7.9930   -7.6210 C   0  0  0  0  0  0  0  0  0  0  0  0
   -0.6900    9.0410   -9.3730 C   0  0  0  0  0  0  0  0  0  0  0  0
  1  2  2  0
  2  3  1  0
  2  4  1  0
  4  5  1  0
  3  6  1  0
  4  7  1  0
  6  7  1  0
  7  8  2  0
  5  9  1  0
  9 10  1  0
 10 11  1  0
 11 12  2  3
 12 13  1  0
 12 14  1  0
 14 15  1  0
 15 16  1  0
 16 17  2  0
 16 18  1  0
 18 19  2  0
 18 20  1  0
 19 21  1  0
 20 22  2  0
 21 23  1  0
 21 24  2  0
 22 24  1  0
M  END
