x0905_0_A-x0465_0_A
     RDKit          3D

 23 24  0  0  0  0  0  0  0  0999 V2000
   -6.8540   15.1700   -0.7430 O   0  0  0  0  0  0  0  0  0  0  0  0
   -5.5170   15.1120   -0.5220 C   0  0  0  0  0  0  0  0  0  0  0  0
   -5.1820   14.9770    0.7650 N   0  0  0  0  0  0  0  0  0  0  0  0
   -4.6210   15.1870   -1.5670 C   0  0  0  0  0  0  0  0  0  0  0  0
   -3.8560   14.9080    1.0330 C   0  0  0  0  0  0  0  0  0  0  0  0
   -3.2570   15.1100   -1.2600 C   0  0  0  0  0  0  0  0  0  0  0  0
   -2.8410   14.9630    0.0780 C   0  0  0  0  0  0  0  0  0  0  0  0
   -1.3740   14.8620    0.5080 C   0  0  0  0  0  0  0  0  0  0  0  0
   -0.6750   13.6000    0.0280 C   0  0  0  0  0  0  0  0  0  0  0  0
    0.1970   13.7050   -1.2350 C   0  0  0  0  0  0  0  0  0  0  0  0
    0.2910   12.3230   -1.6930 N   0  0  0  0  0  0  0  0  0  0  0  0
    0.4610   11.8880   -2.9110 C   0  0  0  0  0  0  0  0  0  0  0  0
    0.6340   12.5850   -4.2860 C   0  0  1  0  0  0  0  0  0  0  0  0
    0.4700   10.5440   -2.9860 O   0  0  0  0  0  0  0  0  0  0  0  0
    2.0060   13.2590   -4.3810 C   0  0  0  0  0  0  0  0  0  0  0  0
    0.6280   11.5690   -5.3330 O   0  0  0  0  0  0  0  0  0  0  0  0
   -0.5390   10.8690   -5.5700 C   0  0  0  0  0  0  0  0  0  0  0  0
   -0.6440    9.8540   -6.5420 C   0  0  0  0  0  0  0  0  0  0  0  0
   -1.6580   11.1920   -4.8090 C   0  0  0  0  0  0  0  0  0  0  0  0
    0.3990    9.5090   -7.3070 F   0  0  0  0  0  0  0  0  0  0  0  0
   -1.8430    9.1770   -6.7410 C   0  0  0  0  0  0  0  0  0  0  0  0
   -2.8660   10.5100   -5.0100 C   0  0  0  0  0  0  0  0  0  0  0  0
   -2.9550    9.5030   -5.9750 C   0  0  0  0  0  0  0  0  0  0  0  0
  1  2  1  0
  2  3  2  0
  2  4  1  0
  3  5  1  0
  4  6  2  0
  5  7  2  0
  6  7  1  0
  7  8  1  0
  8  9  1  0
  9 10  1  0
 10 11  1  0
 11 12  2  3
 12 13  1  0
 12 14  1  0
 13 15  1  1
 13 16  1  0
 16 17  1  0
 17 18  2  0
 17 19  1  0
 18 20  1  0
 18 21  1  0
 19 22  2  0
 21 23  2  0
 22 23  1  0
M  END
