x0900_0_A_α-x0895_1_A_α
     RDKit          3D

  7  7  0  0  0  0  0  0  0  0999 V2000
   -6.6570   14.9980   -0.8410 O   0  0  0  0  0  0  0  0  0  0  0  0
   -5.6080   14.9600   -0.2200 C   0  0  0  0  0  0  0  0  0  0  0  0
   -4.3530   15.1530   -0.7200 N   0  0  0  0  0  0  0  0  0  0  0  0
   -5.4720   14.6820    1.2520 C   0  0  0  0  0  0  0  0  0  0  0  0
   -4.1140   15.2780    1.5600 C   0  0  0  0  0  0  0  0  0  0  0  0
   -3.4090   15.0810    0.2670 C   0  0  0  0  0  0  0  0  0  0  0  0
   -2.2040   14.8850    0.1540 O   0  0  0  0  0  0  0  0  0  0  0  0
  1  2  2  0
  2  3  1  0
  2  4  1  0
  4  5  1  0
  3  6  1  0
  5  6  1  0
  6  7  2  0
M  END
