x0905_0_A-x0910_1_A
     RDKit          3D

  8  8  0  0  0  0  0  0  0  0999 V2000
   -7.0070   14.5390   -1.0810 O   0  0  0  0  0  0  0  0  0  0  0  0
   -5.9530   15.4110   -0.7640 C   0  0  1  0  0  0  0  0  0  0  0  0
   -5.5450   15.0870    0.6230 N   0  0  0  0  0  0  0  0  0  0  0  0
   -4.8270   15.2430   -1.7330 C   0  0  0  0  0  0  0  0  0  0  0  0
   -6.4450   14.3850    1.4960 N   0  0  0  0  0  0  0  0  0  0  0  0
   -4.2020   15.1260    0.9720 C   0  0  0  0  0  0  0  0  0  0  0  0
   -3.5480   15.1200   -1.3440 C   0  0  0  0  0  0  0  0  0  0  0  0
   -3.2170   15.1410    0.0660 C   0  0  0  0  0  0  0  0  0  0  0  0
  2  1  1  6
  2  3  1  0
  2  4  1  0
  3  5  1  0
  3  6  1  0
  4  7  2  0
  6  8  2  0
  7  8  1  0
M  END
