x0905_0_B_α-x0918_4_B_α
     RDKit          3D

  8  8  0  0  0  0  0  0  0  0999 V2000
   14.0510   19.5180   11.5920 O   0  0  0  0  0  0  0  0  0  0  0  0
   13.4150   20.2060   12.5710 C   0  0  0  0  0  0  0  0  0  0  0  0
   12.5160   19.5040   13.2830 N   0  0  0  0  0  0  0  0  0  0  0  0
   13.7280   21.5320   12.7580 C   0  0  0  0  0  0  0  0  0  0  0  0
   11.8870   20.1980   14.2530 C   0  0  0  0  0  0  0  0  0  0  0  0
   13.0730   22.2230   13.7590 C   0  0  0  0  0  0  0  0  0  0  0  0
   13.3610   23.5710   13.9810 N   0  0  0  0  0  0  0  0  0  0  0  0
   12.1280   21.5390   14.5260 C   0  0  0  0  0  0  0  0  0  0  0  0
  1  2  1  0
  2  3  2  0
  2  4  1  0
  3  5  1  0
  4  6  2  0
  6  7  1  0
  5  8  2  0
  6  8  1  0
M  END
