x0905_1_B_α-x0729_0_A_α
     RDKit          3D

 26 27  0  0  0  0  0  0  0  0999 V2000
   14.0110   19.6750   11.6420 O   0  0  0  0  0  0  0  0  0  0  0  0
   13.4030   20.3970   12.6190 C   0  0  0  0  0  0  0  0  0  0  0  0
   12.5330   19.6620   13.3310 N   0  0  0  0  0  0  0  0  0  0  0  0
   13.6850   21.7480   12.8230 C   0  0  0  0  0  0  0  0  0  0  0  0
   11.8900   20.3120   14.3200 C   0  0  0  0  0  0  0  0  0  0  0  0
   12.9910   22.3720   13.8630 C   0  0  0  0  0  0  0  0  0  0  0  0
   14.6700   22.5470   12.0010 C   0  0  0  0  0  0  0  0  0  0  0  0
   12.0810   21.6470   14.6240 C   0  0  0  0  0  0  0  0  0  0  0  0
   16.0630   22.5820   12.6430 C   0  0  0  0  0  0  0  0  0  0  0  0
   17.1510   23.2830   11.8170 C   0  0  0  0  0  0  0  0  0  0  0  0
   16.7400   23.9810   10.5110 C   0  0  0  0  0  0  0  0  0  0  0  0
   17.4840   23.5570    9.2380 C   0  0  0  0  0  0  0  0  0  0  0  0
   18.2080   24.6540    8.4630 C   0  0  0  0  0  0  0  0  0  0  0  0
   19.0930   25.5760    9.3030 C   0  0  0  0  0  0  0  0  0  0  0  0
   19.0580   27.2390    8.6290 S   0  0  0  0  0  0  0  0  0  0  0  0
   17.7460   27.4010    8.0550 O   0  0  0  0  0  0  0  0  0  0  0  0
   19.5120   28.1510    9.6570 O   0  0  0  0  0  0  0  0  0  0  0  0
   20.2190   27.2380    7.3970 N   0  0  0  0  0  0  0  0  0  0  0  0
   21.6450   27.4890    7.7420 C   0  0  0  0  0  0  0  0  0  0  0  0
   20.0110   26.8290    5.9640 C   0  0  2  0  0  0  0  0  0  0  0  0
   19.9150   25.3290    5.7160 C   0  0  0  0  0  0  0  0  0  0  0  0
   22.1910   28.6780    6.9530 C   0  0  0  0  0  0  0  0  0  0  0  0
   21.0440   27.4790    5.0290 C   0  0  1  0  0  0  0  0  0  0  0  0
   20.4900   27.6370    3.6740 C   0  0  0  0  0  0  0  0  0  0  0  0
   21.5410   28.8230    5.5810 C   0  0  0  0  0  0  0  0  0  0  0  0
   20.0610   27.7100    2.5990 N   0  0  0  0  0  0  0  0  0  0  0  0
  1  2  1  0
  2  3  2  0
  2  4  1  0
  3  5  1  0
  4  6  2  0
  4  7  1  0
  5  8  2  0
  6  8  1  0
  7  9  1  0
  9 10  1  0
 10 11  1  0
 11 12  1  0
 12 13  1  0
 13 14  1  0
 15 14  1  0
 15 16  2  0
 15 17  2  0
 15 18  1  0
 18 19  1  0
 18 20  1  0
 20 21  1  1
 19 22  1  0
 20 23  1  0
 23 24  1  6
 22 25  1  0
 23 25  1  0
 24 26  3  0
M  END
