x0905_0_A-x0910_1_A
     RDKit          3D

  8  8  0  0  0  0  0  0  0  0999 V2000
   -7.0010   14.5310   -1.0820 O   0  0  0  0  0  0  0  0  0  0  0  0
   -5.9530   15.4100   -0.7660 C   0  0  1  0  0  0  0  0  0  0  0  0
   -5.5430   15.0830    0.6200 N   0  0  0  0  0  0  0  0  0  0  0  0
   -4.8230   15.2430   -1.7330 C   0  0  0  0  0  0  0  0  0  0  0  0
   -6.4400   14.3860    1.4920 N   0  0  0  0  0  0  0  0  0  0  0  0
   -4.2020   15.1230    0.9690 C   0  0  0  0  0  0  0  0  0  0  0  0
   -3.5420   15.1220   -1.3450 C   0  0  0  0  0  0  0  0  0  0  0  0
   -3.2120   15.1420    0.0640 C   0  0  0  0  0  0  0  0  0  0  0  0
  2  1  1  6
  2  3  1  0
  2  4  1  0
  3  5  1  0
  3  6  1  0
  4  7  2  0
  6  8  2  0
  7  8  1  0
M  END
