x0905_0_A-x0591_0_A
     RDKit          3D

 20 21  0  0  0  0  0  0  0  0999 V2000
   -6.1340   14.9140    0.4190 N   0  0  0  0  0  0  0  0  0  0  0  0
   -6.4960   14.3670   -0.6220 C   0  0  0  0  0  0  0  0  0  0  0  0
   -7.7420   13.9060   -0.4960 N   0  0  0  0  0  0  0  0  0  0  0  0
   -4.8580   15.2480    0.2040 C   0  0  0  0  0  0  0  0  0  0  0  0
   -4.0890   15.0840    1.2550 N   0  0  0  0  0  0  0  0  0  0  0  0
   -4.4390   15.6810   -1.0390 C   0  0  0  0  0  0  0  0  0  0  0  0
   -5.5180   14.3170   -1.7560 C   0  0  0  0  0  0  0  0  0  0  0  0
   -8.2520   13.8880    0.8670 C   0  0  0  0  0  0  0  0  0  0  0  0
   -2.8030   15.3500    1.0790 C   0  0  0  0  0  0  0  0  0  0  0  0
   -3.0960   15.9480   -1.1970 C   0  0  0  0  0  0  0  0  0  0  0  0
   -4.2210   13.8120   -1.5230 C   0  0  0  0  0  0  0  0  0  0  0  0
   -5.8720   14.7890   -3.0160 C   0  0  0  0  0  0  0  0  0  0  0  0
   -2.2570   15.7780   -0.1140 C   0  0  0  0  0  0  0  0  0  0  0  0
   -3.2730   13.8010   -2.5540 C   0  0  0  0  0  0  0  0  0  0  0  0
   -4.9200   14.7680   -4.0410 C   0  0  0  0  0  0  0  0  0  0  0  0
   -3.6340   14.2890   -3.8110 C   0  0  0  0  0  0  0  0  0  0  0  0
   -2.4730   14.3200   -5.1540 S   0  0  0  0  0  0  0  0  0  0  0  0
   -1.2700   15.3660   -4.6030 N   0  0  0  0  0  0  0  0  0  0  0  0
   -1.8440   13.0260   -5.2410 O   0  0  0  0  0  0  0  0  0  0  0  0
   -3.1190   14.9590   -6.2760 O   0  0  0  0  0  0  0  0  0  0  0  0
  1  2  2  3
  2  3  1  0
  1  4  1  0
  4  5  2  0
  4  6  1  0
  2  7  1  0
  3  8  1  0
  5  9  1  0
  6 10  2  0
  7 11  2  0
  7 12  1  0
  9 13  2  0
 10 13  1  0
 11 14  1  0
 12 15  2  0
 14 16  2  0
 15 16  1  0
 16 17  1  0
 17 18  1  0
 17 19  2  0
 17 20  2  0
M  END
