x0900_1_A_α-x0282_0_A_α
     RDKit          3D

 25 27  0  0  0  0  0  0  0  0999 V2000
   -1.1610   10.0720   -9.8690 O   0  0  0  0  0  0  0  0  0  0  0  0
   -1.1150    9.4320   -8.8320 C   0  0  0  0  0  0  0  0  0  0  0  0
   -0.2760    8.3840   -8.5920 N   0  0  0  0  0  0  0  0  0  0  0  0
   -1.9510    9.6350   -7.5910 C   0  0  0  0  0  0  0  0  0  0  0  0
   -1.2510    8.7350   -6.5540 C   0  0  1  0  0  0  0  0  0  0  0  0
    0.0760    8.3950   -7.2220 C   0  0  0  0  0  0  0  0  0  0  0  0
   -1.0380    9.3510   -5.1670 C   0  0  0  0  0  0  0  0  0  0  0  0
   -0.6830   10.8370   -5.1130 C   0  0  0  0  0  0  0  0  0  0  0  0
    0.0750   11.3030   -3.8560 C   0  0  0  0  0  0  0  0  0  0  0  0
   -0.7180   12.2110   -2.9070 C   0  0  0  0  0  0  0  0  0  0  0  0
   -0.0540   13.5450   -2.5060 C   0  0  0  0  0  0  0  0  0  0  0  0
   -0.4780   14.0000   -1.1350 C   0  0  0  0  0  0  0  0  0  0  0  0
   -1.7850   14.1140   -0.9260 N   0  0  0  0  0  0  0  0  0  0  0  0
    0.4200   14.2690   -0.1570 C   0  0  0  0  0  0  0  0  0  0  0  0
   -0.1000   14.6500    1.0630 C   0  0  0  0  0  0  0  0  0  0  0  0
   -2.2260   14.4930    0.2760 C   0  0  0  0  0  0  0  0  0  0  0  0
   -3.5750   14.5870    0.4040 N   0  0  0  0  0  0  0  0  0  0  0  0
   -1.4100   14.7700    1.3150 N   0  0  0  0  0  0  0  0  0  0  0  0
   -4.1830   14.0460    1.5900 C   0  0  0  0  0  0  0  0  0  0  0  0
   -4.3190   14.5490   -0.8500 C   0  0  0  0  0  0  0  0  0  0  0  0
   -5.4970   14.7720    1.8200 C   0  0  0  0  0  0  0  0  0  0  0  0
   -5.7020   15.1690   -0.6850 C   0  0  0  0  0  0  0  0  0  0  0  0
   -6.4150   14.6980    0.5960 C   0  0  0  0  0  0  0  0  0  0  0  0
   -7.1370   13.3670    0.4680 C   0  0  0  0  0  0  0  0  0  0  0  0
   -8.5020   13.6110    0.1460 O   0  0  0  0  0  0  0  0  0  0  0  0
  1  2  2  0
  2  3  1  0
  2  4  1  0
  4  5  1  0
  3  6  1  0
  5  6  1  0
  5  7  1  1
  7  8  1  0
  8  9  1  0
  9 10  1  0
 10 11  1  0
 11 12  1  0
 12 13  2  0
 12 14  1  0
 14 15  2  0
 13 16  1  0
 16 17  1  0
 15 18  1  0
 16 18  2  0
 17 19  1  0
 17 20  1  0
 19 21  1  0
 20 22  1  0
 21 23  1  0
 22 23  1  0
 23 24  1  0
 24 25  1  0
M  END
