x0900_0_A-x0969_0_A
     RDKit          3D

 10 11  0  0  0  0  0  0  0  0999 V2000
   -6.2260   15.9700   -0.7340 O   0  0  0  0  0  0  0  0  0  0  0  0
   -5.9010   14.6380   -0.5800 C   0  0  1  0  0  0  0  0  0  0  0  0
   -4.6340   14.4880   -1.2380 N   0  0  0  0  0  0  0  0  0  0  0  0
   -5.4730   14.2650    0.8380 C   0  0  1  0  0  0  0  0  0  0  0  0
   -7.1150   13.9040   -0.7300 N   0  0  0  0  0  0  0  0  0  0  0  0
   -4.2160   15.1070    0.8940 C   0  0  0  0  0  0  0  0  0  0  0  0
   -3.7750   15.1650   -0.3800 C   0  0  0  0  0  0  0  0  0  0  0  0
   -6.7940   14.5080    1.5400 C   0  0  1  0  0  0  0  0  0  0  0  0
   -7.8320   14.3680    0.4940 N   0  0  0  0  0  0  0  0  0  0  0  0
   -7.1380   13.6290    2.6060 N   0  0  0  0  0  0  0  0  0  0  0  0
  2  1  1  1
  2  3  1  0
  2  4  1  0
  2  5  1  0
  4  6  1  1
  3  7  1  0
  6  7  2  0
  4  8  1  0
  5  9  1  0
  8  9  1  0
  8 10  1  1
M  END
