x0905_0_A-x0910_0_A
     RDKit          3D

 13 14  0  0  0  0  0  0  0  0999 V2000
   -7.3690   14.9380   -1.3190 O   0  0  0  0  0  0  0  0  0  0  0  0
   -6.1060   14.9370   -0.8230 C   0  0  0  0  0  0  0  0  0  0  0  0
   -6.0500   15.0380    0.5080 N   0  0  0  0  0  0  0  0  0  0  0  0
   -5.0020   14.8350   -1.6480 C   0  0  0  0  0  0  0  0  0  0  0  0
   -4.8420   15.0640    1.0710 C   0  0  0  0  0  0  0  0  0  0  0  0
   -3.7610   14.8440   -1.0310 C   0  0  0  0  0  0  0  0  0  0  0  0
   -2.5220   14.7340   -1.6310 N   0  0  0  0  0  0  0  0  0  0  0  0
   -3.6920   14.9700    0.3500 C   0  0  0  0  0  0  0  0  0  0  0  0
   -1.4640   14.7880   -0.8230 C   0  0  0  0  0  0  0  0  0  0  0  0
   -1.5860   14.5990    0.5300 N   0  0  0  0  0  0  0  0  0  0  0  0
   -0.2290   15.0220   -1.1150 N   0  0  0  0  0  0  0  0  0  0  0  0
   -0.4150   14.7210    1.1470 N   0  0  0  0  0  0  0  0  0  0  0  0
    0.3670   14.9820    0.0990 C   0  0  0  0  0  0  0  0  0  0  0  0
  1  2  1  0
  2  3  2  0
  2  4  1  0
  3  5  1  0
  4  6  2  0
  6  7  1  0
  5  8  2  0
  6  8  1  0
  7  9  1  0
  9 10  1  0
  9 11  2  0
 10 12  1  0
 11 13  1  0
 12 13  2  0
M  END
