x0905_0_A-x0722_0_A
     RDKit          3D

 18 19  0  0  0  0  0  0  0  0999 V2000
   -6.6070   15.1670   -0.5930 N   0  0  0  0  0  0  0  0  0  0  0  0
   -6.3980   13.9360   -0.3660 C   0  0  0  0  0  0  0  0  0  0  0  0
   -7.4520   13.1200   -0.0770 N   0  0  0  0  0  0  0  0  0  0  0  0
   -5.3190   15.4820   -0.7540 C   0  0  0  0  0  0  0  0  0  0  0  0
   -4.9740   13.3230   -0.4350 C   0  0  0  0  0  0  0  0  0  0  0  0
   -4.7530   15.8400    0.3860 N   0  0  0  0  0  0  0  0  0  0  0  0
   -4.6820   15.3810   -1.9680 C   0  0  0  0  0  0  0  0  0  0  0  0
   -3.4560   16.1010    0.3380 C   0  0  0  0  0  0  0  0  0  0  0  0
   -3.3290   15.6600   -1.9940 C   0  0  0  0  0  0  0  0  0  0  0  0
   -3.8070   13.8810    0.3760 C   0  0  0  0  0  0  0  0  0  0  0  0
   -2.6990   16.0210   -0.8150 C   0  0  0  0  0  0  0  0  0  0  0  0
   -3.7890   14.4970    1.6720 C   0  0  0  0  0  0  0  0  0  0  0  0
   -2.4570   13.8890   -0.0080 C   0  0  0  0  0  0  0  0  0  0  0  0
   -4.9090   14.8030    2.6020 C   0  0  0  0  0  0  0  0  0  0  0  0
   -1.7790   13.4190   -1.2450 C   0  0  0  0  0  0  0  0  0  0  0  0
   -2.5450   14.8160    2.0360 N   0  0  0  0  0  0  0  0  0  0  0  0
   -1.7600   14.4440    1.0240 N   0  0  0  0  0  0  0  0  0  0  0  0
   -0.3290   14.6460    1.1090 C   0  0  0  0  0  0  0  0  0  0  0  0
  1  2  2  3
  2  3  1  0
  1  4  1  0
  2  5  1  0
  4  6  2  0
  4  7  1  0
  6  8  1  0
  7  9  2  0
  5 10  1  0
  8 11  2  0
  9 11  1  0
 10 12  1  0
 10 13  2  0
 12 14  1  0
 13 15  1  0
 12 16  2  0
 13 17  1  0
 16 17  1  0
 17 18  1  0
M  END
