x0905_0_A-x0465_0_A
     RDKit          3D

 23 24  0  0  0  0  0  0  0  0999 V2000
   -6.8610   15.1820   -0.7370 O   0  0  0  0  0  0  0  0  0  0  0  0
   -5.5220   15.1300   -0.5210 C   0  0  0  0  0  0  0  0  0  0  0  0
   -5.1870   14.9870    0.7650 N   0  0  0  0  0  0  0  0  0  0  0  0
   -4.6280   15.2170   -1.5670 C   0  0  0  0  0  0  0  0  0  0  0  0
   -3.8610   14.9240    1.0320 C   0  0  0  0  0  0  0  0  0  0  0  0
   -3.2670   15.1430   -1.2610 C   0  0  0  0  0  0  0  0  0  0  0  0
   -2.8470   14.9900    0.0770 C   0  0  0  0  0  0  0  0  0  0  0  0
   -1.3830   14.8910    0.5110 C   0  0  0  0  0  0  0  0  0  0  0  0
   -0.7010   13.6100    0.0710 C   0  0  0  0  0  0  0  0  0  0  0  0
    0.1740   13.6740   -1.1920 C   0  0  0  0  0  0  0  0  0  0  0  0
    0.2970   12.2780   -1.5890 N   0  0  0  0  0  0  0  0  0  0  0  0
    0.4730   11.7920   -2.7790 C   0  0  0  0  0  0  0  0  0  0  0  0
    0.6220   12.4670   -4.1800 C   0  0  1  0  0  0  0  0  0  0  0  0
    0.5140   10.4310   -2.7710 O   0  0  0  0  0  0  0  0  0  0  0  0
    1.9780   13.1710   -4.2870 C   0  0  0  0  0  0  0  0  0  0  0  0
    0.6270   11.4590   -5.2270 O   0  0  0  0  0  0  0  0  0  0  0  0
   -0.5500   10.8020   -5.5140 C   0  0  0  0  0  0  0  0  0  0  0  0
   -0.6620    9.8250   -6.5180 C   0  0  0  0  0  0  0  0  0  0  0  0
   -1.6790   11.1310   -4.7620 C   0  0  0  0  0  0  0  0  0  0  0  0
    0.3920    9.4780   -7.2710 F   0  0  0  0  0  0  0  0  0  0  0  0
   -1.8690    9.1840   -6.7650 C   0  0  0  0  0  0  0  0  0  0  0  0
   -2.8950   10.4870   -5.0130 C   0  0  0  0  0  0  0  0  0  0  0  0
   -2.9900    9.5150   -6.0090 C   0  0  0  0  0  0  0  0  0  0  0  0
  1  2  1  0
  2  3  2  0
  2  4  1  0
  3  5  1  0
  4  6  2  0
  5  7  2  0
  6  7  1  0
  7  8  1  0
  8  9  1  0
  9 10  1  0
 10 11  1  0
 11 12  2  3
 12 13  1  0
 12 14  1  0
 13 15  1  1
 13 16  1  0
 16 17  1  0
 17 18  2  0
 17 19  1  0
 18 20  1  0
 18 21  1  0
 19 22  2  0
 21 23  2  0
 22 23  1  0
M  END
