x0905_1_B-x0933_1_A
     RDKit          3D

 17 18  0  0  0  0  0  0  0  0999 V2000
   13.7060   19.5200   12.0480 O   0  0  0  0  0  0  0  0  0  0  0  0
   13.2550   20.5080   12.8730 C   0  0  0  0  0  0  0  0  0  0  0  0
   12.3670   20.1610   13.8280 N   0  0  0  0  0  0  0  0  0  0  0  0
   13.7310   21.7790   12.6780 C   0  0  0  0  0  0  0  0  0  0  0  0
   11.9320   21.1830   14.6390 C   0  0  0  0  0  0  0  0  0  0  0  0
   13.2740   22.7860   13.5070 C   0  0  0  0  0  0  0  0  0  0  0  0
   12.3540   22.5210   14.5180 C   0  0  0  0  0  0  0  0  0  0  0  0
   11.9200   23.7250   15.3640 C   0  0  0  0  0  0  0  0  0  0  0  0
   11.1680   23.5620   16.7100 C   0  0  0  0  0  0  0  0  0  0  0  0
   10.3560   24.8450   17.0850 C   0  0  0  0  0  0  0  0  0  0  0  0
    8.8000   24.7520   17.0800 C   0  0  2  0  0  0  0  0  0  0  0  0
    8.1180   25.8770   16.3280 C   0  0  0  0  0  0  0  0  0  0  0  0
    8.1320   24.9080   18.4030 C   0  0  0  0  0  0  0  0  0  0  0  0
    6.8060   25.4130   15.9330 N   0  0  0  0  0  0  0  0  0  0  0  0
    6.6930   24.7340   18.2140 N   0  0  0  0  0  0  0  0  0  0  0  0
    5.9800   25.2020   17.0410 C   0  0  2  0  0  0  0  0  0  0  0  0
    4.9120   24.3500   16.6510 N   0  0  0  0  0  0  0  0  0  0  0  0
  1  2  1  0
  2  3  2  0
  2  4  1  0
  3  5  1  0
  4  6  2  0
  5  7  2  0
  6  7  1  0
  7  8  1  0
  8  9  1  0
  9 10  1  0
 11 10  1  1
 11 12  1  0
 11 13  1  0
 12 14  1  0
 13 15  1  0
 14 16  1  0
 15 16  1  0
 16 17  1  6
M  END
