x0905_0_B_α-x0737_0_B_α
     RDKit          3D

 25 26  0  0  0  0  0  0  0  0999 V2000
   14.1900   19.4860   11.8070 O   0  0  0  0  0  0  0  0  0  0  0  0
   13.1400   20.1730   12.4330 C   0  0  1  0  0  0  0  0  0  0  0  0
   12.7500   19.4880   13.6570 N   0  0  0  0  0  0  0  0  0  0  0  0
   13.5950   21.5630   12.7620 C   0  0  0  0  0  0  0  0  0  0  0  0
   13.6100   18.3780   14.1140 C   0  0  0  0  0  0  0  0  0  0  0  0
   11.9980   20.2270   14.5570 C   0  0  0  0  0  0  0  0  0  0  0  0
   13.1150   22.2220   13.8310 C   0  0  0  0  0  0  0  0  0  0  0  0
   15.1040   18.5560   13.7950 C   0  0  0  0  0  0  0  0  0  0  0  0
   12.1440   21.5570   14.6720 C   0  0  0  0  0  0  0  0  0  0  0  0
   15.8810   17.2340   13.7340 C   0  0  0  0  0  0  0  0  0  0  0  0
   16.1940   16.7750   12.3070 C   0  0  0  0  0  0  0  0  0  0  0  0
   15.5010   15.5520   11.9520 N   0  0  0  0  0  0  0  0  0  0  0  0
   16.1640   14.3360   11.8260 C   0  0  0  0  0  0  0  0  0  0  0  0
   17.3400   14.2510   11.4840 O   0  0  0  0  0  0  0  0  0  0  0  0
   15.3930   13.0510   12.1580 C   0  0  1  0  0  0  0  0  0  0  0  0
   14.4090   13.3020   13.2740 C   0  0  2  0  0  0  0  0  0  0  0  0
   14.7440   12.3950   10.9530 C   0  0  0  0  0  0  0  0  0  0  0  0
   15.1200   13.6410   14.5760 C   0  0  0  0  0  0  0  0  0  0  0  0
   13.5180   12.1130   13.4530 N   0  0  0  0  0  0  0  0  0  0  0  0
   14.1310   11.0470   11.2090 C   0  0  0  0  0  0  0  0  0  0  0  0
   11.9710   12.5240   13.9360 S   0  0  0  0  0  0  0  0  0  0  0  0
   13.6840   10.8620   12.6470 C   0  0  0  0  0  0  0  0  0  0  0  0
   12.0160   13.9610   14.0750 O   0  0  0  0  0  0  0  0  0  0  0  0
   11.5630   11.6260   14.9860 O   0  0  0  0  0  0  0  0  0  0  0  0
   11.1010   12.1590   12.4570 C   0  0  0  0  0  0  0  0  0  0  0  0
  2  1  1  1
  2  3  1  0
  2  4  1  0
  3  5  1  0
  3  6  1  0
  4  7  2  0
  5  8  1  0
  6  9  2  0
  7  9  1  0
  8 10  1  0
 10 11  1  0
 11 12  1  0
 12 13  1  0
 13 14  2  0
 15 13  1  6
 15 16  1  0
 15 17  1  0
 16 18  1  1
 16 19  1  0
 17 20  1  0
 19 21  1  0
 19 22  1  0
 20 22  1  0
 21 23  2  0
 21 24  2  0
 21 25  1  0
M  END
