x0900_0_A-x0933_0_A
     RDKit          3D

  7  7  0  0  0  0  0  0  0  0999 V2000
   -7.0580   15.0560   -0.7460 O   0  0  0  0  0  0  0  0  0  0  0  0
   -5.9020   14.9310   -0.3770 C   0  0  0  0  0  0  0  0  0  0  0  0
   -4.7730   15.1520   -1.1450 N   0  0  0  0  0  0  0  0  0  0  0  0
   -5.4010   14.4960    0.9960 C   0  0  2  0  0  0  0  0  0  0  0  0
   -6.2890   14.8600    2.0890 N   0  0  0  0  0  0  0  0  0  0  0  0
   -4.0550   15.2150    1.0410 C   0  0  0  0  0  0  0  0  0  0  0  0
   -3.5870   14.9380   -0.3750 C   0  0  0  0  0  0  0  0  0  0  0  0
  1  2  2  0
  2  3  1  0
  2  4  1  0
  4  5  1  1
  4  6  1  0
  3  7  1  0
  6  7  1  0
M  END
