x0900_1_A-x0766_0_A
     RDKit          3D

 21 23  0  0  0  0  0  0  0  0999 V2000
   -0.8590    9.6300   -9.7780 O   0  0  0  0  0  0  0  0  0  0  0  0
   -0.9070    9.3310   -8.5970 C   0  0  0  0  0  0  0  0  0  0  0  0
    0.1080    9.4710   -7.6820 N   0  0  0  0  0  0  0  0  0  0  0  0
   -2.0830    8.7520   -7.8360 C   0  0  0  0  0  0  0  0  0  0  0  0
   -1.5530    8.7010   -6.3970 C   0  0  0  0  0  0  0  0  0  0  0  0
   -0.5060    9.8040   -6.4340 C   0  0  1  0  0  0  0  0  0  0  0  0
    0.3980    9.8780   -5.1920 C   0  0  0  0  0  0  0  0  0  0  0  0
   -0.2240   10.6720   -4.0450 C   0  0  0  0  0  0  0  0  0  0  0  0
    0.7830   11.0240   -3.0800 O   0  0  0  0  0  0  0  0  0  0  0  0
    0.7330   12.2380   -2.4540 C   0  0  0  0  0  0  0  0  0  0  0  0
    0.5570   12.4040   -1.2620 O   0  0  0  0  0  0  0  0  0  0  0  0
    0.9780   13.4600   -3.2940 C   0  0  1  0  0  0  0  0  0  0  0  0
    0.9300   13.4740   -4.8060 C   0  0  0  0  0  0  0  0  0  0  0  0
    0.2220   14.7430   -2.8390 C   0  0  1  0  0  0  0  0  0  0  0  0
    1.2440   14.9470   -4.9940 C   0  0  0  0  0  0  0  0  0  0  0  0
    0.2730   15.6510   -4.0640 C   0  0  0  0  0  0  0  0  0  0  0  0
   -1.1450   14.6770   -2.1570 C   0  0  0  0  0  0  0  0  0  0  0  0
   -2.3830   14.6400   -2.7960 C   0  0  0  0  0  0  0  0  0  0  0  0
   -1.3380   14.6610   -0.7330 C   0  0  0  0  0  0  0  0  0  0  0  0
   -2.6590   14.6200   -0.3540 C   0  0  0  0  0  0  0  0  0  0  0  0
   -3.7030   14.5970   -1.7030 S   0  0  0  0  0  0  0  0  0  0  0  0
  1  2  2  0
  2  3  1  0
  2  4  1  0
  4  5  1  0
  3  6  1  0
  5  6  1  0
  6  7  1  1
  7  8  1  0
  8  9  1  0
  9 10  1  0
 10 11  2  0
 12 10  1  1
 12 13  1  0
 12 14  1  0
 13 15  1  0
 14 16  1  0
 15 16  1  0
 14 17  1  6
 17 18  2  0
 17 19  1  0
 19 20  2  0
 18 21  1  0
 20 21  1  0
M  END
