x0905_0_A-x0282_0_A
     RDKit          3D

 13 14  0  0  0  0  0  0  0  0999 V2000
   -6.9730   14.7530   -0.5720 O   0  0  0  0  0  0  0  0  0  0  0  0
   -7.3930   14.0960    0.6240 C   0  0  0  0  0  0  0  0  0  0  0  0
   -5.6450   15.2710   -0.4950 C   0  0  1  0  0  0  0  0  0  0  0  0
   -5.1720   15.1610    0.8670 N   0  0  0  0  0  0  0  0  0  0  0  0
   -4.7690   14.4390   -1.3670 C   0  0  0  0  0  0  0  0  0  0  0  0
   -3.7780   15.6480    0.9970 C   0  0  0  0  0  0  0  0  0  0  0  0
   -3.4460   14.2920   -1.1390 C   0  0  0  0  0  0  0  0  0  0  0  0
   -2.7150   14.9770    0.0070 C   0  0  1  0  0  0  0  0  0  0  0  0
   -1.8740   15.9460   -0.6930 N   0  0  0  0  0  0  0  0  0  0  0  0
   -1.9470   13.9840    0.7870 N   0  0  0  0  0  0  0  0  0  0  0  0
   -0.5590   15.3730   -0.9990 C   0  0  0  0  0  0  0  0  0  0  0  0
   -0.6210   14.2330    1.1090 C   0  0  0  0  0  0  0  0  0  0  0  0
    0.1070   14.9230    0.2400 C   0  0  0  0  0  0  0  0  0  0  0  0
  1  2  1  0
  3  1  1  1
  3  4  1  0
  3  5  1  0
  4  6  1  0
  5  7  2  0
  8  6  1  1
  8  7  1  0
  8  9  1  0
  8 10  1  0
  9 11  1  0
 10 12  1  0
 11 13  1  0
 12 13  2  0
M  END
