x0905_1_B-x0737_0_B
     RDKit          3D

 25 26  0  0  0  0  0  0  0  0999 V2000
   14.2310   19.5360   11.7780 O   0  0  0  0  0  0  0  0  0  0  0  0
   13.1830   20.2450   12.3820 C   0  0  1  0  0  0  0  0  0  0  0  0
   12.7600   19.5770   13.6020 N   0  0  0  0  0  0  0  0  0  0  0  0
   13.6420   21.6340   12.7040 C   0  0  0  0  0  0  0  0  0  0  0  0
   13.5980   18.4610   14.0680 C   0  0  0  0  0  0  0  0  0  0  0  0
   12.0040   20.3360   14.4850 C   0  0  0  0  0  0  0  0  0  0  0  0
   13.1520   22.3130   13.7570 C   0  0  0  0  0  0  0  0  0  0  0  0
   15.0850   18.6030   13.6920 C   0  0  0  0  0  0  0  0  0  0  0  0
   12.1620   21.6650   14.5940 C   0  0  0  0  0  0  0  0  0  0  0  0
   15.8590   17.2780   13.7340 C   0  0  0  0  0  0  0  0  0  0  0  0
   16.2680   16.7600   12.3520 C   0  0  0  0  0  0  0  0  0  0  0  0
   15.5990   15.5170   12.0100 N   0  0  0  0  0  0  0  0  0  0  0  0
   16.2790   14.3020   11.9430 C   0  0  0  0  0  0  0  0  0  0  0  0
   17.4310   14.1990   11.5340 O   0  0  0  0  0  0  0  0  0  0  0  0
   15.5530   13.0470   12.4450 C   0  0  1  0  0  0  0  0  0  0  0  0
   14.1870   13.3740   13.0090 C   0  0  2  0  0  0  0  0  0  0  0  0
   15.5510   11.8340   11.5070 C   0  0  0  0  0  0  0  0  0  0  0  0
   14.3410   14.2120   14.2700 C   0  0  0  0  0  0  0  0  0  0  0  0
   13.4380   12.1070   13.3100 N   0  0  0  0  0  0  0  0  0  0  0  0
   14.1550   11.4910   11.0330 C   0  0  0  0  0  0  0  0  0  0  0  0
   11.9460   12.4990   13.9490 S   0  0  0  0  0  0  0  0  0  0  0  0
   13.3530   11.0740   12.2340 C   0  0  0  0  0  0  0  0  0  0  0  0
   12.0110   13.9300   14.1390 O   0  0  0  0  0  0  0  0  0  0  0  0
   11.6010   11.5590   14.9840 O   0  0  0  0  0  0  0  0  0  0  0  0
   11.0260   12.1710   12.4900 C   0  0  0  0  0  0  0  0  0  0  0  0
  2  1  1  1
  2  3  1  0
  2  4  1  0
  3  5  1  0
  3  6  1  0
  4  7  2  0
  5  8  1  0
  6  9  2  0
  7  9  1  0
  8 10  1  0
 10 11  1  0
 11 12  1  0
 12 13  1  0
 13 14  2  0
 15 13  1  6
 15 16  1  0
 15 17  1  0
 16 18  1  1
 16 19  1  0
 17 20  1  0
 19 21  1  0
 19 22  1  0
 20 22  1  0
 21 23  2  0
 21 24  2  0
 21 25  1  0
M  END
