x0900_0_A-x0905_0_A
     RDKit          3D

  6  6  0  0  0  0  0  0  0  0999 V2000
   -7.0060   15.0150   -0.6750 O   0  0  0  0  0  0  0  0  0  0  0  0
   -5.8530   14.9670   -0.2750 C   0  0  0  0  0  0  0  0  0  0  0  0
   -4.7250   15.1240   -1.0580 N   0  0  0  0  0  0  0  0  0  0  0  0
   -5.3830   14.7240    1.1410 C   0  0  0  0  0  0  0  0  0  0  0  0
   -3.9690   15.2940    1.0950 C   0  0  0  0  0  0  0  0  0  0  0  0
   -3.5420   14.8780   -0.2950 C   0  0  0  0  0  0  0  0  0  0  0  0
  1  2  2  0
  2  3  1  0
  2  4  1  0
  4  5  1  0
  3  6  1  0
  5  6  1  0
M  END
