x0905_0_B-x0933_1_A
     RDKit          3D

 17 18  0  0  0  0  0  0  0  0999 V2000
   13.6080   19.5360   12.2450 O   0  0  0  0  0  0  0  0  0  0  0  0
   13.0750   20.4610   13.1230 C   0  0  0  0  0  0  0  0  0  0  0  0
   12.2410   20.0260   14.0970 N   0  0  0  0  0  0  0  0  0  0  0  0
   13.4250   21.7750   12.9630 C   0  0  0  0  0  0  0  0  0  0  0  0
   11.7290   20.9930   14.9590 C   0  0  0  0  0  0  0  0  0  0  0  0
   12.8960   22.7260   13.8380 C   0  0  0  0  0  0  0  0  0  0  0  0
   12.0150   22.3880   14.8840 C   0  0  0  0  0  0  0  0  0  0  0  0
   11.5220   23.6220   15.7630 C   0  0  0  0  0  0  0  0  0  0  0  0
   10.4350   23.6810   16.9390 C   0  0  0  0  0  0  0  0  0  0  0  0
    9.3810   24.9050   16.8990 C   0  0  0  0  0  0  0  0  0  0  0  0
    7.8040   24.6580   17.0540 C   0  0  2  0  0  0  0  0  0  0  0  0
    6.8060   25.2220   15.9690 C   0  0  0  0  0  0  0  0  0  0  0  0
    7.2910   25.3050   18.3380 C   0  0  0  0  0  0  0  0  0  0  0  0
    5.4290   25.3950   16.3890 N   0  0  0  0  0  0  0  0  0  0  0  0
    5.8570   25.0460   18.5540 N   0  0  0  0  0  0  0  0  0  0  0  0
    5.2070   24.5340   17.4110 C   0  0  1  0  0  0  0  0  0  0  0  0
    3.8480   24.1680   17.5950 N   0  0  0  0  0  0  0  0  0  0  0  0
  1  2  1  0
  2  3  2  0
  2  4  1  0
  3  5  1  0
  4  6  2  0
  5  7  2  0
  6  7  1  0
  7  8  1  0
  8  9  1  0
  9 10  1  0
 11 10  1  6
 11 12  1  0
 11 13  1  0
 12 14  1  0
 13 15  1  0
 14 16  1  0
 15 16  1  0
 16 17  1  1
M  END
