x0900_0_A-x0905_0_A
     RDKit          3D

  6  6  0  0  0  0  0  0  0  0999 V2000
   -7.0130   15.0270   -0.6590 O   0  0  0  0  0  0  0  0  0  0  0  0
   -5.8620   14.9530   -0.2720 C   0  0  0  0  0  0  0  0  0  0  0  0
   -4.7380   15.0590   -1.0660 N   0  0  0  0  0  0  0  0  0  0  0  0
   -5.3870   14.7240    1.1440 C   0  0  0  0  0  0  0  0  0  0  0  0
   -3.9800   15.3050    1.0840 C   0  0  0  0  0  0  0  0  0  0  0  0
   -3.5470   14.8740   -0.3000 C   0  0  0  0  0  0  0  0  0  0  0  0
  1  2  2  0
  2  3  1  0
  2  4  1  0
  4  5  1  0
  3  6  1  0
  5  6  1  0
M  END
