x0900_1_A-x0864_0_A
     RDKit          3D

 18 19  0  0  0  0  0  0  0  0999 V2000
   -0.6610   10.0680   -9.9780 O   0  0  0  0  0  0  0  0  0  0  0  0
   -0.7510    9.1480   -9.1830 C   0  0  0  0  0  0  0  0  0  0  0  0
    0.3030    8.5610   -8.5080 N   0  0  0  0  0  0  0  0  0  0  0  0
   -2.0170    8.4590   -8.7860 C   0  0  0  0  0  0  0  0  0  0  0  0
   -1.6590    7.9030   -7.4160 C   0  0  1  0  0  0  0  0  0  0  0  0
   -0.1410    7.7360   -7.4110 C   0  0  0  0  0  0  0  0  0  0  0  0
   -2.1310    8.7220   -6.3810 O   0  0  0  0  0  0  0  0  0  0  0  0
   -1.4380    9.8660   -6.1170 C   0  0  0  0  0  0  0  0  0  0  0  0
   -2.0420   10.7140   -5.1400 C   0  0  0  0  0  0  0  0  0  0  0  0
   -0.2760   10.2120   -6.6990 C   0  0  0  0  0  0  0  0  0  0  0  0
   -1.4120   11.8160   -4.7460 C   0  0  0  0  0  0  0  0  0  0  0  0
    0.3870   11.4680   -6.3120 C   0  0  0  0  0  0  0  0  0  0  0  0
    1.4040   11.8510   -6.8800 O   0  0  0  0  0  0  0  0  0  0  0  0
   -0.1760   12.1640   -5.2620 N   0  0  0  0  0  0  0  0  0  0  0  0
    0.7550   12.8980   -4.4200 C   0  0  0  0  0  0  0  0  0  0  0  0
    0.8240   12.3330   -3.0090 C   0  0  0  0  0  0  0  0  0  0  0  0
    0.4910   11.0250   -2.9020 O   0  0  0  0  0  0  0  0  0  0  0  0
    1.1510   12.9930   -2.0400 O   0  0  0  0  0  0  0  0  0  0  0  0
  1  2  2  0
  2  3  1  0
  2  4  1  0
  4  5  1  0
  3  6  1  0
  5  6  1  0
  5  7  1  1
  7  8  1  0
  8  9  1  0
  8 10  2  0
  9 11  2  0
 10 12  1  0
 12 13  2  0
 11 14  1  0
 12 14  1  0
 14 15  1  0
 15 16  1  0
 16 17  1  0
 16 18  2  0
M  END
