x0900_0_A_α-x0631_0_A_β
     RDKit          3D

 20 21  0  0  0  0  0  0  0  0999 V2000
   -7.0560   14.9420   -0.6550 O   0  0  0  0  0  0  0  0  0  0  0  0
   -5.9050   14.7690   -0.2930 C   0  0  0  0  0  0  0  0  0  0  0  0
   -4.7730   14.6520   -1.0800 N   0  0  0  0  0  0  0  0  0  0  0  0
   -5.4300   14.6390    1.1280 C   0  0  0  0  0  0  0  0  0  0  0  0
   -4.5870   13.5890   -2.0580 C   0  0  0  0  0  0  0  0  0  0  0  0
   -4.0480   15.2810    1.0750 C   0  0  0  0  0  0  0  0  0  0  0  0
   -3.6580   15.2450   -0.3990 C   0  0  0  0  0  0  0  0  0  0  0  0
   -4.0770   12.2580   -1.4810 C   0  0  0  0  0  0  0  0  0  0  0  0
   -3.1370   11.4560   -2.3990 C   0  0  0  0  0  0  0  0  0  0  0  0
   -3.6880   11.0450   -3.7730 C   0  0  0  0  0  0  0  0  0  0  0  0
   -2.6860   10.2540   -4.6230 C   0  0  0  0  0  0  0  0  0  0  0  0
   -3.3100    9.1350   -5.4710 C   0  0  0  0  0  0  0  0  0  0  0  0
   -2.6680    8.9110   -6.8520 C   0  0  0  0  0  0  0  0  0  0  0  0
   -1.5920    7.8220   -6.8240 C   0  0  0  0  0  0  0  0  0  0  0  0
   -0.2160    8.4750   -6.7480 C   0  0  0  0  0  0  0  0  0  0  0  0
   -0.1530    9.5430   -7.7530 N   0  0  0  0  0  0  0  0  0  0  0  0
    0.7390    9.1990   -8.8320 N   0  0  0  0  0  0  0  0  0  0  0  0
    0.2490   10.8130   -7.2370 N   0  0  0  0  0  0  0  0  0  0  0  0
    1.0040   10.5080   -9.3810 C   0  0  0  0  0  0  0  0  0  0  0  0
    1.1780   11.3060   -8.1890 N   0  0  0  0  0  0  0  0  0  0  0  0
  1  2  2  0
  2  3  1  0
  2  4  1  0
  3  5  1  0
  4  6  1  0
  3  7  1  0
  6  7  1  0
  5  8  1  0
  8  9  1  0
  9 10  1  0
 10 11  1  0
 11 12  1  0
 12 13  1  0
 13 14  1  0
 14 15  1  0
 15 16  1  0
 16 17  1  0
 16 18  1  0
 17 19  1  0
 18 20  1  0
 19 20  1  0
M  END
