x0900_0_A-x0128_0_A
     RDKit          3D

 16 17  0  0  0  0  0  0  0  0999 V2000
   -7.2360   15.0070   -0.3090 O   0  0  0  0  0  0  0  0  0  0  0  0
   -6.0690   14.9230    0.0300 C   0  0  0  0  0  0  0  0  0  0  0  0
   -4.9910   15.1860   -0.7950 N   0  0  0  0  0  0  0  0  0  0  0  0
   -5.5280   14.5020    1.4090 C   0  0  2  0  0  0  0  0  0  0  0  0
   -6.1670   15.1110    2.5820 N   0  0  0  0  0  0  0  0  0  0  0  0
   -4.0670   14.9640    1.2960 C   0  0  0  0  0  0  0  0  0  0  0  0
   -3.7590   14.8160   -0.1790 C   0  0  0  0  0  0  0  0  0  0  0  0
   -7.5300   15.1220    2.9060 C   0  0  0  0  0  0  0  0  0  0  0  0
   -8.4300   15.1840    2.0740 O   0  0  0  0  0  0  0  0  0  0  0  0
   -7.6740   15.0830    4.2780 N   0  0  0  0  0  0  0  0  0  0  0  0
   -8.4440   15.9380    5.1220 C   0  0  0  0  0  0  0  0  0  0  0  0
   -9.1100   17.1020    4.7230 C   0  0  0  0  0  0  0  0  0  0  0  0
   -8.5550   15.5990    6.4760 C   0  0  0  0  0  0  0  0  0  0  0  0
   -9.8400   17.8940    5.5500 N   0  0  0  0  0  0  0  0  0  0  0  0
   -9.3000   16.4000    7.3460 C   0  0  0  0  0  0  0  0  0  0  0  0
   -9.9210   17.5300    6.8420 C   0  0  0  0  0  0  0  0  0  0  0  0
  1  2  2  0
  2  3  1  0
  2  4  1  0
  4  5  1  1
  4  6  1  0
  3  7  1  0
  6  7  1  0
  5  8  1  0
  8  9  2  0
  8 10  1  0
 10 11  1  0
 11 12  2  0
 11 13  1  0
 12 14  1  0
 13 15  2  0
 14 16  2  0
 15 16  1  0
M  END
