x0900_0_A-x0844_0_A
     RDKit          3D

  7  7  0  0  0  0  0  0  0  0999 V2000
   -6.6850   15.0080   -0.9180 O   0  0  0  0  0  0  0  0  0  0  0  0
   -5.5940   14.9600   -0.3620 C   0  0  0  0  0  0  0  0  0  0  0  0
   -4.3040   15.0820   -0.9000 N   0  0  0  0  0  0  0  0  0  0  0  0
   -5.3940   14.7370    1.1250 C   0  0  0  0  0  0  0  0  0  0  0  0
   -3.8470   14.8890   -2.6990 Br  0  0  0  0  0  0  0  0  0  0  0  0
   -4.0200   15.3560    1.3300 C   0  0  0  0  0  0  0  0  0  0  0  0
   -3.3180   14.8360    0.1080 C   0  0  0  0  0  0  0  0  0  0  0  0
  1  2  2  0
  2  3  1  0
  2  4  1  0
  3  5  1  0
  4  6  1  0
  3  7  1  0
  6  7  1  0
M  END
