x0900_0_A_α-x0438_0_A_α
     RDKit          3D

 14 15  0  0  0  0  0  0  0  0999 V2000
   -6.3040   16.1240   -0.9490 O   0  0  0  0  0  0  0  0  0  0  0  0
   -5.8480   14.9010   -0.4950 C   0  0  1  0  0  0  0  0  0  0  0  0
   -4.6760   14.6180   -1.2920 N   0  0  0  0  0  0  0  0  0  0  0  0
   -5.2610   14.9350    0.9780 C   0  0  2  0  0  0  0  0  0  0  0  0
   -7.0070   14.0590   -0.3520 N   0  0  0  0  0  0  0  0  0  0  0  0
   -3.8280   14.5520    0.8090 C   0  0  0  0  0  0  0  0  0  0  0  0
   -3.5690   14.4020   -0.4960 C   0  0  0  0  0  0  0  0  0  0  0  0
   -7.3680   14.2980    1.0240 C   0  0  2  0  0  0  0  0  0  0  0  0
   -6.1150   13.9780    1.7020 N   0  0  0  0  0  0  0  0  0  0  0  0
   -8.6150   13.7560    1.7020 C   0  0  0  0  0  0  0  0  0  0  0  0
   -9.4030   15.0990    2.5790 S   0  0  0  0  0  0  0  0  0  0  0  0
   -8.2500   15.4730    3.8850 C   0  0  0  0  0  0  0  0  0  0  0  0
  -10.6110   14.5820    3.1930 O   0  0  0  0  0  0  0  0  0  0  0  0
   -9.4650   16.2630    1.7140 O   0  0  0  0  0  0  0  0  0  0  0  0
  2  1  1  6
  2  3  1  0
  2  4  1  0
  2  5  1  0
  4  6  1  6
  3  7  1  0
  6  7  2  0
  5  8  1  0
  4  9  1  0
  8  9  1  0
  8 10  1  1
 11 10  1  0
 11 12  1  0
 11 13  2  0
 11 14  2  0
M  END
