x0905_1_B-x0423_0_B
     RDKit          3D

 14 15  0  0  0  0  0  0  0  0999 V2000
   14.8220   19.2020   12.0650 O   0  0  0  0  0  0  0  0  0  0  0  0
   14.0040   20.2570   12.4710 C   0  0  1  0  0  0  0  0  0  0  0  0
   12.8800   19.6710   13.0880 N   0  0  0  0  0  0  0  0  0  0  0  0
   14.6160   21.1690   13.5370 C   0  0  0  0  0  0  0  0  0  0  0  0
   11.9490   20.5790   13.4690 C   0  0  0  0  0  0  0  0  0  0  0  0
   13.7210   22.4290   13.6510 C   0  0  1  0  0  0  0  0  0  0  0  0
   12.2630   21.8830   13.7320 C   0  0  0  0  0  0  0  0  0  0  0  0
   13.9890   23.3120   14.9100 C   0  0  0  0  0  0  0  0  0  0  0  0
   14.1690   23.2830   12.4230 C   0  0  0  0  0  0  0  0  0  0  0  0
   14.3550   24.7770   14.5540 C   0  0  1  0  0  0  0  0  0  0  0  0
   15.5790   23.8880   12.6030 C   0  0  0  0  0  0  0  0  0  0  0  0
   14.2430   25.7290   15.6610 N   0  0  0  0  0  0  0  0  0  0  0  0
   15.6750   24.8190   13.8020 C   0  0  0  0  0  0  0  0  0  0  0  0
   13.1530   26.6880   15.5450 C   0  0  0  0  0  0  0  0  0  0  0  0
  2  1  1  1
  2  3  1  0
  2  4  1  0
  3  5  1  0
  6  4  1  1
  5  7  2  0
  6  7  1  0
  6  8  1  0
  6  9  1  0
  8 10  1  0
  9 11  1  0
 10 12  1  1
 10 13  1  0
 11 13  1  0
 12 14  1  0
M  END
