x0900_0_A-x0895_0_A
     RDKit          3D

  7  7  0  0  0  0  0  0  0  0999 V2000
   -6.8760   14.9750   -0.2300 O   0  0  0  0  0  0  0  0  0  0  0  0
   -5.6820   14.8210   -0.0340 C   0  0  0  0  0  0  0  0  0  0  0  0
   -4.7360   14.7310   -1.0110 N   0  0  0  0  0  0  0  0  0  0  0  0
   -4.9610   14.6800    1.2820 C   0  0  0  0  0  0  0  0  0  0  0  0
   -3.5130   14.8990    0.9000 C   0  0  0  0  0  0  0  0  0  0  0  0
   -3.4670   15.2200   -0.5760 C   0  0  0  0  0  0  0  0  0  0  0  0
   -2.4920   14.8310    1.6410 O   0  0  0  0  0  0  0  0  0  0  0  0
  1  2  2  0
  2  3  1  0
  2  4  1  0
  4  5  1  0
  3  6  1  0
  5  6  1  0
  5  7  2  0
M  END
