x0900_0_A-x0967_0_A
     RDKit          3D

 10 11  0  0  0  0  0  0  0  0999 V2000
   -6.3340   15.8720   -0.6680 O   0  0  0  0  0  0  0  0  0  0  0  0
   -5.9120   14.5620   -0.4390 C   0  0  1  0  0  0  0  0  0  0  0  0
   -4.6990   14.4780   -1.2040 N   0  0  0  0  0  0  0  0  0  0  0  0
   -5.2930   14.3660    1.0020 C   0  0  1  0  0  0  0  0  0  0  0  0
   -7.0990   13.7990   -0.6110 N   0  0  0  0  0  0  0  0  0  0  0  0
   -4.0510   15.2090    0.8290 C   0  0  0  0  0  0  0  0  0  0  0  0
   -3.7670   15.2090   -0.4910 C   0  0  0  0  0  0  0  0  0  0  0  0
   -6.2670   14.7860    2.0320 C   0  0  0  0  0  0  0  0  0  0  0  0
   -8.1000   14.1880    0.3920 C   0  0  0  0  0  0  0  0  0  0  0  0
   -7.5730   14.6920    1.7280 C   0  0  0  0  0  0  0  0  0  0  0  0
  2  1  1  1
  2  3  1  0
  2  4  1  0
  2  5  1  0
  4  6  1  6
  3  7  1  0
  6  7  2  0
  4  8  1  0
  5  9  1  0
  8 10  2  0
  9 10  1  0
M  END
