x0905_1_B_α-x0142_0_A_β
     RDKit          3D

 22 23  0  0  0  0  0  0  0  0999 V2000
   14.2230   19.4010   12.1230 O   0  0  0  0  0  0  0  0  0  0  0  0
   13.1440   20.2180   12.5250 C   0  0  1  0  0  0  0  0  0  0  0  0
   12.5560   19.6580   13.7360 N   0  0  0  0  0  0  0  0  0  0  0  0
   13.6430   21.6120   12.7790 C   0  0  0  0  0  0  0  0  0  0  0  0
   12.2390   18.2410   13.6080 C   0  0  0  0  0  0  0  0  0  0  0  0
   11.8960   20.5050   14.6020 C   0  0  0  0  0  0  0  0  0  0  0  0
   13.1730   22.3670   13.7840 C   0  0  0  0  0  0  0  0  0  0  0  0
   11.8430   17.4720   14.8620 C   0  0  0  0  0  0  0  0  0  0  0  0
   12.1570   21.8200   14.6590 C   0  0  0  0  0  0  0  0  0  0  0  0
   12.2470   15.9960   14.7670 C   0  0  0  0  0  0  0  0  0  0  0  0
   12.1640   15.1520   16.0400 C   0  0  0  0  0  0  0  0  0  0  0  0
   12.7210   13.7330   15.8700 C   0  0  0  0  0  0  0  0  0  0  0  0
   14.2220   13.6660   15.5240 C   0  0  0  0  0  0  0  0  0  0  0  0
   14.8150   12.2500   15.5470 C   0  0  0  0  0  0  0  0  0  0  0  0
   15.5950   12.0440   14.3560 O   0  0  0  0  0  0  0  0  0  0  0  0
   15.3620   10.8270   13.7640 C   0  0  0  0  0  0  0  0  0  0  0  0
   14.8280    9.7850   14.5210 C   0  0  0  0  0  0  0  0  0  0  0  0
   15.6580   10.6310   12.4140 C   0  0  0  0  0  0  0  0  0  0  0  0
   14.5880    8.5440   13.9230 C   0  0  0  0  0  0  0  0  0  0  0  0
   15.4160    9.3890   11.8240 C   0  0  0  0  0  0  0  0  0  0  0  0
   14.8800    8.3360   12.5690 C   0  0  0  0  0  0  0  0  0  0  0  0
   14.6380    7.0920   11.9730 N   0  0  0  0  0  0  0  0  0  0  0  0
  2  1  1  1
  2  3  1  0
  2  4  1  0
  3  5  1  0
  3  6  1  0
  4  7  2  0
  5  8  1  0
  6  9  2  0
  7  9  1  0
  8 10  1  0
 10 11  1  0
 11 12  1  0
 12 13  1  0
 13 14  1  0
 14 15  1  0
 15 16  1  0
 16 17  2  0
 16 18  1  0
 17 19  1  0
 18 20  2  0
 19 21  2  0
 20 21  1  0
 21 22  1  0
M  END
