x0900_0_A-x0626_0_A
     RDKit          3D

 16 17  0  0  0  0  0  0  0  0999 V2000
   -6.5090   14.7260   -0.0160 N   0  0  0  0  0  0  0  0  0  0  0  0
   -6.3570   14.4340    1.2240 C   0  0  0  0  0  0  0  0  0  0  0  0
   -5.0890   14.1830    1.7770 N   0  0  0  0  0  0  0  0  0  0  0  0
   -5.2700   14.7590   -0.6910 C   0  0  1  0  0  0  0  0  0  0  0  0
   -7.5300   14.3380    2.1930 C   0  0  0  0  0  0  0  0  0  0  0  0
   -5.1670   15.3520   -2.0020 N   0  0  0  0  0  0  0  0  0  0  0  0
   -4.4350   15.7440    0.0910 C   0  0  0  0  0  0  0  0  0  0  0  0
   -8.8190   14.6970    1.4700 C   0  0  0  0  0  0  0  0  0  0  0  0
   -3.1670   15.7290   -0.7210 C   0  0  0  0  0  0  0  0  0  0  0  0
   -3.6940   15.4350   -2.1250 C   0  0  0  0  0  0  0  0  0  0  0  0
   -3.8440   14.0210    1.1880 C   0  0  0  0  0  0  0  0  0  0  0  0
   -2.6880   14.5040    1.7030 N   0  0  0  0  0  0  0  0  0  0  0  0
   -3.6000   13.1820   -0.3060 S   0  0  0  0  0  0  0  0  0  0  0  0
   -1.9280   13.4910   -0.2600 C   0  0  0  0  0  0  0  0  0  0  0  0
   -1.6130   14.1970    0.8720 C   0  0  0  0  0  0  0  0  0  0  0  0
   -0.2460   14.6170    1.2160 C   0  0  0  0  0  0  0  0  0  0  0  0
  1  2  2  3
  2  3  1  0
  4  1  1  1
  2  5  1  0
  4  6  1  0
  4  7  1  0
  5  8  1  0
  7  9  1  0
  6 10  1  0
  9 10  1  0
  3 11  1  0
 11 12  2  0
 11 13  1  0
 13 14  1  0
 12 15  1  0
 14 15  2  0
 15 16  1  0
M  END
