x0900_1_A_α-x0895_1_A_α
     RDKit          3D

 18 19  0  0  0  0  0  0  0  0999 V2000
   -0.9570    9.9300   -9.5760 O   0  0  0  0  0  0  0  0  0  0  0  0
   -0.9280    9.5300   -8.4240 C   0  0  0  0  0  0  0  0  0  0  0  0
    0.0670    8.7560   -7.8760 N   0  0  0  0  0  0  0  0  0  0  0  0
   -1.9630    9.7820   -7.3500 C   0  0  0  0  0  0  0  0  0  0  0  0
   -1.4070    9.0780   -6.0940 C   0  0  1  0  0  0  0  0  0  0  0  0
   -0.3760    8.1190   -6.6760 C   0  0  0  0  0  0  0  0  0  0  0  0
   -0.8680   10.0110   -4.9580 C   0  0  0  0  0  0  0  0  0  0  0  0
   -1.8370   10.6820   -3.9460 C   0  0  0  0  0  0  0  0  0  0  0  0
   -1.2810   11.6410   -2.8590 C   0  0  0  0  0  0  0  0  0  0  0  0
   -2.1810   12.8780   -2.5970 C   0  0  0  0  0  0  0  0  0  0  0  0
   -1.8140   13.7120   -1.3420 C   0  0  0  0  0  0  0  0  0  0  0  0
   -2.9840   13.7950   -0.3540 C   0  0  2  0  0  0  0  0  0  0  0  0
   -4.0550   14.7100   -0.6560 N   0  0  0  0  0  0  0  0  0  0  0  0
   -2.6910   14.3990    1.0270 C   0  0  0  0  0  0  0  0  0  0  0  0
   -1.6090   14.5870    1.5790 O   0  0  0  0  0  0  0  0  0  0  0  0
   -3.9190   14.6930    1.5440 N   0  0  0  0  0  0  0  0  0  0  0  0
   -4.7880   14.8010    0.5060 C   0  0  0  0  0  0  0  0  0  0  0  0
   -5.9970   14.9400    0.5840 O   0  0  0  0  0  0  0  0  0  0  0  0
  1  2  2  0
  2  3  1  0
  2  4  1  0
  4  5  1  0
  3  6  1  0
  5  6  1  0
  5  7  1  1
  7  8  1  0
  8  9  1  0
  9 10  1  0
 10 11  1  0
 12 11  1  6
 12 13  1  0
 12 14  1  0
 14 15  2  0
 14 16  1  0
 13 17  1  0
 16 17  1  0
 17 18  2  0
M  END
