x0900_1_A-x1015_0_A
     RDKit          3D

 20 22  0  0  0  0  0  0  0  0999 V2000
   -0.9400   10.6190   -8.5000 N   0  0  0  0  0  0  0  0  0  0  0  0
   -0.5800    9.4180   -8.3740 C   0  0  0  0  0  0  0  0  0  0  0  0
   -0.2140    8.8110   -7.2020 N   0  0  0  0  0  0  0  0  0  0  0  0
   -0.9860   10.8500   -7.1480 C   0  0  0  0  0  0  0  0  0  0  0  0
   -0.5110    8.4110   -9.4370 C   0  0  0  0  0  0  0  0  0  0  0  0
   -0.1910   11.6350   -6.3010 C   0  0  0  0  0  0  0  0  0  0  0  0
   -2.0340   10.0990   -6.6340 C   0  0  0  0  0  0  0  0  0  0  0  0
   -1.1140    7.2780   -8.5800 C   0  0  0  0  0  0  0  0  0  0  0  0
   -0.3950    7.4010   -7.2440 C   0  0  0  0  0  0  0  0  0  0  0  0
   -2.3290   10.0890   -5.3050 C   0  0  0  0  0  0  0  0  0  0  0  0
   -0.4910   11.6260   -4.9130 C   0  0  0  0  0  0  0  0  0  0  0  0
    0.2180   12.3530   -3.9440 N   0  0  0  0  0  0  0  0  0  0  0  0
   -1.5610   10.8470   -4.4490 C   0  0  0  0  0  0  0  0  0  0  0  0
    0.1970   13.8070   -3.9450 C   0  0  1  0  0  0  0  0  0  0  0  0
    0.3350   11.8660   -2.6230 C   0  0  0  0  0  0  0  0  0  0  0  0
   -1.1720   14.4000   -4.2780 C   0  0  0  0  0  0  0  0  0  0  0  0
    0.2720   10.7000   -2.2080 O   0  0  0  0  0  0  0  0  0  0  0  0
    0.5270   12.9310   -1.7990 N   0  0  0  0  0  0  0  0  0  0  0  0
    0.5210   14.0940   -2.4890 C   0  0  0  0  0  0  0  0  0  0  0  0
    0.7540   15.1860   -2.0160 O   0  0  0  0  0  0  0  0  0  0  0  0
  1  2  2  3
  2  3  1  0
  1  4  1  0
  2  5  1  0
  4  6  2  0
  4  7  1  0
  5  8  1  0
  3  9  1  0
  8  9  1  0
  7 10  2  0
  6 11  1  0
 11 12  1  0
 10 13  1  0
 11 13  2  0
 12 14  1  0
 12 15  1  0
 14 16  1  1
 15 17  2  0
 15 18  1  0
 14 19  1  0
 18 19  1  0
 19 20  2  0
M  END
