x0900_0_A-x0471_0_A
     RDKit          3D

 16 17  0  0  0  0  0  0  0  0999 V2000
   -6.5570   16.0200   -1.0790 O   0  0  0  0  0  0  0  0  0  0  0  0
   -5.8050   14.9740   -0.5600 C   0  0  1  0  0  0  0  0  0  0  0  0
   -4.6040   14.7840   -1.3310 N   0  0  0  0  0  0  0  0  0  0  0  0
   -5.1620   15.2830    0.8320 C   0  0  2  0  0  0  0  0  0  0  0  0
   -6.7030   13.8760   -0.2950 N   0  0  0  0  0  0  0  0  0  0  0  0
   -3.8760   14.5350    0.7780 C   0  0  0  0  0  0  0  0  0  0  0  0
   -3.6120   14.2970   -0.5090 C   0  0  0  0  0  0  0  0  0  0  0  0
   -7.1060   13.9770    1.1180 C   0  0  1  0  0  0  0  0  0  0  0  0
   -6.1310   14.8080    1.8220 N   0  0  0  0  0  0  0  0  0  0  0  0
   -8.5930   14.3900    1.3650 C   0  0  0  0  0  0  0  0  0  0  0  0
   -9.0440   14.0670    2.7140 N   0  0  0  0  0  0  0  0  0  0  0  0
   -9.0370   15.0080    3.7270 C   0  0  0  0  0  0  0  0  0  0  0  0
   -9.2820   16.1950    3.5310 O   0  0  0  0  0  0  0  0  0  0  0  0
   -8.7070   14.4300    5.1020 C   0  0  0  0  0  0  0  0  0  0  0  0
   -9.8970   13.6390    5.6570 C   0  0  0  0  0  0  0  0  0  0  0  0
   -8.2930   15.5360    6.0710 C   0  0  0  0  0  0  0  0  0  0  0  0
  2  1  1  6
  2  3  1  0
  2  4  1  0
  2  5  1  0
  4  6  1  6
  3  7  1  0
  6  7  2  0
  5  8  1  0
  4  9  1  0
  8  9  1  0
  8 10  1  6
 10 11  1  0
 11 12  1  0
 12 13  2  0
 12 14  1  0
 14 15  1  0
 14 16  1  0
M  END
