x0900_0_A-x0895_0_A
     RDKit          3D

  7  7  0  0  0  0  0  0  0  0999 V2000
   -6.8870   14.9790   -0.2610 O   0  0  0  0  0  0  0  0  0  0  0  0
   -5.6940   14.8050   -0.0620 C   0  0  0  0  0  0  0  0  0  0  0  0
   -4.7470   14.6920   -1.0420 N   0  0  0  0  0  0  0  0  0  0  0  0
   -4.9720   14.6560    1.2550 C   0  0  0  0  0  0  0  0  0  0  0  0
   -3.5230   14.8750    0.8660 C   0  0  0  0  0  0  0  0  0  0  0  0
   -3.4680   15.1640   -0.6160 C   0  0  0  0  0  0  0  0  0  0  0  0
   -2.5070   14.8260    1.6100 O   0  0  0  0  0  0  0  0  0  0  0  0
  1  2  2  0
  2  3  1  0
  2  4  1  0
  4  5  1  0
  3  6  1  0
  5  6  1  0
  5  7  2  0
M  END
