x0905_0_B-x0737_0_B
     RDKit          3D

 25 26  0  0  0  0  0  0  0  0999 V2000
   14.1920   19.4980   11.8020 O   0  0  0  0  0  0  0  0  0  0  0  0
   13.1380   20.1720   12.4310 C   0  0  1  0  0  0  0  0  0  0  0  0
   12.7440   19.4850   13.6540 N   0  0  0  0  0  0  0  0  0  0  0  0
   13.5830   21.5640   12.7580 C   0  0  0  0  0  0  0  0  0  0  0  0
   13.5960   18.3710   14.1070 C   0  0  0  0  0  0  0  0  0  0  0  0
   11.9970   20.2250   14.5560 C   0  0  0  0  0  0  0  0  0  0  0  0
   13.1050   22.2220   13.8260 C   0  0  0  0  0  0  0  0  0  0  0  0
   15.0910   18.5500   13.7930 C   0  0  0  0  0  0  0  0  0  0  0  0
   12.1410   21.5550   14.6710 C   0  0  0  0  0  0  0  0  0  0  0  0
   15.8700   17.2300   13.7310 C   0  0  0  0  0  0  0  0  0  0  0  0
   16.1980   16.7760   12.3050 C   0  0  0  0  0  0  0  0  0  0  0  0
   15.5000   15.5570   11.9430 N   0  0  0  0  0  0  0  0  0  0  0  0
   16.1560   14.3360   11.8150 C   0  0  0  0  0  0  0  0  0  0  0  0
   17.3290   14.2420   11.4730 O   0  0  0  0  0  0  0  0  0  0  0  0
   15.3710   13.0610   12.1440 C   0  0  1  0  0  0  0  0  0  0  0  0
   14.3960   13.3170   13.2680 C   0  0  2  0  0  0  0  0  0  0  0  0
   14.7030   12.4230   10.9380 C   0  0  0  0  0  0  0  0  0  0  0  0
   15.0990   13.7080   14.5630 C   0  0  0  0  0  0  0  0  0  0  0  0
   13.5320   12.1190   13.4720 N   0  0  0  0  0  0  0  0  0  0  0  0
   14.0540   11.0910   11.1920 C   0  0  0  0  0  0  0  0  0  0  0  0
   11.9730   12.5310   13.9290 S   0  0  0  0  0  0  0  0  0  0  0  0
   13.6950   10.8750   12.6500 C   0  0  0  0  0  0  0  0  0  0  0  0
   12.0120   13.9710   14.0530 O   0  0  0  0  0  0  0  0  0  0  0  0
   11.5510   11.6440   14.9850 O   0  0  0  0  0  0  0  0  0  0  0  0
   11.1160   12.1590   12.4450 C   0  0  0  0  0  0  0  0  0  0  0  0
  2  1  1  1
  2  3  1  0
  2  4  1  0
  3  5  1  0
  3  6  1  0
  4  7  2  0
  5  8  1  0
  6  9  2  0
  7  9  1  0
  8 10  1  0
 10 11  1  0
 11 12  1  0
 12 13  1  0
 13 14  2  0
 15 13  1  6
 15 16  1  0
 15 17  1  0
 16 18  1  1
 16 19  1  0
 17 20  1  0
 19 21  1  0
 19 22  1  0
 20 22  1  0
 21 23  2  0
 21 24  2  0
 21 25  1  0
M  END
