x0905_0_A-x0438_0_A
     RDKit          3D

 15 16  0  0  0  0  0  0  0  0999 V2000
   -6.7760   16.1860   -0.9570 O   0  0  0  0  0  0  0  0  0  0  0  0
   -5.9860   15.0840   -0.6720 C   0  0  2  0  0  0  0  0  0  0  0  0
   -5.3720   15.1800    0.6520 N   0  0  0  0  0  0  0  0  0  0  0  0
   -4.9750   14.9250   -1.7580 C   0  0  0  0  0  0  0  0  0  0  0  0
   -6.9450   14.0530   -0.4080 N   0  0  0  0  0  0  0  0  0  0  0  0
   -4.0120   15.1310    0.8670 C   0  0  0  0  0  0  0  0  0  0  0  0
   -3.6460   14.8930   -1.5050 C   0  0  0  0  0  0  0  0  0  0  0  0
   -7.2330   14.2400    0.9510 C   0  0  0  0  0  0  0  0  0  0  0  0
   -6.3020   14.8620    1.6180 N   0  0  0  0  0  0  0  0  0  0  0  0
   -8.4900   13.7870    1.6120 C   0  0  0  0  0  0  0  0  0  0  0  0
   -3.1460   14.9970   -0.1390 C   0  0  0  0  0  0  0  0  0  0  0  0
   -9.2800   15.1120    2.5250 S   0  0  0  0  0  0  0  0  0  0  0  0
   -8.2010   15.4930    3.8990 C   0  0  0  0  0  0  0  0  0  0  0  0
  -10.4970   14.5670    3.0990 O   0  0  0  0  0  0  0  0  0  0  0  0
   -9.3820   16.2940    1.6910 O   0  0  0  0  0  0  0  0  0  0  0  0
  2  1  1  6
  2  3  1  0
  2  4  1  0
  2  5  1  0
  3  6  1  0
  4  7  2  0
  5  8  1  0
  3  9  1  0
  8  9  2  0
  8 10  1  0
  6 11  2  0
  7 11  1  0
 12 10  1  0
 12 13  1  0
 12 14  2  0
 12 15  2  0
M  END
