x0905_0_B_α-x0142_0_A_β
     RDKit          3D

 22 23  0  0  0  0  0  0  0  0999 V2000
   14.1240   19.2610   12.2870 O   0  0  0  0  0  0  0  0  0  0  0  0
   13.0220   20.0620   12.6330 C   0  0  1  0  0  0  0  0  0  0  0  0
   12.4550   19.6030   13.9060 N   0  0  0  0  0  0  0  0  0  0  0  0
   13.5280   21.4710   12.7460 C   0  0  0  0  0  0  0  0  0  0  0  0
   11.9620   18.2240   13.9590 C   0  0  0  0  0  0  0  0  0  0  0  0
   11.8930   20.5390   14.7500 C   0  0  0  0  0  0  0  0  0  0  0  0
   13.1320   22.3080   13.7170 C   0  0  0  0  0  0  0  0  0  0  0  0
   13.0650   17.2130   14.2880 C   0  0  0  0  0  0  0  0  0  0  0  0
   12.1830   21.8420   14.6980 C   0  0  0  0  0  0  0  0  0  0  0  0
   12.6850   15.7400   14.1160 C   0  0  0  0  0  0  0  0  0  0  0  0
   12.6030   14.9180   15.4040 C   0  0  0  0  0  0  0  0  0  0  0  0
   13.1990   13.5150   15.2770 C   0  0  0  0  0  0  0  0  0  0  0  0
   14.5180   13.3370   16.0480 C   0  0  0  0  0  0  0  0  0  0  0  0
   15.2710   12.0500   15.7190 C   0  0  0  0  0  0  0  0  0  0  0  0
   15.5570   12.0330   14.3120 O   0  0  0  0  0  0  0  0  0  0  0  0
   15.3390   10.8100   13.7270 C   0  0  0  0  0  0  0  0  0  0  0  0
   14.7770    9.7800   14.4810 C   0  0  0  0  0  0  0  0  0  0  0  0
   15.6770   10.6010   12.3920 C   0  0  0  0  0  0  0  0  0  0  0  0
   14.5550    8.5330   13.8900 C   0  0  0  0  0  0  0  0  0  0  0  0
   15.4520    9.3520   11.8080 C   0  0  0  0  0  0  0  0  0  0  0  0
   14.8900    8.3090   12.5510 C   0  0  0  0  0  0  0  0  0  0  0  0
   14.6660    7.0580   11.9600 N   0  0  0  0  0  0  0  0  0  0  0  0
  2  1  1  1
  2  3  1  0
  2  4  1  0
  3  5  1  0
  3  6  1  0
  4  7  2  0
  5  8  1  0
  6  9  2  0
  7  9  1  0
  8 10  1  0
 10 11  1  0
 11 12  1  0
 12 13  1  0
 13 14  1  0
 14 15  1  0
 15 16  1  0
 16 17  2  0
 16 18  1  0
 17 19  1  0
 18 20  2  0
 19 21  2  0
 20 21  1  0
 21 22  1  0
M  END
