x0905_1_B_α-x0729_1_B_α
     RDKit          3D

 25 26  0  0  0  0  0  0  0  0999 V2000
   14.2860   19.6380   11.7360 O   0  0  0  0  0  0  0  0  0  0  0  0
   13.6180   20.3360   12.6990 C   0  0  0  0  0  0  0  0  0  0  0  0
   12.5040   19.7060   13.0900 N   0  0  0  0  0  0  0  0  0  0  0  0
   14.0490   21.5620   13.2230 C   0  0  0  0  0  0  0  0  0  0  0  0
   15.3080   22.2830   12.8330 C   0  0  0  0  0  0  0  0  0  0  0  0
   11.7720   20.3010   14.0350 C   0  0  0  0  0  0  0  0  0  0  0  0
   13.2400   22.1470   14.2020 C   0  0  0  0  0  0  0  0  0  0  0  0
   15.1830   23.5200   11.9370 C   0  0  0  0  0  0  0  0  0  0  0  0
   12.0830   21.5110   14.6190 C   0  0  0  0  0  0  0  0  0  0  0  0
   16.4860   24.3320   11.8540 C   0  0  0  0  0  0  0  0  0  0  0  0
   17.0860   24.4820   10.4440 C   0  0  0  0  0  0  0  0  0  0  0  0
   17.9720   25.7260   10.3170 C   0  0  0  0  0  0  0  0  0  0  0  0
   18.0210   26.1400    8.9040 N   0  0  0  0  0  0  0  0  0  0  0  0
   18.7930   27.4130    8.5220 S   0  0  2  0  0  0  0  0  0  0  0  0
   19.4100   28.3270    9.4580 O   0  0  0  0  0  0  0  0  0  0  0  0
   17.7320   28.3670    7.4630 C   0  0  0  0  0  0  0  0  0  0  0  0
   20.1080   26.8310    7.5680 N   0  0  0  0  0  0  0  0  0  0  0  0
   21.4890   27.1100    7.9460 C   0  0  0  0  0  0  0  0  0  0  0  0
   19.9280   26.4290    6.1690 C   0  0  2  0  0  0  0  0  0  0  0  0
   19.8410   24.9030    6.1070 C   0  0  0  0  0  0  0  0  0  0  0  0
   22.1370   28.1820    7.0720 C   0  0  0  0  0  0  0  0  0  0  0  0
   20.9800   26.8910    5.1540 C   0  0  1  0  0  0  0  0  0  0  0  0
   20.3460   27.0620    3.8300 C   0  0  0  0  0  0  0  0  0  0  0  0
   21.7530   28.1340    5.5890 C   0  0  0  0  0  0  0  0  0  0  0  0
   19.8610   27.1670    2.7840 N   0  0  0  0  0  0  0  0  0  0  0  0
  1  2  1  0
  2  3  2  0
  2  4  1  0
  4  5  1  0
  3  6  1  0
  4  7  2  0
  5  8  1  0
  6  9  2  0
  7  9  1  0
  8 10  1  0
 10 11  1  0
 11 12  1  0
 12 13  1  0
 13 14  2  0
 14 15  2  0
 14 16  1  6
 14 17  1  0
 17 18  1  0
 17 19  1  0
 19 20  1  1
 18 21  1  0
 19 22  1  0
 22 23  1  6
 21 24  1  0
 22 24  1  0
 23 25  3  0
M  END
