x0900_0_A-x0722_0_A
     RDKit          3D

 17 18  0  0  0  0  0  0  0  0999 V2000
   -6.7160   14.1540   -0.5760 N   0  0  0  0  0  0  0  0  0  0  0  0
   -5.8530   13.2780   -0.2050 C   0  0  0  0  0  0  0  0  0  0  0  0
   -6.3060   12.3480    0.6860 N   0  0  0  0  0  0  0  0  0  0  0  0
   -6.2850   15.1900   -1.4610 C   0  0  2  0  0  0  0  0  0  0  0  0
   -4.3910   13.1650   -0.6610 C   0  0  0  0  0  0  0  0  0  0  0  0
   -5.3390   14.7690   -2.5000 N   0  0  0  0  0  0  0  0  0  0  0  0
   -5.4500   15.9580   -0.4940 C   0  0  0  0  0  0  0  0  0  0  0  0
   -4.0700   15.4420   -0.6500 C   0  0  0  0  0  0  0  0  0  0  0  0
   -3.9840   15.2050   -2.1310 C   0  0  0  0  0  0  0  0  0  0  0  0
   -3.3120   13.9210    0.0760 C   0  0  0  0  0  0  0  0  0  0  0  0
   -3.3580   14.8750    1.1460 C   0  0  0  0  0  0  0  0  0  0  0  0
   -1.9530   13.8220   -0.1860 C   0  0  0  0  0  0  0  0  0  0  0  0
   -4.4740   15.4750    1.8760 C   0  0  0  0  0  0  0  0  0  0  0  0
   -1.1920   13.0420   -1.1840 C   0  0  0  0  0  0  0  0  0  0  0  0
   -2.1540   15.2660    1.4990 N   0  0  0  0  0  0  0  0  0  0  0  0
   -1.3330   14.6330    0.7010 N   0  0  0  0  0  0  0  0  0  0  0  0
    0.0630   14.8670    0.8540 C   0  0  0  0  0  0  0  0  0  0  0  0
  1  2  2  3
  2  3  1  0
  4  1  1  1
  2  5  1  0
  4  6  1  0
  4  7  1  0
  7  8  1  0
  6  9  1  0
  8  9  1  0
  5 10  1  0
 10 11  1  0
 10 12  2  0
 11 13  1  0
 12 14  1  0
 11 15  2  0
 12 16  1  0
 15 16  1  0
 16 17  1  0
M  END
