x0905_1_B_α-x0792_0_A_α
     RDKit          3D

 18 19  0  0  0  0  0  0  0  0999 V2000
   14.1160   19.4660   11.8040 O   0  0  0  0  0  0  0  0  0  0  0  0
   13.8270   20.2470   12.8780 C   0  0  0  0  0  0  0  0  0  0  0  0
   12.8910   19.8020   13.7380 N   0  0  0  0  0  0  0  0  0  0  0  0
   14.5100   21.4360   13.0120 C   0  0  0  0  0  0  0  0  0  0  0  0
   12.6340   20.6250   14.7990 C   0  0  0  0  0  0  0  0  0  0  0  0
   14.2130   22.2480   14.0930 C   0  0  0  0  0  0  0  0  0  0  0  0
   11.6280   20.2050   15.8080 C   0  0  0  0  0  0  0  0  0  0  0  0
   13.2610   21.8370   14.9980 C   0  0  0  0  0  0  0  0  0  0  0  0
   11.3530   21.2520   16.8920 C   0  0  0  0  0  0  0  0  0  0  0  0
    9.9530   21.3320   17.2160 O   0  0  0  0  0  0  0  0  0  0  0  0
    9.7370   21.9520   18.4880 C   0  0  0  0  0  0  0  0  0  0  0  0
    9.0470   23.3600   18.5000 C   0  0  1  0  0  0  0  0  0  0  0  0
    8.6430   24.0770   17.2190 C   0  0  0  0  0  0  0  0  0  0  0  0
    7.9310   23.4470   19.5070 C   0  0  0  0  0  0  0  0  0  0  0  0
    7.1130   24.6710   19.4960 N   0  0  0  0  0  0  0  0  0  0  0  0
    8.2600   25.5400   17.4250 C   0  0  1  0  0  0  0  0  0  0  0  0
    7.5800   26.1540   16.2310 C   0  0  0  0  0  0  0  0  0  0  0  0
    7.3780   25.7850   18.6100 C   0  0  0  0  0  0  0  0  0  0  0  0
  1  2  1  0
  2  3  2  0
  2  4  1  0
  3  5  1  0
  4  6  2  0
  5  7  1  0
  5  8  2  0
  6  8  1  0
  7  9  1  0
  9 10  1  0
 10 11  1  0
 12 11  1  6
 12 13  1  0
 12 14  1  0
 14 15  1  0
 13 16  1  0
 16 17  1  6
 15 18  1  0
 16 18  1  0
M  END
