x0905_1_B_α-x0423_0_B_α
     RDKit          3D

 14 15  0  0  0  0  0  0  0  0999 V2000
   14.8440   19.1970   12.1240 O   0  0  0  0  0  0  0  0  0  0  0  0
   14.0300   20.2630   12.5070 C   0  0  1  0  0  0  0  0  0  0  0  0
   12.8910   19.6840   13.1010 N   0  0  0  0  0  0  0  0  0  0  0  0
   14.6280   21.1810   13.5790 C   0  0  0  0  0  0  0  0  0  0  0  0
   11.9570   20.5990   13.4690 C   0  0  0  0  0  0  0  0  0  0  0  0
   13.7340   22.4450   13.6580 C   0  0  1  0  0  0  0  0  0  0  0  0
   12.2780   21.9060   13.7300 C   0  0  0  0  0  0  0  0  0  0  0  0
   14.0080   23.3650   14.8950 C   0  0  0  0  0  0  0  0  0  0  0  0
   14.1860   23.2660   12.4100 C   0  0  0  0  0  0  0  0  0  0  0  0
   14.3750   24.8130   14.4840 C   0  0  1  0  0  0  0  0  0  0  0  0
   15.5950   23.8690   12.5600 C   0  0  0  0  0  0  0  0  0  0  0  0
   14.2420   25.8260   15.5380 N   0  0  0  0  0  0  0  0  0  0  0  0
   15.6990   24.8290   13.7380 C   0  0  0  0  0  0  0  0  0  0  0  0
   13.1060   26.7220   15.3930 C   0  0  0  0  0  0  0  0  0  0  0  0
  2  1  1  1
  2  3  1  0
  2  4  1  0
  3  5  1  0
  6  4  1  1
  5  7  2  0
  6  7  1  0
  6  8  1  0
  6  9  1  0
  8 10  1  0
  9 11  1  0
 10 12  1  1
 10 13  1  0
 11 13  1  0
 12 14  1  0
M  END
