x0905_0_A-x0950_0_A
     RDKit          3D

 16 16  0  0  0  0  0  0  0  0999 V2000
   -6.9190   15.2350   -0.7530 O   0  0  0  0  0  0  0  0  0  0  0  0
   -5.5840   15.1540   -0.5390 C   0  0  0  0  0  0  0  0  0  0  0  0
   -5.2580   14.9800    0.7450 N   0  0  0  0  0  0  0  0  0  0  0  0
   -4.6860   15.2440   -1.5800 C   0  0  0  0  0  0  0  0  0  0  0  0
   -3.9370   14.8860    1.0170 C   0  0  0  0  0  0  0  0  0  0  0  0
   -3.3270   15.1380   -1.2690 C   0  0  0  0  0  0  0  0  0  0  0  0
   -2.9270   14.9500    0.0660 C   0  0  0  0  0  0  0  0  0  0  0  0
   -1.4770   14.8100    0.5070 C   0  0  0  0  0  0  0  0  0  0  0  0
   -0.8280   13.5610   -0.0650 C   0  0  0  0  0  0  0  0  0  0  0  0
    0.0520   13.7860   -1.2930 C   0  0  0  0  0  0  0  0  0  0  0  0
    0.7880   12.5680   -1.5070 O   0  0  0  0  0  0  0  0  0  0  0  0
    0.7330   12.0020   -2.7590 C   0  0  0  0  0  0  0  0  0  0  0  0
    1.3250   12.8750   -3.8810 C   0  0  1  0  0  0  0  0  0  0  0  0
    0.2630   10.8910   -2.9780 O   0  0  0  0  0  0  0  0  0  0  0  0
    2.8460   12.9390   -3.8330 C   0  0  0  0  0  0  0  0  0  0  0  0
    0.9510   12.3720   -5.1680 O   0  0  0  0  0  0  0  0  0  0  0  0
  1  2  1  0
  2  3  2  0
  2  4  1  0
  3  5  1  0
  4  6  2  0
  5  7  2  0
  6  7  1  0
  7  8  1  0
  8  9  1  0
  9 10  1  0
 10 11  1  0
 11 12  1  0
 12 13  1  0
 12 14  2  0
 13 15  1  6
 13 16  1  0
M  END
