x0905_0_B_α-x0822_0_A_α
     RDKit          3D

 27 29  0  0  0  0  0  0  0  0999 V2000
   13.6320   19.8360   11.7810 O   0  0  0  0  0  0  0  0  0  0  0  0
   13.1420   20.4880   12.8730 C   0  0  0  0  0  0  0  0  0  0  0  0
   12.3690   19.7380   13.6680 N   0  0  0  0  0  0  0  0  0  0  0  0
   13.4500   21.8160   13.0920 C   0  0  0  0  0  0  0  0  0  0  0  0
   11.8710   20.3650   14.7690 C   0  0  0  0  0  0  0  0  0  0  0  0
   12.9210   22.4340   14.2320 C   0  0  0  0  0  0  0  0  0  0  0  0
   12.1050   21.7090   15.1180 C   0  0  0  0  0  0  0  0  0  0  0  0
   11.4980   22.3140   16.4040 C   0  0  0  0  0  0  0  0  0  0  0  0
   11.1240   23.8310   16.4210 C   0  0  0  0  0  0  0  0  0  0  0  0
    9.9530   24.2310   17.3950 C   0  0  0  0  0  0  0  0  0  0  0  0
    8.7470   24.9760   16.7430 C   0  0  0  0  0  0  0  0  0  0  0  0
    7.7660   25.8500   17.5670 C   0  0  0  0  0  0  0  0  0  0  0  0
    6.3240   25.6180   17.2070 N   0  0  0  0  0  0  0  0  0  0  0  0
    6.0600   25.9080   15.7930 C   0  0  0  0  0  0  0  0  0  0  0  0
    5.3830   26.2350   18.1640 C   0  0  0  0  0  0  0  0  0  0  0  0
    3.8810   26.1830   17.7950 C   0  0  2  0  0  0  0  0  0  0  0  0
    4.6420   26.3440   15.3920 C   0  0  0  0  0  0  0  0  0  0  0  0
    3.3350   24.8190   17.7000 N   0  0  0  0  0  0  0  0  0  0  0  0
    3.7970   26.9850   16.4920 C   0  0  1  0  0  0  0  0  0  0  0  0
    2.3870   27.3730   16.0860 C   0  0  0  0  0  0  0  0  0  0  0  0
    1.9380   28.6670   16.3650 C   0  0  0  0  0  0  0  0  0  0  0  0
    1.5090   26.4800   15.4370 C   0  0  0  0  0  0  0  0  0  0  0  0
    0.6530   29.0680   16.0110 C   0  0  0  0  0  0  0  0  0  0  0  0
    0.2150   26.8790   15.0830 C   0  0  0  0  0  0  0  0  0  0  0  0
   -0.5370   25.9150   14.4660 O   0  0  0  0  0  0  0  0  0  0  0  0
   -0.2090   28.1740   15.3700 C   0  0  0  0  0  0  0  0  0  0  0  0
   -1.9120   26.2200   14.2430 C   0  0  0  0  0  0  0  0  0  0  0  0
  1  2  1  0
  2  3  2  0
  2  4  1  0
  3  5  1  0
  4  6  2  0
  5  7  2  0
  6  7  1  0
  7  8  1  0
  8  9  1  0
  9 10  1  0
 10 11  1  0
 11 12  1  0
 12 13  1  0
 13 14  1  0
 13 15  1  0
 15 16  1  0
 14 17  1  0
 16 18  1  6
 16 19  1  0
 17 19  1  0
 19 20  1  6
 20 21  2  0
 20 22  1  0
 21 23  1  0
 22 24  2  0
 24 25  1  0
 23 26  2  0
 24 26  1  0
 25 27  1  0
M  END
