x0900_1_A_α-x0438_0_A_α
     RDKit          3D

 25 27  0  0  0  0  0  0  0  0999 V2000
   -1.0230   10.1210   -9.5350 O   0  0  0  0  0  0  0  0  0  0  0  0
   -0.9030    9.7450   -8.3810 C   0  0  0  0  0  0  0  0  0  0  0  0
    0.0970    8.9310   -7.9130 N   0  0  0  0  0  0  0  0  0  0  0  0
   -1.8070   10.0630   -7.1980 C   0  0  2  0  0  0  0  0  0  0  0  0
   -1.3520   11.3270   -6.4130 C   0  0  0  0  0  0  0  0  0  0  0  0
   -1.6500    8.7650   -6.3650 C   0  0  0  0  0  0  0  0  0  0  0  0
   -0.3750    8.0900   -6.8590 C   0  0  0  0  0  0  0  0  0  0  0  0
   -2.5270   12.1360   -5.8030 C   0  0  0  0  0  0  0  0  0  0  0  0
   -2.1500   13.3100   -4.8580 C   0  0  0  0  0  0  0  0  0  0  0  0
   -3.3040   14.1400   -4.2240 C   0  0  0  0  0  0  0  0  0  0  0  0
   -2.9650   15.1730   -3.1060 C   0  0  0  0  0  0  0  0  0  0  0  0
   -3.7620   15.0240   -1.8090 C   0  0  0  0  0  0  0  0  0  0  0  0
   -5.1540   14.8650   -1.8870 C   0  0  0  0  0  0  0  0  0  0  0  0
   -3.1400   15.0280   -0.5380 C   0  0  0  0  0  0  0  0  0  0  0  0
   -5.8600   14.6960   -0.6970 C   0  0  0  0  0  0  0  0  0  0  0  0
   -3.8780   14.8680    0.6520 C   0  0  0  0  0  0  0  0  0  0  0  0
   -7.1940   14.4950   -0.4500 N   0  0  0  0  0  0  0  0  0  0  0  0
   -5.2700   14.6910    0.5560 C   0  0  0  0  0  0  0  0  0  0  0  0
   -7.3770   14.3620    0.9070 C   0  0  0  0  0  0  0  0  0  0  0  0
   -6.2220   14.4930    1.5350 N   0  0  0  0  0  0  0  0  0  0  0  0
   -8.7130   14.0880    1.5140 C   0  0  0  0  0  0  0  0  0  0  0  0
   -9.3400   15.3780    2.5730 S   0  0  0  0  0  0  0  0  0  0  0  0
   -8.1360   15.5620    3.8790 C   0  0  0  0  0  0  0  0  0  0  0  0
  -10.5550   14.8660    3.1830 O   0  0  0  0  0  0  0  0  0  0  0  0
   -9.4220   16.5850    1.7810 O   0  0  0  0  0  0  0  0  0  0  0  0
  1  2  2  0
  2  3  1  0
  2  4  1  0
  4  5  1  1
  4  6  1  0
  3  7  1  0
  6  7  1  0
  5  8  1  0
  8  9  1  0
  9 10  1  0
 10 11  1  0
 11 12  1  0
 12 13  2  0
 12 14  1  0
 13 15  1  0
 14 16  2  0
 15 17  1  0
 15 18  2  0
 16 18  1  0
 17 19  1  0
 18 20  1  0
 19 20  2  0
 19 21  1  0
 22 21  1  0
 22 23  1  0
 22 24  2  0
 22 25  2  0
M  END
