x0905_0_B_α-x0933_1_A_α
     RDKit          3D

 17 18  0  0  0  0  0  0  0  0999 V2000
   13.5960   19.5490   12.2640 O   0  0  0  0  0  0  0  0  0  0  0  0
   13.0650   20.4850   13.1340 C   0  0  0  0  0  0  0  0  0  0  0  0
   12.2230   20.0600   14.1060 N   0  0  0  0  0  0  0  0  0  0  0  0
   13.4210   21.7950   12.9690 C   0  0  0  0  0  0  0  0  0  0  0  0
   11.7090   21.0380   14.9620 C   0  0  0  0  0  0  0  0  0  0  0  0
   12.8920   22.7560   13.8340 C   0  0  0  0  0  0  0  0  0  0  0  0
   12.0040   22.4370   14.8820 C   0  0  0  0  0  0  0  0  0  0  0  0
   11.5130   23.6840   15.7530 C   0  0  0  0  0  0  0  0  0  0  0  0
   10.4520   23.7550   16.9560 C   0  0  0  0  0  0  0  0  0  0  0  0
    9.4320   25.0140   16.9820 C   0  0  0  0  0  0  0  0  0  0  0  0
    7.8450   24.7710   17.0690 C   0  0  2  0  0  0  0  0  0  0  0  0
    6.8550   25.6320   16.1650 C   0  0  0  0  0  0  0  0  0  0  0  0
    7.3510   25.0060   18.4890 C   0  0  0  0  0  0  0  0  0  0  0  0
    5.4480   25.5900   16.5480 N   0  0  0  0  0  0  0  0  0  0  0  0
    5.9120   24.7770   18.6020 N   0  0  0  0  0  0  0  0  0  0  0  0
    5.2730   24.5170   17.3540 C   0  0  1  0  0  0  0  0  0  0  0  0
    3.9400   24.0230   17.4600 N   0  0  0  0  0  0  0  0  0  0  0  0
  1  2  1  0
  2  3  2  0
  2  4  1  0
  3  5  1  0
  4  6  2  0
  5  7  2  0
  6  7  1  0
  7  8  1  0
  8  9  1  0
  9 10  1  0
 11 10  1  1
 11 12  1  0
 11 13  1  0
 12 14  1  0
 13 15  1  0
 14 16  1  0
 15 16  1  0
 16 17  1  1
M  END
