x0905_0_A-x0685_1_A
     RDKit          3D

 22 23  0  0  0  0  0  0  0  0999 V2000
   -7.0000   15.3470   -0.5570 O   0  0  0  0  0  0  0  0  0  0  0  0
   -5.6530   15.1870   -0.5430 C   0  0  0  0  0  0  0  0  0  0  0  0
   -5.1540   14.9370    0.6750 N   0  0  0  0  0  0  0  0  0  0  0  0
   -4.9270   15.2800   -1.7020 C   0  0  0  0  0  0  0  0  0  0  0  0
   -3.8080   14.7500    0.7300 C   0  0  0  0  0  0  0  0  0  0  0  0
   -3.5540   15.0870   -1.6190 C   0  0  0  0  0  0  0  0  0  0  0  0
   -2.9610   14.8080   -0.3830 C   0  0  0  0  0  0  0  0  0  0  0  0
   -1.4650   14.5680   -0.2720 C   0  0  0  0  0  0  0  0  0  0  0  0
   -1.0410   13.2850   -0.9890 C   0  0  0  0  0  0  0  0  0  0  0  0
    0.2130   13.3690   -1.6640 O   0  0  0  0  0  0  0  0  0  0  0  0
    0.6890   12.2250   -2.7020 S   0  0  0  0  0  0  0  0  0  0  0  0
   -0.0660   12.6240   -4.2750 C   0  0  0  0  0  0  0  0  0  0  0  0
    2.2660   12.3150   -2.9660 O   0  0  0  0  0  0  0  0  0  0  0  0
    0.2490   10.7130   -2.3270 O   0  0  0  0  0  0  0  0  0  0  0  0
   -1.4430   11.9910   -4.4680 C   0  0  0  0  0  0  0  0  0  0  0  0
   -1.4360   10.5930   -4.9210 N   0  0  0  0  0  0  0  0  0  0  0  0
   -0.7740   10.3690   -6.2170 C   0  0  0  0  0  0  0  0  0  0  0  0
   -0.5930    8.8530   -6.4470 C   0  0  0  0  0  0  0  0  0  0  0  0
   -1.5910   11.0110   -7.3630 C   0  0  0  0  0  0  0  0  0  0  0  0
    0.0730    8.5790   -7.7840 C   0  0  0  0  0  0  0  0  0  0  0  0
   -1.0030   10.7030   -8.7340 C   0  0  0  0  0  0  0  0  0  0  0  0
   -0.7410    9.2030   -8.9230 C   0  0  0  0  0  0  0  0  0  0  0  0
  1  2  1  0
  2  3  2  0
  2  4  1  0
  3  5  1  0
  4  6  2  0
  5  7  2  0
  6  7  1  0
  7  8  1  0
  8  9  1  0
  9 10  1  0
 11 10  1  0
 11 12  1  0
 11 13  1  0
 11 14  1  0
 12 15  1  0
 15 16  1  0
 16 17  1  0
 17 18  1  0
 17 19  1  0
 18 20  1  0
 19 21  1  0
 20 22  1  0
 21 22  1  0
M  END
