x0900_0_A-x0962_2_B
     RDKit          3D

 16 17  0  0  0  0  0  0  0  0999 V2000
   -6.6360   15.3650   -1.3360 O   0  0  0  0  0  0  0  0  0  0  0  0
   -5.6210   15.2100   -0.6850 C   0  0  0  0  0  0  0  0  0  0  0  0
   -4.3390   15.2880   -1.1730 N   0  0  0  0  0  0  0  0  0  0  0  0
   -5.5250   14.8700    0.7840 C   0  0  1  0  0  0  0  0  0  0  0  0
   -6.8340   14.2400    1.2670 C   0  0  0  0  0  0  0  0  0  0  0  0
   -4.2110   14.0950    0.8150 C   0  0  0  0  0  0  0  0  0  0  0  0
   -3.3820   14.8390   -0.2110 C   0  0  0  0  0  0  0  0  0  0  0  0
   -8.0120   14.5220    0.2950 C   0  0  0  0  0  0  0  0  0  0  0  0
   -9.4430   14.2100    0.7800 C   0  0  0  0  0  0  0  0  0  0  0  0
  -10.0340   15.2520    1.7530 C   0  0  2  0  0  0  0  0  0  0  0  0
  -10.1370   16.5640    1.1120 N   0  0  0  0  0  0  0  0  0  0  0  0
   -9.2170   15.2860    2.9880 C   0  0  0  0  0  0  0  0  0  0  0  0
   -9.1240   16.3430    3.8650 N   0  0  0  0  0  0  0  0  0  0  0  0
   -8.4010   14.3200    3.5270 C   0  0  0  0  0  0  0  0  0  0  0  0
   -8.2720   15.9620    4.8640 C   0  0  0  0  0  0  0  0  0  0  0  0
   -7.8260   14.7440    4.6830 N   0  0  0  0  0  0  0  0  0  0  0  0
  1  2  2  0
  2  3  1  0
  2  4  1  0
  4  5  1  6
  4  6  1  0
  3  7  1  0
  6  7  1  0
  5  8  1  0
  8  9  1  0
  9 10  1  0
 10 11  1  6
 10 12  1  0
 12 13  1  0
 12 14  2  0
 13 15  1  0
 14 16  1  0
 15 16  2  0
M  END
