x0900_1_A_α-5CMS_0_N_β
     RDKit          3D

 20 20  0  0  0  0  0  0  0  0999 V2000
   -0.9860   10.1040   -9.5370 O   0  0  0  0  0  0  0  0  0  0  0  0
   -0.7950    9.7040   -8.3630 C   0  0  0  0  0  0  0  0  0  0  0  0
    0.1540    8.7960   -7.9070 N   0  0  0  0  0  0  0  0  0  0  0  0
   -1.5730   10.1110   -7.0940 C   0  0  2  0  0  0  0  0  0  0  0  0
   -0.7290   10.9870   -6.2540 C   0  0  0  0  0  0  0  0  0  0  0  0
   -1.7420    8.6850   -6.5730 C   0  0  0  0  0  0  0  0  0  0  0  0
   -0.3430    8.0760   -6.7480 C   0  0  0  0  0  0  0  0  0  0  0  0
   -1.3060   12.0320   -5.3420 C   0  0  0  0  0  0  0  0  0  0  0  0
   -1.0950   13.4440   -5.9130 C   0  0  0  0  0  0  0  0  0  0  0  0
   -1.5810   14.5800   -5.1090 C   0  0  0  0  0  0  0  0  0  0  0  0
   -0.5240   15.6680   -4.7160 C   0  0  0  0  0  0  0  0  0  0  0  0
   -0.4900   16.6580   -5.7870 O   0  0  0  0  0  0  0  0  0  0  0  0
   -1.7480   17.7280   -5.8290 P   0  0  0  0  0  0  0  0  0  0  0  0
   -0.9970   18.8930   -6.4370 O   0  0  0  0  0  0  0  0  0  0  0  0
   -2.8740   17.8200   -6.9630 O   0  0  0  0  0  0  0  0  0  0  0  0
   -1.8840   18.6860   -4.4620 O   0  0  0  0  0  0  0  0  0  0  0  0
   -0.6880   19.4290   -7.8600 P   0  0  0  0  0  0  0  0  0  0  0  0
   -1.4380   20.8100   -8.4690 O   0  0  0  0  0  0  0  0  0  0  0  0
    0.5540   20.2250   -7.5310 O   0  0  0  0  0  0  0  0  0  0  0  0
    0.1850   18.5280   -8.9310 O   0  0  0  0  0  0  0  0  0  0  0  0
  1  2  2  0
  2  3  1  0
  2  4  1  0
  4  5  1  1
  4  6  1  0
  3  7  1  0
  6  7  1  0
  5  8  1  0
  8  9  1  0
  9 10  1  0
 10 11  1  0
 11 12  1  0
 12 13  1  0
 13 14  1  0
 13 15  1  0
 13 16  1  0
 14 17  1  0
 17 18  1  0
 17 19  1  0
 17 20  1  0
M  CHG  2  15  -1  19  -1
M  END
