x0900_0_A-x0421_0_A
     RDKit          3D

 11 12  0  0  0  0  0  0  0  0999 V2000
   -7.4630   15.3430   -0.9170 O   0  0  0  0  0  0  0  0  0  0  0  0
   -6.3340   15.0150   -0.6310 C   0  0  0  0  0  0  0  0  0  0  0  0
   -5.2680   14.8850   -1.4600 N   0  0  0  0  0  0  0  0  0  0  0  0
   -5.8490   14.6570    0.7030 C   0  0  0  0  0  0  0  0  0  0  0  0
   -4.3400   14.9480    0.6830 C   0  0  0  0  0  0  0  0  0  0  0  0
   -4.1030   14.4040   -0.7490 C   0  0  2  0  0  0  0  0  0  0  0  0
   -6.7560   14.7460    1.9100 C   0  0  0  0  0  0  0  0  0  0  0  0
   -6.4080   13.4020    1.3430 C   0  0  0  0  0  0  0  0  0  0  0  0
   -2.8600   14.8270   -1.5510 C   0  0  0  0  0  0  0  0  0  0  0  0
   -3.1260   15.2610   -2.8200 N   0  0  0  0  0  0  0  0  0  0  0  0
   -1.7040   14.7770   -1.1440 O   0  0  0  0  0  0  0  0  0  0  0  0
  1  2  2  0
  2  3  1  0
  4  2  1  0
  4  5  1  0
  3  6  1  0
  5  6  1  0
  4  7  1  0
  4  8  1  0
  7  8  1  0
  6  9  1  6
  9 10  1  0
  9 11  2  0
M  END
