x0900_0_A-x0591_0_A
     RDKit          3D

 19 20  0  0  0  0  0  0  0  0999 V2000
   -6.1130   14.7080   -0.0410 N   0  0  0  0  0  0  0  0  0  0  0  0
   -5.6430   13.8250   -0.7650 C   0  0  0  0  0  0  0  0  0  0  0  0
   -5.6450   12.4990   -0.4040 N   0  0  0  0  0  0  0  0  0  0  0  0
   -6.4280   14.0170    1.1490 C   0  0  1  0  0  0  0  0  0  0  0  0
   -5.2630   13.1610    1.4400 N   0  0  0  0  0  0  0  0  0  0  0  0
   -6.2120   14.8940    2.2970 C   0  0  0  0  0  0  0  0  0  0  0  0
   -4.9800   14.1740   -2.0030 C   0  0  0  0  0  0  0  0  0  0  0  0
   -6.8290   11.9390    0.2450 C   0  0  0  0  0  0  0  0  0  0  0  0
   -4.8370   15.4340    1.8710 C   0  0  0  0  0  0  0  0  0  0  0  0
   -4.1500   14.1480    1.4550 C   0  0  0  0  0  0  0  0  0  0  0  0
   -3.5980   14.1880   -1.8780 C   0  0  0  0  0  0  0  0  0  0  0  0
   -5.6210   14.4550   -3.1990 C   0  0  0  0  0  0  0  0  0  0  0  0
   -2.8170   14.4780   -2.9520 C   0  0  0  0  0  0  0  0  0  0  0  0
   -4.8280   14.7470   -4.2990 C   0  0  0  0  0  0  0  0  0  0  0  0
   -3.4410   14.7490   -4.1480 C   0  0  0  0  0  0  0  0  0  0  0  0
   -2.4200   15.0920   -5.4990 S   0  0  0  0  0  0  0  0  0  0  0  0
   -1.1870   15.9910   -4.8040 N   0  0  0  0  0  0  0  0  0  0  0  0
   -1.8120   13.8440   -5.9050 O   0  0  0  0  0  0  0  0  0  0  0  0
   -3.1280   15.9600   -6.4050 O   0  0  0  0  0  0  0  0  0  0  0  0
  1  2  2  3
  2  3  1  0
  4  1  1  6
  4  5  1  0
  4  6  1  0
  2  7  1  0
  3  8  1  0
  6  9  1  0
  5 10  1  0
  9 10  1  0
  7 11  2  0
  7 12  1  0
 11 13  1  0
 12 14  2  0
 13 15  2  0
 14 15  1  0
 15 16  1  0
 16 17  1  0
 16 18  2  0
 16 19  2  0
M  END
