x0900_0_A-x0895_1_A
     RDKit          3D

  7  7  0  0  0  0  0  0  0  0999 V2000
   -6.6580   14.9910   -0.8380 O   0  0  0  0  0  0  0  0  0  0  0  0
   -5.6060   14.9580   -0.2170 C   0  0  0  0  0  0  0  0  0  0  0  0
   -4.3510   15.1560   -0.7170 N   0  0  0  0  0  0  0  0  0  0  0  0
   -5.4700   14.6820    1.2550 C   0  0  0  0  0  0  0  0  0  0  0  0
   -4.1160   15.2850    1.5640 C   0  0  0  0  0  0  0  0  0  0  0  0
   -3.4100   15.0840    0.2690 C   0  0  0  0  0  0  0  0  0  0  0  0
   -2.2050   14.8800    0.1570 O   0  0  0  0  0  0  0  0  0  0  0  0
  1  2  2  0
  2  3  1  0
  2  4  1  0
  4  5  1  0
  3  6  1  0
  5  6  1  0
  6  7  2  0
M  END
