x0900_0_A-x0626_0_A
     RDKit          3D

 16 17  0  0  0  0  0  0  0  0999 V2000
   -6.5090   14.7270   -0.0140 N   0  0  0  0  0  0  0  0  0  0  0  0
   -6.3560   14.4330    1.2240 C   0  0  0  0  0  0  0  0  0  0  0  0
   -5.0890   14.1820    1.7780 N   0  0  0  0  0  0  0  0  0  0  0  0
   -5.2690   14.7590   -0.6920 C   0  0  1  0  0  0  0  0  0  0  0  0
   -7.5300   14.3370    2.1910 C   0  0  0  0  0  0  0  0  0  0  0  0
   -5.1660   15.3550   -2.0020 N   0  0  0  0  0  0  0  0  0  0  0  0
   -4.4340   15.7430    0.0940 C   0  0  0  0  0  0  0  0  0  0  0  0
   -8.8200   14.6980    1.4690 C   0  0  0  0  0  0  0  0  0  0  0  0
   -3.1680   15.7290   -0.7210 C   0  0  0  0  0  0  0  0  0  0  0  0
   -3.6920   15.4360   -2.1230 C   0  0  0  0  0  0  0  0  0  0  0  0
   -3.8430   14.0210    1.1900 C   0  0  0  0  0  0  0  0  0  0  0  0
   -2.6890   14.5040    1.7050 N   0  0  0  0  0  0  0  0  0  0  0  0
   -3.5980   13.1810   -0.3050 S   0  0  0  0  0  0  0  0  0  0  0  0
   -1.9280   13.4920   -0.2600 C   0  0  0  0  0  0  0  0  0  0  0  0
   -1.6120   14.1970    0.8720 C   0  0  0  0  0  0  0  0  0  0  0  0
   -0.2470   14.6180    1.2170 C   0  0  0  0  0  0  0  0  0  0  0  0
  1  2  2  3
  2  3  1  0
  4  1  1  1
  2  5  1  0
  4  6  1  0
  4  7  1  0
  5  8  1  0
  7  9  1  0
  6 10  1  0
  9 10  1  0
  3 11  1  0
 11 12  2  0
 11 13  1  0
 13 14  1  0
 12 15  1  0
 14 15  2  0
 15 16  1  0
M  END
