x0900_1_A_α-x0910_1_A_α
     RDKit          3D

 18 19  0  0  0  0  0  0  0  0999 V2000
   -0.9730   10.0260   -9.5890 O   0  0  0  0  0  0  0  0  0  0  0  0
   -0.9450    9.6210   -8.4420 C   0  0  0  0  0  0  0  0  0  0  0  0
    0.0860    8.9010   -7.8770 N   0  0  0  0  0  0  0  0  0  0  0  0
   -1.9970    9.7870   -7.3610 C   0  0  2  0  0  0  0  0  0  0  0  0
   -1.9700   11.1060   -6.5590 C   0  0  0  0  0  0  0  0  0  0  0  0
   -1.8070    8.4990   -6.5410 C   0  0  0  0  0  0  0  0  0  0  0  0
   -0.3530    8.1010   -6.7690 C   0  0  0  0  0  0  0  0  0  0  0  0
   -3.2490   11.5820   -5.8300 C   0  0  0  0  0  0  0  0  0  0  0  0
   -3.1630   12.9410   -5.1090 C   0  0  0  0  0  0  0  0  0  0  0  0
   -4.4250   13.2470   -4.2730 C   0  0  0  0  0  0  0  0  0  0  0  0
   -4.3440   14.5590   -3.4620 C   0  0  0  0  0  0  0  0  0  0  0  0
   -5.5050   14.8470   -2.4810 C   0  0  0  0  0  0  0  0  0  0  0  0
   -5.0360   15.2130   -1.1600 N   0  0  0  0  0  0  0  0  0  0  0  0
   -6.2400   14.5810   -0.8480 N   0  0  0  0  0  0  0  0  0  0  0  0
   -4.7210   15.4960    0.1820 C   0  0  0  0  0  0  0  0  0  0  0  0
   -6.4750   14.5480    0.4330 C   0  0  0  0  0  0  0  0  0  0  0  0
   -5.5380   15.1130    1.1210 N   0  0  0  0  0  0  0  0  0  0  0  0
   -7.5210   14.0230    1.0660 N   0  0  0  0  0  0  0  0  0  0  0  0
  1  2  2  0
  2  3  1  0
  2  4  1  0
  4  5  1  1
  4  6  1  0
  3  7  1  0
  6  7  1  0
  5  8  1  0
  8  9  1  0
  9 10  1  0
 10 11  1  0
 11 12  1  0
 12 13  1  0
 13 14  1  0
 13 15  1  0
 14 16  2  0
 15 17  2  0
 16 17  1  0
 16 18  1  0
M  END
