x0900_1_A-x0253_0_A
     RDKit          3D

 14 14  0  0  0  0  0  0  0  0999 V2000
   -0.7220   10.3150   -9.3700 O   0  0  0  0  0  0  0  0  0  0  0  0
   -0.7320    9.6990   -8.3110 C   0  0  0  0  0  0  0  0  0  0  0  0
    0.0740    9.8460   -7.1550 N   0  0  0  0  0  0  0  0  0  0  0  0
   -1.6910    8.5460   -8.0210 C   0  0  2  0  0  0  0  0  0  0  0  0
   -3.1210    8.8440   -8.3450 C   0  0  0  0  0  0  0  0  0  0  0  0
    0.6630   11.0480   -6.6920 C   0  0  0  0  0  0  0  0  0  0  0  0
   -1.5130    8.2580   -6.5500 C   0  0  0  0  0  0  0  0  0  0  0  0
   -0.0910    8.6380   -6.3510 C   0  0  0  0  0  0  0  0  0  0  0  0
    0.1460   11.5700   -5.5170 N   0  0  0  0  0  0  0  0  0  0  0  0
    1.5930   11.6450   -7.2150 O   0  0  0  0  0  0  0  0  0  0  0  0
    0.9670   12.4950   -4.7330 C   0  0  0  0  0  0  0  0  0  0  0  0
    0.8300   12.1810   -3.2440 C   0  0  0  0  0  0  0  0  0  0  0  0
    1.3290   12.8480   -2.3470 O   0  0  0  0  0  0  0  0  0  0  0  0
    0.0930   11.0790   -2.9850 O   0  0  0  0  0  0  0  0  0  0  0  0
  1  2  2  0
  2  3  1  0
  2  4  1  0
  4  5  1  1
  3  6  1  0
  4  7  1  0
  3  8  1  0
  7  8  1  0
  6  9  1  0
  6 10  2  0
  9 11  1  0
 11 12  1  0
 12 13  2  0
 12 14  1  0
M  END
