x0900_0_A-x0628_0_A
     RDKit          3D

 21 22  0  0  0  0  0  0  0  0999 V2000
   -6.9190   15.0770   -0.7590 O   0  0  0  0  0  0  0  0  0  0  0  0
   -5.7690   14.9830   -0.3610 C   0  0  0  0  0  0  0  0  0  0  0  0
   -4.6000   15.0630   -1.1190 N   0  0  0  0  0  0  0  0  0  0  0  0
   -5.3570   14.7440    1.0760 C   0  0  0  0  0  0  0  0  0  0  0  0
   -4.5740   14.7430   -2.5440 C   0  0  0  0  0  0  0  0  0  0  0  0
   -3.9500   15.3130    1.0830 C   0  0  0  0  0  0  0  0  0  0  0  0
   -3.4530   14.8550   -0.2720 C   0  0  0  0  0  0  0  0  0  0  0  0
   -3.2030   14.8630   -3.2250 C   0  0  0  0  0  0  0  0  0  0  0  0
   -2.8770   13.8420   -4.3460 C   0  0  0  0  0  0  0  0  0  0  0  0
   -2.2480   12.5050   -3.9080 C   0  0  0  0  0  0  0  0  0  0  0  0
   -1.5330   11.7130   -4.9730 C   0  0  0  0  0  0  0  0  0  0  0  0
   -1.9290   10.5870   -5.5400 N   0  0  0  0  0  0  0  0  0  0  0  0
   -0.3170   12.0590   -5.5250 N   0  0  0  0  0  0  0  0  0  0  0  0
    0.5190   13.2070   -5.2290 C   0  0  0  0  0  0  0  0  0  0  0  0
   -0.9300   10.2810   -6.4250 C   0  0  0  0  0  0  0  0  0  0  0  0
    0.0780   11.1570   -6.4520 N   0  0  0  0  0  0  0  0  0  0  0  0
   -0.9580    9.0770   -7.2780 C   0  0  0  0  0  0  0  0  0  0  0  0
    1.6280   12.9440   -4.2130 C   0  0  0  0  0  0  0  0  0  0  0  0
    1.1010   12.2690   -2.9670 C   0  0  0  0  0  0  0  0  0  0  0  0
    0.6090   11.1510   -2.9540 O   0  0  0  0  0  0  0  0  0  0  0  0
    1.2180   13.0030   -1.8480 O   0  0  0  0  0  0  0  0  0  0  0  0
  1  2  2  0
  2  3  1  0
  2  4  1  0
  3  5  1  0
  4  6  1  0
  3  7  1  0
  6  7  1  0
  5  8  1  0
  8  9  1  0
  9 10  1  0
 10 11  1  0
 11 12  2  0
 11 13  1  0
 13 14  1  0
 12 15  1  0
 13 16  1  0
 15 16  2  0
 15 17  1  0
 14 18  1  0
 18 19  1  0
 19 20  2  0
 19 21  1  0
M  END
