x0900_0_A_α-x0628_0_A_α
     RDKit          3D

 21 22  0  0  0  0  0  0  0  0999 V2000
   -6.9120   15.0580   -0.7880 O   0  0  0  0  0  0  0  0  0  0  0  0
   -5.7650   14.9970   -0.3700 C   0  0  0  0  0  0  0  0  0  0  0  0
   -4.5870   15.1400   -1.1010 N   0  0  0  0  0  0  0  0  0  0  0  0
   -5.3660   14.7350    1.0650 C   0  0  0  0  0  0  0  0  0  0  0  0
   -4.5270   15.0640   -2.5550 C   0  0  0  0  0  0  0  0  0  0  0  0
   -3.9540   15.2960    1.0970 C   0  0  0  0  0  0  0  0  0  0  0  0
   -3.4520   14.8560   -0.2590 C   0  0  0  0  0  0  0  0  0  0  0  0
   -4.2920   13.6520   -3.1180 C   0  0  0  0  0  0  0  0  0  0  0  0
   -3.1480   13.4630   -4.1360 C   0  0  0  0  0  0  0  0  0  0  0  0
   -2.1130   12.3860   -3.7750 C   0  0  0  0  0  0  0  0  0  0  0  0
   -1.4710   11.6390   -4.9090 C   0  0  0  0  0  0  0  0  0  0  0  0
   -1.8890   10.5280   -5.4840 N   0  0  0  0  0  0  0  0  0  0  0  0
   -0.3000   12.0220   -5.5260 N   0  0  0  0  0  0  0  0  0  0  0  0
    0.5380   13.1770   -5.2430 C   0  0  0  0  0  0  0  0  0  0  0  0
   -0.9470   10.2650   -6.4410 C   0  0  0  0  0  0  0  0  0  0  0  0
    0.0440   11.1580   -6.5060 N   0  0  0  0  0  0  0  0  0  0  0  0
   -1.0190    9.0900   -7.3300 C   0  0  0  0  0  0  0  0  0  0  0  0
    1.6310   12.9460   -4.2040 C   0  0  0  0  0  0  0  0  0  0  0  0
    1.0970   12.2800   -2.9590 C   0  0  0  0  0  0  0  0  0  0  0  0
    0.5780   11.1710   -2.9480 O   0  0  0  0  0  0  0  0  0  0  0  0
    1.2350   13.0070   -1.8360 O   0  0  0  0  0  0  0  0  0  0  0  0
  1  2  2  0
  2  3  1  0
  2  4  1  0
  3  5  1  0
  4  6  1  0
  3  7  1  0
  6  7  1  0
  5  8  1  0
  8  9  1  0
  9 10  1  0
 10 11  1  0
 11 12  2  0
 11 13  1  0
 13 14  1  0
 12 15  1  0
 13 16  1  0
 15 16  2  0
 15 17  1  0
 14 18  1  0
 18 19  1  0
 19 20  2  0
 19 21  1  0
M  END
