x0900_1_A-x0855_0_A
     RDKit          3D

 15 16  0  0  0  0  0  0  0  0999 V2000
   -1.0870    9.0970  -10.3780 O   0  0  0  0  0  0  0  0  0  0  0  0
   -1.1440    8.7920   -9.2040 C   0  0  0  0  0  0  0  0  0  0  0  0
   -0.3130    7.8990   -8.5180 N   0  0  0  0  0  0  0  0  0  0  0  0
   -2.0910    9.3280   -8.1860 C   0  0  0  0  0  0  0  0  0  0  0  0
   -0.9380    9.5680   -7.2680 C   0  0  2  0  0  0  0  0  0  0  0  0
   -0.3660    8.1820   -7.1070 C   0  0  0  0  0  0  0  0  0  0  0  0
   -1.0910   10.4950   -6.1620 C   0  0  0  0  0  0  0  0  0  0  0  0
   -0.0740   11.2950   -5.7760 C   0  0  0  0  0  0  0  0  0  0  0  0
   -2.1620   10.8120   -5.2950 C   0  0  0  0  0  0  0  0  0  0  0  0
   -0.5320   12.0230   -4.7510 N   0  0  0  0  0  0  0  0  0  0  0  0
   -1.8130   11.7610   -4.4220 N   0  0  0  0  0  0  0  0  0  0  0  0
    0.2450   12.9890   -4.0460 C   0  0  0  0  0  0  0  0  0  0  0  0
    0.9190   12.2710   -2.9340 C   0  0  0  0  0  0  0  0  0  0  0  0
    1.7080   13.0210   -2.1540 O   0  0  0  0  0  0  0  0  0  0  0  0
    0.7860   11.0800   -2.7020 O   0  0  0  0  0  0  0  0  0  0  0  0
  1  2  2  0
  2  3  1  0
  2  4  1  0
  4  5  1  0
  3  6  1  0
  5  6  1  0
  5  7  1  1
  7  8  2  0
  7  9  1  0
  8 10  1  0
  9 11  2  0
 10 11  1  0
 10 12  1  0
 12 13  1  0
 13 14  1  0
 13 15  2  0
M  END
