x0905_0_A-x0689_0_A
     RDKit          3D

 14 15  0  0  0  0  0  0  0  0999 V2000
   -7.7030   14.9160   -0.3780 O   0  0  0  0  0  0  0  0  0  0  0  0
   -6.3840   15.0790   -0.5790 C   0  0  0  0  0  0  0  0  0  0  0  0
   -5.6640   14.9570    0.5460 N   0  0  0  0  0  0  0  0  0  0  0  0
   -5.9080   15.3380   -1.8410 C   0  0  0  0  0  0  0  0  0  0  0  0
   -4.3520   15.1080    0.3740 C   0  0  0  0  0  0  0  0  0  0  0  0
   -4.5560   15.4880   -1.9810 C   0  0  0  0  0  0  0  0  0  0  0  0
   -3.7810   15.3710   -0.8610 C   0  0  0  0  0  0  0  0  0  0  0  0
   -3.5100   14.9940    1.4060 N   0  0  0  0  0  0  0  0  0  0  0  0
   -2.2510   14.6930    1.0450 C   0  0  0  0  0  0  0  0  0  0  0  0
   -2.0150   14.6970   -0.2750 N   0  0  0  0  0  0  0  0  0  0  0  0
   -1.3540   14.4250    1.9550 N   0  0  0  0  0  0  0  0  0  0  0  0
   -0.8020   14.4220   -0.7040 C   0  0  0  0  0  0  0  0  0  0  0  0
   -0.1440   14.1510    1.4890 C   0  0  0  0  0  0  0  0  0  0  0  0
    0.1980   14.1370    0.1450 C   0  0  0  0  0  0  0  0  0  0  0  0
  1  2  1  0
  2  3  2  0
  2  4  1  0
  3  5  1  0
  4  6  2  0
  5  7  2  0
  6  7  1  0
  5  8  1  0
  8  9  1  0
  9 10  2  0
  9 11  1  0
 10 12  1  0
 11 13  2  0
 12 14  2  0
 13 14  1  0
M  END
