x0900_0_A-x0844_0_A
     RDKit          3D

  7  7  0  0  0  0  0  0  0  0999 V2000
   -6.6810   15.0020   -0.9200 O   0  0  0  0  0  0  0  0  0  0  0  0
   -5.5940   14.9550   -0.3640 C   0  0  0  0  0  0  0  0  0  0  0  0
   -4.3020   15.0810   -0.9030 N   0  0  0  0  0  0  0  0  0  0  0  0
   -5.3940   14.7380    1.1210 C   0  0  0  0  0  0  0  0  0  0  0  0
   -3.8460   14.8600   -2.7000 Br  0  0  0  0  0  0  0  0  0  0  0  0
   -4.0210   15.3620    1.3270 C   0  0  0  0  0  0  0  0  0  0  0  0
   -3.3160   14.8460    0.1070 C   0  0  0  0  0  0  0  0  0  0  0  0
  1  2  2  0
  2  3  1  0
  2  4  1  0
  3  5  1  0
  4  6  1  0
  3  7  1  0
  6  7  1  0
M  END
