x0905_1_B_α-x0918_4_B_α
     RDKit          3D

  8  8  0  0  0  0  0  0  0  0999 V2000
   14.0500   19.5890   11.5700 O   0  0  0  0  0  0  0  0  0  0  0  0
   13.4230   20.2890   12.5470 C   0  0  0  0  0  0  0  0  0  0  0  0
   12.5110   19.6040   13.2520 N   0  0  0  0  0  0  0  0  0  0  0  0
   13.7560   21.6070   12.7390 C   0  0  0  0  0  0  0  0  0  0  0  0
   11.8890   20.3050   14.2220 C   0  0  0  0  0  0  0  0  0  0  0  0
   13.1060   22.3070   13.7400 C   0  0  0  0  0  0  0  0  0  0  0  0
   13.4110   23.6460   13.9690 N   0  0  0  0  0  0  0  0  0  0  0  0
   12.1490   21.6410   14.5000 C   0  0  0  0  0  0  0  0  0  0  0  0
  1  2  1  0
  2  3  2  0
  2  4  1  0
  3  5  1  0
  4  6  2  0
  6  7  1  0
  5  8  2  0
  6  8  1  0
M  END
