x0905_1_B-x0228_1_A
     RDKit          3D

 29 31  0  0  0  0  0  0  0  0999 V2000
   13.6670   19.6950   11.6530 O   0  0  0  0  0  0  0  0  0  0  0  0
   13.2240   20.4350   12.7150 C   0  0  0  0  0  0  0  0  0  0  0  0
   12.3880   19.8030   13.5520 N   0  0  0  0  0  0  0  0  0  0  0  0
   13.6330   21.7480   12.8840 C   0  0  0  0  0  0  0  0  0  0  0  0
   11.9380   20.5140   14.6190 C   0  0  0  0  0  0  0  0  0  0  0  0
   13.1540   22.4540   13.9860 C   0  0  0  0  0  0  0  0  0  0  0  0
   12.2840   21.8430   14.8970 C   0  0  0  0  0  0  0  0  0  0  0  0
   11.7550   22.5910   16.1200 C   0  0  0  0  0  0  0  0  0  0  0  0
   11.5050   24.1020   15.9100 C   0  0  0  0  0  0  0  0  0  0  0  0
   10.6800   24.9290   16.9550 C   0  0  0  0  0  0  0  0  0  0  0  0
    9.2300   24.5230   17.3630 C   0  0  0  0  0  0  0  0  0  0  0  0
    8.1980   25.5830   17.2040 N   0  0  0  0  0  0  0  0  0  0  0  0
    7.5480   25.8800   18.4890 N   0  0  0  0  0  0  0  0  0  0  0  0
    7.0590   25.2880   16.3050 C   0  0  0  0  0  0  0  0  0  0  0  0
    6.2510   26.4810   18.1430 C   0  0  0  0  0  0  0  0  0  0  0  0
    5.9260   26.0920   16.7670 N   0  0  0  0  0  0  0  0  0  0  0  0
    4.5730   25.6530   16.4730 N   0  0  0  0  0  0  0  0  0  0  0  0
    3.7180   26.7420   16.3030 C   0  0  0  0  0  0  0  0  0  0  0  0
    2.4330   26.4420   15.8890 N   0  0  0  0  0  0  0  0  0  0  0  0
    4.1180   27.8760   16.5180 O   0  0  0  0  0  0  0  0  0  0  0  0
    1.4630   27.4590   15.7400 C   0  0  0  0  0  0  0  0  0  0  0  0
    0.2010   27.1420   15.1830 C   0  0  0  0  0  0  0  0  0  0  0  0
    1.7320   28.7740   16.1310 C   0  0  0  0  0  0  0  0  0  0  0  0
    0.0110   25.8260   14.8280 O   0  0  0  0  0  0  0  0  0  0  0  0
   -0.7500   28.1600   15.0320 C   0  0  0  0  0  0  0  0  0  0  0  0
    0.7850   29.7840   15.9810 C   0  0  0  0  0  0  0  0  0  0  0  0
   -1.3130   25.4430   14.4670 C   0  0  0  0  0  0  0  0  0  0  0  0
    1.1150   31.1850   16.4100 C   0  0  0  0  0  0  0  0  0  0  0  0
   -0.4580   29.4710   15.4280 C   0  0  0  0  0  0  0  0  0  0  0  0
  1  2  1  0
  2  3  2  0
  2  4  1  0
  3  5  1  0
  4  6  2  0
  5  7  2  0
  6  7  1  0
  7  8  1  0
  8  9  1  0
  9 10  1  0
 10 11  1  0
 11 12  1  0
 12 13  1  0
 12 14  1  0
 13 15  1  0
 14 16  1  0
 15 16  1  0
 16 17  1  0
 17 18  1  0
 18 19  1  0
 18 20  2  0
 19 21  1  0
 21 22  2  0
 21 23  1  0
 22 24  1  0
 22 25  1  0
 23 26  2  0
 24 27  1  0
 26 28  1  0
 25 29  2  0
 26 29  1  0
M  END
