x0900_1_A-x0159_0_B
     RDKit          3D

 25 28  0  0  0  0  0  0  0  0999 V2000
   -1.3450   10.3530   -9.5430 O   0  0  0  0  0  0  0  0  0  0  0  0
   -1.3440    9.6760   -8.5270 C   0  0  0  0  0  0  0  0  0  0  0  0
   -0.3420    8.8530   -8.0900 N   0  0  0  0  0  0  0  0  0  0  0  0
   -2.4560    9.5700   -7.5100 C   0  0  0  0  0  0  0  0  0  0  0  0
   -0.0280    7.6690   -8.8320 C   0  0  0  0  0  0  0  0  0  0  0  0
   -1.8710    8.6360   -6.4450 C   0  0  0  0  0  0  0  0  0  0  0  0
   -0.3890    8.7830   -6.6590 C   0  0  0  0  0  0  0  0  0  0  0  0
    1.3720    7.1720   -8.5440 C   0  0  2  0  0  0  0  0  0  0  0  0
    2.3540    7.5960   -9.6040 C   0  0  0  0  0  0  0  0  0  0  0  0
    1.3160    5.7230   -8.1820 C   0  0  0  0  0  0  0  0  0  0  0  0
    1.8560    8.7960  -10.2430 N   0  0  0  0  0  0  0  0  0  0  0  0
    1.7830    4.6720   -8.9670 C   0  0  0  0  0  0  0  0  0  0  0  0
    0.7310    5.4620   -6.9610 C   0  0  0  0  0  0  0  0  0  0  0  0
    2.4980    9.2000  -11.3170 C   0  0  0  0  0  0  0  0  0  0  0  0
    1.6410    3.3680   -8.5030 C   0  0  0  0  0  0  0  0  0  0  0  0
    0.6000    4.1790   -6.5120 C   0  0  0  0  0  0  0  0  0  0  0  0
    2.1630   10.3720  -11.9350 N   0  0  0  0  0  0  0  0  0  0  0  0
    3.4840    8.5940  -11.9090 N   0  0  0  0  0  0  0  0  0  0  0  0
    1.0550    3.1230   -7.2800 C   0  0  0  0  0  0  0  0  0  0  0  0
    3.8210    9.4010  -12.9490 C   0  0  0  0  0  0  0  0  0  0  0  0
    3.0100   10.5320  -12.9970 C   0  0  0  0  0  0  0  0  0  0  0  0
    3.1420   11.5250  -13.9610 C   0  0  0  0  0  0  0  0  0  0  0  0
    4.8210    9.2290  -13.9010 C   0  0  0  0  0  0  0  0  0  0  0  0
    4.1530   11.3380  -14.9070 C   0  0  0  0  0  0  0  0  0  0  0  0
    4.9790   10.2110  -14.8820 C   0  0  0  0  0  0  0  0  0  0  0  0
  1  2  2  0
  2  3  1  0
  2  4  1  0
  3  5  1  0
  4  6  1  0
  3  7  1  0
  6  7  1  0
  8  5  1  6
  8  9  1  0
  8 10  1  0
  9 11  1  0
 10 12  2  0
 10 13  1  0
 11 14  1  0
 12 15  1  0
 13 16  2  0
 14 17  1  0
 14 18  2  0
 15 19  2  0
 16 19  1  0
 18 20  1  0
 17 21  1  0
 20 21  2  0
 21 22  1  0
 20 23  1  0
 22 24  2  0
 23 25  2  0
 24 25  1  0
M  END
