x0905_0_B_α-x0423_0_B_α
     RDKit          3D

 14 15  0  0  0  0  0  0  0  0999 V2000
   14.8500   19.1310   12.2480 O   0  0  0  0  0  0  0  0  0  0  0  0
   14.0260   20.2000   12.6040 C   0  0  1  0  0  0  0  0  0  0  0  0
   12.8720   19.6210   13.1670 N   0  0  0  0  0  0  0  0  0  0  0  0
   14.5920   21.1330   13.6860 C   0  0  0  0  0  0  0  0  0  0  0  0
   11.9330   20.5380   13.5180 C   0  0  0  0  0  0  0  0  0  0  0  0
   13.6980   22.4010   13.7080 C   0  0  1  0  0  0  0  0  0  0  0  0
   12.2450   21.8480   13.7710 C   0  0  0  0  0  0  0  0  0  0  0  0
   13.9380   23.3980   14.9030 C   0  0  0  0  0  0  0  0  0  0  0  0
   14.1670   23.1650   12.4270 C   0  0  0  0  0  0  0  0  0  0  0  0
   14.3810   24.7940   14.3920 C   0  0  1  0  0  0  0  0  0  0  0  0
   15.5910   23.7530   12.5400 C   0  0  0  0  0  0  0  0  0  0  0  0
   14.2120   25.9710   15.2620 N   0  0  0  0  0  0  0  0  0  0  0  0
   15.7390   24.6890   13.7290 C   0  0  0  0  0  0  0  0  0  0  0  0
   12.8780   26.1600   15.7990 C   0  0  0  0  0  0  0  0  0  0  0  0
  2  1  1  1
  2  3  1  0
  2  4  1  0
  3  5  1  0
  6  4  1  1
  5  7  2  0
  6  7  1  0
  6  8  1  0
  6  9  1  0
  8 10  1  0
  9 11  1  0
 10 12  1  1
 10 13  1  0
 11 13  1  0
 12 14  1  0
M  END
