x0905_0_A_α-5cms_K_10_K_γ
     RDKit          3D

 18 19  0  0  0  0  0  0  0  0999 V2000
   -7.1430   15.2700   -0.7780 O   0  0  0  0  0  0  0  0  0  0  0  0
   -5.8090   15.1250   -0.5380 C   0  0  0  0  0  0  0  0  0  0  0  0
   -5.4320   15.3180    0.7340 N   0  0  0  0  0  0  0  0  0  0  0  0
   -4.9400   14.7960   -1.5510 C   0  0  0  0  0  0  0  0  0  0  0  0
   -4.1310   15.1910    1.0260 C   0  0  0  0  0  0  0  0  0  0  0  0
   -3.5940   14.6550   -1.2230 C   0  0  0  0  0  0  0  0  0  0  0  0
   -2.5940   14.2660   -2.2520 C   0  0  0  0  0  0  0  0  0  0  0  0
   -3.1770   14.8620    0.0900 C   0  0  0  0  0  0  0  0  0  0  0  0
   -2.0040   12.8880   -1.8930 C   0  0  0  0  0  0  0  0  0  0  0  0
   -1.8320   11.9260   -3.0650 C   0  0  0  0  0  0  0  0  0  0  0  0
   -0.8460   12.3450   -3.9890 O   0  0  0  0  0  0  0  0  0  0  0  0
   -0.7480   13.7530   -4.1590 C   0  0  1  0  0  0  0  0  0  0  0  0
   -0.1370   14.4630   -2.9390 C   0  0  0  0  0  0  0  0  0  0  0  0
    0.2270   14.2600   -5.2000 C   0  0  2  0  0  0  0  0  0  0  0  0
    1.5180   13.6900   -4.9660 O   0  0  0  0  0  0  0  0  0  0  0  0
    0.3230   15.7450   -3.3990 O   0  0  0  0  0  0  0  0  0  0  0  0
    0.0630   15.7350   -4.8070 C   0  0  1  0  0  0  0  0  0  0  0  0
    0.8750   16.8020   -5.5000 C   0  0  0  0  0  0  0  0  0  0  0  0
  1  2  1  0
  2  3  2  0
  2  4  1  0
  3  5  1  0
  4  6  2  0
  6  7  1  0
  5  8  2  0
  6  8  1  0
  7  9  1  0
  9 10  1  0
 10 11  1  0
 12 11  1  1
 12 13  1  0
 12 14  1  0
 14 15  1  1
 13 16  1  0
 14 17  1  0
 16 17  1  0
 17 18  1  6
M  END
