x0905_1_B-x0598_0_A
     RDKit          3D

 20 21  0  0  0  0  0  0  0  0999 V2000
   14.3060   19.2850   12.2800 O   0  0  0  0  0  0  0  0  0  0  0  0
   13.7840   20.1920   13.1550 C   0  0  0  0  0  0  0  0  0  0  0  0
   12.7970   19.7500   13.9560 N   0  0  0  0  0  0  0  0  0  0  0  0
   14.2880   21.4690   13.1690 C   0  0  0  0  0  0  0  0  0  0  0  0
   12.2770   20.6710   14.8280 C   0  0  0  0  0  0  0  0  0  0  0  0
   13.7390   22.3860   14.0660 C   0  0  0  0  0  0  0  0  0  0  0  0
   12.7000   22.0170   14.9270 C   0  0  0  0  0  0  0  0  0  0  0  0
   12.1070   23.0600   15.8790 C   0  0  0  0  0  0  0  0  0  0  0  0
   10.7240   23.5050   15.5350 N   0  0  0  0  0  0  0  0  0  0  0  0
   10.3830   24.8880   14.9280 S   0  0  2  0  0  0  0  0  0  0  0  0
    9.1770   25.6260   15.8660 N   0  0  0  0  0  0  0  0  0  0  0  0
    9.7210   24.8410   13.2980 C   0  0  0  0  0  0  0  0  0  0  0  0
   11.3340   25.9320   14.8060 O   0  0  0  0  0  0  0  0  0  0  0  0
    8.0850   24.9890   16.5930 C   0  0  0  0  0  0  0  0  0  0  0  0
    6.6440   25.4060   16.1360 C   0  0  0  0  0  0  0  0  0  0  0  0
    5.4760   24.7670   16.8760 C   0  0  0  0  0  0  0  0  0  0  0  0
    6.3480   26.8870   16.2510 C   0  0  0  0  0  0  0  0  0  0  0  0
    4.1010   25.3260   16.6610 C   0  0  0  0  0  0  0  0  0  0  0  0
    4.9920   27.2450   15.6280 C   0  0  0  0  0  0  0  0  0  0  0  0
    4.0740   26.1130   15.4660 N   0  0  0  0  0  0  0  0  0  0  0  0
  1  2  1  0
  2  3  2  0
  2  4  1  0
  3  5  1  0
  4  6  2  0
  5  7  2  0
  6  7  1  0
  7  8  1  0
  8  9  1  0
  9 10  2  0
 10 11  1  0
 10 12  1  6
 10 13  2  0
 11 14  1  0
 14 15  1  0
 15 16  1  0
 15 17  1  0
 16 18  1  0
 17 19  1  0
 18 20  1  0
 19 20  1  0
M  END
