x0905_0_A_α-x0910_1_A_α
     RDKit          3D

  8  8  0  0  0  0  0  0  0  0999 V2000
   -6.9890   14.5050   -1.0950 O   0  0  0  0  0  0  0  0  0  0  0  0
   -5.9450   15.3890   -0.7710 C   0  0  1  0  0  0  0  0  0  0  0  0
   -5.5420   15.0800    0.6180 N   0  0  0  0  0  0  0  0  0  0  0  0
   -4.8130   15.2260   -1.7360 C   0  0  0  0  0  0  0  0  0  0  0  0
   -6.4500   14.3820    1.4820 N   0  0  0  0  0  0  0  0  0  0  0  0
   -4.1990   15.1130    0.9720 C   0  0  0  0  0  0  0  0  0  0  0  0
   -3.5360   15.1030   -1.3420 C   0  0  0  0  0  0  0  0  0  0  0  0
   -3.2090   15.1230    0.0670 C   0  0  0  0  0  0  0  0  0  0  0  0
  2  1  1  6
  2  3  1  0
  2  4  1  0
  3  5  1  0
  3  6  1  0
  4  7  2  0
  6  8  2  0
  7  8  1  0
M  END
