x0900_1_A_α-x0592_0_A_α
     RDKit          3D

 22 23  0  0  0  0  0  0  0  0999 V2000
   -0.8710    9.8770   -9.6750 O   0  0  0  0  0  0  0  0  0  0  0  0
   -0.9980    9.4450   -8.5410 C   0  0  0  0  0  0  0  0  0  0  0  0
   -0.0170    8.8140   -7.8130 N   0  0  0  0  0  0  0  0  0  0  0  0
   -2.2460    9.4980   -7.6930 C   0  0  0  0  0  0  0  0  0  0  0  0
   -1.8760    8.7130   -6.4210 C   0  0  1  0  0  0  0  0  0  0  0  0
   -0.3590    8.7590   -6.4220 C   0  0  0  0  0  0  0  0  0  0  0  0
   -2.5260    9.2690   -5.1350 C   0  0  0  0  0  0  0  0  0  0  0  0
   -1.6840   10.3060   -4.3570 C   0  0  0  0  0  0  0  0  0  0  0  0
   -2.4160   10.9140   -3.1310 C   0  0  0  0  0  0  0  0  0  0  0  0
   -1.8760   12.2870   -2.6770 C   0  0  0  0  0  0  0  0  0  0  0  0
   -2.9510   13.2540   -2.1200 C   0  0  0  0  0  0  0  0  0  0  0  0
   -2.4500   13.9390   -0.9220 N   0  0  0  0  0  0  0  0  0  0  0  0
   -3.1800   14.5830   -0.0740 C   0  0  0  0  0  0  0  0  0  0  0  0
   -2.7780   15.2070    1.0700 N   0  0  0  0  0  0  0  0  0  0  0  0
   -4.6220   14.7020   -0.2660 C   0  0  0  0  0  0  0  0  0  0  0  0
   -5.4150   15.0770   -1.3840 C   0  0  0  0  0  0  0  0  0  0  0  0
   -5.5630   14.4450    0.7090 C   0  0  0  0  0  0  0  0  0  0  0  0
   -6.7320   15.0520   -1.1240 N   0  0  0  0  0  0  0  0  0  0  0  0
   -6.7890   14.6640    0.1640 N   0  0  0  0  0  0  0  0  0  0  0  0
   -8.0640   14.5150    0.8420 C   0  0  0  0  0  0  0  0  0  0  0  0
   -7.8780   14.0860    2.2950 C   0  0  0  0  0  0  0  0  0  0  0  0
   -7.1630   15.0600    3.0550 O   0  0  0  0  0  0  0  0  0  0  0  0
  1  2  2  0
  2  3  1  0
  2  4  1  0
  4  5  1  0
  3  6  1  0
  5  6  1  0
  5  7  1  1
  7  8  1  0
  8  9  1  0
  9 10  1  0
 10 11  1  0
 11 12  1  0
 12 13  2  3
 13 14  1  0
 13 15  1  0
 15 16  1  0
 15 17  2  0
 16 18  2  0
 17 19  1  0
 18 19  1  0
 19 20  1  0
 20 21  1  0
 21 22  1  0
M  END
