x0900_1_A_α-x0967_0_A_α
     RDKit          3D

 21 23  0  0  0  0  0  0  0  0999 V2000
   -0.8800    9.9220   -9.6610 O   0  0  0  0  0  0  0  0  0  0  0  0
   -0.9180    9.4920   -8.5200 C   0  0  0  0  0  0  0  0  0  0  0  0
    0.0830    8.7850   -7.8980 N   0  0  0  0  0  0  0  0  0  0  0  0
   -2.0610    9.6330   -7.5430 C   0  0  0  0  0  0  0  0  0  0  0  0
   -1.5020    9.0630   -6.2210 C   0  0  1  0  0  0  0  0  0  0  0  0
   -0.4030    8.1270   -6.7200 C   0  0  0  0  0  0  0  0  0  0  0  0
   -0.9810   10.1940   -5.2870 C   0  0  0  0  0  0  0  0  0  0  0  0
   -2.0490   10.9080   -4.4200 C   0  0  0  0  0  0  0  0  0  0  0  0
   -2.0150   12.4580   -4.4210 C   0  0  0  0  0  0  0  0  0  0  0  0
   -2.0600   13.1730   -3.0500 C   0  0  0  0  0  0  0  0  0  0  0  0
   -2.8580   14.5000   -2.9420 C   0  0  0  0  0  0  0  0  0  0  0  0
   -3.6210   14.6220   -1.6390 C   0  0  0  0  0  0  0  0  0  0  0  0
   -4.9710   14.5150   -1.7130 N   0  0  0  0  0  0  0  0  0  0  0  0
   -2.9580   14.8190   -0.4320 C   0  0  0  0  0  0  0  0  0  0  0  0
   -5.7060   14.5820   -0.6000 C   0  0  0  0  0  0  0  0  0  0  0  0
   -3.7090   14.8940    0.7320 C   0  0  0  0  0  0  0  0  0  0  0  0
   -7.0330   14.4610   -0.7090 N   0  0  0  0  0  0  0  0  0  0  0  0
   -5.1000   14.7680    0.6560 C   0  0  0  0  0  0  0  0  0  0  0  0
   -5.9080   14.8170    1.7980 C   0  0  0  0  0  0  0  0  0  0  0  0
   -7.7940   14.5090    0.4080 C   0  0  0  0  0  0  0  0  0  0  0  0
   -7.2820   14.6810    1.6760 C   0  0  0  0  0  0  0  0  0  0  0  0
  1  2  2  0
  2  3  1  0
  2  4  1  0
  4  5  1  0
  3  6  1  0
  5  6  1  0
  5  7  1  1
  7  8  1  0
  8  9  1  0
  9 10  1  0
 10 11  1  0
 11 12  1  0
 12 13  2  0
 12 14  1  0
 13 15  1  0
 14 16  2  0
 15 17  2  0
 15 18  1  0
 16 18  1  0
 18 19  2  0
 17 20  1  0
 19 21  1  0
 20 21  2  0
M  END
