x0900_1_A_α-x0290_0_A_α
     RDKit          3D

 23 24  0  0  0  0  0  0  0  0999 V2000
   -0.9870    9.9880   -9.6350 O   0  0  0  0  0  0  0  0  0  0  0  0
   -0.8010    9.5970   -8.4960 C   0  0  0  0  0  0  0  0  0  0  0  0
    0.1520    8.6940   -8.1000 N   0  0  0  0  0  0  0  0  0  0  0  0
   -1.5610    9.9930   -7.2480 C   0  0  2  0  0  0  0  0  0  0  0  0
   -0.8190   11.1520   -6.5480 C   0  0  0  0  0  0  0  0  0  0  0  0
   -1.5340    8.6600   -6.4770 C   0  0  0  0  0  0  0  0  0  0  0  0
   -0.2580    7.9680   -6.9330 C   0  0  0  0  0  0  0  0  0  0  0  0
   -1.6230   11.8890   -5.4570 C   0  0  0  0  0  0  0  0  0  0  0  0
   -0.8260   12.9230   -4.6360 C   0  0  0  0  0  0  0  0  0  0  0  0
   -1.1450   13.0250   -3.1310 C   0  0  0  0  0  0  0  0  0  0  0  0
   -1.1460   14.4440   -2.5210 C   0  0  0  0  0  0  0  0  0  0  0  0
   -1.3650   14.4930   -1.0260 C   0  0  0  0  0  0  0  0  0  0  0  0
   -0.2920   14.3890   -0.1350 C   0  0  0  0  0  0  0  0  0  0  0  0
   -2.6520   14.6400   -0.4900 C   0  0  0  0  0  0  0  0  0  0  0  0
   -0.5580   14.4300    1.2230 C   0  0  0  0  0  0  0  0  0  0  0  0
   -2.8320   14.6740    0.8930 C   0  0  0  0  0  0  0  0  0  0  0  0
   -4.1500   14.8250    1.3550 N   0  0  0  0  0  0  0  0  0  0  0  0
   -1.7940   14.5640    1.7440 N   0  0  0  0  0  0  0  0  0  0  0  0
   -5.2920   14.4200    0.6710 C   0  0  0  0  0  0  0  0  0  0  0  0
   -5.4420   14.3470   -0.5400 O   0  0  0  0  0  0  0  0  0  0  0  0
   -6.4500   14.0330    1.6090 C   0  0  0  0  0  0  0  0  0  0  0  0
   -7.7020   13.7790    0.8600 N   0  0  0  0  0  0  0  0  0  0  0  0
   -8.5680   14.9520    0.8020 C   0  0  0  0  0  0  0  0  0  0  0  0
  1  2  2  0
  2  3  1  0
  2  4  1  0
  4  5  1  1
  4  6  1  0
  3  7  1  0
  6  7  1  0
  5  8  1  0
  8  9  1  0
  9 10  1  0
 10 11  1  0
 11 12  1  0
 12 13  2  0
 12 14  1  0
 13 15  1  0
 14 16  2  0
 16 17  1  0
 15 18  2  0
 16 18  1  0
 17 19  1  0
 19 20  2  0
 19 21  1  0
 21 22  1  0
 22 23  1  0
M  END
