x0905_0_A-x0766_0_A
     RDKit          3D

 18 20  0  0  0  0  0  0  0  0999 V2000
   -7.0390   15.1700   -0.3430 O   0  0  0  0  0  0  0  0  0  0  0  0
   -5.6820   15.0530   -0.5260 C   0  0  0  0  0  0  0  0  0  0  0  0
   -4.9490   14.5490    0.5340 N   0  0  0  0  0  0  0  0  0  0  0  0
   -5.1330   15.4100   -1.6900 C   0  0  0  0  0  0  0  0  0  0  0  0
   -3.6410   14.7140    0.5260 C   0  0  0  0  0  0  0  0  0  0  0  0
   -3.7280   15.2360   -1.8060 C   0  0  0  0  0  0  0  0  0  0  0  0
   -2.8950   15.4470   -0.5850 C   0  0  2  0  0  0  0  0  0  0  0  0
   -2.9970   14.8930   -2.8610 C   0  0  0  0  0  0  0  0  0  0  0  0
   -1.6060   14.8080   -2.4670 C   0  0  0  0  0  0  0  0  0  0  0  0
   -1.5190   15.0900   -1.1300 C   0  0  0  0  0  0  0  0  0  0  0  0
   -0.5370   14.4470   -3.4820 C   0  0  2  0  0  0  0  0  0  0  0  0
    0.6650   13.6260   -3.0300 C   0  0  1  0  0  0  0  0  0  0  0  0
    0.2290   15.6280   -4.0850 C   0  0  0  0  0  0  0  0  0  0  0  0
    0.3500   12.3540   -2.3040 C   0  0  0  0  0  0  0  0  0  0  0  0
    1.4260   13.5030   -4.3390 C   0  0  0  0  0  0  0  0  0  0  0  0
    1.4360   14.9740   -4.7640 C   0  0  0  0  0  0  0  0  0  0  0  0
    0.4130   12.3050   -1.1050 O   0  0  0  0  0  0  0  0  0  0  0  0
   -0.0130   11.2940   -3.0590 O   0  0  0  0  0  0  0  0  0  0  0  0
  1  2  1  0
  2  3  1  0
  2  4  2  0
  3  5  2  0
  4  6  1  0
  7  5  1  1
  6  7  1  0
  6  8  2  0
  8  9  1  0
  7 10  1  0
  9 10  2  0
 11  9  1  1
 11 12  1  0
 11 13  1  0
 12 14  1  6
 12 15  1  0
 13 16  1  0
 15 16  1  0
 14 17  2  0
 14 18  1  0
M  END
