x0900_0_A-x0591_0_A
     RDKit          3D

 19 20  0  0  0  0  0  0  0  0999 V2000
   -6.1510   14.7210   -0.0500 N   0  0  0  0  0  0  0  0  0  0  0  0
   -5.6260   13.8480   -0.7550 C   0  0  0  0  0  0  0  0  0  0  0  0
   -5.5790   12.5310   -0.3660 N   0  0  0  0  0  0  0  0  0  0  0  0
   -6.4540   14.0190    1.1430 C   0  0  1  0  0  0  0  0  0  0  0  0
   -5.2930   13.1520    1.4270 N   0  0  0  0  0  0  0  0  0  0  0  0
   -6.2140   14.8870    2.2980 C   0  0  0  0  0  0  0  0  0  0  0  0
   -4.9600   14.1820   -1.9950 C   0  0  0  0  0  0  0  0  0  0  0  0
   -6.7810   11.9210    0.2020 C   0  0  0  0  0  0  0  0  0  0  0  0
   -4.8410   15.4160    1.8630 C   0  0  0  0  0  0  0  0  0  0  0  0
   -4.1660   14.1210    1.4470 C   0  0  0  0  0  0  0  0  0  0  0  0
   -3.5790   14.2050   -1.8690 C   0  0  0  0  0  0  0  0  0  0  0  0
   -5.5980   14.4450   -3.1980 C   0  0  0  0  0  0  0  0  0  0  0  0
   -2.7950   14.4810   -2.9420 C   0  0  0  0  0  0  0  0  0  0  0  0
   -4.8040   14.7250   -4.3000 C   0  0  0  0  0  0  0  0  0  0  0  0
   -3.4160   14.7310   -4.1420 C   0  0  0  0  0  0  0  0  0  0  0  0
   -2.3940   15.0570   -5.4960 S   0  0  0  0  0  0  0  0  0  0  0  0
   -1.1700   15.9760   -4.8100 N   0  0  0  0  0  0  0  0  0  0  0  0
   -1.7790   13.8050   -5.8830 O   0  0  0  0  0  0  0  0  0  0  0  0
   -3.1060   15.9100   -6.4130 O   0  0  0  0  0  0  0  0  0  0  0  0
  1  2  2  3
  2  3  1  0
  4  1  1  6
  4  5  1  0
  4  6  1  0
  2  7  1  0
  3  8  1  0
  6  9  1  0
  5 10  1  0
  9 10  1  0
  7 11  2  0
  7 12  1  0
 11 13  1  0
 12 14  2  0
 13 15  2  0
 14 15  1  0
 15 16  1  0
 16 17  1  0
 16 18  2  0
 16 19  2  0
M  END
