x0900_1_A_α-x0471_0_A_α
     RDKit          3D

 27 29  0  0  0  0  0  0  0  0999 V2000
   -1.1800   10.2750   -9.4290 O   0  0  0  0  0  0  0  0  0  0  0  0
   -0.8410    9.7560   -8.3780 C   0  0  0  0  0  0  0  0  0  0  0  0
   -0.1610    8.5630   -8.2550 N   0  0  0  0  0  0  0  0  0  0  0  0
   -1.0530   10.2350   -6.9520 C   0  0  1  0  0  0  0  0  0  0  0  0
   -2.1090   11.3530   -6.7420 C   0  0  0  0  0  0  0  0  0  0  0  0
   -1.4110    8.8790   -6.3210 C   0  0  0  0  0  0  0  0  0  0  0  0
   -0.4050    7.9440   -6.9770 C   0  0  0  0  0  0  0  0  0  0  0  0
   -1.5670   12.4840   -5.8300 C   0  0  0  0  0  0  0  0  0  0  0  0
   -2.6650   13.3460   -5.1560 C   0  0  0  0  0  0  0  0  0  0  0  0
   -2.4920   13.5350   -3.6240 C   0  0  0  0  0  0  0  0  0  0  0  0
   -2.8230   14.9150   -2.9810 C   0  0  0  0  0  0  0  0  0  0  0  0
   -3.6630   14.9050   -1.6990 C   0  0  0  0  0  0  0  0  0  0  0  0
   -5.0590   14.8130   -1.8620 C   0  0  0  0  0  0  0  0  0  0  0  0
   -3.1290   14.9670   -0.3920 C   0  0  0  0  0  0  0  0  0  0  0  0
   -5.8520   14.7650   -0.7160 C   0  0  0  0  0  0  0  0  0  0  0  0
   -3.9530   14.9260    0.7480 C   0  0  0  0  0  0  0  0  0  0  0  0
   -7.2110   14.6610   -0.5490 N   0  0  0  0  0  0  0  0  0  0  0  0
   -5.3440   14.8150    0.5690 C   0  0  0  0  0  0  0  0  0  0  0  0
   -7.4770   14.6430    0.7970 C   0  0  0  0  0  0  0  0  0  0  0  0
   -6.3600   14.7390    1.4920 N   0  0  0  0  0  0  0  0  0  0  0  0
   -8.8610   14.5320    1.3380 C   0  0  0  0  0  0  0  0  0  0  0  0
   -8.7790   14.0940    2.7120 N   0  0  0  0  0  0  0  0  0  0  0  0
   -8.9480   15.0010    3.7350 C   0  0  0  0  0  0  0  0  0  0  0  0
   -9.3020   16.1600    3.5420 O   0  0  0  0  0  0  0  0  0  0  0  0
   -8.6690   14.4220    5.1200 C   0  0  0  0  0  0  0  0  0  0  0  0
   -9.8840   13.6560    5.6460 C   0  0  0  0  0  0  0  0  0  0  0  0
   -8.2790   15.5430    6.0760 C   0  0  0  0  0  0  0  0  0  0  0  0
  1  2  2  0
  2  3  1  0
  2  4  1  0
  4  5  1  6
  4  6  1  0
  3  7  1  0
  6  7  1  0
  5  8  1  0
  8  9  1  0
  9 10  1  0
 10 11  1  0
 11 12  1  0
 12 13  2  0
 12 14  1  0
 13 15  1  0
 14 16  2  0
 15 17  1  0
 15 18  2  0
 16 18  1  0
 17 19  1  0
 18 20  1  0
 19 20  2  0
 19 21  1  0
 21 22  1  0
 22 23  1  0
 23 24  2  0
 23 25  1  0
 25 26  1  0
 25 27  1  0
M  END
