x0905_0_A_α-x0631_0_A_β
     RDKit          3D

 21 22  0  0  0  0  0  0  0  0999 V2000
   -7.0350   15.0110   -0.7980 O   0  0  0  0  0  0  0  0  0  0  0  0
   -5.6910   15.0230   -0.5570 C   0  0  0  0  0  0  0  0  0  0  0  0
   -5.3770   15.0270    0.7050 N   0  0  0  0  0  0  0  0  0  0  0  0
   -4.7910   15.0270   -1.6070 C   0  0  0  0  0  0  0  0  0  0  0  0
   -4.0810   15.0540    0.8560 C   0  0  0  0  0  0  0  0  0  0  0  0
   -3.3490   15.0390   -1.6020 C   0  0  0  0  0  0  0  0  0  0  0  0
   -3.8060   15.0140   -3.0400 C   0  0  0  0  0  0  0  0  0  0  0  0
   -3.1580   15.0590   -0.1720 C   0  0  0  0  0  0  0  0  0  0  0  0
   -2.6680   15.1820   -4.0550 C   0  0  0  0  0  0  0  0  0  0  0  0
   -2.1150   13.8540   -4.6100 C   0  0  0  0  0  0  0  0  0  0  0  0
   -2.9100   13.1810   -5.7420 C   0  0  0  0  0  0  0  0  0  0  0  0
   -2.0780   12.2050   -6.5950 C   0  0  0  0  0  0  0  0  0  0  0  0
   -2.2560   10.7180   -6.2190 C   0  0  0  0  0  0  0  0  0  0  0  0
   -2.3560    9.7700   -7.4270 C   0  0  0  0  0  0  0  0  0  0  0  0
   -1.6910    8.3980   -7.2180 C   0  0  0  0  0  0  0  0  0  0  0  0
   -0.2380    8.4400   -6.7380 C   0  0  0  0  0  0  0  0  0  0  0  0
    0.6160    9.3580   -7.5080 N   0  0  0  0  0  0  0  0  0  0  0  0
    0.6130    9.1280   -8.9340 N   0  0  0  0  0  0  0  0  0  0  0  0
    0.3120   10.7310   -7.3130 N   0  0  0  0  0  0  0  0  0  0  0  0
    0.8840   10.4530   -9.4950 C   0  0  0  0  0  0  0  0  0  0  0  0
    1.0920   11.3060   -8.3450 N   0  0  0  0  0  0  0  0  0  0  0  0
  1  2  1  0
  2  3  2  0
  2  4  1  0
  3  5  1  0
  4  6  2  0
  6  7  1  0
  5  8  2  0
  6  8  1  0
  7  9  1  0
  9 10  1  0
 10 11  1  0
 11 12  1  0
 12 13  1  0
 13 14  1  0
 14 15  1  0
 15 16  1  0
 16 17  1  0
 17 18  1  0
 17 19  1  0
 18 20  1  0
 19 21  1  0
 20 21  1  0
M  END
