x0905_0_A-x0962_2_B
     RDKit          3D

 17 18  0  0  0  0  0  0  0  0999 V2000
   -6.8010   15.8880   -1.0470 O   0  0  0  0  0  0  0  0  0  0  0  0
   -5.9160   14.8060   -1.0670 C   0  0  2  0  0  0  0  0  0  0  0  0
   -5.5120   14.5500    0.3050 N   0  0  0  0  0  0  0  0  0  0  0  0
   -4.7560   15.1330   -1.9530 C   0  0  0  0  0  0  0  0  0  0  0  0
   -6.2760   13.4370    0.8740 C   0  0  0  0  0  0  0  0  0  0  0  0
   -4.2070   14.7920    0.7260 C   0  0  0  0  0  0  0  0  0  0  0  0
   -3.5040   15.2780   -1.5080 C   0  0  0  0  0  0  0  0  0  0  0  0
   -7.4890   13.9750    1.6330 C   0  0  0  0  0  0  0  0  0  0  0  0
   -3.2220   15.1320   -0.1040 C   0  0  0  0  0  0  0  0  0  0  0  0
   -8.6130   14.6500    0.8000 C   0  0  0  0  0  0  0  0  0  0  0  0
   -9.7020   15.3130    1.6700 C   0  0  2  0  0  0  0  0  0  0  0  0
  -10.2230   16.5910    1.2050 N   0  0  0  0  0  0  0  0  0  0  0  0
   -9.1660   15.3460    3.0510 C   0  0  0  0  0  0  0  0  0  0  0  0
   -9.0010   16.4250    3.8880 N   0  0  0  0  0  0  0  0  0  0  0  0
   -8.7020   14.2770    3.7840 C   0  0  0  0  0  0  0  0  0  0  0  0
   -8.4520   15.9560    5.0480 C   0  0  0  0  0  0  0  0  0  0  0  0
   -8.2630   14.6600    5.0090 N   0  0  0  0  0  0  0  0  0  0  0  0
  2  1  1  1
  2  3  1  0
  2  4  1  0
  3  5  1  0
  3  6  1  0
  4  7  2  0
  5  8  1  0
  6  9  2  0
  7  9  1  0
  8 10  1  0
 10 11  1  0
 11 12  1  6
 11 13  1  0
 13 14  1  0
 13 15  2  0
 14 16  1  0
 15 17  1  0
 16 17  2  0
M  END
