x0900_0_A-x0711_0_A
     RDKit          3D

 13 13  0  0  0  0  0  0  0  0999 V2000
   -6.6290   15.3750   -1.2090 O   0  0  0  0  0  0  0  0  0  0  0  0
   -5.4680   15.2100   -0.8670 C   0  0  0  0  0  0  0  0  0  0  0  0
   -4.3810   15.1280   -1.6970 N   0  0  0  0  0  0  0  0  0  0  0  0
   -4.9990   15.0280    0.5380 C   0  0  1  0  0  0  0  0  0  0  0  0
   -5.9220   13.9590    1.0880 C   0  0  0  0  0  0  0  0  0  0  0  0
   -3.4980   14.6930    0.3810 C   0  0  0  0  0  0  0  0  0  0  0  0
   -3.2830   14.4260   -1.1190 C   0  0  2  0  0  0  0  0  0  0  0  0
   -2.0270   14.9480   -1.6960 N   0  0  0  0  0  0  0  0  0  0  0  0
   -6.7010   14.4740    2.1970 N   0  0  0  0  0  0  0  0  0  0  0  0
   -0.9350   14.0540   -2.6440 S   0  0  0  0  0  0  0  0  0  0  0  0
   -1.9760   13.0360   -3.6620 C   0  0  0  0  0  0  0  0  0  0  0  0
   -0.2740   14.9960   -3.5300 O   0  0  0  0  0  0  0  0  0  0  0  0
   -0.1560   13.2040   -1.7730 O   0  0  0  0  0  0  0  0  0  0  0  0
  1  2  2  0
  2  3  1  0
  2  4  1  0
  4  5  1  6
  4  6  1  0
  3  7  1  0
  6  7  1  0
  7  8  1  6
  5  9  1  0
 10  8  1  0
 10 11  1  0
 10 12  2  0
 10 13  2  0
M  END
