x0905_1_B-x0598_0_A
     RDKit          3D

 20 21  0  0  0  0  0  0  0  0999 V2000
   13.8180   19.3360   13.0730 O   0  0  0  0  0  0  0  0  0  0  0  0
   13.6460   20.5820   13.5870 C   0  0  0  0  0  0  0  0  0  0  0  0
   12.5030   20.7630   14.2680 N   0  0  0  0  0  0  0  0  0  0  0  0
   14.6060   21.5430   13.3900 C   0  0  0  0  0  0  0  0  0  0  0  0
   12.3120   22.0150   14.7880 C   0  0  0  0  0  0  0  0  0  0  0  0
   14.3800   22.8080   13.9310 C   0  0  0  0  0  0  0  0  0  0  0  0
   13.2070   23.0860   14.6560 C   0  0  0  0  0  0  0  0  0  0  0  0
   13.0190   24.4950   15.2230 C   0  0  0  0  0  0  0  0  0  0  0  0
   11.6280   24.9570   15.4610 N   0  0  0  0  0  0  0  0  0  0  0  0
   10.9790   25.9220   14.4450 S   0  0  2  0  0  0  0  0  0  0  0  0
    9.5870   26.6950   15.0700 N   0  0  0  0  0  0  0  0  0  0  0  0
   10.4660   24.9490   13.0840 C   0  0  0  0  0  0  0  0  0  0  0  0
   11.6370   27.0330   13.8380 O   0  0  0  0  0  0  0  0  0  0  0  0
    8.9640   26.7650   16.4130 C   0  0  0  0  0  0  0  0  0  0  0  0
    7.4030   26.5650   16.3890 C   0  0  0  0  0  0  0  0  0  0  0  0
    6.7860   25.6340   17.3980 C   0  0  0  0  0  0  0  0  0  0  0  0
    6.5280   27.8080   16.2820 C   0  0  0  0  0  0  0  0  0  0  0  0
    5.2420   25.6310   17.3500 C   0  0  0  0  0  0  0  0  0  0  0  0
    5.1100   27.4570   15.8070 C   0  0  0  0  0  0  0  0  0  0  0  0
    4.7310   26.0660   16.0600 N   0  0  0  0  0  0  0  0  0  0  0  0
  1  2  1  0
  2  3  2  0
  2  4  1  0
  3  5  1  0
  4  6  2  0
  5  7  2  0
  6  7  1  0
  7  8  1  0
  8  9  1  0
  9 10  2  0
 10 11  1  0
 10 12  1  6
 10 13  2  0
 11 14  1  0
 14 15  1  0
 15 16  1  0
 15 17  1  0
 16 18  1  0
 17 19  1  0
 18 20  1  0
 19 20  1  0
M  END
