x0905_0_A-x0950_1_A
     RDKit          3D

 16 16  0  0  0  0  0  0  0  0999 V2000
   -7.0000   15.2680   -0.6750 O   0  0  0  0  0  0  0  0  0  0  0  0
   -5.6550   15.1680   -0.5330 C   0  0  0  0  0  0  0  0  0  0  0  0
   -5.2680   14.9690    0.7300 N   0  0  0  0  0  0  0  0  0  0  0  0
   -4.8190   15.2660   -1.6170 C   0  0  0  0  0  0  0  0  0  0  0  0
   -3.9340   14.8510    0.9290 C   0  0  0  0  0  0  0  0  0  0  0  0
   -3.4500   15.1410   -1.3840 C   0  0  0  0  0  0  0  0  0  0  0  0
   -2.9760   14.9210   -0.0780 C   0  0  0  0  0  0  0  0  0  0  0  0
   -1.5010   14.7620    0.2470 C   0  0  0  0  0  0  0  0  0  0  0  0
   -0.6130   14.6240   -1.0040 C   0  0  0  0  0  0  0  0  0  0  0  0
    0.0930   13.2750   -1.0240 C   0  0  0  0  0  0  0  0  0  0  0  0
    1.0170   13.1760   -2.1290 O   0  0  0  0  0  0  0  0  0  0  0  0
    0.8410   12.0960   -2.9510 C   0  0  0  0  0  0  0  0  0  0  0  0
    1.3620   12.3650   -4.3740 C   0  0  2  0  0  0  0  0  0  0  0  0
    0.3350   11.0320   -2.6130 O   0  0  0  0  0  0  0  0  0  0  0  0
    1.3440   13.8390   -4.7370 C   0  0  0  0  0  0  0  0  0  0  0  0
    0.5620   11.6860   -5.3460 O   0  0  0  0  0  0  0  0  0  0  0  0
  1  2  1  0
  2  3  2  0
  2  4  1  0
  3  5  1  0
  4  6  2  0
  5  7  2  0
  6  7  1  0
  7  8  1  0
  8  9  1  0
  9 10  1  0
 10 11  1  0
 11 12  1  0
 12 13  1  0
 12 14  2  0
 13 15  1  6
 13 16  1  0
M  END
