x0905_1_B_α-x0933_1_A_α
     RDKit          3D

 17 18  0  0  0  0  0  0  0  0999 V2000
   13.6550   19.5490   12.0890 O   0  0  0  0  0  0  0  0  0  0  0  0
   13.1830   20.5020   12.9540 C   0  0  0  0  0  0  0  0  0  0  0  0
   12.3010   20.1170   13.9020 N   0  0  0  0  0  0  0  0  0  0  0  0
   13.6330   21.7840   12.8020 C   0  0  0  0  0  0  0  0  0  0  0  0
   11.8480   21.1100   14.7550 C   0  0  0  0  0  0  0  0  0  0  0  0
   13.1590   22.7590   13.6670 C   0  0  0  0  0  0  0  0  0  0  0  0
   12.2450   22.4750   14.6820 C   0  0  0  0  0  0  0  0  0  0  0  0
   11.8300   23.7050   15.5430 C   0  0  0  0  0  0  0  0  0  0  0  0
   10.8140   23.7160   16.7440 C   0  0  0  0  0  0  0  0  0  0  0  0
    9.8020   24.9460   16.7490 C   0  0  0  0  0  0  0  0  0  0  0  0
    8.2460   24.6700   16.8680 C   0  0  2  0  0  0  0  0  0  0  0  0
    7.2890   25.6170   16.0610 C   0  0  0  0  0  0  0  0  0  0  0  0
    7.8050   24.7410   18.2890 C   0  0  0  0  0  0  0  0  0  0  0  0
    5.9580   25.7380   16.5960 N   0  0  0  0  0  0  0  0  0  0  0  0
    6.4070   24.4490   18.3260 N   0  0  0  0  0  0  0  0  0  0  0  0
    5.7110   24.5140   17.0880 C   0  0  1  0  0  0  0  0  0  0  0  0
    4.3300   24.1680   17.0690 N   0  0  0  0  0  0  0  0  0  0  0  0
  1  2  1  0
  2  3  2  0
  2  4  1  0
  3  5  1  0
  4  6  2  0
  5  7  2  0
  6  7  1  0
  7  8  1  0
  8  9  1  0
  9 10  1  0
 11 10  1  1
 11 12  1  0
 11 13  1  0
 12 14  1  0
 13 15  1  0
 14 16  1  0
 15 16  1  0
 16 17  1  1
M  END
