x0900_0_A_α-x0591_0_A_α
     RDKit          3D

 19 20  0  0  0  0  0  0  0  0999 V2000
   -5.3940   14.9460   -0.0620 N   0  0  0  0  0  0  0  0  0  0  0  0
   -6.1760   14.5290   -0.9050 C   0  0  0  0  0  0  0  0  0  0  0  0
   -7.4410   14.0270   -0.7080 N   0  0  0  0  0  0  0  0  0  0  0  0
   -5.6180   14.9370    1.3050 C   0  0  1  0  0  0  0  0  0  0  0  0
   -5.3770   13.5860    1.7120 N   0  0  0  0  0  0  0  0  0  0  0  0
   -4.4470   15.7060    1.8550 C   0  0  0  0  0  0  0  0  0  0  0  0
   -5.4200   14.5840   -2.1520 C   0  0  0  0  0  0  0  0  0  0  0  0
   -8.0160   14.0860    0.6320 C   0  0  0  0  0  0  0  0  0  0  0  0
   -3.3000   14.7800    1.5260 C   0  0  0  0  0  0  0  0  0  0  0  0
   -3.9560   13.4180    1.4140 C   0  0  0  0  0  0  0  0  0  0  0  0
   -4.0390   14.6090   -1.9230 C   0  0  0  0  0  0  0  0  0  0  0  0
   -5.9430   14.6030   -3.4300 C   0  0  0  0  0  0  0  0  0  0  0  0
   -3.1570   14.6530   -2.9660 C   0  0  0  0  0  0  0  0  0  0  0  0
   -5.0500   14.6450   -4.4970 C   0  0  0  0  0  0  0  0  0  0  0  0
   -3.6740   14.6700   -4.2420 C   0  0  0  0  0  0  0  0  0  0  0  0
   -2.5510   14.7280   -5.5680 S   0  0  0  0  0  0  0  0  0  0  0  0
   -1.3140   15.6740   -4.9360 N   0  0  0  0  0  0  0  0  0  0  0  0
   -1.9850   13.4150   -5.7740 O   0  0  0  0  0  0  0  0  0  0  0  0
   -3.1800   15.4950   -6.6140 O   0  0  0  0  0  0  0  0  0  0  0  0
  1  2  2  3
  2  3  1  0
  4  1  1  6
  4  5  1  0
  4  6  1  0
  2  7  1  0
  3  8  1  0
  6  9  1  0
  5 10  1  0
  9 10  1  0
  7 11  2  0
  7 12  1  0
 11 13  1  0
 12 14  2  0
 13 15  2  0
 14 15  1  0
 15 16  1  0
 16 17  1  0
 16 18  2  0
 16 19  2  0
M  END
