x0905_0_A_α-6WOJ_0_C_δ
     RDKit          3D

 16 18  0  0  0  0  0  0  0  0999 V2000
   -7.4140   14.9490    0.1580 O   0  0  0  0  0  0  0  0  0  0  0  0
   -6.1350   15.0700   -0.2580 C   0  0  0  0  0  0  0  0  0  0  0  0
   -5.2190   14.5480    0.5790 N   0  0  0  0  0  0  0  0  0  0  0  0
   -5.8770   15.6820   -1.4550 C   0  0  0  0  0  0  0  0  0  0  0  0
   -3.9390   14.6610    0.1340 C   0  0  0  0  0  0  0  0  0  0  0  0
   -4.5650   15.7770   -1.8370 C   0  0  0  0  0  0  0  0  0  0  0  0
   -3.6080   15.2730   -1.0370 C   0  0  0  0  0  0  0  0  0  0  0  0
   -2.7430   14.0800    0.8060 C   0  0  1  0  0  0  0  0  0  0  0  0
   -2.0700   13.5310   -0.4750 C   0  0  2  0  0  0  0  0  0  0  0  0
   -1.7180   14.9040    1.4860 N   0  0  0  0  0  0  0  0  0  0  0  0
   -1.0160   14.4990   -0.8790 C   0  0  2  0  0  0  0  0  0  0  0  0
   -2.9030   13.5020   -1.7140 N   0  0  0  0  0  0  0  0  0  0  0  0
   -0.3810   14.3090    1.3250 C   0  0  0  0  0  0  0  0  0  0  0  0
   -0.7800   14.2520   -2.2830 N   0  0  0  0  0  0  0  0  0  0  0  0
   -2.1570   14.1990   -2.7600 C   0  0  0  0  0  0  0  0  0  0  0  0
    0.1030   14.4110   -0.0370 N   0  0  0  0  0  0  0  0  0  0  0  0
  1  2  1  0
  2  3  2  0
  2  4  1  0
  3  5  1  0
  4  6  2  0
  5  7  2  0
  6  7  1  0
  8  5  1  6
  8  9  1  0
  8 10  1  0
  9 11  1  0
  9 12  1  6
 10 13  1  0
 11 14  1  6
 12 15  1  0
 14 15  1  0
 11 16  1  0
 13 16  1  0
M  END
