x0905_1_B_α-x0216_0_A_α
     RDKit          3D

 29 30  0  0  0  0  0  0  0  0999 V2000
   13.9360   19.7730   11.5600 O   0  0  0  0  0  0  0  0  0  0  0  0
   13.3990   20.5050   12.5770 C   0  0  0  0  0  0  0  0  0  0  0  0
   12.5930   19.7470   13.3490 N   0  0  0  0  0  0  0  0  0  0  0  0
   13.6460   21.8770   12.7950 C   0  0  0  0  0  0  0  0  0  0  0  0
   14.5270   22.8040   11.9580 C   0  0  0  0  0  0  0  0  0  0  0  0
   11.9880   20.3470   14.3900 C   0  0  0  0  0  0  0  0  0  0  0  0
   12.9920   22.4470   13.8990 C   0  0  0  0  0  0  0  0  0  0  0  0
   15.9380   23.1480   12.4540 C   0  0  0  0  0  0  0  0  0  0  0  0
   12.1570   21.6790   14.7020 C   0  0  0  0  0  0  0  0  0  0  0  0
   16.8260   23.6350   11.2930 C   0  0  0  0  0  0  0  0  0  0  0  0
   17.3690   25.0660   11.3870 C   0  0  0  0  0  0  0  0  0  0  0  0
   17.7610   25.6260   10.0090 C   0  0  0  0  0  0  0  0  0  0  0  0
   18.7170   26.8360   10.0480 C   0  0  0  0  0  0  0  0  0  0  0  0
   18.5010   27.8880    8.9470 C   0  0  0  0  0  0  0  0  0  0  0  0
   19.0990   27.4510    7.6960 N   0  0  0  0  0  0  0  0  0  0  0  0
   18.9410   28.0810    6.5770 C   0  0  0  0  0  0  0  0  0  0  0  0
   18.2350   29.2310    6.3300 N   0  0  0  0  0  0  0  0  0  0  0  0
   19.5120   27.5810    5.4060 N   0  0  0  0  0  0  0  0  0  0  0  0
   17.2150   29.8280    7.1760 C   0  0  0  0  0  0  0  0  0  0  0  0
   18.9250   27.8820    4.1080 C   0  0  0  0  0  0  0  0  0  0  0  0
   20.9130   27.1660    5.3050 C   0  0  1  0  0  0  0  0  0  0  0  0
   15.8470   29.2450    6.8390 C   0  0  0  0  0  0  0  0  0  0  0  0
   17.2120   31.3340    6.9380 C   0  0  0  0  0  0  0  0  0  0  0  0
   21.9480   27.8600    6.1740 C   0  0  0  0  0  0  0  0  0  0  0  0
   21.2400   25.6960    5.3760 C   0  0  0  0  0  0  0  0  0  0  0  0
   23.2340   27.4540    5.4570 C   0  0  0  0  0  0  0  0  0  0  0  0
   22.8620   25.8790    4.6770 S   0  0  0  0  0  0  0  0  0  0  0  0
   22.6800   26.1280    3.2840 O   0  0  0  0  0  0  0  0  0  0  0  0
   23.7620   24.8660    5.1700 O   0  0  0  0  0  0  0  0  0  0  0  0
  1  2  1  0
  2  3  2  0
  2  4  1  0
  4  5  1  0
  3  6  1  0
  4  7  2  0
  5  8  1  0
  6  9  2  0
  7  9  1  0
  8 10  1  0
 10 11  1  0
 11 12  1  0
 12 13  1  0
 13 14  1  0
 14 15  1  0
 15 16  2  3
 16 17  1  0
 16 18  1  0
 17 19  1  0
 18 20  1  0
 21 18  1  1
 19 22  1  0
 19 23  1  0
 21 24  1  0
 21 25  1  0
 24 26  1  0
 27 25  1  0
 26 27  1  0
 27 28  2  0
 27 29  2  0
M  END
