x0900_1_A-x0628_0_A
     RDKit          3D

 18 19  0  0  0  0  0  0  0  0999 V2000
   -0.8500   10.1260  -10.1630 O   0  0  0  0  0  0  0  0  0  0  0  0
   -0.7620    9.5660   -9.0880 C   0  0  0  0  0  0  0  0  0  0  0  0
    0.3910    9.0630   -8.5420 N   0  0  0  0  0  0  0  0  0  0  0  0
   -1.8800    9.2950   -8.1320 C   0  0  0  0  0  0  0  0  0  0  0  0
   -1.3060    8.1820   -7.2480 C   0  0  1  0  0  0  0  0  0  0  0  0
    0.1130    7.9330   -7.7260 C   0  0  0  0  0  0  0  0  0  0  0  0
   -1.2600    8.5420   -5.8080 C   0  0  0  0  0  0  0  0  0  0  0  0
   -1.1320    9.9910   -5.5530 C   0  0  0  0  0  0  0  0  0  0  0  0
   -2.1380   10.6740   -4.9590 N   0  0  0  0  0  0  0  0  0  0  0  0
   -0.0510   10.7220   -5.8530 N   0  0  0  0  0  0  0  0  0  0  0  0
   -0.4030   11.9300   -5.3860 N   0  0  0  0  0  0  0  0  0  0  0  0
   -1.6670   11.8930   -4.8530 C   0  0  0  0  0  0  0  0  0  0  0  0
   -2.3690   13.0390   -4.2530 C   0  0  0  0  0  0  0  0  0  0  0  0
    0.5260   13.0350   -5.4890 C   0  0  0  0  0  0  0  0  0  0  0  0
    1.5970   12.9800   -4.3970 C   0  0  0  0  0  0  0  0  0  0  0  0
    1.0940   12.3090   -3.1360 C   0  0  0  0  0  0  0  0  0  0  0  0
    0.4310   11.2850   -3.0840 O   0  0  0  0  0  0  0  0  0  0  0  0
    1.4410   12.9810   -2.0190 O   0  0  0  0  0  0  0  0  0  0  0  0
  1  2  2  0
  2  3  1  0
  2  4  1  0
  4  5  1  0
  3  6  1  0
  5  6  1  0
  5  7  1  1
  7  8  1  0
  8  9  1  0
  8 10  2  0
 10 11  1  0
  9 12  2  0
 11 12  1  0
 12 13  1  0
 11 14  1  0
 14 15  1  0
 15 16  1  0
 16 17  2  0
 16 18  1  0
M  END
