x0900_1_A-x0676_0_B
     RDKit          3D

 20 22  0  0  0  0  0  0  0  0999 V2000
   -1.0540   10.1150   -9.9090 O   0  0  0  0  0  0  0  0  0  0  0  0
   -0.9760    9.4870   -8.8710 C   0  0  0  0  0  0  0  0  0  0  0  0
    0.1440    8.8390   -8.3800 N   0  0  0  0  0  0  0  0  0  0  0  0
   -2.1090    9.2840   -7.8830 C   0  0  0  0  0  0  0  0  0  0  0  0
    0.8780    7.8790   -9.1830 C   0  0  0  0  0  0  0  0  0  0  0  0
   -1.5190    8.3120   -6.8670 C   0  0  0  0  0  0  0  0  0  0  0  0
   -0.0460    8.6240   -6.9650 C   0  0  0  0  0  0  0  0  0  0  0  0
    1.5710    8.4560  -10.3450 N   0  0  0  0  0  0  0  0  0  0  0  0
    2.7210    7.9280  -10.6370 C   0  0  0  0  0  0  0  0  0  0  0  0
    3.3280    6.8050   -9.8340 C   0  0  0  0  0  0  0  0  0  0  0  0
    3.6830    8.1590  -11.6470 N   0  0  0  0  0  0  0  0  0  0  0  0
    4.9500    7.7590  -11.2110 N   0  0  0  0  0  0  0  0  0  0  0  0
    4.7650    7.0240  -10.1670 C   0  0  0  0  0  0  0  0  0  0  0  0
    3.7350    9.2020  -12.6260 C   0  0  0  0  0  0  0  0  0  0  0  0
    5.8710    6.4470   -9.3580 C   0  0  0  0  0  0  0  0  0  0  0  0
    2.8210   10.2710  -12.6990 C   0  0  0  0  0  0  0  0  0  0  0  0
    4.7630    9.2000  -13.5930 C   0  0  0  0  0  0  0  0  0  0  0  0
    2.9320   11.2740  -13.6760 C   0  0  0  0  0  0  0  0  0  0  0  0
    4.8770   10.1950  -14.5700 C   0  0  0  0  0  0  0  0  0  0  0  0
    3.9580   11.2370  -14.6110 C   0  0  0  0  0  0  0  0  0  0  0  0
  1  2  2  0
  2  3  1  0
  2  4  1  0
  3  5  1  0
  4  6  1  0
  3  7  1  0
  6  7  1  0
  5  8  1  0
  8  9  2  3
  9 10  1  0
  9 11  1  0
 11 12  1  0
 10 13  1  0
 12 13  2  0
 11 14  1  0
 13 15  1  0
 14 16  2  0
 14 17  1  0
 16 18  1  0
 17 19  2  0
 18 20  2  0
 19 20  1  0
M  END
