x0905_0_A-x0371_0_A
     RDKit          3D

 19 21  0  0  0  0  0  0  0  0999 V2000
   -6.3360   16.4140   -1.0770 O   0  0  0  0  0  0  0  0  0  0  0  0
   -5.9020   15.1680   -0.6500 C   0  0  2  0  0  0  0  0  0  0  0  0
   -5.1590   15.3920    0.6210 N   0  0  0  0  0  0  0  0  0  0  0  0
   -5.0130   14.6980   -1.7520 C   0  0  0  0  0  0  0  0  0  0  0  0
   -7.1520   14.4120   -0.3770 N   0  0  0  0  0  0  0  0  0  0  0  0
   -3.7870   15.3350    0.6690 C   0  0  0  0  0  0  0  0  0  0  0  0
   -3.6730   14.6190   -1.6190 C   0  0  0  0  0  0  0  0  0  0  0  0
   -5.8990   14.7240    1.5340 N   0  0  0  0  0  0  0  0  0  0  0  0
   -7.0500   14.2850    0.9300 C   0  0  0  0  0  0  0  0  0  0  0  0
   -8.1240   13.6900    1.7910 C   0  0  0  0  0  0  0  0  0  0  0  0
   -3.0340   14.9750   -0.3700 C   0  0  0  0  0  0  0  0  0  0  0  0
   -7.8750   14.2590    3.1070 N   0  0  0  0  0  0  0  0  0  0  0  0
   -8.6490   15.3030    3.6110 C   0  0  0  0  0  0  0  0  0  0  0  0
   -9.3210   16.0350    2.8730 O   0  0  0  0  0  0  0  0  0  0  0  0
   -8.5960   15.4380    5.0470 C   0  0  0  0  0  0  0  0  0  0  0  0
   -8.0340   14.4050    5.7420 O   0  0  0  0  0  0  0  0  0  0  0  0
   -8.9970   16.4140    5.9450 C   0  0  0  0  0  0  0  0  0  0  0  0
   -8.6570   15.9410    7.2360 C   0  0  0  0  0  0  0  0  0  0  0  0
   -8.0710   14.7120    7.0560 C   0  0  0  0  0  0  0  0  0  0  0  0
  2  1  1  6
  2  3  1  0
  2  4  1  0
  2  5  1  0
  3  6  1  0
  4  7  2  0
  3  8  1  0
  5  9  2  0
  8  9  1  0
  9 10  1  0
  6 11  2  0
  7 11  1  0
 10 12  1  0
 12 13  1  0
 13 14  2  0
 13 15  1  0
 15 16  1  0
 15 17  2  0
 17 18  1  0
 16 19  1  0
 18 19  2  0
M  END
