x0900_1_A_α-x0969_0_A_α
     RDKit          3D

 21 23  0  0  0  0  0  0  0  0999 V2000
   -0.9760    9.7850   -9.7490 O   0  0  0  0  0  0  0  0  0  0  0  0
   -0.9830    9.4150   -8.5870 C   0  0  0  0  0  0  0  0  0  0  0  0
   -0.1570    8.4530   -8.0340 N   0  0  0  0  0  0  0  0  0  0  0  0
   -1.8770    9.9120   -7.4800 C   0  0  0  0  0  0  0  0  0  0  0  0
   -0.9520    9.6670   -6.2870 C   0  0  2  0  0  0  0  0  0  0  0  0
   -0.4540    8.2730   -6.6370 C   0  0  0  0  0  0  0  0  0  0  0  0
   -1.5650    9.8570   -4.8840 C   0  0  0  0  0  0  0  0  0  0  0  0
   -2.3570   11.1730   -4.6880 C   0  0  0  0  0  0  0  0  0  0  0  0
   -1.8570   12.1300   -3.5730 C   0  0  0  0  0  0  0  0  0  0  0  0
   -2.5190   13.5310   -3.6570 C   0  0  0  0  0  0  0  0  0  0  0  0
   -2.2490   14.5520   -2.5170 C   0  0  0  0  0  0  0  0  0  0  0  0
   -3.3560   14.6870   -1.4880 C   0  0  0  0  0  0  0  0  0  0  0  0
   -4.6490   14.6690   -1.8670 C   0  0  0  0  0  0  0  0  0  0  0  0
   -3.0060   14.8150   -0.0610 C   0  0  0  0  0  0  0  0  0  0  0  0
   -5.6860   14.7160   -0.8990 C   0  0  0  0  0  0  0  0  0  0  0  0
   -3.9950   14.8690    0.8580 C   0  0  0  0  0  0  0  0  0  0  0  0
   -6.9920   14.6750   -1.0080 N   0  0  0  0  0  0  0  0  0  0  0  0
   -5.3240   14.7980    0.4360 N   0  0  0  0  0  0  0  0  0  0  0  0
   -6.5390   14.7820    1.1170 C   0  0  0  0  0  0  0  0  0  0  0  0
   -7.5260   14.7130    0.2580 N   0  0  0  0  0  0  0  0  0  0  0  0
   -6.6650   14.8370    2.4620 N   0  0  0  0  0  0  0  0  0  0  0  0
  1  2  2  0
  2  3  1  0
  2  4  1  0
  4  5  1  0
  3  6  1  0
  5  6  1  0
  5  7  1  1
  7  8  1  0
  8  9  1  0
  9 10  1  0
 10 11  1  0
 11 12  1  0
 12 13  2  0
 12 14  1  0
 13 15  1  0
 14 16  2  0
 15 17  2  0
 15 18  1  0
 16 18  1  0
 18 19  1  0
 17 20  1  0
 19 20  2  0
 19 21  1  0
M  END
