x0900_0_A-x1012_0_A
     RDKit          3D

 21 22  0  0  0  0  0  0  0  0999 V2000
   -7.0450   15.0190   -0.6080 O   0  0  0  0  0  0  0  0  0  0  0  0
   -5.8830   15.0000   -0.2370 C   0  0  0  0  0  0  0  0  0  0  0  0
   -4.7450   15.2270   -1.0100 N   0  0  0  0  0  0  0  0  0  0  0  0
   -5.4200   14.7150    1.1760 C   0  0  0  0  0  0  0  0  0  0  0  0
   -4.7760   14.9820   -2.4440 C   0  0  0  0  0  0  0  0  0  0  0  0
   -4.0180   15.2950    1.1650 C   0  0  0  0  0  0  0  0  0  0  0  0
   -3.5780   14.9080   -0.2240 C   0  0  0  0  0  0  0  0  0  0  0  0
   -3.3890   15.0530   -3.0790 C   0  0  0  0  0  0  0  0  0  0  0  0
   -3.3430   15.5810   -4.5200 C   0  0  0  0  0  0  0  0  0  0  0  0
   -2.6330   16.8690   -4.6020 N   0  0  0  0  0  0  0  0  0  0  0  0
   -1.3730   16.8270   -4.7970 C   0  0  0  0  0  0  0  0  0  0  0  0
   -0.6890   17.9970   -4.8940 N   0  0  0  0  0  0  0  0  0  0  0  0
   -0.5580   15.7430   -4.9290 N   0  0  0  0  0  0  0  0  0  0  0  0
   -1.1880   14.4440   -5.1810 C   0  0  0  0  0  0  0  0  0  0  0  0
    0.8330   15.7230   -4.4600 C   0  0  0  0  0  0  0  0  0  0  0  0
   -1.1180   13.5840   -3.9440 C   0  0  0  0  0  0  0  0  0  0  0  0
    1.0700   14.7060   -3.3340 C   0  0  0  0  0  0  0  0  0  0  0  0
    0.3420   13.3670   -3.5660 C   0  0  0  0  0  0  0  0  0  0  0  0
    0.4510   12.4390   -2.3770 C   0  0  0  0  0  0  0  0  0  0  0  0
    0.4180   11.1350   -2.6960 O   0  0  0  0  0  0  0  0  0  0  0  0
    0.5520   12.7780   -1.2080 O   0  0  0  0  0  0  0  0  0  0  0  0
  1  2  2  0
  2  3  1  0
  2  4  1  0
  3  5  1  0
  4  6  1  0
  3  7  1  0
  6  7  1  0
  5  8  1  0
  8  9  1  0
  9 10  1  0
 10 11  2  3
 11 12  1  0
 11 13  1  0
 13 14  1  0
 13 15  1  0
 14 16  1  0
 15 17  1  0
 16 18  1  0
 17 18  1  0
 18 19  1  0
 19 20  1  0
 19 21  2  0
M  END
