x0905_1_B-x0933_1_A
     RDKit          3D

 17 18  0  0  0  0  0  0  0  0999 V2000
   13.6450   19.5430   12.0880 O   0  0  0  0  0  0  0  0  0  0  0  0
   13.1740   20.4980   12.9550 C   0  0  0  0  0  0  0  0  0  0  0  0
   12.2940   20.1170   13.9070 N   0  0  0  0  0  0  0  0  0  0  0  0
   13.6290   21.7810   12.8010 C   0  0  0  0  0  0  0  0  0  0  0  0
   11.8460   21.1130   14.7590 C   0  0  0  0  0  0  0  0  0  0  0  0
   13.1620   22.7590   13.6640 C   0  0  0  0  0  0  0  0  0  0  0  0
   12.2470   22.4760   14.6830 C   0  0  0  0  0  0  0  0  0  0  0  0
   11.8370   23.7090   15.5460 C   0  0  0  0  0  0  0  0  0  0  0  0
   10.8160   23.7160   16.7420 C   0  0  0  0  0  0  0  0  0  0  0  0
    9.8040   24.9450   16.7490 C   0  0  0  0  0  0  0  0  0  0  0  0
    8.2500   24.6690   16.8670 C   0  0  2  0  0  0  0  0  0  0  0  0
    7.2890   25.6080   16.0540 C   0  0  0  0  0  0  0  0  0  0  0  0
    7.8080   24.7360   18.2880 C   0  0  0  0  0  0  0  0  0  0  0  0
    5.9630   25.7380   16.5970 N   0  0  0  0  0  0  0  0  0  0  0  0
    6.4060   24.4480   18.3280 N   0  0  0  0  0  0  0  0  0  0  0  0
    5.7170   24.5170   17.0890 C   0  0  1  0  0  0  0  0  0  0  0  0
    4.3380   24.1670   17.0620 N   0  0  0  0  0  0  0  0  0  0  0  0
  1  2  1  0
  2  3  2  0
  2  4  1  0
  3  5  1  0
  4  6  2  0
  5  7  2  0
  6  7  1  0
  7  8  1  0
  8  9  1  0
  9 10  1  0
 11 10  1  1
 11 12  1  0
 11 13  1  0
 12 14  1  0
 13 15  1  0
 14 16  1  0
 15 16  1  0
 16 17  1  1
M  END
