x0900_0_A_α-MAC-194_0_A_α
     RDKit          3D

 10 11  0  0  0  0  0  0  0  0999 V2000
   -7.2280   14.4130    2.6900 N   0  0  0  0  0  0  0  0  0  0  0  0
   -6.8710   14.6550    1.3620 C   0  0  0  0  0  0  0  0  0  0  0  0
   -7.8880   14.6630    0.4840 N   0  0  0  0  0  0  0  0  0  0  0  0
   -5.5750   14.8900    0.9290 C   0  0  0  0  0  0  0  0  0  0  0  0
   -4.2950   14.9370    1.6610 C   0  0  0  0  0  0  0  0  0  0  0  0
   -7.6070   14.9140   -0.8240 C   0  0  0  0  0  0  0  0  0  0  0  0
   -5.3290   15.1460   -0.4220 C   0  0  0  0  0  0  0  0  0  0  0  0
   -3.9670   15.3780   -0.7300 N   0  0  0  0  0  0  0  0  0  0  0  0
   -6.3510   15.1640   -1.3300 C   0  0  0  0  0  0  0  0  0  0  0  0
   -3.4050   15.6000    0.6150 C   0  0  0  0  0  0  0  0  0  0  0  0
  1  2  1  0
  2  3  2  0
  2  4  1  0
  4  5  1  0
  3  6  1  0
  4  7  2  0
  7  8  1  0
  6  9  2  0
  7  9  1  0
  5 10  1  0
  8 10  1  0
M  END
