x0900_1_A-x0950_1_A
     RDKit          3D

 13 13  0  0  0  0  0  0  0  0999 V2000
   -0.8290    9.8680   -9.6680 O   0  0  0  0  0  0  0  0  0  0  0  0
   -0.9210    9.5500   -8.4960 C   0  0  0  0  0  0  0  0  0  0  0  0
    0.1290    9.3690   -7.6200 N   0  0  0  0  0  0  0  0  0  0  0  0
   -2.1980    9.2920   -7.7350 C   0  0  0  0  0  0  0  0  0  0  0  0
   -1.7060    8.5150   -6.5160 C   0  0  0  0  0  0  0  0  0  0  0  0
   -0.3230    9.0950   -6.2700 C   0  0  2  0  0  0  0  0  0  0  0  0
   -0.3350   10.3150   -5.2950 C   0  0  0  0  0  0  0  0  0  0  0  0
    0.5200   11.4070   -5.7160 O   0  0  0  0  0  0  0  0  0  0  0  0
    1.1110   12.2870   -4.7180 C   0  0  1  0  0  0  0  0  0  0  0  0
    0.7490   13.7160   -5.0970 C   0  0  0  0  0  0  0  0  0  0  0  0
    0.7270   12.0380   -3.2490 C   0  0  0  0  0  0  0  0  0  0  0  0
    0.0130   11.1570   -2.7980 O   0  0  0  0  0  0  0  0  0  0  0  0
    1.2780   12.9370   -2.4050 O   0  0  0  0  0  0  0  0  0  0  0  0
  1  2  2  0
  2  3  1  0
  2  4  1  0
  4  5  1  0
  3  6  1  0
  5  6  1  0
  6  7  1  1
  7  8  1  0
  8  9  1  0
  9 10  1  6
  9 11  1  0
 11 12  2  0
 11 13  1  0
M  END
