x0905_0_A_α-x0689_0_A_α
     RDKit          3D

 14 15  0  0  0  0  0  0  0  0999 V2000
   -7.7110   14.8920   -0.3740 O   0  0  0  0  0  0  0  0  0  0  0  0
   -6.3910   15.0630   -0.5770 C   0  0  0  0  0  0  0  0  0  0  0  0
   -5.6690   14.9460    0.5470 N   0  0  0  0  0  0  0  0  0  0  0  0
   -5.9160   15.3260   -1.8410 C   0  0  0  0  0  0  0  0  0  0  0  0
   -4.3560   15.1030    0.3760 C   0  0  0  0  0  0  0  0  0  0  0  0
   -4.5640   15.4840   -1.9800 C   0  0  0  0  0  0  0  0  0  0  0  0
   -3.7900   15.3710   -0.8620 C   0  0  0  0  0  0  0  0  0  0  0  0
   -3.5110   14.9920    1.4060 N   0  0  0  0  0  0  0  0  0  0  0  0
   -2.2530   14.6950    1.0430 C   0  0  0  0  0  0  0  0  0  0  0  0
   -2.0170   14.6930   -0.2740 N   0  0  0  0  0  0  0  0  0  0  0  0
   -1.3560   14.4300    1.9530 N   0  0  0  0  0  0  0  0  0  0  0  0
   -0.8030   14.4170   -0.7050 C   0  0  0  0  0  0  0  0  0  0  0  0
   -0.1440   14.1530    1.4890 C   0  0  0  0  0  0  0  0  0  0  0  0
    0.1970   14.1340    0.1480 C   0  0  0  0  0  0  0  0  0  0  0  0
  1  2  1  0
  2  3  2  0
  2  4  1  0
  3  5  1  0
  4  6  2  0
  5  7  2  0
  6  7  1  0
  5  8  1  0
  8  9  1  0
  9 10  2  0
  9 11  1  0
 10 12  1  0
 11 13  2  0
 12 14  2  0
 13 14  1  0
M  END
