x0905_0_A_α-x0967_0_A_α
     RDKit          3D

 11 12  0  0  0  0  0  0  0  0999 V2000
   -6.6240   16.2310   -0.9110 O   0  0  0  0  0  0  0  0  0  0  0  0
   -5.9840   15.0100   -0.6780 C   0  0  2  0  0  0  0  0  0  0  0  0
   -5.3660   15.0600    0.6800 N   0  0  0  0  0  0  0  0  0  0  0  0
   -4.9350   14.9840   -1.7580 C   0  0  0  0  0  0  0  0  0  0  0  0
   -6.9920   13.9780   -0.8660 N   0  0  0  0  0  0  0  0  0  0  0  0
   -3.9910   15.0910    0.8550 C   0  0  0  0  0  0  0  0  0  0  0  0
   -3.6120   15.0160   -1.5170 C   0  0  0  0  0  0  0  0  0  0  0  0
   -6.2300   14.8510    1.7360 C   0  0  0  0  0  0  0  0  0  0  0  0
   -7.5930   13.6550    0.2300 C   0  0  0  0  0  0  0  0  0  0  0  0
   -3.1220   15.0700   -0.1590 C   0  0  0  0  0  0  0  0  0  0  0  0
   -7.3630   14.1750    1.5960 C   0  0  0  0  0  0  0  0  0  0  0  0
  2  1  1  6
  2  3  1  0
  2  4  1  0
  2  5  1  0
  3  6  1  0
  4  7  2  0
  3  8  1  0
  5  9  2  0
  6 10  2  0
  7 10  1  0
  8 11  2  0
  9 11  1  0
M  END
