x0900_0_A-x1012_0_A
     RDKit          3D

 21 22  0  0  0  0  0  0  0  0999 V2000
   -7.0450   15.0150   -0.6090 O   0  0  0  0  0  0  0  0  0  0  0  0
   -5.8830   15.0010   -0.2370 C   0  0  0  0  0  0  0  0  0  0  0  0
   -4.7460   15.2340   -1.0100 N   0  0  0  0  0  0  0  0  0  0  0  0
   -5.4190   14.7160    1.1770 C   0  0  0  0  0  0  0  0  0  0  0  0
   -4.7770   14.9830   -2.4440 C   0  0  0  0  0  0  0  0  0  0  0  0
   -4.0170   15.2960    1.1650 C   0  0  0  0  0  0  0  0  0  0  0  0
   -3.5800   14.9110   -0.2260 C   0  0  0  0  0  0  0  0  0  0  0  0
   -3.3910   15.0540   -3.0790 C   0  0  0  0  0  0  0  0  0  0  0  0
   -3.3400   15.5830   -4.5200 C   0  0  0  0  0  0  0  0  0  0  0  0
   -2.6300   16.8700   -4.6030 N   0  0  0  0  0  0  0  0  0  0  0  0
   -1.3720   16.8300   -4.7970 C   0  0  0  0  0  0  0  0  0  0  0  0
   -0.6900   18.0000   -4.8970 N   0  0  0  0  0  0  0  0  0  0  0  0
   -0.5560   15.7420   -4.9300 N   0  0  0  0  0  0  0  0  0  0  0  0
   -1.1890   14.4450   -5.1790 C   0  0  0  0  0  0  0  0  0  0  0  0
    0.8340   15.7260   -4.4630 C   0  0  0  0  0  0  0  0  0  0  0  0
   -1.1170   13.5820   -3.9400 C   0  0  0  0  0  0  0  0  0  0  0  0
    1.0700   14.7050   -3.3350 C   0  0  0  0  0  0  0  0  0  0  0  0
    0.3400   13.3670   -3.5670 C   0  0  0  0  0  0  0  0  0  0  0  0
    0.4510   12.4380   -2.3770 C   0  0  0  0  0  0  0  0  0  0  0  0
    0.4150   11.1350   -2.6970 O   0  0  0  0  0  0  0  0  0  0  0  0
    0.5490   12.7770   -1.2090 O   0  0  0  0  0  0  0  0  0  0  0  0
  1  2  2  0
  2  3  1  0
  2  4  1  0
  3  5  1  0
  4  6  1  0
  3  7  1  0
  6  7  1  0
  5  8  1  0
  8  9  1  0
  9 10  1  0
 10 11  2  3
 11 12  1  0
 11 13  1  0
 13 14  1  0
 13 15  1  0
 14 16  1  0
 15 17  1  0
 16 18  1  0
 17 18  1  0
 18 19  1  0
 19 20  1  0
 19 21  2  0
M  END
