x0900_0_A-x0681_0_A
     RDKit          3D

 13 14  0  0  0  0  0  0  0  0999 V2000
   -6.7710   15.5370   -0.8370 O   0  0  0  0  0  0  0  0  0  0  0  0
   -5.6410   15.1630   -0.5790 C   0  0  0  0  0  0  0  0  0  0  0  0
   -4.3720   15.6720   -0.8780 N   0  0  0  0  0  0  0  0  0  0  0  0
   -5.2520   13.9590    0.1980 C   0  0  2  0  0  0  0  0  0  0  0  0
   -3.7420   15.2460   -2.0190 C   0  0  0  0  0  0  0  0  0  0  0  0
   -4.3420   14.6050    1.2210 C   0  0  0  0  0  0  0  0  0  0  0  0
   -3.6570   15.6620    0.3850 C   0  0  0  0  0  0  0  0  0  0  0  0
   -4.5360   13.0120   -0.7200 C   0  0  0  0  0  0  0  0  0  0  0  0
   -6.3410   13.0070    0.5910 C   0  0  0  0  0  0  0  0  0  0  0  0
   -4.5450   15.2070   -3.1020 N   0  0  0  0  0  0  0  0  0  0  0  0
   -2.5720   14.8940   -2.1600 O   0  0  0  0  0  0  0  0  0  0  0  0
   -5.0750   11.8580   -0.9000 N   0  0  0  0  0  0  0  0  0  0  0  0
   -6.1750   11.8680   -0.0870 C   0  0  0  0  0  0  0  0  0  0  0  0
  1  2  2  0
  2  3  1  0
  4  2  1  0
  3  5  1  0
  4  6  1  1
  3  7  1  0
  6  7  1  0
  4  8  1  0
  4  9  1  0
  5 10  1  0
  5 11  2  0
  8 12  2  0
  9 13  2  0
 12 13  1  0
M  END
