x0905_0_B_α-x0792_0_A_α
     RDKit          3D

 18 19  0  0  0  0  0  0  0  0999 V2000
   14.0070   19.2100   12.4170 O   0  0  0  0  0  0  0  0  0  0  0  0
   13.4280   20.2060   13.1390 C   0  0  0  0  0  0  0  0  0  0  0  0
   12.8260   19.8270   14.2880 N   0  0  0  0  0  0  0  0  0  0  0  0
   13.5000   21.4930   12.6720 C   0  0  0  0  0  0  0  0  0  0  0  0
   12.2550   20.8320   15.0310 C   0  0  0  0  0  0  0  0  0  0  0  0
   12.9090   22.4900   13.4320 C   0  0  0  0  0  0  0  0  0  0  0  0
   11.5860   20.4890   16.3490 C   0  0  0  0  0  0  0  0  0  0  0  0
   12.2790   22.1580   14.6210 C   0  0  0  0  0  0  0  0  0  0  0  0
   11.4240   21.7070   17.2690 C   0  0  0  0  0  0  0  0  0  0  0  0
   10.0400   22.0510   17.5020 O   0  0  0  0  0  0  0  0  0  0  0  0
    9.9340   23.2300   18.3290 C   0  0  0  0  0  0  0  0  0  0  0  0
    8.5410   23.9100   18.3340 C   0  0  1  0  0  0  0  0  0  0  0  0
    8.4270   24.9380   19.4530 C   0  0  0  0  0  0  0  0  0  0  0  0
    8.1450   24.5330   16.9750 C   0  0  0  0  0  0  0  0  0  0  0  0
    7.1890   25.6490   16.8850 N   0  0  0  0  0  0  0  0  0  0  0  0
    8.1870   26.3460   18.9140 C   0  0  1  0  0  0  0  0  0  0  0  0
    9.3330   26.7670   18.0030 C   0  0  0  0  0  0  0  0  0  0  0  0
    6.9300   26.3700   18.1000 C   0  0  0  0  0  0  0  0  0  0  0  0
  1  2  1  0
  2  3  2  0
  2  4  1  0
  3  5  1  0
  4  6  2  0
  5  7  1  0
  5  8  2  0
  6  8  1  0
  7  9  1  0
  9 10  1  0
 10 11  1  0
 12 11  1  6
 12 13  1  0
 12 14  1  0
 14 15  1  0
 13 16  1  0
 16 17  1  6
 15 18  1  0
 16 18  1  0
M  END
