x0900_1_A_α-x0849_0_A_α
     RDKit          3D

 22 24  0  0  0  0  0  0  0  0999 V2000
   -0.9100    9.8480   -9.7820 O   0  0  0  0  0  0  0  0  0  0  0  0
   -0.8160    9.5010   -8.6150 C   0  0  0  0  0  0  0  0  0  0  0  0
    0.1790    8.7220   -8.0850 N   0  0  0  0  0  0  0  0  0  0  0  0
   -1.7570    9.8490   -7.4920 C   0  0  2  0  0  0  0  0  0  0  0  0
   -1.5930   11.2940   -6.9960 C   0  0  0  0  0  0  0  0  0  0  0  0
   -1.5350    8.7070   -6.4850 C   0  0  0  0  0  0  0  0  0  0  0  0
   -0.2740    7.9890   -6.9400 C   0  0  0  0  0  0  0  0  0  0  0  0
   -2.0890   11.6900   -5.5990 C   0  0  0  0  0  0  0  0  0  0  0  0
   -2.5820   13.1280   -5.4090 C   0  0  0  0  0  0  0  0  0  0  0  0
   -2.2710   13.7300   -4.0340 C   0  0  0  0  0  0  0  0  0  0  0  0
   -3.5090   14.2490   -3.2860 C   0  0  0  0  0  0  0  0  0  0  0  0
   -3.2580   15.3710   -2.4430 O   0  0  0  0  0  0  0  0  0  0  0  0
   -3.4200   15.2610   -1.0780 C   0  0  0  0  0  0  0  0  0  0  0  0
   -2.2710   14.9100   -0.3190 C   0  0  0  0  0  0  0  0  0  0  0  0
   -4.6170   15.4780   -0.4250 C   0  0  0  0  0  0  0  0  0  0  0  0
   -2.4100   14.8060    1.0690 C   0  0  0  0  0  0  0  0  0  0  0  0
   -4.6260   15.3410    0.9430 C   0  0  0  0  0  0  0  0  0  0  0  0
   -0.9890   14.6660   -0.8620 C   0  0  0  0  0  0  0  0  0  0  0  0
   -3.5550   15.0170    1.6660 N   0  0  0  0  0  0  0  0  0  0  0  0
   -1.4090   14.4930    1.8580 N   0  0  0  0  0  0  0  0  0  0  0  0
    0.0620   14.3390   -0.0200 C   0  0  0  0  0  0  0  0  0  0  0  0
   -0.2110   14.2670    1.3290 C   0  0  0  0  0  0  0  0  0  0  0  0
  1  2  2  0
  2  3  1  0
  2  4  1  0
  4  5  1  1
  4  6  1  0
  3  7  1  0
  6  7  1  0
  5  8  1  0
  8  9  1  0
  9 10  1  0
 10 11  1  0
 11 12  1  0
 12 13  1  0
 13 14  1  0
 13 15  2  0
 14 16  2  0
 15 17  1  0
 14 18  1  0
 16 19  1  0
 17 19  2  0
 16 20  1  0
 18 21  2  0
 20 22  2  0
 21 22  1  0
M  END
