x0905_0_A_α-x0371_0_A_β
     RDKit          3D

 11 12  0  0  0  0  0  0  0  0999 V2000
   -6.5220   16.2950   -1.0010 O   0  0  0  0  0  0  0  0  0  0  0  0
   -5.8960   15.1120   -0.6140 C   0  0  2  0  0  0  0  0  0  0  0  0
   -5.2170   15.3610    0.6900 N   0  0  0  0  0  0  0  0  0  0  0  0
   -4.9250   14.8260   -1.7140 C   0  0  0  0  0  0  0  0  0  0  0  0
   -6.9500   14.1020   -0.3980 N   0  0  0  0  0  0  0  0  0  0  0  0
   -3.8460   15.2320    0.8230 C   0  0  0  0  0  0  0  0  0  0  0  0
   -3.5910   14.7570   -1.5210 C   0  0  0  0  0  0  0  0  0  0  0  0
   -6.9700   14.0560    0.9200 C   0  0  0  0  0  0  0  0  0  0  0  0
   -6.0640   14.8290    1.6170 N   0  0  0  0  0  0  0  0  0  0  0  0
   -7.9420   13.1970    1.6540 C   0  0  0  0  0  0  0  0  0  0  0  0
   -3.0360   14.9490   -0.1990 C   0  0  0  0  0  0  0  0  0  0  0  0
  2  1  1  6
  2  3  1  0
  2  4  1  0
  2  5  1  0
  3  6  1  0
  4  7  2  0
  5  8  2  0
  3  9  1  0
  8  9  1  0
  8 10  1  0
  6 11  2  0
  7 11  1  0
M  END
