x0905_1_B-x0091_0_B
     RDKit          3D

 21 23  0  0  0  0  0  0  0  0999 V2000
   13.0460   20.7380   13.1150 N   0  0  0  0  0  0  0  0  0  0  0  0
   14.1970   21.1830   12.8710 C   0  0  0  0  0  0  0  0  0  0  0  0
   14.9130   20.4500   12.0650 N   0  0  0  0  0  0  0  0  0  0  0  0
   12.4870   21.4520   14.0770 C   0  0  0  0  0  0  0  0  0  0  0  0
   14.8150   22.2950   13.4160 N   0  0  0  0  0  0  0  0  0  0  0  0
   12.0100   20.7690   15.1220 N   0  0  0  0  0  0  0  0  0  0  0  0
   12.4840   22.8120   13.9340 C   0  0  0  0  0  0  0  0  0  0  0  0
   16.2660   20.3710   12.5520 C   0  0  0  0  0  0  0  0  0  0  0  0
   14.3120   19.1210   12.0790 C   0  0  0  0  0  0  0  0  0  0  0  0
   11.5050   21.5110   16.1050 C   0  0  0  0  0  0  0  0  0  0  0  0
   11.9550   23.5580   14.9580 C   0  0  0  0  0  0  0  0  0  0  0  0
   15.2390   23.3720   12.4920 C   0  0  0  0  0  0  0  0  0  0  0  0
   11.4570   22.8970   16.0710 C   0  0  0  0  0  0  0  0  0  0  0  0
   14.4200   18.3370   13.3730 C   0  0  0  0  0  0  0  0  0  0  0  0
   16.6940   23.5080   12.1190 C   0  0  0  0  0  0  0  0  0  0  0  0
   16.0390   24.5420   12.9860 C   0  0  0  0  0  0  0  0  0  0  0  0
   13.3510   17.8020   14.0020 N   0  0  0  0  0  0  0  0  0  0  0  0
   15.6030   18.0580   14.0820 C   0  0  0  0  0  0  0  0  0  0  0  0
   13.8540   17.1660   15.1310 O   0  0  0  0  0  0  0  0  0  0  0  0
   15.2030   17.3280   15.1650 C   0  0  0  0  0  0  0  0  0  0  0  0
   15.9190   16.7210   16.2910 C   0  0  0  0  0  0  0  0  0  0  0  0
  1  2  2  3
  2  3  1  0
  1  4  1  0
  2  5  1  0
  4  6  2  0
  4  7  1  0
  3  8  1  0
  3  9  1  0
  6 10  1  0
  7 11  2  0
  5 12  1  0
 10 13  2  0
 11 13  1  0
  9 14  1  0
 12 15  1  0
 12 16  1  0
 15 16  1  0
 14 17  2  0
 14 18  1  0
 17 19  1  0
 18 20  2  0
 19 20  1  0
 20 21  1  0
M  END
