x0905_0_A-x0685_0_A
     RDKit          3D

 12 12  0  0  0  0  0  0  0  0999 V2000
   -7.2870   15.2180   -0.7430 O   0  0  0  0  0  0  0  0  0  0  0  0
   -5.9790   14.7130   -0.5380 C   0  0  2  0  0  0  0  0  0  0  0  0
   -5.5670   15.0220    0.8450 N   0  0  0  0  0  0  0  0  0  0  0  0
   -5.0320   15.3490   -1.5430 C   0  0  0  0  0  0  0  0  0  0  0  0
   -6.1650   14.2450    1.8800 N   0  0  0  0  0  0  0  0  0  0  0  0
   -4.2620   15.4340    1.0970 C   0  0  0  0  0  0  0  0  0  0  0  0
   -3.5890   14.9620   -1.2180 C   0  0  2  0  0  0  0  0  0  0  0  0
   -7.3770   14.7870    2.5060 C   0  0  0  0  0  0  0  0  0  0  0  0
   -3.2810   15.4320    0.1810 C   0  0  0  0  0  0  0  0  0  0  0  0
   -2.5830   15.4420   -2.2820 C   0  0  0  0  0  0  0  0  0  0  0  0
   -8.1400   13.6270    3.1230 C   0  0  0  0  0  0  0  0  0  0  0  0
   -2.9390   15.0490   -3.6410 N   0  0  0  0  0  0  0  0  0  0  0  0
  2  1  1  6
  2  3  1  0
  2  4  1  0
  3  5  1  0
  3  6  1  0
  4  7  1  0
  5  8  1  0
  6  9  2  0
  7  9  1  0
  7 10  1  6
  8 11  1  0
 10 12  1  0
M  END
