x0900_0_A_α-x0962_3_A_α
     RDKit          3D

 20 21  0  0  0  0  0  0  0  0999 V2000
   -6.9630   15.0460   -0.7130 O   0  0  0  0  0  0  0  0  0  0  0  0
   -5.8160   14.9890   -0.2940 C   0  0  0  0  0  0  0  0  0  0  0  0
   -4.6440   15.1510   -1.0190 N   0  0  0  0  0  0  0  0  0  0  0  0
   -5.4070   14.7220    1.1360 C   0  0  0  0  0  0  0  0  0  0  0  0
   -4.5560   15.1470   -2.4610 C   0  0  0  0  0  0  0  0  0  0  0  0
   -3.9920   15.2880    1.1610 C   0  0  0  0  0  0  0  0  0  0  0  0
   -3.4990   14.8580   -0.1960 C   0  0  0  0  0  0  0  0  0  0  0  0
   -3.5850   14.0910   -2.9730 C   0  0  0  0  0  0  0  0  0  0  0  0
   -2.2830   14.7000   -3.5100 C   0  0  0  0  0  0  0  0  0  0  0  0
   -1.8330   14.2170   -4.8920 C   0  0  0  0  0  0  0  0  0  0  0  0
   -0.8540   13.0360   -4.9120 C   0  0  0  0  0  0  0  0  0  0  0  0
   -0.1430   12.8960   -6.2550 C   0  0  0  0  0  0  0  0  0  0  0  0
    0.9440   11.8250   -6.3580 C   0  0  0  0  0  0  0  0  0  0  0  0
    0.9890   10.8290   -7.5590 C   0  0  2  0  0  0  0  0  0  0  0  0
    1.0000   11.4250   -8.8640 N   0  0  0  0  0  0  0  0  0  0  0  0
   -0.0340    9.7850   -7.5310 C   0  0  0  0  0  0  0  0  0  0  0  0
    0.0690    8.5770   -8.1690 N   0  0  0  0  0  0  0  0  0  0  0  0
   -1.2610    9.7550   -6.9130 C   0  0  0  0  0  0  0  0  0  0  0  0
   -1.0710    7.8810   -7.9160 C   0  0  0  0  0  0  0  0  0  0  0  0
   -1.8950    8.5720   -7.1570 N   0  0  0  0  0  0  0  0  0  0  0  0
  1  2  2  0
  2  3  1  0
  2  4  1  0
  3  5  1  0
  4  6  1  0
  3  7  1  0
  6  7  1  0
  5  8  1  0
  8  9  1  0
  9 10  1  0
 10 11  1  0
 11 12  1  0
 12 13  1  0
 13 14  1  0
 14 15  1  6
 14 16  1  0
 16 17  1  0
 16 18  2  0
 17 19  1  0
 18 20  1  0
 19 20  2  0
M  END
