x0900_0_A_α-x0574_0_A_α
     RDKit          3D

 12 13  0  0  0  0  0  0  0  0999 V2000
   -6.8110   14.6080   -0.1680 N   0  0  0  0  0  0  0  0  0  0  0  0
   -7.6200   14.4790    1.0510 C   0  0  0  0  0  0  0  0  0  0  0  0
   -5.5740   14.8150    0.0630 C   0  0  0  0  0  0  0  0  0  0  0  0
   -4.4480   14.9760   -0.7290 N   0  0  0  0  0  0  0  0  0  0  0  0
   -5.1490   14.9140    1.5100 C   0  0  0  0  0  0  0  0  0  0  0  0
   -3.8850   15.7390    1.3600 C   0  0  0  0  0  0  0  0  0  0  0  0
   -3.2860   15.0480    0.1610 C   0  0  2  0  0  0  0  0  0  0  0  0
   -1.7350   15.6540   -0.5280 S   0  0  0  0  0  0  0  0  0  0  0  0
   -2.7970   13.7230    0.6870 C   0  0  0  0  0  0  0  0  0  0  0  0
   -1.6570   14.0730    1.5690 N   0  0  0  0  0  0  0  0  0  0  0  0
   -0.7560   14.8130    0.7240 C   0  0  1  0  0  0  0  0  0  0  0  0
    0.1360   13.8460    0.1660 N   0  0  0  0  0  0  0  0  0  0  0  0
  1  2  1  0
  1  3  2  3
  3  4  1  0
  3  5  1  0
  5  6  1  0
  4  7  1  0
  7  6  1  1
  7  8  1  0
  7  9  1  0
  9 10  1  0
  8 11  1  0
 10 11  1  0
 11 12  1  6
M  END
