x0905_0_A-x0711_0_A
     RDKit          3D

 14 14  0  0  0  0  0  0  0  0999 V2000
   -6.7840   15.0340   -0.7030 N   0  0  0  0  0  0  0  0  0  0  0  0
   -7.4380   14.6600    0.3350 C   0  0  0  0  0  0  0  0  0  0  0  0
   -6.9860   14.2320    1.5550 N   0  0  0  0  0  0  0  0  0  0  0  0
   -5.3980   15.0090   -0.5970 C   0  0  0  0  0  0  0  0  0  0  0  0
   -4.9080   14.9170    0.6580 N   0  0  0  0  0  0  0  0  0  0  0  0
   -4.5980   15.0710   -1.7270 C   0  0  0  0  0  0  0  0  0  0  0  0
   -3.5780   14.8770    0.7980 C   0  0  0  0  0  0  0  0  0  0  0  0
   -3.2130   15.0300   -1.5560 C   0  0  0  0  0  0  0  0  0  0  0  0
   -2.3530   15.1020   -2.7250 N   0  0  0  0  0  0  0  0  0  0  0  0
   -2.6920   14.9270   -0.2640 C   0  0  0  0  0  0  0  0  0  0  0  0
   -0.9180   14.1890   -2.9450 S   0  0  0  0  0  0  0  0  0  0  0  0
   -1.5110   12.8470   -3.9530 C   0  0  0  0  0  0  0  0  0  0  0  0
    0.0300   14.9500   -3.7330 O   0  0  0  0  0  0  0  0  0  0  0  0
   -0.5270   13.6310   -1.6670 O   0  0  0  0  0  0  0  0  0  0  0  0
  1  2  2  3
  2  3  1  0
  1  4  1  0
  4  5  2  0
  4  6  1  0
  5  7  1  0
  6  8  2  0
  8  9  1  0
  7 10  2  0
  8 10  1  0
 11  9  1  0
 11 12  1  0
 11 13  2  0
 11 14  2  0
M  END
