x0905_0_A_α-x1015_0_A_α
     RDKit          3D

 24 26  0  0  0  0  0  0  0  0999 V2000
   -7.1740   15.0220   -0.6270 O   0  0  0  0  0  0  0  0  0  0  0  0
   -5.8300   15.1550   -0.5400 C   0  0  0  0  0  0  0  0  0  0  0  0
   -5.3450   15.1130    0.7100 N   0  0  0  0  0  0  0  0  0  0  0  0
   -5.0950   15.3160   -1.6780 C   0  0  0  0  0  0  0  0  0  0  0  0
   -4.0020   15.2490    0.8180 C   0  0  0  0  0  0  0  0  0  0  0  0
   -3.7190   15.4520   -1.5540 C   0  0  0  0  0  0  0  0  0  0  0  0
   -2.8960   15.6230   -2.7950 C   0  0  0  0  0  0  0  0  0  0  0  0
   -3.1560   15.4190   -0.2690 C   0  0  0  0  0  0  0  0  0  0  0  0
   -1.5490   14.9360   -2.7310 C   0  0  0  0  0  0  0  0  0  0  0  0
   -1.0880   14.4530   -4.0990 C   0  0  0  0  0  0  0  0  0  0  0  0
    0.1870   13.6120   -4.0140 C   0  0  2  0  0  0  0  0  0  0  0  0
   -0.0560   12.1750   -3.9560 N   0  0  0  0  0  0  0  0  0  0  0  0
    0.7070   13.8350   -2.5950 C   0  0  0  0  0  0  0  0  0  0  0  0
    0.9010   14.9120   -2.0540 O   0  0  0  0  0  0  0  0  0  0  0  0
    0.3440   11.6430   -2.7190 C   0  0  0  0  0  0  0  0  0  0  0  0
    0.9300   12.6380   -2.0080 N   0  0  0  0  0  0  0  0  0  0  0  0
   -0.4680   11.3960   -5.0620 C   0  0  0  0  0  0  0  0  0  0  0  0
    0.2250   10.4950   -2.2930 O   0  0  0  0  0  0  0  0  0  0  0  0
    0.0820   11.5970   -6.3390 C   0  0  0  0  0  0  0  0  0  0  0  0
   -1.4390   10.3970   -4.9140 C   0  0  0  0  0  0  0  0  0  0  0  0
   -0.3270   10.8220   -7.4280 C   0  0  0  0  0  0  0  0  0  0  0  0
   -1.8510    9.6190   -6.0000 C   0  0  0  0  0  0  0  0  0  0  0  0
   -1.2930    9.8350   -7.2530 C   0  0  0  0  0  0  0  0  0  0  0  0
   -1.7980    8.8790   -8.5880 Cl  0  0  0  0  0  0  0  0  0  0  0  0
  1  2  1  0
  2  3  2  0
  2  4  1  0
  3  5  1  0
  4  6  2  0
  6  7  1  0
  5  8  2  0
  6  8  1  0
  7  9  1  0
  9 10  1  0
 11 10  1  1
 11 12  1  0
 11 13  1  0
 13 14  2  0
 12 15  1  0
 13 16  1  0
 15 16  1  0
 12 17  1  0
 15 18  2  0
 17 19  2  0
 17 20  1  0
 19 21  1  0
 20 22  2  0
 21 23  2  0
 22 23  1  0
 23 24  1  0
M  END
