x0900_0_A_α-x0128_0_A_α
     RDKit          3D

 16 17  0  0  0  0  0  0  0  0999 V2000
   -7.2180   15.0140   -0.3340 O   0  0  0  0  0  0  0  0  0  0  0  0
   -6.0540   14.9340    0.0140 C   0  0  0  0  0  0  0  0  0  0  0  0
   -4.9710   15.2080   -0.8020 N   0  0  0  0  0  0  0  0  0  0  0  0
   -5.5210   14.5090    1.3970 C   0  0  2  0  0  0  0  0  0  0  0  0
   -6.1610   15.1110    2.5760 N   0  0  0  0  0  0  0  0  0  0  0  0
   -4.0580   14.9630    1.2930 C   0  0  0  0  0  0  0  0  0  0  0  0
   -3.7390   14.8420   -0.1830 C   0  0  0  0  0  0  0  0  0  0  0  0
   -7.5220   15.1150    2.9140 C   0  0  0  0  0  0  0  0  0  0  0  0
   -8.4310   15.1490    2.0920 O   0  0  0  0  0  0  0  0  0  0  0  0
   -7.6550   15.1010    4.2890 N   0  0  0  0  0  0  0  0  0  0  0  0
   -8.4320   15.9570    5.1330 C   0  0  0  0  0  0  0  0  0  0  0  0
   -9.0990   17.1170    4.7340 C   0  0  0  0  0  0  0  0  0  0  0  0
   -8.5460   15.6130    6.4870 C   0  0  0  0  0  0  0  0  0  0  0  0
   -9.8380   17.9100    5.5620 N   0  0  0  0  0  0  0  0  0  0  0  0
   -9.2980   16.4130    7.3580 C   0  0  0  0  0  0  0  0  0  0  0  0
   -9.9180   17.5390    6.8530 C   0  0  0  0  0  0  0  0  0  0  0  0
  1  2  2  0
  2  3  1  0
  2  4  1  0
  4  5  1  1
  4  6  1  0
  3  7  1  0
  6  7  1  0
  5  8  1  0
  8  9  2  0
  8 10  1  0
 10 11  1  0
 11 12  2  0
 11 13  1  0
 12 14  1  0
 13 15  2  0
 14 16  2  0
 15 16  1  0
M  END
