x0900_1_A_α-4iqy_A_0_A_β
     RDKit          3D

 19 19  0  0  0  0  0  0  0  0999 V2000
   -1.0310   10.1370   -9.6290 O   0  0  0  0  0  0  0  0  0  0  0  0
   -0.9530    9.8310   -8.4520 C   0  0  0  0  0  0  0  0  0  0  0  0
   -0.0230    8.9540   -7.9310 N   0  0  0  0  0  0  0  0  0  0  0  0
   -1.8360   10.3200   -7.3000 C   0  0  2  0  0  0  0  0  0  0  0  0
   -2.0480   11.8760   -7.2640 C   0  0  0  0  0  0  0  0  0  0  0  0
   -1.2450    9.5660   -6.0880 C   0  0  0  0  0  0  0  0  0  0  0  0
   -0.4970    8.3960   -6.7070 C   0  0  0  0  0  0  0  0  0  0  0  0
   -1.6320   12.7570   -6.0350 C   0  0  0  0  0  0  0  0  0  0  0  0
   -2.5570   14.0220   -5.8770 C   0  0  0  0  0  0  0  0  0  0  0  0
   -2.0720   15.1750   -4.9310 C   0  0  0  0  0  0  0  0  0  0  0  0
   -1.1890   16.1570   -5.5240 O   0  0  0  0  0  0  0  0  0  0  0  0
   -1.5950   17.7090   -5.7970 P   0  0  2  0  0  0  0  0  0  0  0  0
   -0.3070   18.3700   -6.4780 O   0  0  0  0  0  0  0  0  0  0  0  0
   -2.0600   18.5390   -4.6640 O   0  0  0  0  0  0  0  0  0  0  0  0
   -2.6760   17.6090   -6.9520 O   0  0  0  0  0  0  0  0  0  0  0  0
   -0.2880   19.4720   -7.6380 P   0  0  0  0  0  0  0  0  0  0  0  0
   -1.7730   19.9640   -7.8990 O   0  0  0  0  0  0  0  0  0  0  0  0
    0.6950   20.5750   -7.5520 O   0  0  0  0  0  0  0  0  0  0  0  0
    0.0030   18.5550   -8.8970 O   0  0  0  0  0  0  0  0  0  0  0  0
  1  2  2  0
  2  3  1  0
  2  4  1  0
  4  5  1  1
  4  6  1  0
  3  7  1  0
  6  7  1  0
  5  8  1  0
  8  9  1  0
  9 10  1  0
 10 11  1  0
 11 12  1  0
 12 13  1  0
 12 14  2  0
 12 15  1  6
 13 16  1  0
 16 17  1  0
 16 18  2  0
 16 19  1  0
M  END
