x0905_0_A-x0711_0_A
     RDKit          3D

 14 14  0  0  0  0  0  0  0  0999 V2000
   -6.7900   14.9300   -0.7180 N   0  0  0  0  0  0  0  0  0  0  0  0
   -7.4450   14.7060    0.3640 C   0  0  0  0  0  0  0  0  0  0  0  0
   -6.9990   14.4920    1.6400 N   0  0  0  0  0  0  0  0  0  0  0  0
   -5.4050   14.9590   -0.6070 C   0  0  0  0  0  0  0  0  0  0  0  0
   -4.9210   14.9160    0.6490 N   0  0  0  0  0  0  0  0  0  0  0  0
   -4.6050   15.0180   -1.7390 C   0  0  0  0  0  0  0  0  0  0  0  0
   -3.5880   14.9190    0.7930 C   0  0  0  0  0  0  0  0  0  0  0  0
   -3.2190   15.0230   -1.5610 C   0  0  0  0  0  0  0  0  0  0  0  0
   -2.3600   15.0920   -2.7310 N   0  0  0  0  0  0  0  0  0  0  0  0
   -2.6990   14.9690   -0.2650 C   0  0  0  0  0  0  0  0  0  0  0  0
   -0.9210   14.1780   -2.9430 S   0  0  0  0  0  0  0  0  0  0  0  0
   -1.5160   12.8500   -3.9660 C   0  0  0  0  0  0  0  0  0  0  0  0
    0.0320   14.9360   -3.7230 O   0  0  0  0  0  0  0  0  0  0  0  0
   -0.5470   13.6090   -1.6680 O   0  0  0  0  0  0  0  0  0  0  0  0
  1  2  2  3
  2  3  1  0
  1  4  1  0
  4  5  2  0
  4  6  1  0
  5  7  1  0
  6  8  2  0
  8  9  1  0
  7 10  2  0
  8 10  1  0
 11  9  1  0
 11 12  1  0
 11 13  2  0
 11 14  2  0
M  END
