x0900_0_A-x0910_0_A
     RDKit          3D

 12 13  0  0  0  0  0  0  0  0999 V2000
   -7.3000   14.9420   -0.5610 O   0  0  0  0  0  0  0  0  0  0  0  0
   -6.1240   14.7960   -0.2940 C   0  0  0  0  0  0  0  0  0  0  0  0
   -5.1110   14.7220   -1.2060 N   0  0  0  0  0  0  0  0  0  0  0  0
   -5.4940   14.6670    1.0590 C   0  0  0  0  0  0  0  0  0  0  0  0
   -4.1620   15.3820    0.8280 C   0  0  0  0  0  0  0  0  0  0  0  0
   -3.9500   15.3360   -0.6950 C   0  0  1  0  0  0  0  0  0  0  0  0
   -2.8740   14.4840   -1.1000 N   0  0  0  0  0  0  0  0  0  0  0  0
   -1.7520   14.6370   -0.4130 C   0  0  0  0  0  0  0  0  0  0  0  0
   -1.7460   14.5500    0.9490 N   0  0  0  0  0  0  0  0  0  0  0  0
   -0.5450   14.8840   -0.8360 N   0  0  0  0  0  0  0  0  0  0  0  0
   -0.5250   14.7470    1.4390 N   0  0  0  0  0  0  0  0  0  0  0  0
    0.1640   14.9500    0.3170 C   0  0  0  0  0  0  0  0  0  0  0  0
  1  2  2  0
  2  3  1  0
  2  4  1  0
  4  5  1  0
  3  6  1  0
  5  6  1  0
  6  7  1  1
  7  8  1  0
  8  9  1  0
  8 10  2  0
  9 11  1  0
 10 12  1  0
 11 12  2  0
M  END
