x0900_1_A_α-x0905_0_A_α
     RDKit          3D

 18 19  0  0  0  0  0  0  0  0999 V2000
   -1.0740   10.2380   -9.4080 O   0  0  0  0  0  0  0  0  0  0  0  0
   -0.8670    9.8490   -8.2630 C   0  0  0  0  0  0  0  0  0  0  0  0
    0.0150    8.8640   -7.9080 N   0  0  0  0  0  0  0  0  0  0  0  0
   -1.5200   10.3310   -6.9740 C   0  0  2  0  0  0  0  0  0  0  0  0
   -0.7210   11.4710   -6.2690 C   0  0  0  0  0  0  0  0  0  0  0  0
   -1.5770    9.0090   -6.1820 C   0  0  0  0  0  0  0  0  0  0  0  0
   -0.4530    8.1470   -6.7540 C   0  0  0  0  0  0  0  0  0  0  0  0
   -1.5100   12.5260   -5.4190 C   0  0  0  0  0  0  0  0  0  0  0  0
   -0.7250   13.0170   -4.1610 C   0  0  0  0  0  0  0  0  0  0  0  0
   -1.3030   14.1410   -3.2190 C   0  0  0  0  0  0  0  0  0  0  0  0
   -2.8160   14.4900   -3.2690 C   0  0  0  0  0  0  0  0  0  0  0  0
   -3.5720   14.7350   -1.9420 C   0  0  0  0  0  0  0  0  0  0  0  0
   -2.9390   14.8110   -0.6830 C   0  0  0  0  0  0  0  0  0  0  0  0
   -4.9670   14.8910   -1.9470 C   0  0  0  0  0  0  0  0  0  0  0  0
   -3.7160   15.0280    0.4610 C   0  0  0  0  0  0  0  0  0  0  0  0
   -5.6450   15.1000   -0.7560 C   0  0  0  0  0  0  0  0  0  0  0  0
   -7.0030   15.2450   -0.7530 O   0  0  0  0  0  0  0  0  0  0  0  0
   -5.0570   15.1710    0.4450 N   0  0  0  0  0  0  0  0  0  0  0  0
  1  2  2  0
  2  3  1  0
  2  4  1  0
  4  5  1  1
  4  6  1  0
  3  7  1  0
  6  7  1  0
  5  8  1  0
  8  9  1  0
  9 10  1  0
 10 11  1  0
 11 12  1  0
 12 13  2  0
 12 14  1  0
 13 15  1  0
 14 16  2  0
 16 17  1  0
 15 18  2  0
 16 18  1  0
M  END
