x0905_0_A-x0290_0_A
     RDKit          3D

 19 20  0  0  0  0  0  0  0  0999 V2000
   -4.2840   14.5900    0.4730 N   0  0  0  0  0  0  0  0  0  0  0  0
   -4.5700   14.1790    1.5850 C   0  0  0  0  0  0  0  0  0  0  0  0
   -6.0180   13.9760    2.1290 C   0  0  0  0  0  0  0  0  0  0  0  0
   -5.0260   14.8980   -0.4780 C   0  0  0  0  0  0  0  0  0  0  0  0
   -3.4340   13.9150    2.2140 N   0  0  0  0  0  0  0  0  0  0  0  0
   -6.2810   15.0650   -0.2100 N   0  0  0  0  0  0  0  0  0  0  0  0
   -4.3190   14.9720   -1.6330 C   0  0  0  0  0  0  0  0  0  0  0  0
   -7.0570   13.7850    1.0760 N   0  0  0  0  0  0  0  0  0  0  0  0
   -6.9120   15.3470   -1.2930 C   0  0  0  0  0  0  0  0  0  0  0  0
   -4.9800   15.2500   -2.7140 C   0  0  0  0  0  0  0  0  0  0  0  0
   -2.3460   14.1850    1.3440 C   0  0  0  0  0  0  0  0  0  0  0  0
   -8.2440   14.6120    1.2950 C   0  0  0  0  0  0  0  0  0  0  0  0
   -6.3130   15.4360   -2.5270 C   0  0  0  0  0  0  0  0  0  0  0  0
   -1.2080   14.5340    1.9250 N   0  0  0  0  0  0  0  0  0  0  0  0
   -2.4250   14.1040   -0.0580 C   0  0  0  0  0  0  0  0  0  0  0  0
   -0.1510   14.8130    1.1490 C   0  0  0  0  0  0  0  0  0  0  0  0
   -1.3080   14.3990   -0.8570 C   0  0  0  0  0  0  0  0  0  0  0  0
   -1.3610   14.3290   -2.3540 C   0  0  0  0  0  0  0  0  0  0  0  0
   -0.1420   14.7640   -0.2200 C   0  0  0  0  0  0  0  0  0  0  0  0
  1  2  2  3
  2  3  1  0
  1  4  1  0
  2  5  1  0
  4  6  2  0
  4  7  1  0
  3  8  1  0
  6  9  1  0
  7 10  2  0
  5 11  1  0
  8 12  1  0
  9 13  2  0
 10 13  1  0
 11 14  2  0
 11 15  1  0
 14 16  1  0
 15 17  2  0
 17 18  1  0
 16 19  2  0
 17 19  1  0
M  END
