x0900_1_A-x0950_0_A
     RDKit          3D

 14 14  0  0  0  0  0  0  0  0999 V2000
   -1.1330    9.8160   -9.8930 O   0  0  0  0  0  0  0  0  0  0  0  0
   -1.0330    9.3080   -8.7900 C   0  0  0  0  0  0  0  0  0  0  0  0
    0.0450    8.6020   -8.3250 N   0  0  0  0  0  0  0  0  0  0  0  0
   -2.0500    9.3260   -7.6770 C   0  0  0  0  0  0  0  0  0  0  0  0
   -1.2620    8.7490   -6.4890 C   0  0  0  0  0  0  0  0  0  0  0  0
    0.2000    8.8660   -6.9300 C   0  0  2  0  0  0  0  0  0  0  0  0
    0.8330   10.2560   -6.7740 C   0  0  0  0  0  0  0  0  0  0  0  0
    0.6300   10.8810   -5.3990 C   0  0  0  0  0  0  0  0  0  0  0  0
    1.0570   12.2420   -5.4830 O   0  0  0  0  0  0  0  0  0  0  0  0
    1.6060   12.7190   -4.2620 C   0  0  2  0  0  0  0  0  0  0  0  0
    3.1000   12.4080   -4.2800 C   0  0  0  0  0  0  0  0  0  0  0  0
    0.9920   12.1020   -3.0020 C   0  0  0  0  0  0  0  0  0  0  0  0
    0.4530   11.0090   -2.9350 O   0  0  0  0  0  0  0  0  0  0  0  0
    1.0850   12.8700   -1.9040 O   0  0  0  0  0  0  0  0  0  0  0  0
  1  2  2  0
  2  3  1  0
  2  4  1  0
  4  5  1  0
  3  6  1  0
  5  6  1  0
  6  7  1  6
  7  8  1  0
  8  9  1  0
  9 10  1  0
 10 11  1  6
 10 12  1  0
 12 13  2  0
 12 14  1  0
M  END
