x0905_1_B-x0423_0_B
     RDKit          3D

 14 15  0  0  0  0  0  0  0  0999 V2000
   14.8320   19.2080   12.0770 O   0  0  0  0  0  0  0  0  0  0  0  0
   14.0070   20.2600   12.4800 C   0  0  1  0  0  0  0  0  0  0  0  0
   12.8830   19.6680   13.0940 N   0  0  0  0  0  0  0  0  0  0  0  0
   14.6090   21.1780   13.5500 C   0  0  0  0  0  0  0  0  0  0  0  0
   11.9510   20.5770   13.4700 C   0  0  0  0  0  0  0  0  0  0  0  0
   13.7170   22.4390   13.6480 C   0  0  1  0  0  0  0  0  0  0  0  0
   12.2620   21.8850   13.7280 C   0  0  0  0  0  0  0  0  0  0  0  0
   13.9730   23.3390   14.8970 C   0  0  0  0  0  0  0  0  0  0  0  0
   14.1710   23.2740   12.4130 C   0  0  0  0  0  0  0  0  0  0  0  0
   14.3580   24.7950   14.5210 C   0  0  1  0  0  0  0  0  0  0  0  0
   15.5830   23.8770   12.5890 C   0  0  0  0  0  0  0  0  0  0  0  0
   14.2390   25.7830   15.6000 N   0  0  0  0  0  0  0  0  0  0  0  0
   15.6860   24.8060   13.7920 C   0  0  0  0  0  0  0  0  0  0  0  0
   13.1580   26.7430   15.4470 C   0  0  0  0  0  0  0  0  0  0  0  0
  2  1  1  1
  2  3  1  0
  2  4  1  0
  3  5  1  0
  6  4  1  1
  5  7  2  0
  6  7  1  0
  6  8  1  0
  6  9  1  0
  8 10  1  0
  9 11  1  0
 10 12  1  1
 10 13  1  0
 11 13  1  0
 12 14  1  0
M  END
