x0900_0_A-x0104_0_A
     RDKit          3D

 17 18  0  0  0  0  0  0  0  0999 V2000
   -7.1210   14.9080   -0.4920 O   0  0  0  0  0  0  0  0  0  0  0  0
   -5.9960   14.9790   -0.0240 C   0  0  0  0  0  0  0  0  0  0  0  0
   -4.7980   15.1770   -0.7200 N   0  0  0  0  0  0  0  0  0  0  0  0
   -5.6340   14.8590    1.4730 C   0  0  1  0  0  0  0  0  0  0  0  0
   -6.7320   14.2950    2.3220 N   0  0  0  0  0  0  0  0  0  0  0  0
   -4.7760   14.5760   -2.0050 O   0  0  0  0  0  0  0  0  0  0  0  0
   -4.2540   14.2160    1.3410 C   0  0  0  0  0  0  0  0  0  0  0  0
   -3.6560   14.8850    0.1100 C   0  0  0  0  0  0  0  0  0  0  0  0
   -7.8240   14.9500    2.9170 C   0  0  0  0  0  0  0  0  0  0  0  0
   -3.6100   15.0230   -2.6870 C   0  0  0  0  0  0  0  0  0  0  0  0
   -7.7870   14.9370    4.2920 N   0  0  0  0  0  0  0  0  0  0  0  0
   -8.6950   15.4490    2.2130 O   0  0  0  0  0  0  0  0  0  0  0  0
   -8.8910   15.0230    5.1450 C   0  0  0  0  0  0  0  0  0  0  0  0
   -9.0000   15.1480    6.5200 C   0  0  0  0  0  0  0  0  0  0  0  0
  -10.4230   14.9660    4.3940 S   0  0  0  0  0  0  0  0  0  0  0  0
  -11.2470   15.1030    5.8980 C   0  0  0  0  0  0  0  0  0  0  0  0
  -10.3650   15.1940    6.9510 C   0  0  0  0  0  0  0  0  0  0  0  0
  1  2  2  0
  2  3  1  0
  2  4  1  0
  4  5  1  1
  3  6  1  0
  4  7  1  0
  3  8  1  0
  7  8  1  0
  5  9  1  0
  6 10  1  0
  9 11  1  0
  9 12  2  0
 11 13  1  0
 13 14  2  0
 13 15  1  0
 15 16  1  0
 14 17  1  0
 16 17  2  0
M  END
