x0900_0_A-x0290_0_A
     RDKit          3D

 18 19  0  0  0  0  0  0  0  0999 V2000
   -5.8920   13.5910   -0.0030 N   0  0  0  0  0  0  0  0  0  0  0  0
   -5.6500   14.2220    1.1140 C   0  0  0  0  0  0  0  0  0  0  0  0
   -6.8370   14.3610    2.1000 C   0  0  0  0  0  0  0  0  0  0  0  0
   -5.0040   13.3100   -1.0850 C   0  0  1  0  0  0  0  0  0  0  0  0
   -4.3690   14.7510    1.4310 N   0  0  0  0  0  0  0  0  0  0  0  0
   -5.6480   13.8580   -2.2630 N   0  0  0  0  0  0  0  0  0  0  0  0
   -3.7820   14.1510   -0.9300 C   0  0  0  0  0  0  0  0  0  0  0  0
   -8.1360   14.1300    1.4330 N   0  0  0  0  0  0  0  0  0  0  0  0
   -4.3790   15.5320   -1.1000 C   0  0  0  0  0  0  0  0  0  0  0  0
   -5.3040   15.2870   -2.2690 C   0  0  0  0  0  0  0  0  0  0  0  0
   -3.0300   14.6300    0.9390 C   0  0  0  0  0  0  0  0  0  0  0  0
   -8.4140   15.0400    0.3310 C   0  0  0  0  0  0  0  0  0  0  0  0
   -2.0570   14.4390    1.8770 N   0  0  0  0  0  0  0  0  0  0  0  0
   -2.6560   14.6960   -0.4080 C   0  0  0  0  0  0  0  0  0  0  0  0
   -0.7640   14.3170    1.4840 C   0  0  0  0  0  0  0  0  0  0  0  0
   -1.3080   14.5660   -0.8000 C   0  0  0  0  0  0  0  0  0  0  0  0
   -0.9240   14.6340   -2.2470 C   0  0  0  0  0  0  0  0  0  0  0  0
   -0.3470   14.3730    0.1760 C   0  0  0  0  0  0  0  0  0  0  0  0
  1  2  2  3
  2  3  1  0
  4  1  1  1
  2  5  1  0
  4  6  1  0
  4  7  1  0
  3  8  1  0
  7  9  1  0
  6 10  1  0
  9 10  1  0
  5 11  1  0
  8 12  1  0
 11 13  2  0
 11 14  1  0
 13 15  1  0
 14 16  2  0
 16 17  1  0
 15 18  2  0
 16 18  1  0
M  END
