x0905_0_A-x0104_0_A
     RDKit          3D

 17 18  0  0  0  0  0  0  0  0999 V2000
   -7.6220   15.1080   -0.4630 O   0  0  0  0  0  0  0  0  0  0  0  0
   -6.3080   14.6470   -0.2490 C   0  0  2  0  0  0  0  0  0  0  0  0
   -5.7980   15.0390    1.0850 N   0  0  0  0  0  0  0  0  0  0  0  0
   -5.4220   15.2260   -1.3530 C   0  0  0  0  0  0  0  0  0  0  0  0
   -6.5080   14.5770    2.2790 N   0  0  0  0  0  0  0  0  0  0  0  0
   -4.4220   15.2960    1.2040 C   0  0  0  0  0  0  0  0  0  0  0  0
   -4.0030   14.7080   -1.1610 C   0  0  2  0  0  0  0  0  0  0  0  0
   -7.7800   15.0440    2.7660 C   0  0  0  0  0  0  0  0  0  0  0  0
   -3.5280   15.1610    0.1960 C   0  0  0  0  0  0  0  0  0  0  0  0
   -3.1250   15.1020   -2.3410 C   0  0  0  0  0  0  0  0  0  0  0  0
   -7.8250   15.0580    4.1720 N   0  0  0  0  0  0  0  0  0  0  0  0
   -8.6950   15.3730    2.0180 O   0  0  0  0  0  0  0  0  0  0  0  0
   -8.9620   15.0710    5.0010 C   0  0  0  0  0  0  0  0  0  0  0  0
   -8.9650   15.1880    6.3850 C   0  0  0  0  0  0  0  0  0  0  0  0
  -10.5500   14.9360    4.4000 S   0  0  0  0  0  0  0  0  0  0  0  0
  -11.2490   15.0320    5.9600 C   0  0  0  0  0  0  0  0  0  0  0  0
  -10.2900   15.1650    6.9370 C   0  0  0  0  0  0  0  0  0  0  0  0
  2  1  1  6
  2  3  1  0
  2  4  1  0
  3  5  1  0
  3  6  1  0
  4  7  1  0
  5  8  1  0
  6  9  2  0
  7  9  1  0
  7 10  1  6
  8 11  1  0
  8 12  2  0
 11 13  1  0
 13 14  2  0
 13 15  1  0
 15 16  1  0
 14 17  1  0
 16 17  2  0
M  END
