x0900_1_A_α-EU0144_0_A_α
     RDKit          3D

 20 21  0  0  0  0  0  0  0  0999 V2000
   -1.0680   10.0860   -9.5800 O   0  0  0  0  0  0  0  0  0  0  0  0
   -0.8320    9.6320   -8.4740 C   0  0  0  0  0  0  0  0  0  0  0  0
    0.0120    8.5770   -8.2040 N   0  0  0  0  0  0  0  0  0  0  0  0
   -1.3730   10.0670   -7.1250 C   0  0  1  0  0  0  0  0  0  0  0  0
   -2.6000   10.9900   -7.1980 C   0  0  0  0  0  0  0  0  0  0  0  0
   -1.5520    8.6880   -6.4840 C   0  0  0  0  0  0  0  0  0  0  0  0
   -0.3250    7.9320   -6.9670 C   0  0  0  0  0  0  0  0  0  0  0  0
   -2.3430   12.4570   -6.7860 C   0  0  0  0  0  0  0  0  0  0  0  0
   -3.1350   13.0260   -5.5970 C   0  0  0  0  0  0  0  0  0  0  0  0
   -2.2710   13.4380   -4.3860 C   0  0  0  0  0  0  0  0  0  0  0  0
   -2.5850   14.8470   -3.8480 C   0  0  0  0  0  0  0  0  0  0  0  0
   -3.4040   14.8200   -2.6170 C   0  0  0  0  0  0  0  0  0  0  0  0
   -4.1360   14.8190   -1.6550 C   0  0  0  0  0  0  0  0  0  0  0  0
   -5.0720   14.8140   -0.5850 C   0  0  0  0  0  0  0  0  0  0  0  0
   -6.4040   14.5700   -0.8370 N   0  0  0  0  0  0  0  0  0  0  0  0
   -4.8790   15.0270    0.7650 C   0  0  0  0  0  0  0  0  0  0  0  0
   -3.8630   15.2940    1.5920 N   0  0  0  0  0  0  0  0  0  0  0  0
   -6.9580   14.6440    0.3530 C   0  0  0  0  0  0  0  0  0  0  0  0
   -6.0920   14.9170    1.3680 O   0  0  0  0  0  0  0  0  0  0  0  0
   -8.3730   14.4800    0.7410 C   0  0  0  0  0  0  0  0  0  0  0  0
  1  2  2  0
  2  3  1  0
  2  4  1  0
  4  5  1  6
  4  6  1  0
  3  7  1  0
  6  7  1  0
  5  8  1  0
  8  9  1  0
  9 10  1  0
 10 11  1  0
 11 12  1  0
 12 13  3  0
 13 14  1  0
 14 15  1  0
 14 16  2  0
 16 17  1  0
 15 18  2  0
 16 19  1  0
 18 19  1  0
 18 20  1  0
M  END
