x0900_0_A-x0910_0_A
     RDKit          3D

 12 13  0  0  0  0  0  0  0  0999 V2000
   -7.2990   14.9510   -0.5630 O   0  0  0  0  0  0  0  0  0  0  0  0
   -6.1220   14.7990   -0.2940 C   0  0  0  0  0  0  0  0  0  0  0  0
   -5.1090   14.7210   -1.2010 N   0  0  0  0  0  0  0  0  0  0  0  0
   -5.4970   14.6630    1.0650 C   0  0  0  0  0  0  0  0  0  0  0  0
   -4.1620   15.3700    0.8370 C   0  0  0  0  0  0  0  0  0  0  0  0
   -3.9500   15.3330   -0.6870 C   0  0  1  0  0  0  0  0  0  0  0  0
   -2.8750   14.4850   -1.0970 N   0  0  0  0  0  0  0  0  0  0  0  0
   -1.7530   14.6370   -0.4070 C   0  0  0  0  0  0  0  0  0  0  0  0
   -1.7490   14.5570    0.9520 N   0  0  0  0  0  0  0  0  0  0  0  0
   -0.5460   14.8770   -0.8370 N   0  0  0  0  0  0  0  0  0  0  0  0
   -0.5240   14.7510    1.4400 N   0  0  0  0  0  0  0  0  0  0  0  0
    0.1630   14.9470    0.3160 C   0  0  0  0  0  0  0  0  0  0  0  0
  1  2  2  0
  2  3  1  0
  2  4  1  0
  4  5  1  0
  3  6  1  0
  5  6  1  0
  6  7  1  1
  7  8  1  0
  8  9  1  0
  8 10  2  0
  9 11  1  0
 10 12  1  0
 11 12  2  0
M  END
