x0900_1_A-x0864_0_A
     RDKit          3D

 18 19  0  0  0  0  0  0  0  0999 V2000
   -0.6560   10.0680   -9.9750 O   0  0  0  0  0  0  0  0  0  0  0  0
   -0.7450    9.1510   -9.1810 C   0  0  0  0  0  0  0  0  0  0  0  0
    0.3090    8.5590   -8.5080 N   0  0  0  0  0  0  0  0  0  0  0  0
   -2.0110    8.4600   -8.7800 C   0  0  0  0  0  0  0  0  0  0  0  0
   -1.6510    7.9010   -7.4130 C   0  0  1  0  0  0  0  0  0  0  0  0
   -0.1300    7.7310   -7.4170 C   0  0  0  0  0  0  0  0  0  0  0  0
   -2.1180    8.7170   -6.3750 O   0  0  0  0  0  0  0  0  0  0  0  0
   -1.4320    9.8680   -6.1160 C   0  0  0  0  0  0  0  0  0  0  0  0
   -2.0350   10.7160   -5.1400 C   0  0  0  0  0  0  0  0  0  0  0  0
   -0.2700   10.2140   -6.7000 C   0  0  0  0  0  0  0  0  0  0  0  0
   -1.4050   11.8200   -4.7460 C   0  0  0  0  0  0  0  0  0  0  0  0
    0.3910   11.4720   -6.3130 C   0  0  0  0  0  0  0  0  0  0  0  0
    1.4060   11.8570   -6.8850 O   0  0  0  0  0  0  0  0  0  0  0  0
   -0.1700   12.1670   -5.2640 N   0  0  0  0  0  0  0  0  0  0  0  0
    0.7620   12.8990   -4.4160 C   0  0  0  0  0  0  0  0  0  0  0  0
    0.8260   12.3330   -3.0050 C   0  0  0  0  0  0  0  0  0  0  0  0
    0.4990   11.0250   -2.8970 O   0  0  0  0  0  0  0  0  0  0  0  0
    1.1460   12.9950   -2.0340 O   0  0  0  0  0  0  0  0  0  0  0  0
  1  2  2  0
  2  3  1  0
  2  4  1  0
  4  5  1  0
  3  6  1  0
  5  6  1  0
  5  7  1  1
  7  8  1  0
  8  9  1  0
  8 10  2  0
  9 11  2  0
 10 12  1  0
 12 13  2  0
 11 14  1  0
 12 14  1  0
 14 15  1  0
 15 16  1  0
 16 17  1  0
 16 18  2  0
M  END
