x0900_0_A-x0766_0_A
     RDKit          3D

 18 20  0  0  0  0  0  0  0  0999 V2000
   -5.9190   14.1550   -1.4980 O   0  0  0  0  0  0  0  0  0  0  0  0
   -5.0670   14.3930   -0.6460 C   0  0  0  0  0  0  0  0  0  0  0  0
   -3.5830   14.7970   -0.8000 C   0  0  2  0  0  0  0  0  0  0  0  0
   -5.3580   14.3730    0.8510 C   0  0  0  0  0  0  0  0  0  0  0  0
   -4.2670   15.3180    1.3590 C   0  0  0  0  0  0  0  0  0  0  0  0
   -3.8500   15.9830    0.0580 C   0  0  0  0  0  0  0  0  0  0  0  0
   -2.8790   15.0820   -2.1490 C   0  0  0  0  0  0  0  0  0  0  0  0
   -2.5440   14.0290   -0.0700 C   0  0  0  0  0  0  0  0  0  0  0  0
   -1.5870   14.5850   -2.0850 C   0  0  0  0  0  0  0  0  0  0  0  0
   -1.4280   13.9480   -0.7980 C   0  0  0  0  0  0  0  0  0  0  0  0
   -0.3970   14.5800   -3.0380 C   0  0  1  0  0  0  0  0  0  0  0  0
   -0.0260   13.2860   -3.7890 C   0  0  2  0  0  0  0  0  0  0  0  0
   -0.1170   15.6950   -4.0330 C   0  0  0  0  0  0  0  0  0  0  0  0
    0.4570   12.2180   -2.8220 C   0  0  0  0  0  0  0  0  0  0  0  0
    1.1270   13.7120   -4.7290 C   0  0  0  0  0  0  0  0  0  0  0  0
    1.2170   15.2410   -4.6320 C   0  0  0  0  0  0  0  0  0  0  0  0
    1.3110   12.4050   -1.9790 O   0  0  0  0  0  0  0  0  0  0  0  0
   -0.1540   11.0220   -2.9580 O   0  0  0  0  0  0  0  0  0  0  0  0
  1  2  2  0
  3  2  1  0
  2  4  1  0
  4  5  1  0
  3  6  1  1
  5  6  1  0
  3  7  1  0
  3  8  1  0
  7  9  2  0
  8 10  2  0
  9 10  1  0
 11  9  1  6
 11 12  1  0
 11 13  1  0
 12 14  1  1
 12 15  1  0
 13 16  1  0
 15 16  1  0
 14 17  2  0
 14 18  1  0
M  END
