x0900_1_A-x0685_1_A
     RDKit          3D

 13 13  0  0  0  0  0  0  0  0999 V2000
   -1.0200    9.7850   -9.7820 O   0  0  0  0  0  0  0  0  0  0  0  0
   -0.9910    9.4650   -8.6060 C   0  0  0  0  0  0  0  0  0  0  0  0
   -0.2410    8.4450   -8.0580 N   0  0  0  0  0  0  0  0  0  0  0  0
   -1.7560   10.1010   -7.4730 C   0  0  0  0  0  0  0  0  0  0  0  0
   -0.7640    9.8660   -6.3240 C   0  0  2  0  0  0  0  0  0  0  0  0
   -0.4360    8.3960   -6.6350 C   0  0  0  0  0  0  0  0  0  0  0  0
   -1.2970   10.1540   -4.9610 N   0  0  0  0  0  0  0  0  0  0  0  0
   -1.4810   11.5910   -4.5990 C   0  0  0  0  0  0  0  0  0  0  0  0
   -0.2270   12.4060   -4.2520 C   0  0  0  0  0  0  0  0  0  0  0  0
    0.5820   11.9010   -2.7270 S   0  0  0  0  0  0  0  0  0  0  0  0
    2.1230   12.2710   -2.9430 O   0  0  0  0  0  0  0  0  0  0  0  0
    0.3820   10.3250   -2.5450 O   0  0  0  0  0  0  0  0  0  0  0  0
    0.0100   12.6830   -1.4510 O   0  0  0  0  0  0  0  0  0  0  0  0
  1  2  2  0
  2  3  1  0
  2  4  1  0
  4  5  1  0
  3  6  1  0
  5  6  1  0
  5  7  1  1
  7  8  1  0
  8  9  1  0
  9 10  1  0
 10 11  1  0
 10 12  1  0
 10 13  1  0
M  END
