x0900_0_A-x0837_0_A
     RDKit          3D

  7  7  0  0  0  0  0  0  0  0999 V2000
   -6.7740   15.0110   -0.9770 O   0  0  0  0  0  0  0  0  0  0  0  0
   -5.6910   14.9390   -0.4110 C   0  0  0  0  0  0  0  0  0  0  0  0
   -4.4210   15.2320   -0.9080 N   0  0  0  0  0  0  0  0  0  0  0  0
   -5.5180   14.4870    1.0210 C   0  0  0  0  0  0  0  0  0  0  0  0
   -3.6030   14.6570   -2.6760 I   0  0  0  0  0  0  0  0  0  0  0  0
   -4.0730   14.8290    1.3580 C   0  0  0  0  0  0  0  0  0  0  0  0
   -3.5340   15.5580    0.1660 C   0  0  0  0  0  0  0  0  0  0  0  0
  1  2  2  0
  2  3  1  0
  2  4  1  0
  3  5  1  0
  4  6  1  0
  3  7  1  0
  6  7  1  0
M  END
