x0905_0_A-x0689_0_A
     RDKit          3D

 14 15  0  0  0  0  0  0  0  0999 V2000
   -7.7110   14.9480   -0.3860 O   0  0  0  0  0  0  0  0  0  0  0  0
   -6.3860   15.0950   -0.5760 C   0  0  0  0  0  0  0  0  0  0  0  0
   -5.6760   14.9650    0.5560 N   0  0  0  0  0  0  0  0  0  0  0  0
   -5.8990   15.3520   -1.8350 C   0  0  0  0  0  0  0  0  0  0  0  0
   -4.3570   15.1060    0.3920 C   0  0  0  0  0  0  0  0  0  0  0  0
   -4.5440   15.4900   -1.9620 C   0  0  0  0  0  0  0  0  0  0  0  0
   -3.7830   15.3650   -0.8380 C   0  0  0  0  0  0  0  0  0  0  0  0
   -3.5110   14.9860    1.4190 N   0  0  0  0  0  0  0  0  0  0  0  0
   -2.2500   14.6910    1.0440 C   0  0  0  0  0  0  0  0  0  0  0  0
   -2.0160   14.7080   -0.2770 N   0  0  0  0  0  0  0  0  0  0  0  0
   -1.3510   14.4130    1.9480 N   0  0  0  0  0  0  0  0  0  0  0  0
   -0.8010   14.4370   -0.7140 C   0  0  0  0  0  0  0  0  0  0  0  0
   -0.1400   14.1410    1.4740 C   0  0  0  0  0  0  0  0  0  0  0  0
    0.2000   14.1400    0.1340 C   0  0  0  0  0  0  0  0  0  0  0  0
  1  2  1  0
  2  3  2  0
  2  4  1  0
  3  5  1  0
  4  6  2  0
  5  7  2  0
  6  7  1  0
  5  8  1  0
  8  9  1  0
  9 10  2  0
  9 11  1  0
 10 12  1  0
 11 13  2  0
 12 14  2  0
 13 14  1  0
M  END
