x0900_1_A-x0950_1_A
     RDKit          3D

 13 13  0  0  0  0  0  0  0  0999 V2000
   -0.8310    9.8680   -9.6690 O   0  0  0  0  0  0  0  0  0  0  0  0
   -0.9220    9.5540   -8.4940 C   0  0  0  0  0  0  0  0  0  0  0  0
    0.1300    9.3750   -7.6190 N   0  0  0  0  0  0  0  0  0  0  0  0
   -2.1940    9.2920   -7.7310 C   0  0  0  0  0  0  0  0  0  0  0  0
   -1.7020    8.5130   -6.5150 C   0  0  0  0  0  0  0  0  0  0  0  0
   -0.3200    9.1010   -6.2680 C   0  0  2  0  0  0  0  0  0  0  0  0
   -0.3370   10.3200   -5.2940 C   0  0  0  0  0  0  0  0  0  0  0  0
    0.5180   11.4160   -5.7160 O   0  0  0  0  0  0  0  0  0  0  0  0
    1.1160   12.2910   -4.7180 C   0  0  1  0  0  0  0  0  0  0  0  0
    0.7530   13.7200   -5.1000 C   0  0  0  0  0  0  0  0  0  0  0  0
    0.7260   12.0400   -3.2490 C   0  0  0  0  0  0  0  0  0  0  0  0
    0.0070   11.1660   -2.8020 O   0  0  0  0  0  0  0  0  0  0  0  0
    1.2850   12.9310   -2.4000 O   0  0  0  0  0  0  0  0  0  0  0  0
  1  2  2  0
  2  3  1  0
  2  4  1  0
  4  5  1  0
  3  6  1  0
  5  6  1  0
  6  7  1  1
  7  8  1  0
  8  9  1  0
  9 10  1  6
  9 11  1  0
 11 12  2  0
 11 13  1  0
M  END
