x0900_0_A_α-5CMS_0_I_α
     RDKit          3D

 22 23  0  0  0  0  0  0  0  0999 V2000
   -6.7220   14.9780   -0.9500 O   0  0  0  0  0  0  0  0  0  0  0  0
   -5.6050   15.0020   -0.4580 C   0  0  0  0  0  0  0  0  0  0  0  0
   -4.3960   15.3130   -1.0960 N   0  0  0  0  0  0  0  0  0  0  0  0
   -5.2900   14.6880    0.9850 C   0  0  0  0  0  0  0  0  0  0  0  0
   -4.1510   15.0540   -2.5110 C   0  0  0  0  0  0  0  0  0  0  0  0
   -3.9670   15.4080    1.1940 C   0  0  0  0  0  0  0  0  0  0  0  0
   -3.3000   15.2940   -0.1610 C   0  0  0  0  0  0  0  0  0  0  0  0
   -2.7510   15.5320   -2.9510 C   0  0  0  0  0  0  0  0  0  0  0  0
   -2.6350   15.8600   -4.4560 C   0  0  0  0  0  0  0  0  0  0  0  0
   -1.6320   16.9860   -4.7900 C   0  0  0  0  0  0  0  0  0  0  0  0
   -1.8600   17.7730   -6.1010 C   0  0  0  0  0  0  0  0  0  0  0  0
   -2.0200   19.2920   -5.9630 C   0  0  0  0  0  0  0  0  0  0  0  0
   -1.3800   20.1110   -7.0910 C   0  0  0  0  0  0  0  0  0  0  0  0
   -2.0080   21.5100   -7.1830 C   0  0  0  0  0  0  0  0  0  0  0  0
   -3.0780   21.6430   -8.2510 C   0  0  1  0  0  0  0  0  0  0  0  0
   -4.0800   22.6170   -8.0140 O   0  0  0  0  0  0  0  0  0  0  0  0
   -2.4940   22.0410   -9.5520 C   0  0  2  0  0  0  0  0  0  0  0  0
   -1.3920   22.8340   -9.1670 O   0  0  0  0  0  0  0  0  0  0  0  0
   -4.7130   22.7170   -9.2780 C   0  0  2  0  0  0  0  0  0  0  0  0
   -3.5790   22.8750  -10.2530 C   0  0  2  0  0  0  0  0  0  0  0  0
   -5.5020   23.8870   -9.2980 O   0  0  0  0  0  0  0  0  0  0  0  0
   -3.9060   22.3580  -11.5510 O   0  0  0  0  0  0  0  0  0  0  0  0
  1  2  2  0
  2  3  1  0
  2  4  1  0
  3  5  1  0
  4  6  1  0
  3  7  1  0
  6  7  1  0
  5  8  1  0
  8  9  1  0
  9 10  1  0
 10 11  1  0
 11 12  1  0
 12 13  1  0
 13 14  1  0
 15 14  1  1
 15 16  1  0
 15 17  1  0
 17 18  1  1
 16 19  1  0
 17 20  1  0
 19 20  1  0
 19 21  1  1
 20 22  1  6
M  END
