x0905_0_A-x0805_0_A
     RDKit          3D

 23 25  0  0  0  0  0  0  0  0999 V2000
   -7.8310   15.1330   -0.3380 O   0  0  0  0  0  0  0  0  0  0  0  0
   -6.4890   15.1690   -0.3250 C   0  0  0  0  0  0  0  0  0  0  0  0
   -5.9560   14.8400    0.8710 N   0  0  0  0  0  0  0  0  0  0  0  0
   -5.8070   15.5190   -1.4590 C   0  0  0  0  0  0  0  0  0  0  0  0
   -4.6170   14.8520    0.9220 C   0  0  0  0  0  0  0  0  0  0  0  0
   -4.4480   15.5210   -1.3730 C   0  0  0  0  0  0  0  0  0  0  0  0
   -3.8610   15.1740   -0.1670 C   0  0  0  0  0  0  0  0  0  0  0  0
   -2.5620   15.1300   -0.1210 O   0  0  0  0  0  0  0  0  0  0  0  0
   -2.4750   14.4380   -1.2730 C   0  0  0  0  0  0  0  0  0  0  0  0
   -3.5380   13.5530   -1.5200 C   0  0  0  0  0  0  0  0  0  0  0  0
   -1.4610   14.5720   -2.1640 C   0  0  0  0  0  0  0  0  0  0  0  0
   -3.5670   12.8050   -2.6840 C   0  0  0  0  0  0  0  0  0  0  0  0
   -1.4750   13.8290   -3.3340 C   0  0  0  0  0  0  0  0  0  0  0  0
   -2.5300   12.9450   -3.5980 C   0  0  0  0  0  0  0  0  0  0  0  0
   -0.3390   14.0030   -4.2850 C   0  0  2  0  0  0  0  0  0  0  0  0
    0.6080   12.7820   -4.2810 C   0  0  2  0  0  0  0  0  0  0  0  0
    0.3230   15.3370   -3.8740 C   0  0  0  0  0  0  0  0  0  0  0  0
    0.6370   12.1230   -2.9260 C   0  0  0  0  0  0  0  0  0  0  0  0
    1.9700   13.1340   -4.8360 C   0  0  0  0  0  0  0  0  0  0  0  0
    1.7510   15.4540   -4.3090 C   0  0  0  0  0  0  0  0  0  0  0  0
    0.1660   10.8630   -2.8970 O   0  0  0  0  0  0  0  0  0  0  0  0
    1.0450   12.6540   -1.9050 O   0  0  0  0  0  0  0  0  0  0  0  0
    2.5090   14.2600   -4.1650 O   0  0  0  0  0  0  0  0  0  0  0  0
  1  2  1  0
  2  3  2  0
  2  4  1  0
  3  5  1  0
  4  6  2  0
  5  7  2  0
  6  7  1  0
  7  8  1  0
  8  9  1  0
  9 10  2  0
  9 11  1  0
 10 12  1  0
 11 13  2  0
 12 14  2  0
 13 14  1  0
 15 13  1  1
 15 16  1  0
 15 17  1  0
 16 18  1  1
 16 19  1  0
 17 20  1  0
 18 21  1  0
 18 22  2  0
 19 23  1  0
 20 23  1  0
M  END
