x0905_1_B-x0228_1_A
     RDKit          3D

 29 31  0  0  0  0  0  0  0  0999 V2000
   13.6670   19.6990   11.6470 O   0  0  0  0  0  0  0  0  0  0  0  0
   13.2230   20.4350   12.7110 C   0  0  0  0  0  0  0  0  0  0  0  0
   12.3880   19.7990   13.5470 N   0  0  0  0  0  0  0  0  0  0  0  0
   13.6320   21.7470   12.8850 C   0  0  0  0  0  0  0  0  0  0  0  0
   11.9360   20.5050   14.6160 C   0  0  0  0  0  0  0  0  0  0  0  0
   13.1510   22.4490   13.9920 C   0  0  0  0  0  0  0  0  0  0  0  0
   12.2820   21.8330   14.8970 C   0  0  0  0  0  0  0  0  0  0  0  0
   11.7520   22.5750   16.1250 C   0  0  0  0  0  0  0  0  0  0  0  0
   11.5010   24.0860   15.9250 C   0  0  0  0  0  0  0  0  0  0  0  0
   10.6800   24.9050   16.9800 C   0  0  0  0  0  0  0  0  0  0  0  0
    9.2240   24.5110   17.3730 C   0  0  0  0  0  0  0  0  0  0  0  0
    8.2020   25.5810   17.2160 N   0  0  0  0  0  0  0  0  0  0  0  0
    7.5490   25.8720   18.4980 N   0  0  0  0  0  0  0  0  0  0  0  0
    7.0660   25.2990   16.3080 C   0  0  0  0  0  0  0  0  0  0  0  0
    6.2580   26.4840   18.1510 C   0  0  0  0  0  0  0  0  0  0  0  0
    5.9320   26.1040   16.7730 N   0  0  0  0  0  0  0  0  0  0  0  0
    4.5790   25.6620   16.4820 N   0  0  0  0  0  0  0  0  0  0  0  0
    3.7210   26.7490   16.3090 C   0  0  0  0  0  0  0  0  0  0  0  0
    2.4380   26.4430   15.8950 N   0  0  0  0  0  0  0  0  0  0  0  0
    4.1170   27.8840   16.5220 O   0  0  0  0  0  0  0  0  0  0  0  0
    1.4650   27.4600   15.7430 C   0  0  0  0  0  0  0  0  0  0  0  0
    0.2030   27.1400   15.1860 C   0  0  0  0  0  0  0  0  0  0  0  0
    1.7320   28.7750   16.1320 C   0  0  0  0  0  0  0  0  0  0  0  0
    0.0140   25.8230   14.8310 O   0  0  0  0  0  0  0  0  0  0  0  0
   -0.7480   28.1570   15.0320 C   0  0  0  0  0  0  0  0  0  0  0  0
    0.7860   29.7850   15.9790 C   0  0  0  0  0  0  0  0  0  0  0  0
   -1.3090   25.4390   14.4680 C   0  0  0  0  0  0  0  0  0  0  0  0
    1.1140   31.1840   16.4070 C   0  0  0  0  0  0  0  0  0  0  0  0
   -0.4580   29.4690   15.4250 C   0  0  0  0  0  0  0  0  0  0  0  0
  1  2  1  0
  2  3  2  0
  2  4  1  0
  3  5  1  0
  4  6  2  0
  5  7  2  0
  6  7  1  0
  7  8  1  0
  8  9  1  0
  9 10  1  0
 10 11  1  0
 11 12  1  0
 12 13  1  0
 12 14  1  0
 13 15  1  0
 14 16  1  0
 15 16  1  0
 16 17  1  0
 17 18  1  0
 18 19  1  0
 18 20  2  0
 19 21  1  0
 21 22  2  0
 21 23  1  0
 22 24  1  0
 22 25  1  0
 23 26  2  0
 24 27  1  0
 26 28  1  0
 25 29  2  0
 26 29  1  0
M  END
