x0905_1_B_α-x0933_4_B_α
     RDKit          3D

 21 22  0  0  0  0  0  0  0  0999 V2000
   14.1100   19.9780   11.6020 O   0  0  0  0  0  0  0  0  0  0  0  0
   13.4800   20.6210   12.6170 C   0  0  0  0  0  0  0  0  0  0  0  0
   12.6820   19.7810   13.3090 N   0  0  0  0  0  0  0  0  0  0  0  0
   13.6530   21.9920   12.8880 C   0  0  0  0  0  0  0  0  0  0  0  0
   14.5380   22.9640   12.1140 C   0  0  0  0  0  0  0  0  0  0  0  0
   12.0030   20.3250   14.3380 C   0  0  0  0  0  0  0  0  0  0  0  0
   12.9230   22.4890   13.9690 C   0  0  0  0  0  0  0  0  0  0  0  0
   15.9790   23.1550   12.6440 C   0  0  0  0  0  0  0  0  0  0  0  0
   12.0910   21.6550   14.7030 C   0  0  0  0  0  0  0  0  0  0  0  0
   16.5100   24.6010   12.5120 C   0  0  0  0  0  0  0  0  0  0  0  0
   17.2070   24.9170   11.1670 C   0  0  0  0  0  0  0  0  0  0  0  0
   17.6970   26.3870   11.0740 C   0  0  0  0  0  0  0  0  0  0  0  0
   17.7990   27.0560    9.6760 C   0  0  0  0  0  0  0  0  0  0  0  0
   17.8930   28.6040    9.7430 C   0  0  0  0  0  0  0  0  0  0  0  0
   17.7710   29.4270    8.4170 C   0  0  2  0  0  0  0  0  0  0  0  0
   17.5740   30.8610    8.6620 N   0  0  0  0  0  0  0  0  0  0  0  0
   16.7990   28.9090    7.3470 C   0  0  0  0  0  0  0  0  0  0  0  0
   17.6560   31.5810    7.4340 C   0  0  2  0  0  0  0  0  0  0  0  0
   15.8930   30.0020    6.7760 C   0  0  0  0  0  0  0  0  0  0  0  0
   17.6430   32.9640    7.7720 N   0  0  0  0  0  0  0  0  0  0  0  0
   16.4390   31.3710    6.7230 N   0  0  0  0  0  0  0  0  0  0  0  0
  1  2  1  0
  2  3  2  0
  2  4  1  0
  4  5  1  0
  3  6  1  0
  4  7  2  0
  5  8  1  0
  6  9  2  0
  7  9  1  0
  8 10  1  0
 10 11  1  0
 11 12  1  0
 12 13  1  0
 13 14  1  0
 15 14  1  1
 15 16  1  0
 15 17  1  0
 16 18  1  0
 17 19  1  0
 18 20  1  1
 18 21  1  0
 19 21  1  0
M  END
