x0905_0_A-x0962_0_A
     RDKit          3D

  8  8  0  0  0  0  0  0  0  0999 V2000
   -7.1000   15.0710   -0.6800 O   0  0  0  0  0  0  0  0  0  0  0  0
   -5.7570   15.0650   -0.5290 C   0  0  0  0  0  0  0  0  0  0  0  0
   -5.3620   15.0170    0.7510 N   0  0  0  0  0  0  0  0  0  0  0  0
   -4.9260   15.1010   -1.6240 C   0  0  0  0  0  0  0  0  0  0  0  0
   -4.0290   15.0140    0.9500 C   0  0  0  0  0  0  0  0  0  0  0  0
   -3.5570   15.0850   -1.3920 C   0  0  0  0  0  0  0  0  0  0  0  0
   -3.1010   15.0440   -0.0750 C   0  0  0  0  0  0  0  0  0  0  0  0
   -2.6480   15.1070   -2.4560 N   0  0  0  0  0  0  0  0  0  0  0  0
  1  2  1  0
  2  3  2  0
  2  4  1  0
  3  5  1  0
  4  6  2  0
  5  7  2  0
  6  7  1  0
  6  8  1  0
M  END
