x0905_0_A_α-x0471_0_A_α
     RDKit          3D

 17 18  0  0  0  0  0  0  0  0999 V2000
   -6.7770   16.2590   -0.9820 O   0  0  0  0  0  0  0  0  0  0  0  0
   -6.0270   15.1270   -0.7060 C   0  0  2  0  0  0  0  0  0  0  0  0
   -5.4460   15.1720    0.6350 N   0  0  0  0  0  0  0  0  0  0  0  0
   -4.9950   14.9660   -1.7690 C   0  0  0  0  0  0  0  0  0  0  0  0
   -7.0250   14.1270   -0.5030 N   0  0  0  0  0  0  0  0  0  0  0  0
   -4.0850   15.1300    0.8790 C   0  0  0  0  0  0  0  0  0  0  0  0
   -3.6690   14.9200   -1.4850 C   0  0  0  0  0  0  0  0  0  0  0  0
   -7.3390   14.2520    0.8520 C   0  0  0  0  0  0  0  0  0  0  0  0
   -6.4060   14.8290    1.5770 N   0  0  0  0  0  0  0  0  0  0  0  0
   -8.6410   13.7790    1.4860 C   0  0  0  0  0  0  0  0  0  0  0  0
   -3.1970   15.0130   -0.1130 C   0  0  0  0  0  0  0  0  0  0  0  0
   -8.5570   13.8900    2.9320 N   0  0  0  0  0  0  0  0  0  0  0  0
   -9.0660   14.9760    3.6140 C   0  0  0  0  0  0  0  0  0  0  0  0
   -9.3710   16.0280    3.0560 O   0  0  0  0  0  0  0  0  0  0  0  0
   -9.2600   14.8080    5.1180 C   0  0  0  0  0  0  0  0  0  0  0  0
   -9.6820   13.3900    5.4890 C   0  0  0  0  0  0  0  0  0  0  0  0
   -8.0400   15.2830    5.8990 C   0  0  0  0  0  0  0  0  0  0  0  0
  2  1  1  6
  2  3  1  0
  2  4  1  0
  2  5  1  0
  3  6  1  0
  4  7  2  0
  5  8  1  0
  3  9  1  0
  8  9  2  0
  8 10  1  0
  6 11  2  0
  7 11  1  0
 10 12  1  0
 12 13  1  0
 13 14  2  0
 13 15  1  0
 15 16  1  0
 15 17  1  0
M  END
