x0905_1_B_α-x0814_0_B_α
     RDKit          3D

 24 25  0  0  0  0  0  0  0  0999 V2000
   14.2710   19.4490   11.9210 O   0  0  0  0  0  0  0  0  0  0  0  0
   13.1800   20.1110   12.4940 C   0  0  1  0  0  0  0  0  0  0  0  0
   12.8190   19.5030   13.7770 N   0  0  0  0  0  0  0  0  0  0  0  0
   13.5820   21.5420   12.7230 C   0  0  0  0  0  0  0  0  0  0  0  0
   12.9970   18.0370   14.0150 C   0  0  0  0  0  0  0  0  0  0  0  0
   12.0490   20.2880   14.6260 C   0  0  0  0  0  0  0  0  0  0  0  0
   13.0890   22.2620   13.7450 C   0  0  0  0  0  0  0  0  0  0  0  0
   14.3970   17.4610   13.6580 C   0  0  0  0  0  0  0  0  0  0  0  0
   12.1490   21.6270   14.6430 C   0  0  0  0  0  0  0  0  0  0  0  0
   14.4970   15.9230   13.4970 C   0  0  0  0  0  0  0  0  0  0  0  0
   15.6020   15.5750   12.5820 N   0  0  0  0  0  0  0  0  0  0  0  0
   15.9820   14.4250   12.0540 C   0  0  0  0  0  0  0  0  0  0  0  0
   17.0840   14.5710   11.2700 N   0  0  0  0  0  0  0  0  0  0  0  0
   15.4330   12.9590   12.1710 C   0  0  2  0  0  0  0  0  0  0  0  0
   14.8530   12.4270   10.8530 C   0  0  0  0  0  0  0  0  0  0  0  0
   14.4650   12.5530   13.2930 C   0  0  1  0  0  0  0  0  0  0  0  0
   14.3970   13.5630   14.4190 C   0  0  0  0  0  0  0  0  0  0  0  0
   13.1860   12.0990   12.6360 N   0  0  0  0  0  0  0  0  0  0  0  0
   14.3100   10.9920   10.8770 C   0  0  0  0  0  0  0  0  0  0  0  0
   11.6490   12.4800   13.1750 S   0  0  0  0  0  0  0  0  0  0  0  0
   13.3110   10.7940   11.9760 C   0  0  0  0  0  0  0  0  0  0  0  0
   11.6010   13.9100   12.9750 O   0  0  0  0  0  0  0  0  0  0  0  0
   10.6480   11.5950   12.5940 O   0  0  0  0  0  0  0  0  0  0  0  0
   11.7940   12.1180   14.9190 C   0  0  0  0  0  0  0  0  0  0  0  0
  2  1  1  1
  2  3  1  0
  2  4  1  0
  3  5  1  0
  3  6  1  0
  4  7  2  0
  5  8  1  0
  6  9  2  0
  7  9  1  0
  8 10  1  0
 10 11  1  0
 11 12  2  3
 12 13  1  0
 14 12  1  6
 14 15  1  0
 14 16  1  0
 16 17  1  1
 16 18  1  0
 15 19  1  0
 18 20  1  0
 18 21  1  0
 19 21  1  0
 20 22  2  0
 20 23  2  0
 20 24  1  0
M  END
