x0900_0_A_α-x0689_0_A_α
     RDKit          3D

 13 14  0  0  0  0  0  0  0  0999 V2000
   -7.5360   14.8290   -0.6850 O   0  0  0  0  0  0  0  0  0  0  0  0
   -6.3470   14.8280   -0.4540 C   0  0  0  0  0  0  0  0  0  0  0  0
   -5.3590   15.0020   -1.3960 N   0  0  0  0  0  0  0  0  0  0  0  0
   -5.6880   14.6490    0.8860 C   0  0  0  0  0  0  0  0  0  0  0  0
   -4.4440   15.4900    0.6580 C   0  0  2  0  0  0  0  0  0  0  0  0
   -4.0810   15.0900   -0.7700 C   0  0  0  0  0  0  0  0  0  0  0  0
   -3.4430   15.1260    1.6120 N   0  0  0  0  0  0  0  0  0  0  0  0
   -2.2490   14.7940    1.0400 C   0  0  0  0  0  0  0  0  0  0  0  0
   -2.0740   14.8710   -0.2860 N   0  0  0  0  0  0  0  0  0  0  0  0
   -1.3330   14.4220    1.8870 N   0  0  0  0  0  0  0  0  0  0  0  0
   -0.8710   14.5510   -0.7670 C   0  0  0  0  0  0  0  0  0  0  0  0
   -0.1540   14.1070    1.3760 C   0  0  0  0  0  0  0  0  0  0  0  0
    0.1490   14.1540    0.0330 C   0  0  0  0  0  0  0  0  0  0  0  0
  1  2  2  0
  2  3  1  0
  2  4  1  0
  4  5  1  0
  3  6  1  0
  5  6  1  0
  5  7  1  1
  7  8  1  0
  8  9  2  0
  8 10  1  0
  9 11  1  0
 10 12  2  0
 11 13  2  0
 12 13  1  0
M  END
