x0900_0_A_α-x0805_0_A_α
     RDKit          3D

 13 14  0  0  0  0  0  0  0  0999 V2000
   -7.2640   14.9430   -0.4610 O   0  0  0  0  0  0  0  0  0  0  0  0
   -6.1350   14.9570   -0.0050 C   0  0  0  0  0  0  0  0  0  0  0  0
   -4.9870   15.1330   -0.7170 N   0  0  0  0  0  0  0  0  0  0  0  0
   -5.7030   14.7820    1.4350 C   0  0  0  0  0  0  0  0  0  0  0  0
   -4.3030   15.4040    1.3960 C   0  0  0  0  0  0  0  0  0  0  0  0
   -3.8990   14.7540    0.1150 C   0  0  2  0  0  0  0  0  0  0  0  0
   -2.7620   15.1840   -0.5280 O   0  0  0  0  0  0  0  0  0  0  0  0
   -2.6850   14.4660   -1.6580 C   0  0  0  0  0  0  0  0  0  0  0  0
   -3.6820   13.5780   -2.0690 C   0  0  0  0  0  0  0  0  0  0  0  0
   -1.5450   14.6380   -2.4250 C   0  0  0  0  0  0  0  0  0  0  0  0
   -1.3950   13.9270   -3.6100 C   0  0  0  0  0  0  0  0  0  0  0  0
   -3.5350   12.8660   -3.2520 C   0  0  0  0  0  0  0  0  0  0  0  0
   -2.3900   13.0420   -4.0220 C   0  0  0  0  0  0  0  0  0  0  0  0
  1  2  2  0
  2  3  1  0
  2  4  1  0
  4  5  1  0
  3  6  1  0
  5  6  1  0
  6  7  1  6
  7  8  1  0
  8  9  2  0
  8 10  1  0
 10 11  2  0
  9 12  1  0
 11 13  1  0
 12 13  2  0
M  END
