x0905_0_A_α-x0574_0_A_α
     RDKit          3D

 13 14  0  0  0  0  0  0  0  0999 V2000
   -6.8610   14.4880   -0.4040 O   0  0  0  0  0  0  0  0  0  0  0  0
   -7.1280   14.1550    0.9730 C   0  0  0  0  0  0  0  0  0  0  0  0
   -5.8030   15.4270   -0.4940 C   0  0  1  0  0  0  0  0  0  0  0  0
   -5.2200   15.4190    0.8490 N   0  0  0  0  0  0  0  0  0  0  0  0
   -4.8460   15.1640   -1.6230 C   0  0  0  0  0  0  0  0  0  0  0  0
   -3.8400   15.9080    0.9220 C   0  0  0  0  0  0  0  0  0  0  0  0
   -3.5260   15.0340   -1.4390 C   0  0  0  0  0  0  0  0  0  0  0  0
   -2.9520   15.1270   -0.0500 C   0  0  1  0  0  0  0  0  0  0  0  0
   -1.1580   15.5640   -0.0090 S   0  0  0  0  0  0  0  0  0  0  0  0
   -2.9270   13.7780    0.6180 C   0  0  0  0  0  0  0  0  0  0  0  0
   -2.0130   13.9900    1.7280 N   0  0  0  0  0  0  0  0  0  0  0  0
   -0.8120   14.1420    1.0110 C   0  0  2  0  0  0  0  0  0  0  0  0
    0.1800   14.2850    2.0060 N   0  0  0  0  0  0  0  0  0  0  0  0
  1  2  1  0
  3  1  1  1
  3  4  1  0
  3  5  1  0
  4  6  1  0
  5  7  2  0
  8  6  1  1
  8  7  1  0
  8  9  1  0
  8 10  1  0
 10 11  1  0
  9 12  1  0
 11 12  1  0
 12 13  1  1
M  END
