x0905_0_A_α-x0438_0_A_α
     RDKit          3D

 15 16  0  0  0  0  0  0  0  0999 V2000
   -6.7760   16.1860   -0.9550 O   0  0  0  0  0  0  0  0  0  0  0  0
   -5.9850   15.0830   -0.6720 C   0  0  2  0  0  0  0  0  0  0  0  0
   -5.3710   15.1760    0.6520 N   0  0  0  0  0  0  0  0  0  0  0  0
   -4.9750   14.9260   -1.7560 C   0  0  0  0  0  0  0  0  0  0  0  0
   -6.9460   14.0500   -0.4090 N   0  0  0  0  0  0  0  0  0  0  0  0
   -4.0110   15.1290    0.8680 C   0  0  0  0  0  0  0  0  0  0  0  0
   -3.6450   14.8940   -1.5020 C   0  0  0  0  0  0  0  0  0  0  0  0
   -7.2330   14.2400    0.9500 C   0  0  0  0  0  0  0  0  0  0  0  0
   -6.3000   14.8600    1.6200 N   0  0  0  0  0  0  0  0  0  0  0  0
   -8.4900   13.7850    1.6120 C   0  0  0  0  0  0  0  0  0  0  0  0
   -3.1440   14.9970   -0.1400 C   0  0  0  0  0  0  0  0  0  0  0  0
   -9.2800   15.1130    2.5260 S   0  0  0  0  0  0  0  0  0  0  0  0
   -8.2010   15.4930    3.8980 C   0  0  0  0  0  0  0  0  0  0  0  0
  -10.4960   14.5670    3.1030 O   0  0  0  0  0  0  0  0  0  0  0  0
   -9.3830   16.2950    1.6920 O   0  0  0  0  0  0  0  0  0  0  0  0
  2  1  1  6
  2  3  1  0
  2  4  1  0
  2  5  1  0
  3  6  1  0
  4  7  2  0
  5  8  1  0
  3  9  1  0
  8  9  2  0
  8 10  1  0
  6 11  2  0
  7 11  1  0
 12 10  1  0
 12 13  1  0
 12 14  2  0
 12 15  2  0
M  END
