x0905_0_A_α-x0766_0_A_α
     RDKit          3D

 18 20  0  0  0  0  0  0  0  0999 V2000
   -7.0470   15.1710   -0.3230 O   0  0  0  0  0  0  0  0  0  0  0  0
   -5.6920   15.0460   -0.5120 C   0  0  0  0  0  0  0  0  0  0  0  0
   -4.9590   14.5390    0.5430 N   0  0  0  0  0  0  0  0  0  0  0  0
   -5.1430   15.4030   -1.6790 C   0  0  0  0  0  0  0  0  0  0  0  0
   -3.6490   14.7020    0.5340 C   0  0  0  0  0  0  0  0  0  0  0  0
   -3.7380   15.2240   -1.7960 C   0  0  0  0  0  0  0  0  0  0  0  0
   -2.9080   15.4380   -0.5800 C   0  0  2  0  0  0  0  0  0  0  0  0
   -3.0070   14.8720   -2.8520 C   0  0  0  0  0  0  0  0  0  0  0  0
   -1.6160   14.7870   -2.4560 C   0  0  0  0  0  0  0  0  0  0  0  0
   -1.5270   15.0770   -1.1210 C   0  0  0  0  0  0  0  0  0  0  0  0
   -0.5360   14.4200   -3.4690 C   0  0  2  0  0  0  0  0  0  0  0  0
    0.6800   13.6120   -3.0170 C   0  0  1  0  0  0  0  0  0  0  0  0
    0.2200   15.6040   -4.0750 C   0  0  0  0  0  0  0  0  0  0  0  0
    0.3960   12.3390   -2.2840 C   0  0  0  0  0  0  0  0  0  0  0  0
    1.4410   13.4960   -4.3290 C   0  0  0  0  0  0  0  0  0  0  0  0
    1.4300   14.9620   -4.7620 C   0  0  0  0  0  0  0  0  0  0  0  0
    0.3260   12.3310   -1.0850 O   0  0  0  0  0  0  0  0  0  0  0  0
    0.2280   11.2290   -3.0380 O   0  0  0  0  0  0  0  0  0  0  0  0
  1  2  1  0
  2  3  1  0
  2  4  2  0
  3  5  2  0
  4  6  1  0
  7  5  1  1
  6  7  1  0
  6  8  2  0
  8  9  1  0
  7 10  1  0
  9 10  2  0
 11  9  1  1
 11 12  1  0
 11 13  1  0
 12 14  1  6
 12 15  1  0
 13 16  1  0
 15 16  1  0
 14 17  2  0
 14 18  1  0
M  END
