x0900_0_A-x0962_0_A
     RDKit          3D

  8  8  0  0  0  0  0  0  0  0999 V2000
   -7.1970   15.1100   -0.3870 O   0  0  0  0  0  0  0  0  0  0  0  0
   -6.0120   14.9700   -0.1610 C   0  0  0  0  0  0  0  0  0  0  0  0
   -5.0330   14.8980   -1.1200 N   0  0  0  0  0  0  0  0  0  0  0  0
   -5.3230   14.8220    1.1790 C   0  0  0  0  0  0  0  0  0  0  0  0
   -3.8800   15.1700    0.8120 C   0  0  0  0  0  0  0  0  0  0  0  0
   -3.8140   14.4500   -0.5260 C   0  0  2  0  0  0  0  0  0  0  0  0
   -2.6680   14.7190   -1.3930 C   0  0  0  0  0  0  0  0  0  0  0  0
   -1.7870   14.8740   -2.1120 N   0  0  0  0  0  0  0  0  0  0  0  0
  1  2  2  0
  2  3  1  0
  2  4  1  0
  4  5  1  0
  3  6  1  0
  5  6  1  0
  6  7  1  6
  7  8  3  0
M  END
