x0905_0_A-x0969_0_A
     RDKit          3D

 11 12  0  0  0  0  0  0  0  0999 V2000
   -6.9860   15.9780   -1.1100 O   0  0  0  0  0  0  0  0  0  0  0  0
   -6.0160   15.0100   -0.8310 C   0  0  2  0  0  0  0  0  0  0  0  0
   -5.6150   15.2360    0.5290 N   0  0  0  0  0  0  0  0  0  0  0  0
   -4.8650   15.1900   -1.7750 C   0  0  0  0  0  0  0  0  0  0  0  0
   -6.7030   13.7280   -0.9470 N   0  0  0  0  0  0  0  0  0  0  0  0
   -4.2940   15.1250    0.9390 C   0  0  0  0  0  0  0  0  0  0  0  0
   -3.5890   15.2410   -1.3590 C   0  0  0  0  0  0  0  0  0  0  0  0
   -6.8110   14.6920    1.1420 C   0  0  1  0  0  0  0  0  0  0  0  0
   -7.1530   13.4510    0.4790 N   0  0  0  0  0  0  0  0  0  0  0  0
   -6.9120   14.4560    2.5600 N   0  0  0  0  0  0  0  0  0  0  0  0
   -3.2820   15.1230    0.0530 C   0  0  0  0  0  0  0  0  0  0  0  0
  2  1  1  6
  2  3  1  0
  2  4  1  0
  2  5  1  0
  3  6  1  0
  4  7  2  0
  3  8  1  0
  5  9  1  0
  8  9  1  0
  8 10  1  1
  6 11  2  0
  7 11  1  0
M  END
