x0905_0_B_α-x0729_1_B_α
     RDKit          3D

 25 26  0  0  0  0  0  0  0  0999 V2000
   14.2520   20.3080   11.6730 O   0  0  0  0  0  0  0  0  0  0  0  0
   13.5240   20.7650   12.7290 C   0  0  0  0  0  0  0  0  0  0  0  0
   12.7650   19.7700   13.2440 N   0  0  0  0  0  0  0  0  0  0  0  0
   13.5420   22.0950   13.2430 C   0  0  0  0  0  0  0  0  0  0  0  0
   14.3260   23.3430   12.8050 C   0  0  0  0  0  0  0  0  0  0  0  0
   11.9850   20.0600   14.2940 C   0  0  0  0  0  0  0  0  0  0  0  0
   12.7060   22.3170   14.3360 C   0  0  0  0  0  0  0  0  0  0  0  0
   15.5930   23.1490   11.9720 C   0  0  0  0  0  0  0  0  0  0  0  0
   11.9250   21.3050   14.8690 C   0  0  0  0  0  0  0  0  0  0  0  0
   16.7910   24.1150   12.1360 C   0  0  0  0  0  0  0  0  0  0  0  0
   16.9730   25.0800   10.9420 C   0  0  0  0  0  0  0  0  0  0  0  0
   18.3600   25.2180   10.3100 C   0  0  0  0  0  0  0  0  0  0  0  0
   18.1740   25.8810    8.9890 N   0  0  0  0  0  0  0  0  0  0  0  0
   18.8610   27.2210    8.6460 S   0  0  2  0  0  0  0  0  0  0  0  0
   19.4660   28.1260    9.6000 O   0  0  0  0  0  0  0  0  0  0  0  0
   17.7290   28.1820    7.6650 C   0  0  0  0  0  0  0  0  0  0  0  0
   20.1620   26.7620    7.6110 N   0  0  0  0  0  0  0  0  0  0  0  0
   21.5420   27.0890    7.9470 C   0  0  0  0  0  0  0  0  0  0  0  0
   19.9400   26.4090    6.2020 C   0  0  2  0  0  0  0  0  0  0  0  0
   19.8370   24.8840    6.1000 C   0  0  0  0  0  0  0  0  0  0  0  0
   22.1110   28.2120    7.0820 C   0  0  0  0  0  0  0  0  0  0  0  0
   20.9750   26.8860    5.1750 C   0  0  1  0  0  0  0  0  0  0  0  0
   20.3270   27.0510    3.8550 C   0  0  0  0  0  0  0  0  0  0  0  0
   21.7460   28.1360    5.5950 C   0  0  0  0  0  0  0  0  0  0  0  0
   19.8390   27.1540    2.8090 N   0  0  0  0  0  0  0  0  0  0  0  0
  1  2  1  0
  2  3  2  0
  2  4  1  0
  4  5  1  0
  3  6  1  0
  4  7  2  0
  5  8  1  0
  6  9  2  0
  7  9  1  0
  8 10  1  0
 10 11  1  0
 11 12  1  0
 12 13  1  0
 13 14  2  0
 14 15  2  0
 14 16  1  6
 14 17  1  0
 17 18  1  0
 17 19  1  0
 19 20  1  1
 18 21  1  0
 19 22  1  0
 22 23  1  6
 21 24  1  0
 22 24  1  0
 23 25  3  0
M  END
