x0905_0_B_α-x0216_0_A_α
     RDKit          3D

 29 30  0  0  0  0  0  0  0  0999 V2000
   13.9580   19.4340   11.6990 O   0  0  0  0  0  0  0  0  0  0  0  0
   13.4020   20.2430   12.6420 C   0  0  0  0  0  0  0  0  0  0  0  0
   12.4720   19.6270   13.3890 N   0  0  0  0  0  0  0  0  0  0  0  0
   13.7890   21.5700   12.7820 C   0  0  0  0  0  0  0  0  0  0  0  0
   14.8470   22.1830   11.9010 C   0  0  0  0  0  0  0  0  0  0  0  0
   11.8760   20.3660   14.3430 C   0  0  0  0  0  0  0  0  0  0  0  0
   13.1420   22.3090   13.7860 C   0  0  0  0  0  0  0  0  0  0  0  0
   15.4780   23.5210   12.3080 C   0  0  0  0  0  0  0  0  0  0  0  0
   12.1730   21.6960   14.5770 C   0  0  0  0  0  0  0  0  0  0  0  0
   16.5490   23.8910   11.2650 C   0  0  0  0  0  0  0  0  0  0  0  0
   17.2820   25.2300   11.4140 C   0  0  0  0  0  0  0  0  0  0  0  0
   17.7930   25.7400   10.0540 C   0  0  0  0  0  0  0  0  0  0  0  0
   18.7370   26.9550   10.1120 C   0  0  0  0  0  0  0  0  0  0  0  0
   18.5500   27.9800    8.9790 C   0  0  0  0  0  0  0  0  0  0  0  0
   19.1280   27.4960    7.7340 N   0  0  0  0  0  0  0  0  0  0  0  0
   18.9490   28.0960    6.6010 C   0  0  0  0  0  0  0  0  0  0  0  0
   18.2410   29.2400    6.3370 N   0  0  0  0  0  0  0  0  0  0  0  0
   19.5040   27.5720    5.4280 N   0  0  0  0  0  0  0  0  0  0  0  0
   17.2160   29.8440    7.1760 C   0  0  0  0  0  0  0  0  0  0  0  0
   18.9150   27.8840    4.1340 C   0  0  0  0  0  0  0  0  0  0  0  0
   20.9070   27.1650    5.3150 C   0  0  1  0  0  0  0  0  0  0  0  0
   15.8490   29.2570    6.8390 C   0  0  0  0  0  0  0  0  0  0  0  0
   17.2140   31.3480    6.9300 C   0  0  0  0  0  0  0  0  0  0  0  0
   21.9480   27.8590    6.1770 C   0  0  0  0  0  0  0  0  0  0  0  0
   21.2380   25.6980    5.3790 C   0  0  0  0  0  0  0  0  0  0  0  0
   23.2290   27.4600    5.4480 C   0  0  0  0  0  0  0  0  0  0  0  0
   22.8530   25.8870    4.6660 S   0  0  0  0  0  0  0  0  0  0  0  0
   22.6640   26.1400    3.2750 O   0  0  0  0  0  0  0  0  0  0  0  0
   23.7560   24.8740    5.1520 O   0  0  0  0  0  0  0  0  0  0  0  0
  1  2  1  0
  2  3  2  0
  2  4  1  0
  4  5  1  0
  3  6  1  0
  4  7  2  0
  5  8  1  0
  6  9  2  0
  7  9  1  0
  8 10  1  0
 10 11  1  0
 11 12  1  0
 12 13  1  0
 13 14  1  0
 14 15  1  0
 15 16  2  3
 16 17  1  0
 16 18  1  0
 17 19  1  0
 18 20  1  0
 21 18  1  1
 19 22  1  0
 19 23  1  0
 21 24  1  0
 21 25  1  0
 24 26  1  0
 27 25  1  0
 26 27  1  0
 27 28  2  0
 27 29  2  0
M  END
