x0900_1_A_α-x0895_0_A_α
     RDKit          3D

 19 20  0  0  0  0  0  0  0  0999 V2000
   -1.0840   10.0350   -9.5950 O   0  0  0  0  0  0  0  0  0  0  0  0
   -0.8670    9.5790   -8.4850 C   0  0  0  0  0  0  0  0  0  0  0  0
    0.0400    8.5910   -8.1870 N   0  0  0  0  0  0  0  0  0  0  0  0
   -1.5170    9.9600   -7.1710 C   0  0  1  0  0  0  0  0  0  0  0  0
   -2.8540   10.6640   -7.4030 C   0  0  0  0  0  0  0  0  0  0  0  0
   -1.5650    8.5920   -6.4860 C   0  0  0  0  0  0  0  0  0  0  0  0
   -0.2900    7.9110   -6.9640 C   0  0  0  0  0  0  0  0  0  0  0  0
   -3.3300   11.4560   -6.1790 C   0  0  0  0  0  0  0  0  0  0  0  0
   -3.3130   12.9740   -6.4180 C   0  0  0  0  0  0  0  0  0  0  0  0
   -2.7300   13.7710   -5.2350 C   0  0  0  0  0  0  0  0  0  0  0  0
   -3.7710   14.1610   -4.1740 C   0  0  0  0  0  0  0  0  0  0  0  0
   -3.1420   14.7510   -2.9030 C   0  0  0  0  0  0  0  0  0  0  0  0
   -4.1960   15.0250   -1.9270 N   0  0  0  0  0  0  0  0  0  0  0  0
   -3.9190   14.9640   -0.6840 C   0  0  0  0  0  0  0  0  0  0  0  0
   -4.6750   15.1690    0.4240 N   0  0  0  0  0  0  0  0  0  0  0  0
   -2.6630   14.6450   -0.3020 N   0  0  0  0  0  0  0  0  0  0  0  0
   -3.7560   15.6400    1.4480 C   0  0  0  0  0  0  0  0  0  0  0  0
   -2.5030   14.8700    1.0390 C   0  0  0  0  0  0  0  0  0  0  0  0
   -1.5550   14.5300    1.7350 O   0  0  0  0  0  0  0  0  0  0  0  0
  1  2  2  0
  2  3  1  0
  2  4  1  0
  4  5  1  6
  4  6  1  0
  3  7  1  0
  6  7  1  0
  5  8  1  0
  8  9  1  0
  9 10  1  0
 10 11  1  0
 11 12  1  0
 12 13  1  0
 13 14  2  3
 14 15  1  0
 14 16  1  0
 15 17  1  0
 16 18  1  0
 17 18  1  0
 18 19  2  0
M  END
