x0900_0_A_α-x0104_0_A_α
     RDKit          3D

 16 17  0  0  0  0  0  0  0  0999 V2000
   -6.9300   14.9570   -0.7610 O   0  0  0  0  0  0  0  0  0  0  0  0
   -5.7470   14.9100   -0.4630 C   0  0  0  0  0  0  0  0  0  0  0  0
   -4.7270   14.6200   -1.3280 N   0  0  0  0  0  0  0  0  0  0  0  0
   -5.1400   15.1630    0.9020 C   0  0  1  0  0  0  0  0  0  0  0  0
   -5.9030   14.4930    2.0420 C   0  0  0  0  0  0  0  0  0  0  0  0
   -3.7410   14.5830    0.7540 C   0  0  0  0  0  0  0  0  0  0  0  0
   -3.4520   14.8110   -0.7160 C   0  0  0  0  0  0  0  0  0  0  0  0
   -7.4150   14.2950    1.8850 C   0  0  0  0  0  0  0  0  0  0  0  0
   -8.2570   15.1310    2.8500 C   0  0  0  0  0  0  0  0  0  0  0  0
   -8.0610   14.8970    4.2020 N   0  0  0  0  0  0  0  0  0  0  0  0
   -9.0540   15.9210    2.3650 O   0  0  0  0  0  0  0  0  0  0  0  0
   -9.0950   14.9460    5.1340 C   0  0  0  0  0  0  0  0  0  0  0  0
   -8.9900   15.0950    6.5060 C   0  0  0  0  0  0  0  0  0  0  0  0
  -10.7220   14.8200    4.6500 S   0  0  0  0  0  0  0  0  0  0  0  0
  -10.2700   15.1030    7.1530 C   0  0  0  0  0  0  0  0  0  0  0  0
  -11.3030   14.9620    6.2510 C   0  0  0  0  0  0  0  0  0  0  0  0
  1  2  2  0
  2  3  1  0
  2  4  1  0
  4  5  1  1
  4  6  1  0
  3  7  1  0
  6  7  1  0
  5  8  1  0
  8  9  1  0
  9 10  1  0
  9 11  2  0
 10 12  1  0
 12 13  2  0
 12 14  1  0
 13 15  1  0
 14 16  1  0
 15 16  2  0
M  END
