x0905_0_B-x0905_1_B
     RDKit          3D

  7  7  0  0  0  0  0  0  0  0999 V2000
   14.0430   19.5970   11.5990 O   0  0  0  0  0  0  0  0  0  0  0  0
   13.4000   20.2530   12.5970 C   0  0  0  0  0  0  0  0  0  0  0  0
   12.5380   19.5110   13.3090 N   0  0  0  0  0  0  0  0  0  0  0  0
   13.6670   21.5900   12.8070 C   0  0  0  0  0  0  0  0  0  0  0  0
   11.8950   20.1610   14.3040 C   0  0  0  0  0  0  0  0  0  0  0  0
   12.9890   22.2290   13.8370 C   0  0  0  0  0  0  0  0  0  0  0  0
   12.0840   21.5030   14.6020 C   0  0  0  0  0  0  0  0  0  0  0  0
  1  2  1  0
  2  3  2  0
  2  4  1  0
  3  5  1  0
  4  6  2  0
  5  7  2  0
  6  7  1  0
M  END
