x0900_1_A_α-x0253_0_A_α
     RDKit          3D

 14 14  0  0  0  0  0  0  0  0999 V2000
   -0.7500   10.3260   -9.3600 O   0  0  0  0  0  0  0  0  0  0  0  0
   -0.7600    9.7020   -8.3080 C   0  0  0  0  0  0  0  0  0  0  0  0
    0.0490    9.8440   -7.1540 N   0  0  0  0  0  0  0  0  0  0  0  0
   -1.7220    8.5510   -8.0330 C   0  0  2  0  0  0  0  0  0  0  0  0
   -3.1550    8.8420   -8.3840 C   0  0  0  0  0  0  0  0  0  0  0  0
    0.6420   11.0440   -6.6910 C   0  0  0  0  0  0  0  0  0  0  0  0
   -1.5530    8.2580   -6.5550 C   0  0  0  0  0  0  0  0  0  0  0  0
   -0.1250    8.6490   -6.3400 C   0  0  0  0  0  0  0  0  0  0  0  0
    0.1180   11.5820   -5.5290 N   0  0  0  0  0  0  0  0  0  0  0  0
    1.5810   11.6240   -7.2050 O   0  0  0  0  0  0  0  0  0  0  0  0
    0.9310   12.5020   -4.7370 C   0  0  0  0  0  0  0  0  0  0  0  0
    0.8090   12.1850   -3.2460 C   0  0  0  0  0  0  0  0  0  0  0  0
    1.3100   12.8580   -2.3530 O   0  0  0  0  0  0  0  0  0  0  0  0
    0.0870   11.0750   -2.9770 O   0  0  0  0  0  0  0  0  0  0  0  0
  1  2  2  0
  2  3  1  0
  2  4  1  0
  4  5  1  1
  3  6  1  0
  4  7  1  0
  3  8  1  0
  7  8  1  0
  6  9  1  0
  6 10  2  0
  9 11  1  0
 11 12  1  0
 12 13  2  0
 12 14  1  0
M  END
