x0905_0_A-x0724_0_A
     RDKit          3D

 14 15  0  0  0  0  0  0  0  0999 V2000
   -6.9480   15.4380   -1.2520 O   0  0  0  0  0  0  0  0  0  0  0  0
   -5.6690   15.5820   -0.6170 C   0  0  1  0  0  0  0  0  0  0  0  0
   -5.5980   14.5630    0.5850 C   0  0  2  0  0  0  0  0  0  0  0  0
   -4.6150   15.4320   -1.6620 C   0  0  0  0  0  0  0  0  0  0  0  0
   -4.2230   13.9600    0.7250 C   0  0  0  0  0  0  0  0  0  0  0  0
   -3.5020   14.7370   -1.4620 C   0  0  0  0  0  0  0  0  0  0  0  0
   -6.7460   13.6420    0.2550 N   0  0  0  0  0  0  0  0  0  0  0  0
   -6.0010   15.0960    1.9240 C   0  0  0  0  0  0  0  0  0  0  0  0
   -3.2690   14.0630   -0.2150 C   0  0  0  0  0  0  0  0  0  0  0  0
   -7.2110   14.6950    2.3270 C   0  0  0  0  0  0  0  0  0  0  0  0
   -7.6000   13.8110    1.2380 C   0  0  0  0  0  0  0  0  0  0  0  0
   -7.9970   15.0050    3.5540 C   0  0  0  0  0  0  0  0  0  0  0  0
   -8.5750   13.8400    4.2330 N   0  0  0  0  0  0  0  0  0  0  0  0
   -8.4860   13.9510    5.6900 C   0  0  0  0  0  0  0  0  0  0  0  0
  2  1  1  6
  2  3  1  0
  2  4  1  0
  3  5  1  1
  4  6  2  0
  3  7  1  0
  3  8  1  0
  5  9  2  0
  6  9  1  0
  8 10  2  0
  7 11  2  0
 10 11  1  0
 10 12  1  0
 12 13  1  0
 13 14  1  0
M  END
