x0900_1_A_α-x0662_0_A_β
     RDKit          3D

 10 10  0  0  0  0  0  0  0  0999 V2000
   -1.1080    9.2440  -10.1180 O   0  0  0  0  0  0  0  0  0  0  0  0
   -0.9230    9.1940   -8.9130 C   0  0  0  0  0  0  0  0  0  0  0  0
    0.1210    9.7760   -8.2060 N   0  0  0  0  0  0  0  0  0  0  0  0
   -1.7970    8.5040   -7.8820 C   0  0  0  0  0  0  0  0  0  0  0  0
    1.0780   10.5250   -8.9590 N   0  0  0  0  0  0  0  0  0  0  0  0
   -1.1830    8.9690   -6.5570 C   0  0  0  0  0  0  0  0  0  0  0  0
   -0.5870   10.2900   -7.0210 C   0  0  1  0  0  0  0  0  0  0  0  0
    0.1150   11.1640   -5.9140 C   0  0  0  0  0  0  0  0  0  0  0  0
   -0.4670   11.1830   -4.7920 O   0  0  0  0  0  0  0  0  0  0  0  0
    1.1760   11.7760   -6.2440 O   0  0  0  0  0  0  0  0  0  0  0  0
  1  2  2  0
  2  3  1  0
  2  4  1  0
  3  5  1  0
  4  6  1  0
  3  7  1  0
  6  7  1  0
  7  8  1  1
  8  9  2  0
  8 10  1  0
M  CHG  1  10  -1
M  END
