x0905_0_A_α-x0962_2_B_α
     RDKit          3D

 17 18  0  0  0  0  0  0  0  0999 V2000
   -6.8180   15.8880   -1.0500 O   0  0  0  0  0  0  0  0  0  0  0  0
   -5.9210   14.8160   -1.0570 C   0  0  2  0  0  0  0  0  0  0  0  0
   -5.5160   14.5660    0.3170 N   0  0  0  0  0  0  0  0  0  0  0  0
   -4.7680   15.1620   -1.9390 C   0  0  0  0  0  0  0  0  0  0  0  0
   -6.2760   13.4490    0.8840 C   0  0  0  0  0  0  0  0  0  0  0  0
   -4.2090   14.7910    0.7340 C   0  0  0  0  0  0  0  0  0  0  0  0
   -3.5160   15.3010   -1.4970 C   0  0  0  0  0  0  0  0  0  0  0  0
   -7.4810   13.9930    1.6440 C   0  0  0  0  0  0  0  0  0  0  0  0
   -3.2250   15.1350   -0.0940 C   0  0  0  0  0  0  0  0  0  0  0  0
   -8.6010   14.6560    0.8040 C   0  0  0  0  0  0  0  0  0  0  0  0
   -9.6970   15.3110    1.6680 C   0  0  2  0  0  0  0  0  0  0  0  0
  -10.2150   16.5880    1.2030 N   0  0  0  0  0  0  0  0  0  0  0  0
   -9.1590   15.3470    3.0470 C   0  0  0  0  0  0  0  0  0  0  0  0
   -9.0010   16.4240    3.8880 N   0  0  0  0  0  0  0  0  0  0  0  0
   -8.6850   14.2800    3.7790 C   0  0  0  0  0  0  0  0  0  0  0  0
   -8.4480   15.9580    5.0460 C   0  0  0  0  0  0  0  0  0  0  0  0
   -8.2490   14.6630    5.0040 N   0  0  0  0  0  0  0  0  0  0  0  0
  2  1  1  1
  2  3  1  0
  2  4  1  0
  3  5  1  0
  3  6  1  0
  4  7  2  0
  5  8  1  0
  6  9  2  0
  7  9  1  0
  8 10  1  0
 10 11  1  0
 11 12  1  6
 11 13  1  0
 13 14  1  0
 13 15  2  0
 14 16  1  0
 15 17  1  0
 16 17  2  0
M  END
