x0900_0_A_α-x1012_0_A_α
     RDKit          3D

 21 22  0  0  0  0  0  0  0  0999 V2000
   -7.0450   15.0160   -0.6060 O   0  0  0  0  0  0  0  0  0  0  0  0
   -5.8840   15.0000   -0.2370 C   0  0  0  0  0  0  0  0  0  0  0  0
   -4.7450   15.2290   -1.0100 N   0  0  0  0  0  0  0  0  0  0  0  0
   -5.4210   14.7180    1.1750 C   0  0  0  0  0  0  0  0  0  0  0  0
   -4.7770   14.9810   -2.4440 C   0  0  0  0  0  0  0  0  0  0  0  0
   -4.0180   15.2960    1.1650 C   0  0  0  0  0  0  0  0  0  0  0  0
   -3.5780   14.9100   -0.2250 C   0  0  0  0  0  0  0  0  0  0  0  0
   -3.3880   15.0500   -3.0790 C   0  0  0  0  0  0  0  0  0  0  0  0
   -3.3420   15.5790   -4.5230 C   0  0  0  0  0  0  0  0  0  0  0  0
   -2.6340   16.8680   -4.6030 N   0  0  0  0  0  0  0  0  0  0  0  0
   -1.3740   16.8280   -4.7990 C   0  0  0  0  0  0  0  0  0  0  0  0
   -0.6900   17.9990   -4.8960 N   0  0  0  0  0  0  0  0  0  0  0  0
   -0.5600   15.7410   -4.9320 N   0  0  0  0  0  0  0  0  0  0  0  0
   -1.1900   14.4430   -5.1860 C   0  0  0  0  0  0  0  0  0  0  0  0
    0.8300   15.7210   -4.4580 C   0  0  0  0  0  0  0  0  0  0  0  0
   -1.1160   13.5830   -3.9440 C   0  0  0  0  0  0  0  0  0  0  0  0
    1.0700   14.7030   -3.3300 C   0  0  0  0  0  0  0  0  0  0  0  0
    0.3410   13.3680   -3.5630 C   0  0  0  0  0  0  0  0  0  0  0  0
    0.4520   12.4380   -2.3750 C   0  0  0  0  0  0  0  0  0  0  0  0
    0.4180   11.1350   -2.6950 O   0  0  0  0  0  0  0  0  0  0  0  0
    0.5530   12.7770   -1.2060 O   0  0  0  0  0  0  0  0  0  0  0  0
  1  2  2  0
  2  3  1  0
  2  4  1  0
  3  5  1  0
  4  6  1  0
  3  7  1  0
  6  7  1  0
  5  8  1  0
  8  9  1  0
  9 10  1  0
 10 11  2  3
 11 12  1  0
 11 13  1  0
 13 14  1  0
 13 15  1  0
 14 16  1  0
 15 17  1  0
 16 18  1  0
 17 18  1  0
 18 19  1  0
 19 20  1  0
 19 21  2  0
M  END
