x0900_1_A_α-x0421_0_A_α
     RDKit          3D

 22 24  0  0  0  0  0  0  0  0999 V2000
   -0.9430    9.9270   -9.6550 O   0  0  0  0  0  0  0  0  0  0  0  0
   -0.7970    9.4660   -8.5350 C   0  0  0  0  0  0  0  0  0  0  0  0
    0.1790    8.5740   -8.1510 N   0  0  0  0  0  0  0  0  0  0  0  0
   -1.6070    9.7250   -7.2870 C   0  0  2  0  0  0  0  0  0  0  0  0
   -0.9430   10.7510   -6.3770 C   0  0  0  0  0  0  0  0  0  0  0  0
   -1.6330    8.3110   -6.7030 C   0  0  0  0  0  0  0  0  0  0  0  0
   -0.2220    7.8260   -6.9870 C   0  0  0  0  0  0  0  0  0  0  0  0
   -1.5590   12.1490   -6.3830 C   0  0  0  0  0  0  0  0  0  0  0  0
   -0.8630   13.1460   -5.4460 C   0  0  0  0  0  0  0  0  0  0  0  0
   -1.8440   13.9180   -4.5630 C   0  0  0  0  0  0  0  0  0  0  0  0
   -1.1120   14.8580   -3.6080 C   0  0  0  0  0  0  0  0  0  0  0  0
   -1.6540   14.7420   -2.2510 N   0  0  0  0  0  0  0  0  0  0  0  0
   -2.8970   14.9710   -1.9800 C   0  0  0  0  0  0  0  0  0  0  0  0
   -3.7550   15.3220   -2.9820 N   0  0  0  0  0  0  0  0  0  0  0  0
   -3.5300   14.9010   -0.6630 C   0  0  0  0  0  0  0  0  0  0  0  0
   -2.8670   14.9150    0.5500 C   0  0  0  0  0  0  0  0  0  0  0  0
   -4.8940   14.8070   -0.4390 N   0  0  0  0  0  0  0  0  0  0  0  0
   -3.8370   14.8270    1.4920 N   0  0  0  0  0  0  0  0  0  0  0  0
   -5.0370   14.7630    0.8660 C   0  0  0  0  0  0  0  0  0  0  0  0
   -6.3890   14.6450    1.6170 C   0  0  0  0  0  0  0  0  0  0  0  0
   -7.6760   14.6540    0.8360 C   0  0  0  0  0  0  0  0  0  0  0  0
   -7.1930   13.3830    1.4700 C   0  0  0  0  0  0  0  0  0  0  0  0
  1  2  2  0
  2  3  1  0
  2  4  1  0
  4  5  1  1
  4  6  1  0
  3  7  1  0
  6  7  1  0
  5  8  1  0
  8  9  1  0
  9 10  1  0
 10 11  1  0
 11 12  1  0
 12 13  2  3
 13 14  1  0
 13 15  1  0
 15 16  2  0
 15 17  1  0
 16 18  1  0
 17 19  2  0
 18 19  1  0
 19 20  1  0
 20 21  1  0
 20 22  1  0
 21 22  1  0
M  END
