x0905_0_A-x0128_0_A
     RDKit          3D

 17 18  0  0  0  0  0  0  0  0999 V2000
   -7.0140   13.9810   -0.7320 O   0  0  0  0  0  0  0  0  0  0  0  0
   -6.2280   15.1000   -0.3840 C   0  0  1  0  0  0  0  0  0  0  0  0
   -5.7250   15.0090    1.0300 N   0  0  0  0  0  0  0  0  0  0  0  0
   -5.1100   15.2090   -1.3990 C   0  0  0  0  0  0  0  0  0  0  0  0
   -6.5700   14.5140    2.1350 N   0  0  0  0  0  0  0  0  0  0  0  0
   -4.3590   15.1360    1.2740 C   0  0  0  0  0  0  0  0  0  0  0  0
   -3.8130   15.2860   -1.0750 C   0  0  0  0  0  0  0  0  0  0  0  0
   -7.7030   15.1660    2.7110 C   0  0  0  0  0  0  0  0  0  0  0  0
   -3.4200   15.2670    0.3130 C   0  0  0  0  0  0  0  0  0  0  0  0
   -8.6760   15.5570    2.0710 O   0  0  0  0  0  0  0  0  0  0  0  0
   -7.5460   15.2820    4.0970 N   0  0  0  0  0  0  0  0  0  0  0  0
   -8.3430   15.9820    5.0720 C   0  0  0  0  0  0  0  0  0  0  0  0
   -9.0550   17.1300    4.6990 C   0  0  0  0  0  0  0  0  0  0  0  0
   -8.4730   15.6020    6.4110 C   0  0  0  0  0  0  0  0  0  0  0  0
   -9.8380   17.8740    5.5250 N   0  0  0  0  0  0  0  0  0  0  0  0
   -9.2730   16.3510    7.2870 C   0  0  0  0  0  0  0  0  0  0  0  0
   -9.9290   17.4680    6.8020 C   0  0  0  0  0  0  0  0  0  0  0  0
  2  1  1  6
  2  3  1  0
  2  4  1  0
  3  5  1  0
  3  6  1  0
  4  7  2  0
  5  8  1  0
  6  9  2  0
  7  9  1  0
  8 10  2  0
  8 11  1  0
 11 12  1  0
 12 13  2  0
 12 14  1  0
 13 15  1  0
 14 16  2  0
 15 17  2  0
 16 17  1  0
M  END
