x0905_1_B_α-x0334_0_A_α
     RDKit          3D

 26 27  0  0  0  0  0  0  0  0999 V2000
   13.5250   19.8100   11.5710 O   0  0  0  0  0  0  0  0  0  0  0  0
   13.2660   20.5230   12.6970 C   0  0  0  0  0  0  0  0  0  0  0  0
   12.4770   19.9470   13.6270 N   0  0  0  0  0  0  0  0  0  0  0  0
   13.8260   21.7750   12.8080 C   0  0  0  0  0  0  0  0  0  0  0  0
   12.2490   20.6920   14.7470 C   0  0  0  0  0  0  0  0  0  0  0  0
   13.5790   22.5070   13.9550 C   0  0  0  0  0  0  0  0  0  0  0  0
   12.7820   21.9830   14.9700 C   0  0  0  0  0  0  0  0  0  0  0  0
   12.5450   22.8060   16.2330 C   0  0  0  0  0  0  0  0  0  0  0  0
   11.0890   23.2320   16.3140 C   0  0  0  0  0  0  0  0  0  0  0  0
   10.6770   24.5550   16.9970 C   0  0  0  0  0  0  0  0  0  0  0  0
    9.1910   24.5550   17.4630 C   0  0  0  0  0  0  0  0  0  0  0  0
    8.2650   25.6320   16.8310 C   0  0  0  0  0  0  0  0  0  0  0  0
    6.8420   25.1660   16.3800 C   0  0  0  0  0  0  0  0  0  0  0  0
    5.6890   25.5290   17.3400 C   0  0  2  0  0  0  0  0  0  0  0  0
    4.3830   25.1860   16.7230 N   0  0  0  0  0  0  0  0  0  0  0  0
    5.7730   26.9750   17.7540 C   0  0  0  0  0  0  0  0  0  0  0  0
    3.6670   26.2740   16.0580 C   0  0  0  0  0  0  0  0  0  0  0  0
    2.1550   26.1480   16.0980 C   0  0  0  0  0  0  0  0  0  0  0  0
    1.4210   26.2530   17.2860 C   0  0  0  0  0  0  0  0  0  0  0  0
    1.4520   25.9220   14.9190 C   0  0  0  0  0  0  0  0  0  0  0  0
    0.0210   26.1320   17.2700 C   0  0  0  0  0  0  0  0  0  0  0  0
    0.0630   25.8010   14.9070 C   0  0  0  0  0  0  0  0  0  0  0  0
   -0.6820   25.9030   16.0760 C   0  0  0  0  0  0  0  0  0  0  0  0
   -2.0820   25.7800   16.0970 N   0  0  0  0  0  0  0  0  0  0  0  0
   -2.8410   26.5630   17.0700 C   0  0  0  0  0  0  0  0  0  0  0  0
   -2.6480   25.7640   14.7360 C   0  0  0  0  0  0  0  0  0  0  0  0
  1  2  1  0
  2  3  2  0
  2  4  1  0
  3  5  1  0
  4  6  2  0
  5  7  2  0
  6  7  1  0
  7  8  1  0
  8  9  1  0
  9 10  1  0
 10 11  1  0
 11 12  1  0
 12 13  1  0
 13 14  1  0
 14 15  1  0
 14 16  1  6
 15 17  1  0
 17 18  1  0
 18 19  2  0
 18 20  1  0
 19 21  1  0
 20 22  2  0
 21 23  2  0
 22 23  1  0
 23 24  1  0
 24 25  1  0
 24 26  1  0
M  END
