x0905_0_A_α-3gqe_A_0_A_α
     RDKit          3D

 20 20  0  0  0  0  0  0  0  0999 V2000
   -6.6450   14.7920   -1.3460 O   0  0  0  0  0  0  0  0  0  0  0  0
   -5.4070   14.9910   -0.8240 C   0  0  0  0  0  0  0  0  0  0  0  0
   -5.4380   15.0840    0.5160 N   0  0  0  0  0  0  0  0  0  0  0  0
   -4.2410   15.0830   -1.6020 C   0  0  0  0  0  0  0  0  0  0  0  0
   -4.1380   14.9770   -3.0980 C   0  0  0  0  0  0  0  0  0  0  0  0
   -4.2550   15.2890    1.1330 C   0  0  0  0  0  0  0  0  0  0  0  0
   -3.0560   15.2940   -0.9100 C   0  0  0  0  0  0  0  0  0  0  0  0
   -2.8360   15.6760   -3.5730 C   0  0  0  0  0  0  0  0  0  0  0  0
   -3.0510   15.4000    0.4670 C   0  0  0  0  0  0  0  0  0  0  0  0
   -2.9360   16.2970   -4.9050 N   0  0  0  0  0  0  0  0  0  0  0  0
   -2.3850   17.4500   -5.1350 C   0  0  0  0  0  0  0  0  0  0  0  0
   -2.3670   18.2840   -6.4070 C   0  0  0  0  0  0  0  0  0  0  0  0
   -1.7550   18.0730   -4.1400 O   0  0  0  0  0  0  0  0  0  0  0  0
   -2.1290   19.7090   -6.1620 N   0  0  0  0  0  0  0  0  0  0  0  0
   -3.2880   20.6270   -6.3630 C   0  0  0  0  0  0  0  0  0  0  0  0
   -0.9080   20.1400   -6.8320 C   0  0  0  0  0  0  0  0  0  0  0  0
   -3.1460   21.8990   -7.2300 C   0  0  0  0  0  0  0  0  0  0  0  0
   -0.7320   19.9730   -8.3280 C   0  0  0  0  0  0  0  0  0  0  0  0
   -4.3140   22.1200   -8.0140 O   0  0  0  0  0  0  0  0  0  0  0  0
   -0.4450   18.6270   -8.6870 O   0  0  0  0  0  0  0  0  0  0  0  0
  1  2  1  0
  2  3  2  0
  2  4  1  0
  4  5  1  0
  3  6  1  0
  4  7  2  0
  5  8  1  0
  6  9  2  0
  7  9  1  0
  8 10  1  0
 10 11  2  3
 11 12  1  0
 11 13  1  0
 12 14  1  0
 14 15  1  0
 14 16  1  0
 15 17  1  0
 16 18  1  0
 17 19  1  0
 18 20  1  0
M  END
