x0900_0_A_α-x0727_0_A_α
     RDKit          3D

 23 24  0  0  0  0  0  0  0  0999 V2000
   -7.1290   15.1080   -0.4660 O   0  0  0  0  0  0  0  0  0  0  0  0
   -5.9510   14.9250   -0.2090 C   0  0  0  0  0  0  0  0  0  0  0  0
   -4.9540   14.8110   -1.1470 N   0  0  0  0  0  0  0  0  0  0  0  0
   -5.2970   14.7670    1.1440 C   0  0  0  0  0  0  0  0  0  0  0  0
   -3.8360   15.0630    0.7930 C   0  0  0  0  0  0  0  0  0  0  0  0
   -3.7590   14.3150   -0.5350 C   0  0  2  0  0  0  0  0  0  0  0  0
   -2.5430   14.6010   -1.4200 C   0  0  0  0  0  0  0  0  0  0  0  0
   -1.1960   14.4650   -0.7110 C   0  0  0  0  0  0  0  0  0  0  0  0
   -0.0190   14.5870   -1.6870 C   0  0  0  0  0  0  0  0  0  0  0  0
    1.1240   13.6390   -1.3590 C   0  0  0  0  0  0  0  0  0  0  0  0
    1.6900   12.9930   -2.5180 O   0  0  0  0  0  0  0  0  0  0  0  0
    0.9470   12.1330   -3.2660 C   0  0  0  0  0  0  0  0  0  0  0  0
    1.0720   12.5300   -4.7420 C   0  0  1  0  0  0  0  0  0  0  0  0
    0.2910   11.1870   -2.8280 O   0  0  0  0  0  0  0  0  0  0  0  0
    0.0900   11.8630   -5.5630 N   0  0  0  0  0  0  0  0  0  0  0  0
    0.9180   14.0390   -4.8850 C   0  0  0  0  0  0  0  0  0  0  0  0
    0.4490   11.1580   -6.6730 C   0  0  0  0  0  0  0  0  0  0  0  0
    1.4910   11.3410   -7.2870 O   0  0  0  0  0  0  0  0  0  0  0  0
   -0.5640   10.1120   -7.0500 C   0  0  0  0  0  0  0  0  0  0  0  0
   -1.0450   10.0450   -8.4750 C   0  0  0  0  0  0  0  0  0  0  0  0
   -0.2220    8.6700   -6.7340 C   0  0  0  0  0  0  0  0  0  0  0  0
   -2.0200    8.8710   -8.3650 C   0  0  0  0  0  0  0  0  0  0  0  0
   -1.4600    7.9630   -7.2520 C   0  0  0  0  0  0  0  0  0  0  0  0
  1  2  2  0
  2  3  1  0
  2  4  1  0
  4  5  1  0
  3  6  1  0
  5  6  1  0
  6  7  1  6
  7  8  1  0
  8  9  1  0
  9 10  1  0
 10 11  1  0
 11 12  1  0
 12 13  1  0
 12 14  2  0
 13 15  1  0
 13 16  1  1
 15 17  1  0
 17 18  2  0
 17 19  1  0
 19 20  1  0
 19 21  1  0
 20 22  1  0
 21 23  1  0
 22 23  1  0
M  END
