x0900_1_A-x1012_0_A
     RDKit          3D

 20 21  0  0  0  0  0  0  0  0999 V2000
   -0.7650    9.9600   -9.6520 O   0  0  0  0  0  0  0  0  0  0  0  0
   -0.9470    9.6770   -8.4830 C   0  0  0  0  0  0  0  0  0  0  0  0
   -0.0130    9.7310   -7.4660 N   0  0  0  0  0  0  0  0  0  0  0  0
   -2.2190    9.2010   -7.8510 C   0  0  0  0  0  0  0  0  0  0  0  0
   -1.6680    8.2450   -6.7980 C   0  0  0  0  0  0  0  0  0  0  0  0
   -0.3660    8.8960   -6.3370 C   0  0  2  0  0  0  0  0  0  0  0  0
   -0.5190    9.6270   -4.9710 C   0  0  0  0  0  0  0  0  0  0  0  0
   -0.2140   11.1270   -4.7950 C   0  0  0  0  0  0  0  0  0  0  0  0
   -0.2880   11.4500   -3.3740 O   0  0  0  0  0  0  0  0  0  0  0  0
    0.5010   12.4310   -2.8180 C   0  0  0  0  0  0  0  0  0  0  0  0
    1.4090   12.2310   -2.0370 O   0  0  0  0  0  0  0  0  0  0  0  0
    0.1040   13.8250   -3.2610 C   0  0  0  0  0  0  0  0  0  0  0  0
   -1.3650   13.8730   -3.7030 C   0  0  0  0  0  0  0  0  0  0  0  0
    1.0970   14.3780   -4.2910 C   0  0  0  0  0  0  0  0  0  0  0  0
   -1.5710   14.7260   -4.9460 C   0  0  0  0  0  0  0  0  0  0  0  0
    0.7080   15.7670   -4.7740 C   0  0  0  0  0  0  0  0  0  0  0  0
   -0.7380   15.9350   -4.9280 N   0  0  0  0  0  0  0  0  0  0  0  0
   -1.3570   17.1530   -4.8230 C   0  0  0  0  0  0  0  0  0  0  0  0
   -0.5740   18.2510   -4.9050 N   0  0  0  0  0  0  0  0  0  0  0  0
   -2.5530   17.3100   -4.6580 O   0  0  0  0  0  0  0  0  0  0  0  0
  1  2  2  0
  2  3  1  0
  2  4  1  0
  4  5  1  0
  3  6  1  0
  5  6  1  0
  6  7  1  1
  7  8  1  0
  8  9  1  0
  9 10  1  0
 10 11  2  0
 10 12  1  0
 12 13  1  0
 12 14  1  0
 13 15  1  0
 14 16  1  0
 15 17  1  0
 16 17  1  0
 17 18  1  0
 18 19  1  0
 18 20  2  0
M  END
