x0900_1_A_α-EU0860_0_A_α
     RDKit          3D

  8  8  0  0  0  0  0  0  0  0999 V2000
   -1.2650   10.1640   -9.7760 O   0  0  0  0  0  0  0  0  0  0  0  0
   -0.9130    9.5590   -8.7820 C   0  0  0  0  0  0  0  0  0  0  0  0
    0.3330    8.9850   -8.5270 N   0  0  0  0  0  0  0  0  0  0  0  0
   -1.8170    9.3020   -7.5930 C   0  0  0  0  0  0  0  0  0  0  0  0
    1.3940    9.0230   -9.4370 C   0  0  0  0  0  0  0  0  0  0  0  0
   -0.9490    8.5260   -6.6120 C   0  0  0  0  0  0  0  0  0  0  0  0
    0.2140    8.0250   -7.4500 C   0  0  0  0  0  0  0  0  0  0  0  0
    2.0080    8.0930   -9.9530 O   0  0  0  0  0  0  0  0  0  0  0  0
  1  2  2  0
  2  3  1  0
  2  4  1  0
  3  5  1  0
  4  6  1  0
  3  7  1  0
  6  7  1  0
  5  8  2  0
M  END
