x0905_0_B_α-x0259_0_A_α
     RDKit          3D

 29 31  0  0  0  0  0  0  0  0999 V2000
   13.9760   19.4870   11.6840 O   0  0  0  0  0  0  0  0  0  0  0  0
   13.4350   20.3020   12.6310 C   0  0  0  0  0  0  0  0  0  0  0  0
   12.4830   19.6990   13.3640 N   0  0  0  0  0  0  0  0  0  0  0  0
   13.8530   21.6210   12.7910 C   0  0  0  0  0  0  0  0  0  0  0  0
   14.9410   22.2250   11.9220 C   0  0  0  0  0  0  0  0  0  0  0  0
   11.8980   20.4380   14.3230 C   0  0  0  0  0  0  0  0  0  0  0  0
   13.2150   22.3590   13.8030 C   0  0  0  0  0  0  0  0  0  0  0  0
   15.4440   23.6380   12.2430 C   0  0  0  0  0  0  0  0  0  0  0  0
   12.2240   21.7540   14.5770 C   0  0  0  0  0  0  0  0  0  0  0  0
   16.5180   24.0740   11.2140 C   0  0  0  0  0  0  0  0  0  0  0  0
   17.3700   25.3450   11.4750 C   0  0  0  0  0  0  0  0  0  0  0  0
   18.3220   25.6990   10.3060 C   0  0  0  0  0  0  0  0  0  0  0  0
   18.1490   27.0850    9.6280 C   0  0  0  0  0  0  0  0  0  0  0  0
   17.9770   27.0330    8.0930 C   0  0  0  0  0  0  0  0  0  0  0  0
   18.3640   28.1990    7.0990 C   0  0  2  0  0  0  0  0  0  0  0  0
   19.8440   28.4440    6.9410 N   0  0  0  0  0  0  0  0  0  0  0  0
   17.6490   29.5900    7.1710 C   0  0  2  0  0  0  0  0  0  0  0  0
   20.7760   27.8730    7.9210 C   0  0  0  0  0  0  0  0  0  0  0  0
   17.6220   30.3560    8.4720 C   0  0  0  0  0  0  0  0  0  0  0  0
   16.1790   29.5850    6.8030 C   0  0  0  0  0  0  0  0  0  0  0  0
   20.2780   28.0640    5.6180 C   0  0  0  0  0  0  0  0  0  0  0  0
   15.7780   30.9320    7.0790 O   0  0  0  0  0  0  0  0  0  0  0  0
   16.4680   31.3280    8.2720 C   0  0  0  0  0  0  0  0  0  0  0  0
   19.3350   27.6530    4.7400 N   0  0  0  0  0  0  0  0  0  0  0  0
   21.6250   28.1200    5.2430 C   0  0  0  0  0  0  0  0  0  0  0  0
   22.9000   28.6280    6.2800 Cl  0  0  0  0  0  0  0  0  0  0  0  0
   19.7290   27.3050    3.5070 C   0  0  0  0  0  0  0  0  0  0  0  0
   21.9130   27.7370    3.9470 C   0  0  0  0  0  0  0  0  0  0  0  0
   20.9880   27.3260    3.0530 N   0  0  0  0  0  0  0  0  0  0  0  0
  1  2  1  0
  2  3  2  0
  2  4  1  0
  4  5  1  0
  3  6  1  0
  4  7  2  0
  5  8  1  0
  6  9  2  0
  7  9  1  0
  8 10  1  0
 10 11  1  0
 11 12  1  0
 12 13  1  0
 13 14  1  0
 15 14  1  1
 15 16  1  0
 15 17  1  0
 16 18  1  0
 17 19  1  1
 17 20  1  0
 16 21  1  0
 20 22  1  0
 19 23  1  0
 22 23  1  0
 21 24  2  0
 21 25  1  0
 25 26  1  0
 24 27  1  0
 25 28  2  0
 27 29  2  0
 28 29  1  0
M  END
