x0900_1_A_α-x0628_0_A_α
     RDKit          3D

 18 19  0  0  0  0  0  0  0  0999 V2000
   -0.8470   10.1250  -10.1670 O   0  0  0  0  0  0  0  0  0  0  0  0
   -0.7590    9.5690   -9.0920 C   0  0  0  0  0  0  0  0  0  0  0  0
    0.3920    9.0600   -8.5480 N   0  0  0  0  0  0  0  0  0  0  0  0
   -1.8770    9.3110   -8.1320 C   0  0  0  0  0  0  0  0  0  0  0  0
   -1.3070    8.1930   -7.2460 C   0  0  1  0  0  0  0  0  0  0  0  0
    0.1090    7.9380   -7.7230 C   0  0  0  0  0  0  0  0  0  0  0  0
   -1.2660    8.5550   -5.8080 C   0  0  0  0  0  0  0  0  0  0  0  0
   -1.1280   10.0010   -5.5480 C   0  0  0  0  0  0  0  0  0  0  0  0
   -2.1370   10.6890   -4.9620 N   0  0  0  0  0  0  0  0  0  0  0  0
   -0.0390   10.7250   -5.8350 N   0  0  0  0  0  0  0  0  0  0  0  0
   -0.3860   11.9360   -5.3680 N   0  0  0  0  0  0  0  0  0  0  0  0
   -1.6550   11.9030   -4.8490 C   0  0  0  0  0  0  0  0  0  0  0  0
   -2.3530   13.0540   -4.2520 C   0  0  0  0  0  0  0  0  0  0  0  0
    0.5560   13.0330   -5.4580 C   0  0  0  0  0  0  0  0  0  0  0  0
    1.6110   12.9760   -4.3440 C   0  0  0  0  0  0  0  0  0  0  0  0
    1.0840   12.3070   -3.0950 C   0  0  0  0  0  0  0  0  0  0  0  0
    0.5810   11.1960   -3.0400 O   0  0  0  0  0  0  0  0  0  0  0  0
    1.2240   13.0690   -1.9900 O   0  0  0  0  0  0  0  0  0  0  0  0
  1  2  2  0
  2  3  1  0
  2  4  1  0
  4  5  1  0
  3  6  1  0
  5  6  1  0
  5  7  1  1
  7  8  1  0
  8  9  1  0
  8 10  2  0
 10 11  1  0
  9 12  2  0
 11 12  1  0
 12 13  1  0
 11 14  1  0
 14 15  1  0
 15 16  1  0
 16 17  2  0
 16 18  1  0
M  END
