x0900_1_A_α-x0159_0_B_α
     RDKit          3D

 15 16  0  0  0  0  0  0  0  0999 V2000
   -1.1580   10.2730   -9.6300 O   0  0  0  0  0  0  0  0  0  0  0  0
   -1.1990    9.5530   -8.6490 C   0  0  0  0  0  0  0  0  0  0  0  0
   -0.3170    8.5600   -8.3110 N   0  0  0  0  0  0  0  0  0  0  0  0
   -2.2470    9.5650   -7.5560 C   0  0  0  0  0  0  0  0  0  0  0  0
   -0.3190    7.3200   -9.0590 C   0  0  0  0  0  0  0  0  0  0  0  0
   -1.6700    8.6150   -6.5020 C   0  0  0  0  0  0  0  0  0  0  0  0
   -0.2110    8.5640   -6.8850 C   0  0  0  0  0  0  0  0  0  0  0  0
    1.0880    6.8640   -9.4400 C   0  0  1  0  0  0  0  0  0  0  0  0
    2.1040    7.9950   -9.2990 C   0  0  0  0  0  0  0  0  0  0  0  0
    1.4800    5.6740   -8.6110 C   0  0  0  0  0  0  0  0  0  0  0  0
    0.9290    5.4940   -7.3390 C   0  0  0  0  0  0  0  0  0  0  0  0
    2.3950    4.7340   -9.0970 C   0  0  0  0  0  0  0  0  0  0  0  0
    1.2910    4.3990   -6.5740 C   0  0  0  0  0  0  0  0  0  0  0  0
    2.7530    3.6410   -8.3270 C   0  0  0  0  0  0  0  0  0  0  0  0
    2.2090    3.4740   -7.0770 C   0  0  0  0  0  0  0  0  0  0  0  0
  1  2  2  0
  2  3  1  0
  2  4  1  0
  3  5  1  0
  4  6  1  0
  3  7  1  0
  6  7  1  0
  5  8  1  0
  8  9  1  1
  8 10  1  0
 10 11  2  0
 10 12  1  0
 11 13  1  0
 12 14  2  0
 13 15  2  0
 14 15  1  0
M  END
