x0900_0_A-x0290_0_A
     RDKit          3D

 18 19  0  0  0  0  0  0  0  0999 V2000
   -5.8920   13.5900   -0.0030 N   0  0  0  0  0  0  0  0  0  0  0  0
   -5.6510   14.2200    1.1130 C   0  0  0  0  0  0  0  0  0  0  0  0
   -6.8370   14.3600    2.1010 C   0  0  0  0  0  0  0  0  0  0  0  0
   -5.0040   13.3070   -1.0860 C   0  0  1  0  0  0  0  0  0  0  0  0
   -4.3690   14.7510    1.4310 N   0  0  0  0  0  0  0  0  0  0  0  0
   -5.6440   13.8550   -2.2650 N   0  0  0  0  0  0  0  0  0  0  0  0
   -3.7800   14.1490   -0.9290 C   0  0  0  0  0  0  0  0  0  0  0  0
   -8.1380   14.1330    1.4310 N   0  0  0  0  0  0  0  0  0  0  0  0
   -4.3780   15.5290   -1.1000 C   0  0  0  0  0  0  0  0  0  0  0  0
   -5.3030   15.2850   -2.2700 C   0  0  0  0  0  0  0  0  0  0  0  0
   -3.0280   14.6310    0.9370 C   0  0  0  0  0  0  0  0  0  0  0  0
   -8.4040   15.0370    0.3220 C   0  0  0  0  0  0  0  0  0  0  0  0
   -2.0570   14.4390    1.8780 N   0  0  0  0  0  0  0  0  0  0  0  0
   -2.6520   14.6970   -0.4090 C   0  0  0  0  0  0  0  0  0  0  0  0
   -0.7640   14.3150    1.4830 C   0  0  0  0  0  0  0  0  0  0  0  0
   -1.3050   14.5660   -0.8000 C   0  0  0  0  0  0  0  0  0  0  0  0
   -0.9220   14.6350   -2.2490 C   0  0  0  0  0  0  0  0  0  0  0  0
   -0.3440   14.3710    0.1770 C   0  0  0  0  0  0  0  0  0  0  0  0
  1  2  2  3
  2  3  1  0
  4  1  1  1
  2  5  1  0
  4  6  1  0
  4  7  1  0
  3  8  1  0
  7  9  1  0
  6 10  1  0
  9 10  1  0
  5 11  1  0
  8 12  1  0
 11 13  2  0
 11 14  1  0
 13 15  1  0
 14 16  2  0
 16 17  1  0
 15 18  2  0
 16 18  1  0
M  END
