x0918_1_B-x0766_1_B
     RDKit          3D

 20 22  0  0  0  0  0  0  0  0999 V2000
   -1.4940   26.6650  -12.0270 N   0  0  0  0  0  0  0  0  0  0  0  0
   -2.3410   25.7920  -12.7730 C   0  0  0  0  0  0  0  0  0  0  0  0
   -2.4430   26.3000  -14.1790 C   0  0  0  0  0  0  0  0  0  0  0  0
   -3.6870   25.4370  -12.1760 C   0  0  0  0  0  0  0  0  0  0  0  0
   -4.8080   25.5360  -12.8960 C   0  0  0  0  0  0  0  0  0  0  0  0
   -3.6360   26.3650  -14.8000 C   0  0  0  0  0  0  0  0  0  0  0  0
   -4.8310   25.9800  -14.1940 N   0  0  0  0  0  0  0  0  0  0  0  0
   -6.0410   26.5270  -14.6520 O   0  0  0  0  0  0  0  0  0  0  0  0
   -7.0920   26.6440  -13.7480 C   0  0  0  0  0  0  0  0  0  0  0  0
   -8.2840   26.6000  -14.0450 O   0  0  0  0  0  0  0  0  0  0  0  0
   -6.6540   26.8560  -12.2930 C   0  0  2  0  0  0  0  0  0  0  0  0
   -7.7440   26.4340  -11.3100 C   0  0  0  0  0  0  0  0  0  0  0  0
   -6.3650   28.3060  -11.9100 C   0  0  2  0  0  0  0  0  0  0  0  0
   -8.6100   27.6740  -11.1410 C   0  0  0  0  0  0  0  0  0  0  0  0
   -7.7060   28.8780  -11.4440 C   0  0  0  0  0  0  0  0  0  0  0  0
   -5.6580   29.0740  -12.9790 C   0  0  0  0  0  0  0  0  0  0  0  0
   -4.2850   29.1820  -13.0550 C   0  0  0  0  0  0  0  0  0  0  0  0
   -6.2800   29.7870  -14.0540 C   0  0  0  0  0  0  0  0  0  0  0  0
   -5.3720   30.3920  -14.8880 C   0  0  0  0  0  0  0  0  0  0  0  0
   -3.7650   30.1160  -14.3880 S   0  0  0  0  0  0  0  0  0  0  0  0
  1  2  1  0
  2  3  1  0
  2  4  1  0
  4  5  2  0
  3  6  2  0
  5  7  1  0
  6  7  1  0
  7  8  1  0
  8  9  1  0
  9 10  2  0
 11  9  1  6
 11 12  1  0
 11 13  1  0
 12 14  1  0
 13 15  1  0
 14 15  1  0
 13 16  1  6
 16 17  2  0
 16 18  1  0
 18 19  2  0
 17 20  1  0
 19 20  1  0
M  END
