x0910_0_A-x0290_0_A
     RDKit          3D

 12 12  0  0  0  0  0  0  0  0999 V2000
   -3.0140   14.6230   -1.6110 N   0  0  0  0  0  0  0  0  0  0  0  0
   -2.1310   14.6870   -0.5900 C   0  0  0  0  0  0  0  0  0  0  0  0
   -2.4730   14.7400    0.7660 N   0  0  0  0  0  0  0  0  0  0  0  0
   -0.8170   14.7120   -0.7070 N   0  0  0  0  0  0  0  0  0  0  0  0
   -3.7220   14.7380    1.3520 N   0  0  0  0  0  0  0  0  0  0  0  0
   -1.3530   14.8020    1.5070 N   0  0  0  0  0  0  0  0  0  0  0  0
   -0.3930   14.7850    0.5860 C   0  0  0  0  0  0  0  0  0  0  0  0
   -4.9010   14.4200    0.6760 C   0  0  0  0  0  0  0  0  0  0  0  0
   -5.0340   14.4030   -0.5410 O   0  0  0  0  0  0  0  0  0  0  0  0
   -6.0800   14.0730    1.6080 C   0  0  0  0  0  0  0  0  0  0  0  0
   -7.2990   13.7530    0.8100 N   0  0  0  0  0  0  0  0  0  0  0  0
   -8.3290   14.7810    0.9460 C   0  0  0  0  0  0  0  0  0  0  0  0
  1  2  1  0
  2  3  1  0
  2  4  2  0
  3  5  1  0
  3  6  1  0
  4  7  1  0
  6  7  2  0
  5  8  1  0
  8  9  2  0
  8 10  1  0
 10 11  1  0
 11 12  1  0
M  END
