x0910_0_A-x0591_0_A
     RDKit          3D

 22 23  0  0  0  0  0  0  0  0999 V2000
   -2.0510   15.7270   -1.8430 N   0  0  0  0  0  0  0  0  0  0  0  0
   -1.5480   15.3320   -0.6660 C   0  0  0  0  0  0  0  0  0  0  0  0
   -2.2350   15.4050    0.5120 N   0  0  0  0  0  0  0  0  0  0  0  0
   -0.3590   14.8280   -0.4500 N   0  0  0  0  0  0  0  0  0  0  0  0
   -3.5790   15.8990    0.7310 C   0  0  0  0  0  0  0  0  0  0  0  0
   -1.4890   14.9380    1.5240 N   0  0  0  0  0  0  0  0  0  0  0  0
   -0.3670   14.6040    0.8940 C   0  0  0  0  0  0  0  0  0  0  0  0
   -4.4450   14.9620    1.5630 C   0  0  0  0  0  0  0  0  0  0  0  0
   -5.7480   14.5640    1.0030 N   0  0  0  0  0  0  0  0  0  0  0  0
   -6.8070   14.3790    1.9820 C   0  0  0  0  0  0  0  0  0  0  0  0
   -6.1820   14.7080   -0.3270 C   0  0  0  0  0  0  0  0  0  0  0  0
   -7.3570   14.9260   -0.6160 O   0  0  0  0  0  0  0  0  0  0  0  0
   -5.2430   14.5920   -1.4670 C   0  0  0  0  0  0  0  0  0  0  0  0
   -3.9440   14.1020   -1.2800 C   0  0  0  0  0  0  0  0  0  0  0  0
   -5.6630   14.9760   -2.7400 C   0  0  0  0  0  0  0  0  0  0  0  0
   -3.0630   14.0080   -2.3720 C   0  0  0  0  0  0  0  0  0  0  0  0
   -4.7870   14.8760   -3.8230 C   0  0  0  0  0  0  0  0  0  0  0  0
   -3.4950   14.4060   -3.6430 C   0  0  0  0  0  0  0  0  0  0  0  0
   -2.4300   14.3310   -5.0700 S   0  0  0  0  0  0  0  0  0  0  0  0
   -1.1950   15.4130   -4.6870 N   0  0  0  0  0  0  0  0  0  0  0  0
   -1.8510   13.0150   -5.1420 O   0  0  0  0  0  0  0  0  0  0  0  0
   -3.1230   14.9480   -6.1800 O   0  0  0  0  0  0  0  0  0  0  0  0
  1  2  1  0
  2  3  1  0
  2  4  2  0
  3  5  1  0
  3  6  1  0
  4  7  1  0
  6  7  2  0
  5  8  1  0
  8  9  1  0
  9 10  1  0
  9 11  1  0
 11 12  2  0
 11 13  1  0
 13 14  2  0
 13 15  1  0
 14 16  1  0
 15 17  2  0
 16 18  2  0
 17 18  1  0
 18 19  1  0
 19 20  1  0
 19 21  2  0
 19 22  2  0
M  END
