x0910_1_A-x0805_0_A
     RDKit          3D

 22 24  0  0  0  0  0  0  0  0999 V2000
   -7.8440   14.1420    1.5600 N   0  0  0  0  0  0  0  0  0  0  0  0
   -6.8600   14.6130    0.7820 C   0  0  0  0  0  0  0  0  0  0  0  0
   -7.0820   15.1830   -0.4410 N   0  0  0  0  0  0  0  0  0  0  0  0
   -5.5830   14.6130    1.0340 N   0  0  0  0  0  0  0  0  0  0  0  0
   -5.9310   15.5690   -1.0090 N   0  0  0  0  0  0  0  0  0  0  0  0
   -5.0460   15.1930   -0.0780 C   0  0  0  0  0  0  0  0  0  0  0  0
   -3.7370   15.3760   -0.2970 O   0  0  0  0  0  0  0  0  0  0  0  0
   -3.2680   14.6830   -1.3730 C   0  0  0  0  0  0  0  0  0  0  0  0
   -4.1950   13.8660   -2.0190 C   0  0  0  0  0  0  0  0  0  0  0  0
   -1.9680   14.7480   -1.8360 C   0  0  0  0  0  0  0  0  0  0  0  0
   -3.8180   13.1210   -3.1320 C   0  0  0  0  0  0  0  0  0  0  0  0
   -1.5740   14.0180   -2.9470 C   0  0  0  0  0  0  0  0  0  0  0  0
   -2.5070   13.1980   -3.5990 C   0  0  0  0  0  0  0  0  0  0  0  0
   -0.1470   14.1360   -3.4050 C   0  0  1  0  0  0  0  0  0  0  0  0
    0.4580   12.8270   -3.8770 C   0  0  2  0  0  0  0  0  0  0  0  0
    0.0930   15.2520   -4.3940 C   0  0  0  0  0  0  0  0  0  0  0  0
    0.5070   11.9680   -2.6400 C   0  0  0  0  0  0  0  0  0  0  0  0
    1.8500   13.1120   -4.4460 C   0  0  0  0  0  0  0  0  0  0  0  0
    1.5740   15.5280   -4.4240 C   0  0  0  0  0  0  0  0  0  0  0  0
    0.3930   10.6510   -2.8840 O   0  0  0  0  0  0  0  0  0  0  0  0
    0.6210   12.3910   -1.4930 O   0  0  0  0  0  0  0  0  0  0  0  0
    2.3460   14.3840   -4.0010 O   0  0  0  0  0  0  0  0  0  0  0  0
  1  2  1  0
  2  3  1  0
  2  4  2  0
  3  5  1  0
  4  6  1  0
  5  6  2  0
  6  7  1  0
  7  8  1  0
  8  9  2  0
  8 10  1  0
  9 11  1  0
 10 12  2  0
 11 13  2  0
 12 13  1  0
 14 12  1  6
 14 15  1  0
 14 16  1  0
 15 17  1  1
 15 18  1  0
 16 19  1  0
 17 20  1  0
 17 21  2  0
 18 22  1  0
 19 22  1  0
M  END
