x0910_0_A-x0438_0_A
     RDKit          3D

 19 21  0  0  0  0  0  0  0  0999 V2000
   -2.4010   12.9940   -1.5960 N   0  0  0  0  0  0  0  0  0  0  0  0
   -1.9300   13.8400   -0.6560 C   0  0  0  0  0  0  0  0  0  0  0  0
   -2.8420   14.7800    0.1140 C   0  0  1  0  0  0  0  0  0  0  0  0
   -0.6810   13.9640   -0.3500 N   0  0  0  0  0  0  0  0  0  0  0  0
   -1.8060   15.4740    0.9210 N   0  0  0  0  0  0  0  0  0  0  0  0
   -0.6630   14.9380    0.5970 C   0  0  0  0  0  0  0  0  0  0  0  0
   -3.5530   15.4840   -1.0440 C   0  0  0  0  0  0  0  0  0  0  0  0
   -3.8210   14.1730    1.0810 C   0  0  0  0  0  0  0  0  0  0  0  0
   -5.1500   14.2900    0.9040 C   0  0  0  0  0  0  0  0  0  0  0  0
   -4.8790   15.5840   -1.2260 C   0  0  0  0  0  0  0  0  0  0  0  0
   -6.1930   13.8390    1.6580 N   0  0  0  0  0  0  0  0  0  0  0  0
   -5.7440   14.9830   -0.2360 C   0  0  0  0  0  0  0  0  0  0  0  0
   -7.0410   14.9270   -0.1640 N   0  0  0  0  0  0  0  0  0  0  0  0
   -7.2590   14.2290    1.0150 C   0  0  0  0  0  0  0  0  0  0  0  0
   -8.6440   13.9450    1.4780 C   0  0  0  0  0  0  0  0  0  0  0  0
   -9.3130   15.2240    2.5160 S   0  0  0  0  0  0  0  0  0  0  0  0
   -8.1360   15.4940    3.8280 C   0  0  0  0  0  0  0  0  0  0  0  0
  -10.5390   14.7360    3.1210 O   0  0  0  0  0  0  0  0  0  0  0  0
   -9.3710   16.4310    1.7130 O   0  0  0  0  0  0  0  0  0  0  0  0
  1  2  1  0
  2  3  1  0
  2  4  2  0
  3  5  1  0
  4  6  1  0
  5  6  2  0
  3  7  1  6
  3  8  1  0
  8  9  2  0
  7 10  2  0
  9 11  1  0
  9 12  1  0
 10 12  1  0
 12 13  2  0
 11 14  2  0
 13 14  1  0
 14 15  1  0
 16 15  1  0
 16 17  1  0
 16 18  2  0
 16 19  2  0
M  END
