x0918_1_B-x0417_0_B
     RDKit          3D

 23 25  0  0  0  0  0  0  0  0999 V2000
   -1.8260   26.0270  -11.9130 N   0  0  0  0  0  0  0  0  0  0  0  0
   -2.6660   26.1150  -13.0270 C   0  0  0  0  0  0  0  0  0  0  0  0
   -2.0620   25.9790  -14.2480 C   0  0  0  0  0  0  0  0  0  0  0  0
   -4.0580   26.3430  -13.0190 C   0  0  0  0  0  0  0  0  0  0  0  0
   -4.8410   26.6070  -11.8050 C   0  0  0  0  0  0  0  0  0  0  0  0
   -4.7300   26.3560  -14.2250 C   0  0  0  0  0  0  0  0  0  0  0  0
   -2.8140   26.0290  -15.3900 C   0  0  0  0  0  0  0  0  0  0  0  0
   -4.5930   28.0420  -11.5580 O   0  0  0  0  0  0  0  0  0  0  0  0
   -4.1440   26.1950  -15.4180 N   0  0  0  0  0  0  0  0  0  0  0  0
   -5.5360   28.7920  -12.1720 C   0  0  0  0  0  0  0  0  0  0  0  0
   -6.7640   28.7150  -11.5200 C   0  0  0  0  0  0  0  0  0  0  0  0
   -5.3350   29.5720  -13.3500 C   0  0  0  0  0  0  0  0  0  0  0  0
   -4.1080   29.7400  -14.0900 N   0  0  0  0  0  0  0  0  0  0  0  0
   -6.4810   30.2380  -13.8110 C   0  0  0  0  0  0  0  0  0  0  0  0
   -7.8550   29.3910  -12.0070 C   0  0  0  0  0  0  0  0  0  0  0  0
   -3.1230   28.7160  -14.3250 C   0  0  0  0  0  0  0  0  0  0  0  0
   -3.7410   30.8880  -14.8180 C   0  0  0  0  0  0  0  0  0  0  0  0
   -7.7170   30.1480  -13.1550 C   0  0  0  0  0  0  0  0  0  0  0  0
   -4.2570   31.9830  -14.8330 O   0  0  0  0  0  0  0  0  0  0  0  0
   -2.5090   30.5810  -15.6790 C   0  0  1  0  0  0  0  0  0  0  0  0
   -2.5300   29.0600  -15.6810 C   0  0  0  0  0  0  0  0  0  0  0  0
   -2.7270   31.2030  -17.0060 N   0  0  0  0  0  0  0  0  0  0  0  0
   -1.4970   31.7560  -17.5640 C   0  0  0  0  0  0  0  0  0  0  0  0
  1  2  1  0
  2  3  2  0
  2  4  1  0
  4  5  1  0
  4  6  2  0
  3  7  1  0
  5  8  1  0
  6  9  1  0
  7  9  2  0
  8 10  1  0
 10 11  2  0
 10 12  1  0
 12 13  1  0
 12 14  2  0
 11 15  1  0
 13 16  1  0
 13 17  1  0
 14 18  1  0
 15 18  2  0
 17 19  2  0
 17 20  1  0
 16 21  1  0
 20 21  1  0
 20 22  1  6
 22 23  1  0
M  END
