x0910_0_A-x0724_0_A
     RDKit          3D

 19 21  0  0  0  0  0  0  0  0999 V2000
   -2.6230   13.0210   -1.7880 N   0  0  0  0  0  0  0  0  0  0  0  0
   -2.4510   13.8970   -0.6460 C   0  0  2  0  0  0  0  0  0  0  0  0
   -1.2060   13.5270    0.0340 N   0  0  0  0  0  0  0  0  0  0  0  0
   -3.6860   13.8800    0.2670 C   0  0  0  0  0  0  0  0  0  0  0  0
   -2.3910   15.3220   -1.1860 C   0  0  2  0  0  0  0  0  0  0  0  0
   -2.2090   16.1500    0.0160 N   0  0  0  0  0  0  0  0  0  0  0  0
   -0.6200   14.4900    0.6320 C   0  0  0  0  0  0  0  0  0  0  0  0
   -3.6660   15.5670   -1.9420 C   0  0  0  0  0  0  0  0  0  0  0  0
   -4.8610   14.5050   -0.1020 C   0  0  0  0  0  0  0  0  0  0  0  0
   -1.0140   15.7910    0.7090 N   0  0  0  0  0  0  0  0  0  0  0  0
   -6.0650   14.5570    0.6820 N   0  0  0  0  0  0  0  0  0  0  0  0
   -4.8260   15.1680   -1.4090 C   0  0  0  0  0  0  0  0  0  0  0  0
   -7.3420   14.3730    0.1850 N   0  0  0  0  0  0  0  0  0  0  0  0
   -6.1740   14.8140    2.0460 C   0  0  0  0  0  0  0  0  0  0  0  0
   -7.5050   14.8020    2.4200 C   0  0  0  0  0  0  0  0  0  0  0  0
   -8.1710   14.5200    1.2180 C   0  0  0  0  0  0  0  0  0  0  0  0
   -8.0830   15.0450    3.7740 C   0  0  0  0  0  0  0  0  0  0  0  0
   -8.7660   13.8450    4.2540 N   0  0  0  0  0  0  0  0  0  0  0  0
   -8.7140   13.7810    5.7060 C   0  0  0  0  0  0  0  0  0  0  0  0
  2  1  1  6
  2  3  1  0
  2  4  1  0
  2  5  1  0
  5  6  1  0
  3  7  2  0
  5  8  1  1
  4  9  2  0
  6 10  1  0
  7 10  1  0
  9 11  1  0
  8 12  2  0
  9 12  1  0
 11 13  1  0
 11 14  1  0
 14 15  2  0
 13 16  2  0
 15 16  1  0
 15 17  1  0
 17 18  1  0
 18 19  1  0
M  END
