x0910_1_A-x0805_0_A
     RDKit          3D

 22 24  0  0  0  0  0  0  0  0999 V2000
   -7.8320   14.1520    1.5540 N   0  0  0  0  0  0  0  0  0  0  0  0
   -6.8520   14.6270    0.7740 C   0  0  0  0  0  0  0  0  0  0  0  0
   -7.0780   15.1990   -0.4460 N   0  0  0  0  0  0  0  0  0  0  0  0
   -5.5740   14.6300    1.0240 N   0  0  0  0  0  0  0  0  0  0  0  0
   -5.9290   15.5880   -1.0160 N   0  0  0  0  0  0  0  0  0  0  0  0
   -5.0430   15.2120   -0.0860 C   0  0  0  0  0  0  0  0  0  0  0  0
   -3.7370   15.3990   -0.3060 O   0  0  0  0  0  0  0  0  0  0  0  0
   -3.2700   14.6970   -1.3770 C   0  0  0  0  0  0  0  0  0  0  0  0
   -4.1960   13.8720   -2.0200 C   0  0  0  0  0  0  0  0  0  0  0  0
   -1.9750   14.7620   -1.8390 C   0  0  0  0  0  0  0  0  0  0  0  0
   -3.8140   13.1220   -3.1260 C   0  0  0  0  0  0  0  0  0  0  0  0
   -1.5770   14.0280   -2.9420 C   0  0  0  0  0  0  0  0  0  0  0  0
   -2.5030   13.1990   -3.5920 C   0  0  0  0  0  0  0  0  0  0  0  0
   -0.1530   14.1490   -3.3980 C   0  0  1  0  0  0  0  0  0  0  0  0
    0.4580   12.8390   -3.8690 C   0  0  2  0  0  0  0  0  0  0  0  0
    0.0850   15.2560   -4.3990 C   0  0  0  0  0  0  0  0  0  0  0  0
    0.5220   11.9820   -2.6320 C   0  0  0  0  0  0  0  0  0  0  0  0
    1.8390   13.1220   -4.4550 C   0  0  0  0  0  0  0  0  0  0  0  0
    1.5620   15.5440   -4.4250 C   0  0  0  0  0  0  0  0  0  0  0  0
    0.4640   10.6630   -2.8730 O   0  0  0  0  0  0  0  0  0  0  0  0
    0.6100   12.4100   -1.4850 O   0  0  0  0  0  0  0  0  0  0  0  0
    2.3460   14.3980   -4.0250 O   0  0  0  0  0  0  0  0  0  0  0  0
  1  2  1  0
  2  3  1  0
  2  4  2  0
  3  5  1  0
  4  6  1  0
  5  6  2  0
  6  7  1  0
  7  8  1  0
  8  9  2  0
  8 10  1  0
  9 11  1  0
 10 12  2  0
 11 13  2  0
 12 13  1  0
 14 12  1  6
 14 15  1  0
 14 16  1  0
 15 17  1  1
 15 18  1  0
 16 19  1  0
 17 20  1  0
 17 21  2  0
 18 22  1  0
 19 22  1  0
M  END
