x0918_4_B-x0158_0_B
     RDKit          3D

 23 24  0  0  0  0  0  0  0  0999 V2000
   13.5090   23.3290   13.5450 N   0  0  0  0  0  0  0  0  0  0  0  0
   13.2750   21.9650   13.3550 C   0  0  0  0  0  0  0  0  0  0  0  0
   14.2110   21.1620   12.7300 C   0  0  0  0  0  0  0  0  0  0  0  0
   12.0970   21.3780   13.7920 C   0  0  0  0  0  0  0  0  0  0  0  0
   11.9060   20.0200   13.5820 C   0  0  0  0  0  0  0  0  0  0  0  0
   13.9430   19.8070   12.5640 C   0  0  0  0  0  0  0  0  0  0  0  0
   14.9490   18.9180   11.9120 C   0  0  0  0  0  0  0  0  0  0  0  0
   12.8010   19.2160   12.9760 N   0  0  0  0  0  0  0  0  0  0  0  0
   15.3490   17.8010   12.8600 C   0  0  0  0  0  0  0  0  0  0  0  0
   16.6260   17.0970   12.4180 C   0  0  2  0  0  0  0  0  0  0  0  0
   17.3000   17.7780   11.2320 C   0  0  0  0  0  0  0  0  0  0  0  0
   16.2690   15.7400   12.1030 O   0  0  0  0  0  0  0  0  0  0  0  0
   15.9420   14.9780   13.1890 C   0  0  0  0  0  0  0  0  0  0  0  0
   15.7770   15.4310   14.3090 O   0  0  0  0  0  0  0  0  0  0  0  0
   15.8270   13.5070   12.7720 C   0  0  0  0  0  0  0  0  0  0  0  0
   14.5150   12.8860   13.0700 N   0  0  0  0  0  0  0  0  0  0  0  0
   14.2110   11.6700   12.3130 C   0  0  0  0  0  0  0  0  0  0  0  0
   13.4260   13.8230   12.8610 C   0  0  0  0  0  0  0  0  0  0  0  0
   13.1470   10.7760   12.9210 C   0  0  0  0  0  0  0  0  0  0  0  0
   12.0890   13.4250   13.4310 C   0  0  0  0  0  0  0  0  0  0  0  0
   11.7190   11.6740   13.4900 S   0  0  0  0  0  0  0  0  0  0  0  0
   11.4970   11.3060   14.8760 O   0  0  0  0  0  0  0  0  0  0  0  0
   10.6380   11.4320   12.5530 O   0  0  0  0  0  0  0  0  0  0  0  0
  1  2  1  0
  2  3  2  0
  2  4  1  0
  4  5  2  0
  3  6  1  0
  6  7  1  0
  5  8  1  0
  6  8  2  0
  7  9  1  0
  9 10  1  0
 10 11  1  6
 10 12  1  0
 12 13  1  0
 13 14  2  0
 13 15  1  0
 15 16  1  0
 16 17  1  0
 16 18  1  0
 17 19  1  0
 18 20  1  0
 21 19  1  0
 20 21  1  0
 21 22  2  0
 21 23  2  0
M  END
