x0910_1_A-x1015_0_A
     RDKit          3D

 24 26  0  0  0  0  0  0  0  0999 V2000
   -7.6290   14.2030    1.2730 N   0  0  0  0  0  0  0  0  0  0  0  0
   -6.5930   14.6020    0.5440 C   0  0  0  0  0  0  0  0  0  0  0  0
   -6.5110   14.5970   -0.7810 N   0  0  0  0  0  0  0  0  0  0  0  0
   -5.4900   15.0660    1.1880 N   0  0  0  0  0  0  0  0  0  0  0  0
   -5.2690   15.0870   -0.9670 N   0  0  0  0  0  0  0  0  0  0  0  0
   -4.6710   15.3690    0.2130 C   0  0  0  0  0  0  0  0  0  0  0  0
   -4.7170   15.2530   -2.2810 C   0  0  0  0  0  0  0  0  0  0  0  0
   -3.6470   14.2390   -2.7030 C   0  0  0  0  0  0  0  0  0  0  0  0
   -2.3230   14.9010   -3.1150 C   0  0  0  0  0  0  0  0  0  0  0  0
   -1.5710   14.1940   -4.2560 C   0  0  0  0  0  0  0  0  0  0  0  0
   -0.1570   13.6610   -3.9350 C   0  0  2  0  0  0  0  0  0  0  0  0
   -0.0460   12.2090   -3.9470 N   0  0  0  0  0  0  0  0  0  0  0  0
    0.2840   13.9600   -2.5060 C   0  0  0  0  0  0  0  0  0  0  0  0
    0.4240   15.0640   -2.0010 O   0  0  0  0  0  0  0  0  0  0  0  0
    0.2570   11.7200   -2.6650 C   0  0  0  0  0  0  0  0  0  0  0  0
    0.5160   12.7900   -1.8620 N   0  0  0  0  0  0  0  0  0  0  0  0
   -0.4540   11.4220   -5.0460 C   0  0  0  0  0  0  0  0  0  0  0  0
    0.3010   10.5510   -2.2710 O   0  0  0  0  0  0  0  0  0  0  0  0
    0.0940   11.6100   -6.3230 C   0  0  0  0  0  0  0  0  0  0  0  0
   -1.4250   10.4210   -4.8890 C   0  0  0  0  0  0  0  0  0  0  0  0
   -0.3130   10.8250   -7.4060 C   0  0  0  0  0  0  0  0  0  0  0  0
   -1.8350    9.6330   -5.9690 C   0  0  0  0  0  0  0  0  0  0  0  0
   -1.2770    9.8390   -7.2240 C   0  0  0  0  0  0  0  0  0  0  0  0
   -1.7830    8.8730   -8.5510 Cl  0  0  0  0  0  0  0  0  0  0  0  0
  1  2  1  0
  2  3  2  0
  2  4  1  0
  3  5  1  0
  4  6  2  0
  5  6  1  0
  5  7  1  0
  7  8  1  0
  8  9  1  0
  9 10  1  0
 11 10  1  1
 11 12  1  0
 11 13  1  0
 13 14  2  0
 12 15  1  0
 13 16  1  0
 15 16  1  0
 12 17  1  0
 15 18  2  0
 17 19  2  0
 17 20  1  0
 19 21  1  0
 20 22  2  0
 21 23  2  0
 22 23  1  0
 23 24  1  0
M  END
