x0910_2_B_α-x0681_0_A_α
     RDKit          3D

 25 27  0  0  0  0  0  0  0  0999 V2000
  -14.1790   21.1670   -3.1320 N   0  0  0  0  0  0  0  0  0  0  0  0
  -13.3850   21.8660   -2.3280 C   0  0  0  0  0  0  0  0  0  0  0  0
  -12.1370   21.4460   -2.0270 N   0  0  0  0  0  0  0  0  0  0  0  0
  -13.6670   22.9930   -1.7360 N   0  0  0  0  0  0  0  0  0  0  0  0
  -11.5530   20.1770   -2.5550 C   0  0  0  0  0  0  0  0  0  0  0  0
  -11.5540   22.3610   -1.2040 N   0  0  0  0  0  0  0  0  0  0  0  0
  -12.5300   23.2650   -1.0610 C   0  0  0  0  0  0  0  0  0  0  0  0
  -11.0740   18.9890   -1.6530 C   0  0  0  0  0  0  0  0  0  0  0  0
   -9.9780   18.0090   -2.1740 C   0  0  0  0  0  0  0  0  0  0  0  0
   -9.2200   17.0830   -1.1920 C   0  0  0  0  0  0  0  0  0  0  0  0
   -8.5660   15.7850   -1.7430 C   0  0  0  0  0  0  0  0  0  0  0  0
   -7.0230   15.6270   -1.5840 C   0  0  0  0  0  0  0  0  0  0  0  0
   -6.2460   14.8950   -2.7160 C   0  0  0  0  0  0  0  0  0  0  0  0
   -4.8300   15.2680   -2.9350 N   0  0  0  0  0  0  0  0  0  0  0  0
   -3.8220   15.0150   -2.0190 C   0  0  0  0  0  0  0  0  0  0  0  0
   -2.6310   14.8720   -2.3010 O   0  0  0  0  0  0  0  0  0  0  0  0
   -4.4170   14.9310   -0.6400 C   0  0  1  0  0  0  0  0  0  0  0  0
   -5.0770   13.6090   -0.4800 C   0  0  0  0  0  0  0  0  0  0  0  0
   -3.5460   15.3210    0.5550 C   0  0  0  0  0  0  0  0  0  0  0  0
   -5.6960   13.3890    0.6690 N   0  0  0  0  0  0  0  0  0  0  0  0
   -4.2200   14.9040    1.8650 C   0  0  0  0  0  0  0  0  0  0  0  0
   -5.1790   12.5780   -1.2960 N   0  0  0  0  0  0  0  0  0  0  0  0
   -5.6680   14.4100    1.6630 C   0  0  0  0  0  0  0  0  0  0  0  0
   -6.2610   12.1570    0.6490 C   0  0  0  0  0  0  0  0  0  0  0  0
   -5.9270   11.6610   -0.5940 C   0  0  0  0  0  0  0  0  0  0  0  0
  1  2  1  0
  2  3  1  0
  2  4  2  0
  3  5  1  0
  3  6  1  0
  4  7  1  0
  6  7  2  0
  5  8  1  0
  8  9  1  0
  9 10  1  0
 10 11  1  0
 11 12  1  0
 12 13  1  0
 13 14  1  0
 14 15  1  0
 15 16  2  0
 17 15  1  6
 17 18  1  0
 17 19  1  0
 18 20  1  0
 19 21  1  0
 18 22  2  0
 20 23  1  0
 21 23  1  0
 20 24  1  0
 22 25  1  0
 24 25  2  0
M  END
