x0910_0_A-x1015_0_A
     RDKit          3D

 21 23  0  0  0  0  0  0  0  0999 V2000
   -3.0410   14.6120   -1.2040 N   0  0  0  0  0  0  0  0  0  0  0  0
   -2.0020   14.7500   -0.3450 C   0  0  0  0  0  0  0  0  0  0  0  0
   -2.0600   14.7800    0.9590 N   0  0  0  0  0  0  0  0  0  0  0  0
   -0.6880   14.8850   -0.7670 N   0  0  0  0  0  0  0  0  0  0  0  0
   -0.2010   14.8960   -2.0330 N   0  0  0  0  0  0  0  0  0  0  0  0
   -0.7790   14.9370    1.4220 N   0  0  0  0  0  0  0  0  0  0  0  0
    0.0240   15.0020    0.3860 C   0  0  0  0  0  0  0  0  0  0  0  0
   -0.0380   13.7360   -2.5240 C   0  0  0  0  0  0  0  0  0  0  0  0
    0.3810   13.5020   -3.9600 C   0  0  2  0  0  0  0  0  0  0  0  0
   -0.2380   12.5490   -1.9070 N   0  0  0  0  0  0  0  0  0  0  0  0
   -0.6140   14.2740   -4.8300 C   0  0  0  0  0  0  0  0  0  0  0  0
    0.2020   12.0540   -4.0060 N   0  0  0  0  0  0  0  0  0  0  0  0
    0.1660   11.5430   -2.7070 C   0  0  0  0  0  0  0  0  0  0  0  0
    0.4250   10.4150   -2.2940 O   0  0  0  0  0  0  0  0  0  0  0  0
   -0.3040   11.3440   -5.1180 C   0  0  0  0  0  0  0  0  0  0  0  0
    0.1850   11.5730   -6.4120 C   0  0  0  0  0  0  0  0  0  0  0  0
   -1.3100   10.3820   -4.9550 C   0  0  0  0  0  0  0  0  0  0  0  0
   -0.3140   10.8570   -7.5030 C   0  0  0  0  0  0  0  0  0  0  0  0
   -1.8130    9.6640   -6.0420 C   0  0  0  0  0  0  0  0  0  0  0  0
   -1.3100    9.9040   -7.3120 C   0  0  0  0  0  0  0  0  0  0  0  0
   -1.9210    9.0190   -8.6520 Cl  0  0  0  0  0  0  0  0  0  0  0  0
  1  2  1  0
  2  3  2  0
  2  4  1  0
  4  5  1  0
  3  6  1  0
  4  7  1  0
  6  7  2  0
  5  8  2  3
  8  9  1  0
  8 10  1  0
  9 11  1  6
  9 12  1  0
 10 13  1  0
 12 13  1  0
 13 14  2  0
 12 15  1  0
 15 16  2  0
 15 17  1  0
 16 18  1  0
 17 19  2  0
 18 20  2  0
 19 20  1  0
 20 21  1  0
M  END
