x0918_2_A_α-x0128_1_A_α
     RDKit          3D

 28 30  0  0  0  0  0  0  0  0999 V2000
   15.1120    5.3930   10.8350 N   0  0  0  0  0  0  0  0  0  0  0  0
   14.4330    4.6360    9.7900 C   0  0  0  0  0  0  0  0  0  0  0  0
   14.6650    3.1600    9.9680 C   0  0  0  0  0  0  0  0  0  0  0  0
   14.8810    5.1010    8.4330 C   0  0  0  0  0  0  0  0  0  0  0  0
   15.0370    4.2170    7.4340 C   0  0  0  0  0  0  0  0  0  0  0  0
   14.8340    2.3710    8.9000 C   0  0  0  0  0  0  0  0  0  0  0  0
   14.8080    2.8470    7.5930 N   0  0  0  0  0  0  0  0  0  0  0  0
   14.0660    2.0790    6.5760 C   0  0  0  0  0  0  0  0  0  0  0  0
   14.6370    2.2270    5.1570 C   0  0  0  0  0  0  0  0  0  0  0  0
   13.9280    1.3840    4.0830 C   0  0  0  0  0  0  0  0  0  0  0  0
   12.4090    1.5580    4.0520 C   0  0  0  0  0  0  0  0  0  0  0  0
   11.6160    0.4750    3.3360 C   0  0  0  0  0  0  0  0  0  0  0  0
   10.6650    0.9610    2.3410 N   0  0  0  0  0  0  0  0  0  0  0  0
   10.8530    0.4840    0.9740 C   0  0  0  0  0  0  0  0  0  0  0  0
    9.2700    1.1370    2.7410 C   0  0  0  0  0  0  0  0  0  0  0  0
    9.9720   -0.7100    0.5410 C   0  0  2  0  0  0  0  0  0  0  0  0
    8.2580    0.3170    2.0030 C   0  0  0  0  0  0  0  0  0  0  0  0
    9.9670   -0.8460   -0.8980 N   0  0  0  0  0  0  0  0  0  0  0  0
    8.5580   -0.5240    1.0000 C   0  0  0  0  0  0  0  0  0  0  0  0
    9.6110   -2.0270   -1.5090 C   0  0  0  0  0  0  0  0  0  0  0  0
   10.4220   -2.2320   -2.6010 N   0  0  0  0  0  0  0  0  0  0  0  0
    8.7010   -2.7360   -1.1040 O   0  0  0  0  0  0  0  0  0  0  0  0
   10.2610   -3.2360   -3.5720 C   0  0  0  0  0  0  0  0  0  0  0  0
    9.2290   -4.1770   -3.5660 C   0  0  0  0  0  0  0  0  0  0  0  0
   11.2080   -3.2690   -4.6010 C   0  0  0  0  0  0  0  0  0  0  0  0
    9.1470   -5.1370   -4.5810 C   0  0  0  0  0  0  0  0  0  0  0  0
   11.1250   -4.2280   -5.6140 C   0  0  0  0  0  0  0  0  0  0  0  0
   10.0930   -5.1610   -5.6020 C   0  0  0  0  0  0  0  0  0  0  0  0
  1  2  1  0
  2  3  1  0
  2  4  1  0
  4  5  2  0
  3  6  2  0
  5  7  1  0
  6  7  1  0
  7  8  1  0
  8  9  1  0
  9 10  1  0
 10 11  1  0
 11 12  1  0
 12 13  1  0
 13 14  1  0
 13 15  1  0
 14 16  1  0
 15 17  1  0
 16 18  1  6
 16 19  1  0
 17 19  2  0
 18 20  1  0
 20 21  1  0
 20 22  2  0
 21 23  1  0
 23 24  2  0
 23 25  1  0
 24 26  1  0
 25 27  2  0
 26 28  2  0
 27 28  1  0
M  END
