x0918_4_B-x0598_0_A
     RDKit          3D

 20 21  0  0  0  0  0  0  0  0999 V2000
   14.3280   23.3110   13.4090 N   0  0  0  0  0  0  0  0  0  0  0  0
   13.7920   22.0380   13.5160 C   0  0  0  0  0  0  0  0  0  0  0  0
   13.6460   21.2590   12.3790 C   0  0  0  0  0  0  0  0  0  0  0  0
   13.4050   21.5410   14.7530 C   0  0  0  0  0  0  0  0  0  0  0  0
   13.5720   22.3450   16.0340 C   0  0  0  0  0  0  0  0  0  0  0  0
   12.8600   20.2490   14.7630 C   0  0  0  0  0  0  0  0  0  0  0  0
   13.1060   20.0030   12.4980 C   0  0  0  0  0  0  0  0  0  0  0  0
   12.7570   23.5780   16.0940 N   0  0  0  0  0  0  0  0  0  0  0  0
   12.7000   19.4700   13.6650 N   0  0  0  0  0  0  0  0  0  0  0  0
   11.3210   23.3250   15.8270 S   0  0  2  0  0  0  0  0  0  0  0  0
   10.3480   24.6010   16.4510 N   0  0  0  0  0  0  0  0  0  0  0  0
   11.0110   21.8040   16.7030 C   0  0  0  0  0  0  0  0  0  0  0  0
   10.9550   23.2100   14.4390 O   0  0  0  0  0  0  0  0  0  0  0  0
    9.1000   24.5410   17.2620 C   0  0  0  0  0  0  0  0  0  0  0  0
    7.8840   25.4760   16.9130 C   0  0  0  0  0  0  0  0  0  0  0  0
    6.6980   24.7220   16.3480 C   0  0  0  0  0  0  0  0  0  0  0  0
    7.2580   26.1680   18.1510 C   0  0  0  0  0  0  0  0  0  0  0  0
    5.5430   25.6000   15.9780 C   0  0  0  0  0  0  0  0  0  0  0  0
    5.8620   26.8260   17.9630 C   0  0  0  0  0  0  0  0  0  0  0  0
    4.8930   26.0720   17.1750 N   0  0  0  0  0  0  0  0  0  0  0  0
  1  2  1  0
  2  3  2  0
  2  4  1  0
  4  5  1  0
  4  6  2  0
  3  7  1  0
  5  8  1  0
  6  9  1  0
  7  9  2  0
  8 10  2  0
 10 11  1  0
 10 12  1  1
 10 13  2  0
 11 14  1  0
 14 15  1  0
 15 16  1  0
 15 17  1  0
 16 18  1  0
 17 19  1  0
 18 20  1  0
 19 20  1  0
M  END
