x0910_1_A-x0849_0_A
     RDKit          3D

 16 18  0  0  0  0  0  0  0  0999 V2000
   -7.6780   13.2930    0.6850 N   0  0  0  0  0  0  0  0  0  0  0  0
   -6.7880   14.4000    0.6220 C   0  0  2  0  0  0  0  0  0  0  0  0
   -7.1230   15.1870   -0.5220 N   0  0  0  0  0  0  0  0  0  0  0  0
   -5.4920   13.9270    0.2890 N   0  0  0  0  0  0  0  0  0  0  0  0
   -5.9070   15.9400   -0.7880 N   0  0  0  0  0  0  0  0  0  0  0  0
   -4.8340   15.1870   -0.1070 C   0  0  2  0  0  0  0  0  0  0  0  0
   -3.5140   15.2030   -0.9540 C   0  0  2  0  0  0  0  0  0  0  0  0
   -4.4250   15.8320    1.2440 C   0  0  0  0  0  0  0  0  0  0  0  0
   -3.6450   14.3900   -2.7420 Br  0  0  0  0  0  0  0  0  0  0  0  0
   -3.4310   15.0370    1.8820 N   0  0  0  0  0  0  0  0  0  0  0  0
   -2.2580   14.8200   -0.2070 C   0  0  0  0  0  0  0  0  0  0  0  0
   -2.3090   14.7590    1.1760 C   0  0  0  0  0  0  0  0  0  0  0  0
   -1.0270   14.5260   -0.8130 C   0  0  0  0  0  0  0  0  0  0  0  0
   -1.2980   14.4390    1.9390 N   0  0  0  0  0  0  0  0  0  0  0  0
    0.0560   14.1890   -0.0090 C   0  0  0  0  0  0  0  0  0  0  0  0
   -0.1550   14.1620    1.3580 C   0  0  0  0  0  0  0  0  0  0  0  0
  2  1  1  6
  2  3  1  0
  2  4  1  0
  3  5  1  0
  6  4  1  0
  5  6  1  0
  6  7  1  0
  6  8  1  1
  7  9  1  6
  8 10  1  0
  7 11  1  0
 10 12  1  0
 11 12  2  0
 11 13  1  0
 12 14  1  0
 13 15  2  0
 14 16  2  0
 15 16  1  0
M  END
