x0910_1_A_α-x0371_0_A_β
     RDKit          3D

 10 11  0  0  0  0  0  0  0  0999 V2000
   -7.9710   14.3090    1.2680 N   0  0  0  0  0  0  0  0  0  0  0  0
   -6.8730   14.6420    0.6040 C   0  0  0  0  0  0  0  0  0  0  0  0
   -6.7680   14.7880   -0.7090 N   0  0  0  0  0  0  0  0  0  0  0  0
   -5.7520   14.8560    1.3250 N   0  0  0  0  0  0  0  0  0  0  0  0
   -5.4600   15.1160   -0.8460 N   0  0  0  0  0  0  0  0  0  0  0  0
   -4.8650   15.1520    0.4130 C   0  0  0  0  0  0  0  0  0  0  0  0
   -3.4860   15.4730    0.5050 C   0  0  0  0  0  0  0  0  0  0  0  0
   -4.7470   15.3800   -2.0060 C   0  0  0  0  0  0  0  0  0  0  0  0
   -2.7970   15.7200   -0.6210 C   0  0  0  0  0  0  0  0  0  0  0  0
   -3.4360   15.6740   -1.9260 C   0  0  0  0  0  0  0  0  0  0  0  0
  1  2  1  0
  2  3  2  0
  2  4  1  0
  3  5  1  0
  4  6  2  0
  5  6  1  0
  6  7  1  0
  5  8  1  0
  7  9  2  0
  8 10  2  0
  9 10  1  0
M  END
