x0918_0_B_α-x0228_0_B_β
     RDKit          3D

 18 19  0  0  0  0  0  0  0  0999 V2000
   -3.6880   29.1890  -14.7500 N   0  0  0  0  0  0  0  0  0  0  0  0
   -4.4140   29.8580  -13.6830 C   0  0  0  0  0  0  0  0  0  0  0  0
   -4.4650   29.0630  -12.3970 C   0  0  0  0  0  0  0  0  0  0  0  0
   -5.8230   30.1640  -14.1070 C   0  0  0  0  0  0  0  0  0  0  0  0
   -6.7960   29.3100  -13.7860 C   0  0  0  0  0  0  0  0  0  0  0  0
   -5.5040   28.2580  -12.1700 C   0  0  0  0  0  0  0  0  0  0  0  0
   -6.5180   28.1310  -13.1050 N   0  0  0  0  0  0  0  0  0  0  0  0
   -6.4200   26.9850  -14.0340 C   0  0  0  0  0  0  0  0  0  0  0  0
   -6.3270   25.7200  -13.3220 N   0  0  0  0  0  0  0  0  0  0  0  0
   -5.0780   25.3860  -12.7220 C   0  0  0  0  0  0  0  0  0  0  0  0
   -5.0990   24.5330  -11.6070 C   0  0  0  0  0  0  0  0  0  0  0  0
   -3.8240   25.8670  -13.1970 C   0  0  0  0  0  0  0  0  0  0  0  0
   -3.8450   26.6900  -14.2980 O   0  0  0  0  0  0  0  0  0  0  0  0
   -3.9210   24.1500  -10.9620 C   0  0  0  0  0  0  0  0  0  0  0  0
   -2.6540   25.4870  -12.5430 C   0  0  0  0  0  0  0  0  0  0  0  0
   -2.6170   26.8430  -15.0110 C   0  0  0  0  0  0  0  0  0  0  0  0
   -3.9630   23.2360   -9.7700 C   0  0  0  0  0  0  0  0  0  0  0  0
   -2.6990   24.6330  -11.4410 C   0  0  0  0  0  0  0  0  0  0  0  0
  1  2  1  0
  2  3  1  0
  2  4  1  0
  4  5  2  0
  3  6  2  0
  5  7  1  0
  6  7  1  0
  7  8  1  0
  8  9  1  0
  9 10  1  0
 10 11  2  0
 10 12  1  0
 12 13  1  0
 11 14  1  0
 12 15  2  0
 13 16  1  0
 14 17  1  0
 14 18  2  0
 15 18  1  0
M  END
