x0918_4_B-x0905_0_B
     RDKit          3D

  7  7  0  0  0  0  0  0  0  0999 V2000
   13.5330   23.3490   13.5770 N   0  0  0  0  0  0  0  0  0  0  0  0
   13.2610   21.9950   13.3550 C   0  0  0  0  0  0  0  0  0  0  0  0
   14.0630   21.2320   12.5140 C   0  0  0  0  0  0  0  0  0  0  0  0
   12.1770   21.3840   13.9750 C   0  0  0  0  0  0  0  0  0  0  0  0
   11.9400   20.0400   13.7320 C   0  0  0  0  0  0  0  0  0  0  0  0
   13.7510   19.8940   12.3290 C   0  0  0  0  0  0  0  0  0  0  0  0
   12.7050   19.2810   12.9240 N   0  0  0  0  0  0  0  0  0  0  0  0
  1  2  1  0
  2  3  2  0
  2  4  1  0
  4  5  2  0
  3  6  1  0
  5  7  1  0
  6  7  2  0
M  END
