x0910_0_A-x0685_0_A
     RDKit          3D

 16 17  0  0  0  0  0  0  0  0999 V2000
   -2.9890   14.7140   -1.5590 N   0  0  0  0  0  0  0  0  0  0  0  0
   -1.6960   14.7260   -0.8620 C   0  0  0  0  0  0  0  0  0  0  0  0
   -1.5290   14.5850    0.5840 N   0  0  0  0  0  0  0  0  0  0  0  0
   -3.1440   15.3930   -2.8540 N   0  0  0  0  0  0  0  0  0  0  0  0
   -4.0220   14.7820   -0.5590 C   0  0  0  0  0  0  0  0  0  0  0  0
   -0.3420   14.8790   -1.3770 N   0  0  0  0  0  0  0  0  0  0  0  0
   -3.5620   15.2450    0.6550 C   0  0  0  0  0  0  0  0  0  0  0  0
   -5.3550   14.4310   -0.6840 C   0  0  0  0  0  0  0  0  0  0  0  0
   -0.2620   14.6470    0.9820 N   0  0  0  0  0  0  0  0  0  0  0  0
    0.3960   14.8180   -0.1840 C   0  0  0  0  0  0  0  0  0  0  0  0
   -4.4100   15.3250    1.7150 C   0  0  0  0  0  0  0  0  0  0  0  0
   -6.2080   14.5140    0.3730 N   0  0  0  0  0  0  0  0  0  0  0  0
   -5.7180   14.9490    1.5630 C   0  0  0  0  0  0  0  0  0  0  0  0
   -6.5700   15.0120    2.6340 N   0  0  0  0  0  0  0  0  0  0  0  0
   -7.9750   14.7130    2.4950 C   0  0  0  0  0  0  0  0  0  0  0  0
   -8.2550   13.3090    2.9890 C   0  0  0  0  0  0  0  0  0  0  0  0
  1  2  1  0
  2  3  1  0
  1  4  2  0
  1  5  1  0
  2  6  2  0
  5  7  2  0
  5  8  1  0
  3  9  1  0
  6 10  1  0
  9 10  2  0
  7 11  1  0
  8 12  2  0
 11 13  2  0
 12 13  1  0
 13 14  1  0
 14 15  1  0
 15 16  1  0
M  CHG  2   1   1   4  -1
M  END
