x0910_2_B_α-x0905_0_A_α
     RDKit          3D

 19 20  0  0  0  0  0  0  0  0999 V2000
  -13.4370   20.9970   -2.7030 N   0  0  0  0  0  0  0  0  0  0  0  0
  -13.0180   22.0690   -2.0200 C   0  0  0  0  0  0  0  0  0  0  0  0
  -11.6770   22.0980   -1.5620 N   0  0  0  0  0  0  0  0  0  0  0  0
  -13.8330   23.0520   -1.7900 N   0  0  0  0  0  0  0  0  0  0  0  0
  -11.7310   20.7920   -2.2180 C   0  0  0  0  0  0  0  0  0  0  0  0
  -11.8640   23.3700   -0.9990 N   0  0  0  0  0  0  0  0  0  0  0  0
  -13.0610   23.8530   -1.1420 C   0  0  0  0  0  0  0  0  0  0  0  0
  -11.6280   19.5700   -1.2650 C   0  0  0  0  0  0  0  0  0  0  0  0
  -11.0440   18.2830   -1.9040 C   0  0  0  0  0  0  0  0  0  0  0  0
   -9.6980   17.8060   -1.3210 C   0  0  0  0  0  0  0  0  0  0  0  0
   -9.2860   16.3230   -1.4510 C   0  0  0  0  0  0  0  0  0  0  0  0
   -7.7640   16.0850   -1.5290 C   0  0  0  0  0  0  0  0  0  0  0  0
   -7.2640   15.0400   -0.6910 O   0  0  0  0  0  0  0  0  0  0  0  0
   -5.8910   15.0600   -0.4940 C   0  0  0  0  0  0  0  0  0  0  0  0
   -5.4030   14.9750    0.7570 N   0  0  0  0  0  0  0  0  0  0  0  0
   -5.0910   15.1700   -1.6210 C   0  0  0  0  0  0  0  0  0  0  0  0
   -4.0590   14.9940    0.8970 C   0  0  0  0  0  0  0  0  0  0  0  0
   -3.7080   15.1880   -1.4490 C   0  0  0  0  0  0  0  0  0  0  0  0
   -3.1810   15.0970   -0.1640 C   0  0  0  0  0  0  0  0  0  0  0  0
  1  2  1  0
  2  3  1  0
  2  4  2  0
  3  5  1  0
  3  6  1  0
  4  7  1  0
  6  7  2  0
  5  8  1  0
  8  9  1  0
  9 10  1  0
 10 11  1  0
 11 12  1  0
 12 13  1  0
 13 14  1  0
 14 15  2  0
 14 16  1  0
 15 17  1  0
 16 18  2  0
 17 19  2  0
 18 19  1  0
M  END
