x0910_0_A_α-x0471_0_A_α
     RDKit          3D

 21 23  0  0  0  0  0  0  0  0999 V2000
   -2.4330   13.0840   -1.4200 N   0  0  0  0  0  0  0  0  0  0  0  0
   -1.9000   14.0220   -0.6040 C   0  0  0  0  0  0  0  0  0  0  0  0
   -2.7540   15.0880    0.0630 C   0  0  1  0  0  0  0  0  0  0  0  0
   -0.6400   14.1350   -0.3400 N   0  0  0  0  0  0  0  0  0  0  0  0
   -1.6830   15.8380    0.7560 N   0  0  0  0  0  0  0  0  0  0  0  0
   -0.5680   15.2180    0.4820 C   0  0  0  0  0  0  0  0  0  0  0  0
   -3.4250   15.7060   -1.1470 C   0  0  0  0  0  0  0  0  0  0  0  0
   -3.7490   14.5690    1.0700 C   0  0  0  0  0  0  0  0  0  0  0  0
   -5.0830   14.6070    0.8490 C   0  0  0  0  0  0  0  0  0  0  0  0
   -4.7610   15.7150   -1.3740 C   0  0  0  0  0  0  0  0  0  0  0  0
   -6.1400   14.2020    1.6160 N   0  0  0  0  0  0  0  0  0  0  0  0
   -5.6550   15.1440   -0.3780 C   0  0  0  0  0  0  0  0  0  0  0  0
   -6.9560   15.0150   -0.3600 N   0  0  0  0  0  0  0  0  0  0  0  0
   -7.1950   14.4540    0.8920 C   0  0  0  0  0  0  0  0  0  0  0  0
   -8.6140   14.1780    1.3640 C   0  0  0  0  0  0  0  0  0  0  0  0
   -8.6660   14.0600    2.8200 N   0  0  0  0  0  0  0  0  0  0  0  0
   -9.1120   15.1120    3.5960 C   0  0  0  0  0  0  0  0  0  0  0  0
   -9.4040   16.1940    3.1070 O   0  0  0  0  0  0  0  0  0  0  0  0
   -9.2500   14.8270    5.0980 C   0  0  0  0  0  0  0  0  0  0  0  0
   -9.6130   13.3720    5.3760 C   0  0  0  0  0  0  0  0  0  0  0  0
   -8.0030   15.2570    5.8650 C   0  0  0  0  0  0  0  0  0  0  0  0
  1  2  1  0
  2  3  1  0
  2  4  2  0
  3  5  1  0
  4  6  1  0
  5  6  2  0
  3  7  1  6
  3  8  1  0
  8  9  2  0
  7 10  2  0
  9 11  1  0
  9 12  1  0
 10 12  1  0
 12 13  2  0
 11 14  2  0
 13 14  1  0
 14 15  1  0
 15 16  1  0
 16 17  1  0
 17 18  2  0
 17 19  1  0
 19 20  1  0
 19 21  1  0
M  END
