x0910_0_A-x0592_0_A
     RDKit          3D

 16 17  0  0  0  0  0  0  0  0999 V2000
   -2.7860   14.5720   -0.9180 N   0  0  0  0  0  0  0  0  0  0  0  0
   -3.6970   14.8380   -0.0510 C   0  0  0  0  0  0  0  0  0  0  0  0
   -3.3710   15.1770    1.2460 N   0  0  0  0  0  0  0  0  0  0  0  0
   -1.5640   14.6790   -0.4400 C   0  0  0  0  0  0  0  0  0  0  0  0
   -1.4050   14.5750    0.9090 N   0  0  0  0  0  0  0  0  0  0  0  0
   -0.4050   14.8850   -0.9880 N   0  0  0  0  0  0  0  0  0  0  0  0
   -5.1040   14.8450   -0.2120 C   0  0  0  0  0  0  0  0  0  0  0  0
   -0.1390   14.7190    1.2710 N   0  0  0  0  0  0  0  0  0  0  0  0
    0.4250   14.9080    0.0760 C   0  0  0  0  0  0  0  0  0  0  0  0
   -5.9250   15.1320   -1.3230 C   0  0  0  0  0  0  0  0  0  0  0  0
   -5.9730   14.5470    0.7920 C   0  0  0  0  0  0  0  0  0  0  0  0
   -7.2240   15.0210   -1.0280 N   0  0  0  0  0  0  0  0  0  0  0  0
   -7.2130   14.6660    0.2710 N   0  0  0  0  0  0  0  0  0  0  0  0
   -8.4220   14.4460    1.0080 C   0  0  0  0  0  0  0  0  0  0  0  0
   -8.1000   14.0680    2.4510 C   0  0  0  0  0  0  0  0  0  0  0  0
   -7.2620   15.0550    3.0610 O   0  0  0  0  0  0  0  0  0  0  0  0
  1  2  2  3
  2  3  1  0
  1  4  1  0
  4  5  1  0
  4  6  2  0
  2  7  1  0
  5  8  1  0
  6  9  1  0
  8  9  2  0
  7 10  1  0
  7 11  2  0
 10 12  2  0
 11 13  1  0
 12 13  1  0
 13 14  1  0
 14 15  1  0
 15 16  1  0
M  END
