x0910_2_B_α-x0962_0_A_α
     RDKit          3D

 20 21  0  0  0  0  0  0  0  0999 V2000
  -13.6970   21.8960   -3.5910 N   0  0  0  0  0  0  0  0  0  0  0  0
  -13.2760   22.3780   -2.4130 C   0  0  0  0  0  0  0  0  0  0  0  0
  -12.3360   21.7490   -1.6850 N   0  0  0  0  0  0  0  0  0  0  0  0
  -13.6730   23.4530   -1.7990 N   0  0  0  0  0  0  0  0  0  0  0  0
  -11.7170   20.5030   -2.0920 C   0  0  0  0  0  0  0  0  0  0  0  0
  -12.0730   22.4330   -0.5430 N   0  0  0  0  0  0  0  0  0  0  0  0
  -12.9240   23.4550   -0.6660 C   0  0  0  0  0  0  0  0  0  0  0  0
  -11.4920   19.4460   -0.9910 C   0  0  0  0  0  0  0  0  0  0  0  0
  -10.6980   18.2240   -1.5090 C   0  0  0  0  0  0  0  0  0  0  0  0
  -10.1300   17.2830   -0.4300 C   0  0  0  0  0  0  0  0  0  0  0  0
   -9.6510   15.9090   -0.9190 C   0  0  0  0  0  0  0  0  0  0  0  0
   -8.1120   15.7690   -0.9440 C   0  0  0  0  0  0  0  0  0  0  0  0
   -7.5040   14.9200    0.2050 C   0  0  0  0  0  0  0  0  0  0  0  0
   -6.0400   14.9460    0.2290 N   0  0  0  0  0  0  0  0  0  0  0  0
   -5.1720   15.0440    1.3030 C   0  0  0  0  0  0  0  0  0  0  0  0
   -5.2850   14.8690   -0.8890 C   0  0  0  0  0  0  0  0  0  0  0  0
   -3.9880   14.9140   -0.4620 C   0  0  0  0  0  0  0  0  0  0  0  0
   -3.9090   15.0270    0.9050 N   0  0  0  0  0  0  0  0  0  0  0  0
   -2.8490   14.8470   -1.3160 C   0  0  0  0  0  0  0  0  0  0  0  0
   -1.9600   14.7580   -2.0530 N   0  0  0  0  0  0  0  0  0  0  0  0
  1  2  1  0
  2  3  1  0
  2  4  2  0
  3  5  1  0
  3  6  1  0
  4  7  1  0
  6  7  2  0
  5  8  1  0
  8  9  1  0
  9 10  1  0
 10 11  1  0
 11 12  1  0
 12 13  1  0
 13 14  1  0
 14 15  1  0
 14 16  1  0
 16 17  2  0
 15 18  2  0
 17 18  1  0
 17 19  1  0
 19 20  3  0
M  END
