x0918_0_B_α-1hjz_B_0_B_α
     RDKit          3D

 22 23  0  0  0  0  0  0  0  0999 V2000
   -3.6600   30.0060  -14.0830 N   0  0  0  0  0  0  0  0  0  0  0  0
   -4.8630   29.4740  -13.5860 C   0  0  0  0  0  0  0  0  0  0  0  0
   -4.9340   28.8290  -12.3480 C   0  0  0  0  0  0  0  0  0  0  0  0
   -6.0210   29.5810  -14.3260 C   0  0  0  0  0  0  0  0  0  0  0  0
   -7.1760   29.0430  -13.8060 C   0  0  0  0  0  0  0  0  0  0  0  0
   -6.1490   28.2830  -11.8790 C   0  0  0  0  0  0  0  0  0  0  0  0
   -6.3930   27.5290  -10.5460 C   0  0  0  0  0  0  0  0  0  0  0  0
   -7.2610   28.4050  -12.6220 N   0  0  0  0  0  0  0  0  0  0  0  0
   -6.4500   25.9540  -10.3870 C   0  0  0  0  0  0  0  0  0  0  0  0
   -5.6380   25.3180   -9.1950 C   0  0  0  0  0  0  0  0  0  0  0  0
   -5.9820   24.0590   -8.5060 N   0  0  0  0  0  0  0  0  0  0  0  0
   -5.4480   22.9330   -9.3110 C   0  0  0  0  0  0  0  0  0  0  0  0
   -5.3960   23.9430   -7.1210 C   0  0  0  0  0  0  0  0  0  0  0  0
   -3.9260   22.7060   -9.1230 C   0  0  0  0  0  0  0  0  0  0  0  0
   -3.8890   23.6040   -6.9680 C   0  0  0  0  0  0  0  0  0  0  0  0
   -3.5250   22.4060   -7.7440 N   0  0  0  0  0  0  0  0  0  0  0  0
   -2.0700   22.0380   -7.5750 C   0  0  0  0  0  0  0  0  0  0  0  0
   -1.7030   20.6930   -8.1910 C   0  0  0  0  0  0  0  0  0  0  0  0
   -0.1280   19.9840   -7.7130 S   0  0  0  0  0  0  0  0  0  0  0  0
    0.8220   21.0960   -7.7410 O   0  0  0  0  0  0  0  0  0  0  0  0
    0.1130   18.9140   -8.7030 O   0  0  0  0  0  0  0  0  0  0  0  0
   -0.4040   19.4630   -6.3850 O   0  0  0  0  0  0  0  0  0  0  0  0
  1  2  1  0
  2  3  2  0
  2  4  1  0
  4  5  2  0
  3  6  1  0
  6  7  1  0
  5  8  1  0
  6  8  2  0
  7  9  1  0
  9 10  1  0
 10 11  1  0
 11 12  1  0
 11 13  1  0
 12 14  1  0
 13 15  1  0
 14 16  1  0
 15 16  1  0
 16 17  1  0
 17 18  1  0
 18 19  1  0
 19 20  2  0
 19 21  2  0
 19 22  1  0
M  CHG  1  22  -1
M  END
