x0910_0_A_α-x0900_0_A_α
     RDKit          3D

 11 12  0  0  0  0  0  0  0  0999 V2000
   -2.4940   14.0600   -1.9930 N   0  0  0  0  0  0  0  0  0  0  0  0
   -1.9910   14.4310   -0.7860 C   0  0  0  0  0  0  0  0  0  0  0  0
   -2.8800   14.8170    0.3860 C   0  0  1  0  0  0  0  0  0  0  0  0
   -0.7310   14.5110   -0.5090 N   0  0  0  0  0  0  0  0  0  0  0  0
   -1.8370   15.1740    1.3910 N   0  0  0  0  0  0  0  0  0  0  0  0
   -0.6970   14.9510    0.7870 C   0  0  0  0  0  0  0  0  0  0  0  0
   -3.8410   15.8000   -0.0660 N   0  0  0  0  0  0  0  0  0  0  0  0
   -3.7680   13.7370    0.9810 C   0  0  0  0  0  0  0  0  0  0  0  0
   -5.1260   15.2750   -0.0560 C   0  0  0  0  0  0  0  0  0  0  0  0
   -5.1480   14.3890    1.1240 C   0  0  0  0  0  0  0  0  0  0  0  0
   -6.0450   15.4850   -0.8400 O   0  0  0  0  0  0  0  0  0  0  0  0
  1  2  1  0
  2  3  1  0
  2  4  2  0
  3  5  1  0
  4  6  1  0
  5  6  2  0
  3  7  1  0
  3  8  1  1
  7  9  1  0
  8 10  1  0
  9 10  1  0
  9 11  2  0
M  END
