x0910_0_A_α-x0962_0_A_α
     RDKit          3D

 12 13  0  0  0  0  0  0  0  0999 V2000
   -2.9600   14.5790   -1.2390 N   0  0  0  0  0  0  0  0  0  0  0  0
   -1.7030   14.6970   -0.5410 C   0  0  0  0  0  0  0  0  0  0  0  0
   -1.5190   14.6570    0.8940 N   0  0  0  0  0  0  0  0  0  0  0  0
   -3.0870   15.2200   -2.5400 N   0  0  0  0  0  0  0  0  0  0  0  0
   -4.0570   14.4640   -0.2880 C   0  0  1  0  0  0  0  0  0  0  0  0
   -0.3780   14.8830   -1.1090 N   0  0  0  0  0  0  0  0  0  0  0  0
   -3.8000   14.9820    1.0580 N   0  0  0  0  0  0  0  0  0  0  0  0
   -5.3220   15.2250   -0.6190 C   0  0  0  0  0  0  0  0  0  0  0  0
   -0.2430   14.8050    1.2450 N   0  0  0  0  0  0  0  0  0  0  0  0
    0.3800   14.9360    0.0590 C   0  0  0  0  0  0  0  0  0  0  0  0
   -5.1010   14.7920    1.6810 C   0  0  0  0  0  0  0  0  0  0  0  0
   -6.0720   14.9380    0.6040 N   0  0  0  0  0  0  0  0  0  0  0  0
  1  2  1  0
  2  3  1  0
  1  4  2  0
  5  1  1  6
  2  6  2  0
  5  7  1  0
  5  8  1  0
  3  9  1  0
  6 10  1  0
  9 10  2  0
  7 11  1  0
  8 12  1  0
 11 12  1  0
M  CHG  2   1   1   4  -1
M  END
