x0910_0_A-x0662_0_A
     RDKit          3D

 27 29  0  0  0  0  0  0  0  0999 V2000
   -2.6650   14.6700   -1.8300 N   0  0  0  0  0  0  0  0  0  0  0  0
   -1.9980   14.6260   -0.6650 C   0  0  0  0  0  0  0  0  0  0  0  0
   -2.4100   15.0240    0.5220 N   0  0  0  0  0  0  0  0  0  0  0  0
   -0.7250   14.1340   -0.5450 N   0  0  0  0  0  0  0  0  0  0  0  0
    0.1550   13.5810   -1.5560 C   0  0  0  0  0  0  0  0  0  0  0  0
   -1.4030   14.7990    1.4270 N   0  0  0  0  0  0  0  0  0  0  0  0
   -0.4110   14.2670    0.7730 C   0  0  0  0  0  0  0  0  0  0  0  0
   -0.4180   12.4500   -2.4330 C   0  0  0  0  0  0  0  0  0  0  0  0
    0.0860   12.5390   -3.8800 C   0  0  0  0  0  0  0  0  0  0  0  0
   -0.4380   11.5500   -4.8470 N   0  0  0  0  0  0  0  0  0  0  0  0
    0.3360   11.5460   -5.8870 C   0  0  0  0  0  0  0  0  0  0  0  0
    1.3580   12.2170   -6.0960 O   0  0  0  0  0  0  0  0  0  0  0  0
    0.0950   10.6590   -7.0980 C   0  0  0  0  0  0  0  0  0  0  0  0
   -0.8640    9.6420   -7.0730 C   0  0  0  0  0  0  0  0  0  0  0  0
    0.8400   10.8490   -8.2730 C   0  0  0  0  0  0  0  0  0  0  0  0
   -1.0650    8.8420   -8.2060 C   0  0  0  0  0  0  0  0  0  0  0  0
    0.6590   10.0700   -9.4140 C   0  0  0  0  0  0  0  0  0  0  0  0
    1.3850   10.2330  -10.6270 N   0  0  0  0  0  0  0  0  0  0  0  0
   -0.3070    9.0570   -9.3700 C   0  0  0  0  0  0  0  0  0  0  0  0
    2.2070    9.3300  -11.2810 C   0  0  0  0  0  0  0  0  0  0  0  0
    2.4110    8.1650  -10.9670 O   0  0  0  0  0  0  0  0  0  0  0  0
    2.8970    9.8980  -12.4730 C   0  0  0  0  0  0  0  0  0  0  0  0
    2.6930   11.1620  -13.1020 C   0  0  0  0  0  0  0  0  0  0  0  0
    3.8670    9.2030  -13.1100 N   0  0  0  0  0  0  0  0  0  0  0  0
    4.2610   10.0160  -14.1070 N   0  0  0  0  0  0  0  0  0  0  0  0
    3.5880   11.2010  -14.1470 C   0  0  0  0  0  0  0  0  0  0  0  0
    5.3090    9.5760  -14.9960 C   0  0  0  0  0  0  0  0  0  0  0  0
  1  2  1  0
  2  3  2  0
  2  4  1  0
  4  5  1  0
  3  6  1  0
  4  7  1  0
  6  7  2  0
  5  8  1  0
  8  9  1  0
  9 10  1  0
 10 11  2  3
 11 12  1  0
 11 13  1  0
 13 14  2  0
 13 15  1  0
 14 16  1  0
 15 17  2  0
 17 18  1  0
 16 19  2  0
 17 19  1  0
 18 20  1  0
 20 21  2  0
 20 22  1  0
 22 23  1  0
 22 24  2  0
 24 25  1  0
 23 26  2  0
 25 26  1  0
 25 27  1  0
M  CHG  1  12  -1
M  END
