x0910_0_A-x0844_0_A
     RDKit          3D

 13 14  0  0  0  0  0  0  0  0999 V2000
   -2.9800   14.5050   -1.3000 N   0  0  0  0  0  0  0  0  0  0  0  0
   -1.8780   14.6280   -0.5300 C   0  0  0  0  0  0  0  0  0  0  0  0
   -1.9590   14.5300    0.8320 N   0  0  0  0  0  0  0  0  0  0  0  0
   -4.0970   15.3850   -0.9550 C   0  0  2  0  0  0  0  0  0  0  0  0
   -0.6340   14.8530   -0.8640 N   0  0  0  0  0  0  0  0  0  0  0  0
   -3.9210   15.7060    0.5050 C   0  0  0  0  0  0  0  0  0  0  0  0
   -5.4650   14.7860   -1.3080 C   0  0  0  0  0  0  0  0  0  0  0  0
   -0.7630   14.6960    1.4100 N   0  0  0  0  0  0  0  0  0  0  0  0
    0.0050   14.8940    0.3380 C   0  0  0  0  0  0  0  0  0  0  0  0
   -4.7810   15.3450    1.4350 C   0  0  0  0  0  0  0  0  0  0  0  0
   -6.4420   14.7260   -0.1520 C   0  0  0  0  0  0  0  0  0  0  0  0
   -7.6620   14.7420   -0.2970 O   0  0  0  0  0  0  0  0  0  0  0  0
   -5.8930   14.6570    1.0940 N   0  0  0  0  0  0  0  0  0  0  0  0
  1  2  1  0
  2  3  1  0
  4  1  1  1
  2  5  2  0
  4  6  1  0
  4  7  1  0
  3  8  1  0
  5  9  1  0
  8  9  2  0
  6 10  2  0
  7 11  1  0
 11 12  2  0
 10 13  1  0
 11 13  1  0
M  END
