x0918_3_A_α-x0796_0_B_α
     RDKit          3D

 25 28  0  0  0  0  0  0  0  0999 V2000
   16.0540    6.0180    8.5230 N   0  0  0  0  0  0  0  0  0  0  0  0
   15.5480    4.8320    9.0900 C   0  0  0  0  0  0  0  0  0  0  0  0
   15.0930    4.7590   10.4030 C   0  0  0  0  0  0  0  0  0  0  0  0
   15.5060    3.6840    8.2970 C   0  0  0  0  0  0  0  0  0  0  0  0
   15.0880    5.9360   11.3420 C   0  0  0  0  0  0  0  0  0  0  0  0
   15.0160    2.5080    8.8320 C   0  0  0  0  0  0  0  0  0  0  0  0
   14.6220    3.5150   10.8440 C   0  0  0  0  0  0  0  0  0  0  0  0
   15.5070    7.2480   10.6630 C   0  0  0  0  0  0  0  0  0  0  0  0
   14.5730    2.3950   10.0940 N   0  0  0  0  0  0  0  0  0  0  0  0
   14.4420    8.3430   10.6650 C   0  0  0  0  0  0  0  0  0  0  0  0
   14.9350    9.6200   11.2790 C   0  0  0  0  0  0  0  0  0  0  0  0
   14.1310   10.6690   11.7370 C   0  0  0  0  0  0  0  0  0  0  0  0
   16.3290    9.7370   11.3960 C   0  0  0  0  0  0  0  0  0  0  0  0
   12.7210   10.6580   11.6670 N   0  0  0  0  0  0  0  0  0  0  0  0
   14.7430   11.7950   12.3090 C   0  0  0  0  0  0  0  0  0  0  0  0
   16.9240   10.8570   11.9580 C   0  0  0  0  0  0  0  0  0  0  0  0
   13.8560   12.8820   12.8110 C   0  0  0  0  0  0  0  0  0  0  0  0
   11.9280   11.3610   12.5490 C   0  0  0  0  0  0  0  0  0  0  0  0
   16.1280   11.8900   12.4170 C   0  0  0  0  0  0  0  0  0  0  0  0
   10.6920   11.2930   12.5210 O   0  0  0  0  0  0  0  0  0  0  0  0
   12.7250   12.1910   13.5700 C   0  0  2  0  0  0  0  0  0  0  0  0
   11.9460   13.1930   14.3370 N   0  0  0  0  0  0  0  0  0  0  0  0
   13.2140   11.2000   14.6360 C   0  0  0  0  0  0  0  0  0  0  0  0
   12.1330   11.2990   15.6900 C   0  0  0  0  0  0  0  0  0  0  0  0
   11.9140   12.7870   15.7480 C   0  0  0  0  0  0  0  0  0  0  0  0
  1  2  1  0
  2  3  2  0
  2  4  1  0
  3  5  1  0
  4  6  2  0
  3  7  1  0
  5  8  1  0
  6  9  1  0
  7  9  2  0
  8 10  1  0
 10 11  1  0
 11 12  1  0
 11 13  2  0
 12 14  1  0
 12 15  2  0
 13 16  1  0
 15 17  1  0
 14 18  1  0
 15 19  1  0
 16 19  2  0
 18 20  2  0
 21 17  1  6
 21 18  1  0
 21 22  1  0
 21 23  1  0
 23 24  1  0
 22 25  1  0
 24 25  1  0
M  END
