x0910_1_A-x0766_0_A
     RDKit          3D

 18 20  0  0  0  0  0  0  0  0999 V2000
   -7.1260   13.9660    0.3690 N   0  0  0  0  0  0  0  0  0  0  0  0
   -5.8880   14.4120    0.0260 C   0  0  0  0  0  0  0  0  0  0  0  0
   -5.1390   13.8890   -0.9090 N   0  0  0  0  0  0  0  0  0  0  0  0
   -5.3770   15.4840    0.6610 N   0  0  0  0  0  0  0  0  0  0  0  0
   -3.8740   14.6850   -0.8940 C   0  0  2  0  0  0  0  0  0  0  0  0
   -4.2360   15.7140    0.1250 C   0  0  0  0  0  0  0  0  0  0  0  0
   -3.2660   15.0500   -2.2590 C   0  0  0  0  0  0  0  0  0  0  0  0
   -2.7070   13.9770   -0.2840 C   0  0  0  0  0  0  0  0  0  0  0  0
   -1.9600   14.5900   -2.3680 C   0  0  0  0  0  0  0  0  0  0  0  0
   -1.6460   13.9420   -1.1140 C   0  0  0  0  0  0  0  0  0  0  0  0
   -0.8990   14.6430   -3.4890 C   0  0  2  0  0  0  0  0  0  0  0  0
   -0.1990   13.3130   -3.9030 C   0  0  2  0  0  0  0  0  0  0  0  0
    0.3400   15.5530   -3.2710 C   0  0  0  0  0  0  0  0  0  0  0  0
    0.2900   12.4260   -2.7740 C   0  0  0  0  0  0  0  0  0  0  0  0
    0.9750   13.7430   -4.7960 C   0  0  0  0  0  0  0  0  0  0  0  0
    1.4530   15.0700   -4.2110 C   0  0  0  0  0  0  0  0  0  0  0  0
    1.0770   12.7660   -1.9060 O   0  0  0  0  0  0  0  0  0  0  0  0
   -0.2010   11.1750   -2.7750 O   0  0  0  0  0  0  0  0  0  0  0  0
  1  2  1  0
  2  3  2  0
  2  4  1  0
  5  3  1  0
  4  6  2  0
  5  6  1  1
  5  7  1  0
  5  8  1  0
  7  9  2  0
  8 10  2  0
  9 10  1  0
 11  9  1  1
 11 12  1  0
 11 13  1  0
 12 14  1  1
 12 15  1  0
 13 16  1  0
 15 16  1  0
 14 17  2  0
 14 18  1  0
M  END
