x0910_1_A-x0933_0_A
     RDKit          3D

  6  6  0  0  0  0  0  0  0  0999 V2000
   -7.5430   13.9610    1.2840 N   0  0  0  0  0  0  0  0  0  0  0  0
   -6.5760   14.6110    0.6150 C   0  0  0  0  0  0  0  0  0  0  0  0
   -6.6930   15.0060   -0.6880 N   0  0  0  0  0  0  0  0  0  0  0  0
   -5.4030   14.9660    1.0720 N   0  0  0  0  0  0  0  0  0  0  0  0
   -5.5790   15.6370   -1.0980 N   0  0  0  0  0  0  0  0  0  0  0  0
   -4.8280   15.5860    0.0050 C   0  0  0  0  0  0  0  0  0  0  0  0
  1  2  1  0
  2  3  1  0
  2  4  2  0
  3  5  1  0
  4  6  1  0
  5  6  2  0
M  END
