x0910_1_A_α-x0837_0_A_α
     RDKit          3D

  7  7  0  0  0  0  0  0  0  0999 V2000
   -7.7200   14.3640    0.9600 N   0  0  0  0  0  0  0  0  0  0  0  0
   -6.5550   14.6410    0.3830 C   0  0  0  0  0  0  0  0  0  0  0  0
   -6.2660   14.5370   -0.9140 N   0  0  0  0  0  0  0  0  0  0  0  0
   -5.5340   15.0740    1.1710 N   0  0  0  0  0  0  0  0  0  0  0  0
   -4.9760   14.9230   -0.9210 N   0  0  0  0  0  0  0  0  0  0  0  0
   -4.5500   15.2490    0.3210 C   0  0  0  0  0  0  0  0  0  0  0  0
   -3.8350   14.9880   -2.5330 I   0  0  0  0  0  0  0  0  0  0  0  0
  1  2  1  0
  2  3  2  0
  2  4  1  0
  3  5  1  0
  4  6  2  0
  5  6  1  0
  5  7  1  0
M  END
