x0910_1_A-x0128_0_A
     RDKit          3D

 16 17  0  0  0  0  0  0  0  0999 V2000
   -8.2410   13.9960    0.5660 N   0  0  0  0  0  0  0  0  0  0  0  0
   -7.0460   14.5300    0.2440 C   0  0  0  0  0  0  0  0  0  0  0  0
   -6.5160   14.7540   -0.9390 N   0  0  0  0  0  0  0  0  0  0  0  0
   -6.1660   14.9410    1.1850 N   0  0  0  0  0  0  0  0  0  0  0  0
   -6.3950   14.8700    2.5300 N   0  0  0  0  0  0  0  0  0  0  0  0
   -5.2590   15.3170   -0.7560 N   0  0  0  0  0  0  0  0  0  0  0  0
   -5.0610   15.4220    0.5440 C   0  0  0  0  0  0  0  0  0  0  0  0
   -7.6210   15.1980    3.0960 C   0  0  0  0  0  0  0  0  0  0  0  0
   -8.6590   15.3000    2.4480 O   0  0  0  0  0  0  0  0  0  0  0  0
   -7.4840   15.4030    4.4620 N   0  0  0  0  0  0  0  0  0  0  0  0
   -8.3580   16.1000    5.3390 C   0  0  0  0  0  0  0  0  0  0  0  0
   -9.0480   17.2300    4.8830 C   0  0  0  0  0  0  0  0  0  0  0  0
   -8.5850   15.7340    6.6600 C   0  0  0  0  0  0  0  0  0  0  0  0
   -9.9010   17.9730    5.6280 N   0  0  0  0  0  0  0  0  0  0  0  0
   -9.4590   16.4800    7.4560 C   0  0  0  0  0  0  0  0  0  0  0  0
  -10.0870   17.5810    6.9000 C   0  0  0  0  0  0  0  0  0  0  0  0
  1  2  1  0
  2  3  2  0
  2  4  1  0
  4  5  1  0
  3  6  1  0
  4  7  1  0
  6  7  2  0
  5  8  1  0
  8  9  2  0
  8 10  1  0
 10 11  1  0
 11 12  2  0
 11 13  1  0
 12 14  1  0
 13 15  2  0
 14 16  2  0
 15 16  1  0
M  END
