x0918_0_B-x0228_0_B
     RDKit          3D

 26 28  0  0  0  0  0  0  0  0999 V2000
   -3.2950   30.2470  -14.5110 N   0  0  0  0  0  0  0  0  0  0  0  0
   -4.4300   29.4280  -14.1180 C   0  0  0  0  0  0  0  0  0  0  0  0
   -4.2600   28.8260  -12.7450 C   0  0  0  0  0  0  0  0  0  0  0  0
   -5.7010   30.2280  -14.0860 C   0  0  0  0  0  0  0  0  0  0  0  0
   -6.7300   29.7190  -13.4030 C   0  0  0  0  0  0  0  0  0  0  0  0
   -5.3630   28.3830  -12.1340 C   0  0  0  0  0  0  0  0  0  0  0  0
   -6.5780   28.4820  -12.7990 N   0  0  0  0  0  0  0  0  0  0  0  0
   -6.7910   27.4140  -13.8100 C   0  0  0  0  0  0  0  0  0  0  0  0
   -6.5930   26.0400  -13.3530 N   0  0  0  0  0  0  0  0  0  0  0  0
   -7.5470   25.0960  -13.7210 C   0  0  0  0  0  0  0  0  0  0  0  0
   -5.3380   25.5980  -12.7890 C   0  0  0  0  0  0  0  0  0  0  0  0
   -8.1120   25.3770  -14.9490 N   0  0  0  0  0  0  0  0  0  0  0  0
   -7.8750   24.1200  -13.0500 O   0  0  0  0  0  0  0  0  0  0  0  0
   -4.0690   25.9520  -13.3300 C   0  0  0  0  0  0  0  0  0  0  0  0
   -5.3700   24.7770  -11.6540 C   0  0  0  0  0  0  0  0  0  0  0  0
   -3.9890   26.7460  -14.4500 O   0  0  0  0  0  0  0  0  0  0  0  0
   -2.9020   25.4870  -12.7210 C   0  0  0  0  0  0  0  0  0  0  0  0
   -4.2000   24.3070  -11.0520 C   0  0  0  0  0  0  0  0  0  0  0  0
   -9.4480   25.2410  -15.1020 N   0  0  0  0  0  0  0  0  0  0  0  0
   -2.6540   26.8850  -14.9550 C   0  0  0  0  0  0  0  0  0  0  0  0
   -4.2840   23.4310   -9.8380 C   0  0  0  0  0  0  0  0  0  0  0  0
   -2.9710   24.6760  -11.6040 C   0  0  0  0  0  0  0  0  0  0  0  0
  -10.0670   24.2810  -15.8290 C   0  0  0  0  0  0  0  0  0  0  0  0
  -10.4100   26.0310  -14.5680 C   0  0  0  0  0  0  0  0  0  0  0  0
  -11.3660   24.4670  -15.7530 N   0  0  0  0  0  0  0  0  0  0  0  0
  -11.5860   25.5770  -14.9520 N   0  0  0  0  0  0  0  0  0  0  0  0
  1  2  1  0
  2  3  1  0
  2  4  1  0
  4  5  2  0
  3  6  2  0
  5  7  1  0
  6  7  1  0
  7  8  1  0
  8  9  1  0
  9 10  1  0
  9 11  1  0
 10 12  1  0
 10 13  2  0
 11 14  2  0
 11 15  1  0
 14 16  1  0
 14 17  1  0
 15 18  2  0
 12 19  1  0
 16 20  1  0
 18 21  1  0
 17 22  2  0
 18 22  1  0
 19 23  1  0
 19 24  1  0
 23 25  2  0
 24 26  2  0
 25 26  1  0
M  END
