x0918_2_A_α-x0814_0_B_α
     RDKit          3D

 26 27  0  0  0  0  0  0  0  0999 V2000
   14.6000    5.2850   11.0880 N   0  0  0  0  0  0  0  0  0  0  0  0
   14.8050    4.5030    9.9390 C   0  0  0  0  0  0  0  0  0  0  0  0
   14.3450    3.1880    9.9280 C   0  0  0  0  0  0  0  0  0  0  0  0
   15.4600    5.0120    8.8110 C   0  0  0  0  0  0  0  0  0  0  0  0
   15.9760    6.4390    8.8010 C   0  0  0  0  0  0  0  0  0  0  0  0
   15.6030    4.1370    7.7290 C   0  0  0  0  0  0  0  0  0  0  0  0
   14.5410    2.4130    8.7990 C   0  0  0  0  0  0  0  0  0  0  0  0
   17.1640    6.7660    9.7170 C   0  0  0  0  0  0  0  0  0  0  0  0
   15.1600    2.8590    7.6940 N   0  0  0  0  0  0  0  0  0  0  0  0
   16.7560    7.3110   11.0950 C   0  0  0  0  0  0  0  0  0  0  0  0
   16.4590    8.8070   11.1850 C   0  0  0  0  0  0  0  0  0  0  0  0
   14.9930    9.2570   11.0470 C   0  0  0  0  0  0  0  0  0  0  0  0
   14.7040   10.6670   11.6200 C   0  0  2  0  0  0  0  0  0  0  0  0
   13.3000   11.1850   11.4740 C   0  0  0  0  0  0  0  0  0  0  0  0
   15.6610   11.8140   11.2570 C   0  0  0  0  0  0  0  0  0  0  0  0
   13.1370   12.1650   12.5560 N   0  0  0  0  0  0  0  0  0  0  0  0
   15.5380   12.9870   12.2390 C   0  0  1  0  0  0  0  0  0  0  0  0
   16.2510   14.2710   11.8410 C   0  0  0  0  0  0  0  0  0  0  0  0
   11.5910   12.4510   13.0690 S   0  0  0  0  0  0  0  0  0  0  0  0
   14.0930   13.3260   12.5830 C   0  0  2  0  0  0  0  0  0  0  0  0
   14.0280   14.0290   13.9290 C   0  0  0  0  0  0  0  0  0  0  0  0
   11.4480   13.8680   12.8340 O   0  0  0  0  0  0  0  0  0  0  0  0
   17.5500   14.1100   11.4640 N   0  0  0  0  0  0  0  0  0  0  0  0
   10.6470   11.4700   12.5570 O   0  0  0  0  0  0  0  0  0  0  0  0
   15.7450   15.3880   11.8670 O   0  0  0  0  0  0  0  0  0  0  0  0
   11.8230   12.1380   14.8080 C   0  0  0  0  0  0  0  0  0  0  0  0
  1  2  1  0
  2  3  2  0
  2  4  1  0
  4  5  1  0
  4  6  2  0
  3  7  1  0
  5  8  1  0
  6  9  1  0
  7  9  2  0
  8 10  1  0
 10 11  1  0
 11 12  1  0
 13 12  1  6
 13 14  1  0
 13 15  1  0
 14 16  1  0
 15 17  1  0
 17 18  1  6
 16 19  1  0
 16 20  1  0
 17 20  1  0
 20 21  1  1
 19 22  2  0
 18 23  1  0
 19 24  2  0
 18 25  2  0
 19 26  1  0
M  END
