x0910_2_B_α-x0900_0_A_α
     RDKit          3D

 18 19  0  0  0  0  0  0  0  0999 V2000
  -12.7930   21.3590   -3.5000 N   0  0  0  0  0  0  0  0  0  0  0  0
  -12.7710   22.2030   -2.4580 C   0  0  0  0  0  0  0  0  0  0  0  0
  -12.4080   21.8450   -1.2040 N   0  0  0  0  0  0  0  0  0  0  0  0
  -13.0920   23.4650   -2.4690 N   0  0  0  0  0  0  0  0  0  0  0  0
  -12.0050   20.5420   -0.7130 C   0  0  0  0  0  0  0  0  0  0  0  0
  -12.4720   22.9130   -0.3620 N   0  0  0  0  0  0  0  0  0  0  0  0
  -12.9000   23.8600   -1.1840 C   0  0  0  0  0  0  0  0  0  0  0  0
  -11.6200   19.4470   -1.7290 C   0  0  0  0  0  0  0  0  0  0  0  0
  -10.9530   18.2220   -1.0670 C   0  0  0  0  0  0  0  0  0  0  0  0
   -9.8790   17.5400   -1.9370 C   0  0  0  0  0  0  0  0  0  0  0  0
   -8.7510   16.9630   -1.0780 C   0  0  0  0  0  0  0  0  0  0  0  0
   -8.0220   15.6980   -1.5660 C   0  0  0  0  0  0  0  0  0  0  0  0
   -7.3300   15.1020   -0.4180 N   0  0  0  0  0  0  0  0  0  0  0  0
   -6.0510   15.0100   -0.3180 C   0  0  0  0  0  0  0  0  0  0  0  0
   -5.0140   15.3590   -1.1500 N   0  0  0  0  0  0  0  0  0  0  0  0
   -5.4700   14.4220    0.9520 C   0  0  0  0  0  0  0  0  0  0  0  0
   -4.0750   15.0370    0.9220 C   0  0  0  0  0  0  0  0  0  0  0  0
   -3.7510   14.9540   -0.5620 C   0  0  0  0  0  0  0  0  0  0  0  0
  1  2  1  0
  2  3  1  0
  2  4  2  0
  3  5  1  0
  3  6  1  0
  4  7  1  0
  6  7  2  0
  5  8  1  0
  8  9  1  0
  9 10  1  0
 10 11  1  0
 11 12  1  0
 12 13  1  0
 13 14  2  3
 14 15  1  0
 14 16  1  0
 16 17  1  0
 15 18  1  0
 17 18  1  0
M  END
