x0910_1_A_α-x0900_0_A_α
     RDKit          3D

  6  6  0  0  0  0  0  0  0  0999 V2000
   -7.5460   13.9610    1.2850 N   0  0  0  0  0  0  0  0  0  0  0  0
   -6.5810   14.6110    0.6160 C   0  0  0  0  0  0  0  0  0  0  0  0
   -6.6950   15.0070   -0.6860 N   0  0  0  0  0  0  0  0  0  0  0  0
   -5.4080   14.9710    1.0690 N   0  0  0  0  0  0  0  0  0  0  0  0
   -5.5810   15.6400   -1.1010 N   0  0  0  0  0  0  0  0  0  0  0  0
   -4.8300   15.5930    0.0020 C   0  0  0  0  0  0  0  0  0  0  0  0
  1  2  1  0
  2  3  1  0
  2  4  2  0
  3  5  1  0
  4  6  1  0
  5  6  2  0
M  END
