x0910_2_B_α-x0104_0_A_α
     RDKit          3D

 20 21  0  0  0  0  0  0  0  0999 V2000
  -11.7400   22.5810   -3.4560 N   0  0  0  0  0  0  0  0  0  0  0  0
  -12.3610   22.2340   -2.3160 C   0  0  0  0  0  0  0  0  0  0  0  0
  -11.9760   22.0590   -1.0500 N   0  0  0  0  0  0  0  0  0  0  0  0
  -13.5920   21.9510   -2.0640 N   0  0  0  0  0  0  0  0  0  0  0  0
  -12.7860   21.8300   -0.8630 C   0  0  0  0  0  0  0  0  0  0  0  0
  -13.1310   21.6740   -0.2230 N   0  0  0  0  0  0  0  0  0  0  0  0
  -14.2200   21.6210   -1.0030 C   0  0  0  0  0  0  0  0  0  0  0  0
  -11.8320   20.6020   -0.9150 C   0  0  0  0  0  0  0  0  0  0  0  0
  -12.5030   19.2380   -1.0630 C   0  0  0  0  0  0  0  0  0  0  0  0
  -11.4360   18.1280   -1.0040 C   0  0  0  0  0  0  0  0  0  0  0  0
  -11.1570   17.6880    0.4400 C   0  0  0  0  0  0  0  0  0  0  0  0
  -10.0970   16.5870    0.5740 C   0  0  0  0  0  0  0  0  0  0  0  0
   -9.8330   16.3840    2.0070 N   0  0  0  0  0  0  0  0  0  0  0  0
   -8.8630   15.5990    2.3320 C   0  0  0  0  0  0  0  0  0  0  0  0
   -8.4380   15.2950    3.6020 N   0  0  0  0  0  0  0  0  0  0  0  0
   -8.8550   15.8610    4.7660 C   0  0  0  0  0  0  0  0  0  0  0  0
   -8.8240   15.3820    6.0600 C   0  0  0  0  0  0  0  0  0  0  0  0
   -9.5540   17.4310    4.7160 S   0  0  0  0  0  0  0  0  0  0  0  0
   -9.3760   16.3000    7.0020 C   0  0  0  0  0  0  0  0  0  0  0  0
   -9.8130   17.4560    6.4000 C   0  0  0  0  0  0  0  0  0  0  0  0
  1  2  1  0
  2  3  2  0
  2  4  1  0
  4  5  1  0
  3  6  1  0
  4  7  1  0
  6  7  2  0
  5  8  1  0
  8  9  1  0
  9 10  1  0
 10 11  1  0
 11 12  1  0
 12 13  1  0
 13 14  2  3
 14 15  1  0
 15 16  1  0
 16 17  2  0
 16 18  1  0
 17 19  1  0
 18 20  1  0
 19 20  2  0
M  END
