x0910_1_A_α-x0852_0_B_α
     RDKit          3D

 18 19  0  0  0  0  0  0  0  0999 V2000
   -6.8540   13.7390    1.6990 N   0  0  0  0  0  0  0  0  0  0  0  0
   -6.4010   14.5250    0.7160 C   0  0  0  0  0  0  0  0  0  0  0  0
   -7.1910   15.1440   -0.2280 N   0  0  0  0  0  0  0  0  0  0  0  0
   -5.1460   14.8240    0.5070 N   0  0  0  0  0  0  0  0  0  0  0  0
   -8.6580   15.0920   -0.3650 C   0  0  0  0  0  0  0  0  0  0  0  0
   -6.4070   15.8600   -1.0790 N   0  0  0  0  0  0  0  0  0  0  0  0
   -5.1860   15.6320   -0.5810 C   0  0  0  0  0  0  0  0  0  0  0  0
   -9.4280   16.4140   -0.0940 C   0  0  0  0  0  0  0  0  0  0  0  0
  -10.1360   16.5020    1.1940 O   0  0  0  0  0  0  0  0  0  0  0  0
   -9.5090   16.1280    2.3720 C   0  0  0  0  0  0  0  0  0  0  0  0
   -8.6190   15.0750    2.4660 C   0  0  0  0  0  0  0  0  0  0  0  0
   -9.7920   16.8670    3.5450 C   0  0  0  0  0  0  0  0  0  0  0  0
   -8.0010   14.7440    3.6710 C   0  0  0  0  0  0  0  0  0  0  0  0
   -9.1680   16.5350    4.7770 C   0  0  0  0  0  0  0  0  0  0  0  0
   -9.4580   17.2830    5.9680 C   0  0  0  0  0  0  0  0  0  0  0  0
   -8.2680   15.4680    4.8160 C   0  0  0  0  0  0  0  0  0  0  0  0
   -9.7200   17.8280    6.9630 N   0  0  0  0  0  0  0  0  0  0  0  0
   -7.6370   15.1190    5.9790 O   0  0  0  0  0  0  0  0  0  0  0  0
  1  2  1  0
  2  3  1  0
  2  4  2  0
  3  5  1  0
  3  6  1  0
  4  7  1  0
  6  7  2  0
  5  8  1  0
  8  9  1  0
  9 10  1  0
 10 11  2  0
 10 12  1  0
 11 13  1  0
 12 14  2  0
 14 15  1  0
 13 16  2  0
 14 16  1  0
 15 17  3  0
 16 18  1  0
M  END
