x0910_0_A-x0421_0_A
     RDKit          3D

 16 18  0  0  0  0  0  0  0  0999 V2000
   -2.7980   14.5400   -1.4240 N   0  0  1  0  0  0  0  0  0  0  0  0
   -3.1340   15.4090   -2.5490 N   0  0  0  0  0  0  0  0  0  0  0  0
   -2.8210   13.3090   -1.9570 O   0  0  0  0  0  0  0  0  0  0  0  0
   -1.4980   14.7060   -0.7710 C   0  0  0  0  0  0  0  0  0  0  0  0
   -3.7100   14.6930   -0.2490 C   0  0  0  0  0  0  0  0  0  0  0  0
   -1.4470   14.6500    0.5900 N   0  0  0  0  0  0  0  0  0  0  0  0
   -0.2900   14.9070   -1.2390 N   0  0  0  0  0  0  0  0  0  0  0  0
   -3.2360   15.1060    0.9770 C   0  0  0  0  0  0  0  0  0  0  0  0
   -5.0740   14.4520   -0.1890 N   0  0  0  0  0  0  0  0  0  0  0  0
   -0.2150   14.8200    1.0560 N   0  0  0  0  0  0  0  0  0  0  0  0
    0.4490   14.9730   -0.0900 C   0  0  0  0  0  0  0  0  0  0  0  0
   -4.2950   15.1050    1.7990 N   0  0  0  0  0  0  0  0  0  0  0  0
   -5.3750   14.7110    1.0760 C   0  0  0  0  0  0  0  0  0  0  0  0
   -6.7850   14.5780    1.6820 C   0  0  0  0  0  0  0  0  0  0  0  0
   -7.9980   14.6780    0.8040 C   0  0  0  0  0  0  0  0  0  0  0  0
   -7.6010   13.3550    1.3960 C   0  0  0  0  0  0  0  0  0  0  0  0
  1  2  1  6
  1  3  1  0
  1  4  1  0
  1  5  1  0
  4  6  1  0
  4  7  2  0
  5  8  2  0
  5  9  1  0
  6 10  1  0
  7 11  1  0
 10 11  2  0
  8 12  1  0
  9 13  2  0
 12 13  1  0
 13 14  1  0
 14 15  1  0
 14 16  1  0
 15 16  1  0
M  CHG  2   1   1   3  -1
M  END
