x0910_0_A_α-x0438_0_A_α
     RDKit          3D

 19 21  0  0  0  0  0  0  0  0999 V2000
   -2.4010   12.9900   -1.5950 N   0  0  0  0  0  0  0  0  0  0  0  0
   -1.9280   13.8350   -0.6570 C   0  0  0  0  0  0  0  0  0  0  0  0
   -2.8420   14.7780    0.1100 C   0  0  1  0  0  0  0  0  0  0  0  0
   -0.6790   13.9630   -0.3500 N   0  0  0  0  0  0  0  0  0  0  0  0
   -1.8100   15.4720    0.9210 N   0  0  0  0  0  0  0  0  0  0  0  0
   -0.6620   14.9380    0.5990 C   0  0  0  0  0  0  0  0  0  0  0  0
   -3.5520   15.4840   -1.0430 C   0  0  0  0  0  0  0  0  0  0  0  0
   -3.8210   14.1710    1.0790 C   0  0  0  0  0  0  0  0  0  0  0  0
   -5.1510   14.2900    0.9010 C   0  0  0  0  0  0  0  0  0  0  0  0
   -4.8770   15.5860   -1.2250 C   0  0  0  0  0  0  0  0  0  0  0  0
   -6.1940   13.8380    1.6580 N   0  0  0  0  0  0  0  0  0  0  0  0
   -5.7450   14.9840   -0.2370 C   0  0  0  0  0  0  0  0  0  0  0  0
   -7.0430   14.9290   -0.1620 N   0  0  0  0  0  0  0  0  0  0  0  0
   -7.2600   14.2280    1.0130 C   0  0  0  0  0  0  0  0  0  0  0  0
   -8.6450   13.9460    1.4820 C   0  0  0  0  0  0  0  0  0  0  0  0
   -9.3150   15.2260    2.5170 S   0  0  0  0  0  0  0  0  0  0  0  0
   -8.1350   15.4940    3.8280 C   0  0  0  0  0  0  0  0  0  0  0  0
  -10.5400   14.7400    3.1260 O   0  0  0  0  0  0  0  0  0  0  0  0
   -9.3740   16.4320    1.7160 O   0  0  0  0  0  0  0  0  0  0  0  0
  1  2  1  0
  2  3  1  0
  2  4  2  0
  3  5  1  0
  4  6  1  0
  5  6  2  0
  3  7  1  6
  3  8  1  0
  8  9  2  0
  7 10  2  0
  9 11  1  0
  9 12  1  0
 10 12  1  0
 12 13  2  0
 11 14  2  0
 13 14  1  0
 14 15  1  0
 16 15  1  0
 16 17  1  0
 16 18  2  0
 16 19  2  0
M  END
