x0910_0_A-x0837_0_A
     RDKit          3D

 13 14  0  0  0  0  0  0  0  0999 V2000
   -2.9870   14.4950   -1.2570 N   0  0  0  0  0  0  0  0  0  0  0  0
   -1.8740   14.6170   -0.5090 C   0  0  0  0  0  0  0  0  0  0  0  0
   -1.9330   14.5120    0.8510 N   0  0  0  0  0  0  0  0  0  0  0  0
   -4.1120   15.3470   -0.8700 C   0  0  2  0  0  0  0  0  0  0  0  0
   -0.6370   14.8480   -0.8660 N   0  0  0  0  0  0  0  0  0  0  0  0
   -3.8710   15.7080    0.5670 C   0  0  0  0  0  0  0  0  0  0  0  0
   -5.4660   14.6820   -1.1350 C   0  0  0  0  0  0  0  0  0  0  0  0
   -0.7270   14.6820    1.4080 N   0  0  0  0  0  0  0  0  0  0  0  0
    0.0210   14.8870    0.3240 C   0  0  0  0  0  0  0  0  0  0  0  0
   -4.7010   15.3960    1.5460 C   0  0  0  0  0  0  0  0  0  0  0  0
   -6.4140   14.6920    0.0470 C   0  0  0  0  0  0  0  0  0  0  0  0
   -7.6370   14.6830   -0.0730 O   0  0  0  0  0  0  0  0  0  0  0  0
   -5.8380   14.7180    1.2780 N   0  0  0  0  0  0  0  0  0  0  0  0
  1  2  1  0
  2  3  1  0
  4  1  1  1
  2  5  2  0
  4  6  1  0
  4  7  1  0
  3  8  1  0
  5  9  1  0
  8  9  2  0
  6 10  2  0
  7 11  1  0
 11 12  2  0
 10 13  1  0
 11 13  1  0
M  END
