x0910_0_A-x0926_0_A
     RDKit          3D

 12 13  0  0  0  0  0  0  0  0999 V2000
   -2.4070   13.2870   -1.7720 N   0  0  0  0  0  0  0  0  0  0  0  0
   -1.8430   14.0030   -0.7650 C   0  0  0  0  0  0  0  0  0  0  0  0
   -2.6570   14.8750    0.1720 C   0  0  1  0  0  0  0  0  0  0  0  0
   -0.5730   14.0480   -0.5120 N   0  0  0  0  0  0  0  0  0  0  0  0
   -1.5680   15.4360    0.9960 N   0  0  0  0  0  0  0  0  0  0  0  0
   -0.4720   14.9060    0.5470 C   0  0  0  0  0  0  0  0  0  0  0  0
   -3.3940   15.7180   -0.7800 N   0  0  0  0  0  0  0  0  0  0  0  0
   -3.6020   14.2260    1.0950 C   0  0  0  0  0  0  0  0  0  0  0  0
   -4.9310   14.2650    0.8790 C   0  0  0  0  0  0  0  0  0  0  0  0
   -4.5260   15.4130   -1.2030 N   0  0  0  0  0  0  0  0  0  0  0  0
   -5.4620   14.9550   -0.3200 C   0  0  0  0  0  0  0  0  0  0  0  0
   -6.6800   15.0610   -0.4610 O   0  0  0  0  0  0  0  0  0  0  0  0
  1  2  1  0
  2  3  1  0
  2  4  2  0
  3  5  1  0
  4  6  1  0
  5  6  2  0
  3  7  1  0
  3  8  1  1
  8  9  2  0
  7 10  2  0
  9 11  1  0
 10 11  1  0
 11 12  2  0
M  END
