x0910_1_A-x0574_0_A
     RDKit          3D

 17 19  0  0  0  0  0  0  0  0999 V2000
   -6.5140   14.0610    0.7990 N   0  0  0  0  0  0  0  0  0  0  0  0
   -6.8130   14.3520    2.2060 C   0  0  0  0  0  0  0  0  0  0  0  0
   -7.0610   14.9000    0.0080 C   0  0  0  0  0  0  0  0  0  0  0  0
   -5.1560   14.2070    0.4980 C   0  0  0  0  0  0  0  0  0  0  0  0
   -6.2790   15.3330   -1.0060 N   0  0  0  0  0  0  0  0  0  0  0  0
   -8.2010   15.4490   -0.0350 N   0  0  0  0  0  0  0  0  0  0  0  0
   -4.2000   14.1180    1.4410 C   0  0  0  0  0  0  0  0  0  0  0  0
   -4.7640   14.4650   -0.8340 C   0  0  0  0  0  0  0  0  0  0  0  0
   -6.8830   16.1990   -1.7600 N   0  0  0  0  0  0  0  0  0  0  0  0
   -8.0460   16.2450   -1.1360 C   0  0  0  0  0  0  0  0  0  0  0  0
   -2.8780   14.2610    1.1030 C   0  0  0  0  0  0  0  0  0  0  0  0
   -3.4280   14.6240   -1.2090 C   0  0  0  0  0  0  0  0  0  0  0  0
   -2.4820   14.5050   -0.1990 C   0  0  0  0  0  0  0  0  0  0  0  0
   -1.9040   14.1660    1.9990 N   0  0  0  0  0  0  0  0  0  0  0  0
   -0.7860   14.2960    1.4500 C   0  0  0  0  0  0  0  0  0  0  0  0
   -0.7600   14.6000   -0.2320 S   0  0  0  0  0  0  0  0  0  0  0  0
    0.2490   14.1780    2.2180 N   0  0  0  0  0  0  0  0  0  0  0  0
  1  2  1  0
  1  3  1  0
  1  4  1  0
  3  5  1  0
  3  6  2  0
  4  7  2  0
  4  8  1  0
  5  9  1  0
  6 10  1  0
  9 10  2  0
  7 11  1  0
  8 12  2  0
 11 13  2  0
 12 13  1  0
 11 14  1  0
 14 15  2  0
 13 16  1  0
 15 16  1  0
 15 17  1  0
M  END
