x0910_2_B_α-x0895_1_A_α
     RDKit          3D

 20 21  0  0  0  0  0  0  0  0999 V2000
  -13.4430   21.0280   -2.6840 N   0  0  0  0  0  0  0  0  0  0  0  0
  -13.0470   22.1140   -2.0060 C   0  0  0  0  0  0  0  0  0  0  0  0
  -11.7010   22.1810   -1.5580 N   0  0  0  0  0  0  0  0  0  0  0  0
  -13.8820   23.0790   -1.7700 N   0  0  0  0  0  0  0  0  0  0  0  0
  -11.7270   20.8750   -2.2080 C   0  0  0  0  0  0  0  0  0  0  0  0
  -11.9130   23.4420   -1.0000 N   0  0  0  0  0  0  0  0  0  0  0  0
  -13.1220   23.8970   -1.1310 C   0  0  0  0  0  0  0  0  0  0  0  0
  -11.6110   19.6700   -1.2450 C   0  0  0  0  0  0  0  0  0  0  0  0
  -10.8550   18.4410   -1.7970 C   0  0  0  0  0  0  0  0  0  0  0  0
  -10.2100   17.5270   -0.7390 C   0  0  0  0  0  0  0  0  0  0  0  0
   -8.9460   16.8570   -1.3120 C   0  0  0  0  0  0  0  0  0  0  0  0
   -8.4740   15.6230   -0.5150 C   0  0  0  0  0  0  0  0  0  0  0  0
   -7.0150   15.2270   -0.8410 C   0  0  0  0  0  0  0  0  0  0  0  0
   -6.2310   14.9200    0.3720 N   0  0  0  0  0  0  0  0  0  0  0  0
   -4.9430   14.9280    0.3600 C   0  0  0  0  0  0  0  0  0  0  0  0
   -4.2080   15.1990   -0.7470 N   0  0  0  0  0  0  0  0  0  0  0  0
   -4.0900   14.6840    1.3890 N   0  0  0  0  0  0  0  0  0  0  0  0
   -2.8870   14.6250   -0.5780 C   0  0  0  0  0  0  0  0  0  0  0  0
   -2.7880   14.6600    0.9480 C   0  0  0  0  0  0  0  0  0  0  0  0
   -1.7680   14.6680    1.6350 O   0  0  0  0  0  0  0  0  0  0  0  0
  1  2  1  0
  2  3  1  0
  2  4  2  0
  3  5  1  0
  3  6  1  0
  4  7  1  0
  6  7  2  0
  5  8  1  0
  8  9  1  0
  9 10  1  0
 10 11  1  0
 11 12  1  0
 12 13  1  0
 13 14  1  0
 14 15  2  3
 15 16  1  0
 15 17  1  0
 16 18  1  0
 17 19  1  0
 18 19  1  0
 19 20  2  0
M  END
