x0910_0_A-x0689_0_A
     RDKit          3D

  8  8  0  0  0  0  0  0  0  0999 V2000
   -2.6920   14.5510   -1.5620 N   0  0  0  0  0  0  0  0  0  0  0  0
   -1.8230   14.6940   -0.5490 C   0  0  0  0  0  0  0  0  0  0  0  0
   -2.2060   14.6710    0.7870 N   0  0  0  0  0  0  0  0  0  0  0  0
   -0.5320   14.8760   -0.6450 N   0  0  0  0  0  0  0  0  0  0  0  0
   -3.5390   14.4920    1.2700 N   0  0  0  0  0  0  0  0  0  0  0  0
   -1.1420   14.8420    1.5690 N   0  0  0  0  0  0  0  0  0  0  0  0
   -0.1650   14.9650    0.6700 C   0  0  0  0  0  0  0  0  0  0  0  0
   -4.2730   15.7390    1.2390 C   0  0  0  0  0  0  0  0  0  0  0  0
  1  2  1  0
  2  3  1  0
  2  4  2  0
  3  5  1  0
  3  6  1  0
  4  7  1  0
  6  7  2  0
  5  8  1  0
M  END
