x0910_1_A_α-x0128_0_A_α
     RDKit          3D

 16 17  0  0  0  0  0  0  0  0999 V2000
   -8.2470   13.9900    0.5580 N   0  0  0  0  0  0  0  0  0  0  0  0
   -7.0530   14.5280    0.2360 C   0  0  0  0  0  0  0  0  0  0  0  0
   -6.5240   14.7560   -0.9460 N   0  0  0  0  0  0  0  0  0  0  0  0
   -6.1740   14.9400    1.1800 N   0  0  0  0  0  0  0  0  0  0  0  0
   -6.4030   14.8650    2.5220 N   0  0  0  0  0  0  0  0  0  0  0  0
   -5.2690   15.3260   -0.7620 N   0  0  0  0  0  0  0  0  0  0  0  0
   -5.0690   15.4280    0.5380 C   0  0  0  0  0  0  0  0  0  0  0  0
   -7.6310   15.2030    3.0910 C   0  0  0  0  0  0  0  0  0  0  0  0
   -8.6630   15.3260    2.4420 O   0  0  0  0  0  0  0  0  0  0  0  0
   -7.4960   15.3930    4.4610 N   0  0  0  0  0  0  0  0  0  0  0  0
   -8.3660   16.0940    5.3350 C   0  0  0  0  0  0  0  0  0  0  0  0
   -9.0550   17.2260    4.8830 C   0  0  0  0  0  0  0  0  0  0  0  0
   -8.5930   15.7260    6.6610 C   0  0  0  0  0  0  0  0  0  0  0  0
   -9.9030   17.9710    5.6280 N   0  0  0  0  0  0  0  0  0  0  0  0
   -9.4650   16.4770    7.4550 C   0  0  0  0  0  0  0  0  0  0  0  0
  -10.0890   17.5790    6.9030 C   0  0  0  0  0  0  0  0  0  0  0  0
  1  2  1  0
  2  3  2  0
  2  4  1  0
  4  5  1  0
  3  6  1  0
  4  7  1  0
  6  7  2  0
  5  8  1  0
  8  9  2  0
  8 10  1  0
 10 11  1  0
 11 12  2  0
 11 13  1  0
 12 14  1  0
 13 15  2  0
 14 16  2  0
 15 16  1  0
M  END
