x0910_0_A_α-x0852_0_B_α
     RDKit          3D

 21 22  0  0  0  0  0  0  0  0999 V2000
   -2.7370   14.5670   -1.7660 N   0  0  0  0  0  0  0  0  0  0  0  0
   -1.9140   14.7110   -0.7160 C   0  0  0  0  0  0  0  0  0  0  0  0
   -2.3200   15.0200    0.5600 N   0  0  0  0  0  0  0  0  0  0  0  0
   -0.6070   14.5920   -0.7330 N   0  0  0  0  0  0  0  0  0  0  0  0
   -3.6560   15.2560    1.0690 C   0  0  0  0  0  0  0  0  0  0  0  0
   -1.2650   15.1000    1.3880 N   0  0  0  0  0  0  0  0  0  0  0  0
   -0.2620   14.8410    0.5590 C   0  0  0  0  0  0  0  0  0  0  0  0
   -4.0090   14.4140    2.2950 C   0  0  0  0  0  0  0  0  0  0  0  0
   -4.7990   15.1740    3.3670 C   0  0  0  0  0  0  0  0  0  0  0  0
   -6.1520   14.5300    3.7160 C   0  0  0  0  0  0  0  0  0  0  0  0
   -6.5130   14.2300    5.1960 C   0  0  0  0  0  0  0  0  0  0  0  0
   -7.6700   14.9490    5.6450 O   0  0  0  0  0  0  0  0  0  0  0  0
   -8.4300   15.4310    4.6330 C   0  0  0  0  0  0  0  0  0  0  0  0
   -8.3740   14.8450    3.3700 C   0  0  0  0  0  0  0  0  0  0  0  0
   -9.2810   16.5300    4.8580 C   0  0  0  0  0  0  0  0  0  0  0  0
   -9.4010   17.1660    6.1400 C   0  0  0  0  0  0  0  0  0  0  0  0
   -9.1410   15.3390    2.3260 C   0  0  0  0  0  0  0  0  0  0  0  0
  -10.0520   17.0260    3.7980 C   0  0  0  0  0  0  0  0  0  0  0  0
   -9.5770   17.6540    7.1830 N   0  0  0  0  0  0  0  0  0  0  0  0
   -9.9720   16.4260    2.5420 C   0  0  0  0  0  0  0  0  0  0  0  0
  -11.0030   17.0890    1.1070 Br  0  0  0  0  0  0  0  0  0  0  0  0
  1  2  1  0
  2  3  1  0
  2  4  2  0
  3  5  1  0
  3  6  1  0
  4  7  1  0
  6  7  2  0
  5  8  1  0
  8  9  1  0
  9 10  1  0
 10 11  1  0
 11 12  1  0
 12 13  1  0
 13 14  2  0
 13 15  1  0
 15 16  1  0
 14 17  1  0
 15 18  2  0
 16 19  3  0
 17 20  2  0
 18 20  1  0
 20 21  1  0
M  END
