x0910_0_A-x0910_1_A
     RDKit          3D

 13 14  0  0  0  0  0  0  0  0999 V2000
   -2.8700   14.7940   -1.7220 N   0  0  0  0  0  0  0  0  0  0  0  0
   -2.0330   14.7100   -0.6750 C   0  0  0  0  0  0  0  0  0  0  0  0
   -2.3400   15.1290    0.6060 N   0  0  0  0  0  0  0  0  0  0  0  0
   -0.8100   14.2360   -0.6920 N   0  0  0  0  0  0  0  0  0  0  0  0
   -3.5490   15.7390    1.1450 C   0  0  0  0  0  0  0  0  0  0  0  0
   -1.2890   14.9110    1.4270 N   0  0  0  0  0  0  0  0  0  0  0  0
   -0.4050   14.3770    0.5990 C   0  0  0  0  0  0  0  0  0  0  0  0
   -4.8340   15.3790    0.4850 C   0  0  0  0  0  0  0  0  0  0  0  0
   -5.1850   15.6320   -0.7890 N   0  0  0  0  0  0  0  0  0  0  0  0
   -5.8060   14.7300    1.2080 N   0  0  0  0  0  0  0  0  0  0  0  0
   -6.7860   14.5770    0.3790 C   0  0  0  0  0  0  0  0  0  0  0  0
   -6.4330   15.1120   -0.8290 N   0  0  0  0  0  0  0  0  0  0  0  0
   -7.9660   13.9970    0.6320 N   0  0  0  0  0  0  0  0  0  0  0  0
  1  2  1  0
  2  3  1  0
  2  4  2  0
  3  5  1  0
  3  6  1  0
  4  7  1  0
  6  7  2  0
  5  8  1  0
  8  9  2  0
  8 10  1  0
 10 11  2  0
  9 12  1  0
 11 12  1  0
 11 13  1  0
M  END
