x0910_1_A-x0626_0_A
     RDKit          3D

 16 17  0  0  0  0  0  0  0  0999 V2000
   -7.0210   13.9420    0.8470 N   0  0  0  0  0  0  0  0  0  0  0  0
   -8.4200   13.9210    0.4390 C   0  0  0  0  0  0  0  0  0  0  0  0
   -6.1860   12.8730    0.7150 C   0  0  0  0  0  0  0  0  0  0  0  0
   -6.1640   14.8390    0.3610 C   0  0  0  0  0  0  0  0  0  0  0  0
   -4.9050   12.9870    1.2550 N   0  0  0  0  0  0  0  0  0  0  0  0
   -6.4710   11.8490    0.1100 O   0  0  0  0  0  0  0  0  0  0  0  0
   -6.2390   15.4100   -0.8640 N   0  0  0  0  0  0  0  0  0  0  0  0
   -5.1140   15.2640    0.9870 N   0  0  0  0  0  0  0  0  0  0  0  0
   -5.2040   16.2200   -1.0540 N   0  0  0  0  0  0  0  0  0  0  0  0
   -4.5510   16.0870    0.1070 C   0  0  0  0  0  0  0  0  0  0  0  0
   -3.7530   13.5540    0.7050 C   0  0  0  0  0  0  0  0  0  0  0  0
   -2.6510   13.9460    1.3150 N   0  0  0  0  0  0  0  0  0  0  0  0
   -3.7380   13.7740   -0.9920 S   0  0  0  0  0  0  0  0  0  0  0  0
   -2.1460   14.4240   -0.8950 C   0  0  0  0  0  0  0  0  0  0  0  0
   -1.7230   14.4370    0.4210 C   0  0  0  0  0  0  0  0  0  0  0  0
   -0.4120   14.9090    0.9370 C   0  0  0  0  0  0  0  0  0  0  0  0
  1  2  1  0
  1  3  1  0
  1  4  1  0
  3  5  1  0
  3  6  2  0
  4  7  1  0
  4  8  2  0
  7  9  1  0
  8 10  1  0
  9 10  2  0
  5 11  1  0
 11 12  2  0
 11 13  1  0
 13 14  1  0
 12 15  1  0
 14 15  2  0
 15 16  1  0
M  END
