x0910_2_B_α-x0290_0_A_α
     RDKit          3D

 25 26  0  0  0  0  0  0  0  0999 V2000
  -12.7930   21.3370   -3.4550 N   0  0  0  0  0  0  0  0  0  0  0  0
  -12.7850   22.2380   -2.4600 C   0  0  0  0  0  0  0  0  0  0  0  0
  -12.4490   21.9570   -1.1810 N   0  0  0  0  0  0  0  0  0  0  0  0
  -13.0940   23.4980   -2.5420 N   0  0  0  0  0  0  0  0  0  0  0  0
  -12.0620   20.6880   -0.6060 C   0  0  0  0  0  0  0  0  0  0  0  0
  -12.5200   23.0620   -0.4010 N   0  0  0  0  0  0  0  0  0  0  0  0
  -12.9220   23.9630   -1.2790 C   0  0  0  0  0  0  0  0  0  0  0  0
  -11.6390   19.5350   -1.5220 C   0  0  0  0  0  0  0  0  0  0  0  0
  -10.7650   18.4900   -0.7980 C   0  0  0  0  0  0  0  0  0  0  0  0
  -11.3540   17.0950   -0.5720 C   0  0  0  0  0  0  0  0  0  0  0  0
  -10.8440   16.3410    0.6680 C   0  0  0  0  0  0  0  0  0  0  0  0
  -10.0600   15.0460    0.3800 C   0  0  0  0  0  0  0  0  0  0  0  0
   -8.5690   15.1890    0.7160 C   0  0  0  0  0  0  0  0  0  0  0  0
   -7.8730   13.9200    0.9150 N   0  0  0  0  0  0  0  0  0  0  0  0
   -6.6050   14.0740    1.6760 C   0  0  0  0  0  0  0  0  0  0  0  0
   -5.3560   14.4080    0.8390 C   0  0  0  0  0  0  0  0  0  0  0  0
   -5.4080   14.4140   -0.3970 O   0  0  0  0  0  0  0  0  0  0  0  0
   -4.1540   14.6960    1.4240 N   0  0  0  0  0  0  0  0  0  0  0  0
   -2.8480   14.6330    0.9260 C   0  0  0  0  0  0  0  0  0  0  0  0
   -1.7920   14.5490    1.7650 N   0  0  0  0  0  0  0  0  0  0  0  0
   -2.6810   14.6570   -0.4550 C   0  0  0  0  0  0  0  0  0  0  0  0
   -0.5520   14.4880    1.2290 C   0  0  0  0  0  0  0  0  0  0  0  0
   -1.3880   14.5930   -0.9990 C   0  0  0  0  0  0  0  0  0  0  0  0
   -1.1840   14.6180   -2.4860 C   0  0  0  0  0  0  0  0  0  0  0  0
   -0.3010   14.5070   -0.1310 C   0  0  0  0  0  0  0  0  0  0  0  0
  1  2  1  0
  2  3  1  0
  2  4  2  0
  3  5  1  0
  3  6  1  0
  4  7  1  0
  6  7  2  0
  5  8  1  0
  8  9  1  0
  9 10  1  0
 10 11  1  0
 11 12  1  0
 12 13  1  0
 13 14  1  0
 14 15  1  0
 15 16  1  0
 16 17  2  0
 16 18  1  0
 18 19  1  0
 19 20  2  0
 19 21  1  0
 20 22  1  0
 21 23  2  0
 23 24  1  0
 22 25  2  0
 23 25  1  0
M  END
