x0910_0_A_α-x0849_0_A_α
     RDKit          3D

 10 11  0  0  0  0  0  0  0  0999 V2000
   -2.3560   13.2680   -1.1740 N   0  0  0  0  0  0  0  0  0  0  0  0
   -2.1670   14.5200   -0.5270 C   0  0  1  0  0  0  0  0  0  0  0  0
   -2.1360   14.3280    0.9390 N   0  0  0  0  0  0  0  0  0  0  0  0
   -0.8120   14.9770   -0.8970 N   0  0  0  0  0  0  0  0  0  0  0  0
   -3.3240   15.3620   -0.9500 C   0  0  0  0  0  0  0  0  0  0  0  0
   -0.8460   14.5930    1.3780 N   0  0  0  0  0  0  0  0  0  0  0  0
   -0.1920   14.9700    0.2530 C   0  0  0  0  0  0  0  0  0  0  0  0
   -3.1150   14.7140    1.8050 N   0  0  0  0  0  0  0  0  0  0  0  0
   -4.2680   15.7820   -0.0970 C   0  0  0  0  0  0  0  0  0  0  0  0
   -4.1010   15.3830    1.3120 C   0  0  0  0  0  0  0  0  0  0  0  0
  2  1  1  6
  2  3  1  0
  2  4  1  0
  2  5  1  0
  3  6  1  0
  4  7  2  0
  6  7  1  0
  3  8  1  0
  5  9  2  0
  8 10  2  0
  9 10  1  0
M  END
