x0910_0_A-x0128_0_A
     RDKit          3D

 23 25  0  0  0  0  0  0  0  0999 V2000
   -2.6270   14.8140   -1.8780 N   0  0  0  0  0  0  0  0  0  0  0  0
   -1.7730   14.6220   -0.8640 C   0  0  0  0  0  0  0  0  0  0  0  0
   -1.9660   15.0240    0.4300 N   0  0  0  0  0  0  0  0  0  0  0  0
   -0.6230   14.0250   -0.9480 N   0  0  0  0  0  0  0  0  0  0  0  0
   -3.0610   15.7190    1.0250 C   0  0  0  0  0  0  0  0  0  0  0  0
   -0.9260   14.6820    1.2140 N   0  0  0  0  0  0  0  0  0  0  0  0
   -0.1560   14.0830    0.3230 C   0  0  0  0  0  0  0  0  0  0  0  0
   -4.3970   15.3740    0.4970 C   0  0  0  0  0  0  0  0  0  0  0  0
   -4.8700   15.4130   -0.8240 C   0  0  0  0  0  0  0  0  0  0  0  0
   -5.2140   14.9800    1.5080 C   0  0  0  0  0  0  0  0  0  0  0  0
   -6.1950   15.0360   -1.0760 C   0  0  0  0  0  0  0  0  0  0  0  0
   -6.4990   14.6150    1.2960 C   0  0  0  0  0  0  0  0  0  0  0  0
   -7.2600   14.2450    2.3950 N   0  0  0  0  0  0  0  0  0  0  0  0
   -7.0150   14.6330   -0.0050 C   0  0  0  0  0  0  0  0  0  0  0  0
   -8.0920   15.1080    3.0190 C   0  0  0  0  0  0  0  0  0  0  0  0
   -9.0580   15.6700    2.5120 O   0  0  0  0  0  0  0  0  0  0  0  0
   -7.7880   15.3610    4.3220 N   0  0  0  0  0  0  0  0  0  0  0  0
   -8.5060   16.0700    5.3030 C   0  0  0  0  0  0  0  0  0  0  0  0
   -9.1760   17.2280    4.9070 C   0  0  0  0  0  0  0  0  0  0  0  0
   -8.6120   15.7130    6.6460 C   0  0  0  0  0  0  0  0  0  0  0  0
   -9.9140   18.0130    5.7180 N   0  0  0  0  0  0  0  0  0  0  0  0
   -9.3670   16.5070    7.5120 C   0  0  0  0  0  0  0  0  0  0  0  0
   -9.9940   17.6360    7.0080 C   0  0  0  0  0  0  0  0  0  0  0  0
  1  2  1  0
  2  3  1  0
  2  4  2  0
  3  5  1  0
  3  6  1  0
  4  7  1  0
  6  7  2  0
  5  8  1  0
  8  9  2  0
  8 10  1  0
  9 11  1  0
 10 12  2  0
 12 13  1  0
 11 14  2  0
 12 14  1  0
 13 15  1  0
 15 16  2  0
 15 17  1  0
 17 18  1  0
 18 19  2  0
 18 20  1  0
 19 21  1  0
 20 22  2  0
 21 23  2  0
 22 23  1  0
M  END
