x0910_0_A-x0628_0_A
     RDKit          3D

 19 20  0  0  0  0  0  0  0  0999 V2000
   -2.4090   14.3930   -1.8610 N   0  0  0  0  0  0  0  0  0  0  0  0
   -1.7980   14.6040   -0.6810 C   0  0  0  0  0  0  0  0  0  0  0  0
   -2.3750   14.9190    0.4550 N   0  0  0  0  0  0  0  0  0  0  0  0
   -0.4410   14.5230   -0.4800 N   0  0  0  0  0  0  0  0  0  0  0  0
    0.6100   14.1970   -1.4220 C   0  0  0  0  0  0  0  0  0  0  0  0
   -1.3980   15.0510    1.4020 N   0  0  0  0  0  0  0  0  0  0  0  0
   -0.2530   14.8200    0.8320 C   0  0  0  0  0  0  0  0  0  0  0  0
    0.0080   13.2590   -2.3270 O   0  0  0  0  0  0  0  0  0  0  0  0
    0.8020   12.3540   -2.9480 C   0  0  0  0  0  0  0  0  0  0  0  0
    0.8690   11.1820   -2.6040 O   0  0  0  0  0  0  0  0  0  0  0  0
    1.5430   12.9590   -4.1210 C   0  0  0  0  0  0  0  0  0  0  0  0
    0.6700   13.1080   -5.3760 C   0  0  0  0  0  0  0  0  0  0  0  0
   -0.1930   11.9670   -5.6350 N   0  0  0  0  0  0  0  0  0  0  0  0
    0.1800   11.0530   -6.5450 N   0  0  0  0  0  0  0  0  0  0  0  0
   -1.4030   11.6360   -5.0740 C   0  0  0  0  0  0  0  0  0  0  0  0
   -2.1060   12.4260   -4.0360 C   0  0  0  0  0  0  0  0  0  0  0  0
   -1.8220   10.5070   -5.6140 N   0  0  0  0  0  0  0  0  0  0  0  0
   -0.8300   10.1830   -6.5010 C   0  0  0  0  0  0  0  0  0  0  0  0
   -0.8750    8.9700   -7.3370 C   0  0  0  0  0  0  0  0  0  0  0  0
  1  2  1  0
  2  3  2  0
  2  4  1  0
  4  5  1  0
  3  6  1  0
  4  7  1  0
  6  7  2  0
  5  8  1  0
  8  9  1  0
  9 10  2  0
  9 11  1  0
 11 12  1  0
 12 13  1  0
 13 14  1  0
 13 15  1  0
 15 16  1  0
 15 17  2  0
 14 18  2  0
 17 18  1  0
 18 19  1  0
M  END
