x0918_1_B-x0797_0_B
     RDKit          3D

 22 24  0  0  0  0  0  0  0  0999 V2000
   -1.3750   26.3980  -12.3180 N   0  0  0  0  0  0  0  0  0  0  0  0
   -2.4530   26.2620  -13.1580 C   0  0  0  0  0  0  0  0  0  0  0  0
   -2.2550   26.2340  -14.5140 C   0  0  0  0  0  0  0  0  0  0  0  0
   -3.7340   26.1750  -12.6790 C   0  0  0  0  0  0  0  0  0  0  0  0
   -4.7710   26.0750  -13.5690 C   0  0  0  0  0  0  0  0  0  0  0  0
   -3.3600   26.1140  -15.3360 C   0  0  0  0  0  0  0  0  0  0  0  0
   -6.0020   26.0980  -12.9710 N   0  0  0  0  0  0  0  0  0  0  0  0
   -4.6340   26.0270  -14.8990 N   0  0  0  0  0  0  0  0  0  0  0  0
   -7.1200   26.2940  -13.5350 C   0  0  0  0  0  0  0  0  0  0  0  0
   -7.2350   26.3660  -14.8740 O   0  0  0  0  0  0  0  0  0  0  0  0
   -8.3110   26.6080  -12.7250 C   0  0  1  0  0  0  0  0  0  0  0  0
   -8.6810   25.7980  -11.4940 C   0  0  0  0  0  0  0  0  0  0  0  0
   -7.7240   27.7330  -11.9110 C   0  0  1  0  0  0  0  0  0  0  0  0
   -6.7060   28.5990  -12.6730 C   0  0  0  0  0  0  0  0  0  0  0  0
   -9.1530   26.8090  -10.5340 O   0  0  0  0  0  0  0  0  0  0  0  0
   -8.9370   28.1020  -11.1540 C   0  0  0  0  0  0  0  0  0  0  0  0
   -6.9510   29.5140  -13.7340 C   0  0  0  0  0  0  0  0  0  0  0  0
   -5.3770   28.4200  -12.2540 C   0  0  0  0  0  0  0  0  0  0  0  0
   -8.3190   29.8070  -14.2830 C   0  0  0  0  0  0  0  0  0  0  0  0
   -4.3200   29.0850  -12.8380 C   0  0  0  0  0  0  0  0  0  0  0  0
   -5.8510   30.1880  -14.3170 C   0  0  0  0  0  0  0  0  0  0  0  0
   -4.5450   29.9720  -13.8740 C   0  0  0  0  0  0  0  0  0  0  0  0
  1  2  1  0
  2  3  2  0
  2  4  1  0
  4  5  2  0
  3  6  1  0
  5  7  1  0
  5  8  1  0
  6  8  2  0
  7  9  2  3
  9 10  1  0
 11  9  1  6
 11 12  1  0
 11 13  1  0
 13 14  1  6
 12 15  1  0
 13 16  1  0
 15 16  1  0
 14 17  2  0
 14 18  1  0
 17 19  1  0
 18 20  2  0
 17 21  1  0
 20 22  1  0
 21 22  2  0
M  END
