x0910_1_A-x0592_0_A
     RDKit          3D

 11 11  0  0  0  0  0  0  0  0999 V2000
   -7.9100   14.3540    1.1330 N   0  0  0  0  0  0  0  0  0  0  0  0
   -7.8010   13.9920    2.5140 C   0  0  0  0  0  0  0  0  0  0  0  0
   -7.1490   15.0620    3.1490 O   0  0  0  0  0  0  0  0  0  0  0  0
   -6.7650   14.6870    0.5060 C   0  0  0  0  0  0  0  0  0  0  0  0
   -6.7500   15.3010   -0.7170 N   0  0  0  0  0  0  0  0  0  0  0  0
   -5.5360   14.5130    0.9040 N   0  0  0  0  0  0  0  0  0  0  0  0
   -5.4960   15.5330   -1.1360 N   0  0  0  0  0  0  0  0  0  0  0  0
   -4.7680   15.0350   -0.1250 C   0  0  0  0  0  0  0  0  0  0  0  0
   -3.2950   15.0070   -0.0760 C   0  0  0  0  0  0  0  0  0  0  0  0
   -2.7730   14.9630    1.1890 N   0  0  0  0  0  0  0  0  0  0  0  0
   -2.5550   14.9990   -1.0610 O   0  0  0  0  0  0  0  0  0  0  0  0
  1  2  1  0
  2  3  1  0
  1  4  1  0
  4  5  1  0
  4  6  2  0
  5  7  1  0
  6  8  1  0
  7  8  2  0
  8  9  1  0
  9 10  1  0
  9 11  2  0
M  END
