x0910_2_B_α-x0852_0_B_α
     RDKit          3D

 20 21  0  0  0  0  0  0  0  0999 V2000
  -11.7960   21.2050   -3.0360 N   0  0  0  0  0  0  0  0  0  0  0  0
  -12.1700   22.0930   -2.0950 C   0  0  0  0  0  0  0  0  0  0  0  0
  -12.0810   23.3630   -2.3010 N   0  0  0  0  0  0  0  0  0  0  0  0
  -12.6770   21.6190   -0.8470 N   0  0  0  0  0  0  0  0  0  0  0  0
  -12.4330   20.2950   -1.4280 C   0  0  0  0  0  0  0  0  0  0  0  0
  -12.5250   23.9360   -1.2210 N   0  0  0  0  0  0  0  0  0  0  0  0
  -12.8510   22.9650   -0.4330 C   0  0  0  0  0  0  0  0  0  0  0  0
  -12.5710   19.0400   -0.5250 C   0  0  0  0  0  0  0  0  0  0  0  0
  -11.4660   18.7240    0.5050 C   0  0  0  0  0  0  0  0  0  0  0  0
  -10.6410   17.4430    0.3370 C   0  0  0  0  0  0  0  0  0  0  0  0
  -10.8660   16.5860    1.4750 O   0  0  0  0  0  0  0  0  0  0  0  0
   -9.9580   16.2060    2.4620 C   0  0  0  0  0  0  0  0  0  0  0  0
   -8.9430   15.2430    2.3560 C   0  0  0  0  0  0  0  0  0  0  0  0
  -10.1080   16.8650    3.6990 C   0  0  0  0  0  0  0  0  0  0  0  0
   -8.1110   14.9380    3.4520 C   0  0  0  0  0  0  0  0  0  0  0  0
   -9.2830   16.5630    4.8000 C   0  0  0  0  0  0  0  0  0  0  0  0
   -9.4860   17.2510    6.0470 C   0  0  0  0  0  0  0  0  0  0  0  0
   -8.2850   15.5920    4.6720 C   0  0  0  0  0  0  0  0  0  0  0  0
   -9.6840   17.7480    7.0820 N   0  0  0  0  0  0  0  0  0  0  0  0
   -7.4940   15.2950    5.7540 O   0  0  0  0  0  0  0  0  0  0  0  0
  1  2  1  0
  2  3  2  0
  2  4  1  0
  4  5  1  0
  3  6  1  0
  4  7  1  0
  6  7  2  0
  5  8  1  0
  8  9  1  0
  9 10  1  0
 10 11  1  0
 11 12  1  0
 12 13  2  0
 12 14  1  0
 13 15  1  0
 14 16  2  0
 16 17  1  0
 15 18  2  0
 16 18  1  0
 17 19  3  0
 18 20  1  0
M  END
