x0910_1_A_α-x0465_0_A_α
     RDKit          3D

 23 24  0  0  0  0  0  0  0  0999 V2000
   -7.7910   14.2700    0.9530 N   0  0  0  0  0  0  0  0  0  0  0  0
   -6.6060   14.6780    0.4770 C   0  0  0  0  0  0  0  0  0  0  0  0
   -6.4330   15.2810   -0.7420 N   0  0  0  0  0  0  0  0  0  0  0  0
   -5.4480   14.5830    1.0630 N   0  0  0  0  0  0  0  0  0  0  0  0
   -5.1370   15.5860   -0.9570 N   0  0  0  0  0  0  0  0  0  0  0  0
   -4.5680   15.1360    0.1760 C   0  0  0  0  0  0  0  0  0  0  0  0
   -3.1060   15.2030    0.4850 C   0  0  0  0  0  0  0  0  0  0  0  0
   -2.2210   14.4450   -0.5330 C   0  0  0  0  0  0  0  0  0  0  0  0
   -0.7160   14.2970   -0.1970 C   0  0  0  0  0  0  0  0  0  0  0  0
    0.2100   13.9120   -1.3740 C   0  0  0  0  0  0  0  0  0  0  0  0
    0.2960   12.4560   -1.5620 N   0  0  0  0  0  0  0  0  0  0  0  0
    0.4650   11.8750   -2.7190 C   0  0  0  0  0  0  0  0  0  0  0  0
    0.6190   12.4370   -4.1670 C   0  0  1  0  0  0  0  0  0  0  0  0
    0.4970   10.5200   -2.6180 O   0  0  0  0  0  0  0  0  0  0  0  0
    1.9810   13.1400   -4.3020 C   0  0  0  0  0  0  0  0  0  0  0  0
    0.6230   11.4660   -5.2360 O   0  0  0  0  0  0  0  0  0  0  0  0
   -0.5400   10.7910   -5.5360 C   0  0  0  0  0  0  0  0  0  0  0  0
   -0.6550    9.8110   -6.5360 C   0  0  0  0  0  0  0  0  0  0  0  0
   -1.6640   11.1170   -4.7810 C   0  0  0  0  0  0  0  0  0  0  0  0
    0.3850    9.4540   -7.3010 F   0  0  0  0  0  0  0  0  0  0  0  0
   -1.8690    9.1700   -6.7710 C   0  0  0  0  0  0  0  0  0  0  0  0
   -2.8850   10.4740   -5.0170 C   0  0  0  0  0  0  0  0  0  0  0  0
   -2.9850    9.5000   -6.0100 C   0  0  0  0  0  0  0  0  0  0  0  0
  1  2  1  0
  2  3  1  0
  2  4  2  0
  3  5  1  0
  4  6  1  0
  5  6  2  0
  6  7  1  0
  7  8  1  0
  8  9  1  0
  9 10  1  0
 10 11  1  0
 11 12  2  3
 12 13  1  0
 12 14  1  0
 13 15  1  1
 13 16  1  0
 16 17  1  0
 17 18  2  0
 17 19  1  0
 18 20  1  0
 18 21  1  0
 19 22  2  0
 21 23  2  0
 22 23  1  0
M  END
