x0910_0_A-x0864_0_A
     RDKit          3D

 19 20  0  0  0  0  0  0  0  0999 V2000
   -2.2240   14.4610   -1.8870 N   0  0  0  0  0  0  0  0  0  0  0  0
   -1.6990   14.5630   -0.6520 C   0  0  0  0  0  0  0  0  0  0  0  0
   -2.2960   15.0640    0.4060 N   0  0  0  0  0  0  0  0  0  0  0  0
   -0.4370   14.1590   -0.2930 N   0  0  0  0  0  0  0  0  0  0  0  0
    0.6340   13.5310   -1.0510 C   0  0  0  0  0  0  0  0  0  0  0  0
   -1.4280   14.9950    1.4550 N   0  0  0  0  0  0  0  0  0  0  0  0
   -0.3330   14.4520    1.0330 C   0  0  0  0  0  0  0  0  0  0  0  0
    0.5950   13.7450   -2.4740 N   0  0  0  0  0  0  0  0  0  0  0  0
    0.6150   12.7570   -3.2930 C   0  0  0  0  0  0  0  0  0  0  0  0
    0.5840   12.8200   -4.7980 C   0  0  0  0  0  0  0  0  0  0  0  0
    0.6700   11.4980   -2.7870 O   0  0  0  0  0  0  0  0  0  0  0  0
   -0.0500   11.6670   -5.4130 N   0  0  0  0  0  0  0  0  0  0  0  0
   -1.2580   11.1800   -4.9510 C   0  0  0  0  0  0  0  0  0  0  0  0
    0.5310   11.2120   -6.5750 C   0  0  0  0  0  0  0  0  0  0  0  0
    1.5520   11.6830   -7.0360 O   0  0  0  0  0  0  0  0  0  0  0  0
   -1.8770   10.1770   -5.5870 C   0  0  0  0  0  0  0  0  0  0  0  0
   -0.1290   10.0780   -7.2480 C   0  0  0  0  0  0  0  0  0  0  0  0
   -1.2720    9.5920   -6.7620 C   0  0  0  0  0  0  0  0  0  0  0  0
   -2.1470    8.1590   -7.5690 Br  0  0  0  0  0  0  0  0  0  0  0  0
  1  2  1  0
  2  3  2  0
  2  4  1  0
  4  5  1  0
  3  6  1  0
  4  7  1  0
  6  7  2  0
  5  8  1  0
  8  9  2  3
  9 10  1  0
  9 11  1  0
 10 12  1  0
 12 13  1  0
 12 14  1  0
 14 15  2  0
 13 16  2  0
 14 17  1  0
 16 18  1  0
 17 18  2  0
 18 19  1  0
M  END
