x0910_0_A_α-x0926_0_A_α
     RDKit          3D

 12 13  0  0  0  0  0  0  0  0999 V2000
   -2.4130   13.2560   -1.7590 N   0  0  0  0  0  0  0  0  0  0  0  0
   -1.8440   13.9810   -0.7610 C   0  0  0  0  0  0  0  0  0  0  0  0
   -2.6540   14.8580    0.1730 C   0  0  1  0  0  0  0  0  0  0  0  0
   -0.5750   14.0280   -0.5150 N   0  0  0  0  0  0  0  0  0  0  0  0
   -1.5630   15.4250    0.9920 N   0  0  0  0  0  0  0  0  0  0  0  0
   -0.4710   14.8930    0.5400 C   0  0  0  0  0  0  0  0  0  0  0  0
   -3.3780   15.7060   -0.7850 N   0  0  0  0  0  0  0  0  0  0  0  0
   -3.6090   14.2120    1.0880 C   0  0  0  0  0  0  0  0  0  0  0  0
   -4.9370   14.2620    0.8600 C   0  0  0  0  0  0  0  0  0  0  0  0
   -4.5080   15.4040   -1.2190 N   0  0  0  0  0  0  0  0  0  0  0  0
   -5.4530   14.9610   -0.3380 C   0  0  0  0  0  0  0  0  0  0  0  0
   -6.6660   15.0920   -0.4840 O   0  0  0  0  0  0  0  0  0  0  0  0
  1  2  1  0
  2  3  1  0
  2  4  2  0
  3  5  1  0
  4  6  1  0
  5  6  2  0
  3  7  1  0
  3  8  1  1
  8  9  2  0
  7 10  2  0
  9 11  1  0
 10 11  1  0
 11 12  2  0
M  END
