x0918_4_B-x0905_1_B
     RDKit          3D

  7  7  0  0  0  0  0  0  0  0999 V2000
   13.5270   23.3470   13.5700 N   0  0  0  0  0  0  0  0  0  0  0  0
   13.2560   21.9940   13.3520 C   0  0  0  0  0  0  0  0  0  0  0  0
   14.0590   21.2330   12.5140 C   0  0  0  0  0  0  0  0  0  0  0  0
   12.1760   21.3860   13.9720 C   0  0  0  0  0  0  0  0  0  0  0  0
   11.9410   20.0410   13.7310 C   0  0  0  0  0  0  0  0  0  0  0  0
   13.7490   19.8940   12.3310 C   0  0  0  0  0  0  0  0  0  0  0  0
   12.7050   19.2820   12.9270 N   0  0  0  0  0  0  0  0  0  0  0  0
  1  2  1  0
  2  3  2  0
  2  4  1  0
  4  5  2  0
  3  6  1  0
  5  7  1  0
  6  7  2  0
M  END
