x0910_1_A_α-x0685_1_A_α
     RDKit          3D

 23 24  0  0  0  0  0  0  0  0999 V2000
   -7.9000   14.0220    1.3090 N   0  0  0  0  0  0  0  0  0  0  0  0
   -6.8530   14.5320    0.6510 C   0  0  0  0  0  0  0  0  0  0  0  0
   -6.9190   14.9970   -0.6340 N   0  0  0  0  0  0  0  0  0  0  0  0
   -5.6380   14.6740    1.0960 N   0  0  0  0  0  0  0  0  0  0  0  0
   -5.7260   15.4540   -1.0460 N   0  0  0  0  0  0  0  0  0  0  0  0
   -4.9800   15.2340    0.0420 C   0  0  0  0  0  0  0  0  0  0  0  0
   -3.5520   15.5770    0.0960 C   0  0  0  0  0  0  0  0  0  0  0  0
   -2.5760   14.4270    0.3870 C   0  0  0  0  0  0  0  0  0  0  0  0
   -1.1830   14.6290   -0.2560 C   0  0  0  0  0  0  0  0  0  0  0  0
   -0.3690   13.3780   -0.5360 C   0  0  0  0  0  0  0  0  0  0  0  0
    0.3320   13.5310   -1.7690 O   0  0  0  0  0  0  0  0  0  0  0  0
    0.7290   12.2770   -2.7080 S   0  0  0  0  0  0  0  0  0  0  0  0
    0.0000   12.5770   -4.3120 C   0  0  0  0  0  0  0  0  0  0  0  0
    2.3040   12.2890   -3.0050 O   0  0  0  0  0  0  0  0  0  0  0  0
    0.2420   10.8190   -2.2040 O   0  0  0  0  0  0  0  0  0  0  0  0
   -1.4210   12.0340   -4.4610 C   0  0  0  0  0  0  0  0  0  0  0  0
   -1.4350   10.6340   -4.8810 N   0  0  0  0  0  0  0  0  0  0  0  0
   -0.8480   10.2970   -6.1900 C   0  0  0  0  0  0  0  0  0  0  0  0
   -0.5990    8.8100   -6.4800 C   0  0  0  0  0  0  0  0  0  0  0  0
   -1.5740   10.9780   -7.3710 C   0  0  0  0  0  0  0  0  0  0  0  0
    0.0650    8.5570   -7.8300 C   0  0  0  0  0  0  0  0  0  0  0  0
   -0.9540   10.6890   -8.7370 C   0  0  0  0  0  0  0  0  0  0  0  0
   -0.7400    9.1930   -8.9590 C   0  0  0  0  0  0  0  0  0  0  0  0
  1  2  1  0
  2  3  1  0
  2  4  2  0
  3  5  1  0
  4  6  1  0
  5  6  2  0
  6  7  1  0
  7  8  1  0
  8  9  1  0
  9 10  1  0
 10 11  1  0
 12 11  1  0
 12 13  1  0
 12 14  1  0
 12 15  1  0
 13 16  1  0
 16 17  1  0
 17 18  1  0
 18 19  1  0
 18 20  1  0
 19 21  1  0
 20 22  1  0
 21 23  1  0
 22 23  1  0
M  END
