x0918_1_B-x0228_0_B
     RDKit          3D

 18 19  0  0  0  0  0  0  0  0999 V2000
   -1.7300   25.1390  -11.6990 N   0  0  0  0  0  0  0  0  0  0  0  0
   -2.7530   25.5310  -12.5280 C   0  0  0  0  0  0  0  0  0  0  0  0
   -2.3470   26.1850  -13.6750 C   0  0  0  0  0  0  0  0  0  0  0  0
   -4.1200   25.2980  -12.2740 C   0  0  0  0  0  0  0  0  0  0  0  0
   -4.5920   24.5610  -11.0250 C   0  0  0  0  0  0  0  0  0  0  0  0
   -5.0260   25.7910  -13.2470 C   0  0  0  0  0  0  0  0  0  0  0  0
   -3.2870   26.6080  -14.5730 C   0  0  0  0  0  0  0  0  0  0  0  0
   -6.4150   25.6400  -13.0450 N   0  0  0  0  0  0  0  0  0  0  0  0
   -4.6120   26.4260  -14.3790 N   0  0  0  0  0  0  0  0  0  0  0  0
   -2.8230   27.2970  -15.8100 C   0  0  0  0  0  0  0  0  0  0  0  0
   -7.4030   25.0040  -13.7470 C   0  0  0  0  0  0  0  0  0  0  0  0
   -8.0500   25.7080  -14.7220 N   0  0  0  0  0  0  0  0  0  0  0  0
   -7.6730   23.8480  -13.4460 O   0  0  0  0  0  0  0  0  0  0  0  0
   -9.3470   25.4400  -14.9910 N   0  0  0  0  0  0  0  0  0  0  0  0
   -9.8240   24.4300  -15.7620 C   0  0  0  0  0  0  0  0  0  0  0  0
  -10.4210   26.1360  -14.5380 C   0  0  0  0  0  0  0  0  0  0  0  0
  -11.1390   24.4970  -15.7880 N   0  0  0  0  0  0  0  0  0  0  0  0
  -11.5170   25.5800  -15.0100 N   0  0  0  0  0  0  0  0  0  0  0  0
  1  2  1  0
  2  3  2  0
  2  4  1  0
  4  5  1  0
  4  6  2  0
  3  7  1  0
  6  8  1  0
  6  9  1  0
  7  9  2  0
  7 10  1  0
  8 11  1  0
 11 12  1  0
 11 13  2  0
 12 14  1  0
 14 15  1  0
 14 16  1  0
 15 17  2  0
 16 18  2  0
 17 18  1  0
M  END
