x0910_0_A_α-x0592_0_A_α
     RDKit          3D

 16 17  0  0  0  0  0  0  0  0999 V2000
   -2.7840   14.5540   -0.9100 N   0  0  0  0  0  0  0  0  0  0  0  0
   -3.6950   14.8400   -0.0500 C   0  0  0  0  0  0  0  0  0  0  0  0
   -3.3680   15.2080    1.2420 N   0  0  0  0  0  0  0  0  0  0  0  0
   -1.5620   14.6680   -0.4320 C   0  0  0  0  0  0  0  0  0  0  0  0
   -1.4050   14.5600    0.9170 N   0  0  0  0  0  0  0  0  0  0  0  0
   -0.4060   14.8830   -0.9820 N   0  0  0  0  0  0  0  0  0  0  0  0
   -5.1020   14.8470   -0.2110 C   0  0  0  0  0  0  0  0  0  0  0  0
   -0.1400   14.7120    1.2780 N   0  0  0  0  0  0  0  0  0  0  0  0
    0.4240   14.9100    0.0840 C   0  0  0  0  0  0  0  0  0  0  0  0
   -5.9250   15.1330   -1.3220 C   0  0  0  0  0  0  0  0  0  0  0  0
   -5.9730   14.5490    0.7940 C   0  0  0  0  0  0  0  0  0  0  0  0
   -7.2230   15.0210   -1.0270 N   0  0  0  0  0  0  0  0  0  0  0  0
   -7.2110   14.6670    0.2720 N   0  0  0  0  0  0  0  0  0  0  0  0
   -8.4220   14.4450    1.0100 C   0  0  0  0  0  0  0  0  0  0  0  0
   -8.0990   14.0690    2.4520 C   0  0  0  0  0  0  0  0  0  0  0  0
   -7.2610   15.0550    3.0610 O   0  0  0  0  0  0  0  0  0  0  0  0
  1  2  2  3
  2  3  1  0
  1  4  1  0
  4  5  1  0
  4  6  2  0
  2  7  1  0
  5  8  1  0
  6  9  1  0
  8  9  2  0
  7 10  1  0
  7 11  2  0
 10 12  2  0
 11 13  1  0
 12 13  1  0
 13 14  1  0
 14 15  1  0
 15 16  1  0
M  END
