x0910_0_A-x0962_0_A
     RDKit          3D

 12 13  0  0  0  0  0  0  0  0999 V2000
   -2.9360   14.5700   -1.3170 N   0  0  0  0  0  0  0  0  0  0  0  0
   -1.7300   14.6980   -0.5430 C   0  0  0  0  0  0  0  0  0  0  0  0
   -1.6210   14.6240    0.8960 N   0  0  0  0  0  0  0  0  0  0  0  0
   -2.9660   15.1410   -2.6550 N   0  0  0  0  0  0  0  0  0  0  0  0
   -4.0990   14.4700   -0.4550 C   0  0  1  0  0  0  0  0  0  0  0  0
   -0.3820   14.9310   -1.0390 N   0  0  0  0  0  0  0  0  0  0  0  0
   -3.9290   14.9620    0.9120 N   0  0  0  0  0  0  0  0  0  0  0  0
   -5.3080   15.2740   -0.8630 C   0  0  0  0  0  0  0  0  0  0  0  0
   -0.3670   14.7910    1.3160 N   0  0  0  0  0  0  0  0  0  0  0  0
    0.3110   14.9710    0.1670 C   0  0  0  0  0  0  0  0  0  0  0  0
   -5.2750   14.7610    1.4140 C   0  0  0  0  0  0  0  0  0  0  0  0
   -6.1580   15.0070    0.2900 N   0  0  0  0  0  0  0  0  0  0  0  0
  1  2  1  0
  2  3  1  0
  1  4  2  0
  5  1  1  6
  2  6  2  0
  5  7  1  0
  5  8  1  0
  3  9  1  0
  6 10  1  0
  9 10  2  0
  7 11  1  0
  8 12  1  0
 11 12  1  0
M  CHG  2   1   1   4  -1
M  END
