x0910_1_A-x1018_0_A
     RDKit          3D

 10 11  0  0  0  0  0  0  0  0999 V2000
   -7.9260   13.9380    0.9840 N   0  0  0  0  0  0  0  0  0  0  0  0
   -6.7210   14.3790    0.5780 C   0  0  0  0  0  0  0  0  0  0  0  0
   -6.2730   14.1970   -0.6240 N   0  0  0  0  0  0  0  0  0  0  0  0
   -5.9330   15.0690    1.4510 N   0  0  0  0  0  0  0  0  0  0  0  0
   -4.9440   14.8230   -0.5750 C   0  0  2  0  0  0  0  0  0  0  0  0
   -4.8920   15.3960    0.7700 C   0  0  0  0  0  0  0  0  0  0  0  0
   -4.6090   15.7190   -1.6610 N   0  0  0  0  0  0  0  0  0  0  0  0
   -3.8720   13.8520   -0.7200 C   0  0  0  0  0  0  0  0  0  0  0  0
   -3.0200   14.1880   -1.6090 N   0  0  0  0  0  0  0  0  0  0  0  0
   -3.4870   15.4030   -2.1410 N   0  0  0  0  0  0  0  0  0  0  0  0
  1  2  1  0
  2  3  2  0
  2  4  1  0
  5  3  1  0
  4  6  2  0
  5  6  1  1
  5  7  1  0
  5  8  1  0
  8  9  2  0
  7 10  2  0
  9 10  1  0
M  END
