x0910_0_A_α-x0962_3_A_α
     RDKit          3D

 19 20  0  0  0  0  0  0  0  0999 V2000
   -2.3390   14.5080   -1.8940 N   0  0  0  0  0  0  0  0  0  0  0  0
   -1.7340   14.6480   -0.7070 C   0  0  0  0  0  0  0  0  0  0  0  0
   -2.3200   14.6420    0.4720 N   0  0  0  0  0  0  0  0  0  0  0  0
   -0.3870   14.8310   -0.5240 N   0  0  0  0  0  0  0  0  0  0  0  0
    0.7080   14.9220   -1.4700 C   0  0  0  0  0  0  0  0  0  0  0  0
   -1.3610   14.8200    1.4320 N   0  0  0  0  0  0  0  0  0  0  0  0
   -0.2140   14.9350    0.8220 C   0  0  0  0  0  0  0  0  0  0  0  0
    0.9480   13.7050   -2.3580 C   0  0  0  0  0  0  0  0  0  0  0  0
    1.8680   14.0230   -3.5590 C   0  0  0  0  0  0  0  0  0  0  0  0
    1.2110   13.9010   -4.9350 C   0  0  0  0  0  0  0  0  0  0  0  0
    1.5740   12.5920   -5.6220 C   0  0  0  0  0  0  0  0  0  0  0  0
    0.5050   12.0290   -6.5640 C   0  0  0  0  0  0  0  0  0  0  0  0
    0.9520   10.9310   -7.5600 C   0  0  2  0  0  0  0  0  0  0  0  0
    0.9830   11.4010   -8.9280 N   0  0  0  0  0  0  0  0  0  0  0  0
    0.0090    9.8190   -7.5640 C   0  0  0  0  0  0  0  0  0  0  0  0
    0.2180    8.6360   -8.2220 N   0  0  0  0  0  0  0  0  0  0  0  0
   -1.2160    9.6930   -6.9660 C   0  0  0  0  0  0  0  0  0  0  0  0
   -0.8750    7.8570   -7.9940 C   0  0  0  0  0  0  0  0  0  0  0  0
   -1.7610    8.4730   -7.2360 N   0  0  0  0  0  0  0  0  0  0  0  0
  1  2  1  0
  2  3  2  0
  2  4  1  0
  4  5  1  0
  3  6  1  0
  4  7  1  0
  6  7  2  0
  5  8  1  0
  8  9  1  0
  9 10  1  0
 10 11  1  0
 11 12  1  0
 12 13  1  0
 13 14  1  6
 13 15  1  0
 15 16  1  0
 15 17  2  0
 16 18  1  0
 17 19  1  0
 18 19  2  0
M  END
