x0910_2_B_α-x0967_0_A_α
     RDKit          3D

 22 24  0  0  0  0  0  0  0  0999 V2000
  -13.3540   21.5430   -3.4690 N   0  0  0  0  0  0  0  0  0  0  0  0
  -13.2140   22.3820   -2.4250 C   0  0  0  0  0  0  0  0  0  0  0  0
  -12.4090   22.1060   -1.3820 N   0  0  0  0  0  0  0  0  0  0  0  0
  -13.7880   23.5330   -2.2320 N   0  0  0  0  0  0  0  0  0  0  0  0
  -11.6340   20.9090   -1.2570 C   0  0  0  0  0  0  0  0  0  0  0  0
  -12.4200   23.0980   -0.4620 N   0  0  0  0  0  0  0  0  0  0  0  0
  -13.2790   23.9370   -1.0280 C   0  0  0  0  0  0  0  0  0  0  0  0
  -12.3130   19.5420   -1.1050 C   0  0  0  0  0  0  0  0  0  0  0  0
  -11.4160   18.3950   -1.6380 C   0  0  0  0  0  0  0  0  0  0  0  0
  -10.6890   17.5290   -0.5930 C   0  0  0  0  0  0  0  0  0  0  0  0
   -9.6010   16.6220   -1.2070 C   0  0  0  0  0  0  0  0  0  0  0  0
   -9.4440   15.2350   -0.5210 C   0  0  0  0  0  0  0  0  0  0  0  0
   -8.0160   15.0270   -0.0700 C   0  0  0  0  0  0  0  0  0  0  0  0
   -7.0810   15.1040   -1.0440 N   0  0  0  0  0  0  0  0  0  0  0  0
   -7.6790   14.7930    1.2480 C   0  0  0  0  0  0  0  0  0  0  0  0
   -5.7840   14.9770   -0.7680 C   0  0  0  0  0  0  0  0  0  0  0  0
   -6.3370   14.6580    1.5530 C   0  0  0  0  0  0  0  0  0  0  0  0
   -5.3550   14.7540    0.5420 C   0  0  0  0  0  0  0  0  0  0  0  0
   -4.9210   15.0720   -1.7740 N   0  0  0  0  0  0  0  0  0  0  0  0
   -3.6030   14.9600   -1.5200 C   0  0  0  0  0  0  0  0  0  0  0  0
   -3.9720   14.6400    0.7910 C   0  0  0  0  0  0  0  0  0  0  0  0
   -3.0800   14.7470   -0.2670 C   0  0  0  0  0  0  0  0  0  0  0  0
  1  2  1  0
  2  3  1  0
  2  4  2  0
  3  5  1  0
  3  6  1  0
  4  7  1  0
  6  7  2  0
  5  8  1  0
  8  9  1  0
  9 10  1  0
 10 11  1  0
 11 12  1  0
 12 13  1  0
 13 14  2  0
 13 15  1  0
 14 16  1  0
 15 17  2  0
 16 18  2  0
 17 18  1  0
 16 19  1  0
 19 20  2  0
 18 21  1  0
 20 22  1  0
 21 22  2  0
M  END
