x0910_0_A_α-x0662_0_A_β
     RDKit          3D

 19 20  0  0  0  0  0  0  0  0999 V2000
   -2.9920   14.4790   -1.5730 N   0  0  0  0  0  0  0  0  0  0  0  0
   -2.0600   14.6500   -0.6230 C   0  0  0  0  0  0  0  0  0  0  0  0
   -2.2210   14.8710    0.6670 N   0  0  0  0  0  0  0  0  0  0  0  0
   -0.7250   14.6140   -0.9090 N   0  0  0  0  0  0  0  0  0  0  0  0
   -0.0920   14.3920   -2.1960 C   0  0  0  0  0  0  0  0  0  0  0  0
   -0.9720   14.9840    1.2370 N   0  0  0  0  0  0  0  0  0  0  0  0
   -0.0910   14.8330    0.2780 C   0  0  0  0  0  0  0  0  0  0  0  0
   -0.7740   13.3360   -3.0940 C   0  0  0  0  0  0  0  0  0  0  0  0
    0.1430   12.1690   -3.4750 C   0  0  0  0  0  0  0  0  0  0  0  0
   -0.3800   11.3890   -4.6040 N   0  0  0  0  0  0  0  0  0  0  0  0
    0.3010   11.4230   -5.7020 C   0  0  0  0  0  0  0  0  0  0  0  0
    1.3340   12.0830   -5.8950 O   0  0  0  0  0  0  0  0  0  0  0  0
    0.0280   10.6590   -6.9690 C   0  0  0  0  0  0  0  0  0  0  0  0
    0.8190   10.9300   -8.0800 C   0  0  0  0  0  0  0  0  0  0  0  0
   -0.9800    9.6910   -7.0580 C   0  0  0  0  0  0  0  0  0  0  0  0
    0.6390   10.2650   -9.2900 C   0  0  0  0  0  0  0  0  0  0  0  0
   -1.1730    9.0110   -8.2660 C   0  0  0  0  0  0  0  0  0  0  0  0
    1.4510   10.5650  -10.3940 N   0  0  0  0  0  0  0  0  0  0  0  0
   -0.3650    9.3000   -9.3740 C   0  0  0  0  0  0  0  0  0  0  0  0
  1  2  1  0
  2  3  2  0
  2  4  1  0
  4  5  1  0
  3  6  1  0
  4  7  1  0
  6  7  2  0
  5  8  1  0
  8  9  1  0
  9 10  1  0
 10 11  2  3
 11 12  1  0
 11 13  1  0
 13 14  2  0
 13 15  1  0
 14 16  1  0
 15 17  2  0
 16 18  1  0
 16 19  2  0
 17 19  1  0
M  CHG  1  12  -1
M  END
