x0910_1_A-x0628_0_A
     RDKit          3D

 21 22  0  0  0  0  0  0  0  0999 V2000
   -7.5890   14.3650    1.1500 N   0  0  0  0  0  0  0  0  0  0  0  0
   -6.4990   14.6140    0.4230 C   0  0  0  0  0  0  0  0  0  0  0  0
   -6.3610   14.4240   -0.8850 N   0  0  0  0  0  0  0  0  0  0  0  0
   -5.3980   15.1080    1.0500 N   0  0  0  0  0  0  0  0  0  0  0  0
   -5.0840   14.8210   -1.0820 N   0  0  0  0  0  0  0  0  0  0  0  0
   -4.5230   15.2360    0.0820 C   0  0  0  0  0  0  0  0  0  0  0  0
   -4.4750   14.7630   -2.4040 C   0  0  0  0  0  0  0  0  0  0  0  0
   -4.6760   13.3960   -3.1060 C   0  0  0  0  0  0  0  0  0  0  0  0
   -3.4270   12.4800   -3.2180 C   0  0  0  0  0  0  0  0  0  0  0  0
   -2.3140   12.9790   -4.1690 C   0  0  0  0  0  0  0  0  0  0  0  0
   -1.6120   11.9620   -5.0390 C   0  0  0  0  0  0  0  0  0  0  0  0
   -2.0860   10.7990   -5.4810 N   0  0  0  0  0  0  0  0  0  0  0  0
   -0.3290   12.1060   -5.5270 N   0  0  0  0  0  0  0  0  0  0  0  0
    0.6200   13.1930   -5.3390 C   0  0  0  0  0  0  0  0  0  0  0  0
   -1.0500   10.2860   -6.2300 C   0  0  0  0  0  0  0  0  0  0  0  0
    0.0340   11.0570   -6.2820 N   0  0  0  0  0  0  0  0  0  0  0  0
   -1.1110    8.9870   -6.9310 C   0  0  0  0  0  0  0  0  0  0  0  0
    1.6640   12.9380   -4.2560 C   0  0  0  0  0  0  0  0  0  0  0  0
    1.0660   12.2950   -3.0320 C   0  0  0  0  0  0  0  0  0  0  0  0
    0.6210   11.1630   -2.9290 O   0  0  0  0  0  0  0  0  0  0  0  0
    1.0630   13.1230   -1.9750 O   0  0  0  0  0  0  0  0  0  0  0  0
  1  2  1  0
  2  3  2  0
  2  4  1  0
  3  5  1  0
  4  6  2  0
  5  6  1  0
  5  7  1  0
  7  8  1  0
  8  9  1  0
  9 10  1  0
 10 11  1  0
 11 12  2  0
 11 13  1  0
 13 14  1  0
 12 15  1  0
 13 16  1  0
 15 16  2  0
 15 17  1  0
 14 18  1  0
 18 19  1  0
 19 20  2  0
 19 21  1  0
M  END
