x0910_0_A_α-x0465_0_A_α
     RDKit          3D

 20 21  0  0  0  0  0  0  0  0999 V2000
   -2.2590   14.3920   -1.9850 N   0  0  0  0  0  0  0  0  0  0  0  0
   -1.7610   14.5260   -0.7450 C   0  0  0  0  0  0  0  0  0  0  0  0
   -2.3680   15.0260    0.3080 N   0  0  0  0  0  0  0  0  0  0  0  0
   -0.4920   14.1410   -0.3790 N   0  0  0  0  0  0  0  0  0  0  0  0
    0.5920   13.5220   -1.1380 C   0  0  0  0  0  0  0  0  0  0  0  0
   -1.5000   14.9810    1.3660 N   0  0  0  0  0  0  0  0  0  0  0  0
   -0.3930   14.4540    0.9430 C   0  0  0  0  0  0  0  0  0  0  0  0
    0.5850   13.6240   -2.5830 N   0  0  0  0  0  0  0  0  0  0  0  0
    0.6400   12.5270   -3.2680 C   0  0  0  0  0  0  0  0  0  0  0  0
    0.6750   12.5940   -4.7940 C   0  0  1  0  0  0  0  0  0  0  0  0
    0.6810   11.2840   -2.7240 O   0  0  0  0  0  0  0  0  0  0  0  0
    2.0490   13.1420   -5.1270 C   0  0  0  0  0  0  0  0  0  0  0  0
    0.5670   11.3730   -5.5020 O   0  0  0  0  0  0  0  0  0  0  0  0
   -0.6450   10.7650   -5.6290 C   0  0  0  0  0  0  0  0  0  0  0  0
   -0.7080    9.7370   -6.5810 C   0  0  0  0  0  0  0  0  0  0  0  0
   -1.7950   11.0790   -4.9040 C   0  0  0  0  0  0  0  0  0  0  0  0
    0.3710    9.4060   -7.3040 F   0  0  0  0  0  0  0  0  0  0  0  0
   -1.8840    9.0320   -6.8030 C   0  0  0  0  0  0  0  0  0  0  0  0
   -2.9790   10.3700   -5.1280 C   0  0  0  0  0  0  0  0  0  0  0  0
   -3.0260    9.3480   -6.0750 C   0  0  0  0  0  0  0  0  0  0  0  0
  1  2  1  0
  2  3  2  0
  2  4  1  0
  4  5  1  0
  3  6  1  0
  4  7  1  0
  6  7  2  0
  5  8  1  0
  8  9  2  3
  9 10  1  0
  9 11  1  0
 10 12  1  1
 10 13  1  0
 13 14  1  0
 14 15  2  0
 14 16  1  0
 15 17  1  0
 15 18  1  0
 16 19  2  0
 18 20  2  0
 19 20  1  0
M  END
