x0918_1_B_α-x0228_0_B_β
     RDKit          3D

 10 10  0  0  0  0  0  0  0  0999 V2000
   -1.6550   25.1180  -11.4400 N   0  0  0  0  0  0  0  0  0  0  0  0
   -2.6110   25.4470  -12.3890 C   0  0  0  0  0  0  0  0  0  0  0  0
   -2.1800   26.1560  -13.5000 C   0  0  0  0  0  0  0  0  0  0  0  0
   -3.9660   25.0880  -12.2630 C   0  0  0  0  0  0  0  0  0  0  0  0
   -4.4510   24.3060  -11.0520 C   0  0  0  0  0  0  0  0  0  0  0  0
   -4.8160   25.4940  -13.3130 C   0  0  0  0  0  0  0  0  0  0  0  0
   -3.0840   26.4980  -14.4740 C   0  0  0  0  0  0  0  0  0  0  0  0
   -6.1830   25.2240  -13.3420 N   0  0  0  0  0  0  0  0  0  0  0  0
   -4.3930   26.1810  -14.3960 N   0  0  0  0  0  0  0  0  0  0  0  0
   -2.6140   27.2470  -15.6740 C   0  0  0  0  0  0  0  0  0  0  0  0
  1  2  1  0
  2  3  2  0
  2  4  1  0
  4  5  1  0
  4  6  2  0
  3  7  1  0
  6  8  1  0
  6  9  1  0
  7  9  2  0
  7 10  1  0
M  END
