x0910_0_A-x0849_0_A
     RDKit          3D

 10 11  0  0  0  0  0  0  0  0999 V2000
   -2.3570   13.2730   -1.1790 N   0  0  0  0  0  0  0  0  0  0  0  0
   -2.1650   14.5220   -0.5280 C   0  0  1  0  0  0  0  0  0  0  0  0
   -2.1360   14.3240    0.9400 N   0  0  0  0  0  0  0  0  0  0  0  0
   -0.8090   14.9780   -0.8950 N   0  0  0  0  0  0  0  0  0  0  0  0
   -3.3190   15.3660   -0.9520 C   0  0  0  0  0  0  0  0  0  0  0  0
   -0.8490   14.5970    1.3780 N   0  0  0  0  0  0  0  0  0  0  0  0
   -0.1940   14.9720    0.2570 C   0  0  0  0  0  0  0  0  0  0  0  0
   -3.1150   14.7130    1.8070 N   0  0  0  0  0  0  0  0  0  0  0  0
   -4.2620   15.7890   -0.0970 C   0  0  0  0  0  0  0  0  0  0  0  0
   -4.0970   15.3890    1.3130 C   0  0  0  0  0  0  0  0  0  0  0  0
  2  1  1  6
  2  3  1  0
  2  4  1  0
  2  5  1  0
  3  6  1  0
  4  7  2  0
  6  7  1  0
  3  8  1  0
  5  9  2  0
  8 10  2  0
  9 10  1  0
M  END
