x0918_1_B_α-x0797_0_B_α
     RDKit          3D

 22 24  0  0  0  0  0  0  0  0999 V2000
   -1.3410   26.3580  -12.3530 N   0  0  0  0  0  0  0  0  0  0  0  0
   -2.4350   26.2440  -13.1750 C   0  0  0  0  0  0  0  0  0  0  0  0
   -2.2530   26.2270  -14.5370 C   0  0  0  0  0  0  0  0  0  0  0  0
   -3.7160   26.1670  -12.6880 C   0  0  0  0  0  0  0  0  0  0  0  0
   -4.7650   26.0880  -13.5670 C   0  0  0  0  0  0  0  0  0  0  0  0
   -3.3650   26.1250  -15.3450 C   0  0  0  0  0  0  0  0  0  0  0  0
   -5.9940   26.1150  -12.9700 N   0  0  0  0  0  0  0  0  0  0  0  0
   -4.6350   26.0510  -14.9000 N   0  0  0  0  0  0  0  0  0  0  0  0
   -7.1160   26.3030  -13.5320 C   0  0  0  0  0  0  0  0  0  0  0  0
   -7.2340   26.3710  -14.8720 O   0  0  0  0  0  0  0  0  0  0  0  0
   -8.3080   26.6130  -12.7190 C   0  0  1  0  0  0  0  0  0  0  0  0
   -8.6760   25.8030  -11.4870 C   0  0  0  0  0  0  0  0  0  0  0  0
   -7.7240   27.7400  -11.9050 C   0  0  1  0  0  0  0  0  0  0  0  0
   -6.7070   28.6050  -12.6640 C   0  0  0  0  0  0  0  0  0  0  0  0
   -9.1420   26.8110  -10.5230 O   0  0  0  0  0  0  0  0  0  0  0  0
   -8.9310   28.1050  -11.1450 C   0  0  0  0  0  0  0  0  0  0  0  0
   -6.9550   29.5210  -13.7270 C   0  0  0  0  0  0  0  0  0  0  0  0
   -5.3810   28.4300  -12.2470 C   0  0  0  0  0  0  0  0  0  0  0  0
   -8.3260   29.8090  -14.2750 C   0  0  0  0  0  0  0  0  0  0  0  0
   -4.3240   29.0940  -12.8280 C   0  0  0  0  0  0  0  0  0  0  0  0
   -5.8570   30.1960  -14.3100 C   0  0  0  0  0  0  0  0  0  0  0  0
   -4.5500   29.9820  -13.8660 C   0  0  0  0  0  0  0  0  0  0  0  0
  1  2  1  0
  2  3  2  0
  2  4  1  0
  4  5  2  0
  3  6  1  0
  5  7  1  0
  5  8  1  0
  6  8  2  0
  7  9  2  3
  9 10  1  0
 11  9  1  6
 11 12  1  0
 11 13  1  0
 13 14  1  6
 12 15  1  0
 13 16  1  0
 15 16  1  0
 14 17  2  0
 14 18  1  0
 17 19  1  0
 18 20  2  0
 17 21  1  0
 20 22  1  0
 21 22  2  0
M  END
