x0918_0_B_α-5CB5_0_F_β
     RDKit          3D

 23 23  0  0  0  0  0  0  0  0999 V2000
   -3.2740   29.5700  -14.3020 N   0  0  0  0  0  0  0  0  0  0  0  0
   -4.5170   29.2240  -13.6860 C   0  0  0  0  0  0  0  0  0  0  0  0
   -4.6330   28.1370  -12.8540 C   0  0  0  0  0  0  0  0  0  0  0  0
   -5.6180   30.0170  -13.9580 C   0  0  0  0  0  0  0  0  0  0  0  0
   -6.8260   29.7070  -13.3770 C   0  0  0  0  0  0  0  0  0  0  0  0
   -5.8680   27.8300  -12.2860 C   0  0  0  0  0  0  0  0  0  0  0  0
   -6.1150   26.6340  -11.3830 C   0  0  0  0  0  0  0  0  0  0  0  0
   -6.8940   28.6370  -12.5750 N   0  0  0  0  0  0  0  0  0  0  0  0
   -5.1370   25.4770  -11.5280 C   0  0  0  0  0  0  0  0  0  0  0  0
   -5.5430   24.2960  -10.5580 C   0  0  0  0  0  0  0  0  0  0  0  0
   -4.3380   23.5390  -10.1290 C   0  0  0  0  0  0  0  0  0  0  0  0
   -4.1700   22.7900   -8.8770 C   0  0  0  0  0  0  0  0  0  0  0  0
   -2.8460   22.5350   -8.2600 C   0  0  0  0  0  0  0  0  0  0  0  0
   -2.5090   21.1980   -7.7040 C   0  0  0  0  0  0  0  0  0  0  0  0
   -1.6170   20.5060   -8.5510 O   0  0  0  0  0  0  0  0  0  0  0  0
   -0.3160   19.9110   -7.6540 P   0  0  0  0  0  0  0  0  0  0  0  0
   -0.4780   18.6940   -6.6240 O   0  0  0  0  0  0  0  0  0  0  0  0
    1.0910   20.7600   -7.6970 O   0  0  0  0  0  0  0  0  0  0  0  0
    0.2000   19.0520   -8.7610 O   0  0  0  0  0  0  0  0  0  0  0  0
   -2.0400   18.4360   -6.2060 P   0  0  0  0  0  0  0  0  0  0  0  0
   -2.5870   16.8680   -6.1500 O   0  0  0  0  0  0  0  0  0  0  0  0
   -1.6450   18.2000   -4.7910 O   0  0  0  0  0  0  0  0  0  0  0  0
   -2.9280   19.7160   -5.9190 O   0  0  0  0  0  0  0  0  0  0  0  0
  1  2  1  0
  2  3  2  0
  2  4  1  0
  4  5  2  0
  3  6  1  0
  6  7  1  0
  5  8  1  0
  6  8  2  0
  7  9  1  0
  9 10  1  0
 10 11  1  0
 11 12  1  0
 12 13  1  0
 13 14  1  0
 14 15  1  0
 15 16  1  0
 16 17  1  0
 16 18  1  0
 16 19  1  0
 17 20  1  0
 20 21  1  0
 20 22  1  0
 20 23  1  0
M  CHG  2  18  -1  22  -1
M  END
