x0910_1_A-x0711_0_A
     RDKit          3D

 19 20  0  0  0  0  0  0  0  0999 V2000
   -7.0900   14.2060    0.3620 N   0  0  0  0  0  0  0  0  0  0  0  0
   -6.8210   13.7070   -0.8510 C   0  0  0  0  0  0  0  0  0  0  0  0
   -7.6480   13.0840   -1.5040 O   0  0  0  0  0  0  0  0  0  0  0  0
   -6.0030   14.8960    0.7240 C   0  0  0  0  0  0  0  0  0  0  0  0
   -5.4940   14.9710    1.9590 N   0  0  0  0  0  0  0  0  0  0  0  0
   -5.2420   15.5970   -0.0730 N   0  0  0  0  0  0  0  0  0  0  0  0
   -5.4390   14.0040   -1.3210 C   0  0  0  0  0  0  0  0  0  0  0  0
   -4.3850   15.7210    1.9820 N   0  0  0  0  0  0  0  0  0  0  0  0
   -4.2740   16.0690    0.7300 C   0  0  0  0  0  0  0  0  0  0  0  0
   -5.2580   14.7830   -2.4650 C   0  0  0  0  0  0  0  0  0  0  0  0
   -4.3190   13.5300   -0.6070 C   0  0  0  0  0  0  0  0  0  0  0  0
   -3.9630   15.0920   -2.8930 C   0  0  0  0  0  0  0  0  0  0  0  0
   -3.0270   13.8450   -1.0400 C   0  0  0  0  0  0  0  0  0  0  0  0
   -2.8560   14.6290   -2.1820 C   0  0  0  0  0  0  0  0  0  0  0  0
   -1.5460   14.9720   -2.6340 N   0  0  0  0  0  0  0  0  0  0  0  0
   -0.4930   13.7880   -3.2260 S   0  0  0  0  0  0  0  0  0  0  0  0
   -1.6150   12.7220   -4.0990 C   0  0  0  0  0  0  0  0  0  0  0  0
    0.4260   14.3750   -4.1740 O   0  0  0  0  0  0  0  0  0  0  0  0
   -0.0120   13.0780   -2.0560 O   0  0  0  0  0  0  0  0  0  0  0  0
  1  2  1  0
  2  3  2  0
  1  4  1  0
  4  5  1  0
  4  6  2  0
  2  7  1  0
  5  8  1  0
  6  9  1  0
  8  9  2  0
  7 10  2  0
  7 11  1  0
 10 12  1  0
 11 13  2  0
 12 14  2  0
 13 14  1  0
 14 15  1  0
 16 15  1  0
 16 17  1  0
 16 18  2  0
 16 19  2  0
M  END
