x0910_1_A_α-x0628_0_A_α
     RDKit          3D

 21 22  0  0  0  0  0  0  0  0999 V2000
   -7.5460   14.3180    1.1720 N   0  0  0  0  0  0  0  0  0  0  0  0
   -6.4950   14.6390    0.4180 C   0  0  0  0  0  0  0  0  0  0  0  0
   -6.3970   14.5290   -0.9040 N   0  0  0  0  0  0  0  0  0  0  0  0
   -5.3900   15.1330    1.0320 N   0  0  0  0  0  0  0  0  0  0  0  0
   -5.1400   14.9790   -1.1180 N   0  0  0  0  0  0  0  0  0  0  0  0
   -4.5510   15.3430    0.0470 C   0  0  0  0  0  0  0  0  0  0  0  0
   -4.5800   15.0180   -2.4630 C   0  0  0  0  0  0  0  0  0  0  0  0
   -3.1980   14.3390   -2.5480 C   0  0  0  0  0  0  0  0  0  0  0  0
   -2.8970   13.6160   -3.8850 C   0  0  0  0  0  0  0  0  0  0  0  0
   -2.2850   12.2080   -3.6910 C   0  0  0  0  0  0  0  0  0  0  0  0
   -1.5460   11.6000   -4.8550 C   0  0  0  0  0  0  0  0  0  0  0  0
   -1.9100   10.4800   -5.4610 N   0  0  0  0  0  0  0  0  0  0  0  0
   -0.3980   12.0620   -5.4760 N   0  0  0  0  0  0  0  0  0  0  0  0
    0.4090   13.2380   -5.2060 C   0  0  0  0  0  0  0  0  0  0  0  0
   -0.9600   10.2950   -6.4320 C   0  0  0  0  0  0  0  0  0  0  0  0
   -0.0240   11.2380   -6.4750 N   0  0  0  0  0  0  0  0  0  0  0  0
   -0.9750    9.1430   -7.3510 C   0  0  0  0  0  0  0  0  0  0  0  0
    1.5960   12.9540   -4.3010 C   0  0  0  0  0  0  0  0  0  0  0  0
    1.1650   12.2860   -3.0270 C   0  0  0  0  0  0  0  0  0  0  0  0
    0.5010   11.2630   -2.9090 O   0  0  0  0  0  0  0  0  0  0  0  0
    1.5780   12.9590   -1.9410 O   0  0  0  0  0  0  0  0  0  0  0  0
  1  2  1  0
  2  3  2  0
  2  4  1  0
  3  5  1  0
  4  6  2  0
  5  6  1  0
  5  7  1  0
  7  8  1  0
  8  9  1  0
  9 10  1  0
 10 11  1  0
 11 12  2  0
 11 13  1  0
 13 14  1  0
 12 15  1  0
 13 16  1  0
 15 16  2  0
 15 17  1  0
 14 18  1  0
 18 19  1  0
 19 20  2  0
 19 21  1  0
M  END
