x0918_0_B_α-x0766_1_B_α
     RDKit          3D

 14 15  0  0  0  0  0  0  0  0999 V2000
   -3.4080   29.8610  -14.7210 N   0  0  0  0  0  0  0  0  0  0  0  0
   -4.4300   28.9900  -14.1730 C   0  0  1  0  0  0  0  0  0  0  0  0
   -4.2420   28.8770  -12.6980 C   0  0  0  0  0  0  0  0  0  0  0  0
   -5.8010   29.5110  -14.4850 C   0  0  0  0  0  0  0  0  0  0  0  0
   -6.8330   29.3180  -13.6490 C   0  0  0  0  0  0  0  0  0  0  0  0
   -5.2560   28.7060  -11.8580 C   0  0  0  0  0  0  0  0  0  0  0  0
   -6.6660   28.5590  -12.3270 C   0  0  2  0  0  0  0  0  0  0  0  0
   -6.9460   27.0450  -12.5150 C   0  0  2  0  0  0  0  0  0  0  0  0
   -7.6960   29.0540  -11.3100 C   0  0  0  0  0  0  0  0  0  0  0  0
   -7.4030   26.6720  -13.8980 C   0  0  0  0  0  0  0  0  0  0  0  0
   -7.9580   26.6400  -11.4410 C   0  0  0  0  0  0  0  0  0  0  0  0
   -8.7120   27.9190  -11.1250 C   0  0  0  0  0  0  0  0  0  0  0  0
   -8.5390   26.8020  -14.3180 O   0  0  0  0  0  0  0  0  0  0  0  0
   -6.4400   26.1690  -14.6910 O   0  0  0  0  0  0  0  0  0  0  0  0
  2  1  1  1
  2  3  1  0
  2  4  1  0
  4  5  2  0
  3  6  2  0
  7  5  1  6
  6  7  1  0
  7  8  1  0
  7  9  1  0
  8 10  1  6
  8 11  1  0
  9 12  1  0
 11 12  1  0
 10 13  2  0
 10 14  1  0
M  END
