x0910_1_A_α-x0104_0_A_α
     RDKit          3D

 15 16  0  0  0  0  0  0  0  0999 V2000
   -8.1580   13.9660    0.5620 N   0  0  0  0  0  0  0  0  0  0  0  0
   -6.9720   14.5310    0.2650 C   0  0  0  0  0  0  0  0  0  0  0  0
   -6.4590   14.8330   -0.8990 N   0  0  0  0  0  0  0  0  0  0  0  0
   -6.1060   14.8790    1.2420 N   0  0  0  0  0  0  0  0  0  0  0  0
   -6.3410   14.7050    2.6550 C   0  0  0  0  0  0  0  0  0  0  0  0
   -5.2160   15.3910   -0.6870 N   0  0  0  0  0  0  0  0  0  0  0  0
   -5.0100   15.4120    0.6140 C   0  0  0  0  0  0  0  0  0  0  0  0
   -7.7610   15.0540    3.1350 C   0  0  0  0  0  0  0  0  0  0  0  0
   -7.8840   15.0180    4.5170 N   0  0  0  0  0  0  0  0  0  0  0  0
   -8.6430   15.3260    2.3210 O   0  0  0  0  0  0  0  0  0  0  0  0
   -9.0660   15.0420    5.2630 C   0  0  0  0  0  0  0  0  0  0  0  0
   -9.1520   15.1620    6.6360 C   0  0  0  0  0  0  0  0  0  0  0  0
  -10.6120   14.9230    4.5580 S   0  0  0  0  0  0  0  0  0  0  0  0
  -10.5040   15.1530    7.1060 C   0  0  0  0  0  0  0  0  0  0  0  0
  -11.4020   15.0270    6.0700 C   0  0  0  0  0  0  0  0  0  0  0  0
  1  2  1  0
  2  3  2  0
  2  4  1  0
  4  5  1  0
  3  6  1  0
  4  7  1  0
  6  7  2  0
  5  8  1  0
  8  9  1  0
  8 10  2  0
  9 11  1  0
 11 12  2  0
 11 13  1  0
 12 14  1  0
 13 15  1  0
 14 15  2  0
M  END
