x0910_1_A_α-x0844_0_A_α
     RDKit          3D

  7  7  0  0  0  0  0  0  0  0999 V2000
   -7.7040   14.3410    0.9730 N   0  0  0  0  0  0  0  0  0  0  0  0
   -6.5440   14.6520    0.3930 C   0  0  0  0  0  0  0  0  0  0  0  0
   -6.2670   14.5850   -0.9060 N   0  0  0  0  0  0  0  0  0  0  0  0
   -5.5290   15.0800    1.1870 N   0  0  0  0  0  0  0  0  0  0  0  0
   -4.9850   14.9910   -0.9100 N   0  0  0  0  0  0  0  0  0  0  0  0
   -4.5530   15.2920    0.3360 C   0  0  0  0  0  0  0  0  0  0  0  0
   -3.9200   15.1160   -2.4220 Br  0  0  0  0  0  0  0  0  0  0  0  0
  1  2  1  0
  2  3  2  0
  2  4  1  0
  3  5  1  0
  4  6  2  0
  5  6  1  0
  5  7  1  0
M  END
