x0910_1_A_α-x0471_0_A_α
     RDKit          3D

 16 17  0  0  0  0  0  0  0  0999 V2000
   -7.8720   14.3280    1.7220 N   0  0  0  0  0  0  0  0  0  0  0  0
   -8.0250   14.2360    3.1430 N   0  0  0  0  0  0  0  0  0  0  0  0
   -8.9160   15.1260    3.7440 C   0  0  0  0  0  0  0  0  0  0  0  0
   -6.4960   13.9630    1.3200 C   0  0  2  0  0  0  0  0  0  0  0  0
   -5.5500   14.8780    0.6840 N   0  0  0  0  0  0  0  0  0  0  0  0
   -6.5530   12.9220    0.1890 C   0  0  0  0  0  0  0  0  0  0  0  0
   -9.4370   16.0470    3.1180 O   0  0  0  0  0  0  0  0  0  0  0  0
   -9.2090   14.8640    5.2190 C   0  0  0  0  0  0  0  0  0  0  0  0
   -6.6650   13.7830   -1.0070 N   0  0  0  0  0  0  0  0  0  0  0  0
   -5.8650   14.8910   -0.6720 N   0  0  0  0  0  0  0  0  0  0  0  0
   -4.2130   14.9660    1.0590 C   0  0  0  0  0  0  0  0  0  0  0  0
   -9.6020   13.4100    5.4800 C   0  0  0  0  0  0  0  0  0  0  0  0
   -8.0370   15.2940    6.0880 C   0  0  0  0  0  0  0  0  0  0  0  0
   -4.9140   15.2580   -1.5940 C   0  0  0  0  0  0  0  0  0  0  0  0
   -3.2530   15.2190    0.1540 C   0  0  0  0  0  0  0  0  0  0  0  0
   -3.6340   15.4190   -1.2430 C   0  0  0  0  0  0  0  0  0  0  0  0
  1  2  1  0
  2  3  1  0
  4  1  1  6
  4  5  1  0
  4  6  1  0
  3  7  2  0
  3  8  1  0
  6  9  1  0
  5 10  1  0
  9 10  1  0
  5 11  1  0
  8 12  1  0
  8 13  1  0
 10 14  1  0
 11 15  2  0
 14 16  2  0
 15 16  1  0
M  END
