x0910_0_A_α-x0950_1_A_α
     RDKit          3D

 13 13  0  0  0  0  0  0  0  0999 V2000
   -2.8210   14.3200   -1.6090 N   0  0  0  0  0  0  0  0  0  0  0  0
   -1.9220   14.5800   -0.6470 C   0  0  0  0  0  0  0  0  0  0  0  0
   -2.1590   14.8500    0.6170 N   0  0  0  0  0  0  0  0  0  0  0  0
   -0.5700   14.6030   -0.8680 N   0  0  0  0  0  0  0  0  0  0  0  0
    0.1340   14.3560   -2.1170 C   0  0  0  0  0  0  0  0  0  0  0  0
   -0.9540   15.0590    1.2360 N   0  0  0  0  0  0  0  0  0  0  0  0
   -0.0170   14.9150    0.3350 C   0  0  0  0  0  0  0  0  0  0  0  0
    0.9960   13.2060   -1.9800 O   0  0  0  0  0  0  0  0  0  0  0  0
    0.8020   12.2230   -2.9120 C   0  0  0  0  0  0  0  0  0  0  0  0
    1.3520   12.5760   -4.3070 C   0  0  2  0  0  0  0  0  0  0  0  0
    0.2530   11.1520   -2.6650 O   0  0  0  0  0  0  0  0  0  0  0  0
    1.1310   14.0200   -4.7180 C   0  0  0  0  0  0  0  0  0  0  0  0
    0.7410   11.7540   -5.3050 O   0  0  0  0  0  0  0  0  0  0  0  0
  1  2  1  0
  2  3  2  0
  2  4  1  0
  4  5  1  0
  3  6  1  0
  4  7  1  0
  6  7  2  0
  5  8  1  0
  8  9  1  0
  9 10  1  0
  9 11  2  0
 10 12  1  6
 10 13  1  0
M  END
