x0910_1_A_α-x0587_0_A_α
     RDKit          3D

 12 12  0  0  0  0  0  0  0  0999 V2000
   -7.9350   14.6740    1.9680 C   0  0  0  0  0  0  0  0  0  0  0  0
   -7.6550   14.7420    3.3210 N   0  0  0  0  0  0  0  0  0  0  0  0
   -9.1040   14.5870    1.6020 O   0  0  0  0  0  0  0  0  0  0  0  0
   -6.7180   14.7540    1.1040 C   0  0  0  0  0  0  0  0  0  0  0  0
   -6.6250   14.5100   -0.2280 N   0  0  0  0  0  0  0  0  0  0  0  0
   -5.5100   15.1330    1.6660 N   0  0  0  0  0  0  0  0  0  0  0  0
   -5.2950   14.7570   -0.4490 N   0  0  0  0  0  0  0  0  0  0  0  0
   -4.6620   15.1270    0.6820 C   0  0  0  0  0  0  0  0  0  0  0  0
   -4.6080   14.6400   -1.7150 C   0  0  0  0  0  0  0  0  0  0  0  0
   -3.3220   15.0740   -1.5860 F   0  0  0  0  0  0  0  0  0  0  0  0
   -4.5230   13.3480   -2.1300 F   0  0  0  0  0  0  0  0  0  0  0  0
   -5.1760   15.3590   -2.6970 F   0  0  0  0  0  0  0  0  0  0  0  0
  1  2  1  0
  1  3  2  0
  1  4  1  0
  4  5  2  0
  4  6  1  0
  5  7  1  0
  6  8  2  0
  7  8  1  0
  7  9  1  0
  9 10  1  0
  9 11  1  0
  9 12  1  0
M  END
