x0910_1_A-x0290_0_A
     RDKit          3D

 18 19  0  0  0  0  0  0  0  0999 V2000
   -7.3960   14.4560    1.2470 N   0  0  0  0  0  0  0  0  0  0  0  0
   -8.6690   13.8360    0.9100 C   0  0  0  0  0  0  0  0  0  0  0  0
   -6.4430   13.7470    2.1120 C   0  0  0  0  0  0  0  0  0  0  0  0
   -6.6200   14.9480    0.2800 C   0  0  0  0  0  0  0  0  0  0  0  0
   -5.1350   13.6890    1.3150 C   0  0  0  0  0  0  0  0  0  0  0  0
   -6.9610   15.1310   -1.0240 N   0  0  0  0  0  0  0  0  0  0  0  0
   -5.3820   15.3390    0.4570 N   0  0  0  0  0  0  0  0  0  0  0  0
   -5.1290   13.0520    0.2480 O   0  0  0  0  0  0  0  0  0  0  0  0
   -3.9680   14.3200    1.6290 N   0  0  0  0  0  0  0  0  0  0  0  0
   -5.9290   15.6530   -1.7100 N   0  0  0  0  0  0  0  0  0  0  0  0
   -4.9980   15.7590   -0.7650 C   0  0  0  0  0  0  0  0  0  0  0  0
   -2.7450   14.4260    0.9680 C   0  0  0  0  0  0  0  0  0  0  0  0
   -1.6870   14.4770    1.8080 N   0  0  0  0  0  0  0  0  0  0  0  0
   -2.5740   14.4670   -0.4040 C   0  0  0  0  0  0  0  0  0  0  0  0
   -0.4540   14.5680    1.2700 C   0  0  0  0  0  0  0  0  0  0  0  0
   -1.2900   14.5620   -0.9500 C   0  0  0  0  0  0  0  0  0  0  0  0
   -1.1030   14.6050   -2.4350 C   0  0  0  0  0  0  0  0  0  0  0  0
   -0.2020   14.6150   -0.0840 C   0  0  0  0  0  0  0  0  0  0  0  0
  1  2  1  0
  1  3  1  0
  1  4  1  0
  3  5  1  0
  4  6  1  0
  4  7  2  0
  5  8  2  0
  5  9  1  0
  6 10  1  0
  7 11  1  0
 10 11  2  0
  9 12  1  0
 12 13  2  0
 12 14  1  0
 13 15  1  0
 14 16  2  0
 16 17  1  0
 15 18  2  0
 16 18  1  0
M  END
