x0918_1_B-x0918_0_B
     RDKit          3D

 15 16  0  0  0  0  0  0  0  0999 V2000
   -1.7710   25.2280  -11.5990 N   0  0  0  0  0  0  0  0  0  0  0  0
   -2.6840   25.6130  -12.5450 C   0  0  0  0  0  0  0  0  0  0  0  0
   -2.3560   26.6130  -13.4370 C   0  0  0  0  0  0  0  0  0  0  0  0
   -3.9330   25.0090  -12.6190 C   0  0  0  0  0  0  0  0  0  0  0  0
   -4.8050   25.4380  -13.6050 C   0  0  0  0  0  0  0  0  0  0  0  0
   -3.2810   26.9920  -14.3900 C   0  0  0  0  0  0  0  0  0  0  0  0
   -2.9480   28.1070  -15.3560 C   0  0  0  0  0  0  0  0  0  0  0  0
   -4.5070   26.4100  -14.4900 N   0  0  0  0  0  0  0  0  0  0  0  0
   -3.4110   29.3930  -14.8120 N   0  0  0  0  0  0  0  0  0  0  0  0
   -4.5390   29.3960  -13.9800 C   0  0  0  0  0  0  0  0  0  0  0  0
   -5.7970   29.8450  -14.3650 C   0  0  0  0  0  0  0  0  0  0  0  0
   -4.4140   28.9120  -12.6730 C   0  0  0  0  0  0  0  0  0  0  0  0
   -6.8510   29.7920  -13.4640 C   0  0  0  0  0  0  0  0  0  0  0  0
   -5.5280   28.9010  -11.8440 C   0  0  0  0  0  0  0  0  0  0  0  0
   -6.7510   29.3290  -12.2060 N   0  0  0  0  0  0  0  0  0  0  0  0
  1  2  1  0
  2  3  2  0
  2  4  1  0
  4  5  2  0
  3  6  1  0
  6  7  1  0
  5  8  1  0
  6  8  2  0
  7  9  1  0
  9 10  1  0
 10 11  2  0
 10 12  1  0
 11 13  1  0
 12 14  2  0
 13 15  2  0
 14 15  1  0
M  END
