x0910_0_A-x0962_1_A
     RDKit          3D

 12 13  0  0  0  0  0  0  0  0999 V2000
   -3.1450   14.7800   -0.4810 C   0  0  0  0  0  0  0  0  0  0  0  0
   -4.3180   14.7880   -0.3770 C   0  0  0  0  0  0  0  0  0  0  0  0
   -5.6450   14.7370    0.0670 C   0  0  0  0  0  0  0  0  0  0  0  0
   -1.7860   14.7580   -0.2000 C   0  0  0  0  0  0  0  0  0  0  0  0
   -1.4120   14.7820    1.0920 N   0  0  0  0  0  0  0  0  0  0  0  0
   -0.7390   14.7200   -0.9870 N   0  0  0  0  0  0  0  0  0  0  0  0
   -0.0930   14.7660    1.2100 N   0  0  0  0  0  0  0  0  0  0  0  0
    0.2800   14.7300   -0.0710 C   0  0  0  0  0  0  0  0  0  0  0  0
   -5.9620   14.5380    1.3880 N   0  0  0  0  0  0  0  0  0  0  0  0
   -6.8490   14.8530   -0.5760 C   0  0  0  0  0  0  0  0  0  0  0  0
   -7.3120   14.5370    1.4930 C   0  0  0  0  0  0  0  0  0  0  0  0
   -7.8820   14.7270    0.3230 N   0  0  0  0  0  0  0  0  0  0  0  0
  1  2  3  0
  2  3  1  0
  1  4  1  0
  4  5  1  0
  4  6  2  0
  5  7  1  0
  6  8  1  0
  7  8  2  0
  3  9  1  0
  3 10  2  0
  9 11  1  0
 10 12  1  0
 11 12  2  0
M  END
