x0918_4_B_α-x0259_0_A_α
     RDKit          3D

 29 31  0  0  0  0  0  0  0  0999 V2000
   13.1230   23.5610   13.9330 N   0  0  0  0  0  0  0  0  0  0  0  0
   13.0840   22.2160   13.5550 C   0  0  0  0  0  0  0  0  0  0  0  0
   13.8380   21.7600   12.4800 C   0  0  0  0  0  0  0  0  0  0  0  0
   12.2750   21.3270   14.2600 C   0  0  0  0  0  0  0  0  0  0  0  0
   14.6970   22.7520   11.6860 C   0  0  0  0  0  0  0  0  0  0  0  0
   12.2400   19.9990   13.8850 C   0  0  0  0  0  0  0  0  0  0  0  0
   13.7300   20.3830   12.1840 C   0  0  0  0  0  0  0  0  0  0  0  0
   16.1570   22.9680   12.0950 C   0  0  0  0  0  0  0  0  0  0  0  0
   12.9560   19.5020   12.8650 N   0  0  0  0  0  0  0  0  0  0  0  0
   17.0080   23.4470   10.8950 C   0  0  0  0  0  0  0  0  0  0  0  0
   17.5290   24.8920   10.8970 C   0  0  0  0  0  0  0  0  0  0  0  0
   17.8020   25.4460    9.4860 C   0  0  0  0  0  0  0  0  0  0  0  0
   17.6090   26.9660    9.4430 C   0  0  0  0  0  0  0  0  0  0  0  0
   18.7610   27.8120    8.9160 C   0  0  0  0  0  0  0  0  0  0  0  0
   18.6350   28.3090    7.4450 C   0  0  2  0  0  0  0  0  0  0  0  0
   20.0040   28.4080    6.9070 N   0  0  0  0  0  0  0  0  0  0  0  0
   17.7950   29.6010    7.2540 C   0  0  2  0  0  0  0  0  0  0  0  0
   21.1090   28.4730    7.8630 C   0  0  0  0  0  0  0  0  0  0  0  0
   17.5930   30.4960    8.4590 C   0  0  0  0  0  0  0  0  0  0  0  0
   16.3380   29.4080    6.8410 C   0  0  0  0  0  0  0  0  0  0  0  0
   20.3310   28.0330    5.5960 C   0  0  0  0  0  0  0  0  0  0  0  0
   15.7680   30.7180    6.9510 O   0  0  0  0  0  0  0  0  0  0  0  0
   16.4500   31.3940    8.0140 C   0  0  0  0  0  0  0  0  0  0  0  0
   19.3300   27.6660    4.7740 N   0  0  0  0  0  0  0  0  0  0  0  0
   21.6540   28.0350    5.1330 C   0  0  0  0  0  0  0  0  0  0  0  0
   23.0340   28.4790    6.0640 Cl  0  0  0  0  0  0  0  0  0  0  0  0
   19.6330   27.3110    3.5170 C   0  0  0  0  0  0  0  0  0  0  0  0
   21.8490   27.6510    3.8210 C   0  0  0  0  0  0  0  0  0  0  0  0
   20.8610   27.2850    2.9870 N   0  0  0  0  0  0  0  0  0  0  0  0
  1  2  1  0
  2  3  2  0
  2  4  1  0
  3  5  1  0
  4  6  2  0
  3  7  1  0
  5  8  1  0
  6  9  1  0
  7  9  2  0
  8 10  1  0
 10 11  1  0
 11 12  1  0
 12 13  1  0
 13 14  1  0
 15 14  1  1
 15 16  1  0
 15 17  1  0
 16 18  1  0
 17 19  1  1
 17 20  1  0
 16 21  1  0
 20 22  1  0
 19 23  1  0
 22 23  1  0
 21 24  2  0
 21 25  1  0
 25 26  1  0
 24 27  1  0
 25 28  2  0
 27 29  2  0
 28 29  1  0
M  END
