x0910_1_A-x0852_0_B
     RDKit          3D

 18 19  0  0  0  0  0  0  0  0999 V2000
   -6.8540   13.7140    1.6750 N   0  0  0  0  0  0  0  0  0  0  0  0
   -6.4120   14.5160    0.6990 C   0  0  0  0  0  0  0  0  0  0  0  0
   -7.2090   15.1410   -0.2370 N   0  0  0  0  0  0  0  0  0  0  0  0
   -5.1590   14.8290    0.4900 N   0  0  0  0  0  0  0  0  0  0  0  0
   -8.6750   15.0840   -0.3760 C   0  0  0  0  0  0  0  0  0  0  0  0
   -6.4330   15.8720   -1.0810 N   0  0  0  0  0  0  0  0  0  0  0  0
   -5.2110   15.6470   -0.5890 C   0  0  0  0  0  0  0  0  0  0  0  0
   -9.4340   16.4090   -0.1150 C   0  0  0  0  0  0  0  0  0  0  0  0
  -10.1360   16.4890    1.1730 O   0  0  0  0  0  0  0  0  0  0  0  0
   -9.5110   16.1210    2.3540 C   0  0  0  0  0  0  0  0  0  0  0  0
   -8.6220   15.0660    2.4610 C   0  0  0  0  0  0  0  0  0  0  0  0
   -9.8010   16.8720    3.5180 C   0  0  0  0  0  0  0  0  0  0  0  0
   -8.0110   14.7490    3.6740 C   0  0  0  0  0  0  0  0  0  0  0  0
   -9.1860   16.5540    4.7530 C   0  0  0  0  0  0  0  0  0  0  0  0
   -9.4890   17.3140    5.9340 C   0  0  0  0  0  0  0  0  0  0  0  0
   -8.2830   15.4880    4.8100 C   0  0  0  0  0  0  0  0  0  0  0  0
   -9.7630   17.8530    6.9290 N   0  0  0  0  0  0  0  0  0  0  0  0
   -7.6550   15.1540    5.9820 O   0  0  0  0  0  0  0  0  0  0  0  0
  1  2  1  0
  2  3  1  0
  2  4  2  0
  3  5  1  0
  3  6  1  0
  4  7  1  0
  6  7  2  0
  5  8  1  0
  8  9  1  0
  9 10  1  0
 10 11  2  0
 10 12  1  0
 11 13  1  0
 12 14  2  0
 14 15  1  0
 13 16  2  0
 14 16  1  0
 15 17  3  0
 16 18  1  0
M  END
