x0910_0_A_α-x0689_0_A_α
     RDKit          3D

  8  8  0  0  0  0  0  0  0  0999 V2000
   -2.7180   14.4730   -1.6010 N   0  0  0  0  0  0  0  0  0  0  0  0
   -1.8450   14.6410   -0.5900 C   0  0  0  0  0  0  0  0  0  0  0  0
   -2.2140   14.6370    0.7550 N   0  0  0  0  0  0  0  0  0  0  0  0
   -0.5510   14.8320   -0.6860 N   0  0  0  0  0  0  0  0  0  0  0  0
   -3.5450   14.4530    1.2490 N   0  0  0  0  0  0  0  0  0  0  0  0
   -1.1420   14.8300    1.5220 N   0  0  0  0  0  0  0  0  0  0  0  0
   -0.1720   14.9480    0.6150 C   0  0  0  0  0  0  0  0  0  0  0  0
   -4.2980   15.6890    1.2130 C   0  0  0  0  0  0  0  0  0  0  0  0
  1  2  1  0
  2  3  1  0
  2  4  2  0
  3  5  1  0
  3  6  1  0
  4  7  1  0
  6  7  2  0
  5  8  1  0
M  END
