x0918_4_B_α-mac-058_0_A_α
     RDKit          3D

 23 25  0  0  0  0  0  0  0  0999 V2000
   14.0110   22.6190   14.3490 N   0  0  0  0  0  0  0  0  0  0  0  0
   13.1560   21.9330   13.3970 C   0  0  0  0  0  0  0  0  0  0  0  0
   14.0010   21.1830   12.4130 C   0  0  0  0  0  0  0  0  0  0  0  0
   12.1510   21.0450   14.0770 C   0  0  0  0  0  0  0  0  0  0  0  0
   12.0490   19.7340   13.7710 C   0  0  0  0  0  0  0  0  0  0  0  0
   13.8190   19.8670   12.1820 C   0  0  0  0  0  0  0  0  0  0  0  0
   12.8520   19.0930   12.8230 N   0  0  0  0  0  0  0  0  0  0  0  0
   12.6050   17.6830   12.4080 C   0  0  0  0  0  0  0  0  0  0  0  0
   12.7590   16.6370   13.5360 C   0  0  0  0  0  0  0  0  0  0  0  0
   13.9800   15.6920   13.4530 C   0  0  0  0  0  0  0  0  0  0  0  0
   13.9080   14.4540   14.3770 C   0  0  0  0  0  0  0  0  0  0  0  0
   13.4620   13.2150   13.6260 C   0  0  0  0  0  0  0  0  0  0  0  0
   14.3780   12.3200   12.9520 C   0  0  0  0  0  0  0  0  0  0  0  0
   12.1880   12.9040   13.5530 C   0  0  0  0  0  0  0  0  0  0  0  0
   15.7560   12.4010   13.0980 C   0  0  0  0  0  0  0  0  0  0  0  0
   13.8580   11.3240   12.1230 C   0  0  0  0  0  0  0  0  0  0  0  0
   11.6240   11.7570   12.7940 C   0  0  0  0  0  0  0  0  0  0  0  0
   10.4760   11.3620   12.8720 O   0  0  0  0  0  0  0  0  0  0  0  0
   16.5960   11.5090   12.4400 C   0  0  0  0  0  0  0  0  0  0  0  0
   14.6660   10.4240   11.4550 C   0  0  0  0  0  0  0  0  0  0  0  0
   12.4870   11.1740   11.9210 O   0  0  0  0  0  0  0  0  0  0  0  0
   17.9820   11.6150   12.6110 N   0  0  0  0  0  0  0  0  0  0  0  0
   16.0470   10.5220   11.6200 C   0  0  0  0  0  0  0  0  0  0  0  0
  1  2  1  0
  2  3  1  0
  2  4  1  0
  4  5  2  0
  3  6  2  0
  5  7  1  0
  6  7  1  0
  7  8  1  0
  8  9  1  0
  9 10  1  0
 10 11  1  0
 11 12  1  0
 12 13  1  0
 12 14  2  0
 13 15  2  0
 13 16  1  0
 14 17  1  0
 17 18  2  0
 15 19  1  0
 16 20  2  0
 16 21  1  0
 17 21  1  0
 19 22  1  0
 19 23  2  0
 20 23  1  0
M  END
