x0910_0_A_α-x0910_1_A_α
     RDKit          3D

 13 14  0  0  0  0  0  0  0  0999 V2000
   -2.8770   14.8020   -1.7310 N   0  0  0  0  0  0  0  0  0  0  0  0
   -2.0380   14.7140   -0.6840 C   0  0  0  0  0  0  0  0  0  0  0  0
   -2.3410   15.1270    0.5960 N   0  0  0  0  0  0  0  0  0  0  0  0
   -0.8140   14.2400   -0.7070 N   0  0  0  0  0  0  0  0  0  0  0  0
   -3.5510   15.7360    1.1390 C   0  0  0  0  0  0  0  0  0  0  0  0
   -1.2880   14.9080    1.4170 N   0  0  0  0  0  0  0  0  0  0  0  0
   -0.4040   14.3760    0.5840 C   0  0  0  0  0  0  0  0  0  0  0  0
   -4.8390   15.3730    0.4820 C   0  0  0  0  0  0  0  0  0  0  0  0
   -5.1930   15.6300   -0.7930 N   0  0  0  0  0  0  0  0  0  0  0  0
   -5.8090   14.7200    1.2060 N   0  0  0  0  0  0  0  0  0  0  0  0
   -6.7960   14.5650    0.3740 C   0  0  0  0  0  0  0  0  0  0  0  0
   -6.4380   15.1060   -0.8300 N   0  0  0  0  0  0  0  0  0  0  0  0
   -7.9740   13.9820    0.6230 N   0  0  0  0  0  0  0  0  0  0  0  0
  1  2  1  0
  2  3  1  0
  2  4  2  0
  3  5  1  0
  3  6  1  0
  4  7  1  0
  6  7  2  0
  5  8  1  0
  8  9  2  0
  8 10  1  0
 10 11  2  0
  9 12  1  0
 11 12  1  0
 11 13  1  0
M  END
