x0910_0_A-x0837_0_A
     RDKit          3D

 13 14  0  0  0  0  0  0  0  0999 V2000
   -2.9890   14.4930   -1.2590 N   0  0  0  0  0  0  0  0  0  0  0  0
   -1.8740   14.6180   -0.5100 C   0  0  0  0  0  0  0  0  0  0  0  0
   -1.9330   14.5130    0.8530 N   0  0  0  0  0  0  0  0  0  0  0  0
   -4.1120   15.3420   -0.8740 C   0  0  2  0  0  0  0  0  0  0  0  0
   -0.6360   14.8490   -0.8670 N   0  0  0  0  0  0  0  0  0  0  0  0
   -3.8720   15.7050    0.5640 C   0  0  0  0  0  0  0  0  0  0  0  0
   -5.4690   14.6760   -1.1360 C   0  0  0  0  0  0  0  0  0  0  0  0
   -0.7260   14.6830    1.4090 N   0  0  0  0  0  0  0  0  0  0  0  0
    0.0210   14.8880    0.3250 C   0  0  0  0  0  0  0  0  0  0  0  0
   -4.6980   15.3950    1.5410 C   0  0  0  0  0  0  0  0  0  0  0  0
   -6.4140   14.6920    0.0460 C   0  0  0  0  0  0  0  0  0  0  0  0
   -7.6380   14.6880   -0.0690 O   0  0  0  0  0  0  0  0  0  0  0  0
   -5.8360   14.7160    1.2790 N   0  0  0  0  0  0  0  0  0  0  0  0
  1  2  1  0
  2  3  1  0
  4  1  1  1
  2  5  2  0
  4  6  1  0
  4  7  1  0
  3  8  1  0
  5  9  1  0
  8  9  2  0
  6 10  2  0
  7 11  1  0
 11 12  2  0
 10 13  1  0
 11 13  1  0
M  END
