x0918_0_B-x0797_0_B
     RDKit          3D

 15 16  0  0  0  0  0  0  0  0999 V2000
   -3.3950   29.3140  -14.8040 N   0  0  0  0  0  0  0  0  0  0  0  0
   -4.3870   29.6550  -13.7930 C   0  0  2  0  0  0  0  0  0  0  0  0
   -4.3210   28.6570  -12.6920 C   0  0  0  0  0  0  0  0  0  0  0  0
   -5.7970   29.8040  -14.3730 C   0  0  0  0  0  0  0  0  0  0  0  0
   -6.9880   29.6350  -13.3890 C   0  0  1  0  0  0  0  0  0  0  0  0
   -5.3870   28.1010  -12.0840 C   0  0  0  0  0  0  0  0  0  0  0  0
   -8.2830   29.6830  -14.2120 C   0  0  0  0  0  0  0  0  0  0  0  0
   -6.8440   28.3930  -12.4040 C   0  0  2  0  0  0  0  0  0  0  0  0
   -7.6830   27.1220  -12.7770 C   0  0  1  0  0  0  0  0  0  0  0  0
   -7.5910   28.6330  -11.0810 C   0  0  0  0  0  0  0  0  0  0  0  0
   -7.2650   26.2820  -13.9410 C   0  0  0  0  0  0  0  0  0  0  0  0
   -7.7400   27.3460  -10.4470 O   0  0  0  0  0  0  0  0  0  0  0  0
   -7.7470   26.3540  -11.4680 C   0  0  0  0  0  0  0  0  0  0  0  0
   -8.0170   26.4220  -15.0410 O   0  0  0  0  0  0  0  0  0  0  0  0
   -6.3230   25.5040  -13.9480 O   0  0  0  0  0  0  0  0  0  0  0  0
  2  1  1  6
  2  3  1  0
  2  4  1  0
  4  5  1  0
  3  6  2  0
  5  7  1  6
  5  8  1  0
  8  6  1  1
  8  9  1  0
  8 10  1  0
  9 11  1  6
 10 12  1  0
  9 13  1  0
 12 13  1  0
 11 14  1  0
 11 15  2  0
M  END
