x0918_0_B_α-5CB5_0_Q_α
     RDKit          3D

 19 20  0  0  0  0  0  0  0  0999 V2000
   -3.3780   29.8370  -14.4620 N   0  0  0  0  0  0  0  0  0  0  0  0
   -4.5530   29.4050  -13.8310 C   0  0  0  0  0  0  0  0  0  0  0  0
   -4.5310   28.3490  -12.9250 C   0  0  0  0  0  0  0  0  0  0  0  0
   -5.7670   30.0210  -14.0980 C   0  0  0  0  0  0  0  0  0  0  0  0
   -6.9010   29.5610  -13.4470 C   0  0  0  0  0  0  0  0  0  0  0  0
   -5.7220   27.9370  -12.3130 C   0  0  0  0  0  0  0  0  0  0  0  0
   -5.6960   26.7830  -11.3310 C   0  0  0  0  0  0  0  0  0  0  0  0
   -6.9030   28.5400  -12.5670 N   0  0  0  0  0  0  0  0  0  0  0  0
   -6.1200   25.3430  -11.6580 C   0  0  0  0  0  0  0  0  0  0  0  0
   -5.9930   24.3770  -10.4410 C   0  0  0  0  0  0  0  0  0  0  0  0
   -4.6140   24.0280  -10.1700 O   0  0  0  0  0  0  0  0  0  0  0  0
   -4.2250   23.6130   -8.8220 C   0  0  2  0  0  0  0  0  0  0  0  0
   -3.5590   22.2320   -8.9040 C   0  0  1  0  0  0  0  0  0  0  0  0
   -5.4320   23.4040   -7.8850 C   0  0  2  0  0  0  0  0  0  0  0  0
   -2.2100   22.0960   -8.2040 C   0  0  0  0  0  0  0  0  0  0  0  0
   -5.4630   24.1470   -6.6720 O   0  0  0  0  0  0  0  0  0  0  0  0
   -4.4450   21.2690   -8.3570 O   0  0  0  0  0  0  0  0  0  0  0  0
   -5.5150   21.9000   -7.6560 C   0  0  1  0  0  0  0  0  0  0  0  0
   -5.4920   21.5280   -6.2820 O   0  0  0  0  0  0  0  0  0  0  0  0
  1  2  1  0
  2  3  2  0
  2  4  1  0
  4  5  2  0
  3  6  1  0
  6  7  1  0
  5  8  1  0
  6  8  2  0
  7  9  1  0
  9 10  1  0
 10 11  1  0
 12 11  1  6
 12 13  1  0
 12 14  1  0
 13 15  1  1
 14 16  1  1
 13 17  1  0
 14 18  1  0
 17 18  1  0
 18 19  1  1
M  END
