x0910_0_A-x0685_1_A
     RDKit          3D

 19 20  0  0  0  0  0  0  0  0999 V2000
   -2.6910   14.1960   -1.8070 N   0  0  0  0  0  0  0  0  0  0  0  0
   -1.8840   14.4870   -0.7680 C   0  0  0  0  0  0  0  0  0  0  0  0
   -2.2300   14.8080    0.4640 N   0  0  0  0  0  0  0  0  0  0  0  0
   -0.5090   14.4910   -0.8610 N   0  0  0  0  0  0  0  0  0  0  0  0
    0.3160   14.2090   -1.9790 O   0  0  0  0  0  0  0  0  0  0  0  0
   -1.0800   15.0340    1.1850 N   0  0  0  0  0  0  0  0  0  0  0  0
   -0.0680   14.8470    0.3740 C   0  0  0  0  0  0  0  0  0  0  0  0
    0.5440   12.7410   -2.6500 S   0  0  0  0  0  0  0  0  0  0  0  0
   -0.1230   12.7710   -4.3270 C   0  0  0  0  0  0  0  0  0  0  0  0
    2.1010   12.3810   -2.7970 O   0  0  0  0  0  0  0  0  0  0  0  0
   -0.1780   11.5460   -1.8440 O   0  0  0  0  0  0  0  0  0  0  0  0
   -1.3760   11.9280   -4.5400 C   0  0  0  0  0  0  0  0  0  0  0  0
   -0.9760   10.5470   -4.8400 N   0  0  0  0  0  0  0  0  0  0  0  0
   -1.2730   10.0370   -6.2000 C   0  0  0  0  0  0  0  0  0  0  0  0
   -0.1400    9.1570   -6.7290 C   0  0  0  0  0  0  0  0  0  0  0  0
   -1.4890   11.1760   -7.2230 C   0  0  0  0  0  0  0  0  0  0  0  0
   -0.4870    8.4340   -8.0190 C   0  0  0  0  0  0  0  0  0  0  0  0
   -1.0880   10.8230   -8.6690 C   0  0  0  0  0  0  0  0  0  0  0  0
   -1.2170    9.3380   -9.0110 C   0  0  0  0  0  0  0  0  0  0  0  0
  1  2  1  0
  2  3  2  0
  2  4  1  0
  4  5  1  0
  3  6  1  0
  4  7  1  0
  6  7  2  0
  8  5  1  0
  8  9  1  0
  8 10  1  0
  8 11  1  0
  9 12  1  0
 12 13  1  0
 13 14  1  0
 14 15  1  0
 14 16  1  0
 15 17  1  0
 16 18  1  0
 17 19  1  0
 18 19  1  0
M  END
