x0910_1_A_α-x1018_0_A_α
     RDKit          3D

 10 11  0  0  0  0  0  0  0  0999 V2000
   -7.9260   13.9360    0.9810 N   0  0  0  0  0  0  0  0  0  0  0  0
   -6.7200   14.3800    0.5790 C   0  0  0  0  0  0  0  0  0  0  0  0
   -6.2710   14.1990   -0.6230 N   0  0  0  0  0  0  0  0  0  0  0  0
   -5.9360   15.0690    1.4520 N   0  0  0  0  0  0  0  0  0  0  0  0
   -4.9450   14.8240   -0.5740 C   0  0  2  0  0  0  0  0  0  0  0  0
   -4.8940   15.3960    0.7710 C   0  0  0  0  0  0  0  0  0  0  0  0
   -4.6090   15.7210   -1.6640 N   0  0  0  0  0  0  0  0  0  0  0  0
   -3.8760   13.8500   -0.7190 C   0  0  0  0  0  0  0  0  0  0  0  0
   -3.0210   14.1880   -1.6090 N   0  0  0  0  0  0  0  0  0  0  0  0
   -3.4890   15.4020   -2.1440 N   0  0  0  0  0  0  0  0  0  0  0  0
  1  2  1  0
  2  3  2  0
  2  4  1  0
  5  3  1  0
  4  6  2  0
  5  6  1  1
  5  7  1  0
  5  8  1  0
  8  9  2  0
  7 10  2  0
  9 10  1  0
M  END
