x0918_0_B-x0766_1_B
     RDKit          3D

 14 15  0  0  0  0  0  0  0  0999 V2000
   -3.4060   29.8650  -14.7180 N   0  0  0  0  0  0  0  0  0  0  0  0
   -4.4360   28.9960  -14.1730 C   0  0  1  0  0  0  0  0  0  0  0  0
   -4.2440   28.8790  -12.7010 C   0  0  0  0  0  0  0  0  0  0  0  0
   -5.8030   29.5260  -14.4770 C   0  0  0  0  0  0  0  0  0  0  0  0
   -6.8340   29.3290  -13.6370 C   0  0  0  0  0  0  0  0  0  0  0  0
   -5.2560   28.7030  -11.8570 C   0  0  0  0  0  0  0  0  0  0  0  0
   -6.6660   28.5600  -12.3220 C   0  0  2  0  0  0  0  0  0  0  0  0
   -6.9490   27.0440  -12.5050 C   0  0  2  0  0  0  0  0  0  0  0  0
   -7.6810   29.0520  -11.2840 C   0  0  0  0  0  0  0  0  0  0  0  0
   -7.3930   26.6740  -13.8950 C   0  0  0  0  0  0  0  0  0  0  0  0
   -7.9590   26.6440  -11.4220 C   0  0  0  0  0  0  0  0  0  0  0  0
   -8.7080   27.9260  -11.1040 C   0  0  0  0  0  0  0  0  0  0  0  0
   -8.5260   26.7930  -14.3310 O   0  0  0  0  0  0  0  0  0  0  0  0
   -6.4160   26.1830  -14.6770 O   0  0  0  0  0  0  0  0  0  0  0  0
  2  1  1  1
  2  3  1  0
  2  4  1  0
  4  5  2  0
  3  6  2  0
  7  5  1  6
  6  7  1  0
  7  8  1  0
  7  9  1  0
  8 10  1  6
  8 11  1  0
  9 12  1  0
 11 12  1  0
 10 13  2  0
 10 14  1  0
M  END
