x0910_1_A_α-6MEA_0_A_β
     RDKit          3D

 18 18  0  0  0  0  0  0  0  0999 V2000
   -7.6270   14.2530    1.0250 N   0  0  0  0  0  0  0  0  0  0  0  0
   -6.4180   14.6720    0.3890 C   0  0  0  0  0  0  0  0  0  0  0  0
   -6.0960   14.6630   -0.9200 N   0  0  0  0  0  0  0  0  0  0  0  0
   -5.3340   15.1730    1.0030 N   0  0  0  0  0  0  0  0  0  0  0  0
   -4.8600   15.1330   -1.1140 N   0  0  0  0  0  0  0  0  0  0  0  0
   -4.3690   15.4650    0.0790 C   0  0  0  0  0  0  0  0  0  0  0  0
   -4.1710   15.2440   -2.4380 C   0  0  0  0  0  0  0  0  0  0  0  0
   -2.7700   15.7930   -2.3110 C   0  0  0  0  0  0  0  0  0  0  0  0
   -2.0790   16.1880   -3.6220 C   0  0  0  0  0  0  0  0  0  0  0  0
   -2.0470   17.5160   -4.0830 O   0  0  0  0  0  0  0  0  0  0  0  0
   -1.5830   17.5400   -5.6520 P   0  0  0  0  0  0  0  0  0  0  0  0
   -1.1620   18.9970   -5.9270 O   0  0  0  0  0  0  0  0  0  0  0  0
   -0.0560   17.0380   -5.9970 O   0  0  0  0  0  0  0  0  0  0  0  0
   -2.6930   17.7250   -6.8500 O   0  0  0  0  0  0  0  0  0  0  0  0
   -0.9370   19.5080   -7.4790 P   0  0  0  0  0  0  0  0  0  0  0  0
   -1.8310   20.8240   -8.0690 O   0  0  0  0  0  0  0  0  0  0  0  0
    0.2070   20.4830   -7.2580 O   0  0  0  0  0  0  0  0  0  0  0  0
   -0.0360   18.7080   -8.5780 O   0  0  0  0  0  0  0  0  0  0  0  0
  1  2  1  0
  2  3  2  0
  2  4  1  0
  3  5  1  0
  4  6  2  0
  5  6  1  0
  5  7  1  0
  7  8  1  0
  8  9  1  0
  9 10  1  0
 10 11  1  0
 11 12  1  0
 11 13  1  0
 11 14  1  0
 12 15  1  0
 15 16  1  0
 15 17  1  0
 15 18  1  0
M  CHG  2  14  -1  17  -1
M  END
