x0910_2_B_α-x0128_0_A_α
     RDKit          3D

 28 30  0  0  0  0  0  0  0  0999 V2000
  -11.9130   21.3370   -3.2830 N   0  0  0  0  0  0  0  0  0  0  0  0
  -12.2120   22.1860   -2.2870 C   0  0  0  0  0  0  0  0  0  0  0  0
  -11.9460   23.4670   -2.2240 N   0  0  0  0  0  0  0  0  0  0  0  0
  -12.8630   21.8030   -1.1520 N   0  0  0  0  0  0  0  0  0  0  0  0
  -13.3320   20.4680   -0.8170 C   0  0  0  0  0  0  0  0  0  0  0  0
  -12.4290   23.9430   -1.0330 N   0  0  0  0  0  0  0  0  0  0  0  0
  -12.9790   22.9380   -0.3960 C   0  0  0  0  0  0  0  0  0  0  0  0
  -12.2650   19.5730   -0.1530 C   0  0  0  0  0  0  0  0  0  0  0  0
  -11.7970   18.3070   -0.8950 C   0  0  0  0  0  0  0  0  0  0  0  0
  -10.5090   17.7200   -0.2830 C   0  0  0  0  0  0  0  0  0  0  0  0
  -10.7050   16.4700    0.6040 C   0  0  0  0  0  0  0  0  0  0  0  0
   -9.4400   15.6380    0.9040 C   0  0  0  0  0  0  0  0  0  0  0  0
   -9.0510   15.7240    2.3180 N   0  0  0  0  0  0  0  0  0  0  0  0
   -7.9870   15.2340    2.9010 C   0  0  0  0  0  0  0  0  0  0  0  0
   -6.9590   14.5060    2.3240 N   0  0  0  0  0  0  0  0  0  0  0  0
   -7.7050   15.3860    4.2420 N   0  0  0  0  0  0  0  0  0  0  0  0
   -6.2020   14.7700    1.1640 C   0  0  0  0  0  0  0  0  0  0  0  0
   -8.4750   16.1100    5.1980 C   0  0  0  0  0  0  0  0  0  0  0  0
   -6.8680   14.7260   -0.0690 C   0  0  0  0  0  0  0  0  0  0  0  0
   -4.8310   15.0790    1.1510 C   0  0  0  0  0  0  0  0  0  0  0  0
   -9.1870   17.2710    4.8890 C   0  0  0  0  0  0  0  0  0  0  0  0
   -8.5540   15.6730    6.5240 C   0  0  0  0  0  0  0  0  0  0  0  0
   -6.2050   14.9840   -1.2700 C   0  0  0  0  0  0  0  0  0  0  0  0
   -4.1630   15.3370   -0.0530 C   0  0  0  0  0  0  0  0  0  0  0  0
   -9.9340   17.9840    5.7640 N   0  0  0  0  0  0  0  0  0  0  0  0
   -9.3170   16.3900    7.4540 C   0  0  0  0  0  0  0  0  0  0  0  0
   -4.8490   15.2910   -1.2600 C   0  0  0  0  0  0  0  0  0  0  0  0
   -9.9810   17.5290    7.0270 C   0  0  0  0  0  0  0  0  0  0  0  0
  1  2  1  0
  2  3  2  0
  2  4  1  0
  4  5  1  0
  3  6  1  0
  4  7  1  0
  6  7  2  0
  5  8  1  0
  8  9  1  0
  9 10  1  0
 10 11  1  0
 11 12  1  0
 12 13  1  0
 13 14  2  3
 14 15  1  0
 14 16  1  0
 15 17  1  0
 16 18  1  0
 17 19  2  0
 17 20  1  0
 18 21  2  0
 18 22  1  0
 19 23  1  0
 20 24  2  0
 21 25  1  0
 22 26  2  0
 23 27  2  0
 24 27  1  0
 25 28  2  0
 26 28  1  0
M  END
