x0918_0_B_α-5CB5_0_A_α
     RDKit          3D

 19 20  0  0  0  0  0  0  0  0999 V2000
   -3.2440   29.6420  -14.3290 N   0  0  0  0  0  0  0  0  0  0  0  0
   -4.4740   29.3310  -13.7430 C   0  0  0  0  0  0  0  0  0  0  0  0
   -4.6240   28.2310  -12.8890 C   0  0  0  0  0  0  0  0  0  0  0  0
   -5.5860   30.1190  -14.0060 C   0  0  0  0  0  0  0  0  0  0  0  0
   -6.7860   29.7950  -13.4150 C   0  0  0  0  0  0  0  0  0  0  0  0
   -5.8850   27.9620  -12.3380 C   0  0  0  0  0  0  0  0  0  0  0  0
   -6.1610   26.7740  -11.4320 C   0  0  0  0  0  0  0  0  0  0  0  0
   -6.9550   28.7440  -12.5940 N   0  0  0  0  0  0  0  0  0  0  0  0
   -5.2220   25.5460  -11.5140 C   0  0  0  0  0  0  0  0  0  0  0  0
   -5.5200   24.3990  -10.5200 C   0  0  0  0  0  0  0  0  0  0  0  0
   -4.3320   23.6350  -10.2470 O   0  0  0  0  0  0  0  0  0  0  0  0
   -4.0150   23.3620   -8.8630 C   0  0  2  0  0  0  0  0  0  0  0  0
   -3.3310   21.9770   -8.7470 C   0  0  1  0  0  0  0  0  0  0  0  0
   -5.2930   23.1690   -8.0420 C   0  0  2  0  0  0  0  0  0  0  0  0
   -1.9280   21.9600   -8.1720 C   0  0  0  0  0  0  0  0  0  0  0  0
   -5.7510   24.3050   -7.3470 O   0  0  0  0  0  0  0  0  0  0  0  0
   -4.1380   21.1630   -7.8940 O   0  0  0  0  0  0  0  0  0  0  0  0
   -4.9520   22.0210   -7.1130 C   0  0  2  0  0  0  0  0  0  0  0  0
   -6.1150   21.3690   -6.6140 O   0  0  0  0  0  0  0  0  0  0  0  0
  1  2  1  0
  2  3  2  0
  2  4  1  0
  4  5  2  0
  3  6  1  0
  6  7  1  0
  5  8  1  0
  6  8  2  0
  7  9  1  0
  9 10  1  0
 10 11  1  0
 12 11  1  6
 12 13  1  0
 12 14  1  0
 13 15  1  1
 14 16  1  1
 13 17  1  0
 14 18  1  0
 17 18  1  0
 18 19  1  6
M  END
