x0910_0_A_α-x0844_0_A_α
     RDKit          3D

 13 14  0  0  0  0  0  0  0  0999 V2000
   -2.9980   14.4840   -1.2990 N   0  0  0  0  0  0  0  0  0  0  0  0
   -1.8920   14.6110   -0.5290 C   0  0  0  0  0  0  0  0  0  0  0  0
   -1.9670   14.5200    0.8330 N   0  0  0  0  0  0  0  0  0  0  0  0
   -4.1040   15.3760   -0.9650 C   0  0  2  0  0  0  0  0  0  0  0  0
   -0.6500   14.8350   -0.8710 N   0  0  0  0  0  0  0  0  0  0  0  0
   -3.9210   15.6980    0.4890 C   0  0  0  0  0  0  0  0  0  0  0  0
   -5.4740   14.7780   -1.3150 C   0  0  0  0  0  0  0  0  0  0  0  0
   -0.7640   14.6910    1.4040 N   0  0  0  0  0  0  0  0  0  0  0  0
   -0.0030   14.8820    0.3280 C   0  0  0  0  0  0  0  0  0  0  0  0
   -4.7820   15.3380    1.4230 C   0  0  0  0  0  0  0  0  0  0  0  0
   -6.4480   14.7240   -0.1550 C   0  0  0  0  0  0  0  0  0  0  0  0
   -7.6680   14.7480   -0.2970 O   0  0  0  0  0  0  0  0  0  0  0  0
   -5.8950   14.6530    1.0830 N   0  0  0  0  0  0  0  0  0  0  0  0
  1  2  1  0
  2  3  1  0
  4  1  1  1
  2  5  2  0
  4  6  1  0
  4  7  1  0
  3  8  1  0
  5  9  1  0
  8  9  2  0
  6 10  2  0
  7 11  1  0
 11 12  2  0
 10 13  1  0
 11 13  1  0
M  END
