x0910_0_A-x0587_0_A
     RDKit          3D

 18 19  0  0  0  0  0  0  0  0999 V2000
   -3.1120   15.1410   -1.4310 N   0  0  0  0  0  0  0  0  0  0  0  0
   -4.4170   14.4720   -1.5420 C   0  0  0  0  0  0  0  0  0  0  0  0
   -4.1350   13.1610   -1.8090 F   0  0  0  0  0  0  0  0  0  0  0  0
   -2.1350   14.8360   -0.5420 C   0  0  0  0  0  0  0  0  0  0  0  0
   -4.9690   14.9280   -2.7000 F   0  0  0  0  0  0  0  0  0  0  0  0
   -2.3200   14.9270    0.8130 N   0  0  0  0  0  0  0  0  0  0  0  0
   -0.9010   14.4440   -0.7680 N   0  0  0  0  0  0  0  0  0  0  0  0
   -5.4120   14.5820   -0.3440 C   0  0  0  0  0  0  0  0  0  0  0  0
   -1.2010   14.5940    1.4830 N   0  0  0  0  0  0  0  0  0  0  0  0
   -0.3740   14.3110    0.4810 C   0  0  0  0  0  0  0  0  0  0  0  0
   -6.7450   14.4720   -0.6450 N   0  0  0  0  0  0  0  0  0  0  0  0
   -4.9650   14.7750    0.9190 N   0  0  0  0  0  0  0  0  0  0  0  0
   -7.6290   14.5690    0.3740 C   0  0  0  0  0  0  0  0  0  0  0  0
   -5.8990   14.8640    1.8980 C   0  0  0  0  0  0  0  0  0  0  0  0
   -7.2620   14.7710    1.6850 C   0  0  0  0  0  0  0  0  0  0  0  0
   -8.2120   14.8980    2.8060 C   0  0  0  0  0  0  0  0  0  0  0  0
   -7.7050   14.8920    4.0710 N   0  0  0  0  0  0  0  0  0  0  0  0
   -9.4190   15.0220    2.6060 O   0  0  0  0  0  0  0  0  0  0  0  0
  1  2  1  0
  2  3  1  0
  1  4  1  0
  2  5  1  0
  4  6  1  0
  4  7  2  0
  2  8  1  0
  6  9  1  0
  7 10  1  0
  9 10  2  0
  8 11  2  0
  8 12  1  0
 11 13  1  0
 12 14  2  0
 13 15  2  0
 14 15  1  0
 15 16  1  0
 16 17  1  0
 16 18  2  0
M  END
