x0918_3_A_α-x0814_0_B_α
     RDKit          3D

 25 26  0  0  0  0  0  0  0  0999 V2000
   15.8840    6.2460    8.8060 N   0  0  0  0  0  0  0  0  0  0  0  0
   15.4710    4.9850    9.2780 C   0  0  0  0  0  0  0  0  0  0  0  0
   15.0920    4.7850   10.6110 C   0  0  0  0  0  0  0  0  0  0  0  0
   15.4380    3.8940    8.4030 C   0  0  0  0  0  0  0  0  0  0  0  0
   15.0820    5.8670   11.6690 C   0  0  0  0  0  0  0  0  0  0  0  0
   15.0340    2.6580    8.8660 C   0  0  0  0  0  0  0  0  0  0  0  0
   14.7040    3.4880   10.9700 C   0  0  0  0  0  0  0  0  0  0  0  0
   14.3280    7.1500   11.2580 C   0  0  0  0  0  0  0  0  0  0  0  0
   14.6650    2.4270   10.1380 N   0  0  0  0  0  0  0  0  0  0  0  0
   14.7770    8.3830   12.0590 C   0  0  0  0  0  0  0  0  0  0  0  0
   15.2320    9.5120   11.1330 C   0  0  0  0  0  0  0  0  0  0  0  0
   14.2930   10.7550   11.0870 C   0  0  1  0  0  0  0  0  0  0  0  0
   13.4490   10.7600   12.3370 C   0  0  0  0  0  0  0  0  0  0  0  0
   14.8910   12.1820   10.8280 C   0  0  0  0  0  0  0  0  0  0  0  0
   13.1150   12.1280   12.6600 N   0  0  0  0  0  0  0  0  0  0  0  0
   15.3500   12.9730   12.0560 C   0  0  1  0  0  0  0  0  0  0  0  0
   15.8710   14.3860   11.7970 C   0  0  0  0  0  0  0  0  0  0  0  0
   11.5940   12.4840   13.1270 S   0  0  0  0  0  0  0  0  0  0  0  0
   14.1950   13.0850   13.0250 C   0  0  2  0  0  0  0  0  0  0  0  0
   14.6830   12.8190   14.4430 C   0  0  0  0  0  0  0  0  0  0  0  0
   11.5150   13.9060   12.8860 O   0  0  0  0  0  0  0  0  0  0  0  0
   17.1360   14.5500   11.3340 N   0  0  0  0  0  0  0  0  0  0  0  0
   10.6380   11.5320   12.5810 O   0  0  0  0  0  0  0  0  0  0  0  0
   15.1840   15.3850   12.0070 O   0  0  0  0  0  0  0  0  0  0  0  0
   11.7590   12.1660   14.8780 C   0  0  0  0  0  0  0  0  0  0  0  0
  1  2  1  0
  2  3  2  0
  2  4  1  0
  3  5  1  0
  4  6  2  0
  3  7  1  0
  5  8  1  0
  6  9  1  0
  7  9  2  0
  8 10  1  0
 10 11  1  0
 12 11  1  1
 12 13  1  0
 12 14  1  0
 13 15  1  0
 14 16  1  0
 16 17  1  6
 15 18  1  0
 15 19  1  0
 16 19  1  0
 19 20  1  1
 18 21  2  0
 17 22  1  0
 18 23  2  0
 17 24  2  0
 18 25  1  0
M  END
