x0910_1_A_α-x0662_0_A_β
     RDKit          3D

 21 22  0  0  0  0  0  0  0  0999 V2000
   -7.7370   14.2850    1.1540 N   0  0  0  0  0  0  0  0  0  0  0  0
   -6.6250   14.6260    0.5030 C   0  0  0  0  0  0  0  0  0  0  0  0
   -6.4330   14.5770   -0.8100 N   0  0  0  0  0  0  0  0  0  0  0  0
   -5.5730   15.0680    1.2320 N   0  0  0  0  0  0  0  0  0  0  0  0
   -5.1540   15.0170   -0.8990 N   0  0  0  0  0  0  0  0  0  0  0  0
   -4.6580   15.3130    0.3260 C   0  0  0  0  0  0  0  0  0  0  0  0
   -4.4890   15.1100   -2.1780 C   0  0  0  0  0  0  0  0  0  0  0  0
   -3.0950   14.4830   -2.2050 C   0  0  0  0  0  0  0  0  0  0  0  0
   -2.8000   13.6620   -3.4670 C   0  0  0  0  0  0  0  0  0  0  0  0
   -2.2450   12.2670   -3.1350 C   0  0  0  0  0  0  0  0  0  0  0  0
   -0.8370   11.9980   -3.6860 C   0  0  0  0  0  0  0  0  0  0  0  0
   -0.8850   11.2500   -4.9410 N   0  0  0  0  0  0  0  0  0  0  0  0
    0.0880   11.3980   -5.7800 C   0  0  0  0  0  0  0  0  0  0  0  0
    1.1280   12.0840   -5.7490 O   0  0  0  0  0  0  0  0  0  0  0  0
    0.0020   10.6040   -7.0690 C   0  0  0  0  0  0  0  0  0  0  0  0
    0.8070   10.8690   -8.1760 C   0  0  0  0  0  0  0  0  0  0  0  0
   -0.9220    9.5580   -7.1670 C   0  0  0  0  0  0  0  0  0  0  0  0
    0.7140   10.1370   -9.3610 C   0  0  0  0  0  0  0  0  0  0  0  0
   -1.0330    8.8070   -8.3440 C   0  0  0  0  0  0  0  0  0  0  0  0
    1.5430   10.4490  -10.4510 N   0  0  0  0  0  0  0  0  0  0  0  0
   -0.2130    9.1010   -9.4380 C   0  0  0  0  0  0  0  0  0  0  0  0
  1  2  1  0
  2  3  2  0
  2  4  1  0
  3  5  1  0
  4  6  2  0
  5  6  1  0
  5  7  1  0
  7  8  1  0
  8  9  1  0
  9 10  1  0
 10 11  1  0
 11 12  1  0
 12 13  2  3
 13 14  1  0
 13 15  1  0
 15 16  2  0
 15 17  1  0
 16 18  1  0
 17 19  2  0
 18 20  1  0
 18 21  2  0
 19 21  1  0
M  CHG  1  14  -1
M  END
