x0918_1_B-x0417_0_B
     RDKit          3D

 23 25  0  0  0  0  0  0  0  0999 V2000
   -1.8440   25.9690  -11.9380 N   0  0  0  0  0  0  0  0  0  0  0  0
   -2.6900   26.0930  -13.0440 C   0  0  0  0  0  0  0  0  0  0  0  0
   -2.0940   25.9680  -14.2710 C   0  0  0  0  0  0  0  0  0  0  0  0
   -4.0750   26.3470  -13.0250 C   0  0  0  0  0  0  0  0  0  0  0  0
   -4.8470   26.6060  -11.8020 C   0  0  0  0  0  0  0  0  0  0  0  0
   -4.7510   26.3950  -14.2270 C   0  0  0  0  0  0  0  0  0  0  0  0
   -2.8490   26.0530  -15.4080 C   0  0  0  0  0  0  0  0  0  0  0  0
   -4.5950   28.0370  -11.5550 O   0  0  0  0  0  0  0  0  0  0  0  0
   -4.1750   26.2450  -15.4260 N   0  0  0  0  0  0  0  0  0  0  0  0
   -5.5330   28.7890  -12.1690 C   0  0  0  0  0  0  0  0  0  0  0  0
   -6.7630   28.7060  -11.5220 C   0  0  0  0  0  0  0  0  0  0  0  0
   -5.3310   29.5740  -13.3400 C   0  0  0  0  0  0  0  0  0  0  0  0
   -4.0980   29.7460  -14.0760 N   0  0  0  0  0  0  0  0  0  0  0  0
   -6.4730   30.2420  -13.8030 C   0  0  0  0  0  0  0  0  0  0  0  0
   -7.8550   29.3830  -12.0070 C   0  0  0  0  0  0  0  0  0  0  0  0
   -3.1190   28.7170  -14.3180 C   0  0  0  0  0  0  0  0  0  0  0  0
   -3.7410   30.8890  -14.8160 C   0  0  0  0  0  0  0  0  0  0  0  0
   -7.7110   30.1480  -13.1510 C   0  0  0  0  0  0  0  0  0  0  0  0
   -4.2650   31.9800  -14.8400 O   0  0  0  0  0  0  0  0  0  0  0  0
   -2.5140   30.5770  -15.6840 C   0  0  1  0  0  0  0  0  0  0  0  0
   -2.5300   29.0590  -15.6780 C   0  0  0  0  0  0  0  0  0  0  0  0
   -2.7290   31.1930  -17.0130 N   0  0  0  0  0  0  0  0  0  0  0  0
   -1.5000   31.7510  -17.5630 C   0  0  0  0  0  0  0  0  0  0  0  0
  1  2  1  0
  2  3  2  0
  2  4  1  0
  4  5  1  0
  4  6  2  0
  3  7  1  0
  5  8  1  0
  6  9  1  0
  7  9  2  0
  8 10  1  0
 10 11  2  0
 10 12  1  0
 12 13  1  0
 12 14  2  0
 11 15  1  0
 13 16  1  0
 13 17  1  0
 14 18  1  0
 15 18  2  0
 17 19  2  0
 17 20  1  0
 16 21  1  0
 20 21  1  0
 20 22  1  6
 22 23  1  0
M  END
