x0910_2_B_α-x0574_0_A_α
     RDKit          3D

 25 27  0  0  0  0  0  0  0  0999 V2000
  -14.2130   21.6880   -3.2790 N   0  0  0  0  0  0  0  0  0  0  0  0
  -13.6530   22.4040   -2.2980 C   0  0  0  0  0  0  0  0  0  0  0  0
  -12.4400   22.1220   -1.8320 N   0  0  0  0  0  0  0  0  0  0  0  0
  -14.1440   23.4220   -1.6580 N   0  0  0  0  0  0  0  0  0  0  0  0
  -11.6600   21.0310   -2.3340 C   0  0  0  0  0  0  0  0  0  0  0  0
  -12.0580   22.9710   -0.8490 N   0  0  0  0  0  0  0  0  0  0  0  0
  -13.1500   23.7430   -0.7830 C   0  0  0  0  0  0  0  0  0  0  0  0
  -11.6120   19.8070   -1.4010 C   0  0  0  0  0  0  0  0  0  0  0  0
  -10.9910   18.5460   -2.0420 C   0  0  0  0  0  0  0  0  0  0  0  0
  -10.8330   17.4110   -1.0310 C   0  0  0  0  0  0  0  0  0  0  0  0
   -9.8520   16.3070   -1.4690 C   0  0  0  0  0  0  0  0  0  0  0  0
   -8.5670   16.2490   -0.6440 C   0  0  0  0  0  0  0  0  0  0  0  0
   -7.8540   14.8820   -0.5020 C   0  0  0  0  0  0  0  0  0  0  0  0
   -6.8100   14.8990    0.5670 N   0  0  0  0  0  0  0  0  0  0  0  0
   -7.1750   14.4600    1.9310 C   0  0  0  0  0  0  0  0  0  0  0  0
   -5.4170   14.8540    0.3230 C   0  0  0  0  0  0  0  0  0  0  0  0
   -4.4780   14.5820    1.3210 C   0  0  0  0  0  0  0  0  0  0  0  0
   -4.9390   15.0900   -0.9720 C   0  0  0  0  0  0  0  0  0  0  0  0
   -3.1050   14.5310    1.0340 C   0  0  0  0  0  0  0  0  0  0  0  0
   -3.5710   15.0470   -1.2900 C   0  0  0  0  0  0  0  0  0  0  0  0
   -2.6670   14.7560   -0.2590 C   0  0  0  0  0  0  0  0  0  0  0  0
   -2.1220   14.2680    1.9470 N   0  0  0  0  0  0  0  0  0  0  0  0
   -0.9680   14.2660    1.3880 C   0  0  0  0  0  0  0  0  0  0  0  0
   -0.9420   14.6050   -0.2860 S   0  0  0  0  0  0  0  0  0  0  0  0
    0.1100   14.0080    2.1110 N   0  0  0  0  0  0  0  0  0  0  0  0
  1  2  1  0
  2  3  1  0
  2  4  2  0
  3  5  1  0
  3  6  1  0
  4  7  1  0
  6  7  2  0
  5  8  1  0
  8  9  1  0
  9 10  1  0
 10 11  1  0
 11 12  1  0
 12 13  1  0
 13 14  1  0
 14 15  1  0
 14 16  1  0
 16 17  2  0
 16 18  1  0
 17 19  1  0
 18 20  2  0
 19 21  2  0
 20 21  1  0
 19 22  1  0
 22 23  2  0
 21 24  1  0
 23 24  1  0
 23 25  1  0
M  END
