x0910_0_A-x0689_0_A
     RDKit          3D

  8  8  0  0  0  0  0  0  0  0999 V2000
   -2.7010   14.4860   -1.6060 N   0  0  0  0  0  0  0  0  0  0  0  0
   -1.8300   14.6490   -0.5920 C   0  0  0  0  0  0  0  0  0  0  0  0
   -2.2110   14.6380    0.7490 N   0  0  0  0  0  0  0  0  0  0  0  0
   -0.5370   14.8420   -0.6800 N   0  0  0  0  0  0  0  0  0  0  0  0
   -3.5420   14.4510    1.2360 N   0  0  0  0  0  0  0  0  0  0  0  0
   -1.1440   14.8270    1.5240 N   0  0  0  0  0  0  0  0  0  0  0  0
   -0.1680   14.9490    0.6260 C   0  0  0  0  0  0  0  0  0  0  0  0
   -4.2880   15.6910    1.2120 C   0  0  0  0  0  0  0  0  0  0  0  0
  1  2  1  0
  2  3  1  0
  2  4  2  0
  3  5  1  0
  3  6  1  0
  4  7  1  0
  6  7  2  0
  5  8  1  0
M  END
