x0910_1_A-x0837_0_A
     RDKit          3D

  7  7  0  0  0  0  0  0  0  0999 V2000
   -7.7260   14.3730    0.9660 N   0  0  0  0  0  0  0  0  0  0  0  0
   -6.5570   14.6450    0.3890 C   0  0  0  0  0  0  0  0  0  0  0  0
   -6.2640   14.5290   -0.9000 N   0  0  0  0  0  0  0  0  0  0  0  0
   -5.5420   15.0840    1.1770 N   0  0  0  0  0  0  0  0  0  0  0  0
   -4.9770   14.9140   -0.9070 N   0  0  0  0  0  0  0  0  0  0  0  0
   -4.5570   15.2530    0.3340 C   0  0  0  0  0  0  0  0  0  0  0  0
   -3.8240   14.9650   -2.5180 I   0  0  0  0  0  0  0  0  0  0  0  0
  1  2  1  0
  2  3  2  0
  2  4  1  0
  3  5  1  0
  4  6  2  0
  5  6  1  0
  5  7  1  0
M  END
