x0910_0_A_α-x0837_0_A_α
     RDKit          3D

 13 14  0  0  0  0  0  0  0  0999 V2000
   -2.9800   14.5150   -1.2550 N   0  0  0  0  0  0  0  0  0  0  0  0
   -1.8680   14.6330   -0.5010 C   0  0  0  0  0  0  0  0  0  0  0  0
   -1.9230   14.5180    0.8620 N   0  0  0  0  0  0  0  0  0  0  0  0
   -4.1090   15.3540   -0.8610 C   0  0  2  0  0  0  0  0  0  0  0  0
   -0.6330   14.8670   -0.8520 N   0  0  0  0  0  0  0  0  0  0  0  0
   -3.8690   15.7120    0.5790 C   0  0  0  0  0  0  0  0  0  0  0  0
   -5.4590   14.6830   -1.1290 C   0  0  0  0  0  0  0  0  0  0  0  0
   -0.7190   14.6820    1.4220 N   0  0  0  0  0  0  0  0  0  0  0  0
    0.0290   14.8970    0.3380 C   0  0  0  0  0  0  0  0  0  0  0  0
   -4.6960   15.3940    1.5550 C   0  0  0  0  0  0  0  0  0  0  0  0
   -6.4070   14.6910    0.0510 C   0  0  0  0  0  0  0  0  0  0  0  0
   -7.6310   14.6830   -0.0680 O   0  0  0  0  0  0  0  0  0  0  0  0
   -5.8310   14.7140    1.2840 N   0  0  0  0  0  0  0  0  0  0  0  0
  1  2  1  0
  2  3  1  0
  4  1  1  1
  2  5  2  0
  4  6  1  0
  4  7  1  0
  3  8  1  0
  5  9  1  0
  8  9  2  0
  6 10  2  0
  7 11  1  0
 11 12  2  0
 10 13  1  0
 11 13  1  0
M  END
