x0918_4_B_α-x0158_0_B_α
     RDKit          3D

 23 24  0  0  0  0  0  0  0  0999 V2000
   13.5090   23.3290   13.5460 N   0  0  0  0  0  0  0  0  0  0  0  0
   13.2750   21.9620   13.3550 C   0  0  0  0  0  0  0  0  0  0  0  0
   14.2130   21.1600   12.7280 C   0  0  0  0  0  0  0  0  0  0  0  0
   12.1000   21.3770   13.7880 C   0  0  0  0  0  0  0  0  0  0  0  0
   11.9050   20.0190   13.5790 C   0  0  0  0  0  0  0  0  0  0  0  0
   13.9430   19.8050   12.5610 C   0  0  0  0  0  0  0  0  0  0  0  0
   14.9480   18.9210   11.9100 C   0  0  0  0  0  0  0  0  0  0  0  0
   12.8020   19.2150   12.9730 N   0  0  0  0  0  0  0  0  0  0  0  0
   15.3490   17.7990   12.8560 C   0  0  0  0  0  0  0  0  0  0  0  0
   16.6240   17.0980   12.4140 C   0  0  2  0  0  0  0  0  0  0  0  0
   17.3000   17.7830   11.2310 C   0  0  0  0  0  0  0  0  0  0  0  0
   16.2660   15.7400   12.1010 O   0  0  0  0  0  0  0  0  0  0  0  0
   15.9410   14.9790   13.1870 C   0  0  0  0  0  0  0  0  0  0  0  0
   15.7820   15.4310   14.3080 O   0  0  0  0  0  0  0  0  0  0  0  0
   15.8300   13.5050   12.7720 C   0  0  0  0  0  0  0  0  0  0  0  0
   14.5140   12.8870   13.0720 N   0  0  0  0  0  0  0  0  0  0  0  0
   14.2100   11.6720   12.3140 C   0  0  0  0  0  0  0  0  0  0  0  0
   13.4270   13.8210   12.8620 C   0  0  0  0  0  0  0  0  0  0  0  0
   13.1460   10.7790   12.9230 C   0  0  0  0  0  0  0  0  0  0  0  0
   12.0900   13.4240   13.4310 C   0  0  0  0  0  0  0  0  0  0  0  0
   11.7170   11.6720   13.4900 S   0  0  0  0  0  0  0  0  0  0  0  0
   11.5000   11.3030   14.8770 O   0  0  0  0  0  0  0  0  0  0  0  0
   10.6350   11.4310   12.5540 O   0  0  0  0  0  0  0  0  0  0  0  0
  1  2  1  0
  2  3  2  0
  2  4  1  0
  4  5  2  0
  3  6  1  0
  6  7  1  0
  5  8  1  0
  6  8  2  0
  7  9  1  0
  9 10  1  0
 10 11  1  6
 10 12  1  0
 12 13  1  0
 13 14  2  0
 13 15  1  0
 15 16  1  0
 16 17  1  0
 16 18  1  0
 17 19  1  0
 18 20  1  0
 21 19  1  0
 20 21  1  0
 21 22  2  0
 21 23  2  0
M  END
