x0918_1_B_α-x0766_1_B_α
     RDKit          3D

 20 22  0  0  0  0  0  0  0  0999 V2000
   -1.5150   26.6500  -12.0540 N   0  0  0  0  0  0  0  0  0  0  0  0
   -2.3690   25.7880  -12.8100 C   0  0  0  0  0  0  0  0  0  0  0  0
   -2.4730   26.3210  -14.2020 C   0  0  0  0  0  0  0  0  0  0  0  0
   -3.7140   25.4470  -12.2060 C   0  0  0  0  0  0  0  0  0  0  0  0
   -4.8310   25.5500  -12.9220 C   0  0  0  0  0  0  0  0  0  0  0  0
   -3.6640   26.3930  -14.8210 C   0  0  0  0  0  0  0  0  0  0  0  0
   -4.8550   25.9870  -14.2220 N   0  0  0  0  0  0  0  0  0  0  0  0
   -6.0680   26.5260  -14.6800 O   0  0  0  0  0  0  0  0  0  0  0  0
   -7.1080   26.6670  -13.7650 C   0  0  0  0  0  0  0  0  0  0  0  0
   -8.3040   26.6410  -14.0540 O   0  0  0  0  0  0  0  0  0  0  0  0
   -6.6560   26.8800  -12.3140 C   0  0  2  0  0  0  0  0  0  0  0  0
   -7.7200   26.4290  -11.3180 C   0  0  0  0  0  0  0  0  0  0  0  0
   -6.3870   28.3300  -11.9110 C   0  0  2  0  0  0  0  0  0  0  0  0
   -8.6130   27.6490  -11.1300 C   0  0  0  0  0  0  0  0  0  0  0  0
   -7.7430   28.8710  -11.4460 C   0  0  0  0  0  0  0  0  0  0  0  0
   -5.6810   29.1360  -12.9530 C   0  0  0  0  0  0  0  0  0  0  0  0
   -4.3040   29.2150  -13.0600 C   0  0  0  0  0  0  0  0  0  0  0  0
   -6.3090   29.9220  -13.9740 C   0  0  0  0  0  0  0  0  0  0  0  0
   -5.4060   30.5480  -14.7990 C   0  0  0  0  0  0  0  0  0  0  0  0
   -3.7970   30.2060  -14.3610 S   0  0  0  0  0  0  0  0  0  0  0  0
  1  2  1  0
  2  3  1  0
  2  4  1  0
  4  5  2  0
  3  6  2  0
  5  7  1  0
  6  7  1  0
  7  8  1  0
  8  9  1  0
  9 10  2  0
 11  9  1  6
 11 12  1  0
 11 13  1  0
 12 14  1  0
 13 15  1  0
 14 15  1  0
 13 16  1  6
 16 17  2  0
 16 18  1  0
 18 19  2  0
 17 20  1  0
 19 20  1  0
M  END
