x0910_0_A_α-x0969_0_A_α
     RDKit          3D

 15 17  0  0  0  0  0  0  0  0999 V2000
   -2.2690   12.8420   -1.5380 N   0  0  0  0  0  0  0  0  0  0  0  0
   -1.8280   13.7390   -0.6380 C   0  0  0  0  0  0  0  0  0  0  0  0
   -2.7580   14.7290    0.0160 C   0  0  1  0  0  0  0  0  0  0  0  0
   -0.5860   13.8810   -0.3000 N   0  0  0  0  0  0  0  0  0  0  0  0
   -1.7470   15.4540    0.8520 N   0  0  0  0  0  0  0  0  0  0  0  0
   -0.5970   14.9000    0.5980 C   0  0  0  0  0  0  0  0  0  0  0  0
   -3.3160   15.3610   -1.2500 C   0  0  0  0  0  0  0  0  0  0  0  0
   -3.8890   14.1840    0.9480 C   0  0  0  0  0  0  0  0  0  0  0  0
   -5.2260   14.8320    0.7200 N   0  0  0  0  0  0  0  0  0  0  0  0
   -4.6150   15.3220   -1.5610 C   0  0  0  0  0  0  0  0  0  0  0  0
   -6.4200   14.2710    1.3220 C   0  0  1  0  0  0  0  0  0  0  0  0
   -5.5690   14.6600   -0.6670 C   0  0  2  0  0  0  0  0  0  0  0  0
   -6.7500   14.8230    2.5930 N   0  0  0  0  0  0  0  0  0  0  0  0
   -7.5500   14.5720    0.4440 N   0  0  0  0  0  0  0  0  0  0  0  0
   -6.9530   15.0940   -0.7960 N   0  0  0  0  0  0  0  0  0  0  0  0
  1  2  1  0
  2  3  1  0
  2  4  2  0
  3  5  1  0
  4  6  1  0
  5  6  2  0
  3  7  1  6
  3  8  1  0
  8  9  1  0
  7 10  2  0
  9 11  1  0
  9 12  1  0
 12 10  1  6
 11 13  1  1
 11 14  1  0
 12 15  1  0
 14 15  1  0
M  END
