x0918_1_B_α-x0417_0_B_α
     RDKit          3D

 23 25  0  0  0  0  0  0  0  0999 V2000
   -1.8500   25.9620  -11.9440 N   0  0  0  0  0  0  0  0  0  0  0  0
   -2.6890   26.0930  -13.0550 C   0  0  0  0  0  0  0  0  0  0  0  0
   -2.0890   25.9730  -14.2830 C   0  0  0  0  0  0  0  0  0  0  0  0
   -4.0730   26.3490  -13.0360 C   0  0  0  0  0  0  0  0  0  0  0  0
   -4.8350   26.6030  -11.8070 C   0  0  0  0  0  0  0  0  0  0  0  0
   -4.7520   26.4020  -14.2400 C   0  0  0  0  0  0  0  0  0  0  0  0
   -2.8420   26.0630  -15.4230 C   0  0  0  0  0  0  0  0  0  0  0  0
   -4.5840   28.0390  -11.5710 O   0  0  0  0  0  0  0  0  0  0  0  0
   -4.1720   26.2550  -15.4410 N   0  0  0  0  0  0  0  0  0  0  0  0
   -5.5250   28.7870  -12.1810 C   0  0  0  0  0  0  0  0  0  0  0  0
   -6.7570   28.6970  -11.5330 C   0  0  0  0  0  0  0  0  0  0  0  0
   -5.3270   29.5790  -13.3500 C   0  0  0  0  0  0  0  0  0  0  0  0
   -4.0950   29.7550  -14.0820 N   0  0  0  0  0  0  0  0  0  0  0  0
   -6.4680   30.2430  -13.8110 C   0  0  0  0  0  0  0  0  0  0  0  0
   -7.8450   29.3700  -12.0150 C   0  0  0  0  0  0  0  0  0  0  0  0
   -3.1250   28.7200  -14.3260 C   0  0  0  0  0  0  0  0  0  0  0  0
   -3.7400   30.8930  -14.8280 C   0  0  0  0  0  0  0  0  0  0  0  0
   -7.7090   30.1430  -13.1570 C   0  0  0  0  0  0  0  0  0  0  0  0
   -4.2670   31.9840  -14.8540 O   0  0  0  0  0  0  0  0  0  0  0  0
   -2.5120   30.5770  -15.6850 C   0  0  1  0  0  0  0  0  0  0  0  0
   -2.5350   29.0580  -15.6830 C   0  0  0  0  0  0  0  0  0  0  0  0
   -2.7310   31.1850  -17.0160 N   0  0  0  0  0  0  0  0  0  0  0  0
   -1.4990   31.7370  -17.5700 C   0  0  0  0  0  0  0  0  0  0  0  0
  1  2  1  0
  2  3  2  0
  2  4  1  0
  4  5  1  0
  4  6  2  0
  3  7  1  0
  5  8  1  0
  6  9  1  0
  7  9  2  0
  8 10  1  0
 10 11  2  0
 10 12  1  0
 12 13  1  0
 12 14  2  0
 11 15  1  0
 13 16  1  0
 13 17  1  0
 14 18  1  0
 15 18  2  0
 17 19  2  0
 17 20  1  0
 16 21  1  0
 20 21  1  0
 20 22  1  6
 22 23  1  0
M  END
