x0910_0_A-x1015_0_A
     RDKit          3D

 21 23  0  0  0  0  0  0  0  0999 V2000
   -3.0360   14.6000   -1.1980 N   0  0  0  0  0  0  0  0  0  0  0  0
   -1.9960   14.7430   -0.3410 C   0  0  0  0  0  0  0  0  0  0  0  0
   -2.0500   14.7770    0.9640 N   0  0  0  0  0  0  0  0  0  0  0  0
   -0.6830   14.8850   -0.7640 N   0  0  0  0  0  0  0  0  0  0  0  0
   -0.1990   14.8990   -2.0320 N   0  0  0  0  0  0  0  0  0  0  0  0
   -0.7710   14.9400    1.4250 N   0  0  0  0  0  0  0  0  0  0  0  0
    0.0310   15.0080    0.3890 C   0  0  0  0  0  0  0  0  0  0  0  0
   -0.0370   13.7390   -2.5240 C   0  0  0  0  0  0  0  0  0  0  0  0
    0.3780   13.5060   -3.9630 C   0  0  2  0  0  0  0  0  0  0  0  0
   -0.2320   12.5550   -1.9060 N   0  0  0  0  0  0  0  0  0  0  0  0
   -0.6160   14.2750   -4.8320 C   0  0  0  0  0  0  0  0  0  0  0  0
    0.2070   12.0560   -4.0060 N   0  0  0  0  0  0  0  0  0  0  0  0
    0.1660   11.5440   -2.7080 C   0  0  0  0  0  0  0  0  0  0  0  0
    0.4210   10.4170   -2.2920 O   0  0  0  0  0  0  0  0  0  0  0  0
   -0.3020   11.3450   -5.1190 C   0  0  0  0  0  0  0  0  0  0  0  0
    0.1870   11.5720   -6.4150 C   0  0  0  0  0  0  0  0  0  0  0  0
   -1.3090   10.3820   -4.9560 C   0  0  0  0  0  0  0  0  0  0  0  0
   -0.3120   10.8560   -7.5050 C   0  0  0  0  0  0  0  0  0  0  0  0
   -1.8110    9.6640   -6.0420 C   0  0  0  0  0  0  0  0  0  0  0  0
   -1.3100    9.9020   -7.3140 C   0  0  0  0  0  0  0  0  0  0  0  0
   -1.9220    9.0170   -8.6510 Cl  0  0  0  0  0  0  0  0  0  0  0  0
  1  2  1  0
  2  3  2  0
  2  4  1  0
  4  5  1  0
  3  6  1  0
  4  7  1  0
  6  7  2  0
  5  8  2  3
  8  9  1  0
  8 10  1  0
  9 11  1  6
  9 12  1  0
 10 13  1  0
 12 13  1  0
 13 14  2  0
 12 15  1  0
 15 16  2  0
 15 17  1  0
 16 18  1  0
 17 19  2  0
 18 20  2  0
 19 20  1  0
 20 21  1  0
M  END
