x0918_1_B-x0380_0_B
     RDKit          3D

 21 22  0  0  0  0  0  0  0  0999 V2000
   -0.8640   26.1610  -12.6830 N   0  0  0  0  0  0  0  0  0  0  0  0
   -2.0570   26.2250  -13.3670 C   0  0  0  0  0  0  0  0  0  0  0  0
   -2.1150   26.2010  -14.7400 C   0  0  0  0  0  0  0  0  0  0  0  0
   -3.2210   26.3320  -12.6870 C   0  0  0  0  0  0  0  0  0  0  0  0
   -4.3940   26.4420  -13.3400 C   0  0  0  0  0  0  0  0  0  0  0  0
   -3.3600   26.2850  -15.3480 C   0  0  0  0  0  0  0  0  0  0  0  0
   -5.5360   26.6640  -12.4450 C   0  0  0  0  0  0  0  0  0  0  0  0
   -4.5290   26.4080  -14.6820 N   0  0  0  0  0  0  0  0  0  0  0  0
   -5.2350   28.1370  -12.0300 C   0  0  0  0  0  0  0  0  0  0  0  0
   -6.1100   29.0240  -12.8450 C   0  0  0  0  0  0  0  0  0  0  0  0
   -7.4350   29.0320  -12.4430 C   0  0  0  0  0  0  0  0  0  0  0  0
   -5.6990   29.8150  -13.9630 C   0  0  0  0  0  0  0  0  0  0  0  0
   -4.3570   29.8650  -14.4300 N   0  0  0  0  0  0  0  0  0  0  0  0
   -7.9330   28.0860  -11.0960 Cl  0  0  0  0  0  0  0  0  0  0  0  0
   -8.3920   29.7820  -13.0950 C   0  0  0  0  0  0  0  0  0  0  0  0
   -6.6930   30.5620  -14.6110 C   0  0  0  0  0  0  0  0  0  0  0  0
   -3.8680   30.8510  -15.2790 C   0  0  0  0  0  0  0  0  0  0  0  0
   -8.0190   30.5450  -14.1840 C   0  0  0  0  0  0  0  0  0  0  0  0
   -4.4750   31.8600  -15.6320 O   0  0  0  0  0  0  0  0  0  0  0  0
   -2.4500   30.5910  -15.8130 C   0  0  0  0  0  0  0  0  0  0  0  0
   -2.2530   31.3750  -17.0560 N   0  0  0  0  0  0  0  0  0  0  0  0
  1  2  1  0
  2  3  2  0
  2  4  1  0
  4  5  2  0
  3  6  1  0
  5  7  1  0
  5  8  1  0
  6  8  2  0
  7  9  1  0
  9 10  1  0
 10 11  2  0
 10 12  1  0
 12 13  1  0
 11 14  1  0
 11 15  1  0
 12 16  2  0
 13 17  1  0
 15 18  2  0
 16 18  1  0
 17 19  2  0
 17 20  1  0
 20 21  1  0
M  END
