x0910_1_A-x0849_0_A
     RDKit          3D

 16 18  0  0  0  0  0  0  0  0999 V2000
   -7.6750   13.2940    0.6820 N   0  0  0  0  0  0  0  0  0  0  0  0
   -6.7890   14.4030    0.6210 C   0  0  2  0  0  0  0  0  0  0  0  0
   -7.1310   15.1930   -0.5180 N   0  0  0  0  0  0  0  0  0  0  0  0
   -5.4930   13.9340    0.2870 N   0  0  0  0  0  0  0  0  0  0  0  0
   -5.9140   15.9430   -0.7900 N   0  0  0  0  0  0  0  0  0  0  0  0
   -4.8380   15.1900   -0.1080 C   0  0  2  0  0  0  0  0  0  0  0  0
   -3.5130   15.2120   -0.9510 C   0  0  2  0  0  0  0  0  0  0  0  0
   -4.4250   15.8290    1.2410 C   0  0  0  0  0  0  0  0  0  0  0  0
   -3.6460   14.4000   -2.7450 Br  0  0  0  0  0  0  0  0  0  0  0  0
   -3.4360   15.0260    1.8800 N   0  0  0  0  0  0  0  0  0  0  0  0
   -2.2580   14.8200   -0.2040 C   0  0  0  0  0  0  0  0  0  0  0  0
   -2.3130   14.7510    1.1780 C   0  0  0  0  0  0  0  0  0  0  0  0
   -1.0260   14.5300   -0.8120 C   0  0  0  0  0  0  0  0  0  0  0  0
   -1.3000   14.4260    1.9400 N   0  0  0  0  0  0  0  0  0  0  0  0
    0.0540   14.1870   -0.0080 C   0  0  0  0  0  0  0  0  0  0  0  0
   -0.1580   14.1510    1.3570 C   0  0  0  0  0  0  0  0  0  0  0  0
  2  1  1  6
  2  3  1  0
  2  4  1  0
  3  5  1  0
  6  4  1  0
  5  6  1  0
  6  7  1  0
  6  8  1  1
  7  9  1  6
  8 10  1  0
  7 11  1  0
 10 12  1  0
 11 12  2  0
 11 13  1  0
 12 14  1  0
 13 15  2  0
 14 16  2  0
 15 16  1  0
M  END
