x0910_2_B_α-x0837_0_A_α
     RDKit          3D

 20 21  0  0  0  0  0  0  0  0999 V2000
  -13.4420   21.4180   -3.1020 N   0  0  0  0  0  0  0  0  0  0  0  0
  -13.0340   22.1670   -2.0600 C   0  0  0  0  0  0  0  0  0  0  0  0
  -11.7930   21.8540   -1.4330 N   0  0  0  0  0  0  0  0  0  0  0  0
  -13.7680   23.1520   -1.6420 N   0  0  0  0  0  0  0  0  0  0  0  0
  -11.9160   20.8530   -2.4780 C   0  0  0  0  0  0  0  0  0  0  0  0
  -11.9440   22.9170   -0.5280 N   0  0  0  0  0  0  0  0  0  0  0  0
  -13.0440   23.5960   -0.6760 C   0  0  0  0  0  0  0  0  0  0  0  0
  -11.3450   19.4200   -2.3530 C   0  0  0  0  0  0  0  0  0  0  0  0
  -11.0470   18.6950   -1.0350 C   0  0  0  0  0  0  0  0  0  0  0  0
   -9.8720   17.7370   -1.3860 C   0  0  0  0  0  0  0  0  0  0  0  0
   -9.6530   16.5010   -0.4950 C   0  0  0  0  0  0  0  0  0  0  0  0
   -8.5580   15.5120   -0.9740 C   0  0  0  0  0  0  0  0  0  0  0  0
   -7.7740   15.0930    0.1940 N   0  0  0  0  0  0  0  0  0  0  0  0
   -6.4810   14.9430    0.1530 C   0  0  0  0  0  0  0  0  0  0  0  0
   -5.6530   14.6220    1.2090 N   0  0  0  0  0  0  0  0  0  0  0  0
   -5.7320   15.1560   -1.1660 C   0  0  0  0  0  0  0  0  0  0  0  0
   -4.3410   15.0140    1.2670 C   0  0  0  0  0  0  0  0  0  0  0  0
   -4.3370   14.5100   -1.0690 C   0  0  1  0  0  0  0  0  0  0  0  0
   -3.1660   14.8510   -2.8490 I   0  0  0  0  0  0  0  0  0  0  0  0
   -3.6120   14.9810    0.1600 C   0  0  0  0  0  0  0  0  0  0  0  0
  1  2  1  0
  2  3  1  0
  2  4  2  0
  3  5  1  0
  3  6  1  0
  4  7  1  0
  6  7  2  0
  5  8  1  0
  8  9  1  0
  9 10  1  0
 10 11  1  0
 11 12  1  0
 12 13  1  0
 13 14  2  3
 14 15  1  0
 14 16  1  0
 15 17  1  0
 16 18  1  0
 18 19  1  6
 17 20  2  0
 18 20  1  0
M  END
