x0918_3_A-x0796_0_B
     RDKit          3D

 25 28  0  0  0  0  0  0  0  0999 V2000
   16.1100    5.9650    8.4060 N   0  0  0  0  0  0  0  0  0  0  0  0
   15.5910    4.8140    9.0290 C   0  0  0  0  0  0  0  0  0  0  0  0
   15.1900    4.8030   10.3590 C   0  0  0  0  0  0  0  0  0  0  0  0
   15.4790    3.6420    8.2790 C   0  0  0  0  0  0  0  0  0  0  0  0
   15.2730    6.0250   11.2310 C   0  0  0  0  0  0  0  0  0  0  0  0
   14.9770    2.5010    8.8760 C   0  0  0  0  0  0  0  0  0  0  0  0
   14.6980    3.5950   10.8670 C   0  0  0  0  0  0  0  0  0  0  0  0
   15.4920    7.3100   10.4130 C   0  0  0  0  0  0  0  0  0  0  0  0
   14.5850    2.4490   10.1590 N   0  0  0  0  0  0  0  0  0  0  0  0
   14.4370    8.3900   10.6080 C   0  0  0  0  0  0  0  0  0  0  0  0
   14.9470    9.6400   11.2550 C   0  0  0  0  0  0  0  0  0  0  0  0
   14.1480   10.6840   11.7270 C   0  0  0  0  0  0  0  0  0  0  0  0
   16.3440    9.7480   11.3950 C   0  0  0  0  0  0  0  0  0  0  0  0
   12.7400   10.6690   11.6330 N   0  0  0  0  0  0  0  0  0  0  0  0
   14.7490   11.7950   12.3290 C   0  0  0  0  0  0  0  0  0  0  0  0
   16.9300   10.8560   11.9880 C   0  0  0  0  0  0  0  0  0  0  0  0
   13.8530   12.8730   12.8420 C   0  0  0  0  0  0  0  0  0  0  0  0
   11.9400   11.3350   12.5320 C   0  0  0  0  0  0  0  0  0  0  0  0
   16.1340   11.8830   12.4580 C   0  0  0  0  0  0  0  0  0  0  0  0
   10.7060   11.2440   12.5080 O   0  0  0  0  0  0  0  0  0  0  0  0
   12.7110   12.1650   13.5670 C   0  0  2  0  0  0  0  0  0  0  0  0
   11.8590   13.1410   14.2850 N   0  0  0  0  0  0  0  0  0  0  0  0
   13.1820   11.1850   14.6580 C   0  0  0  0  0  0  0  0  0  0  0  0
   12.1000   11.3150   15.7080 C   0  0  0  0  0  0  0  0  0  0  0  0
   11.8730   12.8030   15.7170 C   0  0  0  0  0  0  0  0  0  0  0  0
  1  2  1  0
  2  3  2  0
  2  4  1  0
  3  5  1  0
  4  6  2  0
  3  7  1  0
  5  8  1  0
  6  9  1  0
  7  9  2  0
  8 10  1  0
 10 11  1  0
 11 12  1  0
 11 13  2  0
 12 14  1  0
 12 15  2  0
 13 16  1  0
 15 17  1  0
 14 18  1  0
 15 19  1  0
 16 19  2  0
 18 20  2  0
 21 17  1  6
 21 18  1  0
 21 22  1  0
 21 23  1  0
 23 24  1  0
 22 25  1  0
 24 25  1  0
M  END
