x0910_1_A-x0711_0_A
     RDKit          3D

 19 20  0  0  0  0  0  0  0  0999 V2000
   -7.0300   14.1800    0.4290 N   0  0  0  0  0  0  0  0  0  0  0  0
   -6.7960   13.7570   -0.8200 C   0  0  0  0  0  0  0  0  0  0  0  0
   -7.6540   13.1950   -1.4880 O   0  0  0  0  0  0  0  0  0  0  0  0
   -5.9500   14.8680    0.8250 C   0  0  0  0  0  0  0  0  0  0  0  0
   -5.4600   14.9040    2.0700 N   0  0  0  0  0  0  0  0  0  0  0  0
   -5.1810   15.6060    0.0620 N   0  0  0  0  0  0  0  0  0  0  0  0
   -5.4190   14.0490   -1.3080 C   0  0  0  0  0  0  0  0  0  0  0  0
   -4.3630   15.6660    2.1360 N   0  0  0  0  0  0  0  0  0  0  0  0
   -4.2330   16.0640    0.8940 C   0  0  0  0  0  0  0  0  0  0  0  0
   -5.2440   14.8310   -2.4510 C   0  0  0  0  0  0  0  0  0  0  0  0
   -4.2920   13.5610   -0.6130 C   0  0  0  0  0  0  0  0  0  0  0  0
   -3.9540   15.1290   -2.8950 C   0  0  0  0  0  0  0  0  0  0  0  0
   -3.0030   13.8650   -1.0640 C   0  0  0  0  0  0  0  0  0  0  0  0
   -2.8390   14.6500   -2.2020 C   0  0  0  0  0  0  0  0  0  0  0  0
   -1.5310   14.9790   -2.6700 N   0  0  0  0  0  0  0  0  0  0  0  0
   -0.4850   13.7780   -3.2320 S   0  0  0  0  0  0  0  0  0  0  0  0
   -1.6110   12.7180   -4.1060 C   0  0  0  0  0  0  0  0  0  0  0  0
    0.4450   14.3500   -4.1790 O   0  0  0  0  0  0  0  0  0  0  0  0
   -0.0260   13.0740   -2.0510 O   0  0  0  0  0  0  0  0  0  0  0  0
  1  2  1  0
  2  3  2  0
  1  4  1  0
  4  5  1  0
  4  6  2  0
  2  7  1  0
  5  8  1  0
  6  9  1  0
  8  9  2  0
  7 10  2  0
  7 11  1  0
 10 12  1  0
 11 13  2  0
 12 14  2  0
 13 14  1  0
 14 15  1  0
 16 15  1  0
 16 17  1  0
 16 18  2  0
 16 19  2  0
M  END
