x0910_1_A_α-x1015_0_A_α
     RDKit          3D

 24 26  0  0  0  0  0  0  0  0999 V2000
   -7.6290   14.2050    1.2830 N   0  0  0  0  0  0  0  0  0  0  0  0
   -6.5910   14.6010    0.5520 C   0  0  0  0  0  0  0  0  0  0  0  0
   -6.5100   14.5980   -0.7730 N   0  0  0  0  0  0  0  0  0  0  0  0
   -5.4860   15.0590    1.1960 N   0  0  0  0  0  0  0  0  0  0  0  0
   -5.2660   15.0810   -0.9600 N   0  0  0  0  0  0  0  0  0  0  0  0
   -4.6650   15.3590    0.2210 C   0  0  0  0  0  0  0  0  0  0  0  0
   -4.7130   15.2490   -2.2760 C   0  0  0  0  0  0  0  0  0  0  0  0
   -3.6430   14.2390   -2.7060 C   0  0  0  0  0  0  0  0  0  0  0  0
   -2.3170   14.9020   -3.1160 C   0  0  0  0  0  0  0  0  0  0  0  0
   -1.5640   14.1990   -4.2570 C   0  0  0  0  0  0  0  0  0  0  0  0
   -0.1530   13.6620   -3.9340 C   0  0  2  0  0  0  0  0  0  0  0  0
   -0.0470   12.2110   -3.9390 N   0  0  0  0  0  0  0  0  0  0  0  0
    0.2800   13.9680   -2.5040 C   0  0  0  0  0  0  0  0  0  0  0  0
    0.4070   15.0730   -1.9990 O   0  0  0  0  0  0  0  0  0  0  0  0
    0.2600   11.7250   -2.6590 C   0  0  0  0  0  0  0  0  0  0  0  0
    0.5220   12.8010   -1.8600 N   0  0  0  0  0  0  0  0  0  0  0  0
   -0.4570   11.4200   -5.0420 C   0  0  0  0  0  0  0  0  0  0  0  0
    0.3040   10.5600   -2.2600 O   0  0  0  0  0  0  0  0  0  0  0  0
    0.0910   11.6100   -6.3160 C   0  0  0  0  0  0  0  0  0  0  0  0
   -1.4280   10.4180   -4.8880 C   0  0  0  0  0  0  0  0  0  0  0  0
   -0.3140   10.8290   -7.4020 C   0  0  0  0  0  0  0  0  0  0  0  0
   -1.8360    9.6340   -5.9700 C   0  0  0  0  0  0  0  0  0  0  0  0
   -1.2780    9.8420   -7.2250 C   0  0  0  0  0  0  0  0  0  0  0  0
   -1.7800    8.8800   -8.5550 Cl  0  0  0  0  0  0  0  0  0  0  0  0
  1  2  1  0
  2  3  2  0
  2  4  1  0
  3  5  1  0
  4  6  2  0
  5  6  1  0
  5  7  1  0
  7  8  1  0
  8  9  1  0
  9 10  1  0
 11 10  1  1
 11 12  1  0
 11 13  1  0
 13 14  2  0
 12 15  1  0
 13 16  1  0
 15 16  1  0
 12 17  1  0
 15 18  2  0
 17 19  2  0
 17 20  1  0
 19 21  1  0
 20 22  2  0
 21 23  2  0
 22 23  1  0
 23 24  1  0
M  END
