x0910_0_A-x0905_0_A
     RDKit          3D

 12 13  0  0  0  0  0  0  0  0999 V2000
   -2.2560   13.2380   -1.6310 N   0  0  0  0  0  0  0  0  0  0  0  0
   -1.7310   14.0620   -0.6980 C   0  0  0  0  0  0  0  0  0  0  0  0
   -2.6020   14.9880    0.1150 C   0  0  2  0  0  0  0  0  0  0  0  0
   -0.4750   14.1780   -0.4270 N   0  0  0  0  0  0  0  0  0  0  0  0
   -1.5570   15.6570    0.9330 N   0  0  0  0  0  0  0  0  0  0  0  0
   -0.4280   15.1300    0.5520 C   0  0  0  0  0  0  0  0  0  0  0  0
   -3.6230   14.2900    1.0530 C   0  0  0  0  0  0  0  0  0  0  0  0
   -3.3020   15.7890   -0.9520 C   0  0  0  0  0  0  0  0  0  0  0  0
   -4.8670   13.8530    0.3780 N   0  0  0  0  0  0  0  0  0  0  0  0
   -4.6480   15.7600   -1.0840 C   0  0  0  0  0  0  0  0  0  0  0  0
   -5.5360   14.9850   -0.1890 C   0  0  1  0  0  0  0  0  0  0  0  0
   -6.7220   14.6120   -0.8630 O   0  0  0  0  0  0  0  0  0  0  0  0
  1  2  1  0
  2  3  1  0
  2  4  2  0
  3  5  1  0
  4  6  1  0
  5  6  2  0
  3  7  1  1
  3  8  1  0
  7  9  1  0
  8 10  2  0
  9 11  1  0
 10 11  1  0
 11 12  1  6
M  END
