x0910_2_B_α-5cb5_Q_0_Q_α
     RDKit          3D

 20 21  0  0  0  0  0  0  0  0999 V2000
  -12.0950   22.5720    0.1510 N   0  0  0  0  0  0  0  0  0  0  0  0
  -12.5050   23.4650   -0.7560 C   0  0  0  0  0  0  0  0  0  0  0  0
  -11.9350   23.6110   -1.9880 N   0  0  0  0  0  0  0  0  0  0  0  0
  -13.4850   24.3250   -0.6250 N   0  0  0  0  0  0  0  0  0  0  0  0
  -10.8290   22.8670   -2.5570 C   0  0  0  0  0  0  0  0  0  0  0  0
  -12.5500   24.5880   -2.6910 N   0  0  0  0  0  0  0  0  0  0  0  0
  -13.4790   24.9870   -1.8190 C   0  0  0  0  0  0  0  0  0  0  0  0
   -9.3230   23.5340   -2.2820 C   0  0  0  0  0  0  0  0  0  0  0  0
   -7.6100   23.0190   -3.3240 C   0  0  0  0  0  0  0  0  0  0  0  0
   -6.6100   21.7170   -4.3200 C   0  0  0  0  0  0  0  0  0  0  0  0
   -5.9560   21.8050   -5.7430 C   0  0  0  0  0  0  0  0  0  0  0  0
   -5.4650   23.0350   -6.1510 O   0  0  0  0  0  0  0  0  0  0  0  0
   -4.2050   22.5520   -6.5770 C   0  0  1  0  0  0  0  0  0  0  0  0
   -4.2700   21.4660   -7.6810 C   0  0  2  0  0  0  0  0  0  0  0  0
   -3.2220   23.4620   -7.2380 C   0  0  2  0  0  0  0  0  0  0  0  0
   -3.7060   23.9670   -8.4850 O   0  0  0  0  0  0  0  0  0  0  0  0
   -4.5460   20.1940   -7.1310 O   0  0  0  0  0  0  0  0  0  0  0  0
   -2.2580   22.2780   -7.3570 C   0  0  1  0  0  0  0  0  0  0  0  0
   -2.9530   21.4040   -8.2370 O   0  0  0  0  0  0  0  0  0  0  0  0
   -0.8420   22.5520   -7.7680 C   0  0  0  0  0  0  0  0  0  0  0  0
  1  2  1  0
  2  3  1  0
  2  4  2  0
  3  5  1  0
  3  6  1  0
  4  7  1  0
  6  7  2  0
  5  8  1  0
  8  9  1  0
  9 10  1  0
 10 11  1  0
 11 12  1  0
 13 12  1  6
 13 14  1  0
 13 15  1  0
 15 16  1  6
 14 17  1  1
 15 18  1  0
 14 19  1  0
 18 19  1  0
 18 20  1  6
M  END
