x0910_0_A_α-x0905_0_A_α
     RDKit          3D

 12 13  0  0  0  0  0  0  0  0999 V2000
   -2.2530   13.2240   -1.6410 N   0  0  0  0  0  0  0  0  0  0  0  0
   -1.7310   14.0590   -0.7110 C   0  0  0  0  0  0  0  0  0  0  0  0
   -2.6060   14.9840    0.1050 C   0  0  2  0  0  0  0  0  0  0  0  0
   -0.4770   14.1860   -0.4450 N   0  0  0  0  0  0  0  0  0  0  0  0
   -1.5610   15.6590    0.9170 N   0  0  0  0  0  0  0  0  0  0  0  0
   -0.4310   15.1390    0.5280 C   0  0  0  0  0  0  0  0  0  0  0  0
   -3.6220   14.2890    1.0500 C   0  0  0  0  0  0  0  0  0  0  0  0
   -3.3070   15.7870   -0.9560 C   0  0  0  0  0  0  0  0  0  0  0  0
   -4.8760   13.8520    0.3840 N   0  0  0  0  0  0  0  0  0  0  0  0
   -4.6530   15.7630   -1.0830 C   0  0  0  0  0  0  0  0  0  0  0  0
   -5.5390   14.9810   -0.1900 C   0  0  1  0  0  0  0  0  0  0  0  0
   -6.7240   14.6110   -0.8700 O   0  0  0  0  0  0  0  0  0  0  0  0
  1  2  1  0
  2  3  1  0
  2  4  2  0
  3  5  1  0
  4  6  1  0
  5  6  2  0
  3  7  1  1
  3  8  1  0
  7  9  1  0
  8 10  2  0
  9 11  1  0
 10 11  1  0
 11 12  1  6
M  END
