x0910_1_A_α-x0282_0_A_α
     RDKit          3D

 12 13  0  0  0  0  0  0  0  0999 V2000
   -7.0620   13.8240    0.7300 N   0  0  0  0  0  0  0  0  0  0  0  0
   -8.2350   14.5810    0.2770 O   0  0  0  0  0  0  0  0  0  0  0  0
   -5.8310   14.6280    0.6840 C   0  0  2  0  0  0  0  0  0  0  0  0
   -5.6840   15.3760   -0.5330 N   0  0  0  0  0  0  0  0  0  0  0  0
   -4.6000   13.8810    0.7780 N   0  0  0  0  0  0  0  0  0  0  0  0
   -4.2630   15.7930   -0.4280 N   0  0  0  0  0  0  0  0  0  0  0  0
   -3.5020   14.7140    0.2590 C   0  0  2  0  0  0  0  0  0  0  0  0
   -2.8910   13.8950   -0.8170 N   0  0  0  0  0  0  0  0  0  0  0  0
   -2.4880   15.0390    1.2740 N   0  0  0  0  0  0  0  0  0  0  0  0
   -1.4560   14.2240   -1.1190 C   0  0  0  0  0  0  0  0  0  0  0  0
   -1.1430   14.6430    1.2270 C   0  0  0  0  0  0  0  0  0  0  0  0
   -0.5890   14.2450    0.0970 C   0  0  0  0  0  0  0  0  0  0  0  0
  1  2  1  0
  3  1  1  6
  3  4  1  0
  3  5  1  0
  4  6  1  0
  7  5  1  1
  6  7  1  0
  7  8  1  0
  7  9  1  0
  8 10  1  0
  9 11  1  0
 10 12  1  0
 11 12  2  0
M  END
