x0910_0_A-x0724_0_A
     RDKit          3D

 19 21  0  0  0  0  0  0  0  0999 V2000
   -2.6220   13.0200   -1.7850 N   0  0  0  0  0  0  0  0  0  0  0  0
   -2.4510   13.8980   -0.6470 C   0  0  2  0  0  0  0  0  0  0  0  0
   -1.2060   13.5270    0.0330 N   0  0  0  0  0  0  0  0  0  0  0  0
   -3.6840   13.8820    0.2670 C   0  0  0  0  0  0  0  0  0  0  0  0
   -2.3900   15.3230   -1.1890 C   0  0  2  0  0  0  0  0  0  0  0  0
   -2.2060   16.1490    0.0170 N   0  0  0  0  0  0  0  0  0  0  0  0
   -0.6210   14.4880    0.6320 C   0  0  0  0  0  0  0  0  0  0  0  0
   -3.6640   15.5670   -1.9420 C   0  0  0  0  0  0  0  0  0  0  0  0
   -4.8580   14.5070   -0.1020 C   0  0  0  0  0  0  0  0  0  0  0  0
   -1.0140   15.7890    0.7090 N   0  0  0  0  0  0  0  0  0  0  0  0
   -6.0660   14.5590    0.6830 N   0  0  0  0  0  0  0  0  0  0  0  0
   -4.8280   15.1680   -1.4080 C   0  0  0  0  0  0  0  0  0  0  0  0
   -7.3390   14.3740    0.1860 N   0  0  0  0  0  0  0  0  0  0  0  0
   -6.1710   14.8150    2.0490 C   0  0  0  0  0  0  0  0  0  0  0  0
   -7.5060   14.8030    2.4220 C   0  0  0  0  0  0  0  0  0  0  0  0
   -8.1710   14.5220    1.2190 C   0  0  0  0  0  0  0  0  0  0  0  0
   -8.0820   15.0420    3.7740 C   0  0  0  0  0  0  0  0  0  0  0  0
   -8.7680   13.8460    4.2530 N   0  0  0  0  0  0  0  0  0  0  0  0
   -8.7160   13.7830    5.7070 C   0  0  0  0  0  0  0  0  0  0  0  0
  2  1  1  6
  2  3  1  0
  2  4  1  0
  2  5  1  0
  5  6  1  0
  3  7  2  0
  5  8  1  1
  4  9  2  0
  6 10  1  0
  7 10  1  0
  9 11  1  0
  8 12  2  0
  9 12  1  0
 11 13  1  0
 11 14  1  0
 14 15  2  0
 13 16  2  0
 15 16  1  0
 15 17  1  0
 17 18  1  0
 18 19  1  0
M  END
