x0910_0_A_α-x1015_0_A_α
     RDKit          3D

 21 23  0  0  0  0  0  0  0  0999 V2000
   -3.0340   14.6040   -1.2000 N   0  0  0  0  0  0  0  0  0  0  0  0
   -1.9930   14.7480   -0.3400 C   0  0  0  0  0  0  0  0  0  0  0  0
   -2.0470   14.7810    0.9640 N   0  0  0  0  0  0  0  0  0  0  0  0
   -0.6810   14.8870   -0.7670 N   0  0  0  0  0  0  0  0  0  0  0  0
   -0.1950   14.8980   -2.0310 N   0  0  0  0  0  0  0  0  0  0  0  0
   -0.7680   14.9420    1.4230 N   0  0  0  0  0  0  0  0  0  0  0  0
    0.0330   15.0080    0.3880 C   0  0  0  0  0  0  0  0  0  0  0  0
   -0.0350   13.7380   -2.5250 C   0  0  0  0  0  0  0  0  0  0  0  0
    0.3800   13.5050   -3.9600 C   0  0  2  0  0  0  0  0  0  0  0  0
   -0.2340   12.5520   -1.9040 N   0  0  0  0  0  0  0  0  0  0  0  0
   -0.6170   14.2750   -4.8290 C   0  0  0  0  0  0  0  0  0  0  0  0
    0.2040   12.0550   -4.0070 N   0  0  0  0  0  0  0  0  0  0  0  0
    0.1690   11.5450   -2.7060 C   0  0  0  0  0  0  0  0  0  0  0  0
    0.4270   10.4170   -2.2900 O   0  0  0  0  0  0  0  0  0  0  0  0
   -0.3010   11.3450   -5.1180 C   0  0  0  0  0  0  0  0  0  0  0  0
    0.1870   11.5720   -6.4110 C   0  0  0  0  0  0  0  0  0  0  0  0
   -1.3100   10.3810   -4.9540 C   0  0  0  0  0  0  0  0  0  0  0  0
   -0.3130   10.8570   -7.5030 C   0  0  0  0  0  0  0  0  0  0  0  0
   -1.8120    9.6650   -6.0420 C   0  0  0  0  0  0  0  0  0  0  0  0
   -1.3090    9.9050   -7.3120 C   0  0  0  0  0  0  0  0  0  0  0  0
   -1.9210    9.0190   -8.6510 Cl  0  0  0  0  0  0  0  0  0  0  0  0
  1  2  1  0
  2  3  2  0
  2  4  1  0
  4  5  1  0
  3  6  1  0
  4  7  1  0
  6  7  2  0
  5  8  2  3
  8  9  1  0
  8 10  1  0
  9 11  1  6
  9 12  1  0
 10 13  1  0
 12 13  1  0
 13 14  2  0
 12 15  1  0
 15 16  2  0
 15 17  1  0
 16 18  1  0
 17 19  2  0
 18 20  2  0
 19 20  1  0
 20 21  1  0
M  END
