x0918_1_B-x0228_0_B
     RDKit          3D

 18 19  0  0  0  0  0  0  0  0999 V2000
   -1.7550   25.1610  -11.6500 N   0  0  0  0  0  0  0  0  0  0  0  0
   -2.7620   25.5420  -12.5050 C   0  0  0  0  0  0  0  0  0  0  0  0
   -2.3450   26.1840  -13.6510 C   0  0  0  0  0  0  0  0  0  0  0  0
   -4.1310   25.3120  -12.2670 C   0  0  0  0  0  0  0  0  0  0  0  0
   -4.6130   24.5910  -11.0130 C   0  0  0  0  0  0  0  0  0  0  0  0
   -5.0250   25.7900  -13.2530 C   0  0  0  0  0  0  0  0  0  0  0  0
   -3.2720   26.5980  -14.5680 C   0  0  0  0  0  0  0  0  0  0  0  0
   -6.4150   25.6400  -13.0660 N   0  0  0  0  0  0  0  0  0  0  0  0
   -4.6030   26.4170  -14.3890 N   0  0  0  0  0  0  0  0  0  0  0  0
   -2.7990   27.2740  -15.8060 C   0  0  0  0  0  0  0  0  0  0  0  0
   -7.3920   24.9860  -13.7630 C   0  0  0  0  0  0  0  0  0  0  0  0
   -8.0240   25.6600  -14.7700 N   0  0  0  0  0  0  0  0  0  0  0  0
   -7.6690   23.8400  -13.4340 O   0  0  0  0  0  0  0  0  0  0  0  0
   -9.3320   25.4160  -15.0130 N   0  0  0  0  0  0  0  0  0  0  0  0
   -9.8350   24.4110  -15.7750 C   0  0  0  0  0  0  0  0  0  0  0  0
  -10.3860   26.1280  -14.5420 C   0  0  0  0  0  0  0  0  0  0  0  0
  -11.1500   24.4980  -15.7780 N   0  0  0  0  0  0  0  0  0  0  0  0
  -11.5010   25.5870  -14.9950 N   0  0  0  0  0  0  0  0  0  0  0  0
  1  2  1  0
  2  3  2  0
  2  4  1  0
  4  5  1  0
  4  6  2  0
  3  7  1  0
  6  8  1  0
  6  9  1  0
  7  9  2  0
  7 10  1  0
  8 11  1  0
 11 12  1  0
 11 13  2  0
 12 14  1  0
 14 15  1  0
 14 16  1  0
 15 17  2  0
 16 18  2  0
 17 18  1  0
M  END
