x0910_1_A-x0438_0_A
     RDKit          3D

 14 15  0  0  0  0  0  0  0  0999 V2000
   -7.3700   14.3940    2.0850 N   0  0  0  0  0  0  0  0  0  0  0  0
   -8.7920   15.1550    2.5960 S   0  0  0  0  0  0  0  0  0  0  0  0
   -8.2400   15.7990    4.1600 C   0  0  0  0  0  0  0  0  0  0  0  0
   -6.9670   14.2420    0.6800 C   0  0  2  0  0  0  0  0  0  0  0  0
   -9.7850   14.1450    2.8870 O   0  0  0  0  0  0  0  0  0  0  0  0
   -9.1390   16.2590    1.7330 O   0  0  0  0  0  0  0  0  0  0  0  0
   -5.7750   15.0340    0.3400 N   0  0  0  0  0  0  0  0  0  0  0  0
   -7.9720   14.8470   -0.3290 C   0  0  0  0  0  0  0  0  0  0  0  0
   -7.1560   15.2210   -1.5000 N   0  0  0  0  0  0  0  0  0  0  0  0
   -5.8910   15.4600   -0.9650 N   0  0  0  0  0  0  0  0  0  0  0  0
   -4.5020   15.0410    0.9190 C   0  0  0  0  0  0  0  0  0  0  0  0
   -4.7970   15.4090   -1.7930 C   0  0  0  0  0  0  0  0  0  0  0  0
   -3.3960   15.1510    0.1500 C   0  0  0  0  0  0  0  0  0  0  0  0
   -3.5590   15.2600   -1.2980 C   0  0  0  0  0  0  0  0  0  0  0  0
  2  1  1  0
  2  3  1  0
  4  1  1  1
  2  5  2  0
  2  6  2  0
  4  7  1  0
  4  8  1  0
  8  9  1  0
  7 10  1  0
  9 10  1  0
  7 11  1  0
 10 12  1  0
 11 13  2  0
 12 14  2  0
 13 14  1  0
M  END
