x0918_4_B-x0737_0_B
     RDKit          3D

 24 25  0  0  0  0  0  0  0  0999 V2000
   13.5560   23.3640   13.5470 N   0  0  0  0  0  0  0  0  0  0  0  0
   13.3300   22.0000   13.3490 C   0  0  0  0  0  0  0  0  0  0  0  0
   14.3030   21.1900   12.7850 C   0  0  0  0  0  0  0  0  0  0  0  0
   12.1270   21.4240   13.7220 C   0  0  0  0  0  0  0  0  0  0  0  0
   11.9400   20.0670   13.5130 C   0  0  0  0  0  0  0  0  0  0  0  0
   14.0430   19.8340   12.6130 C   0  0  0  0  0  0  0  0  0  0  0  0
   15.0850   18.9260   12.0320 C   0  0  0  0  0  0  0  0  0  0  0  0
   12.8710   19.2590   12.9640 N   0  0  0  0  0  0  0  0  0  0  0  0
   15.3990   17.7620   12.9680 C   0  0  0  0  0  0  0  0  0  0  0  0
   16.3290   16.7260   12.3500 C   0  0  0  0  0  0  0  0  0  0  0  0
   15.5940   15.5380   11.9640 N   0  0  0  0  0  0  0  0  0  0  0  0
   16.2690   14.3580   11.7060 C   0  0  0  0  0  0  0  0  0  0  0  0
   17.4080   14.3540   11.2580 O   0  0  0  0  0  0  0  0  0  0  0  0
   15.5910   13.0140   12.0070 C   0  0  1  0  0  0  0  0  0  0  0  0
   14.7820   12.9280   13.3130 C   0  0  1  0  0  0  0  0  0  0  0  0
   14.8170   12.4800   10.8000 C   0  0  0  0  0  0  0  0  0  0  0  0
   14.7200   14.2480   14.0540 C   0  0  0  0  0  0  0  0  0  0  0  0
   13.4690   12.2850   12.9650 N   0  0  0  0  0  0  0  0  0  0  0  0
   14.2750   11.0710   10.9750 C   0  0  0  0  0  0  0  0  0  0  0  0
   12.0520   12.6550   13.7900 S   0  0  0  0  0  0  0  0  0  0  0  0
   13.5430   10.9540   12.2860 C   0  0  0  0  0  0  0  0  0  0  0  0
   12.0650   14.0860   13.9760 O   0  0  0  0  0  0  0  0  0  0  0  0
   11.8380   11.6960   14.8480 O   0  0  0  0  0  0  0  0  0  0  0  0
   10.9980   12.2380   12.4560 C   0  0  0  0  0  0  0  0  0  0  0  0
  1  2  1  0
  2  3  2  0
  2  4  1  0
  4  5  2  0
  3  6  1  0
  6  7  1  0
  5  8  1  0
  6  8  2  0
  7  9  1  0
  9 10  1  0
 10 11  1  0
 11 12  1  0
 12 13  2  0
 14 12  1  6
 14 15  1  0
 14 16  1  0
 15 17  1  6
 15 18  1  0
 16 19  1  0
 18 20  1  0
 18 21  1  0
 19 21  1  0
 20 22  2  0
 20 23  2  0
 20 24  1  0
M  END
