x0910_2_B_α-x0471_0_A_α
     RDKit          3D

 28 30  0  0  0  0  0  0  0  0999 V2000
  -12.7240   21.6220   -3.6580 N   0  0  0  0  0  0  0  0  0  0  0  0
  -12.5850   22.0330   -2.3900 C   0  0  0  0  0  0  0  0  0  0  0  0
  -11.7540   21.7270   -1.3970 N   0  0  0  0  0  0  0  0  0  0  0  0
  -13.1910   22.8880   -1.6720 N   0  0  0  0  0  0  0  0  0  0  0  0
  -12.1170   22.1080   -1.0100 C   0  0  0  0  0  0  0  0  0  0  0  0
  -12.0630   22.5230   -0.1990 N   0  0  0  0  0  0  0  0  0  0  0  0
  -13.0830   23.3070   -0.4710 C   0  0  0  0  0  0  0  0  0  0  0  0
  -12.6550   20.6640   -0.5860 C   0  0  0  0  0  0  0  0  0  0  0  0
  -11.7210   19.4000   -0.5880 C   0  0  0  0  0  0  0  0  0  0  0  0
  -11.6010   18.6500    0.7780 C   0  0  0  0  0  0  0  0  0  0  0  0
  -11.4660   17.1030    0.9250 C   0  0  0  0  0  0  0  0  0  0  0  0
  -10.1020   16.4410    1.2980 C   0  0  0  0  0  0  0  0  0  0  0  0
   -9.8400   16.2440    2.7510 N   0  0  0  0  0  0  0  0  0  0  0  0
   -9.3380   15.1600    3.3230 C   0  0  0  0  0  0  0  0  0  0  0  0
   -9.0440   14.1060    2.4900 N   0  0  0  0  0  0  0  0  0  0  0  0
   -9.0150   14.8520    4.8090 C   0  0  0  0  0  0  0  0  0  0  0  0
  -10.0830   13.9910    5.4820 C   0  0  0  0  0  0  0  0  0  0  0  0
   -8.6020   16.0470    5.6610 C   0  0  0  0  0  0  0  0  0  0  0  0
   -8.8860   14.2890    1.0530 C   0  0  0  0  0  0  0  0  0  0  0  0
   -7.4760   14.5240    0.6410 C   0  0  0  0  0  0  0  0  0  0  0  0
   -7.1120   14.7730   -0.6560 N   0  0  0  0  0  0  0  0  0  0  0  0
   -6.4280   14.5200    1.4360 N   0  0  0  0  0  0  0  0  0  0  0  0
   -5.3480   14.7710    0.6300 C   0  0  0  0  0  0  0  0  0  0  0  0
   -5.7530   14.9330   -0.6870 C   0  0  0  0  0  0  0  0  0  0  0  0
   -4.8730   15.1960   -1.7280 C   0  0  0  0  0  0  0  0  0  0  0  0
   -3.9880   14.8730    0.9500 C   0  0  0  0  0  0  0  0  0  0  0  0
   -3.5220   15.2900   -1.3930 C   0  0  0  0  0  0  0  0  0  0  0  0
   -3.0840   15.1300   -0.0770 C   0  0  0  0  0  0  0  0  0  0  0  0
  1  2  1  0
  2  3  2  0
  2  4  1  0
  4  5  1  0
  3  6  1  0
  4  7  1  0
  6  7  2  0
  5  8  1  0
  8  9  1  0
  9 10  1  0
 10 11  1  0
 11 12  1  0
 12 13  1  0
 13 14  2  3
 14 15  1  0
 14 16  1  0
 16 17  1  0
 16 18  1  0
 15 19  1  0
 19 20  1  0
 20 21  1  0
 20 22  2  0
 22 23  1  0
 21 24  1  0
 23 24  2  0
 24 25  1  0
 23 26  1  0
 25 27  2  0
 26 28  2  0
 27 28  1  0
M  END
