x0910_1_A_α-x0104_0_A_β
     RDKit          3D

  9  9  0  0  0  0  0  0  0  0999 V2000
   -7.9260   13.3800    0.3580 N   0  0  0  0  0  0  0  0  0  0  0  0
   -7.2350   14.6350    0.3200 C   0  0  2  0  0  0  0  0  0  0  0  0
   -6.9470   14.9670   -1.0540 N   0  0  0  0  0  0  0  0  0  0  0  0
   -5.9870   14.5070    1.0630 N   0  0  0  0  0  0  0  0  0  0  0  0
   -6.1960   15.1000    2.4270 N   0  0  0  0  0  0  0  0  0  0  0  0
   -5.5680   15.4420   -1.1050 N   0  0  0  0  0  0  0  0  0  0  0  0
   -4.9960   15.2670    0.2520 C   0  0  0  0  0  0  0  0  0  0  0  0
   -4.8130   14.5600   -1.9930 O   0  0  0  0  0  0  0  0  0  0  0  0
   -3.6350   15.2320   -2.4030 C   0  0  0  0  0  0  0  0  0  0  0  0
  2  1  1  6
  2  3  1  0
  2  4  1  0
  4  5  1  0
  3  6  1  0
  4  7  1  0
  6  7  1  0
  6  8  1  0
  8  9  1  0
M  END
