x0918_0_B-x0380_0_B
     RDKit          3D

 12 12  0  0  0  0  0  0  0  0999 V2000
   -3.5980   29.7810  -14.7160 N   0  0  0  0  0  0  0  0  0  0  0  0
   -3.3250   30.9380  -15.3790 C   0  0  0  0  0  0  0  0  0  0  0  0
   -3.9840   31.9680  -15.2550 O   0  0  0  0  0  0  0  0  0  0  0  0
   -4.4320   29.8730  -13.5760 C   0  0  0  0  0  0  0  0  0  0  0  0
   -2.1180   30.8440  -16.3000 C   0  0  0  0  0  0  0  0  0  0  0  0
   -5.8650   29.9930  -14.0440 C   0  0  0  0  0  0  0  0  0  0  0  0
   -4.2250   28.6970  -12.6670 C   0  0  0  0  0  0  0  0  0  0  0  0
   -2.3530   31.6400  -17.5180 N   0  0  0  0  0  0  0  0  0  0  0  0
   -6.8320   29.4650  -13.2870 C   0  0  0  0  0  0  0  0  0  0  0  0
   -5.2770   28.2380  -11.9810 C   0  0  0  0  0  0  0  0  0  0  0  0
   -6.5030   28.8290  -12.1210 N   0  0  0  0  0  0  0  0  0  0  0  0
   -7.7560   28.2270  -11.1670 Cl  0  0  0  0  0  0  0  0  0  0  0  0
  1  2  1  0
  2  3  2  0
  1  4  1  0
  2  5  1  0
  4  6  1  0
  4  7  1  0
  5  8  1  0
  6  9  2  0
  7 10  2  0
  9 11  1  0
 10 11  1  0
 11 12  1  0
M  END
