x0910_0_A-x0895_1_A
     RDKit          3D

 12 13  0  0  0  0  0  0  0  0999 V2000
   -0.9270   14.6070   -2.5880 N   0  0  0  0  0  0  0  0  0  0  0  0
   -1.0360   14.6160   -1.2800 C   0  0  0  0  0  0  0  0  0  0  0  0
   -2.1540   14.8020   -0.6760 N   0  0  0  0  0  0  0  0  0  0  0  0
    0.0530   14.4250   -0.4870 N   0  0  0  0  0  0  0  0  0  0  0  0
   -1.7980   14.7310    0.5830 N   0  0  0  0  0  0  0  0  0  0  0  0
   -0.4600   14.5030    0.7320 C   0  0  0  0  0  0  0  0  0  0  0  0
   -2.9250   14.9290    1.4110 C   0  0  1  0  0  0  0  0  0  0  0  0
   -3.5840   16.0750    0.6680 C   0  0  0  0  0  0  0  0  0  0  0  0
   -3.9870   13.9490    1.4240 N   0  0  0  0  0  0  0  0  0  0  0  0
   -4.5920   15.4180   -0.1050 N   0  0  0  0  0  0  0  0  0  0  0  0
   -5.0650   14.4360    0.7050 C   0  0  0  0  0  0  0  0  0  0  0  0
   -6.2200   14.0790    0.7810 O   0  0  0  0  0  0  0  0  0  0  0  0
  1  2  1  0
  2  3  2  0
  2  4  1  0
  3  5  1  0
  4  6  2  0
  5  6  1  0
  7  5  1  6
  7  8  1  0
  7  9  1  0
  8 10  1  0
  9 11  1  0
 10 11  1  0
 11 12  2  0
M  END
