x0918_2_A-x0796_0_B
     RDKit          3D

 25 28  0  0  0  0  0  0  0  0999 V2000
   14.4800    4.9880   11.3720 N   0  0  0  0  0  0  0  0  0  0  0  0
   14.7470    4.3190   10.1730 C   0  0  0  0  0  0  0  0  0  0  0  0
   14.5140    2.9430   10.1000 C   0  0  0  0  0  0  0  0  0  0  0  0
   15.2340    4.9750    9.0500 C   0  0  0  0  0  0  0  0  0  0  0  0
   15.5080    6.4560    9.0140 C   0  0  0  0  0  0  0  0  0  0  0  0
   15.4630    4.1930    7.9080 C   0  0  0  0  0  0  0  0  0  0  0  0
   14.7710    2.2700    8.9210 C   0  0  0  0  0  0  0  0  0  0  0  0
   15.6840    7.2220   10.3340 C   0  0  0  0  0  0  0  0  0  0  0  0
   15.2430    2.8660    7.8120 N   0  0  0  0  0  0  0  0  0  0  0  0
   14.5560    8.2450   10.5960 C   0  0  0  0  0  0  0  0  0  0  0  0
   15.0050    9.5420   11.2360 C   0  0  0  0  0  0  0  0  0  0  0  0
   14.1780   10.5940   11.7050 C   0  0  0  0  0  0  0  0  0  0  0  0
   16.3980    9.6890   11.3720 C   0  0  0  0  0  0  0  0  0  0  0  0
   12.7670   10.5830   11.6340 N   0  0  0  0  0  0  0  0  0  0  0  0
   14.7730   11.7240   12.2900 C   0  0  0  0  0  0  0  0  0  0  0  0
   16.9640   10.8160   11.9480 C   0  0  0  0  0  0  0  0  0  0  0  0
   13.8740   12.8110   12.7970 C   0  0  0  0  0  0  0  0  0  0  0  0
   11.9650   11.2860   12.5210 C   0  0  0  0  0  0  0  0  0  0  0  0
   16.1540   11.8360   12.4090 C   0  0  0  0  0  0  0  0  0  0  0  0
   10.7300   11.2210   12.4900 O   0  0  0  0  0  0  0  0  0  0  0  0
   12.7430   12.1250   13.5490 C   0  0  2  0  0  0  0  0  0  0  0  0
   11.9020   13.1090   14.2790 N   0  0  0  0  0  0  0  0  0  0  0  0
   13.2420   11.1700   14.6400 C   0  0  0  0  0  0  0  0  0  0  0  0
   12.1750   11.2560   15.7090 C   0  0  0  0  0  0  0  0  0  0  0  0
   11.8400   12.7210   15.6950 C   0  0  0  0  0  0  0  0  0  0  0  0
  1  2  1  0
  2  3  2  0
  2  4  1  0
  4  5  1  0
  4  6  2  0
  3  7  1  0
  5  8  1  0
  6  9  1  0
  7  9  2  0
  8 10  1  0
 10 11  1  0
 11 12  1  0
 11 13  2  0
 12 14  1  0
 12 15  2  0
 13 16  1  0
 15 17  1  0
 14 18  1  0
 15 19  1  0
 16 19  2  0
 18 20  2  0
 21 17  1  6
 21 18  1  0
 21 22  1  0
 21 23  1  0
 23 24  1  0
 22 25  1  0
 24 25  1  0
M  END
