x0910_2_B_α-x0766_1_B_α
     RDKit          3D

 26 28  0  0  0  0  0  0  0  0999 V2000
  -12.5590   21.4690   -3.4150 N   0  0  0  0  0  0  0  0  0  0  0  0
  -12.7180   22.4200   -2.4790 C   0  0  0  0  0  0  0  0  0  0  0  0
  -13.1660   23.7030   -2.7120 N   0  0  0  0  0  0  0  0  0  0  0  0
  -12.4840   22.2660   -1.2030 N   0  0  0  0  0  0  0  0  0  0  0  0
  -13.5990   24.3550   -3.9660 C   0  0  0  0  0  0  0  0  0  0  0  0
  -13.1950   24.3950   -1.5400 N   0  0  0  0  0  0  0  0  0  0  0  0
  -12.7820   23.4760   -0.6710 C   0  0  0  0  0  0  0  0  0  0  0  0
  -12.5210   24.9300   -4.8990 C   0  0  0  0  0  0  0  0  0  0  0  0
  -12.9070   25.4910   -6.2810 C   0  0  0  0  0  0  0  0  0  0  0  0
  -11.9850   25.1530   -7.4790 C   0  0  0  0  0  0  0  0  0  0  0  0
  -10.6920   25.9890   -7.6270 C   0  0  0  0  0  0  0  0  0  0  0  0
  -10.3840   26.4090   -9.0910 C   0  0  0  0  0  0  0  0  0  0  0  0
   -8.9100   26.2760   -9.5570 C   0  0  0  0  0  0  0  0  0  0  0  0
   -8.5750   27.0740  -10.8440 C   0  0  2  0  0  0  0  0  0  0  0  0
   -8.0120   26.1440  -11.8840 C   0  0  0  0  0  0  0  0  0  0  0  0
   -7.4360   28.1450  -10.9280 C   0  0  0  0  0  0  0  0  0  0  0  0
   -7.9250   27.1140  -13.0470 C   0  0  1  0  0  0  0  0  0  0  0  0
   -7.3740   28.4070  -12.4310 C   0  0  2  0  0  0  0  0  0  0  0  0
   -7.2780   26.5640  -14.2800 C   0  0  0  0  0  0  0  0  0  0  0  0
   -6.1790   29.0330  -13.1090 C   0  0  0  0  0  0  0  0  0  0  0  0
   -7.8870   26.4040  -15.3140 O   0  0  0  0  0  0  0  0  0  0  0  0
   -5.9680   26.2610  -14.1590 O   0  0  0  0  0  0  0  0  0  0  0  0
   -4.8300   28.8770  -12.8230 C   0  0  0  0  0  0  0  0  0  0  0  0
   -6.3480   29.9220  -14.2230 C   0  0  0  0  0  0  0  0  0  0  0  0
   -5.1740   30.3940  -14.7400 C   0  0  0  0  0  0  0  0  0  0  0  0
   -3.8340   29.7790  -13.8950 S   0  0  0  0  0  0  0  0  0  0  0  0
  1  2  1  0
  2  3  1  0
  2  4  2  0
  3  5  1  0
  3  6  1  0
  4  7  1  0
  6  7  2  0
  5  8  1  0
  8  9  1  0
  9 10  1  0
 10 11  1  0
 11 12  1  0
 12 13  1  0
 14 13  1  1
 14 15  1  0
 14 16  1  0
 15 17  1  0
 16 18  1  0
 17 18  1  0
 17 19  1  6
 18 20  1  6
 19 21  2  0
 19 22  1  0
 20 23  2  0
 20 24  1  0
 24 25  2  0
 23 26  1  0
 25 26  1  0
M  END
