x0910_1_A_α-x0685_0_A_α
     RDKit          3D

 10 11  0  0  0  0  0  0  0  0999 V2000
   -7.6940   14.5400    1.0250 N   0  0  0  0  0  0  0  0  0  0  0  0
   -7.2860   14.5820    2.4200 C   0  0  0  0  0  0  0  0  0  0  0  0
   -5.8890   14.9810    2.4080 N   0  0  0  0  0  0  0  0  0  0  0  0
   -6.5030   14.2080    0.2750 C   0  0  1  0  0  0  0  0  0  0  0  0
   -6.4180   15.1020   -0.8890 N   0  0  0  0  0  0  0  0  0  0  0  0
   -5.3460   14.4670    1.1330 N   0  0  0  0  0  0  0  0  0  0  0  0
   -5.0590   15.5280   -0.9340 N   0  0  0  0  0  0  0  0  0  0  0  0
   -4.5270   15.4630    0.4350 C   0  0  0  0  0  0  0  0  0  0  0  0
   -4.2960   15.2720   -2.0270 C   0  0  0  0  0  0  0  0  0  0  0  0
   -3.5980   15.0900   -2.9490 N   0  0  0  0  0  0  0  0  0  0  0  0
  1  2  1  0
  2  3  1  0
  4  1  1  1
  4  5  1  0
  3  6  1  0
  4  6  1  0
  5  7  1  0
  6  8  1  0
  7  8  1  0
  7  9  1  0
  9 10  3  0
M  END
