x0910_1_A-x0290_0_A
     RDKit          3D

 18 19  0  0  0  0  0  0  0  0999 V2000
   -7.3940   14.4560    1.2510 N   0  0  0  0  0  0  0  0  0  0  0  0
   -8.6690   13.8310    0.9230 C   0  0  0  0  0  0  0  0  0  0  0  0
   -6.4420   13.7550    2.1200 C   0  0  0  0  0  0  0  0  0  0  0  0
   -6.6150   14.9490    0.2810 C   0  0  0  0  0  0  0  0  0  0  0  0
   -5.1300   13.6870    1.3270 C   0  0  0  0  0  0  0  0  0  0  0  0
   -6.9510   15.1450   -1.0220 N   0  0  0  0  0  0  0  0  0  0  0  0
   -5.3750   15.3280    0.4610 N   0  0  0  0  0  0  0  0  0  0  0  0
   -5.1230   13.0380    0.2700 O   0  0  0  0  0  0  0  0  0  0  0  0
   -3.9640   14.3200    1.6350 N   0  0  0  0  0  0  0  0  0  0  0  0
   -5.9110   15.6600   -1.7060 N   0  0  0  0  0  0  0  0  0  0  0  0
   -4.9830   15.7510   -0.7570 C   0  0  0  0  0  0  0  0  0  0  0  0
   -2.7390   14.4280    0.9730 C   0  0  0  0  0  0  0  0  0  0  0  0
   -1.6800   14.4690    1.8090 N   0  0  0  0  0  0  0  0  0  0  0  0
   -2.5740   14.4810   -0.4000 C   0  0  0  0  0  0  0  0  0  0  0  0
   -0.4460   14.5630    1.2660 C   0  0  0  0  0  0  0  0  0  0  0  0
   -1.2890   14.5790   -0.9470 C   0  0  0  0  0  0  0  0  0  0  0  0
   -1.1030   14.6350   -2.4350 C   0  0  0  0  0  0  0  0  0  0  0  0
   -0.1990   14.6210   -0.0870 C   0  0  0  0  0  0  0  0  0  0  0  0
  1  2  1  0
  1  3  1  0
  1  4  1  0
  3  5  1  0
  4  6  1  0
  4  7  2  0
  5  8  2  0
  5  9  1  0
  6 10  1  0
  7 11  1  0
 10 11  2  0
  9 12  1  0
 12 13  2  0
 12 14  1  0
 13 15  1  0
 14 16  2  0
 16 17  1  0
 15 18  2  0
 16 18  1  0
M  END
