x0918_0_B-x0380_0_B
     RDKit          3D

 12 12  0  0  0  0  0  0  0  0999 V2000
   -3.5920   29.7800  -14.7030 N   0  0  0  0  0  0  0  0  0  0  0  0
   -3.3260   30.9390  -15.3740 C   0  0  0  0  0  0  0  0  0  0  0  0
   -3.9830   31.9660  -15.2510 O   0  0  0  0  0  0  0  0  0  0  0  0
   -4.4340   29.8750  -13.5660 C   0  0  0  0  0  0  0  0  0  0  0  0
   -2.1180   30.8400  -16.2970 C   0  0  0  0  0  0  0  0  0  0  0  0
   -5.8670   29.9970  -14.0350 C   0  0  0  0  0  0  0  0  0  0  0  0
   -4.2300   28.7050  -12.6500 C   0  0  0  0  0  0  0  0  0  0  0  0
   -2.3530   31.6420  -17.5120 N   0  0  0  0  0  0  0  0  0  0  0  0
   -6.8380   29.4660  -13.2830 C   0  0  0  0  0  0  0  0  0  0  0  0
   -5.2840   28.2410  -11.9690 C   0  0  0  0  0  0  0  0  0  0  0  0
   -6.5100   28.8230  -12.1190 N   0  0  0  0  0  0  0  0  0  0  0  0
   -7.7650   28.2110  -11.1720 Cl  0  0  0  0  0  0  0  0  0  0  0  0
  1  2  1  0
  2  3  2  0
  1  4  1  0
  2  5  1  0
  4  6  1  0
  4  7  1  0
  5  8  1  0
  6  9  2  0
  7 10  2  0
  9 11  1  0
 10 11  1  0
 11 12  1  0
M  END
