x0910_0_A-x0282_0_A
     RDKit          3D

 13 14  0  0  0  0  0  0  0  0999 V2000
   -2.7160   15.8050   -1.6540 N   0  0  0  0  0  0  0  0  0  0  0  0
   -2.1050   15.3270   -0.5400 C   0  0  0  0  0  0  0  0  0  0  0  0
   -2.8360   14.6750    0.6320 C   0  0  1  0  0  0  0  0  0  0  0  0
   -0.8210   15.3510   -0.3790 N   0  0  0  0  0  0  0  0  0  0  0  0
   -1.6470   14.3590    1.5050 N   0  0  0  0  0  0  0  0  0  0  0  0
   -0.6110   14.7750    0.8420 C   0  0  0  0  0  0  0  0  0  0  0  0
   -3.7640   15.4900    1.5190 C   0  0  0  0  0  0  0  0  0  0  0  0
   -3.6510   13.4860    0.1170 C   0  0  0  0  0  0  0  0  0  0  0  0
   -5.1400   14.8690    1.7210 C   0  0  0  0  0  0  0  0  0  0  0  0
   -4.9650   13.9400   -0.5590 C   0  0  0  0  0  0  0  0  0  0  0  0
   -5.8980   14.6560    0.4200 C   0  0  1  0  0  0  0  0  0  0  0  0
   -7.1930   13.8730    0.6900 C   0  0  0  0  0  0  0  0  0  0  0  0
   -8.3360   14.5840    0.2210 O   0  0  0  0  0  0  0  0  0  0  0  0
  1  2  1  0
  2  3  1  0
  2  4  2  0
  3  5  1  0
  4  6  1  0
  5  6  2  0
  3  7  1  1
  3  8  1  0
  7  9  1  0
  8 10  1  0
  9 11  1  0
 10 11  1  0
 11 12  1  1
 12 13  1  0
M  END
