x0918_0_B_α-5cms_A_0_A_α
     RDKit          3D

 19 20  0  0  0  0  0  0  0  0999 V2000
   -3.4740   29.7600  -14.8080 N   0  0  0  0  0  0  0  0  0  0  0  0
   -4.4830   29.5300  -13.8620 C   0  0  0  0  0  0  0  0  0  0  0  0
   -4.4260   28.4620  -12.9650 C   0  0  0  0  0  0  0  0  0  0  0  0
   -5.5850   30.3820  -13.8100 C   0  0  0  0  0  0  0  0  0  0  0  0
   -3.2920   27.4660  -12.9510 C   0  0  0  0  0  0  0  0  0  0  0  0
   -6.5780   30.1500  -12.8750 C   0  0  0  0  0  0  0  0  0  0  0  0
   -5.4800   28.3240  -12.0580 C   0  0  0  0  0  0  0  0  0  0  0  0
   -3.7160   26.0850  -12.4210 C   0  0  0  0  0  0  0  0  0  0  0  0
   -6.5520   29.1390  -11.9910 N   0  0  0  0  0  0  0  0  0  0  0  0
   -2.5780   25.0700  -12.3240 C   0  0  0  0  0  0  0  0  0  0  0  0
   -1.8000   25.2000  -11.1500 O   0  0  0  0  0  0  0  0  0  0  0  0
   -1.8770   24.1230  -10.1720 C   0  0  1  0  0  0  0  0  0  0  0  0
   -3.3100   23.4930   -9.9970 C   0  0  1  0  0  0  0  0  0  0  0  0
   -1.1030   22.8930  -10.4800 C   0  0  2  0  0  0  0  0  0  0  0  0
   -1.2740   22.5010  -11.8130 O   0  0  0  0  0  0  0  0  0  0  0  0
   -4.2650   23.8220  -10.9700 O   0  0  0  0  0  0  0  0  0  0  0  0
   -1.7970   22.1280   -9.3780 C   0  0  1  0  0  0  0  0  0  0  0  0
   -3.1140   22.0760   -9.8970 O   0  0  0  0  0  0  0  0  0  0  0  0
   -1.2540   20.8430   -8.8090 C   0  0  0  0  0  0  0  0  0  0  0  0
  1  2  1  0
  2  3  2  0
  2  4  1  0
  3  5  1  0
  4  6  2  0
  3  7  1  0
  5  8  1  0
  6  9  1  0
  7  9  2  0
  8 10  1  0
 10 11  1  0
 12 11  1  6
 12 13  1  0
 12 14  1  0
 14 15  1  6
 13 16  1  6
 14 17  1  0
 13 18  1  0
 17 18  1  0
 17 19  1  6
M  END
