x0910_1_A_α-x0724_0_A_α
     RDKit          3D

 14 15  0  0  0  0  0  0  0  0999 V2000
   -8.2620   13.4280    0.0450 N   0  0  0  0  0  0  0  0  0  0  0  0
   -7.6980   14.6930    0.3490 C   0  0  2  0  0  0  0  0  0  0  0  0
   -7.1860   15.2380   -0.8980 N   0  0  0  0  0  0  0  0  0  0  0  0
   -6.6120   14.4410    1.2280 N   0  0  0  0  0  0  0  0  0  0  0  0
   -6.9480   14.9370    2.5950 C   0  0  0  0  0  0  0  0  0  0  0  0
   -5.8480   15.7480   -0.5790 N   0  0  0  0  0  0  0  0  0  0  0  0
   -5.3950   14.7530    0.3780 C   0  0  0  0  0  0  0  0  0  0  0  0
   -7.3850   13.8260    3.4650 N   0  0  0  0  0  0  0  0  0  0  0  0
   -4.1440   15.2360    1.0760 C   0  0  0  0  0  0  0  0  0  0  0  0
   -4.9960   13.6690   -0.6250 C   0  0  0  0  0  0  0  0  0  0  0  0
   -8.1350   14.2780    4.6460 C   0  0  0  0  0  0  0  0  0  0  0  0
   -2.9500   15.2350    0.4470 C   0  0  0  0  0  0  0  0  0  0  0  0
   -3.8100   13.6840   -1.2570 C   0  0  0  0  0  0  0  0  0  0  0  0
   -2.8090   14.7600   -0.9800 C   0  0  0  0  0  0  0  0  0  0  0  0
  2  1  1  6
  2  3  1  0
  2  4  1  0
  4  5  1  0
  3  6  1  0
  4  7  1  0
  6  7  1  0
  5  8  1  0
  7  9  1  0
  7 10  1  0
  8 11  1  0
  9 12  2  0
 10 13  2  0
 12 14  1  0
 13 14  1  0
M  END
