x0910_1_A_α-x0950_0_A_α
     RDKit          3D

 16 16  0  0  0  0  0  0  0  0999 V2000
   -7.9600   14.2950    0.9080 N   0  0  0  0  0  0  0  0  0  0  0  0
   -6.7480   14.6680    0.4730 C   0  0  0  0  0  0  0  0  0  0  0  0
   -6.5280   15.2790   -0.7350 N   0  0  0  0  0  0  0  0  0  0  0  0
   -5.6140   14.5290    1.0900 N   0  0  0  0  0  0  0  0  0  0  0  0
   -5.2170   15.5440   -0.9120 N   0  0  0  0  0  0  0  0  0  0  0  0
   -4.6980   15.0630    0.2290 C   0  0  0  0  0  0  0  0  0  0  0  0
   -3.2470   15.0760    0.5750 C   0  0  0  0  0  0  0  0  0  0  0  0
   -2.3990   14.4790   -0.5620 C   0  0  0  0  0  0  0  0  0  0  0  0
   -0.9160   14.2060   -0.2420 C   0  0  0  0  0  0  0  0  0  0  0  0
   -0.0420   13.8910   -1.4750 C   0  0  0  0  0  0  0  0  0  0  0  0
    0.6080   12.6030   -1.3950 O   0  0  0  0  0  0  0  0  0  0  0  0
    0.7160   11.8500   -2.5440 C   0  0  0  0  0  0  0  0  0  0  0  0
    1.1800   12.6930   -3.7660 C   0  0  1  0  0  0  0  0  0  0  0  0
    0.4780   10.6370   -2.5690 O   0  0  0  0  0  0  0  0  0  0  0  0
    2.6940   12.8820   -3.7780 C   0  0  0  0  0  0  0  0  0  0  0  0
    0.7920   12.1560   -5.0320 O   0  0  0  0  0  0  0  0  0  0  0  0
  1  2  1  0
  2  3  1  0
  2  4  2  0
  3  5  1  0
  4  6  1  0
  5  6  2  0
  6  7  1  0
  7  8  1  0
  8  9  1  0
  9 10  1  0
 10 11  1  0
 11 12  1  0
 12 13  1  0
 12 14  2  0
 13 15  1  6
 13 16  1  0
M  END
