x0910_0_A-x0465_0_A
     RDKit          3D

 20 21  0  0  0  0  0  0  0  0999 V2000
   -2.2510   14.3930   -1.9730 N   0  0  0  0  0  0  0  0  0  0  0  0
   -1.7530   14.5200   -0.7340 C   0  0  0  0  0  0  0  0  0  0  0  0
   -2.3590   15.0170    0.3200 N   0  0  0  0  0  0  0  0  0  0  0  0
   -0.4840   14.1330   -0.3710 N   0  0  0  0  0  0  0  0  0  0  0  0
    0.6010   13.5190   -1.1320 C   0  0  0  0  0  0  0  0  0  0  0  0
   -1.4940   14.9650    1.3790 N   0  0  0  0  0  0  0  0  0  0  0  0
   -0.3870   14.4400    0.9550 C   0  0  0  0  0  0  0  0  0  0  0  0
    0.5950   13.6250   -2.5830 N   0  0  0  0  0  0  0  0  0  0  0  0
    0.6410   12.5290   -3.2690 C   0  0  0  0  0  0  0  0  0  0  0  0
    0.6780   12.5870   -4.7950 C   0  0  1  0  0  0  0  0  0  0  0  0
    0.6770   11.2860   -2.7270 O   0  0  0  0  0  0  0  0  0  0  0  0
    2.0510   13.1380   -5.1300 C   0  0  0  0  0  0  0  0  0  0  0  0
    0.5750   11.3620   -5.4930 O   0  0  0  0  0  0  0  0  0  0  0  0
   -0.6390   10.7570   -5.6240 C   0  0  0  0  0  0  0  0  0  0  0  0
   -0.7050    9.7300   -6.5750 C   0  0  0  0  0  0  0  0  0  0  0  0
   -1.7870   11.0740   -4.9020 C   0  0  0  0  0  0  0  0  0  0  0  0
    0.3730    9.3940   -7.2980 F   0  0  0  0  0  0  0  0  0  0  0  0
   -1.8830    9.0290   -6.8020 C   0  0  0  0  0  0  0  0  0  0  0  0
   -2.9760   10.3720   -5.1280 C   0  0  0  0  0  0  0  0  0  0  0  0
   -3.0230    9.3520   -6.0750 C   0  0  0  0  0  0  0  0  0  0  0  0
  1  2  1  0
  2  3  2  0
  2  4  1  0
  4  5  1  0
  3  6  1  0
  4  7  1  0
  6  7  2  0
  5  8  1  0
  8  9  2  3
  9 10  1  0
  9 11  1  0
 10 12  1  1
 10 13  1  0
 13 14  1  0
 14 15  2  0
 14 16  1  0
 15 17  1  0
 15 18  1  0
 16 19  2  0
 18 20  2  0
 19 20  1  0
M  END
