x0926_0_A_α-x0689_0_A_α
     RDKit          3D

 14 15  0  0  0  0  0  0  0  0999 V2000
   -7.1220   15.0780   -0.7290 O   0  0  0  0  0  0  0  0  0  0  0  0
   -5.9470   15.0210   -0.3750 C   0  0  0  0  0  0  0  0  0  0  0  0
   -5.5670   14.5390    1.0120 C   0  0  0  0  0  0  0  0  0  0  0  0
   -4.9490   15.3890   -1.2350 N   0  0  0  0  0  0  0  0  0  0  0  0
   -3.6240   15.4700   -0.8020 N   0  0  0  0  0  0  0  0  0  0  0  0
   -4.2340   15.0170    1.5610 C   0  0  2  0  0  0  0  0  0  0  0  0
   -3.5840   15.9740    0.5900 C   0  0  0  0  0  0  0  0  0  0  0  0
   -3.2860   13.9470    1.7360 N   0  0  0  0  0  0  0  0  0  0  0  0
   -2.1580   14.2080    1.0060 C   0  0  0  0  0  0  0  0  0  0  0  0
   -2.1500   14.1290   -0.3330 N   0  0  0  0  0  0  0  0  0  0  0  0
   -1.1210   14.5460    1.7440 N   0  0  0  0  0  0  0  0  0  0  0  0
   -0.9980   14.4210   -0.9500 C   0  0  0  0  0  0  0  0  0  0  0  0
   -0.0050   14.8360    1.0810 C   0  0  0  0  0  0  0  0  0  0  0  0
    0.1310   14.7900   -0.2780 C   0  0  0  0  0  0  0  0  0  0  0  0
  1  2  2  0
  2  3  1  0
  2  4  1  0
  4  5  1  0
  3  6  1  0
  5  7  1  0
  6  7  1  0
  6  8  1  6
  8  9  1  0
  9 10  2  0
  9 11  1  0
 10 12  1  0
 11 13  2  0
 12 14  2  0
 13 14  1  0
M  END
