x0926_0_A_α-x0910_1_A_α
     RDKit          3D

  8  8  0  0  0  0  0  0  0  0999 V2000
   -6.7240   15.0850   -0.9830 O   0  0  0  0  0  0  0  0  0  0  0  0
   -5.5400   15.2080   -0.6660 C   0  0  0  0  0  0  0  0  0  0  0  0
   -5.0710   15.2020    0.8060 C   0  0  1  0  0  0  0  0  0  0  0  0
   -4.5650   15.3520   -1.6310 N   0  0  0  0  0  0  0  0  0  0  0  0
   -6.0760   14.4440    1.5890 N   0  0  0  0  0  0  0  0  0  0  0  0
   -3.2130   15.2160   -1.2940 N   0  0  0  0  0  0  0  0  0  0  0  0
   -3.6660   14.7700    0.9970 C   0  0  0  0  0  0  0  0  0  0  0  0
   -2.8360   14.8010   -0.0430 C   0  0  0  0  0  0  0  0  0  0  0  0
  1  2  2  0
  2  3  1  0
  2  4  1  0
  3  5  1  1
  4  6  1  0
  3  7  1  0
  6  8  1  0
  7  8  2  0
M  END
