x0926_0_A-x0895_0_A
     RDKit          3D

  8  8  0  0  0  0  0  0  0  0999 V2000
   -6.5390   15.0470   -0.1810 O   0  0  0  0  0  0  0  0  0  0  0  0
   -5.3090   15.1360   -0.1830 C   0  0  0  0  0  0  0  0  0  0  0  0
   -4.4800   15.0720    1.0860 C   0  0  0  0  0  0  0  0  0  0  0  0
   -4.6410   15.2800   -1.3730 N   0  0  0  0  0  0  0  0  0  0  0  0
   -3.2880   14.9610   -1.5080 N   0  0  0  0  0  0  0  0  0  0  0  0
   -2.9800   15.1350    0.9030 C   0  0  0  0  0  0  0  0  0  0  0  0
   -2.1530   14.8650    1.8040 O   0  0  0  0  0  0  0  0  0  0  0  0
   -2.4670   15.5550   -0.4540 C   0  0  0  0  0  0  0  0  0  0  0  0
  1  2  2  0
  2  3  1  0
  2  4  1  0
  4  5  1  0
  3  6  1  0
  6  7  2  0
  5  8  1  0
  6  8  1  0
M  END
