x0926_0_A-x0950_1_A
     RDKit          3D

 16 16  0  0  0  0  0  0  0  0999 V2000
   -6.6640   15.0460   -0.6290 O   0  0  0  0  0  0  0  0  0  0  0  0
   -5.4590   15.1580   -0.4240 C   0  0  0  0  0  0  0  0  0  0  0  0
   -4.9240   15.1980    0.9540 C   0  0  0  0  0  0  0  0  0  0  0  0
   -4.5270   15.2430   -1.4360 N   0  0  0  0  0  0  0  0  0  0  0  0
   -3.1490   14.9850   -1.2370 N   0  0  0  0  0  0  0  0  0  0  0  0
   -3.6160   15.3400    1.1670 C   0  0  0  0  0  0  0  0  0  0  0  0
   -2.6190   15.4670    0.0520 C   0  0  1  0  0  0  0  0  0  0  0  0
   -1.2540   14.8230    0.4190 C   0  0  0  0  0  0  0  0  0  0  0  0
   -0.1540   14.6950   -0.6520 C   0  0  0  0  0  0  0  0  0  0  0  0
   -0.3080   13.5500   -1.6500 C   0  0  0  0  0  0  0  0  0  0  0  0
    0.9730   13.0970   -2.1210 O   0  0  0  0  0  0  0  0  0  0  0  0
    0.8550   12.0800   -3.0250 C   0  0  0  0  0  0  0  0  0  0  0  0
    1.3590   12.5100   -4.4150 C   0  0  2  0  0  0  0  0  0  0  0  0
    0.3990   10.9770   -2.7580 O   0  0  0  0  0  0  0  0  0  0  0  0
    1.1240   13.9910   -4.6630 C   0  0  0  0  0  0  0  0  0  0  0  0
    0.7480   11.7620   -5.4640 O   0  0  0  0  0  0  0  0  0  0  0  0
  1  2  2  0
  2  3  1  0
  2  4  1  0
  4  5  1  0
  3  6  2  0
  5  7  1  0
  6  7  1  0
  7  8  1  1
  8  9  1  0
  9 10  1  0
 10 11  1  0
 11 12  1  0
 12 13  1  0
 12 14  2  0
 13 15  1  6
 13 16  1  0
M  END
