x0926_0_A-x0864_0_A
     RDKit          3D

 22 23  0  0  0  0  0  0  0  0999 V2000
   -6.7240   15.0510   -0.4360 O   0  0  0  0  0  0  0  0  0  0  0  0
   -5.5070   15.1700   -0.3640 C   0  0  0  0  0  0  0  0  0  0  0  0
   -4.8080   15.1510    0.9470 C   0  0  0  0  0  0  0  0  0  0  0  0
   -4.7020   15.3100   -1.4690 N   0  0  0  0  0  0  0  0  0  0  0  0
   -3.3230   15.0040   -1.4260 N   0  0  0  0  0  0  0  0  0  0  0  0
   -3.4800   15.3200    1.0060 C   0  0  0  0  0  0  0  0  0  0  0  0
   -2.6410   15.5440   -0.2290 C   0  0  1  0  0  0  0  0  0  0  0  0
   -1.2350   14.8960   -0.1680 C   0  0  0  0  0  0  0  0  0  0  0  0
   -0.5210   14.7800   -1.5380 C   0  0  0  0  0  0  0  0  0  0  0  0
    0.7910   13.9890   -1.5400 C   0  0  0  0  0  0  0  0  0  0  0  0
    0.5830   12.5470   -1.5470 N   0  0  0  0  0  0  0  0  0  0  0  0
    0.5140   11.8270   -2.6250 C   0  0  0  0  0  0  0  0  0  0  0  0
    0.6360   12.4340   -4.0330 C   0  0  0  0  0  0  0  0  0  0  0  0
    0.3320   10.4830   -2.5930 O   0  0  0  0  0  0  0  0  0  0  0  0
   -0.1180   11.6890   -5.0500 N   0  0  0  0  0  0  0  0  0  0  0  0
   -1.3420   11.1290   -4.7240 C   0  0  0  0  0  0  0  0  0  0  0  0
    0.5060   11.4260   -6.2690 C   0  0  0  0  0  0  0  0  0  0  0  0
    1.4900   12.0200   -6.6960 O   0  0  0  0  0  0  0  0  0  0  0  0
   -1.8980   10.1820   -5.4960 C   0  0  0  0  0  0  0  0  0  0  0  0
   -0.0760   10.3160   -7.0750 C   0  0  0  0  0  0  0  0  0  0  0  0
   -1.2170    9.7340   -6.6890 C   0  0  0  0  0  0  0  0  0  0  0  0
   -1.9910    8.3340   -7.6500 Br  0  0  0  0  0  0  0  0  0  0  0  0
  1  2  2  0
  2  3  1  0
  2  4  1  0
  4  5  1  0
  3  6  2  0
  5  7  1  0
  6  7  1  0
  7  8  1  1
  8  9  1  0
  9 10  1  0
 10 11  1  0
 11 12  2  3
 12 13  1  0
 12 14  1  0
 13 15  1  0
 15 16  1  0
 15 17  1  0
 17 18  2  0
 16 19  2  0
 17 20  1  0
 19 21  1  0
 20 21  2  0
 21 22  1  0
M  END
