x0926_0_A_α-x0290_0_A_α
     RDKit          3D

 19 20  0  0  0  0  0  0  0  0999 V2000
   -6.0040   14.9370    0.0540 N   0  0  0  0  0  0  0  0  0  0  0  0
   -5.7500   14.1820    1.0810 C   0  0  0  0  0  0  0  0  0  0  0  0
   -6.8730   13.5840    1.9390 C   0  0  0  0  0  0  0  0  0  0  0  0
   -4.8330   15.3100   -0.4350 C   0  0  0  0  0  0  0  0  0  0  0  0
   -4.4350   13.8280    1.5410 N   0  0  0  0  0  0  0  0  0  0  0  0
   -3.9730   15.7150    0.5530 C   0  0  0  0  0  0  0  0  0  0  0  0
   -4.5200   15.2660   -1.7360 N   0  0  0  0  0  0  0  0  0  0  0  0
   -8.1220   13.5060    1.1320 N   0  0  0  0  0  0  0  0  0  0  0  0
   -3.2570   15.6290   -2.0880 N   0  0  0  0  0  0  0  0  0  0  0  0
   -2.7160   16.0680    0.2040 C   0  0  0  0  0  0  0  0  0  0  0  0
   -3.0790   14.0320    1.0330 C   0  0  0  0  0  0  0  0  0  0  0  0
   -8.6470   14.8460    0.8640 C   0  0  0  0  0  0  0  0  0  0  0  0
   -2.3890   16.0110   -1.1280 C   0  0  0  0  0  0  0  0  0  0  0  0
   -2.0250   14.3220    1.8600 N   0  0  0  0  0  0  0  0  0  0  0  0
   -2.8360   13.9150   -0.3510 C   0  0  0  0  0  0  0  0  0  0  0  0
   -0.7830   14.4830    1.3280 C   0  0  0  0  0  0  0  0  0  0  0  0
   -1.5360   14.1010   -0.8810 C   0  0  0  0  0  0  0  0  0  0  0  0
   -1.2780   13.9900   -2.3530 C   0  0  0  0  0  0  0  0  0  0  0  0
   -0.4940   14.3880   -0.0110 C   0  0  0  0  0  0  0  0  0  0  0  0
  1  2  2  3
  2  3  1  0
  1  4  1  0
  2  5  1  0
  4  6  2  0
  4  7  1  0
  3  8  1  0
  7  9  2  0
  6 10  1  0
  5 11  1  0
  8 12  1  0
  9 13  1  0
 10 13  2  0
 11 14  2  0
 11 15  1  0
 14 16  1  0
 15 17  2  0
 17 18  1  0
 16 19  2  0
 17 19  1  0
M  END
