x0926_0_A-x0471_0_A
     RDKit          3D

 17 18  0  0  0  0  0  0  0  0999 V2000
   -5.9930   16.0900   -0.7370 O   0  0  0  0  0  0  0  0  0  0  0  0
   -5.7140   14.7490   -0.5340 C   0  0  2  0  0  0  0  0  0  0  0  0
   -5.1520   14.4130    0.8490 C   0  0  1  0  0  0  0  0  0  0  0  0
   -4.8290   14.2880   -1.5860 N   0  0  0  0  0  0  0  0  0  0  0  0
   -7.0020   14.0950   -0.4420 N   0  0  0  0  0  0  0  0  0  0  0  0
   -3.4610   14.7290   -1.3680 N   0  0  0  0  0  0  0  0  0  0  0  0
   -3.7710   14.9440    1.0340 C   0  0  0  0  0  0  0  0  0  0  0  0
   -7.4560   14.5880    0.8910 C   0  0  2  0  0  0  0  0  0  0  0  0
   -6.2380   14.8920    1.6930 N   0  0  0  0  0  0  0  0  0  0  0  0
   -8.4700   13.6580    1.5990 C   0  0  0  0  0  0  0  0  0  0  0  0
   -3.0310   15.0470   -0.0730 C   0  0  0  0  0  0  0  0  0  0  0  0
   -8.4790   13.8460    3.0460 N   0  0  0  0  0  0  0  0  0  0  0  0
   -9.0370   14.9520    3.6550 C   0  0  0  0  0  0  0  0  0  0  0  0
   -9.3500   15.9730    3.0480 O   0  0  0  0  0  0  0  0  0  0  0  0
   -9.2740   14.8360    5.1570 C   0  0  0  0  0  0  0  0  0  0  0  0
   -9.7160   13.4340    5.5660 C   0  0  0  0  0  0  0  0  0  0  0  0
   -8.0670   15.3210    5.9550 C   0  0  0  0  0  0  0  0  0  0  0  0
  2  1  1  1
  2  3  1  0
  2  4  1  0
  2  5  1  0
  4  6  1  0
  3  7  1  1
  5  8  1  0
  3  9  1  0
  8  9  1  0
  8 10  1  1
  6 11  1  0
  7 11  2  0
 10 12  1  0
 12 13  1  0
 13 14  2  0
 13 15  1  0
 15 16  1  0
 15 17  1  0
M  END
