x0926_0_A-x0933_0_A
     RDKit          3D

  8  8  0  0  0  0  0  0  0  0999 V2000
   -6.6180   15.0500   -0.8430 O   0  0  0  0  0  0  0  0  0  0  0  0
   -5.4170   15.2250   -0.6130 C   0  0  0  0  0  0  0  0  0  0  0  0
   -4.8470   15.4110    0.8130 C   0  0  1  0  0  0  0  0  0  0  0  0
   -4.4990   15.2540   -1.6400 N   0  0  0  0  0  0  0  0  0  0  0  0
   -5.8120   14.8510    1.7730 N   0  0  0  0  0  0  0  0  0  0  0  0
   -3.1330   15.0900   -1.3670 N   0  0  0  0  0  0  0  0  0  0  0  0
   -3.4770   14.8610    0.9760 C   0  0  0  0  0  0  0  0  0  0  0  0
   -2.7120   14.7380   -0.1050 C   0  0  0  0  0  0  0  0  0  0  0  0
  1  2  2  0
  2  3  1  0
  2  4  1  0
  3  5  1  1
  4  6  1  0
  3  7  1  0
  6  8  1  0
  7  8  2  0
M  END
