x0926_0_A_α-x0837_0_A_α
     RDKit          3D

  8  8  0  0  0  0  0  0  0  0999 V2000
   -6.8050   15.0700   -0.4130 O   0  0  0  0  0  0  0  0  0  0  0  0
   -5.5810   15.1370   -0.2900 C   0  0  0  0  0  0  0  0  0  0  0  0
   -4.8990   14.9520    1.0670 C   0  0  0  0  0  0  0  0  0  0  0  0
   -4.8010   15.3750   -1.3870 N   0  0  0  0  0  0  0  0  0  0  0  0
   -3.4460   15.1600   -1.3490 N   0  0  0  0  0  0  0  0  0  0  0  0
   -3.4120   14.9100    1.0190 C   0  0  0  0  0  0  0  0  0  0  0  0
   -2.6360   14.5630   -3.0400 I   0  0  0  0  0  0  0  0  0  0  0  0
   -2.7860   15.0080   -0.1550 C   0  0  0  0  0  0  0  0  0  0  0  0
  1  2  2  0
  2  3  1  0
  2  4  1  0
  4  5  1  0
  3  6  1  0
  5  7  1  0
  5  8  1  0
  6  8  2  0
M  END
