x0926_0_A_α-x0910_2_B_α
     RDKit          3D

 20 21  0  0  0  0  0  0  0  0999 V2000
   -6.6780   14.4890    0.5260 O   0  0  0  0  0  0  0  0  0  0  0  0
   -5.5940   14.8870    0.1260 C   0  0  0  0  0  0  0  0  0  0  0  0
   -4.5230   15.1930    1.0840 C   0  0  0  0  0  0  0  0  0  0  0  0
   -5.2920   15.0770   -1.1890 N   0  0  0  0  0  0  0  0  0  0  0  0
   -6.4630   15.2220   -2.0520 C   0  0  0  0  0  0  0  0  0  0  0  0
   -4.0020   14.9660   -1.6840 N   0  0  0  0  0  0  0  0  0  0  0  0
   -3.2720   15.2750    0.6550 C   0  0  0  0  0  0  0  0  0  0  0  0
   -7.5580   15.9610   -1.2590 C   0  0  0  0  0  0  0  0  0  0  0  0
   -3.0680   15.0560   -0.7840 C   0  0  0  0  0  0  0  0  0  0  0  0
   -8.9790   16.0930   -1.8030 C   0  0  0  0  0  0  0  0  0  0  0  0
   -9.5490   17.5130   -1.6800 C   0  0  0  0  0  0  0  0  0  0  0  0
  -10.9830   17.6660   -2.1870 C   0  0  0  0  0  0  0  0  0  0  0  0
  -11.6460   18.9860   -1.7530 C   0  0  0  0  0  0  0  0  0  0  0  0
  -12.3320   19.7650   -2.8830 C   0  0  0  0  0  0  0  0  0  0  0  0
  -11.8680   21.1320   -3.0260 N   0  0  0  0  0  0  0  0  0  0  0  0
  -12.2740   22.1770   -2.2670 C   0  0  0  0  0  0  0  0  0  0  0  0
  -11.7710   23.4420   -2.3850 N   0  0  0  0  0  0  0  0  0  0  0  0
  -13.1840   22.1690   -1.3160 N   0  0  0  0  0  0  0  0  0  0  0  0
  -12.3480   24.2760   -1.5110 N   0  0  0  0  0  0  0  0  0  0  0  0
  -13.1950   23.4630   -0.8830 C   0  0  0  0  0  0  0  0  0  0  0  0
  1  2  2  0
  2  3  1  0
  2  4  1  0
  4  5  1  0
  4  6  1  0
  3  7  2  0
  5  8  1  0
  6  9  2  0
  7  9  1  0
  8 10  1  0
 10 11  1  0
 11 12  1  0
 12 13  1  0
 13 14  1  0
 14 15  1  0
 15 16  1  0
 16 17  1  0
 16 18  2  0
 17 19  1  0
 18 20  1  0
 19 20  2  0
M  END
