x0926_0_A-x0910_0_A
     RDKit          3D

 12 13  0  0  0  0  0  0  0  0999 V2000
   -6.1400   13.7320   -1.5910 O   0  0  0  0  0  0  0  0  0  0  0  0
   -5.2940   14.4040   -1.0150 C   0  0  0  0  0  0  0  0  0  0  0  0
   -5.7130   15.2820    0.1080 C   0  0  0  0  0  0  0  0  0  0  0  0
   -3.9610   14.3810   -1.3930 N   0  0  0  0  0  0  0  0  0  0  0  0
   -3.0130   15.1340   -0.6510 N   0  0  0  0  0  0  0  0  0  0  0  0
   -4.6150   15.6830    0.9960 C   0  0  0  0  0  0  0  0  0  0  0  0
   -3.4100   15.5960    0.5630 C   0  0  0  0  0  0  0  0  0  0  0  0
   -1.7390   14.7640   -0.4090 C   0  0  0  0  0  0  0  0  0  0  0  0
   -1.4480   14.5500    0.9050 N   0  0  0  0  0  0  0  0  0  0  0  0
   -0.6630   14.5750   -1.1270 N   0  0  0  0  0  0  0  0  0  0  0  0
   -0.1820   14.2230    1.0900 N   0  0  0  0  0  0  0  0  0  0  0  0
    0.2610   14.2510   -0.1720 C   0  0  0  0  0  0  0  0  0  0  0  0
  1  2  2  0
  2  3  1  0
  2  4  1  0
  4  5  1  0
  3  6  1  0
  5  7  1  0
  6  7  2  0
  5  8  1  0
  8  9  1  0
  8 10  2  0
  9 11  1  0
 10 12  1  0
 11 12  2  0
M  END
