x0926_0_A-x0950_1_A
     RDKit          3D

 16 16  0  0  0  0  0  0  0  0999 V2000
   -6.6640   15.0370   -0.6060 O   0  0  0  0  0  0  0  0  0  0  0  0
   -5.4560   15.1690   -0.4110 C   0  0  0  0  0  0  0  0  0  0  0  0
   -4.9160   15.2140    0.9620 C   0  0  0  0  0  0  0  0  0  0  0  0
   -4.5340   15.2720   -1.4310 N   0  0  0  0  0  0  0  0  0  0  0  0
   -3.1550   15.0020   -1.2470 N   0  0  0  0  0  0  0  0  0  0  0  0
   -3.6060   15.3440    1.1660 C   0  0  0  0  0  0  0  0  0  0  0  0
   -2.6140   15.4530    0.0470 C   0  0  1  0  0  0  0  0  0  0  0  0
   -1.2690   14.7730    0.4180 C   0  0  0  0  0  0  0  0  0  0  0  0
   -0.1390   14.6990   -0.6230 C   0  0  0  0  0  0  0  0  0  0  0  0
   -0.2950   13.6370   -1.7070 C   0  0  0  0  0  0  0  0  0  0  0  0
    0.9750   13.1060   -2.1210 O   0  0  0  0  0  0  0  0  0  0  0  0
    0.8470   12.0840   -3.0180 C   0  0  0  0  0  0  0  0  0  0  0  0
    1.3530   12.4990   -4.4110 C   0  0  2  0  0  0  0  0  0  0  0  0
    0.3800   10.9860   -2.7400 O   0  0  0  0  0  0  0  0  0  0  0  0
    1.1270   13.9750   -4.6730 C   0  0  0  0  0  0  0  0  0  0  0  0
    0.7490   11.7500   -5.4660 O   0  0  0  0  0  0  0  0  0  0  0  0
  1  2  2  0
  2  3  1  0
  2  4  1  0
  4  5  1  0
  3  6  2  0
  5  7  1  0
  6  7  1  0
  7  8  1  1
  8  9  1  0
  9 10  1  0
 10 11  1  0
 11 12  1  0
 12 13  1  0
 12 14  2  0
 13 15  1  6
 13 16  1  0
M  END
