x0926_0_A_α-x0371_0_A_α
     RDKit          3D

 17 18  0  0  0  0  0  0  0  0999 V2000
   -6.8610   15.1100   -0.9030 O   0  0  0  0  0  0  0  0  0  0  0  0
   -5.6930   14.9340   -0.5580 C   0  0  0  0  0  0  0  0  0  0  0  0
   -5.3450   14.4380    0.8520 C   0  0  2  0  0  0  0  0  0  0  0  0
   -4.6490   15.1690   -1.4330 N   0  0  0  0  0  0  0  0  0  0  0  0
   -6.5000   14.7280    1.8470 C   0  0  0  0  0  0  0  0  0  0  0  0
   -3.3290   15.0490   -0.9950 N   0  0  0  0  0  0  0  0  0  0  0  0
   -3.9960   14.9840    1.2740 C   0  0  0  0  0  0  0  0  0  0  0  0
   -7.3100   13.5640    2.4280 C   0  0  0  0  0  0  0  0  0  0  0  0
   -3.0820   15.2360    0.3400 C   0  0  0  0  0  0  0  0  0  0  0  0
   -8.6000   13.9970    2.9390 N   0  0  0  0  0  0  0  0  0  0  0  0
   -8.8710   15.2450    3.4900 C   0  0  0  0  0  0  0  0  0  0  0  0
   -9.2730   16.1940    2.8160 O   0  0  0  0  0  0  0  0  0  0  0  0
   -8.6680   15.3360    4.9210 C   0  0  0  0  0  0  0  0  0  0  0  0
   -8.0800   14.2950    5.5820 O   0  0  0  0  0  0  0  0  0  0  0  0
   -8.9740   16.3370    5.8280 C   0  0  0  0  0  0  0  0  0  0  0  0
   -8.0110   14.6300    6.8940 C   0  0  0  0  0  0  0  0  0  0  0  0
   -8.5500   15.8740    7.0970 C   0  0  0  0  0  0  0  0  0  0  0  0
  1  2  2  0
  2  3  1  0
  2  4  1  0
  3  5  1  1
  4  6  1  0
  3  7  1  0
  5  8  1  0
  6  9  1  0
  7  9  2  0
  8 10  1  0
 10 11  1  0
 11 12  2  0
 11 13  1  0
 13 14  1  0
 13 15  2  0
 14 16  1  0
 15 17  1  0
 16 17  2  0
M  END
