x0926_0_A_α-x0805_0_A_β
     RDKit          3D

 19 20  0  0  0  0  0  0  0  0999 V2000
   -6.7800   14.9600   -0.5060 O   0  0  0  0  0  0  0  0  0  0  0  0
   -5.5790   15.1420   -0.3470 C   0  0  0  0  0  0  0  0  0  0  0  0
   -4.9880   15.2350    1.0090 C   0  0  0  0  0  0  0  0  0  0  0  0
   -4.6990   15.2700   -1.4040 N   0  0  0  0  0  0  0  0  0  0  0  0
   -3.2920   15.2730   -1.2300 N   0  0  0  0  0  0  0  0  0  0  0  0
   -3.7000   14.9800    1.1680 C   0  0  0  0  0  0  0  0  0  0  0  0
   -2.8540   14.5890    0.0100 C   0  0  2  0  0  0  0  0  0  0  0  0
   -1.3530   14.7240    0.3030 C   0  0  0  0  0  0  0  0  0  0  0  0
   -0.5070   14.5680   -0.9570 C   0  0  0  0  0  0  0  0  0  0  0  0
    0.5980   13.5820   -0.6830 C   0  0  0  0  0  0  0  0  0  0  0  0
    0.2790   12.2660   -1.2260 N   0  0  0  0  0  0  0  0  0  0  0  0
    0.3340   12.0900   -2.4870 C   0  0  0  0  0  0  0  0  0  0  0  0
    0.0700   10.9020   -3.0500 O   0  0  0  0  0  0  0  0  0  0  0  0
    0.7070   13.2340   -3.3710 C   0  0  2  0  0  0  0  0  0  0  0  0
   -0.4560   13.9840   -3.9780 C   0  0  0  0  0  0  0  0  0  0  0  0
    1.6990   12.9000   -4.4470 C   0  0  0  0  0  0  0  0  0  0  0  0
    2.3840   14.1190   -4.6660 O   0  0  0  0  0  0  0  0  0  0  0  0
    0.1020   15.3280   -4.3850 C   0  0  0  0  0  0  0  0  0  0  0  0
    1.6410   15.3500   -4.4260 C   0  0  0  0  0  0  0  0  0  0  0  0
  1  2  2  0
  2  3  1  0
  2  4  1  0
  4  5  1  0
  3  6  2  0
  5  7  1  0
  6  7  1  0
  7  8  1  1
  8  9  1  0
  9 10  1  0
 10 11  1  0
 11 12  2  3
 12 13  1  0
 14 12  1  6
 14 15  1  0
 14 16  1  0
 16 17  1  0
 15 18  1  0
 17 19  1  0
 18 19  1  0
M  END
