x0926_0_A_α-x0471_0_A_α
     RDKit          3D

 17 18  0  0  0  0  0  0  0  0999 V2000
   -5.9900   16.0930   -0.7290 O   0  0  0  0  0  0  0  0  0  0  0  0
   -5.7170   14.7510   -0.5350 C   0  0  2  0  0  0  0  0  0  0  0  0
   -5.1560   14.4090    0.8450 C   0  0  1  0  0  0  0  0  0  0  0  0
   -4.8300   14.2950   -1.5880 N   0  0  0  0  0  0  0  0  0  0  0  0
   -7.0100   14.1010   -0.4470 N   0  0  0  0  0  0  0  0  0  0  0  0
   -3.4630   14.7270   -1.3650 N   0  0  0  0  0  0  0  0  0  0  0  0
   -3.7790   14.9410    1.0360 C   0  0  0  0  0  0  0  0  0  0  0  0
   -7.4590   14.5920    0.8890 C   0  0  2  0  0  0  0  0  0  0  0  0
   -6.2410   14.8900    1.6880 N   0  0  0  0  0  0  0  0  0  0  0  0
   -8.4680   13.6640    1.6030 C   0  0  0  0  0  0  0  0  0  0  0  0
   -3.0320   15.0460   -0.0680 C   0  0  0  0  0  0  0  0  0  0  0  0
   -8.4760   13.8550    3.0500 N   0  0  0  0  0  0  0  0  0  0  0  0
   -9.0360   14.9600    3.6600 C   0  0  0  0  0  0  0  0  0  0  0  0
   -9.3520   15.9830    3.0570 O   0  0  0  0  0  0  0  0  0  0  0  0
   -9.2700   14.8400    5.1630 C   0  0  0  0  0  0  0  0  0  0  0  0
   -9.7150   13.4370    5.5640 C   0  0  0  0  0  0  0  0  0  0  0  0
   -8.0610   15.3210    5.9570 C   0  0  0  0  0  0  0  0  0  0  0  0
  2  1  1  1
  2  3  1  0
  2  4  1  0
  2  5  1  0
  4  6  1  0
  3  7  1  1
  5  8  1  0
  3  9  1  0
  8  9  1  0
  8 10  1  1
  6 11  1  0
  7 11  2  0
 10 12  1  0
 12 13  1  0
 13 14  2  0
 13 15  1  0
 15 16  1  0
 15 17  1  0
M  END
