x0926_0_A-x0465_0_A
     RDKit          3D

 23 24  0  0  0  0  0  0  0  0999 V2000
   -6.6990   15.0310   -0.3810 O   0  0  0  0  0  0  0  0  0  0  0  0
   -5.4810   15.1650   -0.3360 C   0  0  0  0  0  0  0  0  0  0  0  0
   -4.7570   15.2730    0.9560 C   0  0  0  0  0  0  0  0  0  0  0  0
   -4.6970   15.2200   -1.4650 N   0  0  0  0  0  0  0  0  0  0  0  0
   -3.2830   15.2400   -1.4350 N   0  0  0  0  0  0  0  0  0  0  0  0
   -3.4500   15.0070    0.9950 C   0  0  0  0  0  0  0  0  0  0  0  0
   -2.6970   14.5950   -0.2430 C   0  0  2  0  0  0  0  0  0  0  0  0
   -1.1870   14.9040   -0.1320 C   0  0  0  0  0  0  0  0  0  0  0  0
   -0.2520   13.7300   -0.0730 C   0  0  0  0  0  0  0  0  0  0  0  0
    0.6090   13.5710   -1.3250 C   0  0  0  0  0  0  0  0  0  0  0  0
    0.5160   12.1610   -1.6240 N   0  0  0  0  0  0  0  0  0  0  0  0
    0.5580   11.6280   -2.7930 C   0  0  0  0  0  0  0  0  0  0  0  0
    0.7100   12.3550   -4.1690 C   0  0  1  0  0  0  0  0  0  0  0  0
    0.4380   10.2800   -2.8220 O   0  0  0  0  0  0  0  0  0  0  0  0
    2.1080   12.9790   -4.2860 C   0  0  0  0  0  0  0  0  0  0  0  0
    0.5550   11.5330   -5.3360 O   0  0  0  0  0  0  0  0  0  0  0  0
   -0.6270   10.8680   -5.5340 C   0  0  0  0  0  0  0  0  0  0  0  0
   -0.6520    9.8830   -6.5420 C   0  0  0  0  0  0  0  0  0  0  0  0
   -1.7980   11.0970   -4.8110 C   0  0  0  0  0  0  0  0  0  0  0  0
    0.4340    9.6130   -7.2800 F   0  0  0  0  0  0  0  0  0  0  0  0
   -1.8040    9.1500   -6.8120 C   0  0  0  0  0  0  0  0  0  0  0  0
   -2.9570   10.3620   -5.0820 C   0  0  0  0  0  0  0  0  0  0  0  0
   -2.9620    9.3900   -6.0780 C   0  0  0  0  0  0  0  0  0  0  0  0
  1  2  2  0
  2  3  1  0
  2  4  1  0
  4  5  1  0
  3  6  2  0
  5  7  1  0
  6  7  1  0
  7  8  1  1
  8  9  1  0
  9 10  1  0
 10 11  1  0
 11 12  2  3
 12 13  1  0
 12 14  1  0
 13 15  1  1
 13 16  1  0
 16 17  1  0
 17 18  2  0
 17 19  1  0
 18 20  1  0
 18 21  1  0
 19 22  2  0
 21 23  2  0
 22 23  1  0
M  END
