x0926_0_A_α-x1018_0_A_α
     RDKit          3D

 13 14  0  0  0  0  0  0  0  0999 V2000
   -5.4410   16.9180   -0.6840 O   0  0  0  0  0  0  0  0  0  0  0  0
   -4.9400   16.0900   -0.0020 C   0  0  0  0  0  0  0  0  0  0  0  0
   -3.7780   16.1650    0.8470 C   0  0  0  0  0  0  0  0  0  0  0  0
   -5.4830   14.8240    0.0820 C   0  0  1  0  0  0  0  0  0  0  0  0
   -2.7650   15.3540    0.5750 C   0  0  0  0  0  0  0  0  0  0  0  0
   -5.1540   13.9980   -1.0390 N   0  0  0  0  0  0  0  0  0  0  0  0
   -5.2230   14.1740    1.4010 C   0  0  0  0  0  0  0  0  0  0  0  0
   -3.8420   13.4440   -0.7980 N   0  0  0  0  0  0  0  0  0  0  0  0
   -2.7060   14.3910   -0.5940 C   0  0  0  0  0  0  0  0  0  0  0  0
   -6.2560   13.0610   -0.8580 N   0  0  0  0  0  0  0  0  0  0  0  0
   -6.1980   13.3670    1.5600 C   0  0  0  0  0  0  0  0  0  0  0  0
   -7.0460   13.5080    0.3410 C   0  0  2  0  0  0  0  0  0  0  0  0
   -8.5890   12.6750    0.4750 Cl  0  0  0  0  0  0  0  0  0  0  0  0
  1  2  2  0
  2  3  1  0
  2  4  1  0
  3  5  2  0
  4  6  1  0
  4  7  1  1
  6  8  1  0
  5  9  1  0
  8  9  1  0
  6 10  1  0
  7 11  2  0
 10 12  1  0
 11 12  1  0
 12 13  1  1
M  END
