x0926_0_A-x0465_0_A
     RDKit          3D

 23 24  0  0  0  0  0  0  0  0999 V2000
   -6.6980   15.0350   -0.3800 O   0  0  0  0  0  0  0  0  0  0  0  0
   -5.4800   15.1700   -0.3370 C   0  0  0  0  0  0  0  0  0  0  0  0
   -4.7550   15.2840    0.9530 C   0  0  0  0  0  0  0  0  0  0  0  0
   -4.6970   15.2160   -1.4680 N   0  0  0  0  0  0  0  0  0  0  0  0
   -3.2840   15.2490   -1.4360 N   0  0  0  0  0  0  0  0  0  0  0  0
   -3.4480   15.0200    0.9900 C   0  0  0  0  0  0  0  0  0  0  0  0
   -2.6980   14.6030   -0.2460 C   0  0  2  0  0  0  0  0  0  0  0  0
   -1.1860   14.9090   -0.1340 C   0  0  0  0  0  0  0  0  0  0  0  0
   -0.2580   13.7320   -0.0670 C   0  0  0  0  0  0  0  0  0  0  0  0
    0.6030   13.5780   -1.3190 C   0  0  0  0  0  0  0  0  0  0  0  0
    0.5140   12.1680   -1.6220 N   0  0  0  0  0  0  0  0  0  0  0  0
    0.5570   11.6350   -2.7920 C   0  0  0  0  0  0  0  0  0  0  0  0
    0.7090   12.3560   -4.1690 C   0  0  1  0  0  0  0  0  0  0  0  0
    0.4430   10.2880   -2.8210 O   0  0  0  0  0  0  0  0  0  0  0  0
    2.1050   12.9820   -4.2870 C   0  0  0  0  0  0  0  0  0  0  0  0
    0.5580   11.5250   -5.3290 O   0  0  0  0  0  0  0  0  0  0  0  0
   -0.6260   10.8620   -5.5290 C   0  0  0  0  0  0  0  0  0  0  0  0
   -0.6500    9.8750   -6.5370 C   0  0  0  0  0  0  0  0  0  0  0  0
   -1.7980   11.0930   -4.8100 C   0  0  0  0  0  0  0  0  0  0  0  0
    0.4370    9.6020   -7.2730 F   0  0  0  0  0  0  0  0  0  0  0  0
   -1.8040    9.1460   -6.8080 C   0  0  0  0  0  0  0  0  0  0  0  0
   -2.9580   10.3610   -5.0820 C   0  0  0  0  0  0  0  0  0  0  0  0
   -2.9620    9.3870   -6.0800 C   0  0  0  0  0  0  0  0  0  0  0  0
  1  2  2  0
  2  3  1  0
  2  4  1  0
  4  5  1  0
  3  6  2  0
  5  7  1  0
  6  7  1  0
  7  8  1  1
  8  9  1  0
  9 10  1  0
 10 11  1  0
 11 12  2  3
 12 13  1  0
 12 14  1  0
 13 15  1  1
 13 16  1  0
 16 17  1  0
 17 18  2  0
 17 19  1  0
 18 20  1  0
 18 21  1  0
 19 22  2  0
 21 23  2  0
 22 23  1  0
M  END
