x0926_0_A-x0371_0_A
     RDKit          3D

 19 21  0  0  0  0  0  0  0  0999 V2000
   -6.4450   16.0970   -1.0280 O   0  0  0  0  0  0  0  0  0  0  0  0
   -5.5730   15.1030   -0.6030 C   0  0  2  0  0  0  0  0  0  0  0  0
   -4.8410   15.4610    0.7290 C   0  0  2  0  0  0  0  0  0  0  0  0
   -4.6960   14.7260   -1.7130 N   0  0  0  0  0  0  0  0  0  0  0  0
   -6.3830   13.9540   -0.2850 N   0  0  0  0  0  0  0  0  0  0  0  0
   -3.3360   15.1140   -1.4880 N   0  0  0  0  0  0  0  0  0  0  0  0
   -3.4810   14.8880    0.8650 C   0  0  0  0  0  0  0  0  0  0  0  0
   -5.7930   15.0360    1.7650 N   0  0  0  0  0  0  0  0  0  0  0  0
   -6.6800   14.0430    1.1480 C   0  0  1  0  0  0  0  0  0  0  0  0
   -8.1880   14.2920    1.4670 C   0  0  0  0  0  0  0  0  0  0  0  0
   -2.8010   14.7510   -0.2630 C   0  0  0  0  0  0  0  0  0  0  0  0
   -8.4100   14.3300    2.9090 N   0  0  0  0  0  0  0  0  0  0  0  0
   -8.9140   15.4620    3.5290 C   0  0  0  0  0  0  0  0  0  0  0  0
   -9.4840   16.3510    2.9040 O   0  0  0  0  0  0  0  0  0  0  0  0
   -8.7220   15.4950    4.9710 C   0  0  0  0  0  0  0  0  0  0  0  0
   -8.1100   14.4210    5.5560 O   0  0  0  0  0  0  0  0  0  0  0  0
   -9.0340   16.4190    5.9540 C   0  0  0  0  0  0  0  0  0  0  0  0
   -8.5860   15.8690    7.1870 C   0  0  0  0  0  0  0  0  0  0  0  0
   -8.0310   14.6540    6.8850 C   0  0  0  0  0  0  0  0  0  0  0  0
  2  1  1  6
  2  3  1  0
  2  4  1  0
  2  5  1  0
  4  6  1  0
  3  7  1  1
  3  8  1  0
  5  9  1  0
  8  9  1  0
  9 10  1  6
  6 11  1  0
  7 11  2  0
 10 12  1  0
 12 13  1  0
 13 14  2  0
 13 15  1  0
 15 16  1  0
 15 17  2  0
 17 18  1  0
 16 19  1  0
 18 19  2  0
M  END
