x0926_0_A-x0950_0_A
     RDKit          3D

 16 16  0  0  0  0  0  0  0  0999 V2000
   -6.6660   15.0420   -0.4610 O   0  0  0  0  0  0  0  0  0  0  0  0
   -5.4450   15.1500   -0.3890 C   0  0  0  0  0  0  0  0  0  0  0  0
   -4.7530   15.1500    0.9220 C   0  0  0  0  0  0  0  0  0  0  0  0
   -4.6410   15.2650   -1.4990 N   0  0  0  0  0  0  0  0  0  0  0  0
   -3.2560   14.9650   -1.4530 N   0  0  0  0  0  0  0  0  0  0  0  0
   -3.4230   15.3090    0.9760 C   0  0  0  0  0  0  0  0  0  0  0  0
   -2.5770   15.5000   -0.2550 C   0  0  1  0  0  0  0  0  0  0  0  0
   -1.1540   14.9010   -0.1490 C   0  0  0  0  0  0  0  0  0  0  0  0
   -0.5250   14.6330   -1.5330 C   0  0  0  0  0  0  0  0  0  0  0  0
    0.8530   13.9660   -1.4540 C   0  0  0  0  0  0  0  0  0  0  0  0
    0.7180   12.5340   -1.5480 O   0  0  0  0  0  0  0  0  0  0  0  0
    0.7530   11.9530   -2.8030 C   0  0  0  0  0  0  0  0  0  0  0  0
    1.3110   12.8660   -3.9180 C   0  0  1  0  0  0  0  0  0  0  0  0
    0.3700   10.8140   -3.0100 O   0  0  0  0  0  0  0  0  0  0  0  0
    2.8300   12.9430   -3.8390 C   0  0  0  0  0  0  0  0  0  0  0  0
    0.9490   12.4220   -5.2270 O   0  0  0  0  0  0  0  0  0  0  0  0
  1  2  2  0
  2  3  1  0
  2  4  1  0
  4  5  1  0
  3  6  2  0
  5  7  1  0
  6  7  1  0
  7  8  1  1
  8  9  1  0
  9 10  1  0
 10 11  1  0
 11 12  1  0
 12 13  1  0
 12 14  2  0
 13 15  1  6
 13 16  1  0
M  END
