x0926_0_A-x0910_1_A
     RDKit          3D

  8  8  0  0  0  0  0  0  0  0999 V2000
   -6.7320   15.1280   -0.9630 O   0  0  0  0  0  0  0  0  0  0  0  0
   -5.5390   15.2220   -0.6540 C   0  0  0  0  0  0  0  0  0  0  0  0
   -5.0560   15.1650    0.8120 C   0  0  1  0  0  0  0  0  0  0  0  0
   -4.5760   15.3730   -1.6300 N   0  0  0  0  0  0  0  0  0  0  0  0
   -6.0540   14.3680    1.5680 N   0  0  0  0  0  0  0  0  0  0  0  0
   -3.2250   15.1850   -1.3310 N   0  0  0  0  0  0  0  0  0  0  0  0
   -3.6500   14.7040    0.9660 C   0  0  0  0  0  0  0  0  0  0  0  0
   -2.8350   14.7470   -0.0890 C   0  0  0  0  0  0  0  0  0  0  0  0
  1  2  2  0
  2  3  1  0
  2  4  1  0
  3  5  1  1
  4  6  1  0
  3  7  1  0
  6  8  1  0
  7  8  2  0
M  END
