x0926_0_A-x0722_0_A
     RDKit          3D

 12 12  0  0  0  0  0  0  0  0999 V2000
   -6.2000   14.7160   -0.7230 N   0  0  0  0  0  0  0  0  0  0  0  0
   -6.5860   13.5900   -0.3270 C   0  0  0  0  0  0  0  0  0  0  0  0
   -7.8540   13.1930   -0.3900 N   0  0  0  0  0  0  0  0  0  0  0  0
   -4.7790   14.7380   -0.4730 C   0  0  2  0  0  0  0  0  0  0  0  0
   -4.5270   15.5400    0.7990 C   0  0  1  0  0  0  0  0  0  0  0  0
   -3.9190   15.1840   -1.5550 N   0  0  0  0  0  0  0  0  0  0  0  0
   -5.3780   15.0540    1.9660 C   0  0  0  0  0  0  0  0  0  0  0  0
   -2.5140   15.0950   -1.1410 N   0  0  0  0  0  0  0  0  0  0  0  0
   -3.0780   15.4550    1.2070 C   0  0  0  0  0  0  0  0  0  0  0  0
   -1.6910   14.4790   -2.1770 C   0  0  0  0  0  0  0  0  0  0  0  0
   -2.2920   14.5880    0.2420 C   0  0  2  0  0  0  0  0  0  0  0  0
   -0.8060   14.5980    0.6900 C   0  0  0  0  0  0  0  0  0  0  0  0
  1  2  2  3
  2  3  1  0
  4  1  1  6
  4  5  1  0
  4  6  1  0
  5  7  1  1
  6  8  1  0
  5  9  1  0
  8 10  1  0
  8 11  1  0
  9 11  1  0
 11 12  1  1
M  END
