x0926_0_A-x0950_0_A
     RDKit          3D

 16 16  0  0  0  0  0  0  0  0999 V2000
   -6.6670   15.0360   -0.4660 O   0  0  0  0  0  0  0  0  0  0  0  0
   -5.4470   15.1430   -0.3920 C   0  0  0  0  0  0  0  0  0  0  0  0
   -4.7510   15.1460    0.9190 C   0  0  0  0  0  0  0  0  0  0  0  0
   -4.6390   15.2580   -1.5010 N   0  0  0  0  0  0  0  0  0  0  0  0
   -3.2550   14.9600   -1.4520 N   0  0  0  0  0  0  0  0  0  0  0  0
   -3.4250   15.3080    0.9760 C   0  0  0  0  0  0  0  0  0  0  0  0
   -2.5790   15.5000   -0.2550 C   0  0  1  0  0  0  0  0  0  0  0  0
   -1.1540   14.9070   -0.1470 C   0  0  0  0  0  0  0  0  0  0  0  0
   -0.5250   14.6270   -1.5300 C   0  0  0  0  0  0  0  0  0  0  0  0
    0.8510   13.9570   -1.4520 C   0  0  0  0  0  0  0  0  0  0  0  0
    0.7150   12.5270   -1.5540 O   0  0  0  0  0  0  0  0  0  0  0  0
    0.7470   11.9480   -2.8110 C   0  0  0  0  0  0  0  0  0  0  0  0
    1.3080   12.8560   -3.9300 C   0  0  1  0  0  0  0  0  0  0  0  0
    0.3620   10.8080   -3.0160 O   0  0  0  0  0  0  0  0  0  0  0  0
    2.8240   12.9580   -3.8410 C   0  0  0  0  0  0  0  0  0  0  0  0
    0.9580   12.3980   -5.2380 O   0  0  0  0  0  0  0  0  0  0  0  0
  1  2  2  0
  2  3  1  0
  2  4  1  0
  4  5  1  0
  3  6  2  0
  5  7  1  0
  6  7  1  0
  7  8  1  1
  8  9  1  0
  9 10  1  0
 10 11  1  0
 11 12  1  0
 12 13  1  0
 12 14  2  0
 13 15  1  6
 13 16  1  0
M  END
