x0926_0_A_α-x0864_0_A_α
     RDKit          3D

 22 23  0  0  0  0  0  0  0  0999 V2000
   -6.7140   15.0710   -0.4200 O   0  0  0  0  0  0  0  0  0  0  0  0
   -5.4970   15.1880   -0.3480 C   0  0  0  0  0  0  0  0  0  0  0  0
   -4.7990   15.1860    0.9620 C   0  0  0  0  0  0  0  0  0  0  0  0
   -4.6950   15.3210   -1.4570 N   0  0  0  0  0  0  0  0  0  0  0  0
   -3.3150   15.0280   -1.4120 N   0  0  0  0  0  0  0  0  0  0  0  0
   -3.4710   15.3620    1.0170 C   0  0  0  0  0  0  0  0  0  0  0  0
   -2.6330   15.5810   -0.2200 C   0  0  1  0  0  0  0  0  0  0  0  0
   -1.2220   14.9470   -0.1540 C   0  0  0  0  0  0  0  0  0  0  0  0
   -0.5240   14.7610   -1.5260 C   0  0  0  0  0  0  0  0  0  0  0  0
    0.7970   13.9830   -1.5050 C   0  0  0  0  0  0  0  0  0  0  0  0
    0.5930   12.5380   -1.5330 N   0  0  0  0  0  0  0  0  0  0  0  0
    0.5310   11.8230   -2.6150 C   0  0  0  0  0  0  0  0  0  0  0  0
    0.6550   12.4340   -4.0230 C   0  0  0  0  0  0  0  0  0  0  0  0
    0.3560   10.4780   -2.5920 O   0  0  0  0  0  0  0  0  0  0  0  0
   -0.0970   11.6880   -5.0470 N   0  0  0  0  0  0  0  0  0  0  0  0
   -1.3310   11.1460   -4.7330 C   0  0  0  0  0  0  0  0  0  0  0  0
    0.5310   11.4190   -6.2630 C   0  0  0  0  0  0  0  0  0  0  0  0
    1.5140   12.0130   -6.6930 O   0  0  0  0  0  0  0  0  0  0  0  0
   -1.8900   10.2020   -5.5050 C   0  0  0  0  0  0  0  0  0  0  0  0
   -0.0480   10.3040   -7.0640 C   0  0  0  0  0  0  0  0  0  0  0  0
   -1.1970    9.7330   -6.6850 C   0  0  0  0  0  0  0  0  0  0  0  0
   -1.9660    8.3260   -7.6390 Br  0  0  0  0  0  0  0  0  0  0  0  0
  1  2  2  0
  2  3  1  0
  2  4  1  0
  4  5  1  0
  3  6  2  0
  5  7  1  0
  6  7  1  0
  7  8  1  1
  8  9  1  0
  9 10  1  0
 10 11  1  0
 11 12  2  3
 12 13  1  0
 12 14  1  0
 13 15  1  0
 15 16  1  0
 15 17  1  0
 17 18  2  0
 16 19  2  0
 17 20  1  0
 19 21  1  0
 20 21  2  0
 21 22  1  0
M  END
