x0926_0_A-x0128_0_A
     RDKit          3D

 17 18  0  0  0  0  0  0  0  0999 V2000
   -6.9270   14.8720   -0.5940 O   0  0  0  0  0  0  0  0  0  0  0  0
   -5.7650   15.1690   -0.3210 C   0  0  0  0  0  0  0  0  0  0  0  0
   -5.2040   15.2430    1.1340 C   0  0  1  0  0  0  0  0  0  0  0  0
   -4.8670   15.4610   -1.3450 N   0  0  0  0  0  0  0  0  0  0  0  0
   -6.1470   14.6140    2.1560 N   0  0  0  0  0  0  0  0  0  0  0  0
   -3.5030   15.1830   -1.1540 N   0  0  0  0  0  0  0  0  0  0  0  0
   -3.7940   14.7190    1.1700 C   0  0  0  0  0  0  0  0  0  0  0  0
   -7.3570   15.1380    2.7400 C   0  0  0  0  0  0  0  0  0  0  0  0
   -3.0490   14.7280    0.0550 C   0  0  0  0  0  0  0  0  0  0  0  0
   -8.3660   15.3550    2.0770 O   0  0  0  0  0  0  0  0  0  0  0  0
   -7.2660   15.3600    4.1410 N   0  0  0  0  0  0  0  0  0  0  0  0
   -8.1850   16.0070    5.0550 C   0  0  0  0  0  0  0  0  0  0  0  0
   -8.9760   17.0900    4.6470 C   0  0  0  0  0  0  0  0  0  0  0  0
   -8.3540   15.6230    6.3950 C   0  0  0  0  0  0  0  0  0  0  0  0
   -9.8580   17.7700    5.4280 N   0  0  0  0  0  0  0  0  0  0  0  0
   -9.2550   16.3060    7.2260 C   0  0  0  0  0  0  0  0  0  0  0  0
   -9.9770   17.3640    6.7040 C   0  0  0  0  0  0  0  0  0  0  0  0
  1  2  2  0
  2  3  1  0
  2  4  1  0
  3  5  1  1
  4  6  1  0
  3  7  1  0
  5  8  1  0
  6  9  1  0
  7  9  2  0
  8 10  2  0
  8 11  1  0
 11 12  1  0
 12 13  2  0
 12 14  1  0
 13 15  1  0
 14 16  2  0
 15 17  2  0
 16 17  1  0
M  END
