x0926_0_A-x0253_0_A
     RDKit          3D

 24 25  0  0  0  0  0  0  0  0999 V2000
   -6.9020   14.9220   -0.6430 O   0  0  0  0  0  0  0  0  0  0  0  0
   -5.7120   15.0520   -0.3920 C   0  0  0  0  0  0  0  0  0  0  0  0
   -5.2390   15.1460    1.0050 C   0  0  0  0  0  0  0  0  0  0  0  0
   -4.7530   15.1190   -1.3800 N   0  0  0  0  0  0  0  0  0  0  0  0
   -3.4300   15.5260   -1.1030 N   0  0  0  0  0  0  0  0  0  0  0  0
   -3.9410   15.1550    1.2710 C   0  0  0  0  0  0  0  0  0  0  0  0
   -2.9120   15.0630    0.2060 C   0  0  1  0  0  0  0  0  0  0  0  0
   -2.3720   13.6510    0.1370 C   0  0  0  0  0  0  0  0  0  0  0  0
   -1.7290   13.2940   -1.1980 C   0  0  0  0  0  0  0  0  0  0  0  0
   -0.2600   12.9220   -1.1240 C   0  0  0  0  0  0  0  0  0  0  0  0
    0.4380   13.3710   -2.2860 N   0  0  0  0  0  0  0  0  0  0  0  0
    0.6730   12.5060   -3.1740 C   0  0  0  0  0  0  0  0  0  0  0  0
    0.2720   11.2470   -2.9070 O   0  0  0  0  0  0  0  0  0  0  0  0
    1.3150   12.6820   -4.5050 C   0  0  0  0  0  0  0  0  0  0  0  0
    0.4800   12.0140   -5.4830 N   0  0  0  0  0  0  0  0  0  0  0  0
    1.1230   11.6810   -6.6210 C   0  0  0  0  0  0  0  0  0  0  0  0
    2.2170   12.1330   -6.8030 O   0  0  0  0  0  0  0  0  0  0  0  0
    0.4750   10.7420   -7.5880 C   0  0  0  0  0  0  0  0  0  0  0  0
   -0.4990    9.8330   -7.1630 C   0  0  0  0  0  0  0  0  0  0  0  0
    0.8470   10.7640   -8.9390 C   0  0  0  0  0  0  0  0  0  0  0  0
   -1.0970    8.9560   -8.0790 C   0  0  0  0  0  0  0  0  0  0  0  0
    0.2590    9.8960   -9.8520 C   0  0  0  0  0  0  0  0  0  0  0  0
   -2.1420    7.9840   -7.6170 C   0  0  0  0  0  0  0  0  0  0  0  0
   -0.7110    8.9940   -9.4230 C   0  0  0  0  0  0  0  0  0  0  0  0
  1  2  2  0
  2  3  1  0
  2  4  1  0
  4  5  1  0
  3  6  2  0
  5  7  1  0
  6  7  1  0
  7  8  1  6
  8  9  1  0
  9 10  1  0
 10 11  1  0
 11 12  2  3
 12 13  1  0
 12 14  1  0
 14 15  1  0
 15 16  1  0
 16 17  2  0
 16 18  1  0
 18 19  2  0
 18 20  1  0
 19 21  1  0
 20 22  2  0
 21 23  1  0
 21 24  2  0
 22 24  1  0
M  END
