x0926_0_A-x0895_0_A
     RDKit          3D

  8  8  0  0  0  0  0  0  0  0999 V2000
   -6.5340   15.0520   -0.1740 O   0  0  0  0  0  0  0  0  0  0  0  0
   -5.3050   15.1320   -0.1770 C   0  0  0  0  0  0  0  0  0  0  0  0
   -4.4780   15.0780    1.0910 C   0  0  0  0  0  0  0  0  0  0  0  0
   -4.6430   15.2620   -1.3670 N   0  0  0  0  0  0  0  0  0  0  0  0
   -3.2880   14.9530   -1.5020 N   0  0  0  0  0  0  0  0  0  0  0  0
   -2.9800   15.1400    0.9050 C   0  0  0  0  0  0  0  0  0  0  0  0
   -2.1540   14.8620    1.7960 O   0  0  0  0  0  0  0  0  0  0  0  0
   -2.4780   15.5640   -0.4500 C   0  0  0  0  0  0  0  0  0  0  0  0
  1  2  2  0
  2  3  1  0
  2  4  1  0
  4  5  1  0
  3  6  1  0
  6  7  2  0
  5  8  1  0
  6  8  1  0
M  END
