x0926_0_A-x0962_1_A
     RDKit          3D

 13 14  0  0  0  0  0  0  0  0999 V2000
   -6.3010   15.1530   -2.1770 O   0  0  0  0  0  0  0  0  0  0  0  0
   -5.4330   15.0210   -1.3240 C   0  0  0  0  0  0  0  0  0  0  0  0
   -4.7350   16.1840   -0.7190 C   0  0  0  0  0  0  0  0  0  0  0  0
   -5.0050   13.9060   -0.7460 N   0  0  0  0  0  0  0  0  0  0  0  0
   -3.5900   13.9570   -0.5150 N   0  0  0  0  0  0  0  0  0  0  0  0
   -3.8850   15.9560    0.4910 C   0  0  0  0  0  0  0  0  0  0  0  0
   -5.8640   14.0160    0.3160 C   0  0  0  0  0  0  0  0  0  0  0  0
   -3.3090   14.7870    0.5210 C   0  0  0  0  0  0  0  0  0  0  0  0
   -5.5030   14.3410    1.5910 N   0  0  0  0  0  0  0  0  0  0  0  0
   -7.2240   13.8760    0.3690 C   0  0  0  0  0  0  0  0  0  0  0  0
   -2.8740   14.3230   -1.6730 N   0  0  0  0  0  0  0  0  0  0  0  0
   -6.6350   14.3790    2.3430 C   0  0  0  0  0  0  0  0  0  0  0  0
   -7.6990   14.1020    1.6270 N   0  0  0  0  0  0  0  0  0  0  0  0
  1  2  2  0
  2  3  1  0
  2  4  1  0
  4  5  1  0
  3  6  1  0
  4  7  1  0
  5  8  1  0
  6  8  2  0
  7  9  1  0
  7 10  2  0
  5 11  1  0
  9 12  1  0
 10 13  1  0
 12 13  2  0
M  END
