x0926_0_A-x0905_0_A
     RDKit          3D

  7  7  0  0  0  0  0  0  0  0999 V2000
   -6.7150   15.0910   -0.5240 O   0  0  0  0  0  0  0  0  0  0  0  0
   -5.4930   15.1520   -0.3680 C   0  0  0  0  0  0  0  0  0  0  0  0
   -4.8540   15.0040    1.0200 C   0  0  0  0  0  0  0  0  0  0  0  0
   -4.6640   15.3390   -1.4490 N   0  0  0  0  0  0  0  0  0  0  0  0
   -3.2960   15.0810   -1.3520 N   0  0  0  0  0  0  0  0  0  0  0  0
   -3.3670   14.9430    1.0250 C   0  0  0  0  0  0  0  0  0  0  0  0
   -2.6950   14.9810   -0.1230 C   0  0  0  0  0  0  0  0  0  0  0  0
  1  2  2  0
  2  3  1  0
  2  4  1  0
  4  5  1  0
  3  6  1  0
  5  7  1  0
  6  7  2  0
M  END
