x0926_0_A-x1015_0_A
     RDKit          3D

 24 26  0  0  0  0  0  0  0  0999 V2000
   -6.8000   15.0190   -0.4730 O   0  0  0  0  0  0  0  0  0  0  0  0
   -5.5750   15.0960   -0.3630 C   0  0  0  0  0  0  0  0  0  0  0  0
   -4.8790   14.9180    0.9850 C   0  0  0  0  0  0  0  0  0  0  0  0
   -4.7980   15.3410   -1.4630 N   0  0  0  0  0  0  0  0  0  0  0  0
   -3.4070   15.4910   -1.3750 N   0  0  0  0  0  0  0  0  0  0  0  0
   -3.4430   15.3180    0.9990 C   0  0  0  0  0  0  0  0  0  0  0  0
   -2.6990   15.6430   -2.6510 C   0  0  0  0  0  0  0  0  0  0  0  0
   -2.8040   15.5750   -0.1410 C   0  0  0  0  0  0  0  0  0  0  0  0
   -2.3420   14.2860   -3.2630 C   0  0  0  0  0  0  0  0  0  0  0  0
   -1.2400   14.3960   -4.3290 C   0  0  0  0  0  0  0  0  0  0  0  0
    0.0560   13.6420   -3.9860 C   0  0  2  0  0  0  0  0  0  0  0  0
   -0.0700   12.1920   -3.9390 N   0  0  0  0  0  0  0  0  0  0  0  0
    0.4950   13.9240   -2.5550 C   0  0  0  0  0  0  0  0  0  0  0  0
    0.6140   15.0220   -2.0310 O   0  0  0  0  0  0  0  0  0  0  0  0
    0.3140   11.6930   -2.6860 C   0  0  0  0  0  0  0  0  0  0  0  0
    0.7440   12.7450   -1.9360 N   0  0  0  0  0  0  0  0  0  0  0  0
   -0.4810   11.4100   -5.0420 C   0  0  0  0  0  0  0  0  0  0  0  0
    0.2950   10.5310   -2.2740 O   0  0  0  0  0  0  0  0  0  0  0  0
    0.0800   11.6130   -6.3130 C   0  0  0  0  0  0  0  0  0  0  0  0
   -1.4510   10.4110   -4.9000 C   0  0  0  0  0  0  0  0  0  0  0  0
   -0.3190   10.8390   -7.4060 C   0  0  0  0  0  0  0  0  0  0  0  0
   -1.8530    9.6340   -5.9890 C   0  0  0  0  0  0  0  0  0  0  0  0
   -1.2840    9.8510   -7.2400 C   0  0  0  0  0  0  0  0  0  0  0  0
   -1.7800    8.8980   -8.5800 Cl  0  0  0  0  0  0  0  0  0  0  0  0
  1  2  2  0
  2  3  1  0
  2  4  1  0
  4  5  1  0
  3  6  1  0
  5  7  1  0
  5  8  1  0
  6  8  2  0
  7  9  1  0
  9 10  1  0
 11 10  1  1
 11 12  1  0
 11 13  1  0
 13 14  2  0
 12 15  1  0
 13 16  1  0
 15 16  1  0
 12 17  1  0
 15 18  2  0
 17 19  2  0
 17 20  1  0
 19 21  1  0
 20 22  2  0
 21 23  2  0
 22 23  1  0
 23 24  1  0
M  END
