x0926_0_A-x0685_0_A
     RDKit          3D

 12 12  0  0  0  0  0  0  0  0999 V2000
   -6.7170   14.9520   -0.5720 O   0  0  0  0  0  0  0  0  0  0  0  0
   -5.5080   15.1530   -0.4100 C   0  0  0  0  0  0  0  0  0  0  0  0
   -4.8740   15.4660    0.9730 C   0  0  1  0  0  0  0  0  0  0  0  0
   -4.6380   15.1090   -1.4710 N   0  0  0  0  0  0  0  0  0  0  0  0
   -5.8130   15.1320    2.1040 N   0  0  0  0  0  0  0  0  0  0  0  0
   -3.2480   15.0010   -1.2590 N   0  0  0  0  0  0  0  0  0  0  0  0
   -3.5230   14.8760    1.1110 C   0  0  0  0  0  0  0  0  0  0  0  0
   -7.0520   14.4200    1.7850 C   0  0  0  0  0  0  0  0  0  0  0  0
   -2.7980   14.6860    0.0090 C   0  0  0  0  0  0  0  0  0  0  0  0
   -2.4990   14.6210   -2.4580 C   0  0  0  0  0  0  0  0  0  0  0  0
   -7.6300   13.7840    3.0430 C   0  0  0  0  0  0  0  0  0  0  0  0
   -3.0050   15.0760   -3.7430 N   0  0  0  0  0  0  0  0  0  0  0  0
  1  2  2  0
  2  3  1  0
  2  4  1  0
  3  5  1  1
  4  6  1  0
  3  7  1  0
  5  8  1  0
  6  9  1  0
  7  9  2  0
  6 10  1  0
  8 11  1  0
 10 12  1  0
M  END
