x0926_0_A_α-x0855_0_A_α
     RDKit          3D

 20 21  0  0  0  0  0  0  0  0999 V2000
   -6.6150   15.0590   -0.4700 O   0  0  0  0  0  0  0  0  0  0  0  0
   -5.3990   15.2060   -0.3770 C   0  0  0  0  0  0  0  0  0  0  0  0
   -4.7260   15.2300    0.9400 C   0  0  0  0  0  0  0  0  0  0  0  0
   -4.5820   15.3500   -1.4770 N   0  0  0  0  0  0  0  0  0  0  0  0
   -3.2050   15.0160   -1.4410 N   0  0  0  0  0  0  0  0  0  0  0  0
   -3.3920   15.3080    1.0120 C   0  0  0  0  0  0  0  0  0  0  0  0
   -2.5000   15.3840   -0.1970 C   0  0  1  0  0  0  0  0  0  0  0  0
   -1.1350   14.6570    0.0130 C   0  0  0  0  0  0  0  0  0  0  0  0
   -0.6410   13.7250   -1.1200 C   0  0  0  0  0  0  0  0  0  0  0  0
    0.7050   14.1610   -1.7230 C   0  0  0  0  0  0  0  0  0  0  0  0
    1.4650   13.0600   -2.2850 O   0  0  0  0  0  0  0  0  0  0  0  0
    0.8530   12.1220   -3.0700 C   0  0  0  0  0  0  0  0  0  0  0  0
    0.5540   10.9970   -2.6730 O   0  0  0  0  0  0  0  0  0  0  0  0
    0.5740   12.5780   -4.4790 C   0  0  0  0  0  0  0  0  0  0  0  0
   -0.4430   11.7250   -5.0650 N   0  0  0  0  0  0  0  0  0  0  0  0
   -0.2890   10.8100   -6.0660 C   0  0  0  0  0  0  0  0  0  0  0  0
   -1.7070   11.7990   -4.5970 N   0  0  0  0  0  0  0  0  0  0  0  0
   -1.5270   10.2530   -6.2400 C   0  0  0  0  0  0  0  0  0  0  0  0
   -2.3680   10.8910   -5.3220 C   0  0  0  0  0  0  0  0  0  0  0  0
   -2.0300    8.9170   -7.4360 Br  0  0  0  0  0  0  0  0  0  0  0  0
  1  2  2  0
  2  3  1  0
  2  4  1  0
  4  5  1  0
  3  6  2  0
  5  7  1  0
  6  7  1  0
  7  8  1  1
  8  9  1  0
  9 10  1  0
 10 11  1  0
 11 12  1  0
 12 13  2  0
 12 14  1  0
 14 15  1  0
 15 16  1  0
 15 17  1  0
 16 18  2  0
 17 19  2  0
 18 19  1  0
 18 20  1  0
M  END
