x0926_0_A_α-x0626_0_A_α
     RDKit          3D

 11 11  0  0  0  0  0  0  0  0999 V2000
   -6.3570   15.0030   -0.2350 N   0  0  0  0  0  0  0  0  0  0  0  0
   -6.8250   14.4920    0.8650 C   0  0  0  0  0  0  0  0  0  0  0  0
   -8.2270   14.2740    1.3240 C   0  0  0  0  0  0  0  0  0  0  0  0
   -4.9860   15.0050   -0.1670 C   0  0  0  0  0  0  0  0  0  0  0  0
   -4.4690   15.1230    1.0990 C   0  0  0  0  0  0  0  0  0  0  0  0
   -4.2030   14.8820   -1.2540 N   0  0  0  0  0  0  0  0  0  0  0  0
   -9.1740   14.9600    0.3730 C   0  0  0  0  0  0  0  0  0  0  0  0
   -2.8320   14.8580   -1.0740 N   0  0  0  0  0  0  0  0  0  0  0  0
   -3.1150   15.0990    1.2810 C   0  0  0  0  0  0  0  0  0  0  0  0
   -2.3000   14.9600    0.1830 C   0  0  0  0  0  0  0  0  0  0  0  0
   -0.8010   14.9170    0.3910 C   0  0  0  0  0  0  0  0  0  0  0  0
  1  2  2  3
  2  3  1  0
  1  4  1  0
  4  5  2  0
  4  6  1  0
  3  7  1  0
  6  8  2  0
  5  9  1  0
  8 10  1  0
  9 10  2  0
 10 11  1  0
M  END
