x0926_0_A_α-x0662_0_A_β
     RDKit          3D

 21 22  0  0  0  0  0  0  0  0999 V2000
   -6.7160   15.0520   -0.5930 O   0  0  0  0  0  0  0  0  0  0  0  0
   -5.4880   15.0920   -0.4420 C   0  0  0  0  0  0  0  0  0  0  0  0
   -4.8470   14.9040    0.9280 C   0  0  0  0  0  0  0  0  0  0  0  0
   -4.6560   15.2970   -1.5220 N   0  0  0  0  0  0  0  0  0  0  0  0
   -3.2510   15.1920   -1.3910 N   0  0  0  0  0  0  0  0  0  0  0  0
   -3.4250   15.3250    0.9820 C   0  0  0  0  0  0  0  0  0  0  0  0
   -2.6360   14.2190   -2.3230 C   0  0  0  0  0  0  0  0  0  0  0  0
   -2.7210   15.4470   -0.1450 C   0  0  0  0  0  0  0  0  0  0  0  0
   -1.9850   13.0000   -1.6520 C   0  0  0  0  0  0  0  0  0  0  0  0
   -1.6720   11.8110   -2.5930 C   0  0  0  0  0  0  0  0  0  0  0  0
   -0.5200   12.0930   -3.5700 C   0  0  0  0  0  0  0  0  0  0  0  0
   -0.7050   11.2890   -4.7870 N   0  0  0  0  0  0  0  0  0  0  0  0
    0.1560   11.4410   -5.7430 C   0  0  0  0  0  0  0  0  0  0  0  0
    1.1580   12.1780   -5.8370 O   0  0  0  0  0  0  0  0  0  0  0  0
   -0.0250   10.5920   -7.0120 C   0  0  0  0  0  0  0  0  0  0  0  0
    0.7830   10.8800   -8.1160 C   0  0  0  0  0  0  0  0  0  0  0  0
   -0.9470    9.5440   -7.1460 C   0  0  0  0  0  0  0  0  0  0  0  0
    0.6960   10.1710   -9.3250 C   0  0  0  0  0  0  0  0  0  0  0  0
   -1.0500    8.8200   -8.3430 C   0  0  0  0  0  0  0  0  0  0  0  0
    1.5220   10.4970  -10.4160 N   0  0  0  0  0  0  0  0  0  0  0  0
   -0.2300    9.1370   -9.4240 C   0  0  0  0  0  0  0  0  0  0  0  0
  1  2  2  0
  2  3  1  0
  2  4  1  0
  4  5  1  0
  3  6  1  0
  5  7  1  0
  5  8  1  0
  6  8  2  0
  7  9  1  0
  9 10  1  0
 10 11  1  0
 11 12  1  0
 12 13  2  3
 13 14  1  0
 13 15  1  0
 15 16  2  0
 15 17  1  0
 16 18  1  0
 17 19  2  0
 18 20  1  0
 18 21  2  0
 19 21  1  0
M  CHG  1  14  -1
M  END
