x0926_0_A_α-x0950_0_A_α
     RDKit          3D

 16 16  0  0  0  0  0  0  0  0999 V2000
   -6.6690   15.0430   -0.4630 O   0  0  0  0  0  0  0  0  0  0  0  0
   -5.4500   15.1490   -0.3890 C   0  0  0  0  0  0  0  0  0  0  0  0
   -4.7570   15.1520    0.9220 C   0  0  0  0  0  0  0  0  0  0  0  0
   -4.6430   15.2630   -1.4980 N   0  0  0  0  0  0  0  0  0  0  0  0
   -3.2570   14.9640   -1.4520 N   0  0  0  0  0  0  0  0  0  0  0  0
   -3.4260   15.3100    0.9760 C   0  0  0  0  0  0  0  0  0  0  0  0
   -2.5780   15.4960   -0.2550 C   0  0  1  0  0  0  0  0  0  0  0  0
   -1.1530   14.9020   -0.1520 C   0  0  0  0  0  0  0  0  0  0  0  0
   -0.5220   14.6300   -1.5330 C   0  0  0  0  0  0  0  0  0  0  0  0
    0.8570   13.9650   -1.4570 C   0  0  0  0  0  0  0  0  0  0  0  0
    0.7230   12.5320   -1.5490 O   0  0  0  0  0  0  0  0  0  0  0  0
    0.7500   11.9540   -2.8060 C   0  0  0  0  0  0  0  0  0  0  0  0
    1.3110   12.8650   -3.9190 C   0  0  1  0  0  0  0  0  0  0  0  0
    0.3620   10.8150   -3.0140 O   0  0  0  0  0  0  0  0  0  0  0  0
    2.8270   12.9440   -3.8400 C   0  0  0  0  0  0  0  0  0  0  0  0
    0.9480   12.4260   -5.2280 O   0  0  0  0  0  0  0  0  0  0  0  0
  1  2  2  0
  2  3  1  0
  2  4  1  0
  4  5  1  0
  3  6  2  0
  5  7  1  0
  6  7  1  0
  7  8  1  1
  8  9  1  0
  9 10  1  0
 10 11  1  0
 11 12  1  0
 12 13  1  0
 12 14  2  0
 13 15  1  6
 13 16  1  0
M  END
