x0926_0_A-x0900_0_A
     RDKit          3D

  7  7  0  0  0  0  0  0  0  0999 V2000
   -6.7100   15.0960   -0.5230 O   0  0  0  0  0  0  0  0  0  0  0  0
   -5.4880   15.1550   -0.3700 C   0  0  0  0  0  0  0  0  0  0  0  0
   -4.8470   15.0030    1.0100 C   0  0  0  0  0  0  0  0  0  0  0  0
   -4.6610   15.3440   -1.4540 N   0  0  0  0  0  0  0  0  0  0  0  0
   -3.2910   15.0820   -1.3570 N   0  0  0  0  0  0  0  0  0  0  0  0
   -3.3610   14.9340    1.0160 C   0  0  0  0  0  0  0  0  0  0  0  0
   -2.6900   14.9740   -0.1330 C   0  0  0  0  0  0  0  0  0  0  0  0
  1  2  2  0
  2  3  1  0
  2  4  1  0
  4  5  1  0
  3  6  1  0
  5  7  1  0
  6  7  2  0
M  END
