x0926_0_A-x0900_0_A
     RDKit          3D

  7  7  0  0  0  0  0  0  0  0999 V2000
   -6.7030   15.0990   -0.5230 O   0  0  0  0  0  0  0  0  0  0  0  0
   -5.4800   15.1550   -0.3690 C   0  0  0  0  0  0  0  0  0  0  0  0
   -4.8400   15.0000    1.0110 C   0  0  0  0  0  0  0  0  0  0  0  0
   -4.6510   15.3460   -1.4520 N   0  0  0  0  0  0  0  0  0  0  0  0
   -3.2840   15.0740   -1.3660 N   0  0  0  0  0  0  0  0  0  0  0  0
   -3.3530   14.9080    1.0090 C   0  0  0  0  0  0  0  0  0  0  0  0
   -2.6830   14.9460   -0.1410 C   0  0  0  0  0  0  0  0  0  0  0  0
  1  2  2  0
  2  3  1  0
  2  4  1  0
  4  5  1  0
  3  6  1  0
  5  7  1  0
  6  7  2  0
M  END
