x0926_0_A-x0591_0_A
     RDKit          3D

 20 21  0  0  0  0  0  0  0  0999 V2000
   -6.3350   14.6530   -0.6440 C   0  0  1  0  0  0  0  0  0  0  0  0
   -6.8300   13.5190    0.1160 N   0  0  0  0  0  0  0  0  0  0  0  0
   -7.1260   13.8260    1.5170 C   0  0  0  0  0  0  0  0  0  0  0  0
   -7.3350   15.6510   -0.7090 O   0  0  0  0  0  0  0  0  0  0  0  0
   -5.0450   15.1070   -0.0300 C   0  0  0  0  0  0  0  0  0  0  0  0
   -5.4620   14.5170   -1.8820 C   0  0  0  0  0  0  0  0  0  0  0  0
   -4.7300   15.1340    1.2990 C   0  0  0  0  0  0  0  0  0  0  0  0
   -4.1490   15.4690   -0.9820 N   0  0  0  0  0  0  0  0  0  0  0  0
   -4.1450   14.0300   -1.6670 C   0  0  0  0  0  0  0  0  0  0  0  0
   -5.8360   14.8670   -3.1680 C   0  0  0  0  0  0  0  0  0  0  0  0
   -2.8960   15.8500   -0.6600 N   0  0  0  0  0  0  0  0  0  0  0  0
   -3.4550   15.5200    1.6350 C   0  0  0  0  0  0  0  0  0  0  0  0
   -3.2250   13.9290   -2.7010 C   0  0  0  0  0  0  0  0  0  0  0  0
   -4.9130   14.7620   -4.2130 C   0  0  0  0  0  0  0  0  0  0  0  0
   -2.5680   15.8630    0.6360 C   0  0  0  0  0  0  0  0  0  0  0  0
   -3.6180   14.3100   -3.9720 C   0  0  0  0  0  0  0  0  0  0  0  0
   -2.4760   14.2400   -5.3160 S   0  0  0  0  0  0  0  0  0  0  0  0
   -1.2520   15.2840   -4.7990 N   0  0  0  0  0  0  0  0  0  0  0  0
   -1.8770   12.9300   -5.3490 O   0  0  0  0  0  0  0  0  0  0  0  0
   -3.1200   14.8560   -6.4510 O   0  0  0  0  0  0  0  0  0  0  0  0
  1  2  1  0
  2  3  1  0
  1  4  1  6
  1  5  1  0
  1  6  1  0
  5  7  2  0
  5  8  1  0
  6  9  2  0
  6 10  1  0
  8 11  2  0
  7 12  1  0
  9 13  1  0
 10 14  2  0
 11 15  1  0
 12 15  2  0
 13 16  2  0
 14 16  1  0
 16 17  1  0
 17 18  1  0
 17 19  2  0
 17 20  2  0
M  END
