x0926_0_A_α-x0805_0_A_α
     RDKit          3D

 14 15  0  0  0  0  0  0  0  0999 V2000
   -7.2790   14.8240   -0.6080 O   0  0  0  0  0  0  0  0  0  0  0  0
   -6.0890   14.9270   -0.3610 C   0  0  0  0  0  0  0  0  0  0  0  0
   -5.5820   14.8170    1.0210 C   0  0  0  0  0  0  0  0  0  0  0  0
   -5.1460   15.1540   -1.3230 N   0  0  0  0  0  0  0  0  0  0  0  0
   -4.0190   15.9350   -1.0470 N   0  0  0  0  0  0  0  0  0  0  0  0
   -4.3380   15.1840    1.2900 C   0  0  0  0  0  0  0  0  0  0  0  0
   -3.4160   15.7060    0.2760 C   0  0  1  0  0  0  0  0  0  0  0  0
   -2.4430   14.7250    0.0730 O   0  0  0  0  0  0  0  0  0  0  0  0
   -2.4700   14.2310   -1.1900 C   0  0  0  0  0  0  0  0  0  0  0  0
   -3.5380   13.3700   -1.4620 C   0  0  0  0  0  0  0  0  0  0  0  0
   -1.5460   14.5180   -2.1870 C   0  0  0  0  0  0  0  0  0  0  0  0
   -1.6870   13.9460   -3.4530 C   0  0  0  0  0  0  0  0  0  0  0  0
   -3.6830   12.7990   -2.7220 C   0  0  0  0  0  0  0  0  0  0  0  0
   -2.7530   13.0880   -3.7200 C   0  0  0  0  0  0  0  0  0  0  0  0
  1  2  2  0
  2  3  1  0
  2  4  1  0
  4  5  1  0
  3  6  2  0
  5  7  1  0
  6  7  1  0
  7  8  1  6
  8  9  1  0
  9 10  2  0
  9 11  1  0
 11 12  2  0
 10 13  1  0
 12 14  1  0
 13 14  2  0
M  END
