x0926_0_A_α-x0128_0_A_α
     RDKit          3D

 17 18  0  0  0  0  0  0  0  0999 V2000
   -6.9270   14.8720   -0.5990 O   0  0  0  0  0  0  0  0  0  0  0  0
   -5.7650   15.1690   -0.3220 C   0  0  0  0  0  0  0  0  0  0  0  0
   -5.2070   15.2430    1.1360 C   0  0  1  0  0  0  0  0  0  0  0  0
   -4.8660   15.4610   -1.3440 N   0  0  0  0  0  0  0  0  0  0  0  0
   -6.1460   14.6140    2.1580 N   0  0  0  0  0  0  0  0  0  0  0  0
   -3.5010   15.1810   -1.1550 N   0  0  0  0  0  0  0  0  0  0  0  0
   -3.7950   14.7190    1.1700 C   0  0  0  0  0  0  0  0  0  0  0  0
   -7.3560   15.1360    2.7440 C   0  0  0  0  0  0  0  0  0  0  0  0
   -3.0510   14.7280    0.0590 C   0  0  0  0  0  0  0  0  0  0  0  0
   -8.3650   15.3540    2.0810 O   0  0  0  0  0  0  0  0  0  0  0  0
   -7.2670   15.3570    4.1450 N   0  0  0  0  0  0  0  0  0  0  0  0
   -8.1860   16.0060    5.0570 C   0  0  0  0  0  0  0  0  0  0  0  0
   -8.9770   17.0890    4.6460 C   0  0  0  0  0  0  0  0  0  0  0  0
   -8.3560   15.6230    6.3950 C   0  0  0  0  0  0  0  0  0  0  0  0
   -9.8580   17.7700    5.4290 N   0  0  0  0  0  0  0  0  0  0  0  0
   -9.2560   16.3070    7.2270 C   0  0  0  0  0  0  0  0  0  0  0  0
   -9.9760   17.3650    6.7050 C   0  0  0  0  0  0  0  0  0  0  0  0
  1  2  2  0
  2  3  1  0
  2  4  1  0
  3  5  1  1
  4  6  1  0
  3  7  1  0
  5  8  1  0
  6  9  1  0
  7  9  2  0
  8 10  2  0
  8 11  1  0
 11 12  1  0
 12 13  2  0
 12 14  1  0
 13 15  1  0
 14 16  2  0
 15 17  2  0
 16 17  1  0
M  END
