x0926_0_A_α-x0104_0_A_β
     RDKit          3D

  9  9  0  0  0  0  0  0  0  0999 V2000
   -7.0340   15.2090   -0.6110 O   0  0  0  0  0  0  0  0  0  0  0  0
   -5.8270   15.0640   -0.4340 C   0  0  0  0  0  0  0  0  0  0  0  0
   -5.2210   14.5760    0.9060 C   0  0  2  0  0  0  0  0  0  0  0  0
   -4.9540   15.3190   -1.4650 N   0  0  0  0  0  0  0  0  0  0  0  0
   -6.0310   15.0160    2.0530 N   0  0  0  0  0  0  0  0  0  0  0  0
   -3.5890   15.0400   -1.3050 N   0  0  0  0  0  0  0  0  0  0  0  0
   -3.7670   14.8990    1.0560 C   0  0  0  0  0  0  0  0  0  0  0  0
   -3.0410   15.0970   -0.0420 C   0  0  0  0  0  0  0  0  0  0  0  0
   -2.8360   14.9000   -2.5480 C   0  0  0  0  0  0  0  0  0  0  0  0
  1  2  2  0
  2  3  1  0
  2  4  1  0
  3  5  1  1
  4  6  1  0
  3  7  1  0
  6  8  1  0
  7  8  2  0
  6  9  1  0
M  END
