x0926_0_A-x0855_0_A
     RDKit          3D

 20 21  0  0  0  0  0  0  0  0999 V2000
   -6.6070   15.0550   -0.4750 O   0  0  0  0  0  0  0  0  0  0  0  0
   -5.3950   15.2080   -0.3780 C   0  0  0  0  0  0  0  0  0  0  0  0
   -4.7250   15.2380    0.9410 C   0  0  0  0  0  0  0  0  0  0  0  0
   -4.5740   15.3520   -1.4750 N   0  0  0  0  0  0  0  0  0  0  0  0
   -3.1980   15.0150   -1.4360 N   0  0  0  0  0  0  0  0  0  0  0  0
   -3.3920   15.3020    1.0190 C   0  0  0  0  0  0  0  0  0  0  0  0
   -2.4890   15.3560   -0.1860 C   0  0  1  0  0  0  0  0  0  0  0  0
   -1.1540   14.5790    0.0260 C   0  0  0  0  0  0  0  0  0  0  0  0
   -0.6430   13.6950   -1.1430 C   0  0  0  0  0  0  0  0  0  0  0  0
    0.7300   14.1320   -1.6860 C   0  0  0  0  0  0  0  0  0  0  0  0
    1.4810   13.0470   -2.2930 O   0  0  0  0  0  0  0  0  0  0  0  0
    0.8570   12.1160   -3.0740 C   0  0  0  0  0  0  0  0  0  0  0  0
    0.5570   10.9930   -2.6790 O   0  0  0  0  0  0  0  0  0  0  0  0
    0.5720   12.5730   -4.4840 C   0  0  0  0  0  0  0  0  0  0  0  0
   -0.4460   11.7260   -5.0660 N   0  0  0  0  0  0  0  0  0  0  0  0
   -0.2930   10.8130   -6.0700 C   0  0  0  0  0  0  0  0  0  0  0  0
   -1.7100   11.7980   -4.5940 N   0  0  0  0  0  0  0  0  0  0  0  0
   -1.5320   10.2580   -6.2420 C   0  0  0  0  0  0  0  0  0  0  0  0
   -2.3710   10.8920   -5.3200 C   0  0  0  0  0  0  0  0  0  0  0  0
   -2.0410    8.9260   -7.4420 Br  0  0  0  0  0  0  0  0  0  0  0  0
  1  2  2  0
  2  3  1  0
  2  4  1  0
  4  5  1  0
  3  6  2  0
  5  7  1  0
  6  7  1  0
  7  8  1  1
  8  9  1  0
  9 10  1  0
 10 11  1  0
 11 12  1  0
 12 13  2  0
 12 14  1  0
 14 15  1  0
 15 16  1  0
 15 17  1  0
 16 18  2  0
 17 19  2  0
 18 19  1  0
 18 20  1  0
M  END
