x0926_0_A-x0849_0_A
     RDKit          3D

 13 14  0  0  0  0  0  0  0  0999 V2000
   -6.5510   14.7820   -0.2540 O   0  0  0  0  0  0  0  0  0  0  0  0
   -5.3860   15.1530   -0.3680 C   0  0  0  0  0  0  0  0  0  0  0  0
   -4.6030   15.6790    0.7670 C   0  0  0  0  0  0  0  0  0  0  0  0
   -4.7120   15.1280   -1.5610 N   0  0  0  0  0  0  0  0  0  0  0  0
   -3.3300   14.8450   -1.6550 N   0  0  0  0  0  0  0  0  0  0  0  0
   -3.2880   15.6360    0.7320 C   0  0  0  0  0  0  0  0  0  0  0  0
   -2.6720   15.5710   -3.2410 Br  0  0  0  0  0  0  0  0  0  0  0  0
   -2.5250   15.0000   -0.3910 C   0  0  2  0  0  0  0  0  0  0  0  0
   -1.0710   15.5800   -0.6680 C   0  0  0  0  0  0  0  0  0  0  0  0
   -2.2380   13.6860    0.3300 C   0  0  0  0  0  0  0  0  0  0  0  0
   -1.5280   14.0360    1.5560 N   0  0  0  0  0  0  0  0  0  0  0  0
    0.0300   15.1310    0.2870 C   0  0  0  0  0  0  0  0  0  0  0  0
   -0.2630   14.3960    1.3510 C   0  0  0  0  0  0  0  0  0  0  0  0
  1  2  2  0
  2  3  1  0
  2  4  1  0
  4  5  1  0
  3  6  2  0
  5  7  1  0
  5  8  1  0
  8  6  1  1
  8  9  1  0
  8 10  1  0
 10 11  1  0
  9 12  1  0
 11 13  1  0
 12 13  2  0
M  END
