x0926_0_A_α-x0962_1_A_α
     RDKit          3D

 13 14  0  0  0  0  0  0  0  0999 V2000
   -6.2980   15.1510   -2.1770 O   0  0  0  0  0  0  0  0  0  0  0  0
   -5.4340   15.0190   -1.3200 C   0  0  0  0  0  0  0  0  0  0  0  0
   -4.7380   16.1830   -0.7130 C   0  0  0  0  0  0  0  0  0  0  0  0
   -5.0040   13.9040   -0.7430 N   0  0  0  0  0  0  0  0  0  0  0  0
   -3.5900   13.9570   -0.5110 N   0  0  0  0  0  0  0  0  0  0  0  0
   -3.8830   15.9560    0.4930 C   0  0  0  0  0  0  0  0  0  0  0  0
   -5.8610   14.0140    0.3180 C   0  0  0  0  0  0  0  0  0  0  0  0
   -3.3070   14.7870    0.5220 C   0  0  0  0  0  0  0  0  0  0  0  0
   -5.5010   14.3380    1.5930 N   0  0  0  0  0  0  0  0  0  0  0  0
   -7.2240   13.8750    0.3720 C   0  0  0  0  0  0  0  0  0  0  0  0
   -2.8760   14.3210   -1.6730 N   0  0  0  0  0  0  0  0  0  0  0  0
   -6.6340   14.3770    2.3470 C   0  0  0  0  0  0  0  0  0  0  0  0
   -7.7000   14.1000    1.6290 N   0  0  0  0  0  0  0  0  0  0  0  0
  1  2  2  0
  2  3  1  0
  2  4  1  0
  4  5  1  0
  3  6  1  0
  4  7  1  0
  5  8  1  0
  6  8  2  0
  7  9  1  0
  7 10  2  0
  5 11  1  0
  9 12  1  0
 10 13  1  0
 12 13  2  0
M  END
