x0926_0_A-x0962_1_A
     RDKit          3D

 13 14  0  0  0  0  0  0  0  0999 V2000
   -6.2980   15.1460   -2.1720 O   0  0  0  0  0  0  0  0  0  0  0  0
   -5.4340   15.0160   -1.3150 C   0  0  0  0  0  0  0  0  0  0  0  0
   -4.7350   16.1820   -0.7100 C   0  0  0  0  0  0  0  0  0  0  0  0
   -5.0050   13.9010   -0.7390 N   0  0  0  0  0  0  0  0  0  0  0  0
   -3.5910   13.9560   -0.5110 N   0  0  0  0  0  0  0  0  0  0  0  0
   -3.8810   15.9540    0.4950 C   0  0  0  0  0  0  0  0  0  0  0  0
   -5.8610   14.0100    0.3230 C   0  0  0  0  0  0  0  0  0  0  0  0
   -3.3050   14.7840    0.5230 C   0  0  0  0  0  0  0  0  0  0  0  0
   -5.4970   14.3340    1.5980 N   0  0  0  0  0  0  0  0  0  0  0  0
   -7.2220   13.8700    0.3780 C   0  0  0  0  0  0  0  0  0  0  0  0
   -2.8790   14.3200   -1.6720 N   0  0  0  0  0  0  0  0  0  0  0  0
   -6.6280   14.3710    2.3530 C   0  0  0  0  0  0  0  0  0  0  0  0
   -7.6950   14.0930    1.6380 N   0  0  0  0  0  0  0  0  0  0  0  0
  1  2  2  0
  2  3  1  0
  2  4  1  0
  4  5  1  0
  3  6  1  0
  4  7  1  0
  5  8  1  0
  6  8  2  0
  7  9  1  0
  7 10  2  0
  5 11  1  0
  9 12  1  0
 10 13  1  0
 12 13  2  0
M  END
