x0926_0_A-x1015_0_A
     RDKit          3D

 24 26  0  0  0  0  0  0  0  0999 V2000
   -6.7980   15.0260   -0.4730 O   0  0  0  0  0  0  0  0  0  0  0  0
   -5.5720   15.0960   -0.3630 C   0  0  0  0  0  0  0  0  0  0  0  0
   -4.8730   14.9090    0.9800 C   0  0  0  0  0  0  0  0  0  0  0  0
   -4.7950   15.3370   -1.4660 N   0  0  0  0  0  0  0  0  0  0  0  0
   -3.4050   15.4810   -1.3770 N   0  0  0  0  0  0  0  0  0  0  0  0
   -3.4370   15.3090    0.9940 C   0  0  0  0  0  0  0  0  0  0  0  0
   -2.6990   15.6390   -2.6510 C   0  0  0  0  0  0  0  0  0  0  0  0
   -2.8000   15.5660   -0.1470 C   0  0  0  0  0  0  0  0  0  0  0  0
   -2.3420   14.2820   -3.2610 C   0  0  0  0  0  0  0  0  0  0  0  0
   -1.2430   14.3970   -4.3280 C   0  0  0  0  0  0  0  0  0  0  0  0
    0.0540   13.6450   -3.9850 C   0  0  2  0  0  0  0  0  0  0  0  0
   -0.0710   12.1940   -3.9380 N   0  0  0  0  0  0  0  0  0  0  0  0
    0.4960   13.9240   -2.5530 C   0  0  0  0  0  0  0  0  0  0  0  0
    0.6200   15.0200   -2.0310 O   0  0  0  0  0  0  0  0  0  0  0  0
    0.3100   11.6930   -2.6860 C   0  0  0  0  0  0  0  0  0  0  0  0
    0.7390   12.7440   -1.9350 N   0  0  0  0  0  0  0  0  0  0  0  0
   -0.4800   11.4110   -5.0440 C   0  0  0  0  0  0  0  0  0  0  0  0
    0.2890   10.5320   -2.2750 O   0  0  0  0  0  0  0  0  0  0  0  0
    0.0790   11.6140   -6.3160 C   0  0  0  0  0  0  0  0  0  0  0  0
   -1.4490   10.4120   -4.9010 C   0  0  0  0  0  0  0  0  0  0  0  0
   -0.3190   10.8390   -7.4080 C   0  0  0  0  0  0  0  0  0  0  0  0
   -1.8520    9.6340   -5.9900 C   0  0  0  0  0  0  0  0  0  0  0  0
   -1.2850    9.8500   -7.2400 C   0  0  0  0  0  0  0  0  0  0  0  0
   -1.7790    8.8960   -8.5800 Cl  0  0  0  0  0  0  0  0  0  0  0  0
  1  2  2  0
  2  3  1  0
  2  4  1  0
  4  5  1  0
  3  6  1  0
  5  7  1  0
  5  8  1  0
  6  8  2  0
  7  9  1  0
  9 10  1  0
 11 10  1  1
 11 12  1  0
 11 13  1  0
 13 14  2  0
 12 15  1  0
 13 16  1  0
 15 16  1  0
 12 17  1  0
 15 18  2  0
 17 19  2  0
 17 20  1  0
 19 21  1  0
 20 22  2  0
 21 23  2  0
 22 23  1  0
 23 24  1  0
M  END
