x0926_0_A-x0895_1_A
     RDKit          3D

  8  8  0  0  0  0  0  0  0  0999 V2000
   -6.6580   15.0020   -0.6670 O   0  0  0  0  0  0  0  0  0  0  0  0
   -5.4590   15.1100   -0.4230 C   0  0  0  0  0  0  0  0  0  0  0  0
   -5.0370   15.1500    0.9800 C   0  0  0  0  0  0  0  0  0  0  0  0
   -4.4670   15.1920   -1.3720 N   0  0  0  0  0  0  0  0  0  0  0  0
   -3.2440   15.1260   -1.0920 N   0  0  0  0  0  0  0  0  0  0  0  0
   -3.7490   15.1040    1.2760 C   0  0  0  0  0  0  0  0  0  0  0  0
   -2.7700   15.0100    0.2000 C   0  0  0  0  0  0  0  0  0  0  0  0
   -1.5980   14.8340    0.5210 O   0  0  0  0  0  0  0  0  0  0  0  0
  1  2  2  0
  2  3  1  0
  2  4  1  0
  4  5  2  0
  3  6  2  0
  5  7  1  0
  6  7  1  0
  7  8  2  0
M  END
