x0926_0_A-x0282_0_A
     RDKit          3D

 13 14  0  0  0  0  0  0  0  0999 V2000
   -6.7190   14.7400   -0.6190 N   0  0  0  0  0  0  0  0  0  0  0  0
   -7.6450   14.3900    0.4530 C   0  0  0  0  0  0  0  0  0  0  0  0
   -5.4610   14.8160   -0.3310 C   0  0  0  0  0  0  0  0  0  0  0  0
   -4.9310   14.5690    1.0340 C   0  0  0  0  0  0  0  0  0  0  0  0
   -4.5750   15.1260   -1.3560 N   0  0  0  0  0  0  0  0  0  0  0  0
   -3.2820   15.5890   -0.9420 N   0  0  0  0  0  0  0  0  0  0  0  0
   -3.6040   14.5450    1.1910 C   0  0  0  0  0  0  0  0  0  0  0  0
   -2.6030   14.7750    0.0960 C   0  0  1  0  0  0  0  0  0  0  0  0
   -2.2240   13.6570   -0.7280 N   0  0  0  0  0  0  0  0  0  0  0  0
   -1.5080   15.2890    0.9110 N   0  0  0  0  0  0  0  0  0  0  0  0
   -0.8710   13.8370   -1.2610 C   0  0  0  0  0  0  0  0  0  0  0  0
   -0.2390   14.7720    0.8670 C   0  0  0  0  0  0  0  0  0  0  0  0
    0.1250   14.0600   -0.1850 C   0  0  0  0  0  0  0  0  0  0  0  0
  1  2  1  0
  1  3  2  3
  3  4  1  0
  3  5  1  0
  5  6  1  0
  4  7  2  0
  6  8  1  0
  8  7  1  1
  8  9  1  0
  8 10  1  0
  9 11  1  0
 10 12  1  0
 11 13  1  0
 12 13  2  0
M  END
