x0926_0_A-x0628_0_A
     RDKit          3D

 21 22  0  0  0  0  0  0  0  0999 V2000
   -6.5680   15.0610   -0.5360 O   0  0  0  0  0  0  0  0  0  0  0  0
   -5.3410   15.1850   -0.4440 C   0  0  0  0  0  0  0  0  0  0  0  0
   -4.6460   15.2890    0.9120 C   0  0  0  0  0  0  0  0  0  0  0  0
   -4.5500   15.2250   -1.5690 N   0  0  0  0  0  0  0  0  0  0  0  0
   -3.1920   14.8480   -1.4990 N   0  0  0  0  0  0  0  0  0  0  0  0
   -3.1990   14.9610    0.8920 C   0  0  0  0  0  0  0  0  0  0  0  0
   -2.4910   14.6400   -2.7900 C   0  0  0  0  0  0  0  0  0  0  0  0
   -2.5740   14.7680   -0.2680 C   0  0  0  0  0  0  0  0  0  0  0  0
   -1.9550   13.2040   -2.9720 C   0  0  0  0  0  0  0  0  0  0  0  0
   -2.6030   12.4530   -4.1470 C   0  0  0  0  0  0  0  0  0  0  0  0
   -1.6870   11.6980   -5.0700 C   0  0  0  0  0  0  0  0  0  0  0  0
   -1.9750   10.5280   -5.6120 N   0  0  0  0  0  0  0  0  0  0  0  0
   -0.4310   12.0700   -5.5090 N   0  0  0  0  0  0  0  0  0  0  0  0
    0.3650   13.2470   -5.2270 C   0  0  0  0  0  0  0  0  0  0  0  0
   -0.8800   10.2270   -6.3710 C   0  0  0  0  0  0  0  0  0  0  0  0
    0.0860   11.1430   -6.3370 N   0  0  0  0  0  0  0  0  0  0  0  0
   -0.7700    8.9880   -7.1620 C   0  0  0  0  0  0  0  0  0  0  0  0
    1.5640   12.9690   -4.3390 C   0  0  0  0  0  0  0  0  0  0  0  0
    1.1720   12.2560   -3.0740 C   0  0  0  0  0  0  0  0  0  0  0  0
    0.5200   11.2290   -2.9770 O   0  0  0  0  0  0  0  0  0  0  0  0
    1.6200   12.8940   -1.9770 O   0  0  0  0  0  0  0  0  0  0  0  0
  1  2  2  0
  2  3  1  0
  2  4  1  0
  4  5  1  0
  3  6  1  0
  5  7  1  0
  5  8  1  0
  6  8  2  0
  7  9  1  0
  9 10  1  0
 10 11  1  0
 11 12  2  0
 11 13  1  0
 13 14  1  0
 12 15  1  0
 13 16  1  0
 15 16  2  0
 15 17  1  0
 14 18  1  0
 18 19  1  0
 19 20  2  0
 19 21  1  0
M  END
