x0926_0_A_α-x0711_0_A_α
     RDKit          3D

 14 14  0  0  0  0  0  0  0  0999 V2000
   -6.3850   14.8600   -0.1920 N   0  0  0  0  0  0  0  0  0  0  0  0
   -6.8070   14.4990    0.9440 C   0  0  0  0  0  0  0  0  0  0  0  0
   -8.0210   14.3580    1.4890 N   0  0  0  0  0  0  0  0  0  0  0  0
   -4.9520   14.8840   -0.3290 C   0  0  2  0  0  0  0  0  0  0  0  0
   -4.2670   15.5730    0.8610 C   0  0  0  0  0  0  0  0  0  0  0  0
   -4.3060   15.1700   -1.6200 N   0  0  0  0  0  0  0  0  0  0  0  0
   -2.9330   14.8320   -1.5250 N   0  0  0  0  0  0  0  0  0  0  0  0
   -2.8520   15.1400    0.8910 C   0  0  0  0  0  0  0  0  0  0  0  0
   -2.1610   15.0050   -2.7370 N   0  0  0  0  0  0  0  0  0  0  0  0
   -2.2930   14.8020   -0.2820 C   0  0  0  0  0  0  0  0  0  0  0  0
   -0.7550   14.1180   -3.0790 S   0  0  0  0  0  0  0  0  0  0  0  0
   -1.3880   12.8050   -4.0990 C   0  0  0  0  0  0  0  0  0  0  0  0
    0.1210   14.9310   -3.8980 O   0  0  0  0  0  0  0  0  0  0  0  0
   -0.2780   13.5200   -1.8490 O   0  0  0  0  0  0  0  0  0  0  0  0
  1  2  2  3
  2  3  1  0
  4  1  1  6
  4  5  1  0
  4  6  1  0
  6  7  1  0
  5  8  1  0
  7  9  1  0
  7 10  1  0
  8 10  2  0
 11  9  1  0
 11 12  1  0
 11 13  2  0
 11 14  2  0
M  END
