x0926_0_A_α-x0628_0_A_α
     RDKit          3D

 21 22  0  0  0  0  0  0  0  0999 V2000
   -6.5880   15.0630   -0.5290 O   0  0  0  0  0  0  0  0  0  0  0  0
   -5.3610   15.1870   -0.4350 C   0  0  0  0  0  0  0  0  0  0  0  0
   -4.6690   15.3060    0.9220 C   0  0  0  0  0  0  0  0  0  0  0  0
   -4.5660   15.2120   -1.5600 N   0  0  0  0  0  0  0  0  0  0  0  0
   -3.2060   14.8480   -1.4820 N   0  0  0  0  0  0  0  0  0  0  0  0
   -3.2080   15.0530    0.9030 C   0  0  0  0  0  0  0  0  0  0  0  0
   -2.4920   14.6690   -2.7710 C   0  0  0  0  0  0  0  0  0  0  0  0
   -2.5770   14.8500   -0.2560 C   0  0  0  0  0  0  0  0  0  0  0  0
   -1.9440   13.2380   -2.9740 C   0  0  0  0  0  0  0  0  0  0  0  0
   -2.5940   12.4960   -4.1540 C   0  0  0  0  0  0  0  0  0  0  0  0
   -1.6770   11.7190   -5.0630 C   0  0  0  0  0  0  0  0  0  0  0  0
   -1.9770   10.5510   -5.6080 N   0  0  0  0  0  0  0  0  0  0  0  0
   -0.4110   12.0710   -5.4930 N   0  0  0  0  0  0  0  0  0  0  0  0
    0.4020   13.2360   -5.2030 C   0  0  0  0  0  0  0  0  0  0  0  0
   -0.8780   10.2280   -6.3540 C   0  0  0  0  0  0  0  0  0  0  0  0
    0.1010   11.1320   -6.3100 N   0  0  0  0  0  0  0  0  0  0  0  0
   -0.7780    8.9840   -7.1380 C   0  0  0  0  0  0  0  0  0  0  0  0
    1.6050   12.9310   -4.3320 C   0  0  0  0  0  0  0  0  0  0  0  0
    1.2070   12.2540   -3.0500 C   0  0  0  0  0  0  0  0  0  0  0  0
    0.5450   11.2330   -2.9310 O   0  0  0  0  0  0  0  0  0  0  0  0
    1.6600   12.9160   -1.9700 O   0  0  0  0  0  0  0  0  0  0  0  0
  1  2  2  0
  2  3  1  0
  2  4  1  0
  4  5  1  0
  3  6  1  0
  5  7  1  0
  5  8  1  0
  6  8  2  0
  7  9  1  0
  9 10  1  0
 10 11  1  0
 11 12  2  0
 11 13  1  0
 13 14  1  0
 12 15  1  0
 13 16  1  0
 15 16  2  0
 15 17  1  0
 14 18  1  0
 18 19  1  0
 19 20  2  0
 19 21  1  0
M  END
