x0926_0_A-x0910_1_A
     RDKit          3D

  8  8  0  0  0  0  0  0  0  0999 V2000
   -6.7300   15.1360   -0.9670 O   0  0  0  0  0  0  0  0  0  0  0  0
   -5.5400   15.2210   -0.6640 C   0  0  0  0  0  0  0  0  0  0  0  0
   -5.0570   15.1630    0.8040 C   0  0  1  0  0  0  0  0  0  0  0  0
   -4.5720   15.3600   -1.6390 N   0  0  0  0  0  0  0  0  0  0  0  0
   -6.0540   14.3760    1.5710 N   0  0  0  0  0  0  0  0  0  0  0  0
   -3.2180   15.1850   -1.3320 N   0  0  0  0  0  0  0  0  0  0  0  0
   -3.6520   14.6960    0.9580 C   0  0  0  0  0  0  0  0  0  0  0  0
   -2.8340   14.7410   -0.0940 C   0  0  0  0  0  0  0  0  0  0  0  0
  1  2  2  0
  2  3  1  0
  2  4  1  0
  3  5  1  1
  4  6  1  0
  3  7  1  0
  6  8  1  0
  7  8  2  0
M  END
