x0926_0_A_α-x0727_0_A_α
     RDKit          3D

 23 24  0  0  0  0  0  0  0  0999 V2000
   -6.8480   15.0680   -0.5320 O   0  0  0  0  0  0  0  0  0  0  0  0
   -5.6310   15.0830   -0.3810 C   0  0  0  0  0  0  0  0  0  0  0  0
   -5.0280   15.0560    0.9730 C   0  0  0  0  0  0  0  0  0  0  0  0
   -4.7460   15.1100   -1.4320 N   0  0  0  0  0  0  0  0  0  0  0  0
   -3.4030   15.5270   -1.2700 N   0  0  0  0  0  0  0  0  0  0  0  0
   -3.7000   14.9850    1.1130 C   0  0  0  0  0  0  0  0  0  0  0  0
   -2.7800   14.9390   -0.0710 C   0  0  1  0  0  0  0  0  0  0  0  0
   -2.1780   13.5770   -0.4030 C   0  0  0  0  0  0  0  0  0  0  0  0
   -1.2770   13.5940   -1.6410 C   0  0  0  0  0  0  0  0  0  0  0  0
    0.0520   12.9050   -1.3720 C   0  0  0  0  0  0  0  0  0  0  0  0
    0.9200   12.9380   -2.4980 O   0  0  0  0  0  0  0  0  0  0  0  0
    0.6500   11.9150   -3.3420 C   0  0  0  0  0  0  0  0  0  0  0  0
    0.8780   12.3290   -4.7890 C   0  0  1  0  0  0  0  0  0  0  0  0
    0.2660   10.8030   -2.9750 O   0  0  0  0  0  0  0  0  0  0  0  0
    0.1390   11.4120   -5.6500 N   0  0  0  0  0  0  0  0  0  0  0  0
    0.4510   13.7690   -5.0200 C   0  0  0  0  0  0  0  0  0  0  0  0
    0.7040   11.0640   -6.8390 C   0  0  0  0  0  0  0  0  0  0  0  0
    1.6490   11.6780   -7.2480 O   0  0  0  0  0  0  0  0  0  0  0  0
    0.0930    9.8710   -7.5600 C   0  0  0  0  0  0  0  0  0  0  0  0
   -1.2180   10.2590   -8.2510 C   0  0  0  0  0  0  0  0  0  0  0  0
   -0.2430    8.6900   -6.6310 C   0  0  0  0  0  0  0  0  0  0  0  0
   -2.1610    9.0930   -8.0050 C   0  0  0  0  0  0  0  0  0  0  0  0
   -1.7560    8.5630   -6.6410 C   0  0  0  0  0  0  0  0  0  0  0  0
  1  2  2  0
  2  3  1  0
  2  4  1  0
  4  5  1  0
  3  6  2  0
  5  7  1  0
  6  7  1  0
  7  8  1  6
  8  9  1  0
  9 10  1  0
 10 11  1  0
 11 12  1  0
 12 13  1  0
 12 14  2  0
 13 15  1  0
 13 16  1  1
 15 17  1  0
 17 18  2  0
 17 19  1  0
 19 20  1  0
 19 21  1  0
 20 22  1  0
 21 23  1  0
 22 23  1  0
M  END
