x0926_0_A-x0626_0_A
     RDKit          3D

 11 11  0  0  0  0  0  0  0  0999 V2000
   -6.3550   15.0180   -0.2110 N   0  0  0  0  0  0  0  0  0  0  0  0
   -6.8180   14.5310    0.8980 C   0  0  0  0  0  0  0  0  0  0  0  0
   -8.2200   14.3110    1.3560 C   0  0  0  0  0  0  0  0  0  0  0  0
   -4.9830   15.0420   -0.1520 C   0  0  0  0  0  0  0  0  0  0  0  0
   -4.4600   15.1730    1.1100 C   0  0  0  0  0  0  0  0  0  0  0  0
   -4.2050   14.9160   -1.2450 N   0  0  0  0  0  0  0  0  0  0  0  0
   -9.1710   14.9070    0.3500 C   0  0  0  0  0  0  0  0  0  0  0  0
   -2.8350   14.9120   -1.0740 N   0  0  0  0  0  0  0  0  0  0  0  0
   -3.1040   15.1700    1.2800 C   0  0  0  0  0  0  0  0  0  0  0  0
   -2.2960   15.0320    0.1800 C   0  0  0  0  0  0  0  0  0  0  0  0
   -0.7950   15.0130    0.3760 C   0  0  0  0  0  0  0  0  0  0  0  0
  1  2  2  3
  2  3  1  0
  1  4  1  0
  4  5  2  0
  4  6  1  0
  3  7  1  0
  6  8  2  0
  5  9  1  0
  8 10  1  0
  9 10  2  0
 10 11  1  0
M  END
