x0926_0_A-x0805_0_A
     RDKit          3D

 23 25  0  0  0  0  0  0  0  0999 V2000
   -7.3060   14.7590   -0.6060 O   0  0  0  0  0  0  0  0  0  0  0  0
   -6.1320   14.9490   -0.3460 C   0  0  0  0  0  0  0  0  0  0  0  0
   -5.6520   14.8900    1.0510 C   0  0  0  0  0  0  0  0  0  0  0  0
   -5.2030   15.2350   -1.3020 N   0  0  0  0  0  0  0  0  0  0  0  0
   -4.0440   15.9720   -1.0150 N   0  0  0  0  0  0  0  0  0  0  0  0
   -4.4200   15.2760    1.3370 C   0  0  0  0  0  0  0  0  0  0  0  0
   -3.4770   15.7590    0.3250 C   0  0  1  0  0  0  0  0  0  0  0  0
   -2.5470   14.7390    0.1790 O   0  0  0  0  0  0  0  0  0  0  0  0
   -2.5470   14.2040   -1.0650 C   0  0  0  0  0  0  0  0  0  0  0  0
   -3.7100   13.5300   -1.4450 C   0  0  0  0  0  0  0  0  0  0  0  0
   -1.4930   14.2910   -1.9410 C   0  0  0  0  0  0  0  0  0  0  0  0
   -3.8100   12.9480   -2.7080 C   0  0  0  0  0  0  0  0  0  0  0  0
   -1.5680   13.7090   -3.2060 C   0  0  0  0  0  0  0  0  0  0  0  0
   -2.7360   13.0370   -3.5900 C   0  0  0  0  0  0  0  0  0  0  0  0
   -0.3560   13.8290   -4.0940 C   0  0  2  0  0  0  0  0  0  0  0  0
    0.8400   13.2340   -3.3770 C   0  0  1  0  0  0  0  0  0  0  0  0
    0.0650   15.2560   -4.4100 C   0  0  0  0  0  0  0  0  0  0  0  0
    0.5070   12.1020   -2.4460 C   0  0  0  0  0  0  0  0  0  0  0  0
    1.9280   12.9800   -4.3740 C   0  0  0  0  0  0  0  0  0  0  0  0
    1.5920   15.4160   -4.4090 C   0  0  0  0  0  0  0  0  0  0  0  0
    0.3880   10.8770   -3.0070 O   0  0  0  0  0  0  0  0  0  0  0  0
    0.3540   12.2870   -1.2540 O   0  0  0  0  0  0  0  0  0  0  0  0
    2.4370   14.2600   -4.6630 O   0  0  0  0  0  0  0  0  0  0  0  0
  1  2  2  0
  2  3  1  0
  2  4  1  0
  4  5  1  0
  3  6  2  0
  5  7  1  0
  6  7  1  0
  7  8  1  6
  8  9  1  0
  9 10  2  0
  9 11  1  0
 10 12  1  0
 11 13  2  0
 12 14  2  0
 13 14  1  0
 15 13  1  1
 15 16  1  0
 15 17  1  0
 16 18  1  6
 16 19  1  0
 17 20  1  0
 18 21  1  0
 18 22  2  0
 19 23  1  0
 20 23  1  0
M  END
