x0926_0_A_α-x0852_0_B_α
     RDKit          3D

 21 22  0  0  0  0  0  0  0  0999 V2000
   -6.0690   13.1870   -0.7200 O   0  0  0  0  0  0  0  0  0  0  0  0
   -5.2190   14.0660   -0.7160 C   0  0  0  0  0  0  0  0  0  0  0  0
   -5.3940   15.3130    0.0930 C   0  0  2  0  0  0  0  0  0  0  0  0
   -4.0870   14.0020   -1.4920 N   0  0  0  0  0  0  0  0  0  0  0  0
   -6.1350   16.0950   -0.9960 C   0  0  0  0  0  0  0  0  0  0  0  0
   -3.0630   14.9530   -1.3490 N   0  0  0  0  0  0  0  0  0  0  0  0
   -4.0690   15.8700    0.5650 C   0  0  0  0  0  0  0  0  0  0  0  0
   -7.5850   15.6510   -1.3310 C   0  0  0  0  0  0  0  0  0  0  0  0
   -2.9890   15.6570   -0.1780 C   0  0  0  0  0  0  0  0  0  0  0  0
   -8.8000   16.4960   -0.8870 C   0  0  0  0  0  0  0  0  0  0  0  0
   -9.7560   15.7820    0.0970 C   0  0  0  0  0  0  0  0  0  0  0  0
  -10.1200   16.6090    1.2180 O   0  0  0  0  0  0  0  0  0  0  0  0
   -9.5660   16.3110    2.4550 C   0  0  0  0  0  0  0  0  0  0  0  0
   -8.6450   15.2570    2.4440 C   0  0  0  0  0  0  0  0  0  0  0  0
   -9.8330   16.9570    3.6720 C   0  0  0  0  0  0  0  0  0  0  0  0
   -7.9960   14.8540    3.6130 C   0  0  0  0  0  0  0  0  0  0  0  0
   -9.1800   16.5510    4.8570 C   0  0  0  0  0  0  0  0  0  0  0  0
   -9.4750   17.2280    6.0850 C   0  0  0  0  0  0  0  0  0  0  0  0
   -8.2590   15.4970    4.8150 C   0  0  0  0  0  0  0  0  0  0  0  0
   -9.7280   17.7310    7.1020 N   0  0  0  0  0  0  0  0  0  0  0  0
   -7.5690   15.0320    5.9080 O   0  0  0  0  0  0  0  0  0  0  0  0
  1  2  2  0
  2  3  1  0
  2  4  1  0
  3  5  1  6
  4  6  1  0
  3  7  1  0
  5  8  1  0
  6  9  1  0
  7  9  2  0
  8 10  1  0
 10 11  1  0
 11 12  1  0
 12 13  1  0
 13 14  2  0
 13 15  1  0
 14 16  1  0
 15 17  2  0
 17 18  1  0
 16 19  2  0
 17 19  1  0
 18 20  3  0
 19 21  1  0
M  END
