x0926_0_A-x0711_0_A
     RDKit          3D

 14 14  0  0  0  0  0  0  0  0999 V2000
   -6.3840   14.8500   -0.1930 N   0  0  0  0  0  0  0  0  0  0  0  0
   -6.8050   14.5030    0.9450 C   0  0  0  0  0  0  0  0  0  0  0  0
   -8.0220   14.3560    1.4850 N   0  0  0  0  0  0  0  0  0  0  0  0
   -4.9490   14.8860   -0.3290 C   0  0  2  0  0  0  0  0  0  0  0  0
   -4.2690   15.5820    0.8610 C   0  0  0  0  0  0  0  0  0  0  0  0
   -4.3040   15.1760   -1.6210 N   0  0  0  0  0  0  0  0  0  0  0  0
   -2.9360   14.8190   -1.5280 N   0  0  0  0  0  0  0  0  0  0  0  0
   -2.8540   15.1520    0.8880 C   0  0  0  0  0  0  0  0  0  0  0  0
   -2.1600   15.0020   -2.7330 N   0  0  0  0  0  0  0  0  0  0  0  0
   -2.2950   14.8040   -0.2820 C   0  0  0  0  0  0  0  0  0  0  0  0
   -0.7490   14.1230   -3.0780 S   0  0  0  0  0  0  0  0  0  0  0  0
   -1.3850   12.8100   -4.0970 C   0  0  0  0  0  0  0  0  0  0  0  0
    0.1210   14.9370   -3.9040 O   0  0  0  0  0  0  0  0  0  0  0  0
   -0.2660   13.5230   -1.8490 O   0  0  0  0  0  0  0  0  0  0  0  0
  1  2  2  3
  2  3  1  0
  4  1  1  6
  4  5  1  0
  4  6  1  0
  6  7  1  0
  5  8  1  0
  7  9  1  0
  7 10  1  0
  8 10  2  0
 11  9  1  0
 11 12  1  0
 11 13  2  0
 11 14  2  0
M  END
