x0933_0_A_α-x0711_0_A_α
     RDKit          3D

 14 14  0  0  0  0  0  0  0  0999 V2000
   -5.7290   14.8320    2.0370 N   0  0  0  0  0  0  0  0  0  0  0  0
   -4.7180   15.2760    1.1350 C   0  0  1  0  0  0  0  0  0  0  0  0
   -3.5990   14.4450    1.4030 N   0  0  0  0  0  0  0  0  0  0  0  0
   -5.2260   15.0260   -0.1610 N   0  0  0  0  0  0  0  0  0  0  0  0
   -6.3990   14.2930   -0.2050 C   0  0  0  0  0  0  0  0  0  0  0  0
   -4.3290   15.0970   -1.3290 C   0  0  0  0  0  0  0  0  0  0  0  0
   -2.5370   14.6410    0.4060 C   0  0  0  0  0  0  0  0  0  0  0  0
   -7.5080   14.7170   -0.5040 O   0  0  0  0  0  0  0  0  0  0  0  0
   -2.9660   14.4060   -1.0770 C   0  0  2  0  0  0  0  0  0  0  0  0
   -1.9510   14.9690   -2.0500 N   0  0  0  0  0  0  0  0  0  0  0  0
   -0.7450   14.0340   -2.7900 S   0  0  0  0  0  0  0  0  0  0  0  0
   -1.6920   12.9280   -3.8120 C   0  0  0  0  0  0  0  0  0  0  0  0
   -0.0330   14.9290   -3.6790 O   0  0  0  0  0  0  0  0  0  0  0  0
   -0.0570   13.2710   -1.7790 O   0  0  0  0  0  0  0  0  0  0  0  0
  2  1  1  1
  2  3  1  0
  2  4  1  0
  4  5  1  0
  4  6  1  0
  3  7  1  0
  5  8  2  0
  6  9  1  0
  7  9  1  0
  9 10  1  6
 11 10  1  0
 11 12  1  0
 11 13  2  0
 11 14  2  0
M  END
