x0933_0_A-x0253_0_A
     RDKit          3D

 24 25  0  0  0  0  0  0  0  0999 V2000
   -6.3190   14.3710    1.8420 N   0  0  0  0  0  0  0  0  0  0  0  0
   -5.2860   14.7920    0.9550 C   0  0  1  0  0  0  0  0  0  0  0  0
   -4.0120   14.7440    1.5540 N   0  0  0  0  0  0  0  0  0  0  0  0
   -5.2960   14.0250   -0.2380 N   0  0  0  0  0  0  0  0  0  0  0  0
   -4.3430   14.5000   -1.2440 C   0  0  0  0  0  0  0  0  0  0  0  0
   -3.0590   15.4580    0.7400 C   0  0  0  0  0  0  0  0  0  0  0  0
   -2.9610   14.8700   -0.6770 C   0  0  1  0  0  0  0  0  0  0  0  0
   -1.9060   13.7570   -0.6640 C   0  0  0  0  0  0  0  0  0  0  0  0
   -0.4580   14.2290   -0.3980 C   0  0  0  0  0  0  0  0  0  0  0  0
    0.5680   13.7820   -1.4440 C   0  0  0  0  0  0  0  0  0  0  0  0
    0.3950   12.3450   -1.5830 N   0  0  0  0  0  0  0  0  0  0  0  0
    0.5710   11.7490   -2.7200 C   0  0  0  0  0  0  0  0  0  0  0  0
    0.3820   10.4110   -2.7610 O   0  0  0  0  0  0  0  0  0  0  0  0
    0.9750   12.4640   -4.0300 C   0  0  0  0  0  0  0  0  0  0  0  0
    0.3440   11.8570   -5.2080 N   0  0  0  0  0  0  0  0  0  0  0  0
    1.0460   11.6770   -6.3900 C   0  0  0  0  0  0  0  0  0  0  0  0
    2.1240   12.2160   -6.5680 O   0  0  0  0  0  0  0  0  0  0  0  0
    0.4370   10.7560   -7.4190 C   0  0  0  0  0  0  0  0  0  0  0  0
   -0.5480    9.8300   -7.0520 C   0  0  0  0  0  0  0  0  0  0  0  0
    0.8430   10.7980   -8.7650 C   0  0  0  0  0  0  0  0  0  0  0  0
   -1.1160    8.9700   -8.0060 C   0  0  0  0  0  0  0  0  0  0  0  0
    0.2850    9.9480   -9.7160 C   0  0  0  0  0  0  0  0  0  0  0  0
   -2.1720    7.9870   -7.6020 C   0  0  0  0  0  0  0  0  0  0  0  0
   -0.6940    9.0350   -9.3370 C   0  0  0  0  0  0  0  0  0  0  0  0
  2  1  1  1
  2  3  1  0
  2  4  1  0
  4  5  1  0
  3  6  1  0
  5  7  1  0
  6  7  1  0
  7  8  1  1
  8  9  1  0
  9 10  1  0
 10 11  1  0
 11 12  2  3
 12 13  1  0
 12 14  1  0
 14 15  1  0
 15 16  1  0
 16 17  2  0
 16 18  1  0
 18 19  2  0
 18 20  1  0
 19 21  1  0
 20 22  2  0
 21 23  1  0
 21 24  2  0
 22 24  1  0
M  END
