x0933_4_B-x0216_0_A
     RDKit          3D

 21 22  0  0  0  0  0  0  0  0999 V2000
   17.6300   31.4730    6.4870 N   0  0  0  0  0  0  0  0  0  0  0  0
   17.5440   30.0930    6.0100 C   0  0  1  0  0  0  0  0  0  0  0  0
   18.8230   29.5320    6.3100 N   0  0  0  0  0  0  0  0  0  0  0  0
   17.4960   31.7840    7.8620 C   0  0  0  0  0  0  0  0  0  0  0  0
   16.3770   29.2290    6.4910 C   0  0  0  0  0  0  0  0  0  0  0  0
   17.7620   30.6000    8.6500 N   0  0  0  0  0  0  0  0  0  0  0  0
   16.1220   32.1480    7.9240 N   0  0  0  0  0  0  0  0  0  0  0  0
   18.9970   28.2080    6.5910 C   0  0  0  0  0  0  0  0  0  0  0  0
   16.5910   29.9220    9.2320 C   0  0  0  0  0  0  0  0  0  0  0  0
   15.2410   31.0900    7.4600 C   0  0  0  0  0  0  0  0  0  0  0  0
   18.5990   27.7020    7.6370 O   0  0  0  0  0  0  0  0  0  0  0  0
   19.6760   27.4760    5.6200 N   0  0  0  0  0  0  0  0  0  0  0  0
   15.4030   29.8110    8.2840 C   0  0  0  0  0  0  0  0  0  0  0  0
   19.2480   27.6610    4.2280 C   0  0  0  0  0  0  0  0  0  0  0  0
   20.8540   26.6400    5.9580 C   0  0  2  0  0  0  0  0  0  0  0  0
   22.1540   27.4690    6.0820 C   0  0  0  0  0  0  0  0  0  0  0  0
   21.1510   25.4460    5.0510 C   0  0  0  0  0  0  0  0  0  0  0  0
   22.7820   27.5300    4.7010 C   0  0  0  0  0  0  0  0  0  0  0  0
   22.5710   25.8850    4.0630 S   0  0  0  0  0  0  0  0  0  0  0  0
   22.1800   25.9660    2.6710 O   0  0  0  0  0  0  0  0  0  0  0  0
   23.6970   25.0810    4.5000 O   0  0  0  0  0  0  0  0  0  0  0  0
  1  2  1  0
  2  3  1  0
  1  4  1  0
  2  5  1  1
  4  6  1  0
  4  7  1  0
  3  8  1  0
  6  9  1  0
  7 10  1  0
  8 11  2  0
  8 12  1  0
  9 13  1  0
 10 13  1  0
 12 14  1  0
 15 12  1  6
 15 16  1  0
 15 17  1  0
 16 18  1  0
 19 17  1  0
 18 19  1  0
 19 20  2  0
 19 21  2  0
M  END
