x0933_0_A_α-x0524_0_A_α
     RDKit          3D

 30 32  0  0  0  0  0  0  0  0999 V2000
   -6.0790   14.5380    1.8170 N   0  0  0  0  0  0  0  0  0  0  0  0
   -5.0680   15.0420    0.9460 C   0  0  1  0  0  0  0  0  0  0  0  0
   -3.8670   14.3250    1.1940 N   0  0  0  0  0  0  0  0  0  0  0  0
   -5.6090   14.8410   -0.3520 N   0  0  0  0  0  0  0  0  0  0  0  0
   -4.5870   14.3990   -1.2890 C   0  0  0  0  0  0  0  0  0  0  0  0
   -2.7650   14.8450    0.3990 C   0  0  0  0  0  0  0  0  0  0  0  0
   -3.2550   15.1120   -1.0440 C   0  0  1  0  0  0  0  0  0  0  0  0
   -2.2160   14.7230   -2.1290 C   0  0  0  0  0  0  0  0  0  0  0  0
   -2.7210   14.8830   -3.5730 C   0  0  0  0  0  0  0  0  0  0  0  0
   -1.8000   14.1930   -4.6020 C   0  0  0  0  0  0  0  0  0  0  0  0
   -2.5620   13.2150   -5.5060 C   0  0  0  0  0  0  0  0  0  0  0  0
   -1.7050   12.0520   -6.0320 C   0  0  0  0  0  0  0  0  0  0  0  0
   -2.2200   10.6770   -5.5530 C   0  0  0  0  0  0  0  0  0  0  0  0
   -2.0430    9.5120   -6.5240 C   0  0  0  0  0  0  0  0  0  0  0  0
   -0.7670    9.5650   -7.3140 C   0  0  0  0  0  0  0  0  0  0  0  0
   -0.3060    8.5930   -8.1280 N   0  0  0  0  0  0  0  0  0  0  0  0
   -0.0670   10.5780   -7.2250 O   0  0  0  0  0  0  0  0  0  0  0  0
    0.6460    8.6500   -9.1400 C   0  0  0  0  0  0  0  0  0  0  0  0
    1.7430    7.8010   -9.0170 C   0  0  0  0  0  0  0  0  0  0  0  0
    0.5610    9.4970  -10.2350 C   0  0  0  0  0  0  0  0  0  0  0  0
    2.7500    7.7980   -9.9820 C   0  0  0  0  0  0  0  0  0  0  0  0
    1.5680    9.4930  -11.2010 C   0  0  0  0  0  0  0  0  0  0  0  0
    2.6690    8.6500  -11.0890 C   0  0  0  0  0  0  0  0  0  0  0  0
    3.6990    8.6240  -12.0400 N   0  0  0  0  0  0  0  0  0  0  0  0
    4.0000    9.5040  -13.0960 C   0  0  0  0  0  0  0  0  0  0  0  0
    3.2380   10.6670  -13.2820 C   0  0  0  0  0  0  0  0  0  0  0  0
    5.0490    9.2590  -13.9830 C   0  0  0  0  0  0  0  0  0  0  0  0
    3.5220   11.5520  -14.3210 C   0  0  0  0  0  0  0  0  0  0  0  0
    5.3370   10.1410  -15.0250 C   0  0  0  0  0  0  0  0  0  0  0  0
    4.5710   11.2890  -15.1930 C   0  0  0  0  0  0  0  0  0  0  0  0
  2  1  1  1
  2  3  1  0
  2  4  1  0
  4  5  1  0
  3  6  1  0
  5  7  1  0
  6  7  1  0
  7  8  1  6
  8  9  1  0
  9 10  1  0
 10 11  1  0
 11 12  1  0
 12 13  1  0
 13 14  1  0
 14 15  1  0
 15 16  1  0
 15 17  2  0
 16 18  1  0
 18 19  2  0
 18 20  1  0
 19 21  1  0
 20 22  2  0
 21 23  2  0
 22 23  1  0
 23 24  1  0
 24 25  1  0
 25 26  2  0
 25 27  1  0
 26 28  1  0
 27 29  2  0
 28 30  2  0
 29 30  1  0
M  END
