x0933_1_A_α-x0737_0_B_α
     RDKit          3D

 29 30  0  0  0  0  0  0  0  0999 V2000
    7.0290   21.4780   20.1390 N   0  0  0  0  0  0  0  0  0  0  0  0
    7.9830   22.5240   19.8870 C   0  0  1  0  0  0  0  0  0  0  0  0
    8.9400   22.0090   18.9340 N   0  0  0  0  0  0  0  0  0  0  0  0
    7.2180   23.6340   19.3700 N   0  0  0  0  0  0  0  0  0  0  0  0
    9.6790   20.7790   19.3120 C   0  0  0  0  0  0  0  0  0  0  0  0
    8.0010   24.6550   18.6550 C   0  0  0  0  0  0  0  0  0  0  0  0
    9.7340   22.9920   18.2180 C   0  0  0  0  0  0  0  0  0  0  0  0
   10.5280   20.2520   18.1280 C   0  0  0  0  0  0  0  0  0  0  0  0
    8.8690   24.0500   17.5890 C   0  0  0  0  0  0  0  0  0  0  0  0
   10.9810   18.7790   18.2320 C   0  0  0  0  0  0  0  0  0  0  0  0
   10.9940   18.0560   16.8670 C   0  0  0  0  0  0  0  0  0  0  0  0
   12.0120   16.9430   16.6140 C   0  0  0  0  0  0  0  0  0  0  0  0
   11.8580   16.2430   15.2450 C   0  0  0  0  0  0  0  0  0  0  0  0
   12.2700   14.7640   15.2370 C   0  0  0  0  0  0  0  0  0  0  0  0
   12.2410   14.1850   13.8720 N   0  0  0  0  0  0  0  0  0  0  0  0
   12.0620   12.6530   13.7620 S   0  0  1  0  0  0  0  0  0  0  0  0
   11.6810   11.7680   14.8430 O   0  0  0  0  0  0  0  0  0  0  0  0
   11.0100   12.2970   12.4280 C   0  0  0  0  0  0  0  0  0  0  0  0
   13.5830   12.0990   13.2620 N   0  0  0  0  0  0  0  0  0  0  0  0
   14.7780   12.9600   13.1660 C   0  0  2  0  0  0  0  0  0  0  0  0
   13.6270   10.9800   12.2850 C   0  0  0  0  0  0  0  0  0  0  0  0
   14.9440   13.9550   14.3040 C   0  0  0  0  0  0  0  0  0  0  0  0
   14.9180   13.5380   11.7560 C   0  0  1  0  0  0  0  0  0  0  0  0
   13.9230   11.4530   10.8640 C   0  0  0  0  0  0  0  0  0  0  0  0
   16.0490   14.5590   11.6870 C   0  0  0  0  0  0  0  0  0  0  0  0
   15.1770   12.3050   10.8980 C   0  0  0  0  0  0  0  0  0  0  0  0
   15.6310   15.8660   11.8190 N   0  0  0  0  0  0  0  0  0  0  0  0
   17.2260   14.2400   11.5290 O   0  0  0  0  0  0  0  0  0  0  0  0
   16.5760   16.9300   12.0710 C   0  0  0  0  0  0  0  0  0  0  0  0
  2  1  1  6
  2  3  1  0
  2  4  1  0
  3  5  1  0
  4  6  1  0
  3  7  1  0
  5  8  1  0
  6  9  1  0
  7  9  1  0
  8 10  1  0
 10 11  1  0
 11 12  1  0
 12 13  1  0
 13 14  1  0
 14 15  1  0
 15 16  2  0
 16 17  2  0
 16 18  1  6
 16 19  1  0
 19 20  1  0
 19 21  1  0
 20 22  1  1
 20 23  1  0
 21 24  1  0
 23 25  1  1
 23 26  1  0
 24 26  1  0
 25 27  1  0
 25 28  2  0
 27 29  1  0
M  END
