x0933_0_A-x0855_0_A
     RDKit          3D

 20 21  0  0  0  0  0  0  0  0999 V2000
   -6.1480   14.6420    1.6770 N   0  0  0  0  0  0  0  0  0  0  0  0
   -5.0110   15.0810    0.9410 C   0  0  1  0  0  0  0  0  0  0  0  0
   -3.8810   14.4540    1.5110 N   0  0  0  0  0  0  0  0  0  0  0  0
   -5.1480   14.7970   -0.4470 N   0  0  0  0  0  0  0  0  0  0  0  0
   -3.9070   14.9710   -1.2190 C   0  0  0  0  0  0  0  0  0  0  0  0
   -2.6190   14.7700    0.8780 C   0  0  0  0  0  0  0  0  0  0  0  0
   -2.6640   14.3140   -0.5710 C   0  0  2  0  0  0  0  0  0  0  0  0
   -1.3530   14.5820   -1.3370 C   0  0  0  0  0  0  0  0  0  0  0  0
   -0.3560   13.4210   -1.3340 C   0  0  0  0  0  0  0  0  0  0  0  0
    1.0440   13.8960   -1.7330 C   0  0  0  0  0  0  0  0  0  0  0  0
    1.7190   12.9020   -2.5210 O   0  0  0  0  0  0  0  0  0  0  0  0
    0.9530   12.0330   -3.2230 C   0  0  0  0  0  0  0  0  0  0  0  0
    0.5630   10.9540   -2.7810 O   0  0  0  0  0  0  0  0  0  0  0  0
    0.6170   12.5100   -4.6110 C   0  0  0  0  0  0  0  0  0  0  0  0
   -0.4350   11.6830   -5.1460 N   0  0  0  0  0  0  0  0  0  0  0  0
   -0.3270   10.7370   -6.1280 C   0  0  0  0  0  0  0  0  0  0  0  0
   -1.6880   11.8040   -4.6570 N   0  0  0  0  0  0  0  0  0  0  0  0
   -1.5780   10.2160   -6.2620 C   0  0  0  0  0  0  0  0  0  0  0  0
   -2.3870   10.8970   -5.3470 C   0  0  0  0  0  0  0  0  0  0  0  0
   -2.1390    8.8650   -7.4190 Br  0  0  0  0  0  0  0  0  0  0  0  0
  2  1  1  1
  2  3  1  0
  2  4  1  0
  4  5  1  0
  3  6  1  0
  5  7  1  0
  6  7  1  0
  7  8  1  6
  8  9  1  0
  9 10  1  0
 10 11  1  0
 11 12  1  0
 12 13  2  0
 12 14  1  0
 14 15  1  0
 15 16  1  0
 15 17  1  0
 16 18  2  0
 17 19  2  0
 18 19  1  0
 18 20  1  0
M  END
