x0933_0_A-x0591_0_A
     RDKit          3D

 20 21  0  0  0  0  0  0  0  0999 V2000
   -5.2970   14.8530    1.3980 N   0  0  0  0  0  0  0  0  0  0  0  0
   -6.2630   14.0710    0.7170 N   0  0  0  0  0  0  0  0  0  0  0  0
   -6.6280   14.3990   -0.5760 C   0  0  0  0  0  0  0  0  0  0  0  0
   -3.9990   14.2260    1.3240 C   0  0  0  0  0  0  0  0  0  0  0  0
   -3.9200   13.6620    0.0030 N   0  0  0  0  0  0  0  0  0  0  0  0
   -3.0050   15.2440    1.5130 N   0  0  0  0  0  0  0  0  0  0  0  0
   -7.7560   14.7910   -0.8550 O   0  0  0  0  0  0  0  0  0  0  0  0
   -2.9340   14.3510   -0.8230 C   0  0  0  0  0  0  0  0  0  0  0  0
   -1.6390   14.8400    1.1920 C   0  0  0  0  0  0  0  0  0  0  0  0
   -5.5960   14.2670   -1.6550 C   0  0  0  0  0  0  0  0  0  0  0  0
   -1.5430   14.2990   -0.2140 C   0  0  0  0  0  0  0  0  0  0  0  0
   -5.2220   13.0470   -2.2470 C   0  0  0  0  0  0  0  0  0  0  0  0
   -4.9790   15.4350   -2.0920 C   0  0  0  0  0  0  0  0  0  0  0  0
   -4.2510   13.0170   -3.2660 C   0  0  0  0  0  0  0  0  0  0  0  0
   -4.0110   15.4090   -3.1060 C   0  0  0  0  0  0  0  0  0  0  0  0
   -3.6520   14.2080   -3.6940 C   0  0  0  0  0  0  0  0  0  0  0  0
   -2.4340   14.2150   -4.9910 S   0  0  0  0  0  0  0  0  0  0  0  0
   -1.1890   15.1240   -4.3200 N   0  0  0  0  0  0  0  0  0  0  0  0
   -1.9450   12.8730   -5.1830 O   0  0  0  0  0  0  0  0  0  0  0  0
   -2.9590   15.0160   -6.0750 O   0  0  0  0  0  0  0  0  0  0  0  0
  1  2  1  0
  2  3  1  0
  1  4  1  0
  4  5  1  0
  4  6  1  0
  3  7  2  0
  5  8  1  0
  6  9  1  0
  3 10  1  0
  8 11  1  0
  9 11  1  0
 10 12  2  0
 10 13  1  0
 12 14  1  0
 13 15  2  0
 14 16  2  0
 15 16  1  0
 16 17  1  0
 17 18  1  0
 17 19  2  0
 17 20  2  0
M  END
