x0933_0_A-x0591_0_A
     RDKit          3D

 20 21  0  0  0  0  0  0  0  0999 V2000
   -5.3680   14.8550    1.3390 N   0  0  0  0  0  0  0  0  0  0  0  0
   -6.3200   14.0670    0.6470 N   0  0  0  0  0  0  0  0  0  0  0  0
   -6.6740   14.4000   -0.6440 C   0  0  0  0  0  0  0  0  0  0  0  0
   -4.0670   14.2340    1.3020 C   0  0  0  0  0  0  0  0  0  0  0  0
   -3.9630   13.6310   -0.0020 N   0  0  0  0  0  0  0  0  0  0  0  0
   -3.0820   15.2630    1.4740 N   0  0  0  0  0  0  0  0  0  0  0  0
   -7.8010   14.7950   -0.9310 O   0  0  0  0  0  0  0  0  0  0  0  0
   -2.9640   14.3000   -0.8310 C   0  0  0  0  0  0  0  0  0  0  0  0
   -1.7090   14.8490    1.1940 C   0  0  0  0  0  0  0  0  0  0  0  0
   -5.6310   14.2750   -1.7110 C   0  0  0  0  0  0  0  0  0  0  0  0
   -1.5830   14.2800   -0.1980 C   0  0  0  0  0  0  0  0  0  0  0  0
   -5.2740   13.0650   -2.3290 C   0  0  0  0  0  0  0  0  0  0  0  0
   -4.9820   15.4400   -2.1090 C   0  0  0  0  0  0  0  0  0  0  0  0
   -4.2890   13.0390   -3.3350 C   0  0  0  0  0  0  0  0  0  0  0  0
   -4.0010   15.4170   -3.1090 C   0  0  0  0  0  0  0  0  0  0  0  0
   -3.6590   14.2260   -3.7220 C   0  0  0  0  0  0  0  0  0  0  0  0
   -2.4230   14.2340   -5.0010 S   0  0  0  0  0  0  0  0  0  0  0  0
   -1.1820   15.1370   -4.3090 N   0  0  0  0  0  0  0  0  0  0  0  0
   -1.9370   12.8910   -5.1910 O   0  0  0  0  0  0  0  0  0  0  0  0
   -2.9340   15.0420   -6.0860 O   0  0  0  0  0  0  0  0  0  0  0  0
  1  2  1  0
  2  3  1  0
  1  4  1  0
  4  5  1  0
  4  6  1  0
  3  7  2  0
  5  8  1  0
  6  9  1  0
  3 10  1  0
  8 11  1  0
  9 11  1  0
 10 12  2  0
 10 13  1  0
 12 14  1  0
 13 15  2  0
 14 16  2  0
 15 16  1  0
 16 17  1  0
 17 18  1  0
 17 19  2  0
 17 20  2  0
M  END
