x0933_0_A-x0962_0_A
     RDKit          3D

  8  8  0  0  0  0  0  0  0  0999 V2000
   -6.0540   14.8170    1.7220 N   0  0  0  0  0  0  0  0  0  0  0  0
   -5.0700   15.2250    0.7810 C   0  0  1  0  0  0  0  0  0  0  0  0
   -3.8120   15.0710    1.4420 N   0  0  0  0  0  0  0  0  0  0  0  0
   -5.2240   14.3030   -0.2660 N   0  0  0  0  0  0  0  0  0  0  0  0
   -4.2880   14.6630   -1.3030 C   0  0  0  0  0  0  0  0  0  0  0  0
   -2.6360   14.6680    0.6240 C   0  0  0  0  0  0  0  0  0  0  0  0
   -2.8730   14.2720   -0.8710 C   0  0  2  0  0  0  0  0  0  0  0  0
   -1.8700   14.7720   -1.8070 N   0  0  0  0  0  0  0  0  0  0  0  0
  2  1  1  1
  2  3  1  0
  2  4  1  0
  4  5  1  0
  3  6  1  0
  5  7  1  0
  6  7  1  0
  7  8  1  6
M  END
