x0933_4_B_α-x0216_0_A_α
     RDKit          3D

 21 22  0  0  0  0  0  0  0  0999 V2000
   17.6260   31.4770    6.4920 N   0  0  0  0  0  0  0  0  0  0  0  0
   17.5530   30.0940    6.0100 C   0  0  1  0  0  0  0  0  0  0  0  0
   18.8330   29.5310    6.3110 N   0  0  0  0  0  0  0  0  0  0  0  0
   17.4960   31.7860    7.8690 C   0  0  0  0  0  0  0  0  0  0  0  0
   16.3860   29.2260    6.4850 C   0  0  0  0  0  0  0  0  0  0  0  0
   17.7580   30.5980    8.6540 N   0  0  0  0  0  0  0  0  0  0  0  0
   16.1220   32.1580    7.9420 N   0  0  0  0  0  0  0  0  0  0  0  0
   19.0040   28.2070    6.5920 C   0  0  0  0  0  0  0  0  0  0  0  0
   16.5840   29.9290    9.2380 C   0  0  0  0  0  0  0  0  0  0  0  0
   15.2400   31.1060    7.4650 C   0  0  0  0  0  0  0  0  0  0  0  0
   18.5960   27.7020    7.6340 O   0  0  0  0  0  0  0  0  0  0  0  0
   19.6860   27.4700    5.6240 N   0  0  0  0  0  0  0  0  0  0  0  0
   15.3920   29.8270    8.2910 C   0  0  0  0  0  0  0  0  0  0  0  0
   19.2620   27.6570    4.2290 C   0  0  0  0  0  0  0  0  0  0  0  0
   20.8630   26.6310    5.9600 C   0  0  2  0  0  0  0  0  0  0  0  0
   22.1560   27.4660    6.0810 C   0  0  0  0  0  0  0  0  0  0  0  0
   21.1540   25.4400    5.0480 C   0  0  0  0  0  0  0  0  0  0  0  0
   22.7810   27.5280    4.6990 C   0  0  0  0  0  0  0  0  0  0  0  0
   22.5760   25.8830    4.0600 S   0  0  0  0  0  0  0  0  0  0  0  0
   22.1840   25.9700    2.6690 O   0  0  0  0  0  0  0  0  0  0  0  0
   23.7050   25.0820    4.4930 O   0  0  0  0  0  0  0  0  0  0  0  0
  1  2  1  0
  2  3  1  0
  1  4  1  0
  2  5  1  1
  4  6  1  0
  4  7  1  0
  3  8  1  0
  6  9  1  0
  7 10  1  0
  8 11  2  0
  8 12  1  0
  9 13  1  0
 10 13  1  0
 12 14  1  0
 15 12  1  6
 15 16  1  0
 15 17  1  0
 16 18  1  0
 19 17  1  0
 18 19  1  0
 19 20  2  0
 19 21  2  0
M  END
