x0933_0_A-x0689_0_A
     RDKit          3D

 14 15  0  0  0  0  0  0  0  0999 V2000
   -4.9020   14.9020    1.7830 N   0  0  0  0  0  0  0  0  0  0  0  0
   -3.6000   15.5090    1.8110 N   0  0  0  0  0  0  0  0  0  0  0  0
   -2.3900   14.9680    1.2670 C   0  0  0  0  0  0  0  0  0  0  0  0
   -5.0910   14.0690    0.6370 C   0  0  0  0  0  0  0  0  0  0  0  0
   -6.0180   14.8180   -0.1840 N   0  0  0  0  0  0  0  0  0  0  0  0
   -3.8180   14.0050    0.0080 N   0  0  0  0  0  0  0  0  0  0  0  0
   -5.7830   14.8730   -1.6360 C   0  0  0  0  0  0  0  0  0  0  0  0
   -3.5700   15.2200   -0.7500 C   0  0  0  0  0  0  0  0  0  0  0  0
   -2.2120   14.9720   -0.0610 N   0  0  0  0  0  0  0  0  0  0  0  0
   -1.4530   14.4990    2.0890 N   0  0  0  0  0  0  0  0  0  0  0  0
   -4.3550   15.1870   -2.0170 C   0  0  0  0  0  0  0  0  0  0  0  0
   -1.0540   14.4890   -0.5550 C   0  0  0  0  0  0  0  0  0  0  0  0
   -0.3130   14.0300    1.5670 C   0  0  0  0  0  0  0  0  0  0  0  0
   -0.0520   14.0050    0.2280 C   0  0  0  0  0  0  0  0  0  0  0  0
  1  2  1  0
  2  3  1  0
  1  4  1  0
  4  5  1  0
  4  6  1  0
  5  7  1  0
  6  8  1  0
  3  9  2  0
  3 10  1  0
  7 11  1  0
  8 11  1  0
  9 12  1  0
 10 13  2  0
 12 14  2  0
 13 14  1  0
M  END
