x0933_0_A-x0895_1_A
     RDKit          3D

  8  8  0  0  0  0  0  0  0  0999 V2000
   -6.1660   14.6360    1.9870 N   0  0  0  0  0  0  0  0  0  0  0  0
   -5.0780   14.3270    1.1320 C   0  0  2  0  0  0  0  0  0  0  0  0
   -3.9940   15.0660    1.6360 N   0  0  0  0  0  0  0  0  0  0  0  0
   -5.4350   14.7750   -0.1810 N   0  0  0  0  0  0  0  0  0  0  0  0
   -4.2790   15.2050   -0.9800 C   0  0  0  0  0  0  0  0  0  0  0  0
   -2.8060   14.8870    1.0030 C   0  0  0  0  0  0  0  0  0  0  0  0
   -1.7240   14.8940    1.5980 O   0  0  0  0  0  0  0  0  0  0  0  0
   -2.9530   14.6510   -0.4740 C   0  0  0  0  0  0  0  0  0  0  0  0
  2  1  1  1
  2  3  1  0
  2  4  1  0
  4  5  1  0
  3  6  1  0
  6  7  2  0
  5  8  1  0
  6  8  1  0
M  END
