x0933_0_A-x0864_0_A
     RDKit          3D

 22 23  0  0  0  0  0  0  0  0999 V2000
   -6.2110   14.5400    1.8650 N   0  0  0  0  0  0  0  0  0  0  0  0
   -5.1250   14.9980    1.0660 C   0  0  1  0  0  0  0  0  0  0  0  0
   -3.9200   14.4980    1.6220 N   0  0  0  0  0  0  0  0  0  0  0  0
   -5.3940   14.5440   -0.2560 N   0  0  0  0  0  0  0  0  0  0  0  0
   -4.3290   14.9650   -1.1420 C   0  0  0  0  0  0  0  0  0  0  0  0
   -2.7450   14.7700    0.8320 C   0  0  0  0  0  0  0  0  0  0  0  0
   -2.9890   14.4010   -0.6420 C   0  0  2  0  0  0  0  0  0  0  0  0
   -1.8460   14.8140   -1.5660 C   0  0  0  0  0  0  0  0  0  0  0  0
   -1.0560   13.7560   -2.2850 C   0  0  0  0  0  0  0  0  0  0  0  0
    0.3010   13.5630   -1.6150 C   0  0  0  0  0  0  0  0  0  0  0  0
    0.4360   12.1400   -1.5940 N   0  0  0  0  0  0  0  0  0  0  0  0
    0.5900   11.6080   -2.7400 C   0  0  0  0  0  0  0  0  0  0  0  0
    0.6930   12.2500   -4.1260 C   0  0  0  0  0  0  0  0  0  0  0  0
    0.6610   10.2640   -2.6920 O   0  0  0  0  0  0  0  0  0  0  0  0
   -0.1360   11.6130   -5.1520 N   0  0  0  0  0  0  0  0  0  0  0  0
   -1.3630   11.0790   -4.8140 C   0  0  0  0  0  0  0  0  0  0  0  0
    0.4650   11.3460   -6.3760 C   0  0  0  0  0  0  0  0  0  0  0  0
    1.4260   11.9580   -6.8210 O   0  0  0  0  0  0  0  0  0  0  0  0
   -1.9250   10.1230   -5.5640 C   0  0  0  0  0  0  0  0  0  0  0  0
   -0.1030   10.2190   -7.1490 C   0  0  0  0  0  0  0  0  0  0  0  0
   -1.2410    9.6450   -6.7460 C   0  0  0  0  0  0  0  0  0  0  0  0
   -2.0040    8.2150   -7.6670 Br  0  0  0  0  0  0  0  0  0  0  0  0
  2  1  1  1
  2  3  1  0
  2  4  1  0
  4  5  1  0
  3  6  1  0
  5  7  1  0
  6  7  1  0
  7  8  1  6
  8  9  1  0
  9 10  1  0
 10 11  1  0
 11 12  2  3
 12 13  1  0
 12 14  1  0
 13 15  1  0
 15 16  1  0
 15 17  1  0
 17 18  2  0
 16 19  2  0
 17 20  1  0
 19 21  1  0
 20 21  2  0
 21 22  1  0
M  END
