x0933_0_A_α-x0253_0_A_α
     RDKit          3D

 24 25  0  0  0  0  0  0  0  0999 V2000
   -6.3020   14.3950    1.9210 N   0  0  0  0  0  0  0  0  0  0  0  0
   -5.2480   14.7970    1.0480 C   0  0  1  0  0  0  0  0  0  0  0  0
   -3.9710   14.6050    1.6000 N   0  0  0  0  0  0  0  0  0  0  0  0
   -5.3430   14.1090   -0.1900 N   0  0  0  0  0  0  0  0  0  0  0  0
   -4.3550   14.5430   -1.1860 C   0  0  0  0  0  0  0  0  0  0  0  0
   -3.0200   15.3870    0.8370 C   0  0  0  0  0  0  0  0  0  0  0  0
   -2.9670   14.8800   -0.6180 C   0  0  1  0  0  0  0  0  0  0  0  0
   -1.9060   13.7750   -0.6940 C   0  0  0  0  0  0  0  0  0  0  0  0
   -0.4590   14.2350   -0.4110 C   0  0  0  0  0  0  0  0  0  0  0  0
    0.5810   13.7900   -1.4440 C   0  0  0  0  0  0  0  0  0  0  0  0
    0.4050   12.3510   -1.5850 N   0  0  0  0  0  0  0  0  0  0  0  0
    0.5760   11.7540   -2.7200 C   0  0  0  0  0  0  0  0  0  0  0  0
    0.3840   10.4160   -2.7600 O   0  0  0  0  0  0  0  0  0  0  0  0
    0.9840   12.4610   -4.0340 C   0  0  0  0  0  0  0  0  0  0  0  0
    0.3490   11.8530   -5.2060 N   0  0  0  0  0  0  0  0  0  0  0  0
    1.0490   11.6770   -6.3920 C   0  0  0  0  0  0  0  0  0  0  0  0
    2.1270   12.2200   -6.5660 O   0  0  0  0  0  0  0  0  0  0  0  0
    0.4390   10.7580   -7.4210 C   0  0  0  0  0  0  0  0  0  0  0  0
   -0.5470    9.8330   -7.0580 C   0  0  0  0  0  0  0  0  0  0  0  0
    0.8460   10.8030   -8.7660 C   0  0  0  0  0  0  0  0  0  0  0  0
   -1.1160    8.9760   -8.0130 C   0  0  0  0  0  0  0  0  0  0  0  0
    0.2880    9.9580   -9.7200 C   0  0  0  0  0  0  0  0  0  0  0  0
   -2.1720    7.9930   -7.6130 C   0  0  0  0  0  0  0  0  0  0  0  0
   -0.6910    9.0450   -9.3460 C   0  0  0  0  0  0  0  0  0  0  0  0
  2  1  1  1
  2  3  1  0
  2  4  1  0
  4  5  1  0
  3  6  1  0
  5  7  1  0
  6  7  1  0
  7  8  1  1
  8  9  1  0
  9 10  1  0
 10 11  1  0
 11 12  2  3
 12 13  1  0
 12 14  1  0
 14 15  1  0
 15 16  1  0
 16 17  2  0
 16 18  1  0
 18 19  2  0
 18 20  1  0
 19 21  1  0
 20 22  2  0
 21 23  1  0
 21 24  2  0
 22 24  1  0
M  END
