x0933_0_A-x0849_0_A
     RDKit          3D

 13 14  0  0  0  0  0  0  0  0999 V2000
   -6.2540   14.5330    1.6420 N   0  0  0  0  0  0  0  0  0  0  0  0
   -5.3140   14.9770    0.6680 C   0  0  1  0  0  0  0  0  0  0  0  0
   -4.1700   15.5060    1.3150 N   0  0  0  0  0  0  0  0  0  0  0  0
   -4.9990   13.9570   -0.2740 N   0  0  0  0  0  0  0  0  0  0  0  0
   -3.7390   14.0460   -1.0300 C   0  0  1  0  0  0  0  0  0  0  0  0
   -3.1360   15.8740    0.3800 C   0  0  0  0  0  0  0  0  0  0  0  0
   -4.0880   15.0220   -2.6870 Br  0  0  0  0  0  0  0  0  0  0  0  0
   -2.5530   14.6570   -0.2730 C   0  0  2  0  0  0  0  0  0  0  0  0
   -1.3550   15.0120   -1.2080 C   0  0  0  0  0  0  0  0  0  0  0  0
   -1.9810   13.8650    0.8750 C   0  0  0  0  0  0  0  0  0  0  0  0
   -1.0390   14.6970    1.5830 N   0  0  0  0  0  0  0  0  0  0  0  0
   -0.0780   15.2900   -0.4700 C   0  0  0  0  0  0  0  0  0  0  0  0
    0.0070   15.1380    0.8480 C   0  0  0  0  0  0  0  0  0  0  0  0
  2  1  1  1
  2  3  1  0
  2  4  1  0
  4  5  1  0
  3  6  1  0
  5  7  1  6
  5  8  1  0
  8  6  1  1
  8  9  1  0
  8 10  1  0
 10 11  1  0
  9 12  1  0
 11 13  1  0
 12 13  2  0
M  END
