x0933_4_B-x0259_0_A
     RDKit          3D

 17 18  0  0  0  0  0  0  0  0999 V2000
   17.1350   33.3770    7.8630 N   0  0  0  0  0  0  0  0  0  0  0  0
   17.3850   32.0060    7.6370 C   0  0  2  0  0  0  0  0  0  0  0  0
   16.3290   31.5980    6.7700 N   0  0  0  0  0  0  0  0  0  0  0  0
   17.2500   31.3690    8.9220 N   0  0  0  0  0  0  0  0  0  0  0  0
   17.2540   29.9070    8.7890 C   0  0  0  0  0  0  0  0  0  0  0  0
   16.3940   30.1540    6.5240 C   0  0  0  0  0  0  0  0  0  0  0  0
   17.5710   29.6020    7.3420 C   0  0  2  0  0  0  0  0  0  0  0  0
   18.0630   28.2040    6.9870 C   0  0  0  0  0  0  0  0  0  0  0  0
   19.5320   28.0670    6.9130 N   0  0  0  0  0  0  0  0  0  0  0  0
   20.4070   28.5790    7.9660 C   0  0  0  0  0  0  0  0  0  0  0  0
   20.1420   27.8590    5.6690 C   0  0  0  0  0  0  0  0  0  0  0  0
   19.2560   27.4730    4.7310 N   0  0  0  0  0  0  0  0  0  0  0  0
   21.4990   28.0030    5.3370 C   0  0  0  0  0  0  0  0  0  0  0  0
   22.7570   28.4910    6.4080 Cl  0  0  0  0  0  0  0  0  0  0  0  0
   19.6900   27.2300    3.4980 C   0  0  0  0  0  0  0  0  0  0  0  0
   21.8370   27.7230    4.0250 C   0  0  0  0  0  0  0  0  0  0  0  0
   20.9590   27.3330    3.0840 N   0  0  0  0  0  0  0  0  0  0  0  0
  2  1  1  1
  2  3  1  0
  2  4  1  0
  4  5  1  0
  3  6  1  0
  5  7  1  0
  6  7  1  0
  7  8  1  1
  8  9  1  0
  9 10  1  0
  9 11  1  0
 11 12  2  0
 11 13  1  0
 13 14  1  0
 12 15  1  0
 13 16  2  0
 15 17  2  0
 16 17  1  0
M  END
