x0933_0_A-x0689_0_A
     RDKit          3D

 14 15  0  0  0  0  0  0  0  0999 V2000
   -4.9630   14.8010    1.6230 N   0  0  0  0  0  0  0  0  0  0  0  0
   -3.7250   15.5270    1.5360 N   0  0  0  0  0  0  0  0  0  0  0  0
   -2.4850   14.9640    1.1260 C   0  0  0  0  0  0  0  0  0  0  0  0
   -5.2260   14.0150    0.4450 C   0  0  0  0  0  0  0  0  0  0  0  0
   -6.1870   14.8280   -0.2710 N   0  0  0  0  0  0  0  0  0  0  0  0
   -3.9890   13.9250   -0.2720 N   0  0  0  0  0  0  0  0  0  0  0  0
   -6.1260   14.8930   -1.7380 C   0  0  0  0  0  0  0  0  0  0  0  0
   -3.7880   15.0840   -1.1220 C   0  0  0  0  0  0  0  0  0  0  0  0
   -2.2470   14.8800   -0.1900 N   0  0  0  0  0  0  0  0  0  0  0  0
   -1.5940   14.5510    2.0350 N   0  0  0  0  0  0  0  0  0  0  0  0
   -4.7240   15.0310   -2.2880 C   0  0  0  0  0  0  0  0  0  0  0  0
   -1.0690   14.3730   -0.5930 C   0  0  0  0  0  0  0  0  0  0  0  0
   -0.4260   14.0520    1.5920 C   0  0  0  0  0  0  0  0  0  0  0  0
   -0.1070   13.9410    0.2680 C   0  0  0  0  0  0  0  0  0  0  0  0
  1  2  1  0
  2  3  1  0
  1  4  1  0
  4  5  1  0
  4  6  1  0
  5  7  1  0
  6  8  1  0
  3  9  2  0
  3 10  1  0
  7 11  1  0
  8 11  1  0
  9 12  1  0
 10 13  2  0
 12 14  2  0
 13 14  1  0
M  END
