x0933_0_A_α-x0962_3_A_α
     RDKit          3D

 21 22  0  0  0  0  0  0  0  0999 V2000
   -6.0940   14.7000    1.7200 N   0  0  0  0  0  0  0  0  0  0  0  0
   -4.9690   15.1420    0.9740 C   0  0  1  0  0  0  0  0  0  0  0  0
   -3.8570   14.4710    1.5370 N   0  0  0  0  0  0  0  0  0  0  0  0
   -5.1790   14.7220   -0.3810 N   0  0  0  0  0  0  0  0  0  0  0  0
   -4.0020   15.0140   -1.2060 C   0  0  0  0  0  0  0  0  0  0  0  0
   -2.6460   14.8870    0.8750 C   0  0  0  0  0  0  0  0  0  0  0  0
   -2.7620   14.3730   -0.5540 C   0  0  2  0  0  0  0  0  0  0  0  0
   -1.4520   14.4590   -1.3570 C   0  0  0  0  0  0  0  0  0  0  0  0
   -0.5970   13.1890   -1.3700 C   0  0  0  0  0  0  0  0  0  0  0  0
    0.4040   13.1780   -2.5300 C   0  0  0  0  0  0  0  0  0  0  0  0
    0.7300   11.7890   -3.0820 C   0  0  0  0  0  0  0  0  0  0  0  0
   -0.2430   11.1820   -4.1060 C   0  0  0  0  0  0  0  0  0  0  0  0
   -0.3900   11.9930   -5.4100 C   0  0  0  0  0  0  0  0  0  0  0  0
    0.8490   12.0090   -6.3260 C   0  0  0  0  0  0  0  0  0  0  0  0
    0.9780   10.9270   -7.4510 C   0  0  2  0  0  0  0  0  0  0  0  0
    0.9100   11.4580   -8.7870 N   0  0  0  0  0  0  0  0  0  0  0  0
   -0.0360    9.8590   -7.4410 C   0  0  0  0  0  0  0  0  0  0  0  0
    0.1590    8.6730   -8.1130 N   0  0  0  0  0  0  0  0  0  0  0  0
   -1.2770    9.7290   -6.8660 C   0  0  0  0  0  0  0  0  0  0  0  0
   -0.9450    7.9020   -7.9160 C   0  0  0  0  0  0  0  0  0  0  0  0
   -1.8340    8.5160   -7.1650 N   0  0  0  0  0  0  0  0  0  0  0  0
  2  1  1  1
  2  3  1  0
  2  4  1  0
  4  5  1  0
  3  6  1  0
  5  7  1  0
  6  7  1  0
  7  8  1  6
  8  9  1  0
  9 10  1  0
 10 11  1  0
 11 12  1  0
 12 13  1  0
 13 14  1  0
 14 15  1  0
 15 16  1  6
 15 17  1  0
 17 18  1  0
 17 19  2  0
 18 20  1  0
 19 21  1  0
 20 21  2  0
M  END
