x0933_0_A_α-x0855_0_A_α
     RDKit          3D

 20 21  0  0  0  0  0  0  0  0999 V2000
   -6.1010   14.6950    1.7790 N   0  0  0  0  0  0  0  0  0  0  0  0
   -5.0190   15.1170    0.9580 C   0  0  1  0  0  0  0  0  0  0  0  0
   -3.8360   14.4640    1.3890 N   0  0  0  0  0  0  0  0  0  0  0  0
   -5.3240   14.8750   -0.4110 N   0  0  0  0  0  0  0  0  0  0  0  0
   -4.1890   15.0890   -1.3070 C   0  0  0  0  0  0  0  0  0  0  0  0
   -2.6510   14.7560    0.5960 C   0  0  0  0  0  0  0  0  0  0  0  0
   -2.9130   14.3530   -0.8570 C   0  0  2  0  0  0  0  0  0  0  0  0
   -1.7700   14.5400   -1.8860 C   0  0  0  0  0  0  0  0  0  0  0  0
   -0.3710   14.7740   -1.2930 C   0  0  0  0  0  0  0  0  0  0  0  0
    0.4500   13.4950   -1.2020 C   0  0  0  0  0  0  0  0  0  0  0  0
    1.2150   13.2500   -2.4010 O   0  0  0  0  0  0  0  0  0  0  0  0
    0.8400   12.1900   -3.1700 C   0  0  0  0  0  0  0  0  0  0  0  0
    0.6900   11.0510   -2.7420 O   0  0  0  0  0  0  0  0  0  0  0  0
    0.6030   12.5510   -4.6090 C   0  0  0  0  0  0  0  0  0  0  0  0
   -0.4350   11.7020   -5.1440 N   0  0  0  0  0  0  0  0  0  0  0  0
   -0.3120   10.7660   -6.1240 C   0  0  0  0  0  0  0  0  0  0  0  0
   -1.6860   11.8000   -4.6440 N   0  0  0  0  0  0  0  0  0  0  0  0
   -1.5580   10.2190   -6.2550 C   0  0  0  0  0  0  0  0  0  0  0  0
   -2.3710   10.8820   -5.3340 C   0  0  0  0  0  0  0  0  0  0  0  0
   -2.1060    8.8640   -7.4100 Br  0  0  0  0  0  0  0  0  0  0  0  0
  2  1  1  1
  2  3  1  0
  2  4  1  0
  4  5  1  0
  3  6  1  0
  5  7  1  0
  6  7  1  0
  7  8  1  6
  8  9  1  0
  9 10  1  0
 10 11  1  0
 11 12  1  0
 12 13  2  0
 12 14  1  0
 14 15  1  0
 15 16  1  0
 15 17  1  0
 16 18  2  0
 17 19  2  0
 18 19  1  0
 18 20  1  0
M  END
