x0933_3_B_α-x0548_0_B_α
     RDKit          3D

 25 27  0  0  0  0  0  0  0  0999 V2000
   -0.0280   34.4090   10.9370 N   0  0  0  0  0  0  0  0  0  0  0  0
   -0.1730   35.0820    9.6880 C   0  0  1  0  0  0  0  0  0  0  0  0
   -0.9060   36.3610    9.7620 N   0  0  0  0  0  0  0  0  0  0  0  0
    1.1790   35.1820    9.1590 N   0  0  0  0  0  0  0  0  0  0  0  0
   -2.4240   36.4350    9.5610 C   0  0  0  0  0  0  0  0  0  0  0  0
    1.1650   35.4220    7.7240 C   0  0  0  0  0  0  0  0  0  0  0  0
   -0.2790   37.1660    8.6930 C   0  0  0  0  0  0  0  0  0  0  0  0
   -3.3610   35.6180   10.5180 C   0  0  0  0  0  0  0  0  0  0  0  0
    0.0040   36.3480    7.4210 C   0  0  0  0  0  0  0  0  0  0  0  0
   -4.8660   35.2940   10.1200 C   0  0  0  0  0  0  0  0  0  0  0  0
   -5.4530   35.5540    8.6940 C   0  0  0  0  0  0  0  0  0  0  0  0
   -6.7740   34.9210    8.5440 O   0  0  0  0  0  0  0  0  0  0  0  0
   -7.5820   35.6270    7.6520 C   0  0  0  0  0  0  0  0  0  0  0  0
   -7.0530   36.5010    6.7790 C   0  0  0  0  0  0  0  0  0  0  0  0
   -9.0420   35.4040    7.6990 C   0  0  0  0  0  0  0  0  0  0  0  0
   -7.9490   37.2240    5.9210 C   0  0  0  0  0  0  0  0  0  0  0  0
   -9.8650   35.8730    6.7150 C   0  0  0  0  0  0  0  0  0  0  0  0
   -9.2520   36.5970    5.5680 C   0  0  1  0  0  0  0  0  0  0  0  0
   -7.8000   38.4230    5.3630 C   0  0  0  0  0  0  0  0  0  0  0  0
   -6.7300   39.4450    5.3560 C   0  0  0  0  0  0  0  0  0  0  0  0
   -9.9840   37.6330    4.8110 N   0  0  0  0  0  0  0  0  0  0  0  0
   -9.1000   38.5850    4.7030 C   0  0  0  0  0  0  0  0  0  0  0  0
   -6.0380   39.6040    6.6480 N   0  0  0  0  0  0  0  0  0  0  0  0
   -6.9290   40.2330    7.6230 C   0  0  0  0  0  0  0  0  0  0  0  0
   -4.8050   40.3830    6.5150 C   0  0  0  0  0  0  0  0  0  0  0  0
  2  1  1  1
  2  3  1  0
  2  4  1  0
  3  5  1  0
  4  6  1  0
  3  7  1  0
  5  8  1  0
  6  9  1  0
  7  9  1  0
  8 10  1  0
 10 11  1  0
 11 12  1  0
 12 13  1  0
 13 14  2  0
 13 15  1  0
 14 16  1  0
 15 17  2  0
 16 18  1  0
 18 17  1  1
 16 19  2  0
 19 20  1  0
 18 21  1  0
 19 22  1  0
 21 22  2  0
 20 23  1  0
 23 24  1  0
 23 25  1  0
M  END
