x0933_4_B_α-x0918_4_B_α
     RDKit          3D

 20 21  0  0  0  0  0  0  0  0999 V2000
   18.1100   32.7850    7.7500 N   0  0  0  0  0  0  0  0  0  0  0  0
   17.3260   31.6090    7.9070 C   0  0  1  0  0  0  0  0  0  0  0  0
   16.7040   31.3880    6.6520 N   0  0  0  0  0  0  0  0  0  0  0  0
   18.2010   30.5350    8.3090 N   0  0  0  0  0  0  0  0  0  0  0  0
   17.5100   29.2270    8.4430 C   0  0  2  0  0  0  0  0  0  0  0  0
   15.8870   30.1950    6.6630 C   0  0  0  0  0  0  0  0  0  0  0  0
   18.4440   27.9970    8.7880 C   0  0  0  0  0  0  0  0  0  0  0  0
   16.6600   28.9870    7.1750 C   0  0  0  0  0  0  0  0  0  0  0  0
   18.3290   27.2450   10.1600 C   0  0  0  0  0  0  0  0  0  0  0  0
   17.6450   25.8400   10.2420 C   0  0  0  0  0  0  0  0  0  0  0  0
   17.1730   25.3520   11.6480 C   0  0  0  0  0  0  0  0  0  0  0  0
   16.3090   24.0520   11.7140 C   0  0  0  0  0  0  0  0  0  0  0  0
   15.5440   23.8850   13.0620 C   0  0  0  0  0  0  0  0  0  0  0  0
   14.1170   23.4790   12.9520 N   0  0  0  0  0  0  0  0  0  0  0  0
   13.6820   22.1290   12.9650 C   0  0  0  0  0  0  0  0  0  0  0  0
   12.5350   21.7470   13.6970 C   0  0  0  0  0  0  0  0  0  0  0  0
   14.3350   21.1210   12.2680 C   0  0  0  0  0  0  0  0  0  0  0  0
   12.1270   20.4140   13.6850 C   0  0  0  0  0  0  0  0  0  0  0  0
   13.8550   19.8240   12.3160 C   0  0  0  0  0  0  0  0  0  0  0  0
   12.7650   19.4420   13.0100 N   0  0  0  0  0  0  0  0  0  0  0  0
  2  1  1  6
  2  3  1  0
  2  4  1  0
  4  5  1  0
  3  6  1  0
  5  7  1  6
  5  8  1  0
  6  8  1  0
  7  9  1  0
  9 10  1  0
 10 11  1  0
 11 12  1  0
 12 13  1  0
 13 14  1  0
 14 15  1  0
 15 16  2  0
 15 17  1  0
 16 18  1  0
 17 19  2  0
 18 20  2  0
 19 20  1  0
M  END
