x0933_1_A_α-x0228_1_A_α
     RDKit          3D

 14 15  0  0  0  0  0  0  0  0999 V2000
    2.9960   23.1650   18.9790 N   0  0  0  0  0  0  0  0  0  0  0  0
    3.6410   24.3140   18.4480 C   0  0  1  0  0  0  0  0  0  0  0  0
    4.6720   24.5240   19.3950 N   0  0  0  0  0  0  0  0  0  0  0  0
    4.1230   23.8690   17.1960 N   0  0  0  0  0  0  0  0  0  0  0  0
    5.0490   24.7830   16.5280 C   0  0  0  0  0  0  0  0  0  0  0  0
    5.7630   25.3990   18.9130 C   0  0  0  0  0  0  0  0  0  0  0  0
    6.1570   25.4260   17.3800 C   0  0  2  0  0  0  0  0  0  0  0  0
    6.3240   26.8290   17.0320 N   0  0  0  0  0  0  0  0  0  0  0  0
    7.4800   24.8290   17.1600 N   0  0  0  0  0  0  0  0  0  0  0  0
    5.7320   27.1570   15.7750 N   0  0  0  0  0  0  0  0  0  0  0  0
    7.7650   27.0570   17.1240 C   0  0  0  0  0  0  0  0  0  0  0  0
    8.3680   25.8500   17.6750 N   0  0  0  0  0  0  0  0  0  0  0  0
    4.3640   27.2940   15.5980 C   0  0  0  0  0  0  0  0  0  0  0  0
    3.6160   28.0190   16.2350 O   0  0  0  0  0  0  0  0  0  0  0  0
  2  1  1  1
  2  3  1  0
  2  4  1  0
  4  5  1  0
  3  6  1  0
  7  5  1  6
  6  7  1  0
  7  8  1  0
  7  9  1  0
  8 10  1  0
  8 11  1  0
  9 12  1  0
 11 12  1  0
 10 13  1  0
 13 14  2  0
M  END
