x0933_0_A_α-x0465_0_A_α
     RDKit          3D

 23 24  0  0  0  0  0  0  0  0999 V2000
   -6.2160   14.7190    1.7770 N   0  0  0  0  0  0  0  0  0  0  0  0
   -5.1190   14.4590    0.9230 C   0  0  2  0  0  0  0  0  0  0  0  0
   -4.0810   15.2030    1.5380 N   0  0  0  0  0  0  0  0  0  0  0  0
   -5.3890   15.0420   -0.3380 N   0  0  0  0  0  0  0  0  0  0  0  0
   -4.1930   15.1230   -1.1780 C   0  0  0  0  0  0  0  0  0  0  0  0
   -2.7980   14.9010    0.9100 C   0  0  0  0  0  0  0  0  0  0  0  0
   -2.9850   14.4130   -0.5350 C   0  0  2  0  0  0  0  0  0  0  0  0
   -1.6960   14.3410   -1.3830 C   0  0  0  0  0  0  0  0  0  0  0  0
   -0.3210   14.3550   -0.6990 C   0  0  0  0  0  0  0  0  0  0  0  0
    0.8090   13.8290   -1.5820 C   0  0  0  0  0  0  0  0  0  0  0  0
    0.6420   12.3810   -1.6770 N   0  0  0  0  0  0  0  0  0  0  0  0
    0.5960   11.7990   -2.8360 C   0  0  0  0  0  0  0  0  0  0  0  0
    0.6820   12.3990   -4.2700 C   0  0  1  0  0  0  0  0  0  0  0  0
    0.4440   10.4540   -2.7380 O   0  0  0  0  0  0  0  0  0  0  0  0
    2.0140   13.1310   -4.4640 C   0  0  0  0  0  0  0  0  0  0  0  0
    0.6380   11.4350   -5.3450 O   0  0  0  0  0  0  0  0  0  0  0  0
   -0.5670   10.8090   -5.5510 C   0  0  0  0  0  0  0  0  0  0  0  0
   -0.6880    9.8370   -6.5580 C   0  0  0  0  0  0  0  0  0  0  0  0
   -1.6720   11.1280   -4.7650 C   0  0  0  0  0  0  0  0  0  0  0  0
    0.3520    9.5090   -7.3370 F   0  0  0  0  0  0  0  0  0  0  0  0
   -1.8960    9.1900   -6.7730 C   0  0  0  0  0  0  0  0  0  0  0  0
   -2.8890   10.4750   -4.9850 C   0  0  0  0  0  0  0  0  0  0  0  0
   -2.9980    9.5080   -5.9860 C   0  0  0  0  0  0  0  0  0  0  0  0
  2  1  1  1
  2  3  1  0
  2  4  1  0
  4  5  1  0
  3  6  1  0
  5  7  1  0
  6  7  1  0
  7  8  1  6
  8  9  1  0
  9 10  1  0
 10 11  1  0
 11 12  2  3
 12 13  1  0
 12 14  1  0
 13 15  1  1
 13 16  1  0
 16 17  1  0
 17 18  2  0
 17 19  1  0
 18 20  1  0
 18 21  1  0
 19 22  2  0
 21 23  2  0
 22 23  1  0
M  END
