x0933_3_B_α-x0600_0_A_α
     RDKit          3D

 28 29  0  0  0  0  0  0  0  0999 V2000
    0.3180   33.8050   10.9230 N   0  0  0  0  0  0  0  0  0  0  0  0
    0.6080   34.9540   10.1420 C   0  0  2  0  0  0  0  0  0  0  0  0
   -0.5090   35.8850   10.2100 N   0  0  0  0  0  0  0  0  0  0  0  0
    0.9430   34.4050    8.8560 N   0  0  0  0  0  0  0  0  0  0  0  0
   -1.8640   35.3300   10.4460 C   0  0  0  0  0  0  0  0  0  0  0  0
    1.1070   35.4000    7.8150 C   0  0  0  0  0  0  0  0  0  0  0  0
   -0.4800   36.8480    9.0760 C   0  0  0  0  0  0  0  0  0  0  0  0
   -2.6660   35.5740   11.7460 C   0  0  0  0  0  0  0  0  0  0  0  0
   -0.1540   36.2330    7.7120 C   0  0  0  0  0  0  0  0  0  0  0  0
   -3.6940   34.4470   12.0990 C   0  0  0  0  0  0  0  0  0  0  0  0
   -5.1000   34.5260   11.4330 C   0  0  0  0  0  0  0  0  0  0  0  0
   -5.7100   33.1530   11.0190 C   0  0  0  0  0  0  0  0  0  0  0  0
   -7.1620   32.7980   11.4370 C   0  0  0  0  0  0  0  0  0  0  0  0
   -7.9090   31.8650   10.4510 C   0  0  0  0  0  0  0  0  0  0  0  0
   -8.6910   30.8540   11.2060 N   0  0  0  0  0  0  0  0  0  0  0  0
   -9.6850   30.2320   10.6320 C   0  0  0  0  0  0  0  0  0  0  0  0
  -10.8990   30.4690   11.1800 O   0  0  0  0  0  0  0  0  0  0  0  0
   -9.6490   28.6990   10.4910 C   0  0  0  0  0  0  0  0  0  0  0  0
  -10.8210   27.9900   10.8820 O   0  0  0  0  0  0  0  0  0  0  0  0
  -10.9970   27.5640   12.1780 C   0  0  0  0  0  0  0  0  0  0  0  0
  -12.1120   26.8900   12.6780 C   0  0  0  0  0  0  0  0  0  0  0  0
   -9.9550   27.8450   13.0580 C   0  0  0  0  0  0  0  0  0  0  0  0
  -12.1850   26.4950   14.0140 C   0  0  0  0  0  0  0  0  0  0  0  0
  -10.0190   27.4550   14.4040 C   0  0  0  0  0  0  0  0  0  0  0  0
  -11.1410   26.7740   14.8870 C   0  0  0  0  0  0  0  0  0  0  0  0
  -11.1960   26.3700   16.3210 C   0  0  0  0  0  0  0  0  0  0  0  0
  -12.4090   25.6180   16.8060 C   0  0  0  0  0  0  0  0  0  0  0  0
  -10.2700   26.6490   17.0780 O   0  0  0  0  0  0  0  0  0  0  0  0
  2  1  1  1
  2  3  1  0
  2  4  1  0
  3  5  1  0
  4  6  1  0
  3  7  1  0
  5  8  1  0
  6  9  1  0
  7  9  1  0
  8 10  1  0
 10 11  1  0
 11 12  1  0
 12 13  1  0
 13 14  1  0
 14 15  1  0
 15 16  2  3
 16 17  1  0
 16 18  1  0
 18 19  1  0
 19 20  1  0
 20 21  2  0
 20 22  1  0
 21 23  1  0
 22 24  2  0
 23 25  2  0
 24 25  1  0
 25 26  1  0
 26 27  1  0
 26 28  2  0
M  END
