x0933_0_A-x1012_0_A
     RDKit          3D

 22 23  0  0  0  0  0  0  0  0999 V2000
   -6.2560   14.6910    1.9240 N   0  0  0  0  0  0  0  0  0  0  0  0
   -5.0940   14.4600    1.1520 C   0  0  2  0  0  0  0  0  0  0  0  0
   -4.1720   15.4610    1.5580 N   0  0  0  0  0  0  0  0  0  0  0  0
   -5.4750   14.6560   -0.1950 N   0  0  0  0  0  0  0  0  0  0  0  0
   -4.3820   14.3230   -1.1100 C   0  0  1  0  0  0  0  0  0  0  0  0
   -2.9830   15.4140    0.6990 C   0  0  0  0  0  0  0  0  0  0  0  0
   -4.4170   15.3170   -2.2480 C   0  0  0  0  0  0  0  0  0  0  0  0
   -3.0480   14.2850   -0.3380 C   0  0  0  0  0  0  0  0  0  0  0  0
   -3.0450   15.5810   -2.8490 C   0  0  0  0  0  0  0  0  0  0  0  0
   -3.0940   15.8550   -4.3490 C   0  0  0  0  0  0  0  0  0  0  0  0
   -2.4260   17.1340   -4.5310 N   0  0  0  0  0  0  0  0  0  0  0  0
   -1.1750   17.0840   -4.7120 C   0  0  0  0  0  0  0  0  0  0  0  0
   -0.3320   18.1280   -4.8900 N   0  0  0  0  0  0  0  0  0  0  0  0
   -0.5130   15.8640   -4.7480 N   0  0  0  0  0  0  0  0  0  0  0  0
   -1.2100   14.5970   -5.0540 C   0  0  0  0  0  0  0  0  0  0  0  0
    0.9270   15.7060   -4.4580 C   0  0  0  0  0  0  0  0  0  0  0  0
   -1.0770   13.6580   -3.8630 C   0  0  0  0  0  0  0  0  0  0  0  0
    1.2120   14.6490   -3.3710 C   0  0  0  0  0  0  0  0  0  0  0  0
    0.3980   13.3540   -3.5760 C   0  0  0  0  0  0  0  0  0  0  0  0
    0.4620   12.4010   -2.4030 C   0  0  0  0  0  0  0  0  0  0  0  0
    0.3650   11.1050   -2.7720 O   0  0  0  0  0  0  0  0  0  0  0  0
    0.5740   12.7350   -1.2330 O   0  0  0  0  0  0  0  0  0  0  0  0
  2  1  1  1
  2  3  1  0
  2  4  1  0
  4  5  1  0
  3  6  1  0
  5  7  1  6
  5  8  1  0
  6  8  1  0
  7  9  1  0
  9 10  1  0
 10 11  1  0
 11 12  2  3
 12 13  1  0
 12 14  1  0
 14 15  1  0
 14 16  1  0
 15 17  1  0
 16 18  1  0
 17 19  1  0
 18 19  1  0
 19 20  1  0
 20 21  1  0
 20 22  2  0
M  END
