x0933_0_A-x0844_0_A
     RDKit          3D

  9  9  0  0  0  0  0  0  0  0999 V2000
   -6.2360   14.3860    1.9460 N   0  0  0  0  0  0  0  0  0  0  0  0
   -5.1140   14.9920    1.2540 C   0  0  1  0  0  0  0  0  0  0  0  0
   -3.8860   14.4190    1.7110 N   0  0  0  0  0  0  0  0  0  0  0  0
   -5.3020   14.9060   -0.2700 C   0  0  0  0  0  0  0  0  0  0  0  0
   -6.4220   14.6000   -0.7140 O   0  0  0  0  0  0  0  0  0  0  0  0
   -4.0540   15.2450   -1.0980 C   0  0  2  0  0  0  0  0  0  0  0  0
   -2.7390   14.9450    1.0040 C   0  0  0  0  0  0  0  0  0  0  0  0
   -4.0940   14.5990   -2.9290 Br  0  0  0  0  0  0  0  0  0  0  0  0
   -2.8130   14.6290   -0.4750 C   0  0  0  0  0  0  0  0  0  0  0  0
  2  1  1  1
  2  3  1  0
  2  4  1  0
  4  5  2  0
  4  6  1  0
  3  7  1  0
  6  8  1  6
  6  9  1  0
  7  9  1  0
M  END
