x0933_0_A_α-x0837_0_A_α
     RDKit          3D

  9  9  0  0  0  0  0  0  0  0999 V2000
   -6.1970   14.3060    2.1030 N   0  0  0  0  0  0  0  0  0  0  0  0
   -5.2130   14.9770    1.2850 C   0  0  1  0  0  0  0  0  0  0  0  0
   -3.9420   14.2900    1.3930 N   0  0  0  0  0  0  0  0  0  0  0  0
   -5.8020   15.0220   -0.1320 C   0  0  0  0  0  0  0  0  0  0  0  0
   -7.0020   14.7950   -0.3380 O   0  0  0  0  0  0  0  0  0  0  0  0
   -4.8430   15.3540   -1.2320 C   0  0  0  0  0  0  0  0  0  0  0  0
   -2.9880   14.7250    0.3720 C   0  0  0  0  0  0  0  0  0  0  0  0
   -3.6260   14.4850   -1.0140 C   0  0  2  0  0  0  0  0  0  0  0  0
   -2.3200   14.6830   -2.7380 I   0  0  0  0  0  0  0  0  0  0  0  0
  2  1  1  1
  2  3  1  0
  2  4  1  0
  4  5  2  0
  4  6  1  0
  3  7  1  0
  6  8  1  0
  7  8  1  0
  8  9  1  6
M  END
