x0933_0_A-x0805_0_A
     RDKit          3D

 24 26  0  0  0  0  0  0  0  0999 V2000
   -6.6690   14.5580    2.0820 N   0  0  0  0  0  0  0  0  0  0  0  0
   -5.8720   14.5680    0.9020 C   0  0  1  0  0  0  0  0  0  0  0  0
   -4.5390   14.9770    1.2100 N   0  0  0  0  0  0  0  0  0  0  0  0
   -5.9670   13.2370    0.3950 N   0  0  0  0  0  0  0  0  0  0  0  0
   -4.0430   16.0190    0.3620 C   0  0  0  0  0  0  0  0  0  0  0  0
   -5.0050   12.9270   -0.6690 C   0  0  0  0  0  0  0  0  0  0  0  0
   -3.5760   13.8910    1.0650 C   0  0  0  0  0  0  0  0  0  0  0  0
   -2.9080   15.5360   -0.3470 O   0  0  0  0  0  0  0  0  0  0  0  0
   -3.5910   13.3830   -0.3630 C   0  0  0  0  0  0  0  0  0  0  0  0
   -3.0390   14.9900   -1.5920 C   0  0  0  0  0  0  0  0  0  0  0  0
   -4.2160   14.7340   -2.2870 C   0  0  0  0  0  0  0  0  0  0  0  0
   -1.8000   14.6750   -2.1730 C   0  0  0  0  0  0  0  0  0  0  0  0
   -4.1520   14.1580   -3.5530 C   0  0  0  0  0  0  0  0  0  0  0  0
   -1.7150   14.1060   -3.4400 C   0  0  0  0  0  0  0  0  0  0  0  0
   -2.9150   13.8480   -4.1220 C   0  0  0  0  0  0  0  0  0  0  0  0
   -0.4100   13.7450   -4.1500 C   0  0  2  0  0  0  0  0  0  0  0  0
    0.7220   13.3260   -3.2120 C   0  0  1  0  0  0  0  0  0  0  0  0
    0.1810   14.8390   -5.0330 C   0  0  0  0  0  0  0  0  0  0  0  0
    0.3420   12.1860   -2.3110 C   0  0  0  0  0  0  0  0  0  0  0  0
    1.9910   13.0970   -4.0010 C   0  0  0  0  0  0  0  0  0  0  0  0
    1.4870   15.3990   -4.4850 C   0  0  0  0  0  0  0  0  0  0  0  0
    0.0620   10.9960   -2.8830 O   0  0  0  0  0  0  0  0  0  0  0  0
    0.2910   12.3680   -1.1080 O   0  0  0  0  0  0  0  0  0  0  0  0
    2.5090   14.3860   -4.3310 O   0  0  0  0  0  0  0  0  0  0  0  0
  2  1  1  1
  2  3  1  0
  2  4  1  0
  3  5  1  0
  4  6  1  0
  3  7  1  0
  5  8  1  0
  6  9  1  0
  7  9  1  0
  8 10  1  0
 10 11  2  0
 10 12  1  0
 11 13  1  0
 12 14  2  0
 13 15  2  0
 14 15  1  0
 16 14  1  1
 16 17  1  0
 16 18  1  0
 17 19  1  6
 17 20  1  0
 18 21  1  0
 19 22  1  0
 19 23  2  0
 20 24  1  0
 21 24  1  0
M  END
