x0933_1_A-x0822_0_A
     RDKit          3D

 21 23  0  0  0  0  0  0  0  0999 V2000
    7.7130   22.9610   19.1590 N   0  0  0  0  0  0  0  0  0  0  0  0
    7.8260   23.8500   18.0580 C   0  0  2  0  0  0  0  0  0  0  0  0
    8.3180   24.9410   18.6520 N   0  0  0  0  0  0  0  0  0  0  0  0
    6.5590   24.2110   17.5300 N   0  0  0  0  0  0  0  0  0  0  0  0
    6.3790   25.5590   16.9790 C   0  0  1  0  0  0  0  0  0  0  0  0
    8.8460   25.7190   17.5940 C   0  0  0  0  0  0  0  0  0  0  0  0
    7.7280   26.2550   16.7220 C   0  0  0  0  0  0  0  0  0  0  0  0
    5.6570   25.4000   15.6370 C   0  0  0  0  0  0  0  0  0  0  0  0
    5.5410   26.2950   18.0940 C   0  0  0  0  0  0  0  0  0  0  0  0
    4.1370   26.8640   17.7450 C   0  0  2  0  0  0  0  0  0  0  0  0
    4.6870   26.5080   15.3030 C   0  0  0  0  0  0  0  0  0  0  0  0
    3.1140   26.4610   18.7170 N   0  0  0  0  0  0  0  0  0  0  0  0
    3.6310   26.4600   16.3660 C   0  0  2  0  0  0  0  0  0  0  0  0
    2.3160   27.0860   16.0090 C   0  0  0  0  0  0  0  0  0  0  0  0
    2.0130   28.4230   16.3210 C   0  0  0  0  0  0  0  0  0  0  0  0
    1.3720   26.3020   15.3550 C   0  0  0  0  0  0  0  0  0  0  0  0
    0.7700   28.9510   15.9750 C   0  0  0  0  0  0  0  0  0  0  0  0
    0.1380   26.8120   15.0120 C   0  0  0  0  0  0  0  0  0  0  0  0
   -0.8300   26.0890   14.3810 O   0  0  0  0  0  0  0  0  0  0  0  0
   -0.1660   28.1420   15.3210 C   0  0  0  0  0  0  0  0  0  0  0  0
   -2.0900   26.7040   14.1750 C   0  0  0  0  0  0  0  0  0  0  0  0
  2  1  1  1
  2  3  1  0
  2  4  1  0
  5  4  1  0
  3  6  1  0
  5  7  1  6
  6  7  1  0
  5  8  1  0
  5  9  1  0
  9 10  1  0
  8 11  1  0
 10 12  1  1
 10 13  1  0
 11 13  1  0
 13 14  1  6
 14 15  2  0
 14 16  1  0
 15 17  1  0
 16 18  2  0
 18 19  1  0
 17 20  2  0
 18 20  1  0
 19 21  1  0
M  END
