x0933_0_A-x0900_0_A
     RDKit          3D

  8  8  0  0  0  0  0  0  0  0999 V2000
   -6.2790   14.5520    1.9610 N   0  0  0  0  0  0  0  0  0  0  0  0
   -5.2150   14.2380    1.0380 C   0  0  2  0  0  0  0  0  0  0  0  0
   -4.0530   14.8360    1.6510 N   0  0  0  0  0  0  0  0  0  0  0  0
   -5.5710   14.8270   -0.3550 C   0  0  0  0  0  0  0  0  0  0  0  0
   -6.7490   15.0290   -0.6820 O   0  0  0  0  0  0  0  0  0  0  0  0
   -4.4360   15.1360   -1.3150 C   0  0  0  0  0  0  0  0  0  0  0  0
   -3.1070   15.4450    0.7550 C   0  0  0  0  0  0  0  0  0  0  0  0
   -3.1250   14.8110   -0.6300 C   0  0  0  0  0  0  0  0  0  0  0  0
  2  1  1  1
  2  3  1  0
  2  4  1  0
  4  5  2  0
  4  6  1  0
  3  7  1  0
  6  8  1  0
  7  8  1  0
M  END
