x0933_0_A_α-x0591_0_A_α
     RDKit          3D

 20 21  0  0  0  0  0  0  0  0999 V2000
   -5.2900   14.8560    1.3920 N   0  0  0  0  0  0  0  0  0  0  0  0
   -6.2610   14.0730    0.7190 N   0  0  0  0  0  0  0  0  0  0  0  0
   -6.6270   14.3910   -0.5750 C   0  0  0  0  0  0  0  0  0  0  0  0
   -3.9950   14.2270    1.3220 C   0  0  0  0  0  0  0  0  0  0  0  0
   -3.9150   13.6620    0.0040 N   0  0  0  0  0  0  0  0  0  0  0  0
   -3.0010   15.2470    1.5120 N   0  0  0  0  0  0  0  0  0  0  0  0
   -7.7580   14.7800   -0.8590 O   0  0  0  0  0  0  0  0  0  0  0  0
   -2.9300   14.3530   -0.8230 C   0  0  0  0  0  0  0  0  0  0  0  0
   -1.6350   14.8420    1.1900 C   0  0  0  0  0  0  0  0  0  0  0  0
   -5.5940   14.2590   -1.6520 C   0  0  0  0  0  0  0  0  0  0  0  0
   -1.5390   14.3030   -0.2160 C   0  0  0  0  0  0  0  0  0  0  0  0
   -5.2120   13.0390   -2.2380 C   0  0  0  0  0  0  0  0  0  0  0  0
   -4.9880   15.4290   -2.0950 C   0  0  0  0  0  0  0  0  0  0  0  0
   -4.2410   13.0100   -3.2570 C   0  0  0  0  0  0  0  0  0  0  0  0
   -4.0210   15.4050   -3.1080 C   0  0  0  0  0  0  0  0  0  0  0  0
   -3.6520   14.2050   -3.6900 C   0  0  0  0  0  0  0  0  0  0  0  0
   -2.4320   14.2150   -4.9840 S   0  0  0  0  0  0  0  0  0  0  0  0
   -1.1840   15.1240   -4.3140 N   0  0  0  0  0  0  0  0  0  0  0  0
   -1.9470   12.8710   -5.1760 O   0  0  0  0  0  0  0  0  0  0  0  0
   -2.9590   15.0170   -6.0670 O   0  0  0  0  0  0  0  0  0  0  0  0
  1  2  1  0
  2  3  1  0
  1  4  1  0
  4  5  1  0
  4  6  1  0
  3  7  2  0
  5  8  1  0
  6  9  1  0
  3 10  1  0
  8 11  1  0
  9 11  1  0
 10 12  2  0
 10 13  1  0
 12 14  1  0
 13 15  2  0
 14 16  2  0
 15 16  1  0
 16 17  1  0
 17 18  1  0
 17 19  2  0
 17 20  2  0
M  END
