x0933_1_A-x0905_1_B
     RDKit          3D

 17 18  0  0  0  0  0  0  0  0999 V2000
    3.8600   24.0470   17.7870 N   0  0  0  0  0  0  0  0  0  0  0  0
    5.1850   24.3660   17.4000 C   0  0  2  0  0  0  0  0  0  0  0  0
    5.9870   24.7180   18.5280 N   0  0  0  0  0  0  0  0  0  0  0  0
    5.2390   25.4050   16.5250 N   0  0  0  0  0  0  0  0  0  0  0  0
    6.5940   25.2790   15.9670 C   0  0  0  0  0  0  0  0  0  0  0  0
    7.4170   24.6060   18.2170 C   0  0  0  0  0  0  0  0  0  0  0  0
    7.7640   25.4290   17.0190 C   0  0  1  0  0  0  0  0  0  0  0  0
    9.3360   25.3150   16.6780 C   0  0  0  0  0  0  0  0  0  0  0  0
   10.2670   24.0040   16.8260 C   0  0  0  0  0  0  0  0  0  0  0  0
   11.4880   23.8310   15.7890 C   0  0  0  0  0  0  0  0  0  0  0  0
   11.9940   22.5960   14.9220 C   0  0  0  0  0  0  0  0  0  0  0  0
   11.7200   21.1990   15.0030 C   0  0  0  0  0  0  0  0  0  0  0  0
   12.8830   22.9220   13.8750 C   0  0  0  0  0  0  0  0  0  0  0  0
   12.2460   20.2330   14.1530 N   0  0  0  0  0  0  0  0  0  0  0  0
   13.4280   21.9650   13.0120 C   0  0  0  0  0  0  0  0  0  0  0  0
   13.0880   20.6420   13.1780 C   0  0  0  0  0  0  0  0  0  0  0  0
   13.6300   19.7000   12.3250 O   0  0  0  0  0  0  0  0  0  0  0  0
  2  1  1  1
  2  3  1  0
  2  4  1  0
  4  5  1  0
  3  6  1  0
  5  7  1  0
  6  7  1  0
  7  8  1  6
  8  9  1  0
  9 10  1  0
 10 11  1  0
 11 12  2  0
 11 13  1  0
 12 14  1  0
 13 15  2  0
 14 16  2  0
 15 16  1  0
 16 17  1  0
M  END
