x0933_4_B_α-x0423_0_B_α
     RDKit          3D

 26 28  0  0  0  0  0  0  0  0999 V2000
   17.8860   32.9580    7.5660 N   0  0  0  0  0  0  0  0  0  0  0  0
   16.8260   32.0380    7.7840 C   0  0  1  0  0  0  0  0  0  0  0  0
   16.9010   31.1530    6.6800 N   0  0  0  0  0  0  0  0  0  0  0  0
   17.1610   31.3910    9.0160 N   0  0  0  0  0  0  0  0  0  0  0  0
   17.3190   29.9320    9.0210 C   0  0  1  0  0  0  0  0  0  0  0  0
   15.9740   30.0390    6.8670 C   0  0  0  0  0  0  0  0  0  0  0  0
   17.4440   29.3930   10.4990 C   0  0  0  0  0  0  0  0  0  0  0  0
   16.2490   29.2410    8.1460 C   0  0  0  0  0  0  0  0  0  0  0  0
   16.3410   29.6350   11.5790 C   0  0  0  0  0  0  0  0  0  0  0  0
   16.3930   28.7490   12.8650 C   0  0  0  0  0  0  0  0  0  0  0  0
   15.0810   28.5060   13.6810 C   0  0  0  0  0  0  0  0  0  0  0  0
   15.2760   27.5170   14.8890 C   0  0  0  0  0  0  0  0  0  0  0  0
   14.2400   26.4650   15.2110 N   0  0  0  0  0  0  0  0  0  0  0  0
   12.8710   26.9510   15.0450 C   0  0  0  0  0  0  0  0  0  0  0  0
   14.4960   25.1430   14.5470 C   0  0  2  0  0  0  0  0  0  0  0  0
   13.7810   23.8040   14.8440 C   0  0  0  0  0  0  0  0  0  0  0  0
   16.0220   24.9500   14.3990 C   0  0  0  0  0  0  0  0  0  0  0  0
   13.9460   22.9740   13.6280 N   0  0  0  0  0  0  0  0  0  0  0  0
   16.4140   23.6330   13.7530 C   0  0  0  0  0  0  0  0  0  0  0  0
   15.2950   22.8650   13.0400 C   0  0  0  0  0  0  0  0  0  0  0  0
   13.3260   21.7470   13.5060 C   0  0  0  0  0  0  0  0  0  0  0  0
   12.3150   21.3290   14.3460 C   0  0  0  0  0  0  0  0  0  0  0  0
   13.7350   20.9070   12.5190 N   0  0  0  0  0  0  0  0  0  0  0  0
   13.1790   19.6670   12.3360 N   0  0  0  0  0  0  0  0  0  0  0  0
   11.7470   20.0820   14.1760 C   0  0  0  0  0  0  0  0  0  0  0  0
   12.2010   19.2780   13.1620 C   0  0  0  0  0  0  0  0  0  0  0  0
  2  1  1  6
  2  3  1  0
  2  4  1  0
  4  5  1  0
  3  6  1  0
  5  7  1  1
  5  8  1  0
  6  8  1  0
  7  9  1  0
  9 10  1  0
 10 11  1  0
 11 12  1  0
 12 13  1  0
 13 14  1  0
 15 13  1  1
 15 16  1  0
 15 17  1  0
 16 18  1  0
 17 19  1  0
 18 20  1  0
 19 20  1  0
 18 21  1  0
 21 22  2  0
 21 23  1  0
 23 24  2  0
 22 25  1  0
 24 26  1  0
 25 26  2  0
M  END
