x0933_1_A_α-x0905_0_B_α
     RDKit          3D

 17 18  0  0  0  0  0  0  0  0999 V2000
    7.4730   22.6640   20.1250 N   0  0  0  0  0  0  0  0  0  0  0  0
    8.3680   23.2520   19.1840 C   0  0  2  0  0  0  0  0  0  0  0  0
    9.3180   23.9880   19.8870 N   0  0  0  0  0  0  0  0  0  0  0  0
    7.6760   24.2110   18.4120 N   0  0  0  0  0  0  0  0  0  0  0  0
    8.3970   24.4430   17.1880 C   0  0  0  0  0  0  0  0  0  0  0  0
   10.0020   24.8200   18.8970 C   0  0  0  0  0  0  0  0  0  0  0  0
    9.8640   24.1720   17.5190 C   0  0  1  0  0  0  0  0  0  0  0  0
   10.3100   22.6980   17.7090 C   0  0  0  0  0  0  0  0  0  0  0  0
   11.4320   22.0890   16.8480 C   0  0  0  0  0  0  0  0  0  0  0  0
   11.8310   22.8310   15.5720 C   0  0  0  0  0  0  0  0  0  0  0  0
   12.3840   21.9660   14.4800 C   0  0  0  0  0  0  0  0  0  0  0  0
   12.0140   20.6320   14.2850 C   0  0  0  0  0  0  0  0  0  0  0  0
   13.3220   22.5000   13.6050 C   0  0  0  0  0  0  0  0  0  0  0  0
   12.5150   19.8420   13.3050 N   0  0  0  0  0  0  0  0  0  0  0  0
   13.8480   21.7160   12.5970 C   0  0  0  0  0  0  0  0  0  0  0  0
   13.4190   20.4090   12.4870 C   0  0  0  0  0  0  0  0  0  0  0  0
   13.9220   19.6190   11.5010 O   0  0  0  0  0  0  0  0  0  0  0  0
  2  1  1  1
  2  3  1  0
  2  4  1  0
  4  5  1  0
  3  6  1  0
  5  7  1  0
  6  7  1  0
  7  8  1  1
  8  9  1  0
  9 10  1  0
 10 11  1  0
 11 12  2  0
 11 13  1  0
 12 14  1  0
 13 15  2  0
 14 16  2  0
 15 16  1  0
 16 17  1  0
M  END
