x0933_0_A-x0727_0_A
     RDKit          3D

 23 24  0  0  0  0  0  0  0  0999 V2000
   -6.1450   14.7370    2.0670 N   0  0  0  0  0  0  0  0  0  0  0  0
   -5.2380   14.1990    1.1260 C   0  0  2  0  0  0  0  0  0  0  0  0
   -3.9510   14.5910    1.6050 N   0  0  0  0  0  0  0  0  0  0  0  0
   -5.5960   14.8430   -0.0980 N   0  0  0  0  0  0  0  0  0  0  0  0
   -4.6230   14.6480   -1.1670 C   0  0  0  0  0  0  0  0  0  0  0  0
   -3.2500   15.5160    0.7260 C   0  0  0  0  0  0  0  0  0  0  0  0
   -3.2030   14.9940   -0.7270 C   0  0  1  0  0  0  0  0  0  0  0  0
   -2.2210   13.8220   -0.9060 C   0  0  0  0  0  0  0  0  0  0  0  0
   -0.8730   14.2530   -1.5110 C   0  0  0  0  0  0  0  0  0  0  0  0
    0.1780   13.1710   -1.2960 C   0  0  0  0  0  0  0  0  0  0  0  0
    1.0250   12.9800   -2.4360 O   0  0  0  0  0  0  0  0  0  0  0  0
    0.6680   11.9530   -3.2540 C   0  0  0  0  0  0  0  0  0  0  0  0
    0.8880   12.3400   -4.7200 C   0  0  1  0  0  0  0  0  0  0  0  0
    0.2320   10.8690   -2.8700 O   0  0  0  0  0  0  0  0  0  0  0  0
    0.1210   11.4390   -5.5810 N   0  0  0  0  0  0  0  0  0  0  0  0
    0.4760   13.7830   -4.9620 C   0  0  0  0  0  0  0  0  0  0  0  0
    0.6850   11.0990   -6.7780 C   0  0  0  0  0  0  0  0  0  0  0  0
    1.6360   11.7060   -7.2020 O   0  0  0  0  0  0  0  0  0  0  0  0
    0.0980    9.9160   -7.5330 C   0  0  0  0  0  0  0  0  0  0  0  0
   -1.1980   10.2800   -8.2610 C   0  0  0  0  0  0  0  0  0  0  0  0
   -0.2280    8.7090   -6.6330 C   0  0  0  0  0  0  0  0  0  0  0  0
   -2.1350    9.1030   -8.0310 C   0  0  0  0  0  0  0  0  0  0  0  0
   -1.7370    8.5550   -6.6730 C   0  0  0  0  0  0  0  0  0  0  0  0
  2  1  1  1
  2  3  1  0
  2  4  1  0
  4  5  1  0
  3  6  1  0
  5  7  1  0
  6  7  1  0
  7  8  1  1
  8  9  1  0
  9 10  1  0
 10 11  1  0
 11 12  1  0
 12 13  1  0
 12 14  2  0
 13 15  1  0
 13 16  1  1
 15 17  1  0
 17 18  2  0
 17 19  1  0
 19 20  1  0
 19 21  1  0
 20 22  1  0
 21 23  1  0
 22 23  1  0
M  END
