x0933_0_A-x0849_0_A
     RDKit          3D

 13 14  0  0  0  0  0  0  0  0999 V2000
   -6.2500   14.5360    1.6570 N   0  0  0  0  0  0  0  0  0  0  0  0
   -5.3110   14.9690    0.6810 C   0  0  1  0  0  0  0  0  0  0  0  0
   -4.1640   15.4870    1.3250 N   0  0  0  0  0  0  0  0  0  0  0  0
   -4.9980   13.9460   -0.2610 N   0  0  0  0  0  0  0  0  0  0  0  0
   -3.7490   14.0510   -1.0290 C   0  0  1  0  0  0  0  0  0  0  0  0
   -3.1410   15.8760    0.3840 C   0  0  0  0  0  0  0  0  0  0  0  0
   -4.1230   15.0310   -2.6790 Br  0  0  0  0  0  0  0  0  0  0  0  0
   -2.5570   14.6610   -0.2770 C   0  0  2  0  0  0  0  0  0  0  0  0
   -1.3660   15.0190   -1.2130 C   0  0  0  0  0  0  0  0  0  0  0  0
   -1.9840   13.8750    0.8760 C   0  0  0  0  0  0  0  0  0  0  0  0
   -1.0380   14.7120    1.5780 N   0  0  0  0  0  0  0  0  0  0  0  0
   -0.0830   15.2940   -0.4800 C   0  0  0  0  0  0  0  0  0  0  0  0
    0.0080   15.1450    0.8330 C   0  0  0  0  0  0  0  0  0  0  0  0
  2  1  1  1
  2  3  1  0
  2  4  1  0
  4  5  1  0
  3  6  1  0
  5  7  1  6
  5  8  1  0
  8  6  1  1
  8  9  1  0
  8 10  1  0
 10 11  1  0
  9 12  1  0
 11 13  1  0
 12 13  2  0
M  END
