x0933_0_A-x0950_0_A
     RDKit          3D

 16 16  0  0  0  0  0  0  0  0999 V2000
   -6.2060   14.6860    1.7570 N   0  0  0  0  0  0  0  0  0  0  0  0
   -5.0800   14.5050    0.9140 C   0  0  2  0  0  0  0  0  0  0  0  0
   -3.9600   15.0830    1.5680 N   0  0  0  0  0  0  0  0  0  0  0  0
   -5.2940   15.0500   -0.3880 N   0  0  0  0  0  0  0  0  0  0  0  0
   -4.1010   14.9890   -1.2450 C   0  0  0  0  0  0  0  0  0  0  0  0
   -2.7200   14.8780    0.8360 C   0  0  0  0  0  0  0  0  0  0  0  0
   -2.8370   15.5210   -0.5460 C   0  0  1  0  0  0  0  0  0  0  0  0
   -1.5250   15.4320   -1.3620 C   0  0  0  0  0  0  0  0  0  0  0  0
   -1.1890   14.0850   -2.0200 C   0  0  0  0  0  0  0  0  0  0  0  0
   -0.2510   13.1950   -1.2130 C   0  0  0  0  0  0  0  0  0  0  0  0
    0.9550   12.8710   -1.9240 O   0  0  0  0  0  0  0  0  0  0  0  0
    0.8100   12.0490   -3.0050 C   0  0  0  0  0  0  0  0  0  0  0  0
    1.2940   12.7560   -4.2810 C   0  0  1  0  0  0  0  0  0  0  0  0
    0.3620   10.9100   -2.9620 O   0  0  0  0  0  0  0  0  0  0  0  0
    2.7930   12.9630   -4.2030 C   0  0  0  0  0  0  0  0  0  0  0  0
    0.9630   12.0890   -5.4940 O   0  0  0  0  0  0  0  0  0  0  0  0
  2  1  1  1
  2  3  1  0
  2  4  1  0
  4  5  1  0
  3  6  1  0
  5  7  1  0
  6  7  1  0
  7  8  1  6
  8  9  1  0
  9 10  1  0
 10 11  1  0
 11 12  1  0
 12 13  1  0
 12 14  2  0
 13 15  1  1
 13 16  1  0
M  END
