x0933_3_B_α-x0469_0_B_α
     RDKit          3D

 24 25  0  0  0  0  0  0  0  0999 V2000
    0.5590   34.6270   10.9520 N   0  0  0  0  0  0  0  0  0  0  0  0
   -0.1580   34.8600    9.7470 C   0  0  1  0  0  0  0  0  0  0  0  0
   -0.7510   36.2200    9.6970 N   0  0  0  0  0  0  0  0  0  0  0  0
    0.8200   34.4410    8.7270 N   0  0  0  0  0  0  0  0  0  0  0  0
   -2.1000   36.5430    9.0910 C   0  0  0  0  0  0  0  0  0  0  0  0
    1.2580   35.3570    7.6720 C   0  0  0  0  0  0  0  0  0  0  0  0
    0.1870   37.0690    8.9770 C   0  0  0  0  0  0  0  0  0  0  0  0
   -3.4520   36.1600    9.7990 C   0  0  0  0  0  0  0  0  0  0  0  0
    0.3550   36.5520    7.5640 C   0  0  0  0  0  0  0  0  0  0  0  0
   -4.6950   36.3060    8.8430 C   0  0  0  0  0  0  0  0  0  0  0  0
   -5.7510   35.1560    8.8450 C   0  0  0  0  0  0  0  0  0  0  0  0
   -7.0820   35.5180    8.3930 O   0  0  0  0  0  0  0  0  0  0  0  0
   -7.2540   36.4040    7.3540 C   0  0  0  0  0  0  0  0  0  0  0  0
   -8.5270   36.4650    6.7220 C   0  0  0  0  0  0  0  0  0  0  0  0
   -6.2470   37.2480    6.8940 C   0  0  0  0  0  0  0  0  0  0  0  0
   -9.5530   35.6400    7.1550 O   0  0  0  0  0  0  0  0  0  0  0  0
   -8.7610   37.3660    5.6550 C   0  0  0  0  0  0  0  0  0  0  0  0
   -6.4670   38.1400    5.8420 C   0  0  0  0  0  0  0  0  0  0  0  0
  -10.0110   37.3790    5.0940 O   0  0  0  0  0  0  0  0  0  0  0  0
   -5.3580   39.0420    5.3710 C   0  0  0  0  0  0  0  0  0  0  0  0
   -9.8550   34.6520    6.1650 C   0  0  0  0  0  0  0  0  0  0  0  0
   -7.7220   38.1920    5.2290 C   0  0  0  0  0  0  0  0  0  0  0  0
   -5.4320   40.3520    6.0100 N   0  0  0  0  0  0  0  0  0  0  0  0
  -10.3390   38.5210    4.3060 C   0  0  0  0  0  0  0  0  0  0  0  0
  2  1  1  1
  2  3  1  0
  2  4  1  0
  3  5  1  0
  4  6  1  0
  3  7  1  0
  5  8  1  0
  6  9  1  0
  7  9  1  0
  8 10  1  0
 10 11  1  0
 11 12  1  0
 12 13  1  0
 13 14  2  0
 13 15  1  0
 14 16  1  0
 14 17  1  0
 15 18  2  0
 17 19  1  0
 18 20  1  0
 16 21  1  0
 17 22  2  0
 18 22  1  0
 20 23  1  0
 19 24  1  0
M  END
