x0933_0_A_α-x0104_0_A_β
     RDKit          3D

  9  9  0  0  0  0  0  0  0  0999 V2000
   -6.1750   14.5850    1.7560 N   0  0  0  0  0  0  0  0  0  0  0  0
   -5.0970   15.0630    0.9720 C   0  0  1  0  0  0  0  0  0  0  0  0
   -3.9690   14.3250    1.3480 N   0  0  0  0  0  0  0  0  0  0  0  0
   -5.4340   14.8500   -0.3870 N   0  0  0  0  0  0  0  0  0  0  0  0
   -4.3200   15.1730   -1.2630 C   0  0  2  0  0  0  0  0  0  0  0  0
   -2.7900   14.8880    0.7660 C   0  0  0  0  0  0  0  0  0  0  0  0
   -4.5860   14.6940   -2.5700 O   0  0  0  0  0  0  0  0  0  0  0  0
   -2.9540   14.6740   -0.7390 C   0  0  0  0  0  0  0  0  0  0  0  0
   -3.5170   14.9750   -3.4490 C   0  0  0  0  0  0  0  0  0  0  0  0
  2  1  1  1
  2  3  1  0
  2  4  1  0
  4  5  1  0
  3  6  1  0
  5  7  1  6
  5  8  1  0
  6  8  1  0
  7  9  1  0
M  END
