x0933_0_A-x0290_0_A
     RDKit          3D

 19 20  0  0  0  0  0  0  0  0999 V2000
   -5.8850   14.3160    1.2390 N   0  0  0  0  0  0  0  0  0  0  0  0
   -7.1980   14.7290    1.7330 N   0  0  0  0  0  0  0  0  0  0  0  0
   -8.2030   14.6970    0.6760 C   0  0  0  0  0  0  0  0  0  0  0  0
   -4.9370   15.2840    0.9690 C   0  0  0  0  0  0  0  0  0  0  0  0
   -5.8490   13.1890    0.3340 C   0  0  0  0  0  0  0  0  0  0  0  0
   -5.0970   16.1170    0.0850 O   0  0  0  0  0  0  0  0  0  0  0  0
   -3.7680   15.2770    1.6430 N   0  0  0  0  0  0  0  0  0  0  0  0
   -6.2250   13.6300   -1.0100 N   0  0  0  0  0  0  0  0  0  0  0  0
   -4.5030   12.6550    0.3560 N   0  0  0  0  0  0  0  0  0  0  0  0
   -5.2580   14.4930   -1.6930 C   0  0  0  0  0  0  0  0  0  0  0  0
   -3.4990   13.4960   -0.2740 C   0  0  0  0  0  0  0  0  0  0  0  0
   -2.5330   14.9140    1.0950 C   0  0  0  0  0  0  0  0  0  0  0  0
   -3.9010   13.8210   -1.7000 C   0  0  0  0  0  0  0  0  0  0  0  0
   -1.5990   14.5210    1.9620 N   0  0  0  0  0  0  0  0  0  0  0  0
   -2.2930   14.9580   -0.2730 C   0  0  0  0  0  0  0  0  0  0  0  0
   -0.3970   14.1660    1.4710 C   0  0  0  0  0  0  0  0  0  0  0  0
   -1.0430   14.5850   -0.7750 C   0  0  0  0  0  0  0  0  0  0  0  0
   -0.7590   14.6210   -2.2480 C   0  0  0  0  0  0  0  0  0  0  0  0
   -0.0760   14.1810    0.1280 C   0  0  0  0  0  0  0  0  0  0  0  0
  1  2  1  0
  2  3  1  0
  1  4  1  0
  1  5  1  0
  4  6  2  0
  4  7  1  0
  5  8  1  0
  5  9  1  0
  8 10  1  0
  9 11  1  0
  7 12  1  0
 10 13  1  0
 11 13  1  0
 12 14  2  0
 12 15  1  0
 14 16  1  0
 15 17  2  0
 17 18  1  0
 16 19  2  0
 17 19  1  0
M  END
