x0933_4_B_α-x0259_0_A_α
     RDKit          3D

 17 18  0  0  0  0  0  0  0  0999 V2000
   17.1620   33.3630    7.8980 N   0  0  0  0  0  0  0  0  0  0  0  0
   17.4000   31.9950    7.6420 C   0  0  2  0  0  0  0  0  0  0  0  0
   16.3340   31.6060    6.7770 N   0  0  0  0  0  0  0  0  0  0  0  0
   17.2730   31.3410    8.9160 N   0  0  0  0  0  0  0  0  0  0  0  0
   17.2830   29.8820    8.7560 C   0  0  0  0  0  0  0  0  0  0  0  0
   16.4050   30.1670    6.5010 C   0  0  0  0  0  0  0  0  0  0  0  0
   17.5890   29.6050    7.3010 C   0  0  2  0  0  0  0  0  0  0  0  0
   18.0790   28.2100    6.9310 C   0  0  0  0  0  0  0  0  0  0  0  0
   19.5470   28.0670    6.8580 N   0  0  0  0  0  0  0  0  0  0  0  0
   20.4130   28.6570    7.8770 C   0  0  0  0  0  0  0  0  0  0  0  0
   20.1530   27.8770    5.6040 C   0  0  0  0  0  0  0  0  0  0  0  0
   19.2680   27.5120    4.6520 N   0  0  0  0  0  0  0  0  0  0  0  0
   21.5090   28.0210    5.2740 C   0  0  0  0  0  0  0  0  0  0  0  0
   22.7660   28.4830    6.3630 Cl  0  0  0  0  0  0  0  0  0  0  0  0
   19.7110   27.2950    3.4110 C   0  0  0  0  0  0  0  0  0  0  0  0
   21.8540   27.7680    3.9550 C   0  0  0  0  0  0  0  0  0  0  0  0
   20.9790   27.4020    2.9980 N   0  0  0  0  0  0  0  0  0  0  0  0
  2  1  1  1
  2  3  1  0
  2  4  1  0
  4  5  1  0
  3  6  1  0
  5  7  1  0
  6  7  1  0
  7  8  1  1
  8  9  1  0
  9 10  1  0
  9 11  1  0
 11 12  2  0
 11 13  1  0
 13 14  1  0
 12 15  1  0
 13 16  2  0
 15 17  2  0
 16 17  1  0
M  END
