x0933_3_B-x0469_0_B
     RDKit          3D

 24 25  0  0  0  0  0  0  0  0999 V2000
    0.5600   34.6220   10.9490 N   0  0  0  0  0  0  0  0  0  0  0  0
   -0.1580   34.8560    9.7460 C   0  0  1  0  0  0  0  0  0  0  0  0
   -0.7490   36.2170    9.6930 N   0  0  0  0  0  0  0  0  0  0  0  0
    0.8240   34.4430    8.7230 N   0  0  0  0  0  0  0  0  0  0  0  0
   -2.1010   36.5400    9.0900 C   0  0  0  0  0  0  0  0  0  0  0  0
    1.2570   35.3560    7.6710 C   0  0  0  0  0  0  0  0  0  0  0  0
    0.1860   37.0660    8.9770 C   0  0  0  0  0  0  0  0  0  0  0  0
   -3.4510   36.1590    9.7990 C   0  0  0  0  0  0  0  0  0  0  0  0
    0.3580   36.5530    7.5600 C   0  0  0  0  0  0  0  0  0  0  0  0
   -4.6940   36.3040    8.8460 C   0  0  0  0  0  0  0  0  0  0  0  0
   -5.7550   35.1560    8.8470 C   0  0  0  0  0  0  0  0  0  0  0  0
   -7.0810   35.5170    8.3920 O   0  0  0  0  0  0  0  0  0  0  0  0
   -7.2530   36.4030    7.3520 C   0  0  0  0  0  0  0  0  0  0  0  0
   -8.5250   36.4650    6.7220 C   0  0  0  0  0  0  0  0  0  0  0  0
   -6.2460   37.2470    6.8930 C   0  0  0  0  0  0  0  0  0  0  0  0
   -9.5520   35.6390    7.1560 O   0  0  0  0  0  0  0  0  0  0  0  0
   -8.7620   37.3660    5.6550 C   0  0  0  0  0  0  0  0  0  0  0  0
   -6.4660   38.1400    5.8400 C   0  0  0  0  0  0  0  0  0  0  0  0
  -10.0100   37.3810    5.0940 O   0  0  0  0  0  0  0  0  0  0  0  0
   -5.3590   39.0410    5.3690 C   0  0  0  0  0  0  0  0  0  0  0  0
   -9.8540   34.6510    6.1630 C   0  0  0  0  0  0  0  0  0  0  0  0
   -7.7220   38.1920    5.2300 C   0  0  0  0  0  0  0  0  0  0  0  0
   -5.4310   40.3530    6.0080 N   0  0  0  0  0  0  0  0  0  0  0  0
  -10.3380   38.5220    4.3060 C   0  0  0  0  0  0  0  0  0  0  0  0
  2  1  1  1
  2  3  1  0
  2  4  1  0
  3  5  1  0
  4  6  1  0
  3  7  1  0
  5  8  1  0
  6  9  1  0
  7  9  1  0
  8 10  1  0
 10 11  1  0
 11 12  1  0
 12 13  1  0
 13 14  2  0
 13 15  1  0
 14 16  1  0
 14 17  1  0
 15 18  2  0
 17 19  1  0
 18 20  1  0
 16 21  1  0
 17 22  2  0
 18 22  1  0
 20 23  1  0
 19 24  1  0
M  END
