x0933_0_A-x0864_0_A
     RDKit          3D

 22 23  0  0  0  0  0  0  0  0999 V2000
   -6.2120   14.5450    1.8710 N   0  0  0  0  0  0  0  0  0  0  0  0
   -5.1190   15.0000    1.0710 C   0  0  1  0  0  0  0  0  0  0  0  0
   -3.9190   14.4950    1.6250 N   0  0  0  0  0  0  0  0  0  0  0  0
   -5.3920   14.5420   -0.2500 N   0  0  0  0  0  0  0  0  0  0  0  0
   -4.3270   14.9700   -1.1380 C   0  0  0  0  0  0  0  0  0  0  0  0
   -2.7410   14.7710    0.8340 C   0  0  0  0  0  0  0  0  0  0  0  0
   -2.9860   14.4040   -0.6390 C   0  0  2  0  0  0  0  0  0  0  0  0
   -1.8450   14.8200   -1.5670 C   0  0  0  0  0  0  0  0  0  0  0  0
   -1.0550   13.7570   -2.2860 C   0  0  0  0  0  0  0  0  0  0  0  0
    0.2990   13.5660   -1.6140 C   0  0  0  0  0  0  0  0  0  0  0  0
    0.4320   12.1420   -1.5950 N   0  0  0  0  0  0  0  0  0  0  0  0
    0.5840   11.6120   -2.7410 C   0  0  0  0  0  0  0  0  0  0  0  0
    0.6880   12.2560   -4.1260 C   0  0  0  0  0  0  0  0  0  0  0  0
    0.6530   10.2660   -2.6920 O   0  0  0  0  0  0  0  0  0  0  0  0
   -0.1410   11.6250   -5.1540 N   0  0  0  0  0  0  0  0  0  0  0  0
   -1.3660   11.0800   -4.8120 C   0  0  0  0  0  0  0  0  0  0  0  0
    0.4610   11.3530   -6.3780 C   0  0  0  0  0  0  0  0  0  0  0  0
    1.4220   11.9620   -6.8240 O   0  0  0  0  0  0  0  0  0  0  0  0
   -1.9220   10.1240   -5.5630 C   0  0  0  0  0  0  0  0  0  0  0  0
   -0.1080   10.2270   -7.1520 C   0  0  0  0  0  0  0  0  0  0  0  0
   -1.2440    9.6490   -6.7470 C   0  0  0  0  0  0  0  0  0  0  0  0
   -2.0070    8.2190   -7.6670 Br  0  0  0  0  0  0  0  0  0  0  0  0
  2  1  1  1
  2  3  1  0
  2  4  1  0
  4  5  1  0
  3  6  1  0
  5  7  1  0
  6  7  1  0
  7  8  1  6
  8  9  1  0
  9 10  1  0
 10 11  1  0
 11 12  2  3
 12 13  1  0
 12 14  1  0
 13 15  1  0
 15 16  1  0
 15 17  1  0
 17 18  2  0
 16 19  2  0
 17 20  1  0
 19 21  1  0
 20 21  2  0
 21 22  1  0
M  END
