x0933_4_B-x0301_0_B
     RDKit          3D

 20 21  0  0  0  0  0  0  0  0999 V2000
   17.4130   32.8060    8.3510 N   0  0  0  0  0  0  0  0  0  0  0  0
   17.4140   31.4470    7.9280 C   0  0  2  0  0  0  0  0  0  0  0  0
   16.1850   31.2760    7.2220 N   0  0  0  0  0  0  0  0  0  0  0  0
   17.3690   30.7070    9.1580 N   0  0  0  0  0  0  0  0  0  0  0  0
   16.7710   29.3690    8.9940 C   0  0  0  0  0  0  0  0  0  0  0  0
   16.0010   29.8980    6.7430 C   0  0  0  0  0  0  0  0  0  0  0  0
   16.8520   28.9060    7.5420 C   0  0  1  0  0  0  0  0  0  0  0  0
   18.3170   28.7570    7.0420 C   0  0  0  0  0  0  0  0  0  0  0  0
   18.5460   28.7280    5.5840 N   0  0  0  0  0  0  0  0  0  0  0  0
   19.3610   27.7770    4.9510 C   0  0  0  0  0  0  0  0  0  0  0  0
   18.2620   29.9070    4.9030 C   0  0  0  0  0  0  0  0  0  0  0  0
   19.5900   27.7500    3.7400 O   0  0  0  0  0  0  0  0  0  0  0  0
   20.0170   26.6990    5.8300 C   0  0  0  0  0  0  0  0  0  0  0  0
   18.6250   30.1270    3.5880 N   0  0  0  0  0  0  0  0  0  0  0  0
   17.6190   30.9470    5.4170 N   0  0  0  0  0  0  0  0  0  0  0  0
   21.4280   27.1670    6.1960 C   0  0  0  0  0  0  0  0  0  0  0  0
   20.0830   25.3800    5.0760 C   0  0  0  0  0  0  0  0  0  0  0  0
   17.5980   31.7830    4.3950 N   0  0  0  0  0  0  0  0  0  0  0  0
   18.1880   31.3420    3.2720 N   0  0  0  0  0  0  0  0  0  0  0  0
   16.9760   33.0650    4.5160 C   0  0  0  0  0  0  0  0  0  0  0  0
  2  1  1  1
  2  3  1  0
  2  4  1  0
  4  5  1  0
  3  6  1  0
  5  7  1  0
  6  7  1  0
  7  8  1  6
  8  9  1  0
  9 10  1  0
  9 11  1  0
 10 12  2  0
 10 13  1  0
 11 14  1  0
 11 15  2  0
 13 16  1  0
 13 17  1  0
 15 18  1  0
 14 19  2  0
 18 19  1  0
 18 20  1  0
M  END
