x0933_3_B-x1092_0_B
     RDKit          3D

 28 32  0  0  0  0  0  0  0  0999 V2000
   -0.1070   33.6870   10.7540 N   0  0  0  0  0  0  0  0  0  0  0  0
    0.1540   34.9050   10.0690 C   0  0  2  0  0  0  0  0  0  0  0  0
   -1.1340   35.4780    9.7200 N   0  0  0  0  0  0  0  0  0  0  0  0
    0.8150   34.4480    8.8720 N   0  0  0  0  0  0  0  0  0  0  0  0
   -2.3130   35.4310   10.6830 C   0  0  0  0  0  0  0  0  0  0  0  0
    1.0560   35.4800    7.8720 C   0  0  0  0  0  0  0  0  0  0  0  0
   -1.0250   36.6180    8.7990 C   0  0  0  0  0  0  0  0  0  0  0  0
   -3.7510   35.8970   10.1930 C   0  0  0  0  0  0  0  0  0  0  0  0
   -0.1990   36.2970    7.5420 C   0  0  0  0  0  0  0  0  0  0  0  0
   -5.0020   34.9690   10.5180 C   0  0  0  0  0  0  0  0  0  0  0  0
   -6.4160   35.3070    9.8320 C   0  0  2  0  0  0  0  0  0  0  0  0
   -7.5640   35.5760   10.8100 C   0  0  1  0  0  0  0  0  0  0  0  0
   -6.8570   34.4400    8.6010 C   0  0  0  0  0  0  0  0  0  0  0  0
   -6.3700   36.7470    9.3700 C   0  0  1  0  0  0  0  0  0  0  0  0
   -7.9500   34.4690   11.6270 O   0  0  0  0  0  0  0  0  0  0  0  0
   -7.4970   35.3820    7.5860 C   0  0  0  0  0  0  0  0  0  0  0  0
   -6.0270   37.4260   10.6200 N   0  0  0  0  0  0  0  0  0  0  0  0
   -6.9480   36.7470   11.5920 C   0  0  0  0  0  0  0  0  0  0  0  0
   -5.6740   36.9130    8.0060 C   0  0  0  0  0  0  0  0  0  0  0  0
   -8.6530   35.3030    6.8400 N   0  0  0  0  0  0  0  0  0  0  0  0
   -6.9050   36.5790    7.2790 C   0  0  0  0  0  0  0  0  0  0  0  0
   -9.6340   34.2440    6.8220 C   0  0  0  0  0  0  0  0  0  0  0  0
   -7.6630   37.2540    6.3120 C   0  0  0  0  0  0  0  0  0  0  0  0
   -8.7570   36.4390    6.0650 C   0  0  0  0  0  0  0  0  0  0  0  0
   -7.5390   38.4730    5.6300 C   0  0  0  0  0  0  0  0  0  0  0  0
   -9.7350   36.8060    5.1710 C   0  0  0  0  0  0  0  0  0  0  0  0
   -8.5240   38.8430    4.7140 C   0  0  0  0  0  0  0  0  0  0  0  0
   -9.6170   38.0170    4.4860 C   0  0  0  0  0  0  0  0  0  0  0  0
  2  1  1  1
  2  3  1  0
  2  4  1  0
  3  5  1  0
  4  6  1  0
  3  7  1  0
  5  8  1  0
  6  9  1  0
  7  9  1  0
  8 10  1  0
 11 10  1  1
 11 12  1  0
 11 13  1  0
 11 14  1  0
 12 15  1  1
 13 16  1  0
 14 17  1  0
 12 18  1  0
 17 18  1  0
 14 19  1  6
 16 20  1  0
 16 21  2  0
 19 21  1  0
 20 22  1  0
 21 23  1  0
 20 24  1  0
 23 24  2  0
 23 25  1  0
 24 26  1  0
 25 27  2  0
 26 28  2  0
 27 28  1  0
M  END
