x0933_0_A_α-x0900_0_A_α
     RDKit          3D

  8  8  0  0  0  0  0  0  0  0999 V2000
   -6.2830   14.5550    1.9620 N   0  0  0  0  0  0  0  0  0  0  0  0
   -5.2220   14.2360    1.0420 C   0  0  2  0  0  0  0  0  0  0  0  0
   -4.0570   14.8270    1.6600 N   0  0  0  0  0  0  0  0  0  0  0  0
   -5.5830   14.8160   -0.3490 C   0  0  0  0  0  0  0  0  0  0  0  0
   -6.7620   15.0020   -0.6740 O   0  0  0  0  0  0  0  0  0  0  0  0
   -4.4460   15.1300   -1.3040 C   0  0  0  0  0  0  0  0  0  0  0  0
   -3.1150   15.4440    0.7670 C   0  0  0  0  0  0  0  0  0  0  0  0
   -3.1380   14.8040   -0.6140 C   0  0  0  0  0  0  0  0  0  0  0  0
  2  1  1  1
  2  3  1  0
  2  4  1  0
  4  5  2  0
  4  6  1  0
  3  7  1  0
  6  8  1  0
  7  8  1  0
M  END
