x0933_0_A_α-x0895_0_A_α
     RDKit          3D

  8  8  0  0  0  0  0  0  0  0999 V2000
   -6.1780   14.6130    1.7590 N   0  0  0  0  0  0  0  0  0  0  0  0
   -5.0900   14.3590    0.8930 C   0  0  2  0  0  0  0  0  0  0  0  0
   -4.0110   14.9630    1.5470 N   0  0  0  0  0  0  0  0  0  0  0  0
   -5.3460   15.0050   -0.3470 N   0  0  0  0  0  0  0  0  0  0  0  0
   -4.1200   15.1980   -1.1310 C   0  0  0  0  0  0  0  0  0  0  0  0
   -2.7970   14.7750    0.9810 C   0  0  0  0  0  0  0  0  0  0  0  0
   -1.7470   14.7470    1.6410 O   0  0  0  0  0  0  0  0  0  0  0  0
   -2.8650   14.5750   -0.5130 C   0  0  0  0  0  0  0  0  0  0  0  0
  2  1  1  1
  2  3  1  0
  2  4  1  0
  4  5  1  0
  3  6  1  0
  6  7  2  0
  5  8  1  0
  6  8  1  0
M  END
