x0933_0_A-x1018_0_A
     RDKit          3D

 11 12  0  0  0  0  0  0  0  0999 V2000
   -6.2370   14.2440    2.0880 N   0  0  0  0  0  0  0  0  0  0  0  0
   -5.2480   14.9410    1.2850 C   0  0  1  0  0  0  0  0  0  0  0  0
   -3.9420   14.3550    1.6240 N   0  0  0  0  0  0  0  0  0  0  0  0
   -5.5880   15.2120   -0.1070 N   0  0  0  0  0  0  0  0  0  0  0  0
   -7.2120   14.7370   -0.4790 Cl  0  0  0  0  0  0  0  0  0  0  0  0
   -4.6140   15.0080   -1.0210 C   0  0  0  0  0  0  0  0  0  0  0  0
   -2.9120   15.0360    0.8200 C   0  0  0  0  0  0  0  0  0  0  0  0
   -3.3200   14.9230   -0.5890 C   0  0  0  0  0  0  0  0  0  0  0  0
   -4.6990   14.8640   -2.3700 N   0  0  0  0  0  0  0  0  0  0  0  0
   -2.5700   14.7210   -1.7100 N   0  0  0  0  0  0  0  0  0  0  0  0
   -3.4540   14.6940   -2.7630 C   0  0  0  0  0  0  0  0  0  0  0  0
  2  1  1  6
  2  3  1  0
  2  4  1  0
  4  5  1  0
  4  6  1  0
  3  7  1  0
  6  8  2  0
  7  8  1  0
  6  9  1  0
  8 10  1  0
  9 11  2  0
 10 11  1  0
M  END
