x0933_1_A-x0905_0_B
     RDKit          3D

 17 18  0  0  0  0  0  0  0  0999 V2000
    7.4750   22.6610   20.1220 N   0  0  0  0  0  0  0  0  0  0  0  0
    8.3700   23.2500   19.1840 C   0  0  2  0  0  0  0  0  0  0  0  0
    9.3190   23.9890   19.8870 N   0  0  0  0  0  0  0  0  0  0  0  0
    7.6780   24.2090   18.4110 N   0  0  0  0  0  0  0  0  0  0  0  0
    8.3970   24.4410   17.1900 C   0  0  0  0  0  0  0  0  0  0  0  0
   10.0060   24.8200   18.8980 C   0  0  0  0  0  0  0  0  0  0  0  0
    9.8640   24.1720   17.5150 C   0  0  1  0  0  0  0  0  0  0  0  0
   10.3120   22.6980   17.7110 C   0  0  0  0  0  0  0  0  0  0  0  0
   11.4290   22.0890   16.8480 C   0  0  0  0  0  0  0  0  0  0  0  0
   11.8270   22.8330   15.5720 C   0  0  0  0  0  0  0  0  0  0  0  0
   12.3840   21.9700   14.4800 C   0  0  0  0  0  0  0  0  0  0  0  0
   12.0140   20.6340   14.2850 C   0  0  0  0  0  0  0  0  0  0  0  0
   13.3210   22.5020   13.6040 C   0  0  0  0  0  0  0  0  0  0  0  0
   12.5140   19.8440   13.3050 N   0  0  0  0  0  0  0  0  0  0  0  0
   13.8490   21.7160   12.5950 C   0  0  0  0  0  0  0  0  0  0  0  0
   13.4180   20.4090   12.4880 C   0  0  0  0  0  0  0  0  0  0  0  0
   13.9250   19.6150   11.5040 O   0  0  0  0  0  0  0  0  0  0  0  0
  2  1  1  1
  2  3  1  0
  2  4  1  0
  4  5  1  0
  3  6  1  0
  5  7  1  0
  6  7  1  0
  7  8  1  1
  8  9  1  0
  9 10  1  0
 10 11  1  0
 11 12  2  0
 11 13  1  0
 12 14  1  0
 13 15  2  0
 14 16  2  0
 15 16  1  0
 16 17  1  0
M  END
