x0933_2_A_α-x0173_0_B_β
     RDKit          3D

 23 24  0  0  0  0  0  0  0  0999 V2000
   20.9400   11.7270   -5.4030 N   0  0  0  0  0  0  0  0  0  0  0  0
   20.4550   12.6190   -4.4210 C   0  0  1  0  0  0  0  0  0  0  0  0
   20.3560   11.7500   -3.2780 N   0  0  0  0  0  0  0  0  0  0  0  0
   21.4370   13.6930   -4.3030 N   0  0  0  0  0  0  0  0  0  0  0  0
   21.1100   14.7690   -5.2670 C   0  0  0  0  0  0  0  0  0  0  0  0
   21.7130   14.2710   -2.9590 C   0  0  0  0  0  0  0  0  0  0  0  0
   21.3910   11.9120   -2.2650 C   0  0  0  0  0  0  0  0  0  0  0  0
   19.9130   14.4370   -6.1780 C   0  0  0  0  0  0  0  0  0  0  0  0
   21.5050   13.3410   -1.7780 C   0  0  0  0  0  0  0  0  0  0  0  0
   20.1150   14.7290   -7.6650 C   0  0  0  0  0  0  0  0  0  0  0  0
   18.7820   14.7050   -8.4100 C   0  0  0  0  0  0  0  0  0  0  0  0
   18.6400   15.8830   -9.3810 C   0  0  0  0  0  0  0  0  0  0  0  0
   17.2990   16.5940   -9.2240 C   0  0  0  0  0  0  0  0  0  0  0  0
   17.1970   17.8490   -9.9140 C   0  0  0  0  0  0  0  0  0  0  0  0
   17.0300   18.6240  -10.7260 C   0  0  0  0  0  0  0  0  0  0  0  0
   16.7490   18.9590  -12.0100 C   0  0  0  0  0  0  0  0  0  0  0  0
   17.5320   18.2030  -12.8500 C   0  0  0  0  0  0  0  0  0  0  0  0
   15.8080   19.8660  -12.4550 C   0  0  0  0  0  0  0  0  0  0  0  0
   17.3810   18.3110  -14.1940 C   0  0  0  0  0  0  0  0  0  0  0  0
   15.6500   19.9770  -13.8360 C   0  0  0  0  0  0  0  0  0  0  0  0
   16.4350   19.1850  -14.7020 C   0  0  0  0  0  0  0  0  0  0  0  0
   16.2820   19.2350  -16.1830 C   0  0  0  0  0  0  0  0  0  0  0  0
   15.4080   18.1420  -16.6030 N   0  0  0  0  0  0  0  0  0  0  0  0
  2  1  1  6
  2  3  1  0
  2  4  1  0
  4  5  1  0
  4  6  1  0
  3  7  1  0
  5  8  1  0
  6  9  1  0
  7  9  1  0
  8 10  1  0
 10 11  1  0
 11 12  1  0
 12 13  1  0
 13 14  1  0
 14 15  3  0
 15 16  1  0
 16 17  2  0
 16 18  1  0
 17 19  1  0
 18 20  2  0
 19 21  2  0
 20 21  1  0
 21 22  1  0
 22 23  1  0
M  END
