x0933_0_A-x1015_0_A
     RDKit          3D

 24 26  0  0  0  0  0  0  0  0999 V2000
   -6.0910   14.8820    2.0600 N   0  0  0  0  0  0  0  0  0  0  0  0
   -5.2810   14.4220    0.9990 C   0  0  2  0  0  0  0  0  0  0  0  0
   -3.9770   15.0090    1.1920 N   0  0  0  0  0  0  0  0  0  0  0  0
   -5.9570   14.8400   -0.1750 N   0  0  0  0  0  0  0  0  0  0  0  0
   -5.1730   14.6240   -1.3560 C   0  0  0  0  0  0  0  0  0  0  0  0
   -3.0970   14.8070    0.0370 C   0  0  0  0  0  0  0  0  0  0  0  0
   -3.8170   15.2990   -1.2390 C   0  0  1  0  0  0  0  0  0  0  0  0
   -3.1730   15.1020   -2.6210 C   0  0  0  0  0  0  0  0  0  0  0  0
   -1.7780   14.5210   -2.6200 C   0  0  0  0  0  0  0  0  0  0  0  0
   -1.1860   14.3620   -4.0230 C   0  0  0  0  0  0  0  0  0  0  0  0
    0.1530   13.6460   -3.9660 C   0  0  2  0  0  0  0  0  0  0  0  0
    0.0050   12.1920   -3.9390 N   0  0  0  0  0  0  0  0  0  0  0  0
    0.7100   13.8790   -2.5680 C   0  0  0  0  0  0  0  0  0  0  0  0
    1.0760   14.9460   -2.1060 O   0  0  0  0  0  0  0  0  0  0  0  0
    0.3360   11.6720   -2.6800 C   0  0  0  0  0  0  0  0  0  0  0  0
    0.7270   12.7090   -1.8950 N   0  0  0  0  0  0  0  0  0  0  0  0
   -0.4200   11.4230   -5.0510 C   0  0  0  0  0  0  0  0  0  0  0  0
    0.3010   10.5050   -2.2890 O   0  0  0  0  0  0  0  0  0  0  0  0
    0.1130   11.6160   -6.3330 C   0  0  0  0  0  0  0  0  0  0  0  0
   -1.4010   10.4280   -4.8940 C   0  0  0  0  0  0  0  0  0  0  0  0
   -0.3150   10.8450   -7.4190 C   0  0  0  0  0  0  0  0  0  0  0  0
   -1.8320    9.6550   -5.9750 C   0  0  0  0  0  0  0  0  0  0  0  0
   -1.2870    9.8660   -7.2350 C   0  0  0  0  0  0  0  0  0  0  0  0
   -1.8160    8.9130   -8.5600 Cl  0  0  0  0  0  0  0  0  0  0  0  0
  2  1  1  1
  2  3  1  0
  2  4  1  0
  4  5  1  0
  3  6  1  0
  5  7  1  0
  6  7  1  0
  7  8  1  6
  8  9  1  0
  9 10  1  0
 11 10  1  1
 11 12  1  0
 11 13  1  0
 13 14  2  0
 12 15  1  0
 13 16  1  0
 15 16  1  0
 12 17  1  0
 15 18  2  0
 17 19  2  0
 17 20  1  0
 19 21  1  0
 20 22  2  0
 21 23  2  0
 22 23  1  0
 23 24  1  0
M  END
