x0933_0_A-x0711_0_A
     RDKit          3D

 14 14  0  0  0  0  0  0  0  0999 V2000
   -5.7290   14.8330    2.0340 N   0  0  0  0  0  0  0  0  0  0  0  0
   -4.7160   15.2780    1.1340 C   0  0  1  0  0  0  0  0  0  0  0  0
   -3.5950   14.4480    1.4020 N   0  0  0  0  0  0  0  0  0  0  0  0
   -5.2270   15.0250   -0.1600 N   0  0  0  0  0  0  0  0  0  0  0  0
   -6.3990   14.2910   -0.2030 C   0  0  0  0  0  0  0  0  0  0  0  0
   -4.3290   15.0980   -1.3270 C   0  0  0  0  0  0  0  0  0  0  0  0
   -2.5320   14.6480    0.4100 C   0  0  0  0  0  0  0  0  0  0  0  0
   -7.5110   14.7180   -0.5000 O   0  0  0  0  0  0  0  0  0  0  0  0
   -2.9640   14.4090   -1.0750 C   0  0  2  0  0  0  0  0  0  0  0  0
   -1.9540   14.9670   -2.0520 N   0  0  0  0  0  0  0  0  0  0  0  0
   -0.7420   14.0360   -2.7910 S   0  0  0  0  0  0  0  0  0  0  0  0
   -1.6940   12.9300   -3.8110 C   0  0  0  0  0  0  0  0  0  0  0  0
   -0.0350   14.9310   -3.6800 O   0  0  0  0  0  0  0  0  0  0  0  0
   -0.0500   13.2730   -1.7810 O   0  0  0  0  0  0  0  0  0  0  0  0
  2  1  1  1
  2  3  1  0
  2  4  1  0
  4  5  1  0
  4  6  1  0
  3  7  1  0
  5  8  2  0
  6  9  1  0
  7  9  1  0
  9 10  1  6
 11 10  1  0
 11 12  1  0
 11 13  2  0
 11 14  2  0
M  END
