x0933_0_A-x0926_0_A
     RDKit          3D

  8  8  0  0  0  0  0  0  0  0999 V2000
   -6.2200   14.4910    2.0250 N   0  0  0  0  0  0  0  0  0  0  0  0
   -5.1710   14.1760    1.0850 C   0  0  2  0  0  0  0  0  0  0  0  0
   -3.9780   14.7350    1.6780 N   0  0  0  0  0  0  0  0  0  0  0  0
   -5.5400   14.7920   -0.2880 C   0  0  0  0  0  0  0  0  0  0  0  0
   -6.7180   15.0140   -0.5800 O   0  0  0  0  0  0  0  0  0  0  0  0
   -4.4290   15.1020   -1.2720 C   0  0  0  0  0  0  0  0  0  0  0  0
   -3.0790   15.4120    0.7790 C   0  0  0  0  0  0  0  0  0  0  0  0
   -3.1000   14.7970   -0.6130 C   0  0  0  0  0  0  0  0  0  0  0  0
  2  1  1  1
  2  3  1  0
  2  4  1  0
  4  5  2  0
  4  6  1  0
  3  7  1  0
  6  8  1  0
  7  8  1  0
M  END
