x0933_1_A-x0598_0_A
     RDKit          3D

 13 13  0  0  0  0  0  0  0  0999 V2000
    3.4400   24.0870   17.8710 N   0  0  0  0  0  0  0  0  0  0  0  0
    4.6750   24.6260   17.4470 C   0  0  2  0  0  0  0  0  0  0  0  0
    5.2320   25.4750   18.4270 N   0  0  0  0  0  0  0  0  0  0  0  0
    4.6410   25.2050   16.2110 N   0  0  0  0  0  0  0  0  0  0  0  0
    5.9950   25.2690   15.7100 C   0  0  0  0  0  0  0  0  0  0  0  0
    6.5600   25.9870   18.1130 C   0  0  0  0  0  0  0  0  0  0  0  0
    7.1240   25.6160   16.7380 C   0  0  1  0  0  0  0  0  0  0  0  0
    8.3820   24.7130   16.8990 C   0  0  0  0  0  0  0  0  0  0  0  0
    9.5560   25.1270   16.0610 N   0  0  0  0  0  0  0  0  0  0  0  0
   10.9270   24.0970   15.8740 S   0  0  0  0  0  0  0  0  0  0  0  0
   10.6540   22.8500   17.1130 C   0  0  0  0  0  0  0  0  0  0  0  0
   12.0800   24.8370   16.2470 O   0  0  0  0  0  0  0  0  0  0  0  0
   10.9160   23.4990   14.5580 O   0  0  0  0  0  0  0  0  0  0  0  0
  2  1  1  1
  2  3  1  0
  2  4  1  0
  4  5  1  0
  3  6  1  0
  5  7  1  0
  6  7  1  0
  7  8  1  1
  8  9  1  0
 10  9  1  0
 10 11  1  0
 10 12  2  0
 10 13  2  0
M  END
