x0933_0_A-x0722_0_A
     RDKit          3D

 12 12  0  0  0  0  0  0  0  0999 V2000
   -5.1860   13.7210    1.5960 N   0  0  0  0  0  0  0  0  0  0  0  0
   -4.8670   15.0750    1.2460 C   0  0  1  0  0  0  0  0  0  0  0  0
   -3.4620   15.2680    1.4910 N   0  0  0  0  0  0  0  0  0  0  0  0
   -5.2140   15.2620   -0.1330 N   0  0  0  0  0  0  0  0  0  0  0  0
   -4.1090   15.2620   -1.0800 C   0  0  0  0  0  0  0  0  0  0  0  0
   -2.5960   14.3450    0.7680 C   0  0  2  0  0  0  0  0  0  0  0  0
   -6.3340   14.6200   -0.6170 C   0  0  0  0  0  0  0  0  0  0  0  0
   -1.1030   14.5770    1.1020 C   0  0  0  0  0  0  0  0  0  0  0  0
   -2.9430   14.3160   -0.7280 C   0  0  2  0  0  0  0  0  0  0  0  0
   -7.3040   15.1690   -1.1280 O   0  0  0  0  0  0  0  0  0  0  0  0
   -6.3170   13.2740   -0.5020 N   0  0  0  0  0  0  0  0  0  0  0  0
   -1.7580   14.5520   -1.6740 C   0  0  0  0  0  0  0  0  0  0  0  0
  2  1  1  6
  2  3  1  0
  2  4  1  0
  4  5  1  0
  3  6  1  0
  4  7  1  0
  6  8  1  6
  5  9  1  0
  6  9  1  0
  7 10  2  0
  7 11  1  0
  9 12  1  6
M  END
