x0933_0_A-x0910_0_A
     RDKit          3D

 13 14  0  0  0  0  0  0  0  0999 V2000
   -6.7050   14.4580    1.8980 N   0  0  0  0  0  0  0  0  0  0  0  0
   -5.6350   14.3910    0.9830 C   0  0  2  0  0  0  0  0  0  0  0  0
   -4.7320   15.2850    1.5890 N   0  0  0  0  0  0  0  0  0  0  0  0
   -6.0980   14.8600   -0.2860 N   0  0  0  0  0  0  0  0  0  0  0  0
   -5.0000   15.0910   -1.2280 C   0  0  0  0  0  0  0  0  0  0  0  0
   -3.5560   15.4280    0.7500 C   0  0  0  0  0  0  0  0  0  0  0  0
   -3.7160   14.6180   -0.5610 C   0  0  2  0  0  0  0  0  0  0  0  0
   -2.5350   14.5730   -1.3890 N   0  0  0  0  0  0  0  0  0  0  0  0
   -1.4400   14.7130   -0.6690 C   0  0  0  0  0  0  0  0  0  0  0  0
   -1.4950   14.5120    0.6830 N   0  0  0  0  0  0  0  0  0  0  0  0
   -0.2400   15.0330   -1.0070 N   0  0  0  0  0  0  0  0  0  0  0  0
   -0.3180   14.7120    1.2570 N   0  0  0  0  0  0  0  0  0  0  0  0
    0.4030   15.0310    0.1810 C   0  0  0  0  0  0  0  0  0  0  0  0
  2  1  1  1
  2  3  1  0
  2  4  1  0
  4  5  1  0
  3  6  1  0
  5  7  1  0
  6  7  1  0
  7  8  1  6
  8  9  1  0
  9 10  1  0
  9 11  2  0
 10 12  1  0
 11 13  1  0
 12 13  2  0
M  END
