x0933_0_A_α-x1015_0_A_α
     RDKit          3D

 24 26  0  0  0  0  0  0  0  0999 V2000
   -6.0900   14.8900    2.0700 N   0  0  0  0  0  0  0  0  0  0  0  0
   -5.2830   14.4260    1.0070 C   0  0  2  0  0  0  0  0  0  0  0  0
   -3.9770   15.0130    1.1930 N   0  0  0  0  0  0  0  0  0  0  0  0
   -5.9630   14.8310   -0.1680 N   0  0  0  0  0  0  0  0  0  0  0  0
   -5.1800   14.6230   -1.3530 C   0  0  0  0  0  0  0  0  0  0  0  0
   -3.1030   14.8060    0.0360 C   0  0  0  0  0  0  0  0  0  0  0  0
   -3.8240   15.2970   -1.2370 C   0  0  1  0  0  0  0  0  0  0  0  0
   -3.1830   15.0930   -2.6200 C   0  0  0  0  0  0  0  0  0  0  0  0
   -1.7830   14.5210   -2.6180 C   0  0  0  0  0  0  0  0  0  0  0  0
   -1.1910   14.3620   -4.0220 C   0  0  0  0  0  0  0  0  0  0  0  0
    0.1510   13.6470   -3.9670 C   0  0  2  0  0  0  0  0  0  0  0  0
    0.0030   12.1910   -3.9390 N   0  0  0  0  0  0  0  0  0  0  0  0
    0.7100   13.8810   -2.5720 C   0  0  0  0  0  0  0  0  0  0  0  0
    1.0820   14.9500   -2.1140 O   0  0  0  0  0  0  0  0  0  0  0  0
    0.3340   11.6750   -2.6780 C   0  0  0  0  0  0  0  0  0  0  0  0
    0.7280   12.7130   -1.8930 N   0  0  0  0  0  0  0  0  0  0  0  0
   -0.4220   11.4220   -5.0500 C   0  0  0  0  0  0  0  0  0  0  0  0
    0.3020   10.5080   -2.2850 O   0  0  0  0  0  0  0  0  0  0  0  0
    0.1130   11.6170   -6.3320 C   0  0  0  0  0  0  0  0  0  0  0  0
   -1.4020   10.4280   -4.8940 C   0  0  0  0  0  0  0  0  0  0  0  0
   -0.3130   10.8450   -7.4170 C   0  0  0  0  0  0  0  0  0  0  0  0
   -1.8310    9.6540   -5.9750 C   0  0  0  0  0  0  0  0  0  0  0  0
   -1.2840    9.8660   -7.2340 C   0  0  0  0  0  0  0  0  0  0  0  0
   -1.8120    8.9150   -8.5630 Cl  0  0  0  0  0  0  0  0  0  0  0  0
  2  1  1  1
  2  3  1  0
  2  4  1  0
  4  5  1  0
  3  6  1  0
  5  7  1  0
  6  7  1  0
  7  8  1  6
  8  9  1  0
  9 10  1  0
 11 10  1  1
 11 12  1  0
 11 13  1  0
 13 14  2  0
 12 15  1  0
 13 16  1  0
 15 16  1  0
 12 17  1  0
 15 18  2  0
 17 19  2  0
 17 20  1  0
 19 21  1  0
 20 22  2  0
 21 23  2  0
 22 23  1  0
 23 24  1  0
M  END
