x0933_4_B_α-x0729_0_A_α
     RDKit          3D

 21 22  0  0  0  0  0  0  0  0999 V2000
   17.4560   33.2390    7.5320 N   0  0  0  0  0  0  0  0  0  0  0  0
   17.5690   31.8420    7.3260 C   0  0  2  0  0  0  0  0  0  0  0  0
   16.5130   31.5170    6.4400 N   0  0  0  0  0  0  0  0  0  0  0  0
   17.3020   31.2950    8.5920 N   0  0  0  0  0  0  0  0  0  0  0  0
   17.5170   29.8480    8.5410 C   0  0  2  0  0  0  0  0  0  0  0  0
   15.8790   30.2050    6.6420 C   0  0  0  0  0  0  0  0  0  0  0  0
   19.0240   29.4870    8.4340 C   0  0  0  0  0  0  0  0  0  0  0  0
   16.7450   29.1930    7.3780 C   0  0  0  0  0  0  0  0  0  0  0  0
   19.3840   28.3300    9.2690 N   0  0  0  0  0  0  0  0  0  0  0  0
   19.3070   26.9390    8.6340 S   0  0  2  0  0  0  0  0  0  0  0  0
   18.1780   26.4150    7.8990 O   0  0  0  0  0  0  0  0  0  0  0  0
   19.6090   25.7540    9.9110 C   0  0  0  0  0  0  0  0  0  0  0  0
   20.6700   26.8710    7.5440 N   0  0  0  0  0  0  0  0  0  0  0  0
   21.7950   27.7900    7.8500 C   0  0  0  0  0  0  0  0  0  0  0  0
   20.7010   26.5430    6.0990 C   0  0  1  0  0  0  0  0  0  0  0  0
   19.7970   25.4220    5.5770 C   0  0  0  0  0  0  0  0  0  0  0  0
   21.9750   29.0230    6.9480 C   0  0  0  0  0  0  0  0  0  0  0  0
   20.5000   27.8530    5.2840 C   0  0  2  0  0  0  0  0  0  0  0  0
   20.2800   27.5700    3.8480 C   0  0  0  0  0  0  0  0  0  0  0  0
   21.7390   28.7340    5.4680 C   0  0  0  0  0  0  0  0  0  0  0  0
   20.1090   27.3580    2.7190 N   0  0  0  0  0  0  0  0  0  0  0  0
  2  1  1  1
  2  3  1  0
  2  4  1  0
  4  5  1  0
  3  6  1  0
  5  7  1  6
  5  8  1  0
  6  8  1  0
  7  9  1  0
  9 10  2  0
 10 11  2  0
 10 12  1  1
 10 13  1  0
 13 14  1  0
 13 15  1  0
 15 16  1  1
 14 17  1  0
 15 18  1  0
 18 19  1  6
 17 20  1  0
 18 20  1  0
 19 21  3  0
M  END
