x0933_0_A_α-x0104_0_A_α
     RDKit          3D

 17 18  0  0  0  0  0  0  0  0999 V2000
   -5.8410   15.0580    2.4460 N   0  0  0  0  0  0  0  0  0  0  0  0
   -4.9790   15.1630    1.3300 C   0  0  1  0  0  0  0  0  0  0  0  0
   -3.7410   14.5890    1.6580 N   0  0  0  0  0  0  0  0  0  0  0  0
   -5.5520   14.3710    0.3100 N   0  0  0  0  0  0  0  0  0  0  0  0
   -7.0570   14.3750    0.3900 C   0  0  0  0  0  0  0  0  0  0  0  0
   -4.9110   14.8020   -0.9470 C   0  0  0  0  0  0  0  0  0  0  0  0
   -2.8130   14.9080    0.5950 C   0  0  0  0  0  0  0  0  0  0  0  0
   -7.5950   13.8520    1.7650 C   0  0  0  0  0  0  0  0  0  0  0  0
   -3.3710   14.7410   -0.8450 C   0  0  0  0  0  0  0  0  0  0  0  0
   -8.3050   14.9010    2.6550 C   0  0  0  0  0  0  0  0  0  0  0  0
   -8.0360   14.7660    4.0220 N   0  0  0  0  0  0  0  0  0  0  0  0
   -9.0440   15.7490    2.1700 O   0  0  0  0  0  0  0  0  0  0  0  0
   -9.0130   14.9040    5.0150 C   0  0  0  0  0  0  0  0  0  0  0  0
   -8.9730   15.0970    6.3820 C   0  0  0  0  0  0  0  0  0  0  0  0
  -10.6140   14.8190    4.4330 S   0  0  0  0  0  0  0  0  0  0  0  0
  -10.2900   15.1710    6.9530 C   0  0  0  0  0  0  0  0  0  0  0  0
  -11.2750   15.0340    5.9980 C   0  0  0  0  0  0  0  0  0  0  0  0
  2  1  1  1
  2  3  1  0
  2  4  1  0
  4  5  1  0
  4  6  1  0
  3  7  1  0
  5  8  1  0
  6  9  1  0
  7  9  1  0
  8 10  1  0
 10 11  1  0
 10 12  2  0
 11 13  1  0
 13 14  2  0
 13 15  1  0
 14 16  1  0
 15 17  1  0
 16 17  2  0
M  END
