x0933_0_A_α-x0805_0_A_α
     RDKit          3D

 15 16  0  0  0  0  0  0  0  0999 V2000
   -6.2730   14.8150    2.2170 N   0  0  0  0  0  0  0  0  0  0  0  0
   -5.2520   14.2630    1.3930 C   0  0  2  0  0  0  0  0  0  0  0  0
   -3.9940   14.9620    1.3670 N   0  0  0  0  0  0  0  0  0  0  0  0
   -5.7650   14.1240    0.0670 N   0  0  0  0  0  0  0  0  0  0  0  0
   -4.0230   16.1350    0.5240 C   0  0  0  0  0  0  0  0  0  0  0  0
   -4.6900   13.9010   -0.8840 C   0  0  0  0  0  0  0  0  0  0  0  0
   -2.9120   14.1530    0.8980 C   0  0  0  0  0  0  0  0  0  0  0  0
   -2.9160   16.2170   -0.4080 O   0  0  0  0  0  0  0  0  0  0  0  0
   -3.4750   13.2640   -0.2130 C   0  0  0  0  0  0  0  0  0  0  0  0
   -2.7640   15.3540   -1.4680 C   0  0  0  0  0  0  0  0  0  0  0  0
   -3.9120   15.0940   -2.2340 C   0  0  0  0  0  0  0  0  0  0  0  0
   -1.5680   14.7300   -1.8280 C   0  0  0  0  0  0  0  0  0  0  0  0
   -1.5200   13.8610   -2.9250 C   0  0  0  0  0  0  0  0  0  0  0  0
   -3.8620   14.2220   -3.3290 C   0  0  0  0  0  0  0  0  0  0  0  0
   -2.6640   13.6040   -3.6740 C   0  0  0  0  0  0  0  0  0  0  0  0
  2  1  1  1
  2  3  1  0
  2  4  1  0
  3  5  1  0
  4  6  1  0
  3  7  1  0
  5  8  1  0
  6  9  1  0
  7  9  1  0
  8 10  1  0
 10 11  2  0
 10 12  1  0
 12 13  2  0
 11 14  1  0
 13 15  1  0
 14 15  2  0
M  END
