x0933_0_A-x0628_0_A
     RDKit          3D

 21 22  0  0  0  0  0  0  0  0999 V2000
   -5.9360   14.7900    1.6340 N   0  0  0  0  0  0  0  0  0  0  0  0
   -4.9290   15.2910    0.7540 C   0  0  1  0  0  0  0  0  0  0  0  0
   -3.7050   14.9740    1.4000 N   0  0  0  0  0  0  0  0  0  0  0  0
   -5.1810   14.5830   -0.4390 N   0  0  0  0  0  0  0  0  0  0  0  0
   -4.1120   14.7810   -1.3900 C   0  0  0  0  0  0  0  0  0  0  0  0
   -2.5610   14.5790    0.5510 C   0  0  0  0  0  0  0  0  0  0  0  0
   -2.8710   14.0610   -0.8860 C   0  0  2  0  0  0  0  0  0  0  0  0
   -1.6310   14.0930   -1.8340 C   0  0  0  0  0  0  0  0  0  0  0  0
   -1.9040   13.7670   -3.3280 C   0  0  0  0  0  0  0  0  0  0  0  0
   -2.1850   12.2730   -3.6230 C   0  0  0  0  0  0  0  0  0  0  0  0
   -1.4730   11.6370   -4.7960 C   0  0  0  0  0  0  0  0  0  0  0  0
   -1.8610   10.5080   -5.3780 N   0  0  0  0  0  0  0  0  0  0  0  0
   -0.3390   12.0720   -5.4570 N   0  0  0  0  0  0  0  0  0  0  0  0
    0.4950   13.2380   -5.2460 C   0  0  0  0  0  0  0  0  0  0  0  0
   -0.9380   10.3000   -6.3690 C   0  0  0  0  0  0  0  0  0  0  0  0
    0.0040   11.2350   -6.4520 N   0  0  0  0  0  0  0  0  0  0  0  0
   -0.9770    9.1370   -7.2760 C   0  0  0  0  0  0  0  0  0  0  0  0
    1.6120   12.9820   -4.2510 C   0  0  0  0  0  0  0  0  0  0  0  0
    1.1420   12.2480   -3.0260 C   0  0  0  0  0  0  0  0  0  0  0  0
    0.4710   11.2290   -2.9890 O   0  0  0  0  0  0  0  0  0  0  0  0
    1.5260   12.8480   -1.8910 O   0  0  0  0  0  0  0  0  0  0  0  0
  2  1  1  1
  2  3  1  0
  2  4  1  0
  4  5  1  0
  3  6  1  0
  5  7  1  0
  6  7  1  0
  7  8  1  6
  8  9  1  0
  9 10  1  0
 10 11  1  0
 11 12  2  0
 11 13  1  0
 13 14  1  0
 12 15  1  0
 13 16  1  0
 15 16  2  0
 15 17  1  0
 14 18  1  0
 18 19  1  0
 19 20  2  0
 19 21  1  0
M  END
