x0933_0_A_α-x0910_0_A_α
     RDKit          3D

 13 14  0  0  0  0  0  0  0  0999 V2000
   -6.7060   14.4570    1.9000 N   0  0  0  0  0  0  0  0  0  0  0  0
   -5.6330   14.3920    0.9880 C   0  0  2  0  0  0  0  0  0  0  0  0
   -4.7320   15.2860    1.5950 N   0  0  0  0  0  0  0  0  0  0  0  0
   -6.0960   14.8610   -0.2850 N   0  0  0  0  0  0  0  0  0  0  0  0
   -4.9970   15.0950   -1.2270 C   0  0  0  0  0  0  0  0  0  0  0  0
   -3.5540   15.4290    0.7520 C   0  0  0  0  0  0  0  0  0  0  0  0
   -3.7150   14.6210   -0.5600 C   0  0  2  0  0  0  0  0  0  0  0  0
   -2.5350   14.5770   -1.3860 N   0  0  0  0  0  0  0  0  0  0  0  0
   -1.4380   14.7160   -0.6690 C   0  0  0  0  0  0  0  0  0  0  0  0
   -1.4930   14.5150    0.6810 N   0  0  0  0  0  0  0  0  0  0  0  0
   -0.2390   15.0340   -1.0120 N   0  0  0  0  0  0  0  0  0  0  0  0
   -0.3130   14.7130    1.2540 N   0  0  0  0  0  0  0  0  0  0  0  0
    0.4060   15.0310    0.1780 C   0  0  0  0  0  0  0  0  0  0  0  0
  2  1  1  1
  2  3  1  0
  2  4  1  0
  4  5  1  0
  3  6  1  0
  5  7  1  0
  6  7  1  0
  7  8  1  6
  8  9  1  0
  9 10  1  0
  9 11  2  0
 10 12  1  0
 11 13  1  0
 12 13  2  0
M  END
