x0933_0_A-x0128_0_A
     RDKit          3D

 16 17  0  0  0  0  0  0  0  0999 V2000
   -6.3560   14.4490    2.2280 N   0  0  0  0  0  0  0  0  0  0  0  0
   -7.5030   15.0770    2.7650 C   0  0  0  0  0  0  0  0  0  0  0  0
   -8.4190   15.4180    2.0170 O   0  0  0  0  0  0  0  0  0  0  0  0
   -5.3200   14.9750    1.3570 C   0  0  0  0  0  0  0  0  0  0  0  0
   -7.4890   15.2400    4.1430 N   0  0  0  0  0  0  0  0  0  0  0  0
   -5.7030   14.6700   -0.0010 N   0  0  0  0  0  0  0  0  0  0  0  0
   -4.0740   14.3080    1.6040 N   0  0  0  0  0  0  0  0  0  0  0  0
   -4.7420   15.2280   -0.9660 C   0  0  0  0  0  0  0  0  0  0  0  0
   -3.0230   14.9450    0.8130 C   0  0  0  0  0  0  0  0  0  0  0  0
   -8.3290   16.0110    5.0200 C   0  0  0  0  0  0  0  0  0  0  0  0
   -3.3210   14.7540   -0.6690 C   0  0  0  0  0  0  0  0  0  0  0  0
   -9.0640   17.1500    4.6740 C   0  0  0  0  0  0  0  0  0  0  0  0
   -8.4370   15.6010    6.3580 C   0  0  0  0  0  0  0  0  0  0  0  0
   -9.8520   17.8600    5.5350 N   0  0  0  0  0  0  0  0  0  0  0  0
   -9.2380   16.3130    7.2610 C   0  0  0  0  0  0  0  0  0  0  0  0
   -9.9190   17.4290    6.8030 C   0  0  0  0  0  0  0  0  0  0  0  0
  1  2  1  0
  2  3  2  0
  1  4  1  0
  2  5  1  0
  4  6  1  0
  4  7  1  0
  6  8  1  0
  7  9  1  0
  5 10  1  0
  8 11  1  0
  9 11  1  0
 10 12  2  0
 10 13  1  0
 12 14  1  0
 13 15  2  0
 14 16  2  0
 15 16  1  0
M  END
