x0933_0_A-x0895_0_A
     RDKit          3D

  8  8  0  0  0  0  0  0  0  0999 V2000
   -6.1770   14.6240    1.7730 N   0  0  0  0  0  0  0  0  0  0  0  0
   -5.0980   14.3600    0.8990 C   0  0  2  0  0  0  0  0  0  0  0  0
   -4.0070   14.9390    1.5610 N   0  0  0  0  0  0  0  0  0  0  0  0
   -5.3420   15.0290   -0.3280 N   0  0  0  0  0  0  0  0  0  0  0  0
   -4.1220   15.1980   -1.1280 C   0  0  0  0  0  0  0  0  0  0  0  0
   -2.7930   14.7820    0.9850 C   0  0  0  0  0  0  0  0  0  0  0  0
   -1.7390   14.7690    1.6440 O   0  0  0  0  0  0  0  0  0  0  0  0
   -2.8630   14.5860   -0.5090 C   0  0  0  0  0  0  0  0  0  0  0  0
  2  1  1  1
  2  3  1  0
  2  4  1  0
  4  5  1  0
  3  6  1  0
  6  7  2  0
  5  8  1  0
  6  8  1  0
M  END
