x0933_0_A-x0685_1_A
     RDKit          3D

 22 23  0  0  0  0  0  0  0  0999 V2000
   -6.1100   14.7500    1.6830 N   0  0  0  0  0  0  0  0  0  0  0  0
   -5.1480   15.1740    0.7270 C   0  0  1  0  0  0  0  0  0  0  0  0
   -3.9060   15.1640    1.4130 N   0  0  0  0  0  0  0  0  0  0  0  0
   -5.2060   14.1620   -0.2370 N   0  0  0  0  0  0  0  0  0  0  0  0
   -4.4340   14.6360   -1.3520 C   0  0  0  0  0  0  0  0  0  0  0  0
   -2.7870   14.6290    0.6240 C   0  0  0  0  0  0  0  0  0  0  0  0
   -2.9690   14.6630   -0.9180 C   0  0  1  0  0  0  0  0  0  0  0  0
   -2.1530   13.5950   -1.6550 C   0  0  0  0  0  0  0  0  0  0  0  0
   -0.8540   13.1550   -0.9890 C   0  0  0  0  0  0  0  0  0  0  0  0
    0.2390   13.3910   -1.8520 O   0  0  0  0  0  0  0  0  0  0  0  0
    0.7420   12.2360   -2.8430 S   0  0  0  0  0  0  0  0  0  0  0  0
    0.1010   12.5100   -4.4980 C   0  0  0  0  0  0  0  0  0  0  0  0
    2.3310   12.3000   -3.0150 O   0  0  0  0  0  0  0  0  0  0  0  0
    0.2860   10.7570   -2.3600 O   0  0  0  0  0  0  0  0  0  0  0  0
   -1.3250   12.0090   -4.7190 C   0  0  0  0  0  0  0  0  0  0  0  0
   -1.4310   10.5510   -4.9140 N   0  0  0  0  0  0  0  0  0  0  0  0
   -1.3970   10.0250   -6.2940 C   0  0  0  0  0  0  0  0  0  0  0  0
   -0.1190    9.2630   -6.6260 C   0  0  0  0  0  0  0  0  0  0  0  0
   -1.5760   11.1510   -7.3360 C   0  0  0  0  0  0  0  0  0  0  0  0
   -0.1830    8.5340   -7.9580 C   0  0  0  0  0  0  0  0  0  0  0  0
   -1.1380   10.7630   -8.7560 C   0  0  0  0  0  0  0  0  0  0  0  0
   -1.0680    9.2510   -8.9810 C   0  0  0  0  0  0  0  0  0  0  0  0
  2  1  1  1
  2  3  1  0
  2  4  1  0
  4  5  1  0
  3  6  1  0
  5  7  1  0
  6  7  1  0
  7  8  1  6
  8  9  1  0
  9 10  1  0
 11 10  1  0
 11 12  1  0
 11 13  1  0
 11 14  1  0
 12 15  1  0
 15 16  1  0
 16 17  1  0
 17 18  1  0
 17 19  1  0
 18 20  1  0
 19 21  1  0
 20 22  1  0
 21 22  1  0
M  END
