x0933_1_A_α-x0423_0_B_α
     RDKit          3D

 26 28  0  0  0  0  0  0  0  0999 V2000
    3.6340   23.6490   18.0130 N   0  0  0  0  0  0  0  0  0  0  0  0
    4.4750   24.6990   17.5530 C   0  0  1  0  0  0  0  0  0  0  0  0
    5.3850   25.0850   18.6050 N   0  0  0  0  0  0  0  0  0  0  0  0
    5.1370   24.3080   16.3780 N   0  0  0  0  0  0  0  0  0  0  0  0
    6.2210   25.1850   16.0030 C   0  0  0  0  0  0  0  0  0  0  0  0
    6.8480   25.2330   18.3880 C   0  0  0  0  0  0  0  0  0  0  0  0
    7.3980   25.0020   16.9810 C   0  0  2  0  0  0  0  0  0  0  0  0
    8.6510   25.9360   16.8820 C   0  0  0  0  0  0  0  0  0  0  0  0
    8.4620   27.3250   16.2730 C   0  0  0  0  0  0  0  0  0  0  0  0
    9.6240   28.0360   15.5510 C   0  0  0  0  0  0  0  0  0  0  0  0
   10.6030   27.1530   14.7700 C   0  0  0  0  0  0  0  0  0  0  0  0
   11.7130   26.5100   15.6100 C   0  0  0  0  0  0  0  0  0  0  0  0
   13.1170   27.0860   15.3790 C   0  0  0  0  0  0  0  0  0  0  0  0
   14.1760   26.0870   15.4950 N   0  0  0  0  0  0  0  0  0  0  0  0
   14.3820   25.2690   14.2880 C   0  0  2  0  0  0  0  0  0  0  0  0
   13.3420   24.1470   14.0030 C   0  0  0  0  0  0  0  0  0  0  0  0
   15.8360   24.7630   14.1760 C   0  0  0  0  0  0  0  0  0  0  0  0
   14.0490   23.0140   13.4130 N   0  0  0  0  0  0  0  0  0  0  0  0
   16.0990   24.2430   12.7730 C   0  0  0  0  0  0  0  0  0  0  0  0
   14.9640   23.3220   12.3080 C   0  0  0  0  0  0  0  0  0  0  0  0
   13.4330   21.7670   13.3280 C   0  0  0  0  0  0  0  0  0  0  0  0
   12.3750   21.4240   14.1560 C   0  0  0  0  0  0  0  0  0  0  0  0
   13.8680   20.8580   12.4270 N   0  0  0  0  0  0  0  0  0  0  0  0
   13.2910   19.6150   12.3160 N   0  0  0  0  0  0  0  0  0  0  0  0
   11.7870   20.1750   14.0560 C   0  0  0  0  0  0  0  0  0  0  0  0
   12.2700   19.2980   13.1250 C   0  0  0  0  0  0  0  0  0  0  0  0
  2  1  1  1
  2  3  1  0
  2  4  1  0
  4  5  1  0
  3  6  1  0
  5  7  1  0
  6  7  1  0
  7  8  1  6
  8  9  1  0
  9 10  1  0
 10 11  1  0
 11 12  1  0
 12 13  1  0
 13 14  1  0
 15 14  1  1
 15 16  1  0
 15 17  1  0
 16 18  1  0
 17 19  1  0
 18 20  1  0
 19 20  1  0
 18 21  1  0
 21 22  2  0
 21 23  1  0
 23 24  2  0
 22 25  1  0
 24 26  1  0
 25 26  2  0
M  END
