x0933_0_A-x0574_0_A
     RDKit          3D

 13 14  0  0  0  0  0  0  0  0999 V2000
   -6.7740   14.3450    1.5690 N   0  0  0  0  0  0  0  0  0  0  0  0
   -7.7410   14.9310    0.6590 O   0  0  0  0  0  0  0  0  0  0  0  0
   -5.4850   14.3940    0.9370 C   0  0  1  0  0  0  0  0  0  0  0  0
   -5.6930   14.7800   -0.4330 N   0  0  0  0  0  0  0  0  0  0  0  0
   -4.7370   15.4140    1.6220 N   0  0  0  0  0  0  0  0  0  0  0  0
   -4.4250   14.7190   -1.1650 C   0  0  0  0  0  0  0  0  0  0  0  0
   -3.5130   15.7940    0.8990 C   0  0  0  0  0  0  0  0  0  0  0  0
   -3.2410   14.7700   -0.1900 C   0  0  2  0  0  0  0  0  0  0  0  0
   -1.5970   14.7560   -1.0160 S   0  0  0  0  0  0  0  0  0  0  0  0
   -2.9900   13.5380    0.6090 C   0  0  0  0  0  0  0  0  0  0  0  0
   -1.7840   13.8890    1.3990 N   0  0  0  0  0  0  0  0  0  0  0  0
   -0.7710   14.1300    0.4360 C   0  0  2  0  0  0  0  0  0  0  0  0
    0.0940   15.1110    0.9890 N   0  0  0  0  0  0  0  0  0  0  0  0
  1  2  1  0
  3  1  1  1
  3  4  1  0
  3  5  1  0
  4  6  1  0
  5  7  1  0
  8  6  1  6
  7  8  1  0
  8  9  1  0
  8 10  1  0
 10 11  1  0
  9 12  1  0
 11 12  1  0
 12 13  1  1
M  END
