x0933_0_A_α-x1018_0_A_α
     RDKit          3D

 11 12  0  0  0  0  0  0  0  0999 V2000
   -6.2340   14.2220    2.0780 N   0  0  0  0  0  0  0  0  0  0  0  0
   -5.2510   14.9360    1.2790 C   0  0  1  0  0  0  0  0  0  0  0  0
   -3.9450   14.3510    1.6150 N   0  0  0  0  0  0  0  0  0  0  0  0
   -5.5950   15.2110   -0.1090 N   0  0  0  0  0  0  0  0  0  0  0  0
   -7.2220   14.7470   -0.4790 Cl  0  0  0  0  0  0  0  0  0  0  0  0
   -4.6190   15.0080   -1.0280 C   0  0  0  0  0  0  0  0  0  0  0  0
   -2.9170   15.0390    0.8140 C   0  0  0  0  0  0  0  0  0  0  0  0
   -3.3250   14.9250   -0.5970 C   0  0  0  0  0  0  0  0  0  0  0  0
   -4.7030   14.8620   -2.3790 N   0  0  0  0  0  0  0  0  0  0  0  0
   -2.5750   14.7230   -1.7160 N   0  0  0  0  0  0  0  0  0  0  0  0
   -3.4540   14.6940   -2.7710 C   0  0  0  0  0  0  0  0  0  0  0  0
  2  1  1  6
  2  3  1  0
  2  4  1  0
  4  5  1  0
  4  6  1  0
  3  7  1  0
  6  8  2  0
  7  8  1  0
  6  9  1  0
  8 10  1  0
  9 11  2  0
 10 11  1  0
M  END
