x0933_0_A-x0837_0_A
     RDKit          3D

  9  9  0  0  0  0  0  0  0  0999 V2000
   -6.2050   14.2990    2.0950 N   0  0  0  0  0  0  0  0  0  0  0  0
   -5.2160   14.9740    1.2840 C   0  0  1  0  0  0  0  0  0  0  0  0
   -3.9410   14.2920    1.3930 N   0  0  0  0  0  0  0  0  0  0  0  0
   -5.8030   15.0210   -0.1330 C   0  0  0  0  0  0  0  0  0  0  0  0
   -7.0040   14.8060   -0.3370 O   0  0  0  0  0  0  0  0  0  0  0  0
   -4.8450   15.3480   -1.2320 C   0  0  0  0  0  0  0  0  0  0  0  0
   -2.9850   14.7220    0.3710 C   0  0  0  0  0  0  0  0  0  0  0  0
   -3.6220   14.4800   -1.0180 C   0  0  2  0  0  0  0  0  0  0  0  0
   -2.3270   14.6980   -2.7470 I   0  0  0  0  0  0  0  0  0  0  0  0
  2  1  1  1
  2  3  1  0
  2  4  1  0
  4  5  2  0
  4  6  1  0
  3  7  1  0
  6  8  1  0
  7  8  1  0
  8  9  1  6
M  END
