x0933_1_A-x0792_0_A
     RDKit          3D

 10 10  0  0  0  0  0  0  0  0999 V2000
    5.1030   25.1360   18.3580 N   0  0  0  0  0  0  0  0  0  0  0  0
    5.4420   24.8730   16.9970 C   0  0  2  0  0  0  0  0  0  0  0  0
    6.8900   25.0940   16.7380 N   0  0  0  0  0  0  0  0  0  0  0  0
    4.4570   25.5590   16.2360 N   0  0  0  0  0  0  0  0  0  0  0  0
    7.8820   24.6000   17.6770 C   0  0  0  0  0  0  0  0  0  0  0  0
    5.1000   26.4900   15.3730 C   0  0  0  0  0  0  0  0  0  0  0  0
    7.1900   26.5150   16.6460 C   0  0  0  0  0  0  0  0  0  0  0  0
    8.9040   23.8140   17.0640 O   0  0  0  0  0  0  0  0  0  0  0  0
    6.0050   27.3480   16.2280 C   0  0  1  0  0  0  0  0  0  0  0  0
    6.4760   28.5830   15.5040 C   0  0  0  0  0  0  0  0  0  0  0  0
  2  1  1  1
  2  3  1  0
  2  4  1  0
  3  5  1  0
  4  6  1  0
  3  7  1  0
  5  8  1  0
  6  9  1  0
  7  9  1  0
  9 10  1  6
M  END
