x0933_0_A-x0685_1_A
     RDKit          3D

 22 23  0  0  0  0  0  0  0  0999 V2000
   -6.1860   14.7370    1.6780 N   0  0  0  0  0  0  0  0  0  0  0  0
   -5.2140   15.1640    0.7320 C   0  0  1  0  0  0  0  0  0  0  0  0
   -4.0280   15.2950    1.4970 N   0  0  0  0  0  0  0  0  0  0  0  0
   -5.1500   14.0770   -0.1500 N   0  0  0  0  0  0  0  0  0  0  0  0
   -4.3140   14.4950   -1.2480 C   0  0  0  0  0  0  0  0  0  0  0  0
   -2.8060   14.8350    0.8220 C   0  0  0  0  0  0  0  0  0  0  0  0
   -2.8960   14.6770   -0.7210 C   0  0  1  0  0  0  0  0  0  0  0  0
   -1.9240   13.6080   -1.2320 C   0  0  0  0  0  0  0  0  0  0  0  0
   -0.4690   13.8070   -0.8170 C   0  0  0  0  0  0  0  0  0  0  0  0
    0.3470   13.7310   -1.9830 O   0  0  0  0  0  0  0  0  0  0  0  0
    0.7510   12.3440   -2.6910 S   0  0  0  0  0  0  0  0  0  0  0  0
    0.1500   12.2890   -4.3850 C   0  0  0  0  0  0  0  0  0  0  0  0
    2.3430   12.2770   -2.8540 O   0  0  0  0  0  0  0  0  0  0  0  0
    0.2230   11.0670   -1.8500 O   0  0  0  0  0  0  0  0  0  0  0  0
   -1.3250   11.9290   -4.5630 C   0  0  0  0  0  0  0  0  0  0  0  0
   -1.5750   10.5050   -4.8500 N   0  0  0  0  0  0  0  0  0  0  0  0
   -1.4420   10.0190   -6.2430 C   0  0  0  0  0  0  0  0  0  0  0  0
   -0.1230    9.3180   -6.5230 C   0  0  0  0  0  0  0  0  0  0  0  0
   -1.6010   11.1580   -7.2690 C   0  0  0  0  0  0  0  0  0  0  0  0
   -0.0770    8.6140   -7.8700 C   0  0  0  0  0  0  0  0  0  0  0  0
   -1.1300   10.7890   -8.6860 C   0  0  0  0  0  0  0  0  0  0  0  0
   -0.9880    9.2800   -8.9060 C   0  0  0  0  0  0  0  0  0  0  0  0
  2  1  1  1
  2  3  1  0
  2  4  1  0
  4  5  1  0
  3  6  1  0
  5  7  1  0
  6  7  1  0
  7  8  1  1
  8  9  1  0
  9 10  1  0
 11 10  1  0
 11 12  1  0
 11 13  1  0
 11 14  1  0
 12 15  1  0
 15 16  1  0
 16 17  1  0
 17 18  1  0
 17 19  1  0
 18 20  1  0
 19 21  1  0
 20 22  1  0
 21 22  1  0
M  END
