x0933_0_A-x0905_0_A
     RDKit          3D

  8  8  0  0  0  0  0  0  0  0999 V2000
   -6.2920   14.3420    1.9260 N   0  0  0  0  0  0  0  0  0  0  0  0
   -5.2270   14.8380    1.1050 C   0  0  1  0  0  0  0  0  0  0  0  0
   -3.9560   14.4240    1.6160 N   0  0  0  0  0  0  0  0  0  0  0  0
   -5.4420   14.4850   -0.2810 N   0  0  0  0  0  0  0  0  0  0  0  0
   -6.7240   15.0650   -0.6940 O   0  0  0  0  0  0  0  0  0  0  0  0
   -4.3830   15.0440   -1.1280 C   0  0  0  0  0  0  0  0  0  0  0  0
   -2.8560   15.0120    0.8640 C   0  0  0  0  0  0  0  0  0  0  0  0
   -2.9690   14.7210   -0.6300 C   0  0  0  0  0  0  0  0  0  0  0  0
  2  1  1  1
  2  3  1  0
  2  4  1  0
  4  5  1  0
  4  6  1  0
  3  7  1  0
  6  8  1  0
  7  8  1  0
M  END
