x0933_0_A-x0905_0_A
     RDKit          3D

  8  8  0  0  0  0  0  0  0  0999 V2000
   -6.2880   14.3560    1.9160 N   0  0  0  0  0  0  0  0  0  0  0  0
   -5.2180   14.8430    1.0980 C   0  0  1  0  0  0  0  0  0  0  0  0
   -3.9520   14.4380    1.6130 N   0  0  0  0  0  0  0  0  0  0  0  0
   -5.4360   14.5020   -0.2890 N   0  0  0  0  0  0  0  0  0  0  0  0
   -6.7320   15.0690   -0.6960 O   0  0  0  0  0  0  0  0  0  0  0  0
   -4.3750   15.0700   -1.1290 C   0  0  0  0  0  0  0  0  0  0  0  0
   -2.8520   15.0330    0.8610 C   0  0  0  0  0  0  0  0  0  0  0  0
   -2.9690   14.7260   -0.6230 C   0  0  0  0  0  0  0  0  0  0  0  0
  2  1  1  1
  2  3  1  0
  2  4  1  0
  4  5  1  0
  4  6  1  0
  3  7  1  0
  6  8  1  0
  7  8  1  0
M  END
