x0933_1_A-x0334_0_A
     RDKit          3D

 21 22  0  0  0  0  0  0  0  0999 V2000
    3.1810   25.1410   18.7700 N   0  0  0  0  0  0  0  0  0  0  0  0
    4.0960   25.1590   17.6710 C   0  0  1  0  0  0  0  0  0  0  0  0
    3.6320   26.0500   16.6860 N   0  0  0  0  0  0  0  0  0  0  0  0
    5.4350   25.5290   18.0530 N   0  0  0  0  0  0  0  0  0  0  0  0
    5.4680   26.7330   18.8830 C   0  0  0  0  0  0  0  0  0  0  0  0
    6.3610   25.6190   16.9170 C   0  0  0  0  0  0  0  0  0  0  0  0
    4.3800   25.9010   15.4440 C   0  0  0  0  0  0  0  0  0  0  0  0
    4.8690   28.0170   18.2240 C   0  0  2  0  0  0  0  0  0  0  0  0
    5.6830   25.1620   15.6520 C   0  0  0  0  0  0  0  0  0  0  0  0
    3.4100   27.9630   17.9550 N   0  0  0  0  0  0  0  0  0  0  0  0
    5.5960   28.3040   16.8970 C   0  0  0  0  0  0  0  0  0  0  0  0
    2.9710   28.2580   16.5800 C   0  0  0  0  0  0  0  0  0  0  0  0
    1.6860   27.5010   16.2920 C   0  0  0  0  0  0  0  0  0  0  0  0
    0.5690   27.7360   17.0920 C   0  0  0  0  0  0  0  0  0  0  0  0
    1.5650   26.5650   15.2550 C   0  0  0  0  0  0  0  0  0  0  0  0
   -0.6350   27.0590   16.8690 C   0  0  0  0  0  0  0  0  0  0  0  0
    0.3490   25.8900   15.0420 C   0  0  0  0  0  0  0  0  0  0  0  0
   -0.7870   26.1170   15.8420 C   0  0  0  0  0  0  0  0  0  0  0  0
   -2.0000   25.4520   15.6320 N   0  0  0  0  0  0  0  0  0  0  0  0
   -3.2240   26.0930   16.0890 C   0  0  0  0  0  0  0  0  0  0  0  0
   -2.1480   24.7710   14.3560 C   0  0  0  0  0  0  0  0  0  0  0  0
  2  1  1  1
  2  3  1  0
  2  4  1  0
  4  5  1  0
  4  6  1  0
  3  7  1  0
  5  8  1  0
  6  9  1  0
  7  9  1  0
  8 10  1  0
  8 11  1  6
 10 12  1  0
 12 13  1  0
 13 14  2  0
 13 15  1  0
 14 16  1  0
 15 17  2  0
 16 18  2  0
 17 18  1  0
 18 19  1  0
 19 20  1  0
 19 21  1  0
M  END
