x0933_0_A_α-x0910_2_B_α
     RDKit          3D

 20 21  0  0  0  0  0  0  0  0999 V2000
   -6.3170   14.6450    2.1300 N   0  0  0  0  0  0  0  0  0  0  0  0
   -5.3550   14.3580    1.1150 C   0  0  2  0  0  0  0  0  0  0  0  0
   -4.0320   14.6110    1.6140 N   0  0  0  0  0  0  0  0  0  0  0  0
   -5.6910   15.0930   -0.0880 N   0  0  0  0  0  0  0  0  0  0  0  0
   -7.0860   14.8560   -0.5620 C   0  0  0  0  0  0  0  0  0  0  0  0
   -4.6790   15.0690   -1.1630 C   0  0  0  0  0  0  0  0  0  0  0  0
   -3.1720   15.4110    0.7730 C   0  0  0  0  0  0  0  0  0  0  0  0
   -7.6600   16.0600   -1.3370 C   0  0  0  0  0  0  0  0  0  0  0  0
   -3.2620   14.8660   -0.6400 C   0  0  0  0  0  0  0  0  0  0  0  0
   -9.0980   16.4950   -0.9740 C   0  0  0  0  0  0  0  0  0  0  0  0
   -9.7180   17.5830   -1.8810 C   0  0  0  0  0  0  0  0  0  0  0  0
  -10.9230   18.3520   -1.3000 C   0  0  0  0  0  0  0  0  0  0  0  0
  -11.9880   18.7530   -2.3450 C   0  0  0  0  0  0  0  0  0  0  0  0
  -11.7770   20.1150   -3.0440 C   0  0  0  0  0  0  0  0  0  0  0  0
  -12.8830   21.0340   -2.8830 N   0  0  0  0  0  0  0  0  0  0  0  0
  -12.7920   22.1740   -2.1700 C   0  0  0  0  0  0  0  0  0  0  0  0
  -11.9340   23.2250   -2.4110 N   0  0  0  0  0  0  0  0  0  0  0  0
  -13.5280   22.4540   -1.1240 N   0  0  0  0  0  0  0  0  0  0  0  0
  -12.1210   24.1900   -1.5090 N   0  0  0  0  0  0  0  0  0  0  0  0
  -13.0920   23.6830   -0.7500 C   0  0  0  0  0  0  0  0  0  0  0  0
  2  1  1  1
  2  3  1  0
  2  4  1  0
  4  5  1  0
  4  6  1  0
  3  7  1  0
  5  8  1  0
  6  9  1  0
  7  9  1  0
  8 10  1  0
 10 11  1  0
 11 12  1  0
 12 13  1  0
 13 14  1  0
 14 15  1  0
 15 16  1  0
 16 17  1  0
 16 18  2  0
 17 19  1  0
 18 20  1  0
 19 20  2  0
M  END
