x0933_4_B-x0301_0_B
     RDKit          3D

 20 21  0  0  0  0  0  0  0  0999 V2000
   17.4090   32.8100    8.3410 N   0  0  0  0  0  0  0  0  0  0  0  0
   17.4100   31.4460    7.9260 C   0  0  2  0  0  0  0  0  0  0  0  0
   16.1800   31.2660    7.2180 N   0  0  0  0  0  0  0  0  0  0  0  0
   17.3730   30.7110    9.1570 N   0  0  0  0  0  0  0  0  0  0  0  0
   16.7690   29.3710    8.9990 C   0  0  0  0  0  0  0  0  0  0  0  0
   15.9930   29.8850    6.7460 C   0  0  0  0  0  0  0  0  0  0  0  0
   16.8510   28.8980    7.5440 C   0  0  1  0  0  0  0  0  0  0  0  0
   18.3100   28.7510    7.0390 C   0  0  0  0  0  0  0  0  0  0  0  0
   18.5450   28.7300    5.5780 N   0  0  0  0  0  0  0  0  0  0  0  0
   19.3580   27.7750    4.9430 C   0  0  0  0  0  0  0  0  0  0  0  0
   18.2660   29.9120    4.8960 C   0  0  0  0  0  0  0  0  0  0  0  0
   19.5920   27.7510    3.7320 O   0  0  0  0  0  0  0  0  0  0  0  0
   20.0120   26.6960    5.8240 C   0  0  0  0  0  0  0  0  0  0  0  0
   18.6370   30.1380    3.5850 N   0  0  0  0  0  0  0  0  0  0  0  0
   17.6180   30.9510    5.4090 N   0  0  0  0  0  0  0  0  0  0  0  0
   21.4220   27.1560    6.1890 C   0  0  0  0  0  0  0  0  0  0  0  0
   20.0830   25.3700    5.0770 C   0  0  0  0  0  0  0  0  0  0  0  0
   17.6050   31.7910    4.3920 N   0  0  0  0  0  0  0  0  0  0  0  0
   18.2040   31.3570    3.2710 N   0  0  0  0  0  0  0  0  0  0  0  0
   16.9800   33.0730    4.5200 C   0  0  0  0  0  0  0  0  0  0  0  0
  2  1  1  1
  2  3  1  0
  2  4  1  0
  4  5  1  0
  3  6  1  0
  5  7  1  0
  6  7  1  0
  7  8  1  6
  8  9  1  0
  9 10  1  0
  9 11  1  0
 10 12  2  0
 10 13  1  0
 11 14  1  0
 11 15  2  0
 13 16  1  0
 13 17  1  0
 15 18  1  0
 14 19  2  0
 18 19  1  0
 18 20  1  0
M  END
