x0933_0_A_α-x0574_0_A_α
     RDKit          3D

 13 14  0  0  0  0  0  0  0  0999 V2000
   -6.4960   13.9330    1.6490 N   0  0  0  0  0  0  0  0  0  0  0  0
   -7.4640   14.9940    1.4820 O   0  0  0  0  0  0  0  0  0  0  0  0
   -5.3100   14.2580    0.9100 C   0  0  1  0  0  0  0  0  0  0  0  0
   -5.6570   14.6530   -0.4250 N   0  0  0  0  0  0  0  0  0  0  0  0
   -4.6940   15.3670    1.5860 N   0  0  0  0  0  0  0  0  0  0  0  0
   -4.4130   14.7680   -1.1900 C   0  0  0  0  0  0  0  0  0  0  0  0
   -3.4640   15.7820    0.8990 C   0  0  0  0  0  0  0  0  0  0  0  0
   -3.2060   14.7890   -0.2330 C   0  0  2  0  0  0  0  0  0  0  0  0
   -1.5650   14.7730   -1.0610 S   0  0  0  0  0  0  0  0  0  0  0  0
   -2.9490   13.5340    0.5320 C   0  0  0  0  0  0  0  0  0  0  0  0
   -1.7510   13.8710    1.3400 N   0  0  0  0  0  0  0  0  0  0  0  0
   -0.7340   14.1440    0.3890 C   0  0  2  0  0  0  0  0  0  0  0  0
    0.1090   15.1290    0.9640 N   0  0  0  0  0  0  0  0  0  0  0  0
  1  2  1  0
  3  1  1  1
  3  4  1  0
  3  5  1  0
  4  6  1  0
  5  7  1  0
  8  6  1  6
  7  8  1  0
  8  9  1  0
  8 10  1  0
 10 11  1  0
  9 12  1  0
 11 12  1  0
 12 13  1  1
M  END
