x0950_0_A-x0282_0_A
     RDKit          3D

 21 22  0  0  0  0  0  0  0  0999 V2000
    2.7520   13.0110   -4.5540 C   0  0  0  0  0  0  0  0  0  0  0  0
    1.2670   12.7340   -4.6120 C   0  0  1  0  0  0  0  0  0  0  0  0
    0.9570   11.9250   -5.7370 O   0  0  0  0  0  0  0  0  0  0  0  0
    0.8450   12.1370   -3.2720 C   0  0  0  0  0  0  0  0  0  0  0  0
    0.3960   11.0110   -3.0850 O   0  0  0  0  0  0  0  0  0  0  0  0
    1.0610   13.0770   -2.3250 O   0  0  0  0  0  0  0  0  0  0  0  0
    0.2240   14.2450   -2.4260 C   0  0  0  0  0  0  0  0  0  0  0  0
   -0.3820   14.4050   -1.0810 C   0  0  0  0  0  0  0  0  0  0  0  0
   -1.7030   14.4030   -0.9480 N   0  0  0  0  0  0  0  0  0  0  0  0
    0.4500   14.5310   -0.0400 C   0  0  0  0  0  0  0  0  0  0  0  0
   -0.1190   14.6350    1.2020 C   0  0  0  0  0  0  0  0  0  0  0  0
   -2.1910   14.5170    0.2850 C   0  0  0  0  0  0  0  0  0  0  0  0
   -3.5380   14.5240    0.4230 N   0  0  0  0  0  0  0  0  0  0  0  0
   -1.4350   14.6230    1.3970 N   0  0  0  0  0  0  0  0  0  0  0  0
   -4.0440   14.1820    1.7180 C   0  0  0  0  0  0  0  0  0  0  0  0
   -4.3570   14.5200   -0.8040 C   0  0  0  0  0  0  0  0  0  0  0  0
   -5.3780   14.8670    1.8420 C   0  0  0  0  0  0  0  0  0  0  0  0
   -5.8160   14.9400   -0.5630 C   0  0  0  0  0  0  0  0  0  0  0  0
   -6.2930   14.3350    0.7550 C   0  0  0  0  0  0  0  0  0  0  0  0
   -7.7800   14.4580    1.0890 C   0  0  0  0  0  0  0  0  0  0  0  0
   -8.5870   14.6070   -0.0660 O   0  0  0  0  0  0  0  0  0  0  0  0
  2  1  1  1
  2  3  1  0
  2  4  1  0
  4  5  2  0
  4  6  1  0
  6  7  1  0
  7  8  1  0
  8  9  2  0
  8 10  1  0
 10 11  2  0
  9 12  1  0
 12 13  1  0
 11 14  1  0
 12 14  2  0
 13 15  1  0
 13 16  1  0
 15 17  1  0
 16 18  1  0
 17 19  1  0
 18 19  1  0
 19 20  1  0
 20 21  1  0
M  END
