x0950_1_A-x0805_0_A
     RDKit          3D

 20 21  0  0  0  0  0  0  0  0999 V2000
    1.7630   13.1720   -5.6310 C   0  0  0  0  0  0  0  0  0  0  0  0
    1.3920   11.8880   -4.9720 C   0  0  2  0  0  0  0  0  0  0  0  0
    0.5060   11.2630   -5.9200 O   0  0  0  0  0  0  0  0  0  0  0  0
    0.5980   12.0900   -3.7100 C   0  0  0  0  0  0  0  0  0  0  0  0
    1.0140   11.2970   -2.6170 O   0  0  0  0  0  0  0  0  0  0  0  0
   -0.7040   11.7020   -3.9280 O   0  0  0  0  0  0  0  0  0  0  0  0
    0.6650   13.5470   -3.5170 C   0  0  2  0  0  0  0  0  0  0  0  0
    1.7660   13.9990   -2.5870 C   0  0  0  0  0  0  0  0  0  0  0  0
   -0.5020   14.5220   -3.7320 C   0  0  1  0  0  0  0  0  0  0  0  0
   -1.8070   14.4010   -2.9960 C   0  0  0  0  0  0  0  0  0  0  0  0
    2.4720   15.0260   -3.2540 O   0  0  0  0  0  0  0  0  0  0  0  0
    0.1470   15.8610   -3.5740 C   0  0  0  0  0  0  0  0  0  0  0  0
   -2.9680   13.9780   -3.6560 C   0  0  0  0  0  0  0  0  0  0  0  0
   -1.8840   14.7220   -1.6480 C   0  0  0  0  0  0  0  0  0  0  0  0
    1.5790   15.8450   -4.0410 C   0  0  0  0  0  0  0  0  0  0  0  0
   -3.0770   14.6350   -0.9530 C   0  0  0  0  0  0  0  0  0  0  0  0
   -4.1780   13.8800   -2.9640 C   0  0  0  0  0  0  0  0  0  0  0  0
   -3.2160   14.9440    0.3640 O   0  0  0  0  0  0  0  0  0  0  0  0
   -4.2300   14.2100   -1.6130 C   0  0  0  0  0  0  0  0  0  0  0  0
   -4.3740   15.6540    0.7570 C   0  0  0  0  0  0  0  0  0  0  0  0
  2  1  1  6
  2  3  1  0
  2  4  1  0
  4  5  1  0
  4  6  1  0
  7  4  1  1
  7  8  1  0
  7  9  1  0
  9 10  1  1
  8 11  1  0
  9 12  1  0
 10 13  2  0
 10 14  1  0
 11 15  1  0
 12 15  1  0
 14 16  2  0
 13 17  1  0
 16 18  1  0
 16 19  1  0
 17 19  2  0
 18 20  1  0
M  END
