x0950_1_A-x0849_0_A
     RDKit          3D

 18 19  0  0  0  0  0  0  0  0999 V2000
    1.2290   13.9550   -4.9340 C   0  0  0  0  0  0  0  0  0  0  0  0
    1.4040   12.5460   -4.3940 C   0  0  2  0  0  0  0  0  0  0  0  0
    0.7230   11.6660   -5.2900 O   0  0  0  0  0  0  0  0  0  0  0  0
    0.8580   12.4320   -2.9730 C   0  0  0  0  0  0  0  0  0  0  0  0
    0.6440   11.3640   -2.4000 O   0  0  0  0  0  0  0  0  0  0  0  0
    0.6370   13.6890   -2.4970 O   0  0  0  0  0  0  0  0  0  0  0  0
    1.0960   14.1650   -1.2150 C   0  0  0  0  0  0  0  0  0  0  0  0
   -0.1210   14.3900   -0.3620 C   0  0  0  0  0  0  0  0  0  0  0  0
   -0.2060   14.3780    1.0340 C   0  0  0  0  0  0  0  0  0  0  0  0
   -1.2910   14.6400   -1.0220 C   0  0  0  0  0  0  0  0  0  0  0  0
   -2.4730   14.8720   -0.3180 C   0  0  0  0  0  0  0  0  0  0  0  0
   -1.3240   14.5950    1.7320 N   0  0  0  0  0  0  0  0  0  0  0  0
   -2.4350   14.8410    1.0710 C   0  0  0  0  0  0  0  0  0  0  0  0
   -3.6960   15.1390   -0.9300 C   0  0  0  0  0  0  0  0  0  0  0  0
   -3.8290   15.1860   -2.8210 Br  0  0  0  0  0  0  0  0  0  0  0  0
   -3.5080   15.0570    1.7890 N   0  0  0  0  0  0  0  0  0  0  0  0
   -4.8280   15.3700   -0.1730 C   0  0  0  0  0  0  0  0  0  0  0  0
   -4.6750   15.3150    1.1880 C   0  0  0  0  0  0  0  0  0  0  0  0
  2  1  1  6
  2  3  1  0
  2  4  1  0
  4  5  2  0
  4  6  1  0
  6  7  1  0
  7  8  1  0
  8  9  2  0
  8 10  1  0
 10 11  2  0
  9 12  1  0
 11 13  1  0
 12 13  2  0
 11 14  1  0
 14 15  1  0
 13 16  1  0
 14 17  2  0
 16 18  2  0
 17 18  1  0
M  END
