x0950_1_A_α-x0662_0_A_α
     RDKit          3D

 18 18  0  0  0  0  0  0  0  0999 V2000
    0.9420   13.9070   -4.8150 C   0  0  0  0  0  0  0  0  0  0  0  0
    1.3340   12.4650   -4.5340 C   0  0  2  0  0  0  0  0  0  0  0  0
    0.6090   11.5850   -5.4250 O   0  0  0  0  0  0  0  0  0  0  0  0
    0.9620   12.0930   -3.0990 C   0  0  0  0  0  0  0  0  0  0  0  0
    0.3250   11.1050   -2.7870 O   0  0  0  0  0  0  0  0  0  0  0  0
    1.4250   12.9970   -2.1990 O   0  0  0  0  0  0  0  0  0  0  0  0
    0.8390   11.9240   -6.7960 C   0  0  0  0  0  0  0  0  0  0  0  0
    0.4310   10.8270   -7.7900 C   0  0  0  0  0  0  0  0  0  0  0  0
    1.5500   10.4560   -8.7810 C   0  0  0  0  0  0  0  0  0  0  0  0
    1.3110   10.5920  -10.3030 C   0  0  0  0  0  0  0  0  0  0  0  0
    2.0930    9.5840  -11.1700 C   0  0  0  0  0  0  0  0  0  0  0  0
    2.1430    8.3910  -10.8620 O   0  0  0  0  0  0  0  0  0  0  0  0
    2.8170   10.0480  -12.3830 C   0  0  0  0  0  0  0  0  0  0  0  0
    3.7450    9.2790  -12.9980 N   0  0  0  0  0  0  0  0  0  0  0  0
    2.6850   11.2930  -13.0620 C   0  0  0  0  0  0  0  0  0  0  0  0
    4.1840   10.0300  -14.0300 N   0  0  0  0  0  0  0  0  0  0  0  0
    3.5730   11.2450  -14.1120 C   0  0  0  0  0  0  0  0  0  0  0  0
    5.2070    9.5050  -14.9040 C   0  0  0  0  0  0  0  0  0  0  0  0
  2  1  1  6
  2  3  1  0
  2  4  1  0
  4  5  2  0
  4  6  1  0
  3  7  1  0
  7  8  1  0
  8  9  1  0
  9 10  1  0
 10 11  1  0
 11 12  2  0
 11 13  1  0
 13 14  2  0
 13 15  1  0
 14 16  1  0
 15 17  2  0
 16 17  1  0
 16 18  1  0
M  END
