x0950_0_A-x0837_0_A
     RDKit          3D

 17 17  0  0  0  0  0  0  0  0999 V2000
    2.7600   12.9190   -4.1020 C   0  0  0  0  0  0  0  0  0  0  0  0
    1.2670   12.6860   -4.1760 C   0  0  1  0  0  0  0  0  0  0  0  0
    0.8770   12.0460   -5.3230 O   0  0  0  0  0  0  0  0  0  0  0  0
    0.8380   11.9410   -2.9580 C   0  0  0  0  0  0  0  0  0  0  0  0
    0.3690   10.7980   -3.0600 O   0  0  0  0  0  0  0  0  0  0  0  0
    0.9690   12.5470   -1.7020 O   0  0  0  0  0  0  0  0  0  0  0  0
    1.3430   13.9240   -1.7160 C   0  0  0  0  0  0  0  0  0  0  0  0
    0.1960   14.7690   -2.1010 C   0  0  0  0  0  0  0  0  0  0  0  0
   -1.0400   14.4360   -1.3500 C   0  0  0  0  0  0  0  0  0  0  0  0
   -2.8620   14.6620   -2.3860 I   0  0  0  0  0  0  0  0  0  0  0  0
   -4.2600   14.4790   -0.8200 C   0  0  1  0  0  0  0  0  0  0  0  0
   -3.7260   15.0730    0.4100 C   0  0  0  0  0  0  0  0  0  0  0  0
   -5.6170   14.9530   -1.1060 C   0  0  0  0  0  0  0  0  0  0  0  0
   -4.4620   15.2610    1.4550 C   0  0  0  0  0  0  0  0  0  0  0  0
   -6.4330   14.8500    0.1200 C   0  0  0  0  0  0  0  0  0  0  0  0
   -7.6800   14.7390    0.0100 O   0  0  0  0  0  0  0  0  0  0  0  0
   -5.8270   14.8760    1.4090 N   0  0  0  0  0  0  0  0  0  0  0  0
  2  1  1  6
  2  3  1  0
  2  4  1  0
  4  5  2  0
  4  6  1  0
  6  7  1  0
  7  8  1  0
  8  9  1  0
  9 10  1  0
 11 10  1  6
 11 12  1  0
 11 13  1  0
 12 14  2  0
 13 15  1  0
 15 16  2  0
 14 17  1  0
 15 17  1  0
M  END
