x0950_1_A_α-x0662_0_A_β
     RDKit          3D

 14 14  0  0  0  0  0  0  0  0999 V2000
    0.8460   13.7720   -5.1750 C   0  0  0  0  0  0  0  0  0  0  0  0
    1.0160   12.2850   -4.8870 C   0  0  2  0  0  0  0  0  0  0  0  0
   -0.1000   11.4690   -5.5400 C   0  0  0  0  0  0  0  0  0  0  0  0
    1.0390   12.1350   -3.3630 C   0  0  0  0  0  0  0  0  0  0  0  0
    0.5020   11.1980   -2.7860 O   0  0  0  0  0  0  0  0  0  0  0  0
    1.6680   13.0770   -2.6420 O   0  0  0  0  0  0  0  0  0  0  0  0
   -1.1750   11.4550   -4.9500 O   0  0  0  0  0  0  0  0  0  0  0  0
   -0.0680   10.6660   -6.8360 C   0  0  0  0  0  0  0  0  0  0  0  0
    0.7710   11.0130   -7.9020 C   0  0  0  0  0  0  0  0  0  0  0  0
   -0.9020    9.5510   -7.0020 C   0  0  0  0  0  0  0  0  0  0  0  0
    0.7750   10.2830   -9.1130 C   0  0  0  0  0  0  0  0  0  0  0  0
   -0.8990    8.8180   -8.1900 C   0  0  0  0  0  0  0  0  0  0  0  0
    1.5970   10.6390  -10.1820 N   0  0  0  0  0  0  0  0  0  0  0  0
   -0.0660    9.1850   -9.2400 C   0  0  0  0  0  0  0  0  0  0  0  0
  2  1  1  1
  2  3  1  0
  2  4  1  0
  4  5  2  0
  4  6  1  0
  3  7  2  0
  3  8  1  0
  8  9  2  0
  8 10  1  0
  9 11  1  0
 10 12  2  0
 11 13  1  0
 11 14  2  0
 12 14  1  0
M  END
