x0950_0_A-x0438_0_A
     RDKit          3D

 23 24  0  0  0  0  0  0  0  0999 V2000
    2.9370   12.5170   -4.0730 C   0  0  0  0  0  0  0  0  0  0  0  0
    1.4440   12.7710   -3.9530 C   0  0  1  0  0  0  0  0  0  0  0  0
    0.8530   12.4210   -5.2110 O   0  0  0  0  0  0  0  0  0  0  0  0
    0.8000   11.9590   -2.8110 C   0  0  0  0  0  0  0  0  0  0  0  0
    0.2690   10.8760   -3.0080 O   0  0  0  0  0  0  0  0  0  0  0  0
    0.8960   12.5500   -1.5740 O   0  0  0  0  0  0  0  0  0  0  0  0
    0.1710   13.7740   -1.3120 C   0  0  0  0  0  0  0  0  0  0  0  0
   -0.7360   13.5510   -0.1000 C   0  0  0  0  0  0  0  0  0  0  0  0
   -1.4370   14.7890    0.4310 C   0  0  0  0  0  0  0  0  0  0  0  0
   -2.9270   14.8640    0.0830 C   0  0  0  0  0  0  0  0  0  0  0  0
   -3.4250   15.2690   -1.1810 C   0  0  0  0  0  0  0  0  0  0  0  0
   -3.8420   14.4980    1.0800 C   0  0  0  0  0  0  0  0  0  0  0  0
   -5.2160   14.5260    0.8060 C   0  0  0  0  0  0  0  0  0  0  0  0
   -4.8040   15.3100   -1.4670 C   0  0  0  0  0  0  0  0  0  0  0  0
   -6.2730   14.1980    1.6190 N   0  0  0  0  0  0  0  0  0  0  0  0
   -5.6670   14.9220   -0.4420 C   0  0  0  0  0  0  0  0  0  0  0  0
   -7.0390   14.8170   -0.3560 N   0  0  0  0  0  0  0  0  0  0  0  0
   -7.3580   14.3680    0.9090 C   0  0  0  0  0  0  0  0  0  0  0  0
   -8.7510   14.1080    1.3680 C   0  0  0  0  0  0  0  0  0  0  0  0
   -9.3530   15.3250    2.5270 S   0  0  0  0  0  0  0  0  0  0  0  0
   -8.1090   15.4660    3.7980 C   0  0  0  0  0  0  0  0  0  0  0  0
  -10.5380   14.7590    3.1470 O   0  0  0  0  0  0  0  0  0  0  0  0
   -9.4810   16.5810    1.8160 O   0  0  0  0  0  0  0  0  0  0  0  0
  2  1  1  6
  2  3  1  0
  2  4  1  0
  4  5  2  0
  4  6  1  0
  6  7  1  0
  7  8  1  0
  8  9  1  0
  9 10  1  0
 10 11  2  0
 10 12  1  0
 12 13  2  0
 11 14  1  0
 13 15  1  0
 13 16  1  0
 14 16  2  0
 16 17  1  0
 15 18  2  0
 17 18  1  0
 18 19  1  0
 20 19  1  0
 20 21  1  0
 20 22  2  0
 20 23  2  0
M  END
