x0950_0_A_α-x0438_0_A_α
     RDKit          3D

 23 24  0  0  0  0  0  0  0  0999 V2000
    2.9370   12.5180   -4.0710 C   0  0  0  0  0  0  0  0  0  0  0  0
    1.4410   12.7680   -3.9490 C   0  0  1  0  0  0  0  0  0  0  0  0
    0.8510   12.4270   -5.2090 O   0  0  0  0  0  0  0  0  0  0  0  0
    0.7960   11.9530   -2.8100 C   0  0  0  0  0  0  0  0  0  0  0  0
    0.2670   10.8670   -3.0110 O   0  0  0  0  0  0  0  0  0  0  0  0
    0.8850   12.5410   -1.5730 O   0  0  0  0  0  0  0  0  0  0  0  0
    0.1680   13.7700   -1.3130 C   0  0  0  0  0  0  0  0  0  0  0  0
   -0.7340   13.5510   -0.0980 C   0  0  0  0  0  0  0  0  0  0  0  0
   -1.4370   14.7890    0.4320 C   0  0  0  0  0  0  0  0  0  0  0  0
   -2.9250   14.8620    0.0860 C   0  0  0  0  0  0  0  0  0  0  0  0
   -3.4210   15.2680   -1.1780 C   0  0  0  0  0  0  0  0  0  0  0  0
   -3.8420   14.4940    1.0820 C   0  0  0  0  0  0  0  0  0  0  0  0
   -5.2150   14.5230    0.8060 C   0  0  0  0  0  0  0  0  0  0  0  0
   -4.8000   15.3100   -1.4640 C   0  0  0  0  0  0  0  0  0  0  0  0
   -6.2700   14.1950    1.6170 N   0  0  0  0  0  0  0  0  0  0  0  0
   -5.6640   14.9230   -0.4420 C   0  0  0  0  0  0  0  0  0  0  0  0
   -7.0370   14.8200   -0.3560 N   0  0  0  0  0  0  0  0  0  0  0  0
   -7.3580   14.3690    0.9070 C   0  0  0  0  0  0  0  0  0  0  0  0
   -8.7500   14.1090    1.3680 C   0  0  0  0  0  0  0  0  0  0  0  0
   -9.3530   15.3240    2.5300 S   0  0  0  0  0  0  0  0  0  0  0  0
   -8.1080   15.4720    3.8000 C   0  0  0  0  0  0  0  0  0  0  0  0
  -10.5350   14.7570    3.1520 O   0  0  0  0  0  0  0  0  0  0  0  0
   -9.4830   16.5770    1.8160 O   0  0  0  0  0  0  0  0  0  0  0  0
  2  1  1  6
  2  3  1  0
  2  4  1  0
  4  5  2  0
  4  6  1  0
  6  7  1  0
  7  8  1  0
  8  9  1  0
  9 10  1  0
 10 11  2  0
 10 12  1  0
 12 13  2  0
 11 14  1  0
 13 15  1  0
 13 16  1  0
 14 16  2  0
 16 17  1  0
 15 18  2  0
 17 18  1  0
 18 19  1  0
 20 19  1  0
 20 21  1  0
 20 22  2  0
 20 23  2  0
M  END
