x0950_1_A-x0926_0_A
     RDKit          3D

 16 16  0  0  0  0  0  0  0  0999 V2000
    1.1230   13.9820   -4.6790 C   0  0  0  0  0  0  0  0  0  0  0  0
    1.3620   12.5110   -4.4000 C   0  0  2  0  0  0  0  0  0  0  0  0
    0.7470   11.7660   -5.4510 O   0  0  0  0  0  0  0  0  0  0  0  0
    0.8520   12.0830   -3.0110 C   0  0  0  0  0  0  0  0  0  0  0  0
    0.3880   10.9850   -2.7330 O   0  0  0  0  0  0  0  0  0  0  0  0
    0.9800   13.1060   -2.1100 O   0  0  0  0  0  0  0  0  0  0  0  0
   -0.2990   13.5610   -1.6340 C   0  0  0  0  0  0  0  0  0  0  0  0
   -0.1600   14.7490   -0.6800 C   0  0  0  0  0  0  0  0  0  0  0  0
   -1.2480   14.8000    0.4110 C   0  0  0  0  0  0  0  0  0  0  0  0
   -2.5990   15.4670    0.0460 C   0  0  1  0  0  0  0  0  0  0  0  0
   -3.1470   14.9390   -1.2270 N   0  0  0  0  0  0  0  0  0  0  0  0
   -3.6010   15.3440    1.1580 C   0  0  0  0  0  0  0  0  0  0  0  0
   -4.9120   15.2060    0.9540 C   0  0  0  0  0  0  0  0  0  0  0  0
   -4.5190   15.2540   -1.4360 N   0  0  0  0  0  0  0  0  0  0  0  0
   -5.4510   15.1650   -0.4250 C   0  0  0  0  0  0  0  0  0  0  0  0
   -6.6580   15.0510   -0.6250 O   0  0  0  0  0  0  0  0  0  0  0  0
  2  1  1  6
  2  3  1  0
  2  4  1  0
  4  5  2  0
  4  6  1  0
  6  7  1  0
  7  8  1  0
  8  9  1  0
 10  9  1  1
 10 11  1  0
 10 12  1  0
 12 13  2  0
 11 14  1  0
 13 15  1  0
 14 15  1  0
 15 16  2  0
M  END
