x0950_0_A-x0628_0_A
     RDKit          3D

 13 13  0  0  0  0  0  0  0  0999 V2000
    2.6370   12.9720   -4.5650 C   0  0  0  0  0  0  0  0  0  0  0  0
    1.1660   13.1490   -4.2590 C   0  0  1  0  0  0  0  0  0  0  0  0
    0.4510   13.0600   -5.4930 O   0  0  0  0  0  0  0  0  0  0  0  0
    0.7960   12.2090   -3.1190 C   0  0  0  0  0  0  0  0  0  0  0  0
    0.2910   11.1000   -3.2040 O   0  0  0  0  0  0  0  0  0  0  0  0
    1.0800   12.7330   -1.9130 O   0  0  0  0  0  0  0  0  0  0  0  0
   -0.3050   11.9070   -5.6540 N   0  0  0  0  0  0  0  0  0  0  0  0
    0.0890   10.9960   -6.5400 N   0  0  0  0  0  0  0  0  0  0  0  0
   -1.4630   11.5460   -5.0160 C   0  0  0  0  0  0  0  0  0  0  0  0
   -2.1280   12.3720   -3.9860 C   0  0  0  0  0  0  0  0  0  0  0  0
   -1.8460   10.3710   -5.4870 N   0  0  0  0  0  0  0  0  0  0  0  0
   -0.8680   10.0770   -6.4120 C   0  0  0  0  0  0  0  0  0  0  0  0
   -0.8630    8.8380   -7.2100 C   0  0  0  0  0  0  0  0  0  0  0  0
  2  1  1  6
  2  3  1  0
  2  4  1  0
  4  5  2  0
  4  6  1  0
  3  7  1  0
  7  8  1  0
  7  9  1  0
  9 10  1  0
  9 11  2  0
  8 12  2  0
 11 12  1  0
 12 13  1  0
M  END
