x0950_0_A_α-x0962_2_B_α
     RDKit          3D

 20 20  0  0  0  0  0  0  0  0999 V2000
    2.8210   12.9450   -4.0460 C   0  0  0  0  0  0  0  0  0  0  0  0
    1.3160   12.8590   -4.1820 C   0  0  1  0  0  0  0  0  0  0  0  0
    0.9880   12.0990   -5.3440 O   0  0  0  0  0  0  0  0  0  0  0  0
    0.7150   12.3060   -2.8780 C   0  0  0  0  0  0  0  0  0  0  0  0
    0.4270   11.1320   -2.6810 O   0  0  0  0  0  0  0  0  0  0  0  0
    0.5620   13.3350   -1.9740 O   0  0  0  0  0  0  0  0  0  0  0  0
   -0.4100   13.1490   -0.9220 C   0  0  0  0  0  0  0  0  0  0  0  0
   -1.4260   14.2940   -0.8690 C   0  0  0  0  0  0  0  0  0  0  0  0
   -2.3100   14.3600    0.4040 C   0  0  0  0  0  0  0  0  0  0  0  0
   -3.7500   13.8110    0.2470 C   0  0  0  0  0  0  0  0  0  0  0  0
   -4.7460   14.2310    1.3500 C   0  0  0  0  0  0  0  0  0  0  0  0
   -5.5540   13.0150    1.8650 C   0  0  0  0  0  0  0  0  0  0  0  0
   -7.0440   13.2740    2.2060 C   0  0  0  0  0  0  0  0  0  0  0  0
   -7.3650   14.2290    3.2810 N   0  0  0  0  0  0  0  0  0  0  0  0
   -7.8240   15.2280    4.1900 C   0  0  0  0  0  0  0  0  0  0  0  0
   -8.3120   14.6140    2.3230 C   0  0  0  0  0  0  0  0  0  0  0  0
   -9.1130   15.6360    2.6790 C   0  0  0  0  0  0  0  0  0  0  0  0
   -8.8050   16.0380    3.8870 N   0  0  0  0  0  0  0  0  0  0  0  0
  -10.1400   16.2090    1.8740 C   0  0  0  0  0  0  0  0  0  0  0  0
  -10.9410   16.6390    1.1560 N   0  0  0  0  0  0  0  0  0  0  0  0
  2  1  1  1
  2  3  1  0
  2  4  1  0
  4  5  2  0
  4  6  1  0
  6  7  1  0
  7  8  1  0
  8  9  1  0
  9 10  1  0
 10 11  1  0
 11 12  1  0
 12 13  1  0
 13 14  1  0
 14 15  1  0
 14 16  1  0
 16 17  2  0
 15 18  2  0
 17 18  1  0
 17 19  1  0
 19 20  3  0
M  END
