x0950_0_A-x0837_0_A
     RDKit          3D

 17 17  0  0  0  0  0  0  0  0999 V2000
    2.7710   12.9450   -4.0840 C   0  0  0  0  0  0  0  0  0  0  0  0
    1.2820   12.6850   -4.1860 C   0  0  1  0  0  0  0  0  0  0  0  0
    0.9290   12.0300   -5.3340 O   0  0  0  0  0  0  0  0  0  0  0  0
    0.8410   11.9400   -2.9710 C   0  0  0  0  0  0  0  0  0  0  0  0
    0.3750   10.7950   -3.0820 O   0  0  0  0  0  0  0  0  0  0  0  0
    0.9530   12.5440   -1.7130 O   0  0  0  0  0  0  0  0  0  0  0  0
    1.3400   13.9150   -1.7160 C   0  0  0  0  0  0  0  0  0  0  0  0
    0.1980   14.7770   -2.0910 C   0  0  0  0  0  0  0  0  0  0  0  0
   -1.0370   14.4400   -1.3460 C   0  0  0  0  0  0  0  0  0  0  0  0
   -2.8610   14.6750   -2.3830 I   0  0  0  0  0  0  0  0  0  0  0  0
   -4.2620   14.4810   -0.8200 C   0  0  1  0  0  0  0  0  0  0  0  0
   -3.7270   15.0660    0.4150 C   0  0  0  0  0  0  0  0  0  0  0  0
   -5.6240   14.9410   -1.1060 C   0  0  0  0  0  0  0  0  0  0  0  0
   -4.4670   15.2410    1.4620 C   0  0  0  0  0  0  0  0  0  0  0  0
   -6.4360   14.8470    0.1240 C   0  0  0  0  0  0  0  0  0  0  0  0
   -7.6880   14.7600    0.0180 O   0  0  0  0  0  0  0  0  0  0  0  0
   -5.8280   14.8520    1.4110 N   0  0  0  0  0  0  0  0  0  0  0  0
  2  1  1  1
  2  3  1  0
  2  4  1  0
  4  5  2  0
  4  6  1  0
  6  7  1  0
  7  8  1  0
  8  9  1  0
  9 10  1  0
 11 10  1  6
 11 12  1  0
 11 13  1  0
 12 14  2  0
 13 15  1  0
 15 16  2  0
 14 17  1  0
 15 17  1  0
M  END
