x0950_1_A_α-x0900_1_A_α
     RDKit          3D

 13 13  0  0  0  0  0  0  0  0999 V2000
    0.7430   13.7110   -5.0990 C   0  0  0  0  0  0  0  0  0  0  0  0
    1.1010   12.2810   -4.7220 C   0  0  2  0  0  0  0  0  0  0  0  0
    0.5180   11.4030   -5.7250 O   0  0  0  0  0  0  0  0  0  0  0  0
    0.7090   12.0380   -3.2540 C   0  0  0  0  0  0  0  0  0  0  0  0
   -0.0150   11.1690   -2.8050 O   0  0  0  0  0  0  0  0  0  0  0  0
    1.2680   12.9320   -2.4100 O   0  0  0  0  0  0  0  0  0  0  0  0
   -0.3620   10.3390   -5.2900 C   0  0  0  0  0  0  0  0  0  0  0  0
   -0.3380    9.1170   -6.2620 C   0  0  2  0  0  0  0  0  0  0  0  0
    0.1210    9.3840   -7.6090 N   0  0  0  0  0  0  0  0  0  0  0  0
   -1.7220    8.5320   -6.5060 C   0  0  0  0  0  0  0  0  0  0  0  0
   -0.9320    9.5630   -8.4880 C   0  0  0  0  0  0  0  0  0  0  0  0
   -2.2100    9.2910   -7.7350 C   0  0  0  0  0  0  0  0  0  0  0  0
   -0.8310    9.8840   -9.6570 O   0  0  0  0  0  0  0  0  0  0  0  0
  2  1  1  6
  2  3  1  0
  2  4  1  0
  4  5  2  0
  4  6  1  0
  3  7  1  0
  8  7  1  1
  8  9  1  0
  8 10  1  0
  9 11  1  0
 10 12  1  0
 11 12  1  0
 11 13  2  0
M  END
