x0950_0_A-x0631_0_A
     RDKit          3D

 23 24  0  0  0  0  0  0  0  0999 V2000
    2.9320   12.5090   -4.5500 C   0  0  0  0  0  0  0  0  0  0  0  0
    1.4410   12.7920   -4.3990 C   0  0  1  0  0  0  0  0  0  0  0  0
    0.7690   12.3970   -5.6000 O   0  0  0  0  0  0  0  0  0  0  0  0
    0.9250   12.1120   -3.1230 C   0  0  0  0  0  0  0  0  0  0  0  0
    0.5340   10.9670   -2.9900 O   0  0  0  0  0  0  0  0  0  0  0  0
    0.9320   12.9430   -2.0590 O   0  0  0  0  0  0  0  0  0  0  0  0
    1.3500   11.2800   -6.2910 C   0  0  0  0  0  0  0  0  0  0  0  0
    0.5370   10.8420   -7.4600 N   0  0  0  0  0  0  0  0  0  0  0  0
    0.5520    9.4210   -7.5980 N   0  0  0  0  0  0  0  0  0  0  0  0
    1.1210   11.2670   -8.7340 N   0  0  0  0  0  0  0  0  0  0  0  0
   -0.3130    8.7180   -6.6320 C   0  0  0  0  0  0  0  0  0  0  0  0
    1.2300   10.0480   -9.5380 C   0  0  1  0  0  0  0  0  0  0  0  0
    0.2050    9.2070   -8.9810 N   0  0  0  0  0  0  0  0  0  0  0  0
   -1.6270    8.0940   -7.1070 C   0  0  0  0  0  0  0  0  0  0  0  0
    1.0800   10.2980  -10.9520 N   0  0  0  0  0  0  0  0  0  0  0  0
   -2.6380    9.1050   -7.6270 C   0  0  0  0  0  0  0  0  0  0  0  0
    1.9340    9.4250  -11.7840 C   0  0  2  0  0  0  0  0  0  0  0  0
    2.7010    8.6250  -10.8880 O   0  0  0  0  0  0  0  0  0  0  0  0
    2.9200   10.1210  -12.7740 C   0  0  1  0  0  0  0  0  0  0  0  0
    3.2470    9.3800  -13.9370 O   0  0  0  0  0  0  0  0  0  0  0  0
    2.5660   11.5120  -13.2890 C   0  0  0  0  0  0  0  0  0  0  0  0
    3.4800   11.6540  -14.4930 C   0  0  0  0  0  0  0  0  0  0  0  0
    4.1120   10.2780  -14.6380 C   0  0  0  0  0  0  0  0  0  0  0  0
  2  1  1  6
  2  3  1  0
  2  4  1  0
  4  5  2  0
  4  6  1  0
  3  7  1  0
  7  8  1  0
  8  9  1  0
  8 10  1  0
  9 11  1  0
 10 12  1  0
  9 13  1  0
 12 13  1  0
 11 14  1  0
 12 15  1  6
 14 16  1  0
 15 17  1  0
 17 18  1  1
 17 19  1  0
 19 20  1  0
 19 21  1  6
 21 22  1  0
 20 23  1  0
 22 23  1  0
M  END
