x0950_1_A_α-x0290_0_A_α
     RDKit          3D

 21 21  0  0  0  0  0  0  0  0999 V2000
    0.9140   13.9090   -4.9330 C   0  0  0  0  0  0  0  0  0  0  0  0
    1.3250   12.5050   -4.5230 C   0  0  2  0  0  0  0  0  0  0  0  0
    0.7710   11.6360   -5.5130 O   0  0  0  0  0  0  0  0  0  0  0  0
    0.8570   12.0570   -3.1230 C   0  0  0  0  0  0  0  0  0  0  0  0
    0.1530   11.0630   -2.9520 O   0  0  0  0  0  0  0  0  0  0  0  0
    1.3050   12.8370   -2.1010 O   0  0  0  0  0  0  0  0  0  0  0  0
    1.7380   14.1660   -2.4240 C   0  0  0  0  0  0  0  0  0  0  0  0
    0.5300   15.1030   -2.6060 C   0  0  0  0  0  0  0  0  0  0  0  0
   -0.8610   14.4920   -2.3730 C   0  0  0  0  0  0  0  0  0  0  0  0
   -1.2290   14.5140   -0.9180 C   0  0  0  0  0  0  0  0  0  0  0  0
   -0.2240   14.4460    0.0370 C   0  0  0  0  0  0  0  0  0  0  0  0
   -2.5640   14.6020   -0.4880 C   0  0  0  0  0  0  0  0  0  0  0  0
   -0.5730   14.4680    1.3640 C   0  0  0  0  0  0  0  0  0  0  0  0
   -2.8330   14.6180    0.8730 C   0  0  0  0  0  0  0  0  0  0  0  0
   -4.1240   14.6960    1.3870 N   0  0  0  0  0  0  0  0  0  0  0  0
   -1.8460   14.5540    1.8030 N   0  0  0  0  0  0  0  0  0  0  0  0
   -5.3020   14.4630    0.7160 C   0  0  0  0  0  0  0  0  0  0  0  0
   -5.4710   14.5210   -0.4970 O   0  0  0  0  0  0  0  0  0  0  0  0
   -6.4630   14.0850    1.6530 C   0  0  0  0  0  0  0  0  0  0  0  0
   -7.6980   13.7750    0.8870 N   0  0  0  0  0  0  0  0  0  0  0  0
   -8.5640   14.9390    0.7670 C   0  0  0  0  0  0  0  0  0  0  0  0
  2  1  1  6
  2  3  1  0
  2  4  1  0
  4  5  2  0
  4  6  1  0
  6  7  1  0
  7  8  1  0
  8  9  1  0
  9 10  1  0
 10 11  2  0
 10 12  1  0
 11 13  1  0
 12 14  2  0
 14 15  1  0
 13 16  2  0
 14 16  1  0
 15 17  1  0
 17 18  2  0
 17 19  1  0
 19 20  1  0
 20 21  1  0
M  END
