x0950_1_A-x0727_0_A
     RDKit          3D

 13 13  0  0  0  0  0  0  0  0999 V2000
    1.2720   14.0390   -4.7170 C   0  0  0  0  0  0  0  0  0  0  0  0
    1.2880   12.5260   -4.6060 C   0  0  2  0  0  0  0  0  0  0  0  0
    0.2530   11.9640   -5.4440 O   0  0  0  0  0  0  0  0  0  0  0  0
    0.9800   12.0950   -3.1660 C   0  0  0  0  0  0  0  0  0  0  0  0
    0.2990   11.1250   -2.8620 O   0  0  0  0  0  0  0  0  0  0  0  0
    1.5330   12.8930   -2.2250 O   0  0  0  0  0  0  0  0  0  0  0  0
    0.6010   11.2800   -6.5750 C   0  0  0  0  0  0  0  0  0  0  0  0
    1.6130   11.4420   -7.2130 O   0  0  0  0  0  0  0  0  0  0  0  0
   -0.4890   10.2880   -6.9090 C   0  0  0  0  0  0  0  0  0  0  0  0
   -0.9730   10.2320   -8.3430 C   0  0  0  0  0  0  0  0  0  0  0  0
   -0.1680    8.8270   -6.6320 C   0  0  0  0  0  0  0  0  0  0  0  0
   -1.9350    9.0410   -8.2850 C   0  0  0  0  0  0  0  0  0  0  0  0
   -1.4250    8.1450   -7.1410 C   0  0  0  0  0  0  0  0  0  0  0  0
  2  1  1  1
  2  3  1  0
  2  4  1  0
  4  5  2  0
  4  6  1  0
  3  7  1  0
  7  8  2  0
  7  9  1  0
  9 10  1  0
  9 11  1  0
 10 12  1  0
 11 13  1  0
 12 13  1  0
M  END
