x0950_0_A-x0969_0_A
     RDKit          3D

 19 20  0  0  0  0  0  0  0  0999 V2000
    2.9430   12.4660   -4.0950 C   0  0  0  0  0  0  0  0  0  0  0  0
    1.4400   12.6860   -3.9940 C   0  0  1  0  0  0  0  0  0  0  0  0
    0.8640   12.3430   -5.2570 O   0  0  0  0  0  0  0  0  0  0  0  0
    0.8260   11.8370   -2.8620 C   0  0  0  0  0  0  0  0  0  0  0  0
    0.3150   10.7460   -3.0570 O   0  0  0  0  0  0  0  0  0  0  0  0
    0.9200   12.4250   -1.6290 O   0  0  0  0  0  0  0  0  0  0  0  0
    0.0700   13.5400   -1.3450 C   0  0  0  0  0  0  0  0  0  0  0  0
   -1.3160   13.3280   -1.9500 C   0  0  0  0  0  0  0  0  0  0  0  0
   -2.0360   14.6620   -2.1400 C   0  0  0  0  0  0  0  0  0  0  0  0
   -3.2360   14.7680   -1.2300 C   0  0  0  0  0  0  0  0  0  0  0  0
   -4.5010   14.7130   -1.7040 C   0  0  0  0  0  0  0  0  0  0  0  0
   -2.9820   14.9070    0.2050 C   0  0  0  0  0  0  0  0  0  0  0  0
   -5.5960   14.7320   -0.8010 C   0  0  0  0  0  0  0  0  0  0  0  0
   -4.0170   14.9360    1.0550 C   0  0  0  0  0  0  0  0  0  0  0  0
   -6.8960   14.6540   -0.9800 N   0  0  0  0  0  0  0  0  0  0  0  0
   -5.3150   14.8270    0.5530 N   0  0  0  0  0  0  0  0  0  0  0  0
   -6.5550   14.7800    1.1690 C   0  0  0  0  0  0  0  0  0  0  0  0
   -7.4940   14.6820    0.2600 N   0  0  0  0  0  0  0  0  0  0  0  0
   -6.7370   14.8340    2.5060 N   0  0  0  0  0  0  0  0  0  0  0  0
  2  1  1  6
  2  3  1  0
  2  4  1  0
  4  5  2  0
  4  6  1  0
  6  7  1  0
  7  8  1  0
  8  9  1  0
  9 10  1  0
 10 11  2  0
 10 12  1  0
 11 13  1  0
 12 14  2  0
 13 15  2  0
 13 16  1  0
 14 16  1  0
 16 17  1  0
 15 18  1  0
 17 18  2  0
 17 19  1  0
M  END
