x0950_0_A_α-x0933_0_A_α
     RDKit          3D

 16 16  0  0  0  0  0  0  0  0999 V2000
    2.7730   13.0240   -4.1890 C   0  0  0  0  0  0  0  0  0  0  0  0
    1.2750   12.7940   -4.2380 C   0  0  1  0  0  0  0  0  0  0  0  0
    0.9600   12.1080   -5.4480 O   0  0  0  0  0  0  0  0  0  0  0  0
    0.8150   12.0370   -2.9810 C   0  0  0  0  0  0  0  0  0  0  0  0
    0.2620   10.9480   -2.9700 O   0  0  0  0  0  0  0  0  0  0  0  0
    1.1230   12.7530   -1.8510 O   0  0  0  0  0  0  0  0  0  0  0  0
    0.7620   14.1440   -1.8480 C   0  0  0  0  0  0  0  0  0  0  0  0
   -0.6970   14.3010   -2.2930 C   0  0  0  0  0  0  0  0  0  0  0  0
   -1.5560   15.3490   -1.5580 C   0  0  0  0  0  0  0  0  0  0  0  0
   -2.7260   14.7700   -0.7250 C   0  0  2  0  0  0  0  0  0  0  0  0
   -4.1250   15.0870   -1.3050 C   0  0  0  0  0  0  0  0  0  0  0  0
   -2.6450   15.2250    0.7480 C   0  0  0  0  0  0  0  0  0  0  0  0
   -5.1930   14.6180   -0.4300 N   0  0  0  0  0  0  0  0  0  0  0  0
   -3.7770   14.6680    1.4650 N   0  0  0  0  0  0  0  0  0  0  0  0
   -4.9920   15.1090    0.8830 C   0  0  2  0  0  0  0  0  0  0  0  0
   -6.0570   14.5730    1.6560 N   0  0  0  0  0  0  0  0  0  0  0  0
  2  1  1  1
  2  3  1  0
  2  4  1  0
  4  5  2  0
  4  6  1  0
  6  7  1  0
  7  8  1  0
  8  9  1  0
 10  9  1  6
 10 11  1  0
 10 12  1  0
 11 13  1  0
 12 14  1  0
 13 15  1  0
 14 15  1  0
 15 16  1  1
M  END
