x0950_1_A-x0905_0_A
     RDKit          3D

 16 16  0  0  0  0  0  0  0  0999 V2000
    1.1210   13.9820   -4.6770 C   0  0  0  0  0  0  0  0  0  0  0  0
    1.3210   12.5170   -4.3160 C   0  0  2  0  0  0  0  0  0  0  0  0
    0.7070   11.7350   -5.3370 O   0  0  0  0  0  0  0  0  0  0  0  0
    0.8140   12.2000   -2.8940 C   0  0  0  0  0  0  0  0  0  0  0  0
    0.2720   11.1500   -2.5580 O   0  0  0  0  0  0  0  0  0  0  0  0
    1.0610   13.2540   -2.0460 O   0  0  0  0  0  0  0  0  0  0  0  0
    0.0860   13.5220   -1.0100 C   0  0  0  0  0  0  0  0  0  0  0  0
   -0.5390   14.9260   -1.0700 C   0  0  0  0  0  0  0  0  0  0  0  0
   -1.4420   15.2850    0.1300 C   0  0  0  0  0  0  0  0  0  0  0  0
   -2.9360   15.2630   -0.1460 C   0  0  0  0  0  0  0  0  0  0  0  0
   -3.8730   15.0930    0.8780 C   0  0  0  0  0  0  0  0  0  0  0  0
   -3.4390   15.4090   -1.4460 C   0  0  0  0  0  0  0  0  0  0  0  0
   -5.2170   15.0600    0.6830 N   0  0  0  0  0  0  0  0  0  0  0  0
   -4.8140   15.3760   -1.6710 C   0  0  0  0  0  0  0  0  0  0  0  0
   -5.6350   15.2010   -0.5840 C   0  0  0  0  0  0  0  0  0  0  0  0
   -6.9830   15.1590   -0.7350 O   0  0  0  0  0  0  0  0  0  0  0  0
  2  1  1  6
  2  3  1  0
  2  4  1  0
  4  5  2  0
  4  6  1  0
  6  7  1  0
  7  8  1  0
  8  9  1  0
  9 10  1  0
 10 11  2  0
 10 12  1  0
 11 13  1  0
 12 14  2  0
 13 15  2  0
 14 15  1  0
 15 16  1  0
M  END
