x0950_0_A-x0592_0_A
     RDKit          3D

 19 19  0  0  0  0  0  0  0  0999 V2000
    2.9440   12.5050   -4.0980 C   0  0  0  0  0  0  0  0  0  0  0  0
    1.4490   12.7490   -3.9740 C   0  0  1  0  0  0  0  0  0  0  0  0
    0.8580   12.3680   -5.2240 O   0  0  0  0  0  0  0  0  0  0  0  0
    0.8110   11.9650   -2.8120 C   0  0  0  0  0  0  0  0  0  0  0  0
    0.4960   10.7850   -2.9150 O   0  0  0  0  0  0  0  0  0  0  0  0
    0.6350   12.7060   -1.6720 O   0  0  0  0  0  0  0  0  0  0  0  0
   -0.7340   12.9950   -1.3150 C   0  0  0  0  0  0  0  0  0  0  0  0
   -1.0800   14.4870   -1.2310 C   0  0  0  0  0  0  0  0  0  0  0  0
   -2.5430   14.6170   -1.2080 N   0  0  0  0  0  0  0  0  0  0  0  0
   -3.2110   14.7820   -0.1210 C   0  0  0  0  0  0  0  0  0  0  0  0
   -2.7820   14.8850    1.1730 N   0  0  0  0  0  0  0  0  0  0  0  0
   -4.6570   14.8590   -0.2600 C   0  0  0  0  0  0  0  0  0  0  0  0
   -5.4770   15.2430   -1.3520 C   0  0  0  0  0  0  0  0  0  0  0  0
   -5.5780   14.5400    0.7210 C   0  0  0  0  0  0  0  0  0  0  0  0
   -6.7860   15.1710   -1.0840 N   0  0  0  0  0  0  0  0  0  0  0  0
   -6.8150   14.7390    0.1950 N   0  0  0  0  0  0  0  0  0  0  0  0
   -8.0850   14.5330    0.8690 C   0  0  0  0  0  0  0  0  0  0  0  0
   -7.8810   14.0820    2.3160 C   0  0  0  0  0  0  0  0  0  0  0  0
   -7.1480   15.0450    3.0690 O   0  0  0  0  0  0  0  0  0  0  0  0
  2  1  1  6
  2  3  1  0
  2  4  1  0
  4  5  2  0
  4  6  1  0
  6  7  1  0
  7  8  1  0
  8  9  1  0
  9 10  2  3
 10 11  1  0
 10 12  1  0
 12 13  1  0
 12 14  2  0
 13 15  2  0
 14 16  1  0
 15 16  1  0
 16 17  1  0
 17 18  1  0
 18 19  1  0
M  END
