x0950_0_A_α-x0895_0_A_α
     RDKit          3D

 16 16  0  0  0  0  0  0  0  0999 V2000
    2.9040   12.9420   -4.2510 C   0  0  0  0  0  0  0  0  0  0  0  0
    1.4200   12.8380   -4.5140 C   0  0  1  0  0  0  0  0  0  0  0  0
    1.1730   11.9700   -5.6150 O   0  0  0  0  0  0  0  0  0  0  0  0
    0.7010   12.3900   -3.2550 C   0  0  0  0  0  0  0  0  0  0  0  0
    0.5070   11.2150   -2.9360 O   0  0  0  0  0  0  0  0  0  0  0  0
    0.3220   13.4880   -2.5600 O   0  0  0  0  0  0  0  0  0  0  0  0
    0.6120   13.4650   -1.1750 C   0  0  0  0  0  0  0  0  0  0  0  0
   -0.5600   14.0590   -0.4140 C   0  0  0  0  0  0  0  0  0  0  0  0
   -0.2600   14.3230    1.0600 C   0  0  0  0  0  0  0  0  0  0  0  0
   -1.5140   14.4740    1.8060 N   0  0  0  0  0  0  0  0  0  0  0  0
   -2.6160   14.7160    1.1870 C   0  0  0  0  0  0  0  0  0  0  0  0
   -4.0060   14.9010    1.7490 C   0  0  0  0  0  0  0  0  0  0  0  0
   -2.6830   14.8440   -0.1590 N   0  0  0  0  0  0  0  0  0  0  0  0
   -4.6410   15.4780    0.6070 N   0  0  0  0  0  0  0  0  0  0  0  0
   -3.9270   15.2180   -0.5310 C   0  0  0  0  0  0  0  0  0  0  0  0
   -4.3520   15.3020   -1.6670 O   0  0  0  0  0  0  0  0  0  0  0  0
  2  1  1  1
  2  3  1  0
  2  4  1  0
  4  5  2  0
  4  6  1  0
  6  7  1  0
  7  8  1  0
  8  9  1  0
  9 10  1  0
 10 11  2  3
 11 12  1  0
 11 13  1  0
 12 14  1  0
 13 15  1  0
 14 15  1  0
 15 16  2  0
M  END
