x0950_0_A_α-x0253_0_A_α
     RDKit          3D

 15 15  0  0  0  0  0  0  0  0999 V2000
    2.7300   12.3480   -4.5020 C   0  0  0  0  0  0  0  0  0  0  0  0
    1.2290   12.6080   -4.3710 C   0  0  1  0  0  0  0  0  0  0  0  0
    0.4670   11.9210   -5.4140 O   0  0  0  0  0  0  0  0  0  0  0  0
    0.7580   12.0820   -3.0180 C   0  0  0  0  0  0  0  0  0  0  0  0
    0.2350   10.9990   -2.8390 O   0  0  0  0  0  0  0  0  0  0  0  0
    0.9760   12.9490   -1.9970 O   0  0  0  0  0  0  0  0  0  0  0  0
    1.1530   11.7680   -6.5730 C   0  0  0  0  0  0  0  0  0  0  0  0
    2.2310   12.2720   -6.7200 O   0  0  0  0  0  0  0  0  0  0  0  0
    0.4790   10.9000   -7.6080 C   0  0  0  0  0  0  0  0  0  0  0  0
   -0.6230   10.1360   -7.2250 C   0  0  0  0  0  0  0  0  0  0  0  0
    0.9060   10.8070   -8.9460 C   0  0  0  0  0  0  0  0  0  0  0  0
   -1.2750    9.2810   -8.1260 C   0  0  0  0  0  0  0  0  0  0  0  0
    0.2590    9.9670   -9.8510 C   0  0  0  0  0  0  0  0  0  0  0  0
   -2.4440    8.4550   -7.6730 C   0  0  0  0  0  0  0  0  0  0  0  0
   -0.8240    9.2040   -9.4420 C   0  0  0  0  0  0  0  0  0  0  0  0
  2  1  1  6
  2  3  1  0
  2  4  1  0
  4  5  2  0
  4  6  1  0
  3  7  1  0
  7  8  2  0
  7  9  1  0
  9 10  2  0
  9 11  1  0
 10 12  1  0
 11 13  2  0
 12 14  1  0
 12 15  2  0
 13 15  1  0
M  END
