x0950_1_A_α-x0689_0_A_α
     RDKit          3D

 15 15  0  0  0  0  0  0  0  0999 V2000
    1.1610   14.0850   -4.5300 C   0  0  0  0  0  0  0  0  0  0  0  0
    1.3990   12.6240   -4.1800 C   0  0  2  0  0  0  0  0  0  0  0  0
    0.8290   11.8410   -5.2320 O   0  0  0  0  0  0  0  0  0  0  0  0
    0.8350   12.2370   -2.7890 C   0  0  0  0  0  0  0  0  0  0  0  0
   -0.0270   11.3860   -2.6110 O   0  0  0  0  0  0  0  0  0  0  0  0
    1.4470   12.9270   -1.7560 O   0  0  0  0  0  0  0  0  0  0  0  0
    1.0800   14.2930   -1.3990 C   0  0  0  0  0  0  0  0  0  0  0  0
   -0.1700   14.4010   -0.5520 C   0  0  0  0  0  0  0  0  0  0  0  0
   -1.4030   14.4530   -1.1340 C   0  0  0  0  0  0  0  0  0  0  0  0
   -0.2240   14.4620    0.8430 C   0  0  0  0  0  0  0  0  0  0  0  0
   -2.5500   14.5490   -0.4420 N   0  0  0  0  0  0  0  0  0  0  0  0
   -1.3380   14.5500    1.5810 N   0  0  0  0  0  0  0  0  0  0  0  0
   -2.4690   14.5910    0.8920 C   0  0  0  0  0  0  0  0  0  0  0  0
   -3.6710   14.6760    1.5340 N   0  0  0  0  0  0  0  0  0  0  0  0
   -4.6670   15.4380    0.8430 C   0  0  0  0  0  0  0  0  0  0  0  0
  2  1  1  6
  2  3  1  0
  2  4  1  0
  4  5  2  0
  4  6  1  0
  6  7  1  0
  7  8  1  0
  8  9  2  0
  8 10  1  0
  9 11  1  0
 10 12  2  0
 11 13  2  0
 12 13  1  0
 13 14  1  0
 14 15  1  0
M  END
