x0950_1_A-x0685_1_A
     RDKit          3D

 15 15  0  0  0  0  0  0  0  0999 V2000
    0.8600   14.0750   -4.8380 C   0  0  0  0  0  0  0  0  0  0  0  0
    0.5010   12.6200   -4.4900 C   0  0  1  0  0  0  0  0  0  0  0  0
    1.1900   11.8350   -5.4800 O   0  0  0  0  0  0  0  0  0  0  0  0
    1.0520   12.2300   -3.0810 C   0  0  0  0  0  0  0  0  0  0  0  0
   -1.0230   12.3010   -4.6230 C   0  0  0  0  0  0  0  0  0  0  0  0
    0.5390   10.9920   -2.6640 O   0  0  0  0  0  0  0  0  0  0  0  0
    0.7140   13.1780   -2.1010 O   0  0  0  0  0  0  0  0  0  0  0  0
    2.4480   12.2180   -3.0880 O   0  0  0  0  0  0  0  0  0  0  0  0
   -1.2470   10.8590   -4.9460 N   0  0  0  0  0  0  0  0  0  0  0  0
   -0.7610   10.4950   -6.2910 C   0  0  0  0  0  0  0  0  0  0  0  0
   -0.6440    8.9640   -6.4110 C   0  0  0  0  0  0  0  0  0  0  0  0
   -1.6640   11.0000   -7.4180 C   0  0  0  0  0  0  0  0  0  0  0  0
   -0.0180    8.5470   -7.7430 C   0  0  0  0  0  0  0  0  0  0  0  0
   -1.0920   10.6070   -8.7840 C   0  0  0  0  0  0  0  0  0  0  0  0
   -0.7980    9.1070   -8.9310 C   0  0  0  0  0  0  0  0  0  0  0  0
  2  1  1  6
  2  3  1  0
  2  4  1  0
  2  5  1  0
  4  6  1  0
  4  7  1  0
  4  8  1  0
  5  9  1  0
  9 10  1  0
 10 11  1  0
 10 12  1  0
 11 13  1  0
 12 14  1  0
 13 15  1  0
 14 15  1  0
M  END
