x0950_0_A-x0950_1_A
     RDKit          3D

  7  6  0  0  0  0  0  0  0  0999 V2000
    2.9690   12.8890   -4.1020 C   0  0  0  0  0  0  0  0  0  0  0  0
    1.4710   12.8490   -4.3440 C   0  0  0  0  0  0  0  0  0  0  0  0
    1.1960   12.0510   -5.5000 O   0  0  0  0  0  0  0  0  0  0  0  0
    0.7940   12.2400   -3.1060 C   0  0  0  0  0  0  0  0  0  0  0  0
    0.9370   14.2360   -4.6660 C   0  0  0  0  0  0  0  0  0  0  0  0
    0.4170   11.0800   -3.0730 O   0  0  0  0  0  0  0  0  0  0  0  0
    0.6450   13.0660   -2.0530 O   0  0  0  0  0  0  0  0  0  0  0  0
  1  2  1  0
  2  3  1  0
  2  4  1  0
  2  5  1  0
  4  6  2  0
  4  7  1  0
M  END
