x0950_1_A_α-x0727_0_A_α
     RDKit          3D

 13 13  0  0  0  0  0  0  0  0999 V2000
    1.1860   14.0660   -4.7200 C   0  0  0  0  0  0  0  0  0  0  0  0
    1.2340   12.5490   -4.6180 C   0  0  2  0  0  0  0  0  0  0  0  0
    0.1980   11.9750   -5.4410 O   0  0  0  0  0  0  0  0  0  0  0  0
    0.9440   12.1120   -3.1740 C   0  0  0  0  0  0  0  0  0  0  0  0
    0.2660   11.1400   -2.8650 O   0  0  0  0  0  0  0  0  0  0  0  0
    1.5100   12.9100   -2.2390 O   0  0  0  0  0  0  0  0  0  0  0  0
    0.5450   11.3000   -6.5790 C   0  0  0  0  0  0  0  0  0  0  0  0
    1.5590   11.4680   -7.2240 O   0  0  0  0  0  0  0  0  0  0  0  0
   -0.5470   10.3060   -6.9160 C   0  0  0  0  0  0  0  0  0  0  0  0
   -1.0130   10.2480   -8.3510 C   0  0  0  0  0  0  0  0  0  0  0  0
   -0.2310    8.8480   -6.6250 C   0  0  0  0  0  0  0  0  0  0  0  0
   -1.9700    9.0530   -8.3120 C   0  0  0  0  0  0  0  0  0  0  0  0
   -1.4750    8.1620   -7.1600 C   0  0  0  0  0  0  0  0  0  0  0  0
  2  1  1  1
  2  3  1  0
  2  4  1  0
  4  5  2  0
  4  6  1  0
  3  7  1  0
  7  8  2  0
  7  9  1  0
  9 10  1  0
  9 11  1  0
 10 12  1  0
 11 13  1  0
 12 13  1  0
M  END
