x0950_0_A-x0465_0_A
     RDKit          3D

 13 13  0  0  0  0  0  0  0  0999 V2000
    2.5930   12.9570   -4.5980 C   0  0  0  0  0  0  0  0  0  0  0  0
    1.1010   12.6310   -4.5610 C   0  0  1  0  0  0  0  0  0  0  0  0
    0.7830   11.6460   -5.5710 O   0  0  0  0  0  0  0  0  0  0  0  0
    0.7960   12.0550   -3.1730 C   0  0  0  0  0  0  0  0  0  0  0  0
    0.2800   10.9680   -2.9620 O   0  0  0  0  0  0  0  0  0  0  0  0
    1.1520   12.8890   -2.1640 O   0  0  0  0  0  0  0  0  0  0  0  0
   -0.4400   10.9930   -5.6290 C   0  0  0  0  0  0  0  0  0  0  0  0
   -0.5290    9.9280   -6.5530 C   0  0  0  0  0  0  0  0  0  0  0  0
   -1.5770   11.2890   -4.8700 C   0  0  0  0  0  0  0  0  0  0  0  0
    0.5230    9.5960   -7.3150 F   0  0  0  0  0  0  0  0  0  0  0  0
   -1.6970    9.1850   -6.7120 C   0  0  0  0  0  0  0  0  0  0  0  0
   -2.7550   10.5400   -5.0320 C   0  0  0  0  0  0  0  0  0  0  0  0
   -2.8150    9.4920   -5.9500 C   0  0  0  0  0  0  0  0  0  0  0  0
  2  1  1  1
  2  3  1  0
  2  4  1  0
  4  5  2  0
  4  6  1  0
  3  7  1  0
  7  8  2  0
  7  9  1  0
  8 10  1  0
  8 11  1  0
  9 12  2  0
 11 13  2  0
 12 13  1  0
M  END
