x0950_1_A-x0626_0_A
     RDKit          3D

 19 19  0  0  0  0  0  0  0  0999 V2000
    1.0140   13.9600   -4.7300 C   0  0  0  0  0  0  0  0  0  0  0  0
    1.3340   12.4940   -4.4950 C   0  0  2  0  0  0  0  0  0  0  0  0
    0.6900   11.7300   -5.5110 O   0  0  0  0  0  0  0  0  0  0  0  0
    0.9490   12.0330   -3.0760 C   0  0  0  0  0  0  0  0  0  0  0  0
    0.3660   10.9890   -2.8210 O   0  0  0  0  0  0  0  0  0  0  0  0
    1.3490   12.9430   -2.1420 O   0  0  0  0  0  0  0  0  0  0  0  0
    0.4070   13.9980   -1.9120 C   0  0  0  0  0  0  0  0  0  0  0  0
    0.7070   14.8090   -0.6570 C   0  0  0  0  0  0  0  0  0  0  0  0
   -0.0920   14.4460    0.6050 C   0  0  0  0  0  0  0  0  0  0  0  0
   -1.5430   14.6180    0.3450 C   0  0  0  0  0  0  0  0  0  0  0  0
   -2.4670   14.6410    1.3780 N   0  0  0  0  0  0  0  0  0  0  0  0
   -2.0660   14.7630   -0.9220 C   0  0  0  0  0  0  0  0  0  0  0  0
   -3.6680   14.7990    0.8370 C   0  0  0  0  0  0  0  0  0  0  0  0
   -3.7560   14.9340   -0.8570 S   0  0  0  0  0  0  0  0  0  0  0  0
   -4.8900   14.8720    1.4280 N   0  0  0  0  0  0  0  0  0  0  0  0
   -6.0870   14.7020    0.7930 C   0  0  0  0  0  0  0  0  0  0  0  0
   -6.1440   14.8410   -0.4330 O   0  0  0  0  0  0  0  0  0  0  0  0
   -7.3150   14.3540    1.6170 C   0  0  0  0  0  0  0  0  0  0  0  0
   -8.6120   14.5770    0.8510 C   0  0  0  0  0  0  0  0  0  0  0  0
  2  1  1  1
  2  3  1  0
  2  4  1  0
  4  5  2  0
  4  6  1  0
  6  7  1  0
  7  8  1  0
  8  9  1  0
  9 10  1  0
 10 11  1  0
 10 12  2  0
 11 13  2  0
 12 14  1  0
 13 14  1  0
 13 15  1  0
 15 16  1  0
 16 17  2  0
 16 18  1  0
 18 19  1  0
M  END
