x0950_1_A_α-x0631_0_A_β
     RDKit          3D

 16 16  0  0  0  0  0  0  0  0999 V2000
    0.8320   13.8970   -4.7800 C   0  0  0  0  0  0  0  0  0  0  0  0
    1.3060   12.4710   -4.5400 C   0  0  2  0  0  0  0  0  0  0  0  0
    0.7410   11.6620   -5.5710 O   0  0  0  0  0  0  0  0  0  0  0  0
    0.9870   12.0260   -3.0970 C   0  0  0  0  0  0  0  0  0  0  0  0
    0.3940   11.0030   -2.8040 O   0  0  0  0  0  0  0  0  0  0  0  0
    1.4260   12.8870   -2.1490 O   0  0  0  0  0  0  0  0  0  0  0  0
   -0.6110   11.2430   -5.3460 C   0  0  0  0  0  0  0  0  0  0  0  0
   -0.6940    9.7120   -5.2130 C   0  0  0  0  0  0  0  0  0  0  0  0
   -0.4010    8.8840   -6.5100 C   0  0  1  0  0  0  0  0  0  0  0  0
   -1.6200    7.9990   -6.8500 C   0  0  0  0  0  0  0  0  0  0  0  0
   -0.0100    9.7110   -7.6840 N   0  0  0  0  0  0  0  0  0  0  0  0
   -2.7180    8.7940   -7.5440 C   0  0  0  0  0  0  0  0  0  0  0  0
    0.8290    9.0880   -8.6600 N   0  0  0  0  0  0  0  0  0  0  0  0
    0.6070   10.9400   -7.4240 N   0  0  0  0  0  0  0  0  0  0  0  0
    1.0310   10.2260   -9.5610 C   0  0  0  0  0  0  0  0  0  0  0  0
    0.7700   11.4310   -8.7570 N   0  0  0  0  0  0  0  0  0  0  0  0
  2  1  1  6
  2  3  1  0
  2  4  1  0
  4  5  2  0
  4  6  1  0
  3  7  1  0
  7  8  1  0
  9  8  1  1
  9 10  1  0
  9 11  1  0
 10 12  1  0
 11 13  1  0
 11 14  1  0
 13 15  1  0
 14 16  1  0
 15 16  1  0
M  END
