x0950_0_A_α-x0159_0_B_β
     RDKit          3D

 20 21  0  0  0  0  0  0  0  0999 V2000
    3.0860   12.2330   -4.6590 C   0  0  0  0  0  0  0  0  0  0  0  0
    1.7790   12.9420   -4.3780 C   0  0  1  0  0  0  0  0  0  0  0  0
    0.9680   13.0140   -5.5880 O   0  0  0  0  0  0  0  0  0  0  0  0
    0.9980   12.2180   -3.2720 C   0  0  0  0  0  0  0  0  0  0  0  0
    0.5200   11.0990   -3.3220 O   0  0  0  0  0  0  0  0  0  0  0  0
    0.8850   12.9770   -2.1480 O   0  0  0  0  0  0  0  0  0  0  0  0
    0.6770   11.8090   -6.3190 C   0  0  0  0  0  0  0  0  0  0  0  0
    1.7650   11.3840   -7.3350 C   0  0  0  0  0  0  0  0  0  0  0  0
    1.2290   10.9120   -8.7140 C   0  0  0  0  0  0  0  0  0  0  0  0
    1.2870    9.3960   -8.8330 C   0  0  0  0  0  0  0  0  0  0  0  0
    1.2180    8.9290  -10.2060 N   0  0  0  0  0  0  0  0  0  0  0  0
    2.0670    9.2510  -11.2110 C   0  0  0  0  0  0  0  0  0  0  0  0
    1.9220   10.4540  -11.8500 N   0  0  0  0  0  0  0  0  0  0  0  0
    3.0610    8.5570  -11.7230 N   0  0  0  0  0  0  0  0  0  0  0  0
    2.8690   10.5370  -12.8370 C   0  0  0  0  0  0  0  0  0  0  0  0
    3.5700    9.3390  -12.7380 C   0  0  0  0  0  0  0  0  0  0  0  0
    3.1590   11.5270  -13.7750 C   0  0  0  0  0  0  0  0  0  0  0  0
    4.6320    9.0980  -13.6240 C   0  0  0  0  0  0  0  0  0  0  0  0
    4.2160   11.2690  -14.6500 C   0  0  0  0  0  0  0  0  0  0  0  0
    4.9430   10.0760  -14.5800 C   0  0  0  0  0  0  0  0  0  0  0  0
  2  1  1  6
  2  3  1  0
  2  4  1  0
  4  5  2  0
  4  6  1  0
  3  7  1  0
  7  8  1  0
  8  9  1  0
  9 10  1  0
 10 11  1  0
 11 12  1  0
 12 13  1  0
 12 14  2  0
 13 15  1  0
 14 16  1  0
 15 16  2  0
 15 17  1  0
 16 18  1  0
 17 19  2  0
 18 20  2  0
 19 20  1  0
M  END
