x0950_1_A-x0371_0_A
     RDKit          3D

 27 29  0  0  0  0  0  0  0  0999 V2000
    1.1350   13.9640   -4.7480 C   0  0  0  0  0  0  0  0  0  0  0  0
    1.3560   12.5100   -4.3690 C   0  0  2  0  0  0  0  0  0  0  0  0
    0.6780   11.6990   -5.3330 O   0  0  0  0  0  0  0  0  0  0  0  0
    0.8830   12.1710   -2.9450 C   0  0  0  0  0  0  0  0  0  0  0  0
    0.2800   11.1360   -2.6660 O   0  0  0  0  0  0  0  0  0  0  0  0
    1.2230   13.1430   -2.0520 O   0  0  0  0  0  0  0  0  0  0  0  0
    0.1810   13.5410   -1.1320 C   0  0  0  0  0  0  0  0  0  0  0  0
   -0.4040   14.8810   -1.5890 C   0  0  0  0  0  0  0  0  0  0  0  0
   -1.1890   15.6210   -0.4940 C   0  0  0  0  0  0  0  0  0  0  0  0
   -2.6990   15.4390   -0.5590 C   0  0  0  0  0  0  0  0  0  0  0  0
   -3.3930   15.0820    0.6080 C   0  0  0  0  0  0  0  0  0  0  0  0
   -3.4090   15.6170   -1.7630 C   0  0  0  0  0  0  0  0  0  0  0  0
   -4.7730   14.9160    0.5060 C   0  0  0  0  0  0  0  0  0  0  0  0
   -4.8050   15.4420   -1.8280 C   0  0  0  0  0  0  0  0  0  0  0  0
   -5.7080   14.5770    1.4340 N   0  0  0  0  0  0  0  0  0  0  0  0
   -5.4940   15.0850   -0.6650 C   0  0  0  0  0  0  0  0  0  0  0  0
   -6.9350   14.5450    0.8290 C   0  0  0  0  0  0  0  0  0  0  0  0
   -6.8360   14.8520   -0.4550 N   0  0  0  0  0  0  0  0  0  0  0  0
   -8.1620   14.2050    1.5920 C   0  0  0  0  0  0  0  0  0  0  0  0
   -7.8950   14.5380    2.9700 N   0  0  0  0  0  0  0  0  0  0  0  0
   -8.6730   15.4880    3.6010 C   0  0  0  0  0  0  0  0  0  0  0  0
   -9.4010   16.2400    2.9520 O   0  0  0  0  0  0  0  0  0  0  0  0
   -8.5710   15.5180    5.0450 C   0  0  0  0  0  0  0  0  0  0  0  0
   -8.0070   14.4360    5.6630 O   0  0  0  0  0  0  0  0  0  0  0  0
   -8.9320   16.4450    6.0060 C   0  0  0  0  0  0  0  0  0  0  0  0
   -8.5680   15.8930    7.2610 C   0  0  0  0  0  0  0  0  0  0  0  0
   -8.0060   14.6710    6.9940 C   0  0  0  0  0  0  0  0  0  0  0  0
  2  1  1  6
  2  3  1  0
  2  4  1  0
  4  5  2  0
  4  6  1  0
  6  7  1  0
  7  8  1  0
  8  9  1  0
  9 10  1  0
 10 11  2  0
 10 12  1  0
 11 13  1  0
 12 14  2  0
 13 15  1  0
 13 16  2  0
 14 16  1  0
 15 17  1  0
 16 18  1  0
 17 18  2  0
 17 19  1  0
 19 20  1  0
 20 21  1  0
 21 22  2  0
 21 23  1  0
 23 24  1  0
 23 25  2  0
 25 26  1  0
 24 27  1  0
 26 27  2  0
M  END
