x0950_0_A_α-EU0569_0_A_α
     RDKit          3D

 22 23  0  0  0  0  0  0  0  0999 V2000
    2.8300   12.9050   -3.8640 C   0  0  0  0  0  0  0  0  0  0  0  0
    1.3140   12.8060   -3.9560 C   0  0  1  0  0  0  0  0  0  0  0  0
    0.9600   12.3560   -5.2640 O   0  0  0  0  0  0  0  0  0  0  0  0
    0.7610   11.9070   -2.8290 C   0  0  0  0  0  0  0  0  0  0  0  0
    0.2940   10.7940   -3.0110 O   0  0  0  0  0  0  0  0  0  0  0  0
    0.8510   12.4970   -1.5890 O   0  0  0  0  0  0  0  0  0  0  0  0
    0.0950   13.7030   -1.4150 C   0  0  0  0  0  0  0  0  0  0  0  0
   -0.8550   13.4790   -0.2420 C   0  0  0  0  0  0  0  0  0  0  0  0
   -1.5040   14.7420    0.2580 C   0  0  0  0  0  0  0  0  0  0  0  0
   -3.0090   14.8310    0.0430 C   0  0  0  0  0  0  0  0  0  0  0  0
   -3.8540   14.8470    1.1600 C   0  0  0  0  0  0  0  0  0  0  0  0
   -3.5910   14.9010   -1.2360 C   0  0  0  0  0  0  0  0  0  0  0  0
   -5.2380   14.9280    1.0060 C   0  0  0  0  0  0  0  0  0  0  0  0
   -4.9830   14.9780   -1.3890 C   0  0  0  0  0  0  0  0  0  0  0  0
   -6.1050   14.9670    2.1690 C   0  0  0  0  0  0  0  0  0  0  0  0
   -5.8070   14.9880   -0.2630 C   0  0  0  0  0  0  0  0  0  0  0  0
   -7.1650   15.0600   -0.4640 O   0  0  0  0  0  0  0  0  0  0  0  0
   -7.4210   14.8410    1.9930 C   0  0  0  0  0  0  0  0  0  0  0  0
   -8.3570   14.9380    3.1340 C   0  0  0  0  0  0  0  0  0  0  0  0
   -8.0080   14.6310    0.6320 C   0  0  0  0  0  0  0  0  0  0  0  0
   -7.7960   14.7920    4.3590 N   0  0  0  0  0  0  0  0  0  0  0  0
   -9.5550   15.1550    2.9930 O   0  0  0  0  0  0  0  0  0  0  0  0
  2  1  1  6
  2  3  1  0
  2  4  1  0
  4  5  2  0
  4  6  1  0
  6  7  1  0
  7  8  1  0
  8  9  1  0
  9 10  1  0
 10 11  2  0
 10 12  1  0
 11 13  1  0
 12 14  2  0
 13 15  1  0
 13 16  2  0
 14 16  1  0
 16 17  1  0
 15 18  2  0
 18 19  1  0
 17 20  1  0
 18 20  1  0
 19 21  1  0
 19 22  2  0
M  END
