x0950_1_A-x0962_0_A
     RDKit          3D

 16 16  0  0  0  0  0  0  0  0999 V2000
    0.9730   13.9070   -4.9280 C   0  0  0  0  0  0  0  0  0  0  0  0
    1.3390   12.4890   -4.5250 C   0  0  2  0  0  0  0  0  0  0  0  0
    0.8130   11.6330   -5.5370 O   0  0  0  0  0  0  0  0  0  0  0  0
    0.8620   12.0670   -3.1150 C   0  0  0  0  0  0  0  0  0  0  0  0
    0.0710   11.1540   -2.9100 O   0  0  0  0  0  0  0  0  0  0  0  0
    1.4330   12.7980   -2.1100 O   0  0  0  0  0  0  0  0  0  0  0  0
    1.7390   14.1800   -2.3340 C   0  0  0  0  0  0  0  0  0  0  0  0
    0.5000   15.0880   -2.3170 C   0  0  0  0  0  0  0  0  0  0  0  0
   -0.7750   14.5290   -2.9670 C   0  0  0  0  0  0  0  0  0  0  0  0
   -1.9480   14.6750   -2.0990 C   0  0  0  0  0  0  0  0  0  0  0  0
   -2.8320   14.8080   -1.3080 C   0  0  0  0  0  0  0  0  0  0  0  0
   -3.8020   14.9570   -0.3020 C   0  0  0  0  0  0  0  0  0  0  0  0
   -3.5220   15.3660    0.9630 N   0  0  0  0  0  0  0  0  0  0  0  0
   -5.1560   14.7470   -0.3290 C   0  0  0  0  0  0  0  0  0  0  0  0
   -4.6950   15.3890    1.6520 C   0  0  0  0  0  0  0  0  0  0  0  0
   -5.7060   15.0160    0.8960 N   0  0  0  0  0  0  0  0  0  0  0  0
  2  1  1  6
  2  3  1  0
  2  4  1  0
  4  5  2  0
  4  6  1  0
  6  7  1  0
  7  8  1  0
  8  9  1  0
  9 10  1  0
 10 11  3  0
 11 12  1  0
 12 13  1  0
 12 14  2  0
 13 15  1  0
 14 16  1  0
 15 16  2  0
M  END
