x0950_0_A-x0844_0_A
     RDKit          3D

 17 17  0  0  0  0  0  0  0  0999 V2000
    2.8120   12.9250   -3.8990 C   0  0  0  0  0  0  0  0  0  0  0  0
    1.3000   12.7990   -3.9490 C   0  0  1  0  0  0  0  0  0  0  0  0
    0.9550   12.2420   -5.2200 O   0  0  0  0  0  0  0  0  0  0  0  0
    0.7270   11.9380   -2.8040 C   0  0  0  0  0  0  0  0  0  0  0  0
    0.3010   10.8050   -2.9990 O   0  0  0  0  0  0  0  0  0  0  0  0
    0.7420   12.5370   -1.5690 O   0  0  0  0  0  0  0  0  0  0  0  0
    0.3890   13.9270   -1.4720 C   0  0  0  0  0  0  0  0  0  0  0  0
   -1.0900   14.1530   -1.1310 C   0  0  0  0  0  0  0  0  0  0  0  0
   -1.9820   14.3890   -2.3560 C   0  0  0  0  0  0  0  0  0  0  0  0
   -3.0800   15.2520   -2.0410 O   0  0  0  0  0  0  0  0  0  0  0  0
   -3.9850   14.7010   -1.0660 C   0  0  1  0  0  0  0  0  0  0  0  0
   -3.5410   15.1420    0.2900 C   0  0  0  0  0  0  0  0  0  0  0  0
   -5.4410   15.0870   -1.3280 C   0  0  0  0  0  0  0  0  0  0  0  0
   -4.4030   15.1950    1.3000 C   0  0  0  0  0  0  0  0  0  0  0  0
   -6.3260   14.8880   -0.1180 C   0  0  0  0  0  0  0  0  0  0  0  0
   -7.5500   14.7780   -0.2020 O   0  0  0  0  0  0  0  0  0  0  0  0
   -5.7010   14.8370    1.0970 N   0  0  0  0  0  0  0  0  0  0  0  0
  2  1  1  1
  2  3  1  0
  2  4  1  0
  4  5  2  0
  4  6  1  0
  6  7  1  0
  7  8  1  0
  8  9  1  0
  9 10  1  0
 11 10  1  6
 11 12  1  0
 11 13  1  0
 12 14  2  0
 13 15  1  0
 15 16  2  0
 14 17  1  0
 15 17  1  0
M  END
