x0950_0_A-x0855_0_A
     RDKit          3D

 12 12  0  0  0  0  0  0  0  0999 V2000
    2.7880   13.0950   -4.1530 C   0  0  0  0  0  0  0  0  0  0  0  0
    1.2900   12.8900   -4.2700 C   0  0  1  0  0  0  0  0  0  0  0  0
    1.0900   12.2500   -5.5250 O   0  0  0  0  0  0  0  0  0  0  0  0
    0.8570   12.1360   -3.0160 C   0  0  0  0  0  0  0  0  0  0  0  0
    0.5560   10.9610   -2.9080 O   0  0  0  0  0  0  0  0  0  0  0  0
    0.8380   12.9480   -1.9410 O   0  0  0  0  0  0  0  0  0  0  0  0
   -0.1510   11.6480   -5.6820 N   0  0  0  0  0  0  0  0  0  0  0  0
   -0.3260   10.4870   -6.3600 C   0  0  0  0  0  0  0  0  0  0  0  0
   -1.2780   12.1740   -5.1790 N   0  0  0  0  0  0  0  0  0  0  0  0
   -1.6560   10.2310   -6.2930 C   0  0  0  0  0  0  0  0  0  0  0  0
   -2.2130   11.2860   -5.5680 C   0  0  0  0  0  0  0  0  0  0  0  0
   -2.5650    8.7730   -7.0220 Br  0  0  0  0  0  0  0  0  0  0  0  0
  2  1  1  1
  2  3  1  0
  2  4  1  0
  4  5  2  0
  4  6  1  0
  3  7  1  0
  7  8  1  0
  7  9  1  0
  8 10  2  0
  9 11  2  0
 10 11  1  0
 10 12  1  0
M  END
