x0950_1_A-x0465_0_A
     RDKit          3D

 13 13  0  0  0  0  0  0  0  0999 V2000
    0.7790   13.8740   -4.9190 C   0  0  0  0  0  0  0  0  0  0  0  0
    1.2590   12.4590   -4.6320 C   0  0  2  0  0  0  0  0  0  0  0  0
    0.7580   11.5550   -5.6480 O   0  0  0  0  0  0  0  0  0  0  0  0
    0.8080   12.0190   -3.2290 C   0  0  0  0  0  0  0  0  0  0  0  0
    0.1470   11.0200   -2.9790 O   0  0  0  0  0  0  0  0  0  0  0  0
    1.2330   12.8590   -2.2480 O   0  0  0  0  0  0  0  0  0  0  0  0
   -0.4810   10.9440   -5.6450 C   0  0  0  0  0  0  0  0  0  0  0  0
   -0.6060    9.8730   -6.5530 C   0  0  0  0  0  0  0  0  0  0  0  0
   -1.5860   11.2740   -4.8620 C   0  0  0  0  0  0  0  0  0  0  0  0
    0.4270    9.5190   -7.3340 F   0  0  0  0  0  0  0  0  0  0  0  0
   -1.7860    9.1490   -6.6770 C   0  0  0  0  0  0  0  0  0  0  0  0
   -2.7810   10.5460   -4.9840 C   0  0  0  0  0  0  0  0  0  0  0  0
   -2.8820    9.4850   -5.8880 C   0  0  0  0  0  0  0  0  0  0  0  0
  2  1  1  6
  2  3  1  0
  2  4  1  0
  4  5  2  0
  4  6  1  0
  3  7  1  0
  7  8  2  0
  7  9  1  0
  8 10  1  0
  8 11  1  0
  9 12  2  0
 11 13  2  0
 12 13  1  0
M  END
