x0950_1_A-x0524_0_A
     RDKit          3D

 24 25  0  0  0  0  0  0  0  0999 V2000
    0.8050   13.8650   -4.8600 C   0  0  0  0  0  0  0  0  0  0  0  0
    1.1430   12.4320   -4.4660 C   0  0  2  0  0  0  0  0  0  0  0  0
    0.2470   11.5240   -5.1280 O   0  0  0  0  0  0  0  0  0  0  0  0
    0.9230   12.2330   -2.9660 C   0  0  0  0  0  0  0  0  0  0  0  0
    0.1550   11.4070   -2.4940 O   0  0  0  0  0  0  0  0  0  0  0  0
    1.6700   13.0610   -2.2020 O   0  0  0  0  0  0  0  0  0  0  0  0
   -0.0550   11.8250   -6.4950 C   0  0  0  0  0  0  0  0  0  0  0  0
    0.0760   10.6960   -7.3970 N   0  0  0  0  0  0  0  0  0  0  0  0
   -0.6360    9.6180   -7.3490 C   0  0  0  0  0  0  0  0  0  0  0  0
   -0.4600    8.5680   -8.2100 N   0  0  0  0  0  0  0  0  0  0  0  0
   -1.7140    9.5240   -6.2790 C   0  0  0  0  0  0  0  0  0  0  0  0
    0.6020    8.5580   -9.1350 C   0  0  0  0  0  0  0  0  0  0  0  0
    1.7260    7.7450   -9.0140 C   0  0  0  0  0  0  0  0  0  0  0  0
    0.5160    9.4170  -10.2300 C   0  0  0  0  0  0  0  0  0  0  0  0
    2.7430    7.7930   -9.9720 C   0  0  0  0  0  0  0  0  0  0  0  0
    1.5280    9.4640  -11.1860 C   0  0  0  0  0  0  0  0  0  0  0  0
    2.6590    8.6530  -11.0740 C   0  0  0  0  0  0  0  0  0  0  0  0
    3.7020    8.6700  -12.0110 N   0  0  0  0  0  0  0  0  0  0  0  0
    4.0020    9.5230  -13.0830 C   0  0  0  0  0  0  0  0  0  0  0  0
    3.2340   10.6820  -13.2910 C   0  0  0  0  0  0  0  0  0  0  0  0
    5.0510    9.2670  -13.9670 C   0  0  0  0  0  0  0  0  0  0  0  0
    3.5070   11.5480  -14.3460 C   0  0  0  0  0  0  0  0  0  0  0  0
    5.3280   10.1320  -15.0240 C   0  0  0  0  0  0  0  0  0  0  0  0
    4.5570   11.2740  -15.2160 C   0  0  0  0  0  0  0  0  0  0  0  0
  2  1  1  6
  2  3  1  0
  2  4  1  0
  4  5  2  0
  4  6  1  0
  3  7  1  0
  7  8  1  0
  8  9  2  3
  9 10  1  0
  9 11  1  0
 10 12  1  0
 12 13  2  0
 12 14  1  0
 13 15  1  0
 14 16  2  0
 15 17  2  0
 16 17  1  0
 17 18  1  0
 18 19  1  0
 19 20  2  0
 19 21  1  0
 20 22  1  0
 21 23  2  0
 22 24  2  0
 23 24  1  0
M  END
