x0950_1_A_α-x0685_1_A_α
     RDKit          3D

 15 15  0  0  0  0  0  0  0  0999 V2000
    0.8530   14.0730   -4.8640 C   0  0  0  0  0  0  0  0  0  0  0  0
    0.4940   12.6200   -4.5080 C   0  0  1  0  0  0  0  0  0  0  0  0
    1.1680   11.8250   -5.4980 O   0  0  0  0  0  0  0  0  0  0  0  0
    1.0570   12.2420   -3.1000 C   0  0  0  0  0  0  0  0  0  0  0  0
   -1.0300   12.2990   -4.6240 C   0  0  0  0  0  0  0  0  0  0  0  0
    0.5420   11.0060   -2.6750 O   0  0  0  0  0  0  0  0  0  0  0  0
    0.7250   13.1940   -2.1220 O   0  0  0  0  0  0  0  0  0  0  0  0
    2.4510   12.2280   -3.1170 O   0  0  0  0  0  0  0  0  0  0  0  0
   -1.2470   10.8560   -4.9390 N   0  0  0  0  0  0  0  0  0  0  0  0
   -0.7470   10.4940   -6.2800 C   0  0  0  0  0  0  0  0  0  0  0  0
   -0.6430    8.9590   -6.4060 C   0  0  0  0  0  0  0  0  0  0  0  0
   -1.6360   11.0080   -7.4160 C   0  0  0  0  0  0  0  0  0  0  0  0
   -0.0160    8.5360   -7.7370 C   0  0  0  0  0  0  0  0  0  0  0  0
   -1.0620   10.6080   -8.7790 C   0  0  0  0  0  0  0  0  0  0  0  0
   -0.7890    9.1070   -8.9250 C   0  0  0  0  0  0  0  0  0  0  0  0
  2  1  1  6
  2  3  1  0
  2  4  1  0
  2  5  1  0
  4  6  1  0
  4  7  1  0
  4  8  1  0
  5  9  1  0
  9 10  1  0
 10 11  1  0
 10 12  1  0
 11 13  1  0
 12 14  1  0
 13 15  1  0
 14 15  1  0
M  END
