x0950_1_A_α-x0905_0_A_α
     RDKit          3D

 16 16  0  0  0  0  0  0  0  0999 V2000
    1.1210   13.9890   -4.6750 C   0  0  0  0  0  0  0  0  0  0  0  0
    1.3190   12.5240   -4.3180 C   0  0  2  0  0  0  0  0  0  0  0  0
    0.7070   11.7420   -5.3400 O   0  0  0  0  0  0  0  0  0  0  0  0
    0.8160   12.2010   -2.8920 C   0  0  0  0  0  0  0  0  0  0  0  0
    0.2740   11.1490   -2.5620 O   0  0  0  0  0  0  0  0  0  0  0  0
    1.0640   13.2520   -2.0440 O   0  0  0  0  0  0  0  0  0  0  0  0
    0.0870   13.5230   -1.0090 C   0  0  0  0  0  0  0  0  0  0  0  0
   -0.5380   14.9280   -1.0680 C   0  0  0  0  0  0  0  0  0  0  0  0
   -1.4470   15.2850    0.1310 C   0  0  0  0  0  0  0  0  0  0  0  0
   -2.9350   15.2620   -0.1470 C   0  0  0  0  0  0  0  0  0  0  0  0
   -3.8750   15.0920    0.8760 C   0  0  0  0  0  0  0  0  0  0  0  0
   -3.4400   15.4070   -1.4460 C   0  0  0  0  0  0  0  0  0  0  0  0
   -5.2170   15.0570    0.6830 N   0  0  0  0  0  0  0  0  0  0  0  0
   -4.8160   15.3740   -1.6710 C   0  0  0  0  0  0  0  0  0  0  0  0
   -5.6330   15.1990   -0.5830 C   0  0  0  0  0  0  0  0  0  0  0  0
   -6.9840   15.1540   -0.7330 O   0  0  0  0  0  0  0  0  0  0  0  0
  2  1  1  6
  2  3  1  0
  2  4  1  0
  4  5  2  0
  4  6  1  0
  6  7  1  0
  7  8  1  0
  8  9  1  0
  9 10  1  0
 10 11  2  0
 10 12  1  0
 11 13  1  0
 12 14  2  0
 13 15  2  0
 14 15  1  0
 15 16  1  0
M  END
