x0950_0_A-x0910_0_A
     RDKit          3D

 14 14  0  0  0  0  0  0  0  0999 V2000
    2.8320   12.9320   -4.0610 C   0  0  0  0  0  0  0  0  0  0  0  0
    1.3460   12.7880   -4.3440 C   0  0  1  0  0  0  0  0  0  0  0  0
    1.1710   12.2340   -5.6440 O   0  0  0  0  0  0  0  0  0  0  0  0
    0.6640   11.9670   -3.2330 C   0  0  0  0  0  0  0  0  0  0  0  0
    0.4460   10.7650   -3.2520 O   0  0  0  0  0  0  0  0  0  0  0  0
    0.3000   12.7510   -2.2020 O   0  0  0  0  0  0  0  0  0  0  0  0
   -1.0640   12.5160   -1.8290 C   0  0  0  0  0  0  0  0  0  0  0  0
   -2.0460   13.4360   -2.5740 C   0  0  0  0  0  0  0  0  0  0  0  0
   -2.4750   14.5110   -1.6910 N   0  0  0  0  0  0  0  0  0  0  0  0
   -1.7040   14.7040   -0.6170 C   0  0  0  0  0  0  0  0  0  0  0  0
   -2.2150   14.7040    0.6520 N   0  0  0  0  0  0  0  0  0  0  0  0
   -0.4090   14.9130   -0.5570 N   0  0  0  0  0  0  0  0  0  0  0  0
   -1.2510   14.9110    1.5530 N   0  0  0  0  0  0  0  0  0  0  0  0
   -0.1770   15.0360    0.7800 C   0  0  0  0  0  0  0  0  0  0  0  0
  2  1  1  1
  2  3  1  0
  2  4  1  0
  4  5  2  0
  4  6  1  0
  6  7  1  0
  7  8  1  0
  8  9  1  0
  9 10  1  0
 10 11  1  0
 10 12  2  0
 11 13  1  0
 12 14  1  0
 13 14  2  0
M  END
