x0950_0_A-x0926_0_A
     RDKit          3D

 16 16  0  0  0  0  0  0  0  0999 V2000
    2.8260   12.9330   -3.9710 C   0  0  0  0  0  0  0  0  0  0  0  0
    1.3100   12.8340   -3.9860 C   0  0  1  0  0  0  0  0  0  0  0  0
    0.9260   12.2940   -5.2600 O   0  0  0  0  0  0  0  0  0  0  0  0
    0.7450   11.9720   -2.8300 C   0  0  0  0  0  0  0  0  0  0  0  0
    0.3160   10.8400   -3.0150 O   0  0  0  0  0  0  0  0  0  0  0  0
    0.7690   12.5780   -1.5960 O   0  0  0  0  0  0  0  0  0  0  0  0
    0.3900   13.9650   -1.5410 C   0  0  0  0  0  0  0  0  0  0  0  0
   -0.2180   14.3200   -0.1780 C   0  0  0  0  0  0  0  0  0  0  0  0
   -1.7320   14.0720   -0.1350 C   0  0  0  0  0  0  0  0  0  0  0  0
   -2.5970   15.3520   -0.1420 C   0  0  1  0  0  0  0  0  0  0  0  0
   -3.2760   15.5340   -1.4490 N   0  0  0  0  0  0  0  0  0  0  0  0
   -3.5500   15.3640    1.0180 C   0  0  0  0  0  0  0  0  0  0  0  0
   -4.8740   15.2680    0.8990 C   0  0  0  0  0  0  0  0  0  0  0  0
   -4.6330   15.1150   -1.5080 N   0  0  0  0  0  0  0  0  0  0  0  0
   -5.4940   15.1380   -0.4340 C   0  0  0  0  0  0  0  0  0  0  0  0
   -6.7120   15.0480   -0.5570 O   0  0  0  0  0  0  0  0  0  0  0  0
  2  1  1  6
  2  3  1  0
  2  4  1  0
  4  5  2  0
  4  6  1  0
  6  7  1  0
  7  8  1  0
  8  9  1  0
 10  9  1  6
 10 11  1  0
 10 12  1  0
 12 13  2  0
 11 14  1  0
 13 15  1  0
 14 15  1  0
 15 16  2  0
M  END
