x0950_1_A-x0962_0_A
     RDKit          3D

 16 16  0  0  0  0  0  0  0  0999 V2000
    1.0000   13.9130   -4.9120 C   0  0  0  0  0  0  0  0  0  0  0  0
    1.3430   12.4900   -4.5140 C   0  0  2  0  0  0  0  0  0  0  0  0
    0.8060   11.6400   -5.5280 O   0  0  0  0  0  0  0  0  0  0  0  0
    0.8600   12.0740   -3.1010 C   0  0  0  0  0  0  0  0  0  0  0  0
    0.0630   11.1690   -2.8980 O   0  0  0  0  0  0  0  0  0  0  0  0
    1.4380   12.8050   -2.1010 O   0  0  0  0  0  0  0  0  0  0  0  0
    1.7440   14.1850   -2.3360 C   0  0  0  0  0  0  0  0  0  0  0  0
    0.5060   15.0980   -2.3160 C   0  0  0  0  0  0  0  0  0  0  0  0
   -0.7730   14.5350   -2.9570 C   0  0  0  0  0  0  0  0  0  0  0  0
   -1.9480   14.6660   -2.0880 C   0  0  0  0  0  0  0  0  0  0  0  0
   -2.8370   14.7920   -1.3030 C   0  0  0  0  0  0  0  0  0  0  0  0
   -3.8110   14.9450   -0.3010 C   0  0  0  0  0  0  0  0  0  0  0  0
   -3.5210   15.3420    0.9650 N   0  0  0  0  0  0  0  0  0  0  0  0
   -5.1690   14.7530   -0.3260 C   0  0  0  0  0  0  0  0  0  0  0  0
   -4.6910   15.3770    1.6550 C   0  0  0  0  0  0  0  0  0  0  0  0
   -5.7080   15.0200    0.9000 N   0  0  0  0  0  0  0  0  0  0  0  0
  2  1  1  6
  2  3  1  0
  2  4  1  0
  4  5  2  0
  4  6  1  0
  6  7  1  0
  7  8  1  0
  8  9  1  0
  9 10  1  0
 10 11  3  0
 11 12  1  0
 12 13  1  0
 12 14  2  0
 13 15  1  0
 14 16  1  0
 15 16  2  0
M  END
