x0950_1_A_α-x0159_0_B_β
     RDKit          3D

 19 20  0  0  0  0  0  0  0  0999 V2000
    1.1520   13.8740   -4.9740 C   0  0  0  0  0  0  0  0  0  0  0  0
    0.9790   12.3620   -4.9750 C   0  0  2  0  0  0  0  0  0  0  0  0
   -0.0690   12.0630   -5.9240 O   0  0  0  0  0  0  0  0  0  0  0  0
    0.7660   11.9610   -3.4970 C   0  0  0  0  0  0  0  0  0  0  0  0
    0.1630   10.9750   -3.1040 O   0  0  0  0  0  0  0  0  0  0  0  0
    1.3060   12.8160   -2.6000 O   0  0  0  0  0  0  0  0  0  0  0  0
   -0.0720   10.8100   -6.6690 C   0  0  0  0  0  0  0  0  0  0  0  0
    1.0590   10.7600   -7.7120 C   0  0  0  0  0  0  0  0  0  0  0  0
    0.6490   10.5290   -9.1850 C   0  0  0  0  0  0  0  0  0  0  0  0
    1.2970    9.3520   -9.8320 N   0  0  0  0  0  0  0  0  0  0  0  0
    2.0700    9.5170  -10.9500 C   0  0  0  0  0  0  0  0  0  0  0  0
    1.9110   10.6330  -11.7290 N   0  0  0  0  0  0  0  0  0  0  0  0
    3.0210    8.7410  -11.4540 N   0  0  0  0  0  0  0  0  0  0  0  0
    2.8060   10.5870  -12.7710 C   0  0  0  0  0  0  0  0  0  0  0  0
    3.4920    9.3920  -12.5790 C   0  0  0  0  0  0  0  0  0  0  0  0
    3.0650   11.4680  -13.8240 C   0  0  0  0  0  0  0  0  0  0  0  0
    4.5080    9.0380  -13.4900 C   0  0  0  0  0  0  0  0  0  0  0  0
    4.0790   11.1010  -14.7160 C   0  0  0  0  0  0  0  0  0  0  0  0
    4.7900    9.9070  -14.5550 C   0  0  0  0  0  0  0  0  0  0  0  0
  2  1  1  1
  2  3  1  0
  2  4  1  0
  4  5  2  0
  4  6  1  0
  3  7  1  0
  7  8  1  0
  8  9  1  0
  9 10  1  0
 10 11  1  0
 11 12  1  0
 11 13  2  0
 12 14  1  0
 13 15  1  0
 14 15  2  0
 14 16  1  0
 15 17  1  0
 16 18  2  0
 17 19  2  0
 18 19  1  0
M  END
