x0950_0_A-x0574_0_A
     RDKit          3D

 20 21  0  0  0  0  0  0  0  0999 V2000
    2.9900   12.3930   -4.7660 C   0  0  0  0  0  0  0  0  0  0  0  0
    1.5390   12.6890   -4.4510 C   0  0  1  0  0  0  0  0  0  0  0  0
    0.7110   12.1100   -5.4510 O   0  0  0  0  0  0  0  0  0  0  0  0
    1.2890   12.1890   -3.0350 C   0  0  0  0  0  0  0  0  0  0  0  0
    0.4220   11.3840   -2.7100 O   0  0  0  0  0  0  0  0  0  0  0  0
    2.2130   12.7650   -2.2030 O   0  0  0  0  0  0  0  0  0  0  0  0
    1.8620   13.9880   -1.5190 C   0  0  0  0  0  0  0  0  0  0  0  0
    0.5580   13.7040   -0.7920 C   0  0  0  0  0  0  0  0  0  0  0  0
    0.3040   14.2940    0.5320 N   0  0  0  0  0  0  0  0  0  0  0  0
   -0.9870   14.4590    0.5820 C   0  0  0  0  0  0  0  0  0  0  0  0
   -1.8710   14.4770    1.5560 N   0  0  0  0  0  0  0  0  0  0  0  0
   -1.5240   14.6590   -1.0080 S   0  0  0  0  0  0  0  0  0  0  0  0
   -3.1180   14.6590    0.9330 C   0  0  0  0  0  0  0  0  0  0  0  0
   -3.0920   14.7830   -0.4560 C   0  0  0  0  0  0  0  0  0  0  0  0
   -4.3790   14.7230    1.5310 C   0  0  0  0  0  0  0  0  0  0  0  0
   -4.2090   14.9710   -1.2520 C   0  0  0  0  0  0  0  0  0  0  0  0
   -5.5230   14.8930    0.7490 C   0  0  0  0  0  0  0  0  0  0  0  0
   -5.4320   15.0230   -0.6240 C   0  0  0  0  0  0  0  0  0  0  0  0
   -6.8110   14.9520    1.2010 O   0  0  0  0  0  0  0  0  0  0  0  0
   -7.0270   14.6950    2.5810 C   0  0  0  0  0  0  0  0  0  0  0  0
  2  1  1  6
  2  3  1  0
  2  4  1  0
  4  5  2  0
  4  6  1  0
  6  7  1  0
  7  8  1  0
  8  9  1  0
  9 10  1  0
 10 11  2  0
 10 12  1  0
 11 13  1  0
 12 14  1  0
 13 14  2  0
 13 15  1  0
 14 16  1  0
 15 17  2  0
 16 18  2  0
 17 18  1  0
 17 19  1  0
 19 20  1  0
M  END
