x0950_1_A-x0662_0_A
     RDKit          3D

 22 23  0  0  0  0  0  0  0  0999 V2000
    0.8680   13.7470   -5.2310 C   0  0  0  0  0  0  0  0  0  0  0  0
    0.9870   12.2590   -4.9230 C   0  0  2  0  0  0  0  0  0  0  0  0
   -0.0940   11.4480   -5.6470 C   0  0  0  0  0  0  0  0  0  0  0  0
    0.9320   12.0380   -3.4190 C   0  0  0  0  0  0  0  0  0  0  0  0
    0.3720   11.1260   -2.8330 O   0  0  0  0  0  0  0  0  0  0  0  0
    1.5740   12.9710   -2.6910 O   0  0  0  0  0  0  0  0  0  0  0  0
   -1.1900   11.4020   -5.0980 O   0  0  0  0  0  0  0  0  0  0  0  0
   -0.0390   10.6630   -6.9490 C   0  0  0  0  0  0  0  0  0  0  0  0
   -0.9240    9.5890   -7.1000 C   0  0  0  0  0  0  0  0  0  0  0  0
    0.8420   10.9630   -8.0120 C   0  0  0  0  0  0  0  0  0  0  0  0
   -0.9440    8.8350   -8.2710 C   0  0  0  0  0  0  0  0  0  0  0  0
    0.8170   10.1990   -9.2140 C   0  0  0  0  0  0  0  0  0  0  0  0
    1.6280   10.3950  -10.3640 N   0  0  0  0  0  0  0  0  0  0  0  0
   -0.0820    9.1410   -9.3190 C   0  0  0  0  0  0  0  0  0  0  0  0
    2.1940    9.4170  -11.1820 C   0  0  0  0  0  0  0  0  0  0  0  0
    2.1940    8.2130  -10.9640 O   0  0  0  0  0  0  0  0  0  0  0  0
    2.8650    9.9500  -12.4030 C   0  0  0  0  0  0  0  0  0  0  0  0
    2.6510   11.1900  -13.0690 C   0  0  0  0  0  0  0  0  0  0  0  0
    3.8300    9.2320  -13.0270 N   0  0  0  0  0  0  0  0  0  0  0  0
    4.2110   10.0120  -14.0570 N   0  0  0  0  0  0  0  0  0  0  0  0
    3.5350   11.1950  -14.1290 C   0  0  0  0  0  0  0  0  0  0  0  0
    5.2530    9.5470  -14.9450 C   0  0  0  0  0  0  0  0  0  0  0  0
  2  1  1  1
  2  3  1  0
  2  4  1  0
  4  5  2  0
  4  6  1  0
  3  7  2  0
  3  8  1  0
  8  9  2  0
  8 10  1  0
  9 11  1  0
 10 12  2  0
 12 13  1  0
 11 14  2  0
 12 14  1  0
 13 15  1  0
 15 16  2  0
 15 17  1  0
 17 18  1  0
 17 19  2  0
 19 20  1  0
 18 21  2  0
 20 21  1  0
 20 22  1  0
M  END
