x0950_0_A_α-x0676_0_B_α
     RDKit          3D

 23 24  0  0  0  0  0  0  0  0999 V2000
    2.6560   13.1080   -4.4520 C   0  0  0  0  0  0  0  0  0  0  0  0
    1.2060   12.6450   -4.5510 C   0  0  1  0  0  0  0  0  0  0  0  0
    1.1600   11.7330   -5.6530 O   0  0  0  0  0  0  0  0  0  0  0  0
    0.8240   12.0300   -3.1970 C   0  0  0  0  0  0  0  0  0  0  0  0
    0.2920   10.9580   -2.9830 O   0  0  0  0  0  0  0  0  0  0  0  0
    1.1340   12.8250   -2.1500 O   0  0  0  0  0  0  0  0  0  0  0  0
    0.0040   11.7890   -6.4910 C   0  0  0  0  0  0  0  0  0  0  0  0
   -0.1400   10.4740   -7.2880 C   0  0  0  0  0  0  0  0  0  0  0  0
    1.0170   10.1490   -8.2560 C   0  0  0  0  0  0  0  0  0  0  0  0
    0.8750    8.8720   -9.1230 C   0  0  0  0  0  0  0  0  0  0  0  0
    1.6740    8.9980  -10.3590 N   0  0  0  0  0  0  0  0  0  0  0  0
    2.6990    8.2350  -10.5900 C   0  0  0  0  0  0  0  0  0  0  0  0
    3.1880    7.1390   -9.6780 C   0  0  0  0  0  0  0  0  0  0  0  0
    3.6090    8.1990  -11.6600 N   0  0  0  0  0  0  0  0  0  0  0  0
    4.8470    7.7210  -11.2210 N   0  0  0  0  0  0  0  0  0  0  0  0
    4.6330    7.1430  -10.0800 C   0  0  0  0  0  0  0  0  0  0  0  0
    3.7250    9.2160  -12.6640 C   0  0  0  0  0  0  0  0  0  0  0  0
    5.7080    6.5500   -9.2380 C   0  0  0  0  0  0  0  0  0  0  0  0
    2.8390   10.3060  -12.7650 C   0  0  0  0  0  0  0  0  0  0  0  0
    4.7680    9.1680  -13.6120 C   0  0  0  0  0  0  0  0  0  0  0  0
    2.9880   11.2900  -13.7530 C   0  0  0  0  0  0  0  0  0  0  0  0
    4.9180   10.1470  -14.6010 C   0  0  0  0  0  0  0  0  0  0  0  0
    4.0250   11.2120  -14.6710 C   0  0  0  0  0  0  0  0  0  0  0  0
  2  1  1  1
  2  3  1  0
  2  4  1  0
  4  5  2  0
  4  6  1  0
  3  7  1  0
  7  8  1  0
  8  9  1  0
  9 10  1  0
 10 11  1  0
 11 12  2  3
 12 13  1  0
 12 14  1  0
 14 15  1  0
 13 16  1  0
 15 16  2  0
 14 17  1  0
 16 18  1  0
 17 19  2  0
 17 20  1  0
 19 21  1  0
 20 22  2  0
 21 23  2  0
 22 23  1  0
M  END
