x0950_1_A_α-x0587_0_A_α
     RDKit          3D

 22 22  0  0  0  0  0  0  0  0999 V2000
    1.0970   13.9940   -4.7550 C   0  0  0  0  0  0  0  0  0  0  0  0
    1.3530   12.5360   -4.4360 C   0  0  2  0  0  0  0  0  0  0  0  0
    0.6900   11.7380   -5.4230 O   0  0  0  0  0  0  0  0  0  0  0  0
    0.8780   12.1630   -3.0250 C   0  0  0  0  0  0  0  0  0  0  0  0
    0.3880   11.0730   -2.7430 O   0  0  0  0  0  0  0  0  0  0  0  0
    1.0700   13.1860   -2.1500 O   0  0  0  0  0  0  0  0  0  0  0  0
    0.1340   13.2730   -1.0570 C   0  0  0  0  0  0  0  0  0  0  0  0
   -0.8420   14.4320   -1.2170 C   0  0  0  0  0  0  0  0  0  0  0  0
   -2.2260   14.0710   -0.6740 C   0  0  0  0  0  0  0  0  0  0  0  0
   -3.1640   15.0680   -1.0750 O   0  0  0  0  0  0  0  0  0  0  0  0
   -4.4590   14.5550   -1.4420 C   0  0  0  0  0  0  0  0  0  0  0  0
   -4.3030   13.3010   -1.9610 F   0  0  0  0  0  0  0  0  0  0  0  0
   -4.8480   15.3090   -2.5100 F   0  0  0  0  0  0  0  0  0  0  0  0
   -5.4780   14.6240   -0.2900 C   0  0  0  0  0  0  0  0  0  0  0  0
   -6.7990   14.5030   -0.5810 N   0  0  0  0  0  0  0  0  0  0  0  0
   -5.0130   14.8070    0.9680 N   0  0  0  0  0  0  0  0  0  0  0  0
   -7.6750   14.5820    0.4500 C   0  0  0  0  0  0  0  0  0  0  0  0
   -5.9340   14.8770    1.9560 C   0  0  0  0  0  0  0  0  0  0  0  0
   -7.2940   14.7750    1.7580 C   0  0  0  0  0  0  0  0  0  0  0  0
   -8.3040   14.8710    2.8260 C   0  0  0  0  0  0  0  0  0  0  0  0
   -7.8900   14.8520    4.1260 N   0  0  0  0  0  0  0  0  0  0  0  0
   -9.4950   14.9810    2.5520 O   0  0  0  0  0  0  0  0  0  0  0  0
  2  1  1  6
  2  3  1  0
  2  4  1  0
  4  5  2  0
  4  6  1  0
  6  7  1  0
  7  8  1  0
  8  9  1  0
  9 10  1  0
 10 11  1  0
 11 12  1  0
 11 13  1  0
 11 14  1  0
 14 15  2  0
 14 16  1  0
 15 17  1  0
 16 18  2  0
 17 19  2  0
 18 19  1  0
 19 20  1  0
 20 21  1  0
 20 22  2  0
M  END
