x0950_0_A-x0282_0_A
     RDKit          3D

 21 22  0  0  0  0  0  0  0  0999 V2000
    2.7550   13.0100   -4.5530 C   0  0  0  0  0  0  0  0  0  0  0  0
    1.2670   12.7340   -4.6100 C   0  0  1  0  0  0  0  0  0  0  0  0
    0.9560   11.9260   -5.7370 O   0  0  0  0  0  0  0  0  0  0  0  0
    0.8470   12.1390   -3.2710 C   0  0  0  0  0  0  0  0  0  0  0  0
    0.3980   11.0120   -3.0830 O   0  0  0  0  0  0  0  0  0  0  0  0
    1.0610   13.0780   -2.3240 O   0  0  0  0  0  0  0  0  0  0  0  0
    0.2250   14.2440   -2.4260 C   0  0  0  0  0  0  0  0  0  0  0  0
   -0.3820   14.4060   -1.0800 C   0  0  0  0  0  0  0  0  0  0  0  0
   -1.7030   14.4040   -0.9470 N   0  0  0  0  0  0  0  0  0  0  0  0
    0.4510   14.5310   -0.0400 C   0  0  0  0  0  0  0  0  0  0  0  0
   -0.1190   14.6350    1.2020 C   0  0  0  0  0  0  0  0  0  0  0  0
   -2.1880   14.5190    0.2860 C   0  0  0  0  0  0  0  0  0  0  0  0
   -3.5390   14.5260    0.4240 N   0  0  0  0  0  0  0  0  0  0  0  0
   -1.4340   14.6250    1.3980 N   0  0  0  0  0  0  0  0  0  0  0  0
   -4.0420   14.1860    1.7190 C   0  0  0  0  0  0  0  0  0  0  0  0
   -4.3550   14.5210   -0.8040 C   0  0  0  0  0  0  0  0  0  0  0  0
   -5.3760   14.8720    1.8410 C   0  0  0  0  0  0  0  0  0  0  0  0
   -5.8150   14.9440   -0.5650 C   0  0  0  0  0  0  0  0  0  0  0  0
   -6.2920   14.3370    0.7560 C   0  0  0  0  0  0  0  0  0  0  0  0
   -7.7780   14.4570    1.0870 C   0  0  0  0  0  0  0  0  0  0  0  0
   -8.5870   14.6030   -0.0680 O   0  0  0  0  0  0  0  0  0  0  0  0
  2  1  1  1
  2  3  1  0
  2  4  1  0
  4  5  2  0
  4  6  1  0
  6  7  1  0
  7  8  1  0
  8  9  2  0
  8 10  1  0
 10 11  2  0
  9 12  1  0
 12 13  1  0
 11 14  1  0
 12 14  2  0
 13 15  1  0
 13 16  1  0
 15 17  1  0
 16 18  1  0
 17 19  1  0
 18 19  1  0
 19 20  1  0
 20 21  1  0
M  END
