x0950_0_A-x1015_0_A
     RDKit          3D

 20 22  0  0  0  0  0  0  0  0999 V2000
    3.1900   12.3270   -4.1920 C   0  0  0  0  0  0  0  0  0  0  0  0
    1.7010   12.5710   -4.3250 C   0  0  1  0  0  0  0  0  0  0  0  0
    1.3180   12.3320   -5.6600 O   0  0  0  0  0  0  0  0  0  0  0  0
    0.8260   11.7880   -3.3260 C   0  0  2  0  0  0  0  0  0  0  0  0
   -0.6140   12.0780   -3.1330 C   0  0  2  0  0  0  0  0  0  0  0  0
    1.2040   12.0980   -1.9230 C   0  0  0  0  0  0  0  0  0  0  0  0
    0.2160   12.7660   -1.1750 O   0  0  0  0  0  0  0  0  0  0  0  0
   -1.2220   12.6340   -4.2770 N   0  0  0  0  0  0  0  0  0  0  0  0
   -0.6370   13.1410   -2.1980 N   0  0  0  0  0  0  0  0  0  0  0  0
   -0.6830   14.0340   -4.3150 C   0  0  2  0  0  0  0  0  0  0  0  0
   -0.2150   14.2720   -2.8670 C   0  0  0  0  0  0  0  0  0  0  0  0
   -1.2780   11.7520   -5.3390 C   0  0  0  0  0  0  0  0  0  0  0  0
   -1.7520   15.0420   -4.6740 C   0  0  0  0  0  0  0  0  0  0  0  0
    0.3880   15.2350   -2.4100 O   0  0  0  0  0  0  0  0  0  0  0  0
   -0.6290   11.9630   -6.5690 C   0  0  0  0  0  0  0  0  0  0  0  0
   -2.0120   10.5620   -5.2120 C   0  0  0  0  0  0  0  0  0  0  0  0
   -0.7160   11.0380   -7.6150 C   0  0  0  0  0  0  0  0  0  0  0  0
   -2.1070    9.6340   -6.2460 C   0  0  0  0  0  0  0  0  0  0  0  0
   -1.4610    9.8760   -7.4460 C   0  0  0  0  0  0  0  0  0  0  0  0
   -1.5840    8.7320   -8.7180 Cl  0  0  0  0  0  0  0  0  0  0  0  0
  2  1  1  6
  2  3  1  0
  2  4  1  0
  4  5  1  0
  4  6  1  1
  6  7  1  0
  5  8  1  6
  5  9  1  0
  7  9  1  0
  8 10  1  0
  9 11  1  0
 10 11  1  0
  8 12  1  0
 10 13  1  1
 11 14  2  0
 12 15  2  0
 12 16  1  0
 15 17  1  0
 16 18  2  0
 17 19  2  0
 18 19  1  0
 19 20  1  0
M  END
