x0950_1_A-x0926_0_A
     RDKit          3D

 16 16  0  0  0  0  0  0  0  0999 V2000
    1.1040   13.9670   -4.7110 C   0  0  0  0  0  0  0  0  0  0  0  0
    1.3460   12.5030   -4.3980 C   0  0  2  0  0  0  0  0  0  0  0  0
    0.7300   11.7360   -5.4300 O   0  0  0  0  0  0  0  0  0  0  0  0
    0.8440   12.0930   -2.9950 C   0  0  0  0  0  0  0  0  0  0  0  0
    0.3590   11.0080   -2.7100 O   0  0  0  0  0  0  0  0  0  0  0  0
    1.0150   13.1130   -2.0960 O   0  0  0  0  0  0  0  0  0  0  0  0
   -0.1980   13.8410   -1.8320 C   0  0  0  0  0  0  0  0  0  0  0  0
   -0.1170   14.6000   -0.5070 C   0  0  0  0  0  0  0  0  0  0  0  0
   -1.3650   14.4760    0.3850 C   0  0  0  0  0  0  0  0  0  0  0  0
   -2.5820   15.3700    0.0480 C   0  0  1  0  0  0  0  0  0  0  0  0
   -3.1680   14.9830   -1.2580 N   0  0  0  0  0  0  0  0  0  0  0  0
   -3.5940   15.3310    1.1600 C   0  0  0  0  0  0  0  0  0  0  0  0
   -4.9090   15.2440    0.9610 C   0  0  0  0  0  0  0  0  0  0  0  0
   -4.5390   15.3120   -1.4290 N   0  0  0  0  0  0  0  0  0  0  0  0
   -5.4570   15.1820   -0.4090 C   0  0  0  0  0  0  0  0  0  0  0  0
   -6.6570   15.0220   -0.6010 O   0  0  0  0  0  0  0  0  0  0  0  0
  2  1  1  6
  2  3  1  0
  2  4  1  0
  4  5  2  0
  4  6  1  0
  6  7  1  0
  7  8  1  0
  8  9  1  0
 10  9  1  1
 10 11  1  0
 10 12  1  0
 12 13  2  0
 11 14  1  0
 13 15  1  0
 14 15  1  0
 15 16  2  0
M  END
