x0950_0_A-x0962_0_A
     RDKit          3D

 15 15  0  0  0  0  0  0  0  0999 V2000
    2.9510   12.8820   -4.0260 C   0  0  0  0  0  0  0  0  0  0  0  0
    1.4660   12.7600   -4.3040 C   0  0  1  0  0  0  0  0  0  0  0  0
    1.2450   12.0780   -5.5360 O   0  0  0  0  0  0  0  0  0  0  0  0
    0.7540   12.0710   -3.1380 C   0  0  0  0  0  0  0  0  0  0  0  0
    0.7680   10.8790   -2.8780 O   0  0  0  0  0  0  0  0  0  0  0  0
    0.0630   12.9850   -2.4610 O   0  0  0  0  0  0  0  0  0  0  0  0
   -1.2200   13.1600   -3.0740 C   0  0  0  0  0  0  0  0  0  0  0  0
   -1.5100   14.6250   -3.3350 C   0  0  0  0  0  0  0  0  0  0  0  0
   -2.5170   14.9890   -2.3630 C   0  0  0  0  0  0  0  0  0  0  0  0
   -3.2700   15.1380   -1.4670 C   0  0  0  0  0  0  0  0  0  0  0  0
   -4.0730   15.1530   -0.3320 C   0  0  0  0  0  0  0  0  0  0  0  0
   -3.6340   15.4900    0.9150 N   0  0  0  0  0  0  0  0  0  0  0  0
   -5.3960   14.8550   -0.2000 C   0  0  0  0  0  0  0  0  0  0  0  0
   -4.7030   15.3880    1.7440 C   0  0  0  0  0  0  0  0  0  0  0  0
   -5.7830   14.9980    1.0990 N   0  0  0  0  0  0  0  0  0  0  0  0
  2  1  1  1
  2  3  1  0
  2  4  1  0
  4  5  2  0
  4  6  1  0
  6  7  1  0
  7  8  1  0
  8  9  1  0
  9 10  3  0
 10 11  1  0
 11 12  1  0
 11 13  2  0
 12 14  1  0
 13 15  1  0
 14 15  2  0
M  END
