x0950_1_A-x1012_0_A
     RDKit          3D

 15 15  0  0  0  0  0  0  0  0999 V2000
    1.4000   13.5830   -5.3890 C   0  0  0  0  0  0  0  0  0  0  0  0
    1.2960   12.3710   -4.5270 C   0  0  2  0  0  0  0  0  0  0  0  0
    0.5640   11.3840   -5.2540 O   0  0  0  0  0  0  0  0  0  0  0  0
    0.7390   12.5810   -3.1090 C   0  0  0  0  0  0  0  0  0  0  0  0
   -0.0600   11.4310   -2.7900 O   0  0  0  0  0  0  0  0  0  0  0  0
    1.7840   12.5770   -2.1650 O   0  0  0  0  0  0  0  0  0  0  0  0
   -0.0490   13.8930   -2.9120 C   0  0  0  0  0  0  0  0  0  0  0  0
   -1.4670   13.9360   -3.5090 C   0  0  0  0  0  0  0  0  0  0  0  0
    0.8190   15.1520   -3.1900 C   0  0  0  0  0  0  0  0  0  0  0  0
   -1.5640   14.7190   -4.8260 C   0  0  0  0  0  0  0  0  0  0  0  0
    0.6250   15.8410   -4.5420 C   0  0  0  0  0  0  0  0  0  0  0  0
   -0.7780   15.9540   -4.8750 N   0  0  0  0  0  0  0  0  0  0  0  0
   -1.3410   17.1990   -4.7950 C   0  0  0  0  0  0  0  0  0  0  0  0
   -0.4910   18.2580   -4.7610 N   0  0  0  0  0  0  0  0  0  0  0  0
   -2.5370   17.4120   -4.7440 O   0  0  0  0  0  0  0  0  0  0  0  0
  2  1  1  6
  2  3  1  0
  2  4  1  0
  4  5  1  0
  4  6  1  0
  4  7  1  0
  7  8  1  0
  7  9  1  0
  8 10  1  0
  9 11  1  0
 10 12  1  0
 11 12  1  0
 12 13  1  0
 13 14  1  0
 13 15  2  0
M  END
