x0950_1_A-x0371_0_A
     RDKit          3D

 27 29  0  0  0  0  0  0  0  0999 V2000
    1.0950   13.9930   -4.7390 C   0  0  0  0  0  0  0  0  0  0  0  0
    1.3330   12.5360   -4.3840 C   0  0  2  0  0  0  0  0  0  0  0  0
    0.6580   11.7350   -5.3600 O   0  0  0  0  0  0  0  0  0  0  0  0
    0.8720   12.1720   -2.9640 C   0  0  0  0  0  0  0  0  0  0  0  0
    0.2740   11.1310   -2.6940 O   0  0  0  0  0  0  0  0  0  0  0  0
    1.2150   13.1320   -2.0590 O   0  0  0  0  0  0  0  0  0  0  0  0
    0.1700   13.5200   -1.1400 C   0  0  0  0  0  0  0  0  0  0  0  0
   -0.4100   14.8650   -1.5830 C   0  0  0  0  0  0  0  0  0  0  0  0
   -1.1950   15.5980   -0.4840 C   0  0  0  0  0  0  0  0  0  0  0  0
   -2.7040   15.4090   -0.5560 C   0  0  0  0  0  0  0  0  0  0  0  0
   -3.4010   15.0690    0.6120 C   0  0  0  0  0  0  0  0  0  0  0  0
   -3.4060   15.5660   -1.7680 C   0  0  0  0  0  0  0  0  0  0  0  0
   -4.7820   14.8960    0.5050 C   0  0  0  0  0  0  0  0  0  0  0  0
   -4.8020   15.3850   -1.8370 C   0  0  0  0  0  0  0  0  0  0  0  0
   -5.7200   14.5650    1.4330 N   0  0  0  0  0  0  0  0  0  0  0  0
   -5.4960   15.0420   -0.6730 C   0  0  0  0  0  0  0  0  0  0  0  0
   -6.9440   14.5200    0.8220 C   0  0  0  0  0  0  0  0  0  0  0  0
   -6.8400   14.8070   -0.4660 N   0  0  0  0  0  0  0  0  0  0  0  0
   -8.1720   14.1820    1.5880 C   0  0  0  0  0  0  0  0  0  0  0  0
   -7.9050   14.5230    2.9630 N   0  0  0  0  0  0  0  0  0  0  0  0
   -8.6850   15.4770    3.5890 C   0  0  0  0  0  0  0  0  0  0  0  0
   -9.4000   16.2350    2.9360 O   0  0  0  0  0  0  0  0  0  0  0  0
   -8.5970   15.4980    5.0350 C   0  0  0  0  0  0  0  0  0  0  0  0
   -8.0360   14.4160    5.6520 O   0  0  0  0  0  0  0  0  0  0  0  0
   -8.9750   16.4200    5.9980 C   0  0  0  0  0  0  0  0  0  0  0  0
   -8.6210   15.8610    7.2520 C   0  0  0  0  0  0  0  0  0  0  0  0
   -8.0520   14.6440    6.9850 C   0  0  0  0  0  0  0  0  0  0  0  0
  2  1  1  6
  2  3  1  0
  2  4  1  0
  4  5  2  0
  4  6  1  0
  6  7  1  0
  7  8  1  0
  8  9  1  0
  9 10  1  0
 10 11  2  0
 10 12  1  0
 11 13  1  0
 12 14  2  0
 13 15  1  0
 13 16  2  0
 14 16  1  0
 15 17  1  0
 16 18  1  0
 17 18  2  0
 17 19  1  0
 19 20  1  0
 20 21  1  0
 21 22  2  0
 21 23  1  0
 23 24  1  0
 23 25  2  0
 25 26  1  0
 24 27  1  0
 26 27  2  0
M  END
