x0950_0_A_α-x0587_0_A_α
     RDKit          3D

 22 22  0  0  0  0  0  0  0  0999 V2000
    2.8150   12.9420   -3.8650 C   0  0  0  0  0  0  0  0  0  0  0  0
    1.3030   12.8270   -3.9150 C   0  0  1  0  0  0  0  0  0  0  0  0
    0.9400   12.3110   -5.2010 O   0  0  0  0  0  0  0  0  0  0  0  0
    0.7410   11.9280   -2.7910 C   0  0  0  0  0  0  0  0  0  0  0  0
    0.2940   10.8110   -3.0100 O   0  0  0  0  0  0  0  0  0  0  0  0
    0.8020   12.4950   -1.5430 O   0  0  0  0  0  0  0  0  0  0  0  0
    0.0250   13.6840   -1.2970 C   0  0  0  0  0  0  0  0  0  0  0  0
   -1.4590   13.3870   -1.5020 C   0  0  0  0  0  0  0  0  0  0  0  0
   -2.3500   14.0270   -0.4370 C   0  0  0  0  0  0  0  0  0  0  0  0
   -3.1680   15.0220   -1.0490 O   0  0  0  0  0  0  0  0  0  0  0  0
   -4.4640   14.5390   -1.4540 C   0  0  0  0  0  0  0  0  0  0  0  0
   -4.3350   13.2820   -1.9740 F   0  0  0  0  0  0  0  0  0  0  0  0
   -4.8170   15.3110   -2.5220 F   0  0  0  0  0  0  0  0  0  0  0  0
   -5.4820   14.6160   -0.3030 C   0  0  0  0  0  0  0  0  0  0  0  0
   -6.8050   14.5060   -0.5950 N   0  0  0  0  0  0  0  0  0  0  0  0
   -5.0150   14.7930    0.9500 N   0  0  0  0  0  0  0  0  0  0  0  0
   -7.6790   14.5900    0.4370 C   0  0  0  0  0  0  0  0  0  0  0  0
   -5.9310   14.8680    1.9380 C   0  0  0  0  0  0  0  0  0  0  0  0
   -7.2890   14.7770    1.7410 C   0  0  0  0  0  0  0  0  0  0  0  0
   -8.2760   14.8800    2.8270 C   0  0  0  0  0  0  0  0  0  0  0  0
   -7.8060   14.8300    4.1070 N   0  0  0  0  0  0  0  0  0  0  0  0
   -9.4730   15.0170    2.5910 O   0  0  0  0  0  0  0  0  0  0  0  0
  2  1  1  6
  2  3  1  0
  2  4  1  0
  4  5  2  0
  4  6  1  0
  6  7  1  0
  7  8  1  0
  8  9  1  0
  9 10  1  0
 10 11  1  0
 11 12  1  0
 11 13  1  0
 11 14  1  0
 14 15  2  0
 14 16  1  0
 15 17  1  0
 16 18  2  0
 17 19  2  0
 18 19  1  0
 19 20  1  0
 20 21  1  0
 20 22  2  0
M  END
