x0950_0_A_α-x1012_0_A_α
     RDKit          3D

 15 15  0  0  0  0  0  0  0  0999 V2000
    3.2460   12.2150   -4.3700 C   0  0  0  0  0  0  0  0  0  0  0  0
    1.8110   12.7020   -4.4900 C   0  0  1  0  0  0  0  0  0  0  0  0
    1.1470   11.9160   -5.5030 O   0  0  0  0  0  0  0  0  0  0  0  0
    0.9190   12.6280   -3.2180 C   0  0  0  0  0  0  0  0  0  0  0  0
    0.1830   11.4010   -3.2840 O   0  0  0  0  0  0  0  0  0  0  0  0
    1.7070   12.4870   -2.0640 O   0  0  0  0  0  0  0  0  0  0  0  0
    0.0370   13.8780   -3.0300 C   0  0  0  0  0  0  0  0  0  0  0  0
   -1.3800   13.8220   -3.6780 C   0  0  0  0  0  0  0  0  0  0  0  0
    0.8540   15.1500   -3.3740 C   0  0  0  0  0  0  0  0  0  0  0  0
   -1.6730   14.7290   -4.8880 C   0  0  0  0  0  0  0  0  0  0  0  0
    0.6010   15.6280   -4.7890 C   0  0  0  0  0  0  0  0  0  0  0  0
   -0.8040   15.8970   -4.9910 N   0  0  0  0  0  0  0  0  0  0  0  0
   -1.3460   17.1440   -4.8020 C   0  0  0  0  0  0  0  0  0  0  0  0
   -0.4780   18.1770   -4.6820 N   0  0  0  0  0  0  0  0  0  0  0  0
   -2.5370   17.3750   -4.7240 O   0  0  0  0  0  0  0  0  0  0  0  0
  2  1  1  1
  2  3  1  0
  2  4  1  0
  4  5  1  0
  4  6  1  0
  4  7  1  0
  7  8  1  0
  7  9  1  0
  8 10  1  0
  9 11  1  0
 10 12  1  0
 11 12  1  0
 12 13  1  0
 13 14  1  0
 13 15  2  0
M  END
