x0950_1_A-x0662_0_A
     RDKit          3D

 22 23  0  0  0  0  0  0  0  0999 V2000
    0.8950   13.7410   -5.2370 C   0  0  0  0  0  0  0  0  0  0  0  0
    1.0070   12.2570   -4.9240 C   0  0  2  0  0  0  0  0  0  0  0  0
   -0.0770   11.4530   -5.6490 C   0  0  0  0  0  0  0  0  0  0  0  0
    0.9450   12.0390   -3.4190 C   0  0  0  0  0  0  0  0  0  0  0  0
    0.3830   11.1300   -2.8290 O   0  0  0  0  0  0  0  0  0  0  0  0
    1.5800   12.9780   -2.6940 O   0  0  0  0  0  0  0  0  0  0  0  0
   -1.1730   11.4210   -5.1020 O   0  0  0  0  0  0  0  0  0  0  0  0
   -0.0270   10.6670   -6.9540 C   0  0  0  0  0  0  0  0  0  0  0  0
   -0.9140    9.5950   -7.1010 C   0  0  0  0  0  0  0  0  0  0  0  0
    0.8490   10.9650   -8.0200 C   0  0  0  0  0  0  0  0  0  0  0  0
   -0.9390    8.8420   -8.2740 C   0  0  0  0  0  0  0  0  0  0  0  0
    0.8230   10.2040   -9.2270 C   0  0  0  0  0  0  0  0  0  0  0  0
    1.6300   10.4010  -10.3810 N   0  0  0  0  0  0  0  0  0  0  0  0
   -0.0810    9.1470   -9.3260 C   0  0  0  0  0  0  0  0  0  0  0  0
    2.1830    9.4260  -11.2140 C   0  0  0  0  0  0  0  0  0  0  0  0
    2.1630    8.2190  -11.0050 O   0  0  0  0  0  0  0  0  0  0  0  0
    2.8640    9.9570  -12.4270 C   0  0  0  0  0  0  0  0  0  0  0  0
    2.6610   11.2010  -13.0970 C   0  0  0  0  0  0  0  0  0  0  0  0
    3.8300    9.2390  -13.0490 N   0  0  0  0  0  0  0  0  0  0  0  0
    4.2230   10.0160  -14.0750 N   0  0  0  0  0  0  0  0  0  0  0  0
    3.5500   11.2020  -14.1460 C   0  0  0  0  0  0  0  0  0  0  0  0
    5.2680    9.5520  -14.9580 C   0  0  0  0  0  0  0  0  0  0  0  0
  2  1  1  1
  2  3  1  0
  2  4  1  0
  4  5  2  0
  4  6  1  0
  3  7  2  0
  3  8  1  0
  8  9  2  0
  8 10  1  0
  9 11  1  0
 10 12  2  0
 12 13  1  0
 11 14  2  0
 12 14  1  0
 13 15  1  0
 15 16  2  0
 15 17  1  0
 17 18  1  0
 17 19  2  0
 19 20  1  0
 18 21  2  0
 20 21  1  0
 20 22  1  0
M  END
