x0950_0_A-x0905_0_A
     RDKit          3D

 16 16  0  0  0  0  0  0  0  0999 V2000
    2.9390   12.5090   -4.0520 C   0  0  0  0  0  0  0  0  0  0  0  0
    1.4440   12.7860   -3.9540 C   0  0  1  0  0  0  0  0  0  0  0  0
    0.8820   12.4740   -5.2300 O   0  0  0  0  0  0  0  0  0  0  0  0
    0.7970   11.9740   -2.8060 C   0  0  0  0  0  0  0  0  0  0  0  0
    0.2590   10.8880   -2.9540 O   0  0  0  0  0  0  0  0  0  0  0  0
    0.9010   12.5990   -1.5780 O   0  0  0  0  0  0  0  0  0  0  0  0
    0.0990   13.7660   -1.2990 C   0  0  0  0  0  0  0  0  0  0  0  0
   -0.7260   13.5670   -0.0210 C   0  0  0  0  0  0  0  0  0  0  0  0
   -1.4670   14.7860    0.5270 C   0  0  0  0  0  0  0  0  0  0  0  0
   -2.9160   14.9300    0.0840 C   0  0  0  0  0  0  0  0  0  0  0  0
   -3.9350   14.8710    1.0250 C   0  0  0  0  0  0  0  0  0  0  0  0
   -3.3100   15.1230   -1.2580 C   0  0  0  0  0  0  0  0  0  0  0  0
   -5.2530   14.9740    0.7450 N   0  0  0  0  0  0  0  0  0  0  0  0
   -4.6670   15.2360   -1.5770 C   0  0  0  0  0  0  0  0  0  0  0  0
   -5.5700   15.1490   -0.5400 C   0  0  0  0  0  0  0  0  0  0  0  0
   -6.9060   15.2370   -0.7610 O   0  0  0  0  0  0  0  0  0  0  0  0
  2  1  1  6
  2  3  1  0
  2  4  1  0
  4  5  2  0
  4  6  1  0
  6  7  1  0
  7  8  1  0
  8  9  1  0
  9 10  1  0
 10 11  2  0
 10 12  1  0
 11 13  1  0
 12 14  2  0
 13 15  2  0
 14 15  1  0
 15 16  1  0
M  END
