x0950_0_A-x0910_0_A
     RDKit          3D

 14 14  0  0  0  0  0  0  0  0999 V2000
    2.8140   12.9220   -3.8750 C   0  0  0  0  0  0  0  0  0  0  0  0
    1.3110   12.7770   -4.0710 C   0  0  1  0  0  0  0  0  0  0  0  0
    1.0820   12.3540   -5.4130 O   0  0  0  0  0  0  0  0  0  0  0  0
    0.6670   11.8410   -3.0190 C   0  0  0  0  0  0  0  0  0  0  0  0
    0.4520   10.6500   -3.1650 O   0  0  0  0  0  0  0  0  0  0  0  0
    0.3190   12.4940   -1.8790 O   0  0  0  0  0  0  0  0  0  0  0  0
   -1.1000   12.4180   -1.6760 C   0  0  0  0  0  0  0  0  0  0  0  0
   -1.9030   13.3860   -2.5630 C   0  0  0  0  0  0  0  0  0  0  0  0
   -2.3830   14.4930   -1.7450 N   0  0  0  0  0  0  0  0  0  0  0  0
   -1.6600   14.7030   -0.6390 C   0  0  0  0  0  0  0  0  0  0  0  0
   -2.2140   14.7020    0.6110 N   0  0  0  0  0  0  0  0  0  0  0  0
   -0.3720   14.9290   -0.5440 N   0  0  0  0  0  0  0  0  0  0  0  0
   -1.2820   14.9260    1.5420 N   0  0  0  0  0  0  0  0  0  0  0  0
   -0.1840   15.0610    0.7990 C   0  0  0  0  0  0  0  0  0  0  0  0
  2  1  1  1
  2  3  1  0
  2  4  1  0
  4  5  2  0
  4  6  1  0
  6  7  1  0
  7  8  1  0
  8  9  1  0
  9 10  1  0
 10 11  1  0
 10 12  2  0
 11 13  1  0
 12 14  1  0
 13 14  2  0
M  END
