x0950_1_A-x0574_0_A
     RDKit          3D

 20 21  0  0  0  0  0  0  0  0999 V2000
    1.0650   13.9780   -4.7690 C   0  0  0  0  0  0  0  0  0  0  0  0
    1.3880   12.5060   -4.5730 C   0  0  2  0  0  0  0  0  0  0  0  0
    0.6810   11.7660   -5.5720 O   0  0  0  0  0  0  0  0  0  0  0  0
    1.0290   11.9820   -3.1760 C   0  0  0  0  0  0  0  0  0  0  0  0
    0.3860   10.9530   -2.9740 O   0  0  0  0  0  0  0  0  0  0  0  0
    1.4920   12.7850   -2.1990 O   0  0  0  0  0  0  0  0  0  0  0  0
    0.4270   13.4780   -1.5520 C   0  0  0  0  0  0  0  0  0  0  0  0
    0.8850   14.5690   -0.5820 C   0  0  0  0  0  0  0  0  0  0  0  0
    0.2730   14.3800    0.7490 N   0  0  0  0  0  0  0  0  0  0  0  0
   -1.0240   14.5000    0.6790 C   0  0  0  0  0  0  0  0  0  0  0  0
   -1.9420   14.4970    1.6110 N   0  0  0  0  0  0  0  0  0  0  0  0
   -1.5140   14.6850   -0.9310 S   0  0  0  0  0  0  0  0  0  0  0  0
   -3.1670   14.6570    0.9480 C   0  0  0  0  0  0  0  0  0  0  0  0
   -3.1060   14.7830   -0.4370 C   0  0  0  0  0  0  0  0  0  0  0  0
   -4.4420   14.7030    1.5160 C   0  0  0  0  0  0  0  0  0  0  0  0
   -4.2080   14.9570   -1.2600 C   0  0  0  0  0  0  0  0  0  0  0  0
   -5.5700   14.8640    0.7130 C   0  0  0  0  0  0  0  0  0  0  0  0
   -5.4470   14.9950   -0.6590 C   0  0  0  0  0  0  0  0  0  0  0  0
   -6.8590   14.9080    1.1530 O   0  0  0  0  0  0  0  0  0  0  0  0
   -7.0610   14.6630    2.5380 C   0  0  0  0  0  0  0  0  0  0  0  0
  2  1  1  1
  2  3  1  0
  2  4  1  0
  4  5  2  0
  4  6  1  0
  6  7  1  0
  7  8  1  0
  8  9  1  0
  9 10  1  0
 10 11  2  0
 10 12  1  0
 11 13  1  0
 12 14  1  0
 13 14  2  0
 13 15  1  0
 14 16  1  0
 15 17  2  0
 16 18  2  0
 17 18  1  0
 17 19  1  0
 19 20  1  0
M  END
