x0950_1_A_α-x0159_0_B_α
     RDKit          3D

 17 17  0  0  0  0  0  0  0  0999 V2000
    0.6660   13.7330   -5.0560 C   0  0  0  0  0  0  0  0  0  0  0  0
    1.0970   12.3340   -4.6300 C   0  0  2  0  0  0  0  0  0  0  0  0
    0.3900   11.3560   -5.4100 O   0  0  0  0  0  0  0  0  0  0  0  0
    0.8310   12.1380   -3.1260 C   0  0  0  0  0  0  0  0  0  0  0  0
    0.0860   11.3240   -2.6140 O   0  0  0  0  0  0  0  0  0  0  0  0
    1.5250   12.9780   -2.3360 O   0  0  0  0  0  0  0  0  0  0  0  0
    0.1710   11.6490   -6.7900 C   0  0  0  0  0  0  0  0  0  0  0  0
    1.0760   10.7470   -7.6340 C   0  0  0  0  0  0  0  0  0  0  0  0
    0.5770    9.3050   -7.8220 C   0  0  0  0  0  0  0  0  0  0  0  0
    1.5010    8.4400   -8.7140 C   0  0  0  0  0  0  0  0  0  0  0  0
    0.8760    7.1860   -9.3340 C   0  0  0  0  0  0  0  0  0  0  0  0
    1.0800    5.8970   -8.5890 C   0  0  0  0  0  0  0  0  0  0  0  0
    0.8500    5.8070   -7.2130 C   0  0  0  0  0  0  0  0  0  0  0  0
    1.5000    4.7550   -9.2740 C   0  0  0  0  0  0  0  0  0  0  0  0
    1.0380    4.6020   -6.5480 C   0  0  0  0  0  0  0  0  0  0  0  0
    1.6770    3.5580   -8.6020 C   0  0  0  0  0  0  0  0  0  0  0  0
    1.4520    3.4800   -7.2470 C   0  0  0  0  0  0  0  0  0  0  0  0
  2  1  1  6
  2  3  1  0
  2  4  1  0
  4  5  2  0
  4  6  1  0
  3  7  1  0
  7  8  1  0
  8  9  1  0
  9 10  1  0
 10 11  1  0
 11 12  1  0
 12 13  2  0
 12 14  1  0
 13 15  1  0
 14 16  2  0
 15 17  2  0
 16 17  1  0
M  END
