x0950_1_A-x0681_0_A
     RDKit          3D

 20 21  0  0  0  0  0  0  0  0999 V2000
    1.0530   13.9730   -4.7410 C   0  0  0  0  0  0  0  0  0  0  0  0
    1.3290   12.5100   -4.4310 C   0  0  2  0  0  0  0  0  0  0  0  0
    0.7180   11.7300   -5.4570 O   0  0  0  0  0  0  0  0  0  0  0  0
    0.8620   12.1360   -3.0080 C   0  0  0  0  0  0  0  0  0  0  0  0
    0.2410   11.1120   -2.7340 O   0  0  0  0  0  0  0  0  0  0  0  0
    1.2400   13.0750   -2.0900 O   0  0  0  0  0  0  0  0  0  0  0  0
    0.3540   14.2020   -1.8900 C   0  0  0  0  0  0  0  0  0  0  0  0
   -1.0780   13.7150   -1.6230 C   0  0  0  0  0  0  0  0  0  0  0  0
   -2.0870   14.5130   -2.3540 N   0  0  0  0  0  0  0  0  0  0  0  0
   -3.2150   14.8460   -1.8090 C   0  0  0  0  0  0  0  0  0  0  0  0
   -4.2130   15.5800   -2.4100 N   0  0  0  0  0  0  0  0  0  0  0  0
   -3.5030   14.3950   -0.3610 C   0  0  2  0  0  0  0  0  0  0  0  0
   -4.6250   13.3810   -0.3750 C   0  0  0  0  0  0  0  0  0  0  0  0
   -3.8200   15.5770    0.5740 C   0  0  0  0  0  0  0  0  0  0  0  0
   -5.6410   13.4120    0.5400 N   0  0  0  0  0  0  0  0  0  0  0  0
   -4.4180   15.0700    1.8670 C   0  0  0  0  0  0  0  0  0  0  0  0
   -4.7980   12.3740   -1.2130 N   0  0  0  0  0  0  0  0  0  0  0  0
   -5.7560   14.3890    1.5880 C   0  0  0  0  0  0  0  0  0  0  0  0
   -6.4930   12.3850    0.2830 C   0  0  0  0  0  0  0  0  0  0  0  0
   -5.9540   11.7540   -0.8100 C   0  0  0  0  0  0  0  0  0  0  0  0
  2  1  1  6
  2  3  1  0
  2  4  1  0
  4  5  2  0
  4  6  1  0
  6  7  1  0
  7  8  1  0
  8  9  1  0
  9 10  2  3
 10 11  1  0
 12 10  1  6
 12 13  1  0
 12 14  1  0
 13 15  1  0
 14 16  1  0
 13 17  2  0
 15 18  1  0
 16 18  1  0
 15 19  1  0
 17 20  1  0
 19 20  2  0
M  END
