x0950_1_A-x0711_0_A
     RDKit          3D

 18 19  0  0  0  0  0  0  0  0999 V2000
   -0.3920   13.5310   -3.9950 C   0  0  0  0  0  0  0  0  0  0  0  0
    0.6120   12.5750   -4.5720 C   0  0  2  0  0  0  0  0  0  0  0  0
    0.0470   11.7590   -5.5660 O   0  0  0  0  0  0  0  0  0  0  0  0
   -0.0680   13.8500   -2.2710 S   0  0  1  0  0  0  0  0  0  0  0  0
    0.7840   11.8870   -3.2150 C   0  0  0  0  0  0  0  0  0  0  0  0
    1.1410   12.8500   -2.3970 N   0  0  0  0  0  0  0  0  0  0  0  0
   -1.4610   14.5630   -2.9060 N   0  0  0  0  0  0  0  0  0  0  0  0
   -0.4830   14.6230   -0.8210 C   0  0  0  0  0  0  0  0  0  0  0  0
    0.5470   10.7060   -2.9730 O   0  0  0  0  0  0  0  0  0  0  0  0
   -2.6660   14.6080   -2.0960 C   0  0  0  0  0  0  0  0  0  0  0  0
   -3.8820   15.0850   -2.6230 C   0  0  0  0  0  0  0  0  0  0  0  0
   -2.7040   14.1820   -0.7490 C   0  0  0  0  0  0  0  0  0  0  0  0
   -5.0640   15.1220   -1.8450 C   0  0  0  0  0  0  0  0  0  0  0  0
   -3.8690   14.2140    0.0360 C   0  0  0  0  0  0  0  0  0  0  0  0
   -5.0610   14.6800   -0.5080 C   0  0  0  0  0  0  0  0  0  0  0  0
   -6.3380   14.7170    0.2790 C   0  0  0  0  0  0  0  0  0  0  0  0
   -6.3030   14.7820    1.6560 N   0  0  0  0  0  0  0  0  0  0  0  0
   -7.4270   14.6870   -0.2850 O   0  0  0  0  0  0  0  0  0  0  0  0
  1  2  1  0
  2  3  1  6
  1  4  2  0
  2  5  1  0
  4  6  2  0
  5  6  1  0
  4  7  1  0
  4  8  1  6
  5  9  2  0
  7 10  1  0
 10 11  2  0
 10 12  1  0
 11 13  1  0
 12 14  2  0
 13 15  2  0
 14 15  1  0
 15 16  1  0
 16 17  1  0
 16 18  2  0
M  END
