x0950_0_A_α-x0465_0_A_α
     RDKit          3D

 13 13  0  0  0  0  0  0  0  0999 V2000
    2.5520   12.9840   -4.5780 C   0  0  0  0  0  0  0  0  0  0  0  0
    1.0640   12.6480   -4.5500 C   0  0  1  0  0  0  0  0  0  0  0  0
    0.7530   11.6710   -5.5720 O   0  0  0  0  0  0  0  0  0  0  0  0
    0.7580   12.0590   -3.1690 C   0  0  0  0  0  0  0  0  0  0  0  0
    0.2510   10.9650   -2.9660 O   0  0  0  0  0  0  0  0  0  0  0  0
    1.1050   12.8880   -2.1530 O   0  0  0  0  0  0  0  0  0  0  0  0
   -0.4640   11.0070   -5.6320 C   0  0  0  0  0  0  0  0  0  0  0  0
   -0.5530    9.9540   -6.5710 C   0  0  0  0  0  0  0  0  0  0  0  0
   -1.5950   11.2800   -4.8580 C   0  0  0  0  0  0  0  0  0  0  0  0
    0.4950    9.6430   -7.3480 F   0  0  0  0  0  0  0  0  0  0  0  0
   -1.7140    9.2030   -6.7310 C   0  0  0  0  0  0  0  0  0  0  0  0
   -2.7690   10.5250   -5.0190 C   0  0  0  0  0  0  0  0  0  0  0  0
   -2.8300    9.4890   -5.9510 C   0  0  0  0  0  0  0  0  0  0  0  0
  2  1  1  1
  2  3  1  0
  2  4  1  0
  4  5  2  0
  4  6  1  0
  3  7  1  0
  7  8  2  0
  7  9  1  0
  8 10  1  0
  8 11  1  0
  9 12  2  0
 11 13  2  0
 12 13  1  0
M  END
