x0950_0_A-x0895_1_A
     RDKit          3D

 16 16  0  0  0  0  0  0  0  0999 V2000
    2.8070   13.0030   -4.1630 C   0  0  0  0  0  0  0  0  0  0  0  0
    1.3040   12.8290   -4.1980 C   0  0  1  0  0  0  0  0  0  0  0  0
    0.9570   12.0880   -5.3670 O   0  0  0  0  0  0  0  0  0  0  0  0
    0.8170   12.1410   -2.9190 C   0  0  0  0  0  0  0  0  0  0  0  0
    0.2050   11.0770   -2.9200 O   0  0  0  0  0  0  0  0  0  0  0  0
    1.1700   12.8430   -1.8040 O   0  0  0  0  0  0  0  0  0  0  0  0
    0.3150   13.9380   -1.4170 C   0  0  0  0  0  0  0  0  0  0  0  0
   -0.1930   13.6780   -0.0000 C   0  0  0  0  0  0  0  0  0  0  0  0
   -0.4040   14.9080    0.8590 C   0  0  0  0  0  0  0  0  0  0  0  0
   -1.6870   14.7610    1.5530 N   0  0  0  0  0  0  0  0  0  0  0  0
   -2.7510   14.6830    0.8330 C   0  0  0  0  0  0  0  0  0  0  0  0
   -2.9480   14.6710   -0.6750 C   0  0  0  0  0  0  0  0  0  0  0  0
   -3.9710   14.5860    1.4060 N   0  0  0  0  0  0  0  0  0  0  0  0
   -4.3260   15.0690   -0.7130 N   0  0  0  0  0  0  0  0  0  0  0  0
   -4.9390   14.8170    0.4920 C   0  0  0  0  0  0  0  0  0  0  0  0
   -6.1420   14.8010    0.6800 O   0  0  0  0  0  0  0  0  0  0  0  0
  2  1  1  1
  2  3  1  0
  2  4  1  0
  4  5  2  0
  4  6  1  0
  6  7  1  0
  7  8  1  0
  8  9  1  0
  9 10  1  0
 10 11  2  3
 11 12  1  0
 11 13  1  0
 12 14  1  0
 13 15  1  0
 14 15  1  0
 15 16  2  0
M  END
