x0950_1_A-x0628_0_A
     RDKit          3D

 13 13  0  0  0  0  0  0  0  0999 V2000
    0.1680   13.1010   -5.1490 C   0  0  0  0  0  0  0  0  0  0  0  0
    1.2190   12.3700   -4.4000 C   0  0  1  0  0  0  0  0  0  0  0  0
    2.4990   12.8790   -4.7110 O   0  0  0  0  0  0  0  0  0  0  0  0
   -0.6390   12.0070   -5.5840 N   0  0  0  0  0  0  0  0  0  0  0  0
    0.9240   12.2210   -2.9100 C   0  0  0  0  0  0  0  0  0  0  0  0
   -0.1440   11.1700   -6.5100 N   0  0  0  0  0  0  0  0  0  0  0  0
   -1.8840   11.6350   -5.1800 C   0  0  0  0  0  0  0  0  0  0  0  0
    0.2680   11.3360   -2.3880 O   0  0  0  0  0  0  0  0  0  0  0  0
    1.4770   13.1950   -2.1650 O   0  0  0  0  0  0  0  0  0  0  0  0
   -2.6810   12.3600   -4.1640 C   0  0  0  0  0  0  0  0  0  0  0  0
   -2.2220   10.5440   -5.8350 N   0  0  0  0  0  0  0  0  0  0  0  0
   -1.1350   10.2870   -6.6320 C   0  0  0  0  0  0  0  0  0  0  0  0
   -1.0580    9.1350   -7.5450 C   0  0  0  0  0  0  0  0  0  0  0  0
  1  2  1  0
  2  3  1  1
  1  4  1  0
  2  5  1  0
  4  6  1  0
  4  7  1  0
  5  8  2  0
  5  9  1  0
  7 10  1  0
  7 11  2  0
  6 12  2  0
 11 12  1  0
 12 13  1  0
M  END
