x0950_1_A_α-x0950_0_A_α
     RDKit          3D

  7  6  0  0  0  0  0  0  0  0999 V2000
    1.1640   13.9470   -4.7810 C   0  0  0  0  0  0  0  0  0  0  0  0
    1.5040   12.4900   -4.4910 C   0  0  0  0  0  0  0  0  0  0  0  0
    0.8490   11.7040   -5.4890 O   0  0  0  0  0  0  0  0  0  0  0  0
    1.0360   12.0890   -3.0870 C   0  0  0  0  0  0  0  0  0  0  0  0
    3.0100   12.2560   -4.5760 C   0  0  0  0  0  0  0  0  0  0  0  0
    0.3660   11.1260   -2.7830 O   0  0  0  0  0  0  0  0  0  0  0  0
    1.4670   12.9580   -2.1460 O   0  0  0  0  0  0  0  0  0  0  0  0
  1  2  1  0
  2  3  1  0
  2  4  1  0
  2  5  1  0
  4  6  2  0
  4  7  1  0
M  END
