x0950_1_A_α-x0724_0_A_α
     RDKit          3D

 23 24  0  0  0  0  0  0  0  0999 V2000
    1.0760   13.9950   -4.6870 C   0  0  0  0  0  0  0  0  0  0  0  0
    1.3450   12.5220   -4.4450 C   0  0  2  0  0  0  0  0  0  0  0  0
    0.6820   11.7610   -5.4520 O   0  0  0  0  0  0  0  0  0  0  0  0
    0.9470   12.1010   -3.0170 C   0  0  0  0  0  0  0  0  0  0  0  0
    0.2930   11.1010   -2.7410 O   0  0  0  0  0  0  0  0  0  0  0  0
    1.4300   12.9900   -2.0980 O   0  0  0  0  0  0  0  0  0  0  0  0
    0.4530   13.4360   -1.1460 C   0  0  0  0  0  0  0  0  0  0  0  0
   -0.1060   14.7780   -1.5730 C   0  0  0  0  0  0  0  0  0  0  0  0
   -1.4270   14.6530   -2.3370 C   0  0  0  0  0  0  0  0  0  0  0  0
   -2.6640   14.6770   -1.4720 C   0  0  0  0  0  0  0  0  0  0  0  0
   -2.6000   14.7450   -0.0680 C   0  0  0  0  0  0  0  0  0  0  0  0
   -3.9130   14.6270   -2.0900 C   0  0  0  0  0  0  0  0  0  0  0  0
   -3.7720   14.7580    0.7030 C   0  0  0  0  0  0  0  0  0  0  0  0
   -5.0770   14.6390   -1.3310 C   0  0  0  0  0  0  0  0  0  0  0  0
   -5.0230   14.7020    0.0660 C   0  0  0  0  0  0  0  0  0  0  0  0
   -6.2540   14.7060    0.7730 N   0  0  0  0  0  0  0  0  0  0  0  0
   -7.4200   14.5790    0.0900 N   0  0  0  0  0  0  0  0  0  0  0  0
   -6.4940   14.8330    2.1350 C   0  0  0  0  0  0  0  0  0  0  0  0
   -7.8680   14.7970    2.3170 C   0  0  0  0  0  0  0  0  0  0  0  0
   -8.3710   14.6360    1.0140 C   0  0  0  0  0  0  0  0  0  0  0  0
   -8.6910   14.9050    3.5560 C   0  0  0  0  0  0  0  0  0  0  0  0
   -7.9270   14.5550    4.7420 N   0  0  0  0  0  0  0  0  0  0  0  0
   -8.6830   13.7180    5.6670 C   0  0  0  0  0  0  0  0  0  0  0  0
  2  1  1  6
  2  3  1  0
  2  4  1  0
  4  5  2  0
  4  6  1  0
  6  7  1  0
  7  8  1  0
  8  9  1  0
  9 10  1  0
 10 11  2  0
 10 12  1  0
 11 13  1  0
 12 14  2  0
 13 15  2  0
 14 15  1  0
 15 16  1  0
 16 17  1  0
 16 18  1  0
 18 19  2  0
 17 20  2  0
 19 20  1  0
 19 21  1  0
 21 22  1  0
 22 23  1  0
M  END
