x0950_1_A_α-x0711_0_A_α
     RDKit          3D

 18 19  0  0  0  0  0  0  0  0999 V2000
    0.0290   13.6310   -4.5390 C   0  0  0  0  0  0  0  0  0  0  0  0
    1.0600   12.5300   -4.5390 C   0  0  2  0  0  0  0  0  0  0  0  0
    0.7960   11.7080   -5.6450 O   0  0  0  0  0  0  0  0  0  0  0  0
   -0.3520   13.7370   -2.8830 S   0  0  1  0  0  0  0  0  0  0  0  0
    0.7160   11.8280   -3.1200 C   0  0  0  0  0  0  0  0  0  0  0  0
    0.5220   12.7200   -2.1360 N   0  0  0  0  0  0  0  0  0  0  0  0
   -1.5760   14.9010   -2.9200 N   0  0  0  0  0  0  0  0  0  0  0  0
   -1.1730   14.3320   -1.5300 C   0  0  0  0  0  0  0  0  0  0  0  0
    0.5770   10.6210   -2.9690 O   0  0  0  0  0  0  0  0  0  0  0  0
   -2.7480   14.8620   -2.0720 C   0  0  0  0  0  0  0  0  0  0  0  0
   -4.0130   15.0380   -2.6590 C   0  0  0  0  0  0  0  0  0  0  0  0
   -2.7230   14.6520   -0.6730 C   0  0  0  0  0  0  0  0  0  0  0  0
   -5.1930   14.9990   -1.8940 C   0  0  0  0  0  0  0  0  0  0  0  0
   -3.8940   14.6110    0.0960 C   0  0  0  0  0  0  0  0  0  0  0  0
   -5.1340   14.7810   -0.5130 C   0  0  0  0  0  0  0  0  0  0  0  0
   -6.3950   14.7300    0.2740 C   0  0  0  0  0  0  0  0  0  0  0  0
   -6.2620   14.6840    1.6350 N   0  0  0  0  0  0  0  0  0  0  0  0
   -7.5060   14.7230   -0.2450 O   0  0  0  0  0  0  0  0  0  0  0  0
  1  2  1  0
  2  3  1  6
  1  4  2  0
  2  5  1  0
  4  6  2  0
  5  6  1  0
  4  7  1  0
  4  8  1  1
  5  9  2  0
  7 10  1  0
 10 11  2  0
 10 12  1  0
 11 13  1  0
 12 14  2  0
 13 15  2  0
 14 15  1  0
 15 16  1  0
 16 17  1  0
 16 18  2  0
M  END
