x0950_0_A-x0864_0_A
     RDKit          3D

 13 13  0  0  0  0  0  0  0  0999 V2000
    2.6620   12.8920   -4.5640 C   0  0  0  0  0  0  0  0  0  0  0  0
    1.2480   13.1340   -4.0900 C   0  0  1  0  0  0  0  0  0  0  0  0
    0.3870   13.1440   -5.2410 O   0  0  0  0  0  0  0  0  0  0  0  0
    0.8150   12.1280   -3.0400 C   0  0  0  0  0  0  0  0  0  0  0  0
    0.3000   11.0430   -3.2450 O   0  0  0  0  0  0  0  0  0  0  0  0
    1.0440   12.5760   -1.7970 O   0  0  0  0  0  0  0  0  0  0  0  0
   -0.1450   11.9380   -5.7000 N   0  0  0  0  0  0  0  0  0  0  0  0
   -1.2310   11.3970   -5.1070 C   0  0  0  0  0  0  0  0  0  0  0  0
    0.4720   11.3770   -6.7570 C   0  0  0  0  0  0  0  0  0  0  0  0
   -1.7570   10.2070   -5.5970 C   0  0  0  0  0  0  0  0  0  0  0  0
   -0.0180   10.1890   -7.2790 C   0  0  0  0  0  0  0  0  0  0  0  0
   -1.1380    9.6110   -6.6940 C   0  0  0  0  0  0  0  0  0  0  0  0
   -1.8280    8.0000   -7.3930 Br  0  0  0  0  0  0  0  0  0  0  0  0
  2  1  1  6
  2  3  1  0
  2  4  1  0
  4  5  2  0
  4  6  1  0
  3  7  1  0
  7  8  2  0
  7  9  1  0
  8 10  1  0
  9 11  2  0
 10 12  2  0
 11 12  1  0
 12 13  1  0
M  CHG  1   7   1
M  END
