x0950_0_A_α-x0662_0_A_β
     RDKit          3D

 15 15  0  0  0  0  0  0  0  0999 V2000
    3.0430   12.5820   -4.3210 C   0  0  0  0  0  0  0  0  0  0  0  0
    1.5350   12.6830   -4.4930 C   0  0  1  0  0  0  0  0  0  0  0  0
    1.1760   11.9560   -5.6970 O   0  0  0  0  0  0  0  0  0  0  0  0
    0.8830   12.0760   -3.2440 C   0  0  0  0  0  0  0  0  0  0  0  0
    0.3790   10.9670   -3.1700 O   0  0  0  0  0  0  0  0  0  0  0  0
    0.9200   12.9090   -2.1740 O   0  0  0  0  0  0  0  0  0  0  0  0
   -0.1280   11.6370   -5.9290 C   0  0  0  0  0  0  0  0  0  0  0  0
   -1.0670   11.9240   -5.2140 O   0  0  0  0  0  0  0  0  0  0  0  0
   -0.2650   10.8410   -7.1890 C   0  0  0  0  0  0  0  0  0  0  0  0
    0.7070   10.9790   -8.1800 C   0  0  0  0  0  0  0  0  0  0  0  0
   -1.3300    9.9520   -7.3990 C   0  0  0  0  0  0  0  0  0  0  0  0
    0.6360   10.2540   -9.3760 C   0  0  0  0  0  0  0  0  0  0  0  0
   -1.4020    9.2190   -8.5830 C   0  0  0  0  0  0  0  0  0  0  0  0
    1.6050   10.4080  -10.3700 N   0  0  0  0  0  0  0  0  0  0  0  0
   -0.4240    9.3720   -9.5650 C   0  0  0  0  0  0  0  0  0  0  0  0
  2  1  1  1
  2  3  1  0
  2  4  1  0
  4  5  2  0
  4  6  1  0
  3  7  1  0
  7  8  2  0
  7  9  1  0
  9 10  2  0
  9 11  1  0
 10 12  1  0
 11 13  2  0
 12 14  1  0
 12 15  2  0
 13 15  1  0
M  END
