x0950_0_A-x0962_0_A
     RDKit          3D

 15 15  0  0  0  0  0  0  0  0999 V2000
    2.8550   12.9750   -4.0880 C   0  0  0  0  0  0  0  0  0  0  0  0
    1.3540   12.8150   -4.2420 C   0  0  1  0  0  0  0  0  0  0  0  0
    1.0700   12.0980   -5.4420 O   0  0  0  0  0  0  0  0  0  0  0  0
    0.7870   12.1100   -3.0060 C   0  0  0  0  0  0  0  0  0  0  0  0
    0.3840   10.9490   -3.0140 O   0  0  0  0  0  0  0  0  0  0  0  0
    0.8020   12.9380   -1.9210 O   0  0  0  0  0  0  0  0  0  0  0  0
    0.4460   14.3280   -2.1070 C   0  0  0  0  0  0  0  0  0  0  0  0
   -0.7960   14.4820   -3.0040 C   0  0  0  0  0  0  0  0  0  0  0  0
   -2.0110   14.6910   -2.2020 C   0  0  0  0  0  0  0  0  0  0  0  0
   -2.9070   14.8560   -1.4290 C   0  0  0  0  0  0  0  0  0  0  0  0
   -3.8230   14.9880   -0.3690 C   0  0  0  0  0  0  0  0  0  0  0  0
   -3.4640   15.3760    0.8840 N   0  0  0  0  0  0  0  0  0  0  0  0
   -5.1750   14.7850   -0.3230 C   0  0  0  0  0  0  0  0  0  0  0  0
   -4.5970   15.3910    1.6410 C   0  0  0  0  0  0  0  0  0  0  0  0
   -5.6510   15.0360    0.9370 N   0  0  0  0  0  0  0  0  0  0  0  0
  2  1  1  1
  2  3  1  0
  2  4  1  0
  4  5  2  0
  4  6  1  0
  6  7  1  0
  7  8  1  0
  8  9  1  0
  9 10  3  0
 10 11  1  0
 11 12  1  0
 11 13  2  0
 12 14  1  0
 13 15  1  0
 14 15  2  0
M  END
