x0950_0_A_α-x0855_0_A_α
     RDKit          3D

 12 12  0  0  0  0  0  0  0  0999 V2000
    2.7980   13.0740   -4.1780 C   0  0  0  0  0  0  0  0  0  0  0  0
    1.2940   12.8810   -4.2930 C   0  0  1  0  0  0  0  0  0  0  0  0
    1.0860   12.2470   -5.5470 O   0  0  0  0  0  0  0  0  0  0  0  0
    0.8630   12.1350   -3.0350 C   0  0  0  0  0  0  0  0  0  0  0  0
    0.5470   10.9650   -2.9180 O   0  0  0  0  0  0  0  0  0  0  0  0
    0.8740   12.9470   -1.9600 O   0  0  0  0  0  0  0  0  0  0  0  0
   -0.1580   11.6420   -5.6900 N   0  0  0  0  0  0  0  0  0  0  0  0
   -0.3240   10.4740   -6.3480 C   0  0  0  0  0  0  0  0  0  0  0  0
   -1.2890   12.1740   -5.1960 N   0  0  0  0  0  0  0  0  0  0  0  0
   -1.6530   10.2090   -6.2800 C   0  0  0  0  0  0  0  0  0  0  0  0
   -2.2170   11.2770   -5.5710 C   0  0  0  0  0  0  0  0  0  0  0  0
   -2.5500    8.7390   -6.9880 Br  0  0  0  0  0  0  0  0  0  0  0  0
  2  1  1  1
  2  3  1  0
  2  4  1  0
  4  5  2  0
  4  6  1  0
  3  7  1  0
  7  8  1  0
  7  9  1  0
  8 10  2  0
  9 11  2  0
 10 11  1  0
 10 12  1  0
M  END
