x0950_0_A-x0471_0_A
     RDKit          3D

 25 26  0  0  0  0  0  0  0  0999 V2000
    2.8300   12.9490   -3.8320 C   0  0  0  0  0  0  0  0  0  0  0  0
    1.3130   12.8750   -3.8970 C   0  0  1  0  0  0  0  0  0  0  0  0
    0.9530   12.4000   -5.1960 O   0  0  0  0  0  0  0  0  0  0  0  0
    0.7290   11.9930   -2.7700 C   0  0  0  0  0  0  0  0  0  0  0  0
    0.2460   10.8830   -2.9380 O   0  0  0  0  0  0  0  0  0  0  0  0
    0.8330   12.5930   -1.5280 O   0  0  0  0  0  0  0  0  0  0  0  0
    0.0960   13.8170   -1.2990 C   0  0  0  0  0  0  0  0  0  0  0  0
   -0.7390   13.5850   -0.0390 C   0  0  0  0  0  0  0  0  0  0  0  0
   -1.4570   14.7980    0.5390 C   0  0  0  0  0  0  0  0  0  0  0  0
   -2.9340   14.8940    0.1480 C   0  0  0  0  0  0  0  0  0  0  0  0
   -3.3730   15.2170   -1.1590 C   0  0  0  0  0  0  0  0  0  0  0  0
   -3.8950   14.6360    1.1350 C   0  0  0  0  0  0  0  0  0  0  0  0
   -5.2580   14.6920    0.8120 C   0  0  0  0  0  0  0  0  0  0  0  0
   -4.7390   15.2830   -1.4980 C   0  0  0  0  0  0  0  0  0  0  0  0
   -6.3440   14.4690    1.6120 N   0  0  0  0  0  0  0  0  0  0  0  0
   -5.6530   15.0080   -0.4800 C   0  0  0  0  0  0  0  0  0  0  0  0
   -7.0290   14.9640   -0.4320 N   0  0  0  0  0  0  0  0  0  0  0  0
   -7.4020   14.6320    0.8570 C   0  0  0  0  0  0  0  0  0  0  0  0
   -8.8180   14.4960    1.2830 C   0  0  0  0  0  0  0  0  0  0  0  0
   -8.8420   14.0890    2.6760 N   0  0  0  0  0  0  0  0  0  0  0  0
   -8.9990   15.0150    3.6880 C   0  0  0  0  0  0  0  0  0  0  0  0
   -9.3320   16.1780    3.4670 O   0  0  0  0  0  0  0  0  0  0  0  0
   -8.7270   14.4570    5.0850 C   0  0  0  0  0  0  0  0  0  0  0  0
   -9.9560   13.7010    5.6040 C   0  0  0  0  0  0  0  0  0  0  0  0
   -8.3320   15.5690    6.0560 C   0  0  0  0  0  0  0  0  0  0  0  0
  2  1  1  6
  2  3  1  0
  2  4  1  0
  4  5  2  0
  4  6  1  0
  6  7  1  0
  7  8  1  0
  8  9  1  0
  9 10  1  0
 10 11  2  0
 10 12  1  0
 12 13  2  0
 11 14  1  0
 13 15  1  0
 13 16  1  0
 14 16  2  0
 16 17  1  0
 15 18  2  0
 17 18  1  0
 18 19  1  0
 19 20  1  0
 20 21  1  0
 21 22  2  0
 21 23  1  0
 23 24  1  0
 23 25  1  0
M  END
