x0950_0_A_α-x0910_1_A_α
     RDKit          3D

 16 16  0  0  0  0  0  0  0  0999 V2000
    2.8850   12.5340   -3.9600 C   0  0  0  0  0  0  0  0  0  0  0  0
    1.3880   12.7940   -3.8660 C   0  0  1  0  0  0  0  0  0  0  0  0
    0.8170   12.5310   -5.1480 O   0  0  0  0  0  0  0  0  0  0  0  0
    0.7580   11.9380   -2.7360 C   0  0  0  0  0  0  0  0  0  0  0  0
    0.4110   10.7780   -2.9010 O   0  0  0  0  0  0  0  0  0  0  0  0
    0.6310   12.6100   -1.5300 O   0  0  0  0  0  0  0  0  0  0  0  0
   -0.0080   13.9080   -1.5440 C   0  0  0  0  0  0  0  0  0  0  0  0
   -0.8490   14.1620   -0.2790 C   0  0  0  0  0  0  0  0  0  0  0  0
   -2.3350   14.4250   -0.6230 C   0  0  0  0  0  0  0  0  0  0  0  0
   -3.1940   14.9820    0.5350 C   0  0  0  0  0  0  0  0  0  0  0  0
   -4.6530   15.0150    0.2060 C   0  0  0  0  0  0  0  0  0  0  0  0
   -5.1760   15.5190   -0.9240 N   0  0  0  0  0  0  0  0  0  0  0  0
   -5.5780   14.5020    1.0740 N   0  0  0  0  0  0  0  0  0  0  0  0
   -6.7180   14.6760    0.4740 C   0  0  0  0  0  0  0  0  0  0  0  0
   -6.4930   15.2870   -0.7310 N   0  0  0  0  0  0  0  0  0  0  0  0
   -7.9320   14.3300    0.9280 N   0  0  0  0  0  0  0  0  0  0  0  0
  2  1  1  6
  2  3  1  0
  2  4  1  0
  4  5  2  0
  4  6  1  0
  6  7  1  0
  7  8  1  0
  8  9  1  0
  9 10  1  0
 10 11  1  0
 11 12  2  0
 11 13  1  0
 13 14  2  0
 12 15  1  0
 14 15  1  0
 14 16  1  0
M  END
