x0950_0_A_α-x0844_0_A_α
     RDKit          3D

 17 17  0  0  0  0  0  0  0  0999 V2000
    2.8260   12.9300   -3.8720 C   0  0  0  0  0  0  0  0  0  0  0  0
    1.3120   12.8140   -3.9390 C   0  0  1  0  0  0  0  0  0  0  0  0
    0.9710   12.2680   -5.2220 O   0  0  0  0  0  0  0  0  0  0  0  0
    0.7260   11.9450   -2.8060 C   0  0  0  0  0  0  0  0  0  0  0  0
    0.2930   10.8190   -3.0120 O   0  0  0  0  0  0  0  0  0  0  0  0
    0.7420   12.5330   -1.5640 O   0  0  0  0  0  0  0  0  0  0  0  0
    0.2940   13.8960   -1.4440 C   0  0  0  0  0  0  0  0  0  0  0  0
   -1.2110   14.0120   -1.1840 C   0  0  0  0  0  0  0  0  0  0  0  0
   -2.0230   14.4290   -2.4150 C   0  0  0  0  0  0  0  0  0  0  0  0
   -3.1190   15.2800   -2.0580 O   0  0  0  0  0  0  0  0  0  0  0  0
   -4.0070   14.7160   -1.0790 C   0  0  1  0  0  0  0  0  0  0  0  0
   -3.5540   15.1540    0.2740 C   0  0  0  0  0  0  0  0  0  0  0  0
   -5.4700   15.0850   -1.3280 C   0  0  0  0  0  0  0  0  0  0  0  0
   -4.4080   15.1910    1.2920 C   0  0  0  0  0  0  0  0  0  0  0  0
   -6.3440   14.8750   -0.1150 C   0  0  0  0  0  0  0  0  0  0  0  0
   -7.5670   14.7610   -0.1870 O   0  0  0  0  0  0  0  0  0  0  0  0
   -5.7030   14.8210    1.0990 N   0  0  0  0  0  0  0  0  0  0  0  0
  2  1  1  1
  2  3  1  0
  2  4  1  0
  4  5  2  0
  4  6  1  0
  6  7  1  0
  7  8  1  0
  8  9  1  0
  9 10  1  0
 11 10  1  6
 11 12  1  0
 11 13  1  0
 12 14  2  0
 13 15  1  0
 15 16  2  0
 14 17  1  0
 15 17  1  0
M  END
