x0950_1_A_α-x0805_0_A_β
     RDKit          3D

 12 12  0  0  0  0  0  0  0  0999 V2000
    2.5990   13.5800   -4.1380 C   0  0  0  0  0  0  0  0  0  0  0  0
    1.7230   12.4000   -3.8400 C   0  0  2  0  0  0  0  0  0  0  0  0
    1.3120   11.8100   -5.0740 O   0  0  0  0  0  0  0  0  0  0  0  0
    0.4980   12.6650   -2.9640 C   0  0  0  0  0  0  0  0  0  0  0  0
   -0.0780   11.4010   -2.6440 O   0  0  0  0  0  0  0  0  0  0  0  0
    0.9360   13.2200   -1.7330 O   0  0  0  0  0  0  0  0  0  0  0  0
   -0.4650   13.6190   -3.6870 C   0  0  1  0  0  0  0  0  0  0  0  0
   -0.5070   15.0310   -3.0860 C   0  0  0  0  0  0  0  0  0  0  0  0
   -0.0780   13.7910   -5.1650 C   0  0  0  0  0  0  0  0  0  0  0  0
    1.2010   14.4090   -5.3070 O   0  0  0  0  0  0  0  0  0  0  0  0
    0.0540   16.1260   -4.0050 C   0  0  0  0  0  0  0  0  0  0  0  0
    1.3120   15.7050   -4.7260 C   0  0  0  0  0  0  0  0  0  0  0  0
  2  1  1  6
  2  3  1  0
  2  4  1  0
  4  5  1  0
  4  6  1  0
  7  4  1  1
  7  8  1  0
  7  9  1  0
  9 10  1  0
  8 11  1  0
 10 12  1  0
 11 12  1  0
M  END
