x0950_1_A-x0253_0_A
     RDKit          3D

 15 15  0  0  0  0  0  0  0  0999 V2000
    0.9930   14.0230   -4.6960 C   0  0  0  0  0  0  0  0  0  0  0  0
    1.2280   12.5420   -4.4450 C   0  0  2  0  0  0  0  0  0  0  0  0
    0.4630   11.7580   -5.3880 O   0  0  0  0  0  0  0  0  0  0  0  0
    0.8250   12.1480   -3.0250 C   0  0  0  0  0  0  0  0  0  0  0  0
    0.1380   11.1780   -2.7390 O   0  0  0  0  0  0  0  0  0  0  0  0
    1.3130   12.9930   -2.0840 O   0  0  0  0  0  0  0  0  0  0  0  0
    1.1340   11.6420   -6.5530 C   0  0  0  0  0  0  0  0  0  0  0  0
    2.1740   12.2160   -6.7430 O   0  0  0  0  0  0  0  0  0  0  0  0
    0.4690   10.7240   -7.5240 C   0  0  0  0  0  0  0  0  0  0  0  0
   -0.5170    9.8120   -7.1170 C   0  0  0  0  0  0  0  0  0  0  0  0
    0.8330   10.7650   -8.8790 C   0  0  0  0  0  0  0  0  0  0  0  0
   -1.1280    8.9590   -8.0480 C   0  0  0  0  0  0  0  0  0  0  0  0
    0.2300    9.9190   -9.8070 C   0  0  0  0  0  0  0  0  0  0  0  0
   -2.1840    7.9880   -7.6060 C   0  0  0  0  0  0  0  0  0  0  0  0
   -0.7470    9.0200   -9.3900 C   0  0  0  0  0  0  0  0  0  0  0  0
  2  1  1  6
  2  3  1  0
  2  4  1  0
  4  5  2  0
  4  6  1  0
  3  7  1  0
  7  8  2  0
  7  9  1  0
  9 10  2  0
  9 11  1  0
 10 12  1  0
 11 13  2  0
 12 14  1  0
 12 15  2  0
 13 15  1  0
M  END
