x0950_0_A_α-x0421_0_A_α
     RDKit          3D

 19 20  0  0  0  0  0  0  0  0999 V2000
    3.0130   12.8320   -4.0000 C   0  0  0  0  0  0  0  0  0  0  0  0
    1.5380   12.7330   -4.3350 C   0  0  1  0  0  0  0  0  0  0  0  0
    1.3430   12.0580   -5.5750 O   0  0  0  0  0  0  0  0  0  0  0  0
    0.7470   12.0740   -3.2010 C   0  0  0  0  0  0  0  0  0  0  0  0
    0.7570   10.9010   -2.8690 O   0  0  0  0  0  0  0  0  0  0  0  0
   -0.0030   13.0050   -2.6470 O   0  0  0  0  0  0  0  0  0  0  0  0
   -0.9360   13.5660   -3.5810 C   0  0  0  0  0  0  0  0  0  0  0  0
   -1.3140   14.9830   -3.2490 C   0  0  0  0  0  0  0  0  0  0  0  0
   -1.8470   14.9340   -1.9050 N   0  0  0  0  0  0  0  0  0  0  0  0
   -3.1050   15.0210   -1.7990 C   0  0  0  0  0  0  0  0  0  0  0  0
   -4.0650   15.1610   -2.7570 N   0  0  0  0  0  0  0  0  0  0  0  0
   -3.6680   14.9730   -0.4610 C   0  0  0  0  0  0  0  0  0  0  0  0
   -2.9990   15.0960    0.7380 C   0  0  0  0  0  0  0  0  0  0  0  0
   -5.0200   14.7860   -0.2470 N   0  0  0  0  0  0  0  0  0  0  0  0
   -3.9600   14.9790    1.6910 N   0  0  0  0  0  0  0  0  0  0  0  0
   -5.1510   14.7930    1.0570 C   0  0  0  0  0  0  0  0  0  0  0  0
   -6.4940   14.6090    1.7960 C   0  0  0  0  0  0  0  0  0  0  0  0
   -7.7710   14.6610    1.0020 C   0  0  0  0  0  0  0  0  0  0  0  0
   -7.2840   13.3540    1.5570 C   0  0  0  0  0  0  0  0  0  0  0  0
  2  1  1  1
  2  3  1  0
  2  4  1  0
  4  5  2  0
  4  6  1  0
  6  7  1  0
  7  8  1  0
  8  9  1  0
  9 10  2  3
 10 11  1  0
 10 12  1  0
 12 13  2  0
 12 14  1  0
 13 15  1  0
 14 16  2  0
 15 16  1  0
 16 17  1  0
 17 18  1  0
 17 19  1  0
 18 19  1  0
M  END
