x0950_1_A_α-x0895_0_A_α
     RDKit          3D

 16 16  0  0  0  0  0  0  0  0999 V2000
    1.1330   14.0120   -4.6440 C   0  0  0  0  0  0  0  0  0  0  0  0
    1.3750   12.5480   -4.3320 C   0  0  2  0  0  0  0  0  0  0  0  0
    0.7190   11.7530   -5.3270 O   0  0  0  0  0  0  0  0  0  0  0  0
    0.8800   12.1650   -2.9290 C   0  0  0  0  0  0  0  0  0  0  0  0
    0.3350   11.0930   -2.6760 O   0  0  0  0  0  0  0  0  0  0  0  0
    1.1230   13.1540   -2.0160 O   0  0  0  0  0  0  0  0  0  0  0  0
   -0.0200   13.9140   -1.5730 C   0  0  0  0  0  0  0  0  0  0  0  0
    0.1390   14.6540   -0.2260 C   0  0  0  0  0  0  0  0  0  0  0  0
   -0.4400   13.9050    0.9850 C   0  0  0  0  0  0  0  0  0  0  0  0
   -1.4650   14.6780    1.6840 N   0  0  0  0  0  0  0  0  0  0  0  0
   -2.5450   14.9680    1.0660 C   0  0  0  0  0  0  0  0  0  0  0  0
   -3.7770   15.7330    1.5020 C   0  0  0  0  0  0  0  0  0  0  0  0
   -2.7290   14.5740   -0.2230 N   0  0  0  0  0  0  0  0  0  0  0  0
   -4.6740   15.2470    0.5090 N   0  0  0  0  0  0  0  0  0  0  0  0
   -3.9560   14.9830   -0.6260 C   0  0  0  0  0  0  0  0  0  0  0  0
   -4.3620   15.1050   -1.7660 O   0  0  0  0  0  0  0  0  0  0  0  0
  2  1  1  6
  2  3  1  0
  2  4  1  0
  4  5  2  0
  4  6  1  0
  6  7  1  0
  7  8  1  0
  8  9  1  0
  9 10  1  0
 10 11  2  3
 11 12  1  0
 11 13  1  0
 12 14  1  0
 13 15  1  0
 14 15  1  0
 15 16  2  0
M  END
