x0950_1_A_α-x0844_0_A_α
     RDKit          3D

 17 17  0  0  0  0  0  0  0  0999 V2000
    1.0120   13.9500   -4.7880 C   0  0  0  0  0  0  0  0  0  0  0  0
    1.2600   12.4700   -4.5370 C   0  0  2  0  0  0  0  0  0  0  0  0
    0.6570   11.7010   -5.5680 O   0  0  0  0  0  0  0  0  0  0  0  0
    0.8570   12.0690   -3.1100 C   0  0  0  0  0  0  0  0  0  0  0  0
    0.3820   10.9770   -2.8150 O   0  0  0  0  0  0  0  0  0  0  0  0
    1.0980   13.0630   -2.2160 O   0  0  0  0  0  0  0  0  0  0  0  0
    0.0720   14.0620   -2.1490 C   0  0  0  0  0  0  0  0  0  0  0  0
   -0.0880   14.6330   -0.7470 C   0  0  0  0  0  0  0  0  0  0  0  0
   -1.5210   14.6500   -0.2260 C   0  0  0  0  0  0  0  0  0  0  0  0
   -2.5430   14.8490   -1.2390 O   0  0  0  0  0  0  0  0  0  0  0  0
   -3.7940   14.5710   -0.5950 C   0  0  1  0  0  0  0  0  0  0  0  0
   -3.6450   15.1720    0.7540 C   0  0  0  0  0  0  0  0  0  0  0  0
   -5.0690   15.1000   -1.2550 C   0  0  0  0  0  0  0  0  0  0  0  0
   -4.7010   15.2840    1.5230 C   0  0  0  0  0  0  0  0  0  0  0  0
   -6.2320   14.9280   -0.2840 C   0  0  0  0  0  0  0  0  0  0  0  0
   -7.4120   14.8720   -0.6290 O   0  0  0  0  0  0  0  0  0  0  0  0
   -5.8920   14.8390    1.0440 N   0  0  0  0  0  0  0  0  0  0  0  0
  2  1  1  6
  2  3  1  0
  2  4  1  0
  4  5  2  0
  4  6  1  0
  6  7  1  0
  7  8  1  0
  8  9  1  0
  9 10  1  0
 11 10  1  6
 11 12  1  0
 11 13  1  0
 12 14  2  0
 13 15  1  0
 15 16  2  0
 14 17  1  0
 15 17  1  0
M  END
