x0950_1_A_α-x1018_0_A_α
     RDKit          3D

 19 20  0  0  0  0  0  0  0  0999 V2000
    0.9940   13.9910   -4.7240 C   0  0  0  0  0  0  0  0  0  0  0  0
    1.3110   12.5380   -4.4180 C   0  0  2  0  0  0  0  0  0  0  0  0
    0.6250   11.7350   -5.3780 O   0  0  0  0  0  0  0  0  0  0  0  0
    0.9630   12.1590   -2.9630 C   0  0  0  0  0  0  0  0  0  0  0  0
    0.2420   11.2300   -2.6160 O   0  0  0  0  0  0  0  0  0  0  0  0
    1.6040   13.0130   -2.1010 O   0  0  0  0  0  0  0  0  0  0  0  0
    0.8040   13.8590   -1.2420 C   0  0  0  0  0  0  0  0  0  0  0  0
   -0.6170   14.0440   -1.7760 C   0  0  0  0  0  0  0  0  0  0  0  0
   -1.6620   13.8790   -0.6530 C   0  0  0  0  0  0  0  0  0  0  0  0
   -2.8020   14.8130   -0.7900 N   0  0  0  0  0  0  0  0  0  0  0  0
   -3.2340   14.8840   -2.2030 N   0  0  0  0  0  0  0  0  0  0  0  0
   -4.0340   14.3330   -0.1380 C   0  0  2  0  0  0  0  0  0  0  0  0
   -4.6750   14.8110   -2.2830 N   0  0  0  0  0  0  0  0  0  0  0  0
   -5.0720   14.9150   -0.9640 N   0  0  0  0  0  0  0  0  0  0  0  0
   -4.3600   14.5820    1.2950 C   0  0  0  0  0  0  0  0  0  0  0  0
   -6.4020   14.7510   -0.6910 N   0  0  0  0  0  0  0  0  0  0  0  0
   -5.6400   14.7440    1.6660 C   0  0  0  0  0  0  0  0  0  0  0  0
   -6.6630   14.6690    0.5820 C   0  0  0  0  0  0  0  0  0  0  0  0
   -8.3290   14.4710    0.9940 Cl  0  0  0  0  0  0  0  0  0  0  0  0
  2  1  1  6
  2  3  1  0
  2  4  1  0
  4  5  2  0
  4  6  1  0
  6  7  1  0
  7  8  1  0
  8  9  1  0
  9 10  1  0
 10 11  1  0
 10 12  1  0
 11 13  1  0
 12 14  1  0
 13 14  1  0
 12 15  1  1
 14 16  1  0
 15 17  2  0
 16 18  2  0
 17 18  1  0
 18 19  1  0
M  END
