x0950_0_A_α-x0471_0_A_α
     RDKit          3D

 25 26  0  0  0  0  0  0  0  0999 V2000
    2.8360   12.9730   -3.8280 C   0  0  0  0  0  0  0  0  0  0  0  0
    1.3190   12.8910   -3.9150 C   0  0  1  0  0  0  0  0  0  0  0  0
    0.9830   12.4110   -5.2200 O   0  0  0  0  0  0  0  0  0  0  0  0
    0.7290   12.0060   -2.7890 C   0  0  0  0  0  0  0  0  0  0  0  0
    0.2410   10.9000   -2.9680 O   0  0  0  0  0  0  0  0  0  0  0  0
    0.8290   12.6000   -1.5420 O   0  0  0  0  0  0  0  0  0  0  0  0
    0.0900   13.8200   -1.3050 C   0  0  0  0  0  0  0  0  0  0  0  0
   -0.7450   13.5820   -0.0440 C   0  0  0  0  0  0  0  0  0  0  0  0
   -1.4650   14.7950    0.5430 C   0  0  0  0  0  0  0  0  0  0  0  0
   -2.9390   14.8870    0.1470 C   0  0  0  0  0  0  0  0  0  0  0  0
   -3.3800   15.1940   -1.1630 C   0  0  0  0  0  0  0  0  0  0  0  0
   -3.9040   14.6410    1.1370 C   0  0  0  0  0  0  0  0  0  0  0  0
   -5.2660   14.6920    0.8070 C   0  0  0  0  0  0  0  0  0  0  0  0
   -4.7470   15.2550   -1.5070 C   0  0  0  0  0  0  0  0  0  0  0  0
   -6.3520   14.4750    1.6110 N   0  0  0  0  0  0  0  0  0  0  0  0
   -5.6610   14.9900   -0.4860 C   0  0  0  0  0  0  0  0  0  0  0  0
   -7.0390   14.9420   -0.4400 N   0  0  0  0  0  0  0  0  0  0  0  0
   -7.4070   14.6240    0.8540 C   0  0  0  0  0  0  0  0  0  0  0  0
   -8.8240   14.4820    1.2840 C   0  0  0  0  0  0  0  0  0  0  0  0
   -8.8350   14.0790    2.6780 N   0  0  0  0  0  0  0  0  0  0  0  0
   -8.9950   15.0030    3.6890 C   0  0  0  0  0  0  0  0  0  0  0  0
   -9.3320   16.1670    3.4690 O   0  0  0  0  0  0  0  0  0  0  0  0
   -8.7250   14.4500    5.0890 C   0  0  0  0  0  0  0  0  0  0  0  0
   -9.9520   13.6950    5.6100 C   0  0  0  0  0  0  0  0  0  0  0  0
   -8.3280   15.5650    6.0520 C   0  0  0  0  0  0  0  0  0  0  0  0
  2  1  1  6
  2  3  1  0
  2  4  1  0
  4  5  2  0
  4  6  1  0
  6  7  1  0
  7  8  1  0
  8  9  1  0
  9 10  1  0
 10 11  2  0
 10 12  1  0
 12 13  2  0
 11 14  1  0
 13 15  1  0
 13 16  1  0
 14 16  2  0
 16 17  1  0
 15 18  2  0
 17 18  1  0
 18 19  1  0
 19 20  1  0
 20 21  1  0
 21 22  2  0
 21 23  1  0
 23 24  1  0
 23 25  1  0
M  END
