x0950_0_A-x1018_0_A
     RDKit          3D

 19 20  0  0  0  0  0  0  0  0999 V2000
    2.8400   12.9120   -3.8060 C   0  0  0  0  0  0  0  0  0  0  0  0
    1.3260   12.8130   -3.9120 C   0  0  1  0  0  0  0  0  0  0  0  0
    0.9910   12.3290   -5.2130 O   0  0  0  0  0  0  0  0  0  0  0  0
    0.7500   11.9250   -2.7870 C   0  0  0  0  0  0  0  0  0  0  0  0
    0.3270   10.7950   -2.9750 O   0  0  0  0  0  0  0  0  0  0  0  0
    0.7580   12.5210   -1.5380 O   0  0  0  0  0  0  0  0  0  0  0  0
    0.7140   13.9590   -1.4450 C   0  0  0  0  0  0  0  0  0  0  0  0
   -0.2630   14.4230   -0.3550 C   0  0  0  0  0  0  0  0  0  0  0  0
   -1.6680   13.8300   -0.5630 C   0  0  0  0  0  0  0  0  0  0  0  0
   -2.7540   14.8240   -0.7350 N   0  0  0  0  0  0  0  0  0  0  0  0
   -3.1610   14.8910   -2.1610 N   0  0  0  0  0  0  0  0  0  0  0  0
   -4.0100   14.3650   -0.1150 C   0  0  2  0  0  0  0  0  0  0  0  0
   -4.6030   14.8340   -2.2660 N   0  0  0  0  0  0  0  0  0  0  0  0
   -5.0290   14.9620   -0.9580 N   0  0  0  0  0  0  0  0  0  0  0  0
   -4.3580   14.6010    1.3120 C   0  0  0  0  0  0  0  0  0  0  0  0
   -6.3620   14.7720   -0.7070 N   0  0  0  0  0  0  0  0  0  0  0  0
   -5.6440   14.7480    1.6660 C   0  0  0  0  0  0  0  0  0  0  0  0
   -6.6450   14.6690    0.5600 C   0  0  0  0  0  0  0  0  0  0  0  0
   -8.3140   14.4410    0.9430 Cl  0  0  0  0  0  0  0  0  0  0  0  0
  2  1  1  6
  2  3  1  0
  2  4  1  0
  4  5  2  0
  4  6  1  0
  6  7  1  0
  7  8  1  0
  8  9  1  0
  9 10  1  0
 10 11  1  0
 10 12  1  0
 11 13  1  0
 12 14  1  0
 13 14  1  0
 12 15  1  1
 14 16  1  0
 15 17  2  0
 16 18  2  0
 17 18  1  0
 18 19  1  0
M  END
