x0950_0_A_α-x0742_0_A_α
     RDKit          3D

 23 25  0  0  0  0  0  0  0  0999 V2000
    3.1370   12.3020   -4.3800 C   0  0  0  0  0  0  0  0  0  0  0  0
    1.6860   12.7250   -4.4440 C   0  0  1  0  0  0  0  0  0  0  0  0
    1.0550   12.0670   -5.5430 O   0  0  0  0  0  0  0  0  0  0  0  0
    0.9710   12.4200   -3.1300 C   0  0  0  0  0  0  0  0  0  0  0  0
    0.8130   11.2870   -2.6790 O   0  0  0  0  0  0  0  0  0  0  0  0
    0.5330   13.5890   -2.5940 O   0  0  0  0  0  0  0  0  0  0  0  0
    1.0380   14.1250   -1.3560 C   0  0  0  0  0  0  0  0  0  0  0  0
   -0.1710   14.2720   -0.4910 C   0  0  0  0  0  0  0  0  0  0  0  0
   -0.1980   14.5710    0.8750 C   0  0  0  0  0  0  0  0  0  0  0  0
   -1.3860   14.0960   -1.1180 C   0  0  0  0  0  0  0  0  0  0  0  0
   -1.3260   14.6890    1.5970 N   0  0  0  0  0  0  0  0  0  0  0  0
   -2.5580   14.2180   -0.4100 C   0  0  0  0  0  0  0  0  0  0  0  0
   -3.8700   14.0300   -1.1060 C   0  0  1  0  0  0  0  0  0  0  0  0
   -2.4770   14.5130    0.9300 C   0  0  0  0  0  0  0  0  0  0  0  0
   -5.0430   13.5700   -0.2000 C   0  0  1  0  0  0  0  0  0  0  0  0
   -4.3180   15.3250   -1.8070 C   0  0  0  0  0  0  0  0  0  0  0  0
   -3.7230   14.6510    1.7010 C   0  0  0  0  0  0  0  0  0  0  0  0
   -5.5810   12.1840   -0.5400 C   0  0  0  0  0  0  0  0  0  0  0  0
   -4.7190   13.5730    1.3100 C   0  0  0  0  0  0  0  0  0  0  0  0
   -6.1860   14.5560   -0.5050 C   0  0  0  0  0  0  0  0  0  0  0  0
   -5.5460   15.8030   -1.0650 C   0  0  0  0  0  0  0  0  0  0  0  0
   -5.1340   11.5570   -1.5060 O   0  0  0  0  0  0  0  0  0  0  0  0
   -6.6640   11.5990    0.3190 C   0  0  0  0  0  0  0  0  0  0  0  0
  2  1  1  1
  2  3  1  0
  2  4  1  0
  4  5  2  0
  4  6  1  0
  6  7  1  0
  7  8  1  0
  8  9  2  0
  8 10  1  0
  9 11  1  0
 10 12  2  0
 12 13  1  0
 11 14  2  0
 12 14  1  0
 13 15  1  0
 13 16  1  1
 14 17  1  0
 15 18  1  6
 15 19  1  0
 17 19  1  0
 15 20  1  0
 16 21  1  0
 20 21  1  0
 18 22  2  0
 18 23  1  0
M  END
