x0950_0_A-x0574_0_A
     RDKit          3D

 20 21  0  0  0  0  0  0  0  0999 V2000
    3.0470   12.4450   -4.4600 C   0  0  0  0  0  0  0  0  0  0  0  0
    1.5680   12.7630   -4.3150 C   0  0  1  0  0  0  0  0  0  0  0  0
    0.8540   12.2070   -5.4180 O   0  0  0  0  0  0  0  0  0  0  0  0
    1.1270   12.2400   -2.9520 C   0  0  0  0  0  0  0  0  0  0  0  0
    0.2720   11.3790   -2.7680 O   0  0  0  0  0  0  0  0  0  0  0  0
    1.8640   12.8650   -1.9750 O   0  0  0  0  0  0  0  0  0  0  0  0
    1.3730   14.0840   -1.3520 C   0  0  0  0  0  0  0  0  0  0  0  0
    0.4260   13.7160   -0.2170 C   0  0  0  0  0  0  0  0  0  0  0  0
    0.1530   14.6640    0.8150 N   0  0  0  0  0  0  0  0  0  0  0  0
   -1.1200   14.7190    0.7440 C   0  0  0  0  0  0  0  0  0  0  0  0
   -2.0310   14.7200    1.6650 N   0  0  0  0  0  0  0  0  0  0  0  0
   -1.5780   14.7670   -0.8910 S   0  0  0  0  0  0  0  0  0  0  0  0
   -3.2450   14.7840    0.9890 C   0  0  0  0  0  0  0  0  0  0  0  0
   -3.1750   14.8240   -0.4070 C   0  0  0  0  0  0  0  0  0  0  0  0
   -4.5160   14.8100    1.5520 C   0  0  0  0  0  0  0  0  0  0  0  0
   -4.2790   14.8970   -1.2410 C   0  0  0  0  0  0  0  0  0  0  0  0
   -5.6440   14.8710    0.7370 C   0  0  0  0  0  0  0  0  0  0  0  0
   -5.5200   14.9200   -0.6420 C   0  0  0  0  0  0  0  0  0  0  0  0
   -6.9320   14.8920    1.1800 O   0  0  0  0  0  0  0  0  0  0  0  0
   -7.1130   14.6600    2.5680 C   0  0  0  0  0  0  0  0  0  0  0  0
  2  1  1  6
  2  3  1  0
  2  4  1  0
  4  5  2  0
  4  6  1  0
  6  7  1  0
  7  8  1  0
  8  9  1  0
  9 10  1  0
 10 11  2  0
 10 12  1  0
 11 13  1  0
 12 14  1  0
 13 14  2  0
 13 15  1  0
 14 16  1  0
 15 17  2  0
 16 18  2  0
 17 18  1  0
 17 19  1  0
 19 20  1  0
M  END
