x0950_1_A_α-x0967_0_A_α
     RDKit          3D

 19 20  0  0  0  0  0  0  0  0999 V2000
    1.0300   13.9940   -4.8500 C   0  0  0  0  0  0  0  0  0  0  0  0
    1.3050   12.5720   -4.4070 C   0  0  2  0  0  0  0  0  0  0  0  0
    0.5420   11.6940   -5.2380 O   0  0  0  0  0  0  0  0  0  0  0  0
    1.0030   12.3460   -2.9190 C   0  0  0  0  0  0  0  0  0  0  0  0
    0.4380   11.3430   -2.4940 O   0  0  0  0  0  0  0  0  0  0  0  0
    1.4690   13.4010   -2.1720 O   0  0  0  0  0  0  0  0  0  0  0  0
    0.7030   13.9670   -1.0770 C   0  0  0  0  0  0  0  0  0  0  0  0
   -0.5350   14.7580   -1.5340 C   0  0  0  0  0  0  0  0  0  0  0  0
   -1.3130   15.3380   -0.3330 C   0  0  0  0  0  0  0  0  0  0  0  0
   -2.8180   15.1560   -0.4180 C   0  0  0  0  0  0  0  0  0  0  0  0
   -3.4990   15.0970   -1.6280 C   0  0  0  0  0  0  0  0  0  0  0  0
   -3.6020   15.0390    0.7310 C   0  0  0  0  0  0  0  0  0  0  0  0
   -4.9930   14.8680    0.6190 C   0  0  0  0  0  0  0  0  0  0  0  0
   -4.8390   14.9340   -1.7530 N   0  0  0  0  0  0  0  0  0  0  0  0
   -5.5860   14.8180   -0.6540 C   0  0  0  0  0  0  0  0  0  0  0  0
   -5.8120   14.7450    1.7480 C   0  0  0  0  0  0  0  0  0  0  0  0
   -6.9090   14.6530   -0.7900 N   0  0  0  0  0  0  0  0  0  0  0  0
   -7.1810   14.5720    1.6000 C   0  0  0  0  0  0  0  0  0  0  0  0
   -7.6770   14.5330    0.3130 C   0  0  0  0  0  0  0  0  0  0  0  0
  2  1  1  6
  2  3  1  0
  2  4  1  0
  4  5  2  0
  4  6  1  0
  6  7  1  0
  7  8  1  0
  8  9  1  0
  9 10  1  0
 10 11  2  0
 10 12  1  0
 12 13  2  0
 11 14  1  0
 13 15  1  0
 14 15  2  0
 13 16  1  0
 15 17  1  0
 16 18  2  0
 17 19  2  0
 18 19  1  0
M  END
