x0950_0_A-x0926_0_A
     RDKit          3D

 16 16  0  0  0  0  0  0  0  0999 V2000
    2.8430   12.9300   -3.8160 C   0  0  0  0  0  0  0  0  0  0  0  0
    1.3210   12.8540   -3.8720 C   0  0  1  0  0  0  0  0  0  0  0  0
    0.9640   12.3600   -5.1670 O   0  0  0  0  0  0  0  0  0  0  0  0
    0.7250   11.9580   -2.7630 C   0  0  0  0  0  0  0  0  0  0  0  0
    0.3050   10.8320   -2.9980 O   0  0  0  0  0  0  0  0  0  0  0  0
    0.7120   12.5190   -1.5060 O   0  0  0  0  0  0  0  0  0  0  0  0
    0.5480   13.9470   -1.3790 C   0  0  0  0  0  0  0  0  0  0  0  0
   -0.1840   14.3190   -0.0820 C   0  0  0  0  0  0  0  0  0  0  0  0
   -1.7030   14.0820   -0.1740 C   0  0  0  0  0  0  0  0  0  0  0  0
   -2.5580   15.3670   -0.1090 C   0  0  1  0  0  0  0  0  0  0  0  0
   -3.2430   15.6230   -1.3990 N   0  0  0  0  0  0  0  0  0  0  0  0
   -3.5160   15.3390    1.0560 C   0  0  0  0  0  0  0  0  0  0  0  0
   -4.8410   15.2440    0.9240 C   0  0  0  0  0  0  0  0  0  0  0  0
   -4.5870   15.1760   -1.4860 N   0  0  0  0  0  0  0  0  0  0  0  0
   -5.4550   15.1560   -0.4160 C   0  0  0  0  0  0  0  0  0  0  0  0
   -6.6720   15.0620   -0.5510 O   0  0  0  0  0  0  0  0  0  0  0  0
  2  1  1  6
  2  3  1  0
  2  4  1  0
  4  5  2  0
  4  6  1  0
  6  7  1  0
  7  8  1  0
  8  9  1  0
 10  9  1  6
 10 11  1  0
 10 12  1  0
 12 13  2  0
 11 14  1  0
 13 15  1  0
 14 15  1  0
 15 16  2  0
M  END
