x0950_0_A_α-x0766_0_A_α
     RDKit          3D

 16 17  0  0  0  0  0  0  0  0999 V2000
    3.4020   11.4150   -4.0900 C   0  0  0  0  0  0  0  0  0  0  0  0
    2.2090   12.2400   -4.4880 C   0  0  1  0  0  0  0  0  0  0  0  0
    1.5380   11.7000   -5.6490 O   0  0  0  0  0  0  0  0  0  0  0  0
    1.1200   12.4810   -3.4230 C   0  0  0  0  0  0  0  0  0  0  0  0
    0.0650   11.5240   -3.5090 O   0  0  0  0  0  0  0  0  0  0  0  0
    1.6040   12.4430   -2.0910 O   0  0  0  0  0  0  0  0  0  0  0  0
    0.7170   13.8770   -3.7520 C   0  0  1  0  0  0  0  0  0  0  0  0
    0.4740   14.2300   -5.1890 C   0  0  0  0  0  0  0  0  0  0  0  0
    0.0340   14.9400   -2.8860 C   0  0  1  0  0  0  0  0  0  0  0  0
    0.9100   15.6680   -5.0660 C   0  0  0  0  0  0  0  0  0  0  0  0
    0.1080   16.1400   -3.8580 C   0  0  0  0  0  0  0  0  0  0  0  0
   -1.3000   14.7610   -2.1910 C   0  0  0  0  0  0  0  0  0  0  0  0
   -2.5510   14.7500   -2.7990 C   0  0  0  0  0  0  0  0  0  0  0  0
   -1.4370   14.5980   -0.7760 C   0  0  0  0  0  0  0  0  0  0  0  0
   -2.7390   14.4800   -0.3630 C   0  0  0  0  0  0  0  0  0  0  0  0
   -3.8270   14.5620   -1.6740 S   0  0  0  0  0  0  0  0  0  0  0  0
  2  1  1  1
  2  3  1  0
  2  4  1  0
  4  5  1  0
  4  6  1  0
  7  4  1  1
  7  8  1  0
  7  9  1  0
  8 10  1  0
  9 11  1  0
 10 11  1  0
  9 12  1  6
 12 13  2  0
 12 14  1  0
 14 15  2  0
 13 16  1  0
 15 16  1  0
M  END
