x0950_0_A-x0933_0_A
     RDKit          3D

 16 16  0  0  0  0  0  0  0  0999 V2000
    2.8260   12.9690   -4.1200 C   0  0  0  0  0  0  0  0  0  0  0  0
    1.3220   12.8190   -4.2020 C   0  0  1  0  0  0  0  0  0  0  0  0
    0.9930   12.1850   -5.4380 O   0  0  0  0  0  0  0  0  0  0  0  0
    0.8090   12.0500   -2.9740 C   0  0  0  0  0  0  0  0  0  0  0  0
    0.2600   10.9560   -3.0040 O   0  0  0  0  0  0  0  0  0  0  0  0
    1.0630   12.7490   -1.8220 O   0  0  0  0  0  0  0  0  0  0  0  0
    0.7470   14.1530   -1.8240 C   0  0  0  0  0  0  0  0  0  0  0  0
   -0.6930   14.3560   -2.3040 C   0  0  0  0  0  0  0  0  0  0  0  0
   -1.5650   15.3890   -1.5590 C   0  0  0  0  0  0  0  0  0  0  0  0
   -2.7260   14.7880   -0.7320 C   0  0  2  0  0  0  0  0  0  0  0  0
   -4.1290   15.1030   -1.3080 C   0  0  0  0  0  0  0  0  0  0  0  0
   -2.6530   15.2400    0.7430 C   0  0  0  0  0  0  0  0  0  0  0  0
   -5.1960   14.6290   -0.4380 N   0  0  0  0  0  0  0  0  0  0  0  0
   -3.7760   14.6730    1.4540 N   0  0  0  0  0  0  0  0  0  0  0  0
   -4.9910   15.1190    0.8760 C   0  0  2  0  0  0  0  0  0  0  0  0
   -6.0560   14.5880    1.6530 N   0  0  0  0  0  0  0  0  0  0  0  0
  2  1  1  1
  2  3  1  0
  2  4  1  0
  4  5  2  0
  4  6  1  0
  6  7  1  0
  7  8  1  0
  8  9  1  0
 10  9  1  6
 10 11  1  0
 10 12  1  0
 11 13  1  0
 12 14  1  0
 13 15  1  0
 14 15  1  0
 15 16  1  1
M  END
