x0950_0_A-x0685_1_A
     RDKit          3D

 14 14  0  0  0  0  0  0  0  0999 V2000
    2.5970   12.9530   -4.5250 C   0  0  0  0  0  0  0  0  0  0  0  0
    1.1210   12.9810   -4.1620 C   0  0  1  0  0  0  0  0  0  0  0  0
    0.3630   12.3700   -5.1930 O   0  0  0  0  0  0  0  0  0  0  0  0
    0.8900   12.2480   -2.8400 C   0  0  0  0  0  0  0  0  0  0  0  0
    0.4090   11.1280   -2.7420 O   0  0  0  0  0  0  0  0  0  0  0  0
    1.2480   12.9760   -1.7670 O   0  0  0  0  0  0  0  0  0  0  0  0
   -0.9940   12.1280   -4.8090 C   0  0  0  0  0  0  0  0  0  0  0  0
   -1.3010   10.7470   -5.1070 N   0  0  0  0  0  0  0  0  0  0  0  0
   -0.7480   10.3910   -6.4100 C   0  0  0  0  0  0  0  0  0  0  0  0
   -0.6240    8.8590   -6.4860 C   0  0  0  0  0  0  0  0  0  0  0  0
   -1.5750   10.9530   -7.5760 C   0  0  0  0  0  0  0  0  0  0  0  0
    0.0410    8.4690   -7.7990 C   0  0  0  0  0  0  0  0  0  0  0  0
   -0.9940   10.5440   -8.9190 C   0  0  0  0  0  0  0  0  0  0  0  0
   -0.7450    9.0310   -8.9920 C   0  0  0  0  0  0  0  0  0  0  0  0
  2  1  1  6
  2  3  1  0
  2  4  1  0
  4  5  2  0
  4  6  1  0
  3  7  1  0
  7  8  1  0
  8  9  1  0
  9 10  1  0
  9 11  1  0
 10 12  1  0
 11 13  1  0
 12 14  1  0
 13 14  1  0
M  END
