x0950_1_A-x0591_0_A
     RDKit          3D

 21 21  0  0  0  0  0  0  0  0999 V2000
    1.4640   14.1850   -4.4600 C   0  0  0  0  0  0  0  0  0  0  0  0
    1.3890   12.6700   -4.5040 C   0  0  2  0  0  0  0  0  0  0  0  0
    0.3390   12.3730   -5.4090 O   0  0  0  0  0  0  0  0  0  0  0  0
    1.0800   12.1100   -3.0960 C   0  0  0  0  0  0  0  0  0  0  0  0
    0.4570   11.0730   -2.8960 O   0  0  0  0  0  0  0  0  0  0  0  0
    1.5560   12.8720   -2.0820 O   0  0  0  0  0  0  0  0  0  0  0  0
   -0.9220   12.4840   -4.7620 C   0  0  0  0  0  0  0  0  0  0  0  0
   -1.9580   13.1970   -5.5110 N   0  0  0  0  0  0  0  0  0  0  0  0
   -2.4290   14.6060   -5.1140 S   0  0  1  0  0  0  0  0  0  0  0  0
   -0.9870   15.3540   -4.7310 N   0  0  0  0  0  0  0  0  0  0  0  0
   -2.9880   15.5500   -6.0430 O   0  0  0  0  0  0  0  0  0  0  0  0
   -3.4690   14.6180   -3.6870 C   0  0  0  0  0  0  0  0  0  0  0  0
   -2.9820   14.4690   -2.3860 C   0  0  0  0  0  0  0  0  0  0  0  0
   -4.8250   14.7940   -3.9110 C   0  0  0  0  0  0  0  0  0  0  0  0
   -3.8860   14.5020   -1.3090 C   0  0  0  0  0  0  0  0  0  0  0  0
   -5.7150   14.8320   -2.8460 C   0  0  0  0  0  0  0  0  0  0  0  0
   -5.2590   14.6870   -1.5430 C   0  0  0  0  0  0  0  0  0  0  0  0
   -6.2270   14.7260   -0.4090 C   0  0  0  0  0  0  0  0  0  0  0  0
   -5.7480   14.5630    0.8610 N   0  0  0  0  0  0  0  0  0  0  0  0
   -7.4220   14.8970   -0.6490 O   0  0  0  0  0  0  0  0  0  0  0  0
   -6.6800   14.5050    1.9710 C   0  0  0  0  0  0  0  0  0  0  0  0
  2  1  1  1
  2  3  1  0
  2  4  1  0
  4  5  2  0
  4  6  1  0
  3  7  1  0
  7  8  1  0
  8  9  2  0
  9 10  1  1
  9 11  2  0
  9 12  1  0
 12 13  2  0
 12 14  1  0
 13 15  1  0
 14 16  2  0
 15 17  2  0
 16 17  1  0
 17 18  1  0
 18 19  1  0
 18 20  2  0
 19 21  1  0
M  END
