x0950_1_A-x0950_0_A
     RDKit          3D

  7  6  0  0  0  0  0  0  0  0999 V2000
    1.1540   13.9680   -4.7760 C   0  0  0  0  0  0  0  0  0  0  0  0
    1.4850   12.5050   -4.4970 C   0  0  0  0  0  0  0  0  0  0  0  0
    0.8100   11.7210   -5.4870 O   0  0  0  0  0  0  0  0  0  0  0  0
    1.0230   12.1000   -3.0900 C   0  0  0  0  0  0  0  0  0  0  0  0
    2.9870   12.2700   -4.6000 C   0  0  0  0  0  0  0  0  0  0  0  0
    0.3590   11.1300   -2.7830 O   0  0  0  0  0  0  0  0  0  0  0  0
    1.4520   12.9720   -2.1500 O   0  0  0  0  0  0  0  0  0  0  0  0
  1  2  1  0
  2  3  1  0
  2  4  1  0
  2  5  1  0
  4  6  2  0
  4  7  1  0
M  END
