x0950_1_A_α-x0128_0_A_α
     RDKit          3D

 26 27  0  0  0  0  0  0  0  0999 V2000
    1.0910   13.9850   -4.8380 C   0  0  0  0  0  0  0  0  0  0  0  0
    1.3470   12.5340   -4.4700 C   0  0  2  0  0  0  0  0  0  0  0  0
    0.6640   11.7170   -5.4250 O   0  0  0  0  0  0  0  0  0  0  0  0
    0.9060   12.1930   -3.0390 C   0  0  0  0  0  0  0  0  0  0  0  0
    0.3750   11.1260   -2.7300 O   0  0  0  0  0  0  0  0  0  0  0  0
    1.1780   13.2110   -2.1820 O   0  0  0  0  0  0  0  0  0  0  0  0
    0.2790   13.2990   -1.0630 C   0  0  0  0  0  0  0  0  0  0  0  0
   -0.6200   14.5140   -1.1940 C   0  0  0  0  0  0  0  0  0  0  0  0
   -1.8290   14.4160   -0.2610 C   0  0  0  0  0  0  0  0  0  0  0  0
   -2.7520   15.6310   -0.2270 C   0  0  0  0  0  0  0  0  0  0  0  0
   -4.2190   15.3240   -0.1410 C   0  0  0  0  0  0  0  0  0  0  0  0
   -5.0210   15.2680   -1.2820 C   0  0  0  0  0  0  0  0  0  0  0  0
   -4.7990   15.0890    1.1150 C   0  0  0  0  0  0  0  0  0  0  0  0
   -6.3790   14.9790   -1.1720 C   0  0  0  0  0  0  0  0  0  0  0  0
   -6.1600   14.7990    1.2380 C   0  0  0  0  0  0  0  0  0  0  0  0
   -6.7750   14.5640    2.4870 N   0  0  0  0  0  0  0  0  0  0  0  0
   -6.9480   14.7440    0.0840 C   0  0  0  0  0  0  0  0  0  0  0  0
   -7.9000   15.1820    3.0300 C   0  0  0  0  0  0  0  0  0  0  0  0
   -8.8590   15.5870    2.3860 O   0  0  0  0  0  0  0  0  0  0  0  0
   -7.7760   15.2650    4.4140 N   0  0  0  0  0  0  0  0  0  0  0  0
   -8.5380   16.0600    5.3050 C   0  0  0  0  0  0  0  0  0  0  0  0
   -9.1750   17.2130    4.8450 C   0  0  0  0  0  0  0  0  0  0  0  0
   -8.7010   15.7570    6.6540 C   0  0  0  0  0  0  0  0  0  0  0  0
   -9.9290   18.0400    5.6090 N   0  0  0  0  0  0  0  0  0  0  0  0
   -9.4700   16.5880    7.4680 C   0  0  0  0  0  0  0  0  0  0  0  0
  -10.0600   17.7080    6.9070 C   0  0  0  0  0  0  0  0  0  0  0  0
  2  1  1  6
  2  3  1  0
  2  4  1  0
  4  5  2  0
  4  6  1  0
  6  7  1  0
  7  8  1  0
  8  9  1  0
  9 10  1  0
 10 11  1  0
 11 12  2  0
 11 13  1  0
 12 14  1  0
 13 15  2  0
 15 16  1  0
 14 17  2  0
 15 17  1  0
 16 18  1  0
 18 19  2  0
 18 20  1  0
 20 21  1  0
 21 22  2  0
 21 23  1  0
 22 24  1  0
 23 25  2  0
 24 26  2  0
 25 26  1  0
M  END
