x0950_1_A-x0950_0_A
     RDKit          3D

  7  6  0  0  0  0  0  0  0  0999 V2000
    1.1640   13.9460   -4.7810 C   0  0  0  0  0  0  0  0  0  0  0  0
    1.5070   12.4920   -4.4920 C   0  0  0  0  0  0  0  0  0  0  0  0
    0.8530   11.7050   -5.4900 O   0  0  0  0  0  0  0  0  0  0  0  0
    1.0390   12.0890   -3.0870 C   0  0  0  0  0  0  0  0  0  0  0  0
    3.0130   12.2610   -4.5730 C   0  0  0  0  0  0  0  0  0  0  0  0
    0.3630   11.1250   -2.7810 O   0  0  0  0  0  0  0  0  0  0  0  0
    1.4720   12.9580   -2.1460 O   0  0  0  0  0  0  0  0  0  0  0  0
  1  2  1  0
  2  3  1  0
  2  4  1  0
  2  5  1  0
  4  6  2  0
  4  7  1  0
M  END
