x0950_1_A-x0592_0_A
     RDKit          3D

 20 20  0  0  0  0  0  0  0  0999 V2000
    1.0400   13.9980   -4.7740 C   0  0  0  0  0  0  0  0  0  0  0  0
    1.3640   12.5300   -4.5490 C   0  0  2  0  0  0  0  0  0  0  0  0
    0.6010   11.7540   -5.4770 O   0  0  0  0  0  0  0  0  0  0  0  0
    1.0850   12.0930   -3.1060 C   0  0  0  0  0  0  0  0  0  0  0  0
    0.2870   11.2040   -2.8060 O   0  0  0  0  0  0  0  0  0  0  0  0
    1.8400   12.7990   -2.2280 O   0  0  0  0  0  0  0  0  0  0  0  0
    1.1970   13.9460   -1.6690 C   0  0  0  0  0  0  0  0  0  0  0  0
   -0.2480   13.5820   -1.3550 C   0  0  0  0  0  0  0  0  0  0  0  0
   -0.9220   14.5150   -0.3600 C   0  0  0  0  0  0  0  0  0  0  0  0
   -2.3340   14.6440   -0.7030 N   0  0  0  0  0  0  0  0  0  0  0  0
   -3.2630   14.7180    0.1720 C   0  0  0  0  0  0  0  0  0  0  0  0
   -2.9340   14.6920    1.5030 N   0  0  0  0  0  0  0  0  0  0  0  0
   -4.6830   14.8160   -0.0730 C   0  0  0  0  0  0  0  0  0  0  0  0
   -5.4230   15.2110   -1.2180 C   0  0  0  0  0  0  0  0  0  0  0  0
   -5.6590   14.5120    0.8450 C   0  0  0  0  0  0  0  0  0  0  0  0
   -6.7490   15.1550   -1.0260 N   0  0  0  0  0  0  0  0  0  0  0  0
   -6.8580   14.7250    0.2450 N   0  0  0  0  0  0  0  0  0  0  0  0
   -8.1480   14.5280    0.8710 C   0  0  0  0  0  0  0  0  0  0  0  0
   -7.9770   14.1090    2.3310 C   0  0  0  0  0  0  0  0  0  0  0  0
   -7.2150   15.0660    3.0710 O   0  0  0  0  0  0  0  0  0  0  0  0
  2  1  1  1
  2  3  1  0
  2  4  1  0
  4  5  2  0
  4  6  1  0
  6  7  1  0
  7  8  1  0
  8  9  1  0
  9 10  1  0
 10 11  2  3
 11 12  1  0
 11 13  1  0
 13 14  1  0
 13 15  2  0
 14 16  2  0
 15 17  1  0
 16 17  1  0
 17 18  1  0
 18 19  1  0
 19 20  1  0
M  END
