x0950_0_A-x0844_0_A
     RDKit          3D

 17 17  0  0  0  0  0  0  0  0999 V2000
    2.8290   12.9220   -3.8720 C   0  0  0  0  0  0  0  0  0  0  0  0
    1.3130   12.8080   -3.9300 C   0  0  1  0  0  0  0  0  0  0  0  0
    0.9610   12.2690   -5.2100 O   0  0  0  0  0  0  0  0  0  0  0  0
    0.7230   11.9440   -2.7970 C   0  0  0  0  0  0  0  0  0  0  0  0
    0.2790   10.8190   -3.0010 O   0  0  0  0  0  0  0  0  0  0  0  0
    0.7410   12.5310   -1.5590 O   0  0  0  0  0  0  0  0  0  0  0  0
    0.2730   13.8850   -1.4400 C   0  0  0  0  0  0  0  0  0  0  0  0
   -1.2380   13.9760   -1.2000 C   0  0  0  0  0  0  0  0  0  0  0  0
   -2.0310   14.4320   -2.4280 C   0  0  0  0  0  0  0  0  0  0  0  0
   -3.1170   15.2900   -2.0580 O   0  0  0  0  0  0  0  0  0  0  0  0
   -4.0080   14.7270   -1.0840 C   0  0  1  0  0  0  0  0  0  0  0  0
   -3.5550   15.1600    0.2740 C   0  0  0  0  0  0  0  0  0  0  0  0
   -5.4730   15.0870   -1.3310 C   0  0  0  0  0  0  0  0  0  0  0  0
   -4.4070   15.1910    1.2930 C   0  0  0  0  0  0  0  0  0  0  0  0
   -6.3450   14.8820   -0.1130 C   0  0  0  0  0  0  0  0  0  0  0  0
   -7.5680   14.7700   -0.1840 O   0  0  0  0  0  0  0  0  0  0  0  0
   -5.7040   14.8250    1.1000 N   0  0  0  0  0  0  0  0  0  0  0  0
  2  1  1  1
  2  3  1  0
  2  4  1  0
  4  5  2  0
  4  6  1  0
  6  7  1  0
  7  8  1  0
  8  9  1  0
  9 10  1  0
 11 10  1  6
 11 12  1  0
 11 13  1  0
 12 14  2  0
 13 15  1  0
 15 16  2  0
 14 17  1  0
 15 17  1  0
M  END
