x0950_0_A-x0685_1_A
     RDKit          3D

 14 14  0  0  0  0  0  0  0  0999 V2000
    2.6050   12.9550   -4.5390 C   0  0  0  0  0  0  0  0  0  0  0  0
    1.1290   12.9830   -4.1680 C   0  0  1  0  0  0  0  0  0  0  0  0
    0.3700   12.3530   -5.1880 O   0  0  0  0  0  0  0  0  0  0  0  0
    0.9120   12.2660   -2.8350 C   0  0  0  0  0  0  0  0  0  0  0  0
    0.4060   11.1590   -2.7130 O   0  0  0  0  0  0  0  0  0  0  0  0
    1.3300   12.9890   -1.7810 O   0  0  0  0  0  0  0  0  0  0  0  0
   -0.9880   12.1200   -4.8040 C   0  0  0  0  0  0  0  0  0  0  0  0
   -1.3070   10.7400   -5.1030 N   0  0  0  0  0  0  0  0  0  0  0  0
   -0.7530   10.3800   -6.4050 C   0  0  0  0  0  0  0  0  0  0  0  0
   -0.6280    8.8480   -6.4890 C   0  0  0  0  0  0  0  0  0  0  0  0
   -1.5760   10.9510   -7.5700 C   0  0  0  0  0  0  0  0  0  0  0  0
    0.0420    8.4660   -7.8010 C   0  0  0  0  0  0  0  0  0  0  0  0
   -0.9960   10.5450   -8.9160 C   0  0  0  0  0  0  0  0  0  0  0  0
   -0.7430    9.0340   -8.9930 C   0  0  0  0  0  0  0  0  0  0  0  0
  2  1  1  6
  2  3  1  0
  2  4  1  0
  4  5  2  0
  4  6  1  0
  3  7  1  0
  7  8  1  0
  8  9  1  0
  9 10  1  0
  9 11  1  0
 10 12  1  0
 11 13  1  0
 12 14  1  0
 13 14  1  0
M  END
