x0950_0_A-x0662_0_A
     RDKit          3D

 23 24  0  0  0  0  0  0  0  0999 V2000
    2.7960   13.0520   -4.2580 C   0  0  0  0  0  0  0  0  0  0  0  0
    1.3210   12.7510   -4.4330 C   0  0  1  0  0  0  0  0  0  0  0  0
    1.1810   11.9920   -5.6410 O   0  0  0  0  0  0  0  0  0  0  0  0
    0.8650   12.0790   -3.1370 C   0  0  0  0  0  0  0  0  0  0  0  0
    0.4530   10.9370   -3.0140 O   0  0  0  0  0  0  0  0  0  0  0  0
    0.9510   12.8770   -2.0500 O   0  0  0  0  0  0  0  0  0  0  0  0
   -0.0050   11.3630   -5.8320 C   0  0  0  0  0  0  0  0  0  0  0  0
   -0.9470   11.4130   -5.0630 O   0  0  0  0  0  0  0  0  0  0  0  0
   -0.0430   10.5800   -7.1110 C   0  0  0  0  0  0  0  0  0  0  0  0
   -0.9620    9.5340   -7.2120 C   0  0  0  0  0  0  0  0  0  0  0  0
    0.7940   10.8540   -8.1970 C   0  0  0  0  0  0  0  0  0  0  0  0
   -1.0400    8.7810   -8.3850 C   0  0  0  0  0  0  0  0  0  0  0  0
    0.7250   10.1100   -9.3870 C   0  0  0  0  0  0  0  0  0  0  0  0
    1.5200   10.3250  -10.5290 N   0  0  0  0  0  0  0  0  0  0  0  0
   -0.2030    9.0720   -9.4610 C   0  0  0  0  0  0  0  0  0  0  0  0
    2.2190    9.4630  -11.3550 C   0  0  0  0  0  0  0  0  0  0  0  0
    2.2370    8.2670  -11.0460 O   0  0  0  0  0  0  0  0  0  0  0  0
    2.9440    9.9330  -12.5480 C   0  0  0  0  0  0  0  0  0  0  0  0
    2.7630   11.1830  -13.2110 C   0  0  0  0  0  0  0  0  0  0  0  0
    3.9010    9.2120  -13.1610 N   0  0  0  0  0  0  0  0  0  0  0  0
    4.3110    9.9900  -14.1760 N   0  0  0  0  0  0  0  0  0  0  0  0
    3.6590   11.1830  -14.2510 C   0  0  0  0  0  0  0  0  0  0  0  0
    5.3550    9.5090  -15.0440 C   0  0  0  0  0  0  0  0  0  0  0  0
  2  1  1  1
  2  3  1  0
  2  4  1  0
  4  5  2  0
  4  6  1  0
  3  7  1  0
  7  8  2  0
  7  9  1  0
  9 10  2  0
  9 11  1  0
 10 12  1  0
 11 13  2  0
 13 14  1  0
 12 15  2  0
 13 15  1  0
 14 16  1  0
 16 17  2  0
 16 18  1  0
 18 19  1  0
 18 20  2  0
 20 21  1  0
 19 22  2  0
 21 22  1  0
 21 23  1  0
M  END
