x0950_1_A-x0592_0_A
     RDKit          3D

 20 20  0  0  0  0  0  0  0  0999 V2000
    1.0320   14.0010   -4.7730 C   0  0  0  0  0  0  0  0  0  0  0  0
    1.3540   12.5350   -4.5510 C   0  0  2  0  0  0  0  0  0  0  0  0
    0.5880   11.7610   -5.4780 O   0  0  0  0  0  0  0  0  0  0  0  0
    1.0790   12.0960   -3.1090 C   0  0  0  0  0  0  0  0  0  0  0  0
    0.2800   11.2100   -2.8070 O   0  0  0  0  0  0  0  0  0  0  0  0
    1.8360   12.8050   -2.2330 O   0  0  0  0  0  0  0  0  0  0  0  0
    1.1920   13.9520   -1.6730 C   0  0  0  0  0  0  0  0  0  0  0  0
   -0.2470   13.5770   -1.3370 C   0  0  0  0  0  0  0  0  0  0  0  0
   -0.9220   14.5280   -0.3570 C   0  0  0  0  0  0  0  0  0  0  0  0
   -2.3360   14.6490   -0.7010 N   0  0  0  0  0  0  0  0  0  0  0  0
   -3.2610   14.7210    0.1740 C   0  0  0  0  0  0  0  0  0  0  0  0
   -2.9370   14.6970    1.5060 N   0  0  0  0  0  0  0  0  0  0  0  0
   -4.6820   14.8150   -0.0720 C   0  0  0  0  0  0  0  0  0  0  0  0
   -5.4190   15.2040   -1.2210 C   0  0  0  0  0  0  0  0  0  0  0  0
   -5.6600   14.5120    0.8460 C   0  0  0  0  0  0  0  0  0  0  0  0
   -6.7470   15.1460   -1.0310 N   0  0  0  0  0  0  0  0  0  0  0  0
   -6.8560   14.7220    0.2430 N   0  0  0  0  0  0  0  0  0  0  0  0
   -8.1470   14.5270    0.8690 C   0  0  0  0  0  0  0  0  0  0  0  0
   -7.9730   14.1100    2.3270 C   0  0  0  0  0  0  0  0  0  0  0  0
   -7.2090   15.0690    3.0670 O   0  0  0  0  0  0  0  0  0  0  0  0
  2  1  1  1
  2  3  1  0
  2  4  1  0
  4  5  2  0
  4  6  1  0
  6  7  1  0
  7  8  1  0
  8  9  1  0
  9 10  1  0
 10 11  2  3
 11 12  1  0
 11 13  1  0
 13 14  1  0
 13 15  2  0
 14 16  2  0
 15 17  1  0
 16 17  1  0
 17 18  1  0
 18 19  1  0
 19 20  1  0
M  END
