x0950_0_A_α-x0685_0_A_α
     RDKit          3D

 20 20  0  0  0  0  0  0  0  0999 V2000
    3.0740   12.3730   -4.4140 C   0  0  0  0  0  0  0  0  0  0  0  0
    1.5670   12.5840   -4.4560 C   0  0  1  0  0  0  0  0  0  0  0  0
    1.0500   11.9550   -5.6230 O   0  0  0  0  0  0  0  0  0  0  0  0
    0.9180   12.0670   -3.1610 C   0  0  0  0  0  0  0  0  0  0  0  0
    0.5320   10.9230   -2.9610 O   0  0  0  0  0  0  0  0  0  0  0  0
    0.8370   13.0760   -2.2440 O   0  0  0  0  0  0  0  0  0  0  0  0
    1.3470   14.3450   -2.6970 C   0  0  0  0  0  0  0  0  0  0  0  0
    0.1830   15.3230   -2.8950 C   0  0  0  0  0  0  0  0  0  0  0  0
   -1.0310   14.8310   -3.7140 C   0  0  0  0  0  0  0  0  0  0  0  0
   -2.2530   14.9030   -2.8910 C   0  0  0  0  0  0  0  0  0  0  0  0
   -3.1330   14.9550   -2.0810 C   0  0  0  0  0  0  0  0  0  0  0  0
   -4.0030   14.9810   -0.9560 C   0  0  0  0  0  0  0  0  0  0  0  0
   -3.4230   15.1510    0.2880 C   0  0  0  0  0  0  0  0  0  0  0  0
   -5.3800   14.8420   -1.0210 C   0  0  0  0  0  0  0  0  0  0  0  0
   -4.2250   15.1760    1.4110 C   0  0  0  0  0  0  0  0  0  0  0  0
   -6.1870   14.8600    0.0720 N   0  0  0  0  0  0  0  0  0  0  0  0
   -5.5970   15.0260    1.2750 C   0  0  0  0  0  0  0  0  0  0  0  0
   -6.3420   15.0670    2.4630 N   0  0  0  0  0  0  0  0  0  0  0  0
   -7.7290   14.6500    2.4330 C   0  0  0  0  0  0  0  0  0  0  0  0
   -7.8860   13.2780    3.0690 C   0  0  0  0  0  0  0  0  0  0  0  0
  2  1  1  1
  2  3  1  0
  2  4  1  0
  4  5  2  0
  4  6  1  0
  6  7  1  0
  7  8  1  0
  8  9  1  0
  9 10  1  0
 10 11  3  0
 11 12  1  0
 12 13  2  0
 12 14  1  0
 13 15  1  0
 14 16  2  0
 15 17  2  0
 16 17  1  0
 17 18  1  0
 18 19  1  0
 19 20  1  0
M  END
