x0950_1_A-x0742_0_A
     RDKit          3D

 23 25  0  0  0  0  0  0  0  0999 V2000
    1.2240   13.9190   -5.0140 C   0  0  0  0  0  0  0  0  0  0  0  0
    1.3950   12.5180   -4.4610 C   0  0  2  0  0  0  0  0  0  0  0  0
    0.6750   11.6320   -5.3230 O   0  0  0  0  0  0  0  0  0  0  0  0
    0.8770   12.4450   -3.0290 C   0  0  0  0  0  0  0  0  0  0  0  0
    0.6520   11.3940   -2.4250 O   0  0  0  0  0  0  0  0  0  0  0  0
    0.7030   13.7230   -2.5920 O   0  0  0  0  0  0  0  0  0  0  0  0
    1.1040   14.1750   -1.2910 C   0  0  0  0  0  0  0  0  0  0  0  0
   -0.1370   14.2920   -0.4680 C   0  0  0  0  0  0  0  0  0  0  0  0
   -0.1860   14.5860    0.8950 C   0  0  0  0  0  0  0  0  0  0  0  0
   -1.3480   14.0980   -1.1110 C   0  0  0  0  0  0  0  0  0  0  0  0
   -1.3170   14.6860    1.6100 N   0  0  0  0  0  0  0  0  0  0  0  0
   -2.5320   14.2020   -0.4040 C   0  0  0  0  0  0  0  0  0  0  0  0
   -3.8480   14.0000   -1.0940 C   0  0  1  0  0  0  0  0  0  0  0  0
   -2.4590   14.4970    0.9360 C   0  0  0  0  0  0  0  0  0  0  0  0
   -5.0380   13.5520   -0.1840 C   0  0  1  0  0  0  0  0  0  0  0  0
   -4.3290   15.2750   -1.8130 C   0  0  0  0  0  0  0  0  0  0  0  0
   -3.7040   14.6230    1.7080 C   0  0  0  0  0  0  0  0  0  0  0  0
   -5.5620   12.1760   -0.6030 C   0  0  0  0  0  0  0  0  0  0  0  0
   -4.6860   13.5310    1.3190 C   0  0  0  0  0  0  0  0  0  0  0  0
   -6.1480   14.5930   -0.4260 C   0  0  0  0  0  0  0  0  0  0  0  0
   -5.4230   15.8220   -0.9220 C   0  0  0  0  0  0  0  0  0  0  0  0
   -5.1220   11.5690   -1.5800 O   0  0  0  0  0  0  0  0  0  0  0  0
   -6.6610   11.5770    0.2360 C   0  0  0  0  0  0  0  0  0  0  0  0
  2  1  1  6
  2  3  1  0
  2  4  1  0
  4  5  2  0
  4  6  1  0
  6  7  1  0
  7  8  1  0
  8  9  2  0
  8 10  1  0
  9 11  1  0
 10 12  2  0
 12 13  1  0
 11 14  2  0
 12 14  1  0
 13 15  1  0
 13 16  1  1
 14 17  1  0
 15 18  1  6
 15 19  1  0
 17 19  1  0
 15 20  1  0
 16 21  1  0
 20 21  1  0
 18 22  2  0
 18 23  1  0
M  END
