x0967_0_A-x0962_2_B
     RDKit          3D

 20 22  0  0  0  0  0  0  0  0999 V2000
  -10.6590   16.4690    0.7600 N   0  0  0  0  0  0  0  0  0  0  0  0
   -9.6430   15.4230    0.8230 C   0  0  1  0  0  0  0  0  0  0  0  0
   -8.4830   15.7480   -0.1980 C   0  0  0  0  0  0  0  0  0  0  0  0
   -9.2000   15.3050    2.2790 C   0  0  0  0  0  0  0  0  0  0  0  0
   -8.4000   15.0940   -1.6200 C   0  0  0  0  0  0  0  0  0  0  0  0
   -9.1490   16.3520    3.1900 N   0  0  0  0  0  0  0  0  0  0  0  0
   -8.7720   14.2260    3.0300 C   0  0  0  0  0  0  0  0  0  0  0  0
   -7.0510   15.4210   -2.3880 C   0  0  0  0  0  0  0  0  0  0  0  0
   -8.6930   15.8640    4.3900 C   0  0  0  0  0  0  0  0  0  0  0  0
   -8.4610   14.5810    4.3210 N   0  0  0  0  0  0  0  0  0  0  0  0
   -5.8420   14.8960   -1.7140 N   0  0  0  0  0  0  0  0  0  0  0  0
   -6.2270   14.7580   -0.3660 C   0  0  1  0  0  0  0  0  0  0  0  0
   -4.4880   15.0960   -2.0260 C   0  0  0  0  0  0  0  0  0  0  0  0
   -7.0960   13.6240   -0.1720 N   0  0  0  0  0  0  0  0  0  0  0  0
   -5.1210   14.9250    0.6470 C   0  0  0  0  0  0  0  0  0  0  0  0
   -3.5090   15.2000   -1.0910 C   0  0  0  0  0  0  0  0  0  0  0  0
   -5.6400   14.8490    1.9720 C   0  0  0  0  0  0  0  0  0  0  0  0
   -7.2990   13.3750    1.0460 C   0  0  0  0  0  0  0  0  0  0  0  0
   -3.8450   15.1280    0.3150 C   0  0  0  0  0  0  0  0  0  0  0  0
   -6.7250   14.1010    2.1930 C   0  0  0  0  0  0  0  0  0  0  0  0
  2  1  1  1
  2  3  1  0
  2  4  1  0
  3  5  1  0
  4  6  1  0
  4  7  2  0
  5  8  1  0
  6  9  1  0
  7 10  1  0
  9 10  2  0
  8 11  1  0
 11 12  1  0
 11 13  1  0
 12 14  1  6
 12 15  1  0
 13 16  2  0
 15 17  1  0
 14 18  2  0
 15 19  2  0
 16 19  1  0
 17 20  2  0
 18 20  1  0
M  END
