x0962_0_A_α-x1015_0_A_α
     RDKit          3D

 24 26  0  0  0  0  0  0  0  0999 V2000
   -1.6350   14.7410   -1.2230 N   0  0  0  0  0  0  0  0  0  0  0  0
   -3.0030   14.5200   -1.6000 C   0  0  2  0  0  0  0  0  0  0  0  0
   -3.3130   15.1770   -2.9600 C   0  0  0  0  0  0  0  0  0  0  0  0
   -3.9330   14.7860   -0.4650 C   0  0  0  0  0  0  0  0  0  0  0  0
   -2.1620   15.2690   -3.9890 C   0  0  0  0  0  0  0  0  0  0  0  0
   -3.4880   15.2240    0.7650 N   0  0  0  0  0  0  0  0  0  0  0  0
   -5.2980   14.6810   -0.3120 C   0  0  0  0  0  0  0  0  0  0  0  0
   -1.5280   13.9490   -4.4340 C   0  0  0  0  0  0  0  0  0  0  0  0
   -4.5740   15.3550    1.5780 C   0  0  0  0  0  0  0  0  0  0  0  0
   -5.6800   15.0270    0.9490 N   0  0  0  0  0  0  0  0  0  0  0  0
   -0.0690   13.6250   -4.0540 C   0  0  2  0  0  0  0  0  0  0  0  0
    0.1150   12.1710   -4.0280 N   0  0  0  0  0  0  0  0  0  0  0  0
    0.3030   13.9550   -2.6060 C   0  0  0  0  0  0  0  0  0  0  0  0
    0.4430   15.0710   -2.1280 O   0  0  0  0  0  0  0  0  0  0  0  0
    0.2720   11.7160   -2.7080 C   0  0  0  0  0  0  0  0  0  0  0  0
    0.4840   12.8010   -1.9140 N   0  0  0  0  0  0  0  0  0  0  0  0
   -0.3590   11.3770   -5.0970 C   0  0  0  0  0  0  0  0  0  0  0  0
    0.2430   10.5600   -2.2720 O   0  0  0  0  0  0  0  0  0  0  0  0
    0.1470   11.5520   -6.3960 C   0  0  0  0  0  0  0  0  0  0  0  0
   -1.3430   10.3930   -4.9070 C   0  0  0  0  0  0  0  0  0  0  0  0
   -0.3090   10.7760   -7.4610 C   0  0  0  0  0  0  0  0  0  0  0  0
   -1.8020    9.6130   -5.9690 C   0  0  0  0  0  0  0  0  0  0  0  0
   -1.2840    9.8060   -7.2440 C   0  0  0  0  0  0  0  0  0  0  0  0
   -1.8470    8.8500   -8.5530 Cl  0  0  0  0  0  0  0  0  0  0  0  0
  2  1  1  1
  2  3  1  0
  2  4  1  0
  3  5  1  0
  4  6  1  0
  4  7  2  0
  5  8  1  0
  6  9  1  0
  7 10  1  0
  9 10  2  0
 11  8  1  1
 11 12  1  0
 11 13  1  0
 13 14  2  0
 12 15  1  0
 13 16  1  0
 15 16  1  0
 12 17  1  0
 15 18  2  0
 17 19  2  0
 17 20  1  0
 19 21  1  0
 20 22  2  0
 21 23  2  0
 22 23  1  0
 23 24  1  0
M  END
