x0962_1_A_α-x0967_0_A_α
     RDKit          3D

 12 13  0  0  0  0  0  0  0  0999 V2000
   -4.3520   14.1160   -2.9850 N   0  0  0  0  0  0  0  0  0  0  0  0
   -4.9520   14.0360   -2.0000 C   0  0  0  0  0  0  0  0  0  0  0  0
   -5.5690   14.0560   -0.6860 C   0  0  2  0  0  0  0  0  0  0  0  0
   -7.0600   13.8910   -0.5450 C   0  0  0  0  0  0  0  0  0  0  0  0
   -5.3620   15.4500   -0.2710 C   0  0  1  0  0  0  0  0  0  0  0  0
   -5.1550   15.3560    1.1380 N   0  0  0  0  0  0  0  0  0  0  0  0
   -7.4290   14.4750    0.7590 N   0  0  0  0  0  0  0  0  0  0  0  0
   -4.3100   15.8990   -1.1330 N   0  0  0  0  0  0  0  0  0  0  0  0
   -6.2700   14.5700    1.6830 C   0  0  0  0  0  0  0  0  0  0  0  0
   -3.1430   15.2610   -0.9720 C   0  0  0  0  0  0  0  0  0  0  0  0
   -3.8150   14.7720    1.3850 C   0  0  0  0  0  0  0  0  0  0  0  0
   -2.8650   14.7060    0.2020 C   0  0  0  0  0  0  0  0  0  0  0  0
  1  2  3  0
  3  2  1  6
  3  4  1  0
  3  5  1  0
  5  6  1  0
  4  7  1  0
  5  8  1  6
  6  9  1  0
  7  9  1  0
  8 10  1  0
  6 11  1  0
 10 12  2  0
 11 12  1  0
M  END
