x0962_0_A-x0962_1_A
     RDKit          3D

  8  8  0  0  0  0  0  0  0  0999 V2000
   -2.0050   14.8060   -1.5720 N   0  0  0  0  0  0  0  0  0  0  0  0
   -3.4270   14.4970   -1.5460 C   0  0  2  0  0  0  0  0  0  0  0  0
   -4.1760   15.3540   -2.5270 C   0  0  0  0  0  0  0  0  0  0  0  0
   -4.0440   14.7470   -0.2380 C   0  0  0  0  0  0  0  0  0  0  0  0
   -3.3710   15.0570    0.9110 N   0  0  0  0  0  0  0  0  0  0  0  0
   -5.3710   14.7290    0.1070 C   0  0  0  0  0  0  0  0  0  0  0  0
   -4.3160   15.2100    1.8890 C   0  0  0  0  0  0  0  0  0  0  0  0
   -5.5280   15.0080    1.4250 N   0  0  0  0  0  0  0  0  0  0  0  0
  1  2  1  0
  2  3  1  6
  2  4  1  0
  4  5  1  0
  4  6  2  0
  5  7  1  0
  6  8  1  0
  7  8  2  0
M  END
