x0962_3_A_α-x0685_0_A_α
     RDKit          3D

 23 24  0  0  0  0  0  0  0  0999 V2000
    0.9120   11.3560   -8.8440 N   0  0  0  0  0  0  0  0  0  0  0  0
    0.7980   10.9870   -7.4500 C   0  0  1  0  0  0  0  0  0  0  0  0
    0.0530   12.0420   -6.5950 C   0  0  0  0  0  0  0  0  0  0  0  0
   -0.0030    9.7620   -7.5030 C   0  0  0  0  0  0  0  0  0  0  0  0
    0.8340   12.9910   -5.6650 C   0  0  0  0  0  0  0  0  0  0  0  0
    0.3040    8.6150   -8.1890 N   0  0  0  0  0  0  0  0  0  0  0  0
   -1.2090    9.5050   -6.8990 C   0  0  0  0  0  0  0  0  0  0  0  0
   -0.0010   13.4450   -4.4610 C   0  0  0  0  0  0  0  0  0  0  0  0
   -0.7160    7.7370   -7.9700 C   0  0  0  0  0  0  0  0  0  0  0  0
   -1.6440    8.2530   -7.1950 N   0  0  0  0  0  0  0  0  0  0  0  0
   -0.5190   14.9030   -4.5090 C   0  0  0  0  0  0  0  0  0  0  0  0
   -2.0480   15.1040   -4.6580 C   0  0  0  0  0  0  0  0  0  0  0  0
   -2.7920   15.1240   -3.3770 C   0  0  0  0  0  0  0  0  0  0  0  0
   -3.3870   15.1040   -2.3220 C   0  0  0  0  0  0  0  0  0  0  0  0
   -4.0610   15.0530   -1.0570 C   0  0  0  0  0  0  0  0  0  0  0  0
   -3.3480   15.0640    0.1380 C   0  0  0  0  0  0  0  0  0  0  0  0
   -5.4410   14.9910   -0.9780 C   0  0  0  0  0  0  0  0  0  0  0  0
   -4.0390   15.0230    1.3470 C   0  0  0  0  0  0  0  0  0  0  0  0
   -6.1320   14.9460    0.1840 N   0  0  0  0  0  0  0  0  0  0  0  0
   -5.4300   14.9690    1.3350 C   0  0  0  0  0  0  0  0  0  0  0  0
   -6.2070   14.9500    2.4950 N   0  0  0  0  0  0  0  0  0  0  0  0
   -7.6470   14.7560    2.4170 C   0  0  0  0  0  0  0  0  0  0  0  0
   -8.0590   13.4100    2.9910 C   0  0  0  0  0  0  0  0  0  0  0  0
  2  1  1  6
  2  3  1  0
  2  4  1  0
  3  5  1  0
  4  6  1  0
  4  7  2  0
  5  8  1  0
  6  9  1  0
  7 10  1  0
  9 10  2  0
  8 11  1  0
 11 12  1  0
 12 13  1  0
 13 14  3  0
 14 15  1  0
 15 16  2  0
 15 17  1  0
 16 18  1  0
 17 19  2  0
 18 20  2  0
 19 20  1  0
 20 21  1  0
 21 22  1  0
 22 23  1  0
M  END
