x0962_0_A-x1015_0_A
     RDKit          3D

 24 26  0  0  0  0  0  0  0  0999 V2000
   -1.6220   14.7390   -1.2220 N   0  0  0  0  0  0  0  0  0  0  0  0
   -2.9930   14.5320   -1.6040 C   0  0  2  0  0  0  0  0  0  0  0  0
   -3.3030   15.1950   -2.9590 C   0  0  0  0  0  0  0  0  0  0  0  0
   -3.9210   14.7950   -0.4750 C   0  0  0  0  0  0  0  0  0  0  0  0
   -2.1590   15.2890   -3.9880 C   0  0  0  0  0  0  0  0  0  0  0  0
   -3.4770   15.2240    0.7580 N   0  0  0  0  0  0  0  0  0  0  0  0
   -5.2850   14.7000   -0.3270 C   0  0  0  0  0  0  0  0  0  0  0  0
   -1.5450   13.9590   -4.4340 C   0  0  0  0  0  0  0  0  0  0  0  0
   -4.5660   15.3580    1.5680 C   0  0  0  0  0  0  0  0  0  0  0  0
   -5.6700   15.0420    0.9350 N   0  0  0  0  0  0  0  0  0  0  0  0
   -0.0840   13.6250   -4.0680 C   0  0  2  0  0  0  0  0  0  0  0  0
    0.0980   12.1750   -4.0220 N   0  0  0  0  0  0  0  0  0  0  0  0
    0.3050   13.9740   -2.6340 C   0  0  0  0  0  0  0  0  0  0  0  0
    0.5110   15.0970   -2.1960 O   0  0  0  0  0  0  0  0  0  0  0  0
    0.2330   11.7350   -2.6950 C   0  0  0  0  0  0  0  0  0  0  0  0
    0.4170   12.8310   -1.9070 N   0  0  0  0  0  0  0  0  0  0  0  0
   -0.3690   11.3750   -5.0900 C   0  0  0  0  0  0  0  0  0  0  0  0
    0.2070   10.5820   -2.2470 O   0  0  0  0  0  0  0  0  0  0  0  0
    0.1410   11.5560   -6.3830 C   0  0  0  0  0  0  0  0  0  0  0  0
   -1.3460   10.3890   -4.8990 C   0  0  0  0  0  0  0  0  0  0  0  0
   -0.3090   10.7780   -7.4530 C   0  0  0  0  0  0  0  0  0  0  0  0
   -1.8000    9.6060   -5.9650 C   0  0  0  0  0  0  0  0  0  0  0  0
   -1.2800    9.8050   -7.2370 C   0  0  0  0  0  0  0  0  0  0  0  0
   -1.8350    8.8460   -8.5500 Cl  0  0  0  0  0  0  0  0  0  0  0  0
  2  1  1  1
  2  3  1  0
  2  4  1  0
  3  5  1  0
  4  6  1  0
  4  7  2  0
  5  8  1  0
  6  9  1  0
  7 10  1  0
  9 10  2  0
 11  8  1  1
 11 12  1  0
 11 13  1  0
 13 14  2  0
 12 15  1  0
 13 16  1  0
 15 16  1  0
 12 17  1  0
 15 18  2  0
 17 19  2  0
 17 20  1  0
 19 21  1  0
 20 22  2  0
 21 23  2  0
 22 23  1  0
 23 24  1  0
M  END
