x0962_0_A-x0371_0_A
     RDKit          3D

 20 22  0  0  0  0  0  0  0  0999 V2000
   -2.6620   14.9000   -2.4210 N   0  0  0  0  0  0  0  0  0  0  0  0
   -3.3830   14.9350   -1.5100 C   0  0  0  0  0  0  0  0  0  0  0  0
   -4.1710   14.9120   -0.3300 C   0  0  0  0  0  0  0  0  0  0  0  0
   -3.5380   15.3020    0.8390 N   0  0  0  0  0  0  0  0  0  0  0  0
   -5.4620   14.5110   -0.2440 C   0  0  0  0  0  0  0  0  0  0  0  0
   -4.2950   15.4300    1.9710 C   0  0  0  0  0  0  0  0  0  0  0  0
   -6.3680   14.0120   -1.1470 N   0  0  0  0  0  0  0  0  0  0  0  0
   -6.0920   14.5320    1.0530 C   0  0  0  0  0  0  0  0  0  0  0  0
   -5.5080   15.0910    2.1120 N   0  0  0  0  0  0  0  0  0  0  0  0
   -7.2480   13.9170    1.0630 C   0  0  0  0  0  0  0  0  0  0  0  0
   -7.3730   13.6290   -0.3810 C   0  0  0  0  0  0  0  0  0  0  0  0
   -8.1470   13.6330    2.2100 C   0  0  0  0  0  0  0  0  0  0  0  0
   -9.1900   14.5940    2.4720 N   0  0  0  0  0  0  0  0  0  0  0  0
   -9.1410   15.6660    3.3570 C   0  0  0  0  0  0  0  0  0  0  0  0
   -9.4570   16.7730    2.9620 O   0  0  0  0  0  0  0  0  0  0  0  0
   -8.7650   15.4680    4.7580 C   0  0  0  0  0  0  0  0  0  0  0  0
   -8.1940   14.3050    5.2160 O   0  0  0  0  0  0  0  0  0  0  0  0
   -8.9010   16.3430    5.8250 C   0  0  0  0  0  0  0  0  0  0  0  0
   -8.3930   15.6920    6.9720 C   0  0  0  0  0  0  0  0  0  0  0  0
   -7.9720   14.4580    6.5540 C   0  0  0  0  0  0  0  0  0  0  0  0
  1  2  3  0
  2  3  1  0
  3  4  1  0
  3  5  2  0
  4  6  1  0
  5  7  1  0
  5  8  1  0
  6  9  2  0
  8  9  1  0
  8 10  2  0
  7 11  2  0
 10 11  1  0
 10 12  1  0
 12 13  1  0
 13 14  1  0
 14 15  2  0
 14 16  1  0
 16 17  1  0
 16 18  2  0
 18 19  1  0
 17 20  1  0
 19 20  2  0
M  END
