x0962_0_A-x0253_0_A
     RDKit          3D

 24 25  0  0  0  0  0  0  0  0999 V2000
   -2.7880   15.1670   -2.4230 N   0  0  0  0  0  0  0  0  0  0  0  0
   -3.0470   14.1040   -1.4660 C   0  0  1  0  0  0  0  0  0  0  0  0
   -1.7360   13.5080   -0.9580 C   0  0  0  0  0  0  0  0  0  0  0  0
   -3.8860   14.5890   -0.3480 C   0  0  0  0  0  0  0  0  0  0  0  0
   -0.5930   14.5170   -0.8860 C   0  0  0  0  0  0  0  0  0  0  0  0
   -3.3780   15.0020    0.8540 N   0  0  0  0  0  0  0  0  0  0  0  0
   -5.2440   14.7220   -0.2360 C   0  0  0  0  0  0  0  0  0  0  0  0
    0.7490   13.8280   -1.0150 C   0  0  0  0  0  0  0  0  0  0  0  0
   -4.4410   15.3600    1.6310 C   0  0  0  0  0  0  0  0  0  0  0  0
   -5.5780   15.1940    0.9950 N   0  0  0  0  0  0  0  0  0  0  0  0
    1.1110   13.6670   -2.4050 N   0  0  0  0  0  0  0  0  0  0  0  0
    0.8970   12.5970   -3.0700 C   0  0  0  0  0  0  0  0  0  0  0  0
    0.3270   11.4530   -2.6120 O   0  0  0  0  0  0  0  0  0  0  0  0
    1.3110   12.6270   -4.5150 C   0  0  0  0  0  0  0  0  0  0  0  0
    0.4430   11.8870   -5.4150 N   0  0  0  0  0  0  0  0  0  0  0  0
    1.0810   11.6240   -6.5950 C   0  0  0  0  0  0  0  0  0  0  0  0
    2.1630   12.1220   -6.7830 O   0  0  0  0  0  0  0  0  0  0  0  0
    0.4460   10.7060   -7.5780 C   0  0  0  0  0  0  0  0  0  0  0  0
   -0.5290    9.7930   -7.1770 C   0  0  0  0  0  0  0  0  0  0  0  0
    0.8320   10.7540   -8.9260 C   0  0  0  0  0  0  0  0  0  0  0  0
   -1.1210    8.9320   -8.1080 C   0  0  0  0  0  0  0  0  0  0  0  0
    0.2490    9.9010   -9.8560 C   0  0  0  0  0  0  0  0  0  0  0  0
   -2.1710    7.9560   -7.6690 C   0  0  0  0  0  0  0  0  0  0  0  0
   -0.7240    8.9940   -9.4510 C   0  0  0  0  0  0  0  0  0  0  0  0
  2  1  1  6
  2  3  1  0
  2  4  1  0
  3  5  1  0
  4  6  1  0
  4  7  2  0
  5  8  1  0
  6  9  1  0
  7 10  1  0
  9 10  2  0
  8 11  1  0
 11 12  2  3
 12 13  1  0
 12 14  1  0
 14 15  1  0
 15 16  1  0
 16 17  2  0
 16 18  1  0
 18 19  2  0
 18 20  1  0
 19 21  1  0
 20 22  2  0
 21 23  1  0
 21 24  2  0
 22 24  1  0
M  END
