x0962_0_A-x0471_0_A
     RDKit          3D

 17 18  0  0  0  0  0  0  0  0999 V2000
   -2.8530   15.0410   -2.6670 N   0  0  0  0  0  0  0  0  0  0  0  0
   -3.4020   14.7960   -1.6760 C   0  0  0  0  0  0  0  0  0  0  0  0
   -3.9950   14.4440   -0.3830 C   0  0  1  0  0  0  0  0  0  0  0  0
   -3.0880   14.7980    0.7280 N   0  0  0  0  0  0  0  0  0  0  0  0
   -5.3160   15.1890   -0.0400 C   0  0  2  0  0  0  0  0  0  0  0  0
   -3.9820   14.7160    1.8490 C   0  0  0  0  0  0  0  0  0  0  0  0
   -5.1970   15.3780    1.4130 N   0  0  0  0  0  0  0  0  0  0  0  0
   -6.6350   14.5150   -0.2380 N   0  0  0  0  0  0  0  0  0  0  0  0
   -7.0950   14.0540    1.0960 C   0  0  1  0  0  0  0  0  0  0  0  0
   -6.3590   14.8210    2.0750 N   0  0  0  0  0  0  0  0  0  0  0  0
   -8.6210   14.2280    1.3490 C   0  0  0  0  0  0  0  0  0  0  0  0
   -8.9370   14.0430    2.7730 N   0  0  0  0  0  0  0  0  0  0  0  0
   -9.2060   15.1280    3.5920 C   0  0  0  0  0  0  0  0  0  0  0  0
   -9.4020   16.2460    3.1290 O   0  0  0  0  0  0  0  0  0  0  0  0
   -9.2750   14.8320    5.0980 C   0  0  0  0  0  0  0  0  0  0  0  0
   -9.5960   13.3680    5.3840 C   0  0  0  0  0  0  0  0  0  0  0  0
   -8.0170   15.2810    5.8330 C   0  0  0  0  0  0  0  0  0  0  0  0
  1  2  3  0
  3  2  1  6
  3  4  1  0
  3  5  1  0
  4  6  1  0
  5  7  1  0
  6  7  1  0
  5  8  1  1
  8  9  1  0
  7 10  1  0
  9 10  1  0
  9 11  1  6
 11 12  1  0
 12 13  1  0
 13 14  2  0
 13 15  1  0
 15 16  1  0
 15 17  1  0
M  END
