x0962_0_A-x0421_0_A
     RDKit          3D

 10 11  0  0  0  0  0  0  0  0999 V2000
   -2.0860   14.6370   -1.5880 N   0  0  0  0  0  0  0  0  0  0  0  0
   -3.4120   15.1710   -1.7350 C   0  0  0  0  0  0  0  0  0  0  0  0
   -3.8370   14.5070   -2.9320 N   0  0  0  0  0  0  0  0  0  0  0  0
   -4.2660   14.9980   -0.5040 C   0  0  0  0  0  0  0  0  0  0  0  0
   -3.7640   15.2910    0.7700 N   0  0  0  0  0  0  0  0  0  0  0  0
   -5.5380   14.5890   -0.4590 C   0  0  0  0  0  0  0  0  0  0  0  0
   -4.7540   15.0710    1.5920 C   0  0  0  0  0  0  0  0  0  0  0  0
   -5.9680   14.5510    0.9140 C   0  0  0  0  0  0  0  0  0  0  0  0
   -7.3940   14.7240    1.3450 C   0  0  0  0  0  0  0  0  0  0  0  0
   -6.7430   13.3730    1.4230 C   0  0  0  0  0  0  0  0  0  0  0  0
  1  2  1  0
  2  3  1  0
  2  4  1  0
  4  5  1  0
  4  6  2  0
  5  7  2  0
  8  6  1  0
  7  8  1  0
  8  9  1  0
  8 10  1  0
  9 10  1  0
M  END
