x0962_2_B-x0711_0_A
     RDKit          3D

 21 22  0  0  0  0  0  0  0  0999 V2000
  -10.3650   16.1960    0.6350 N   0  0  0  0  0  0  0  0  0  0  0  0
   -9.6900   15.9080    1.5330 C   0  0  0  0  0  0  0  0  0  0  0  0
   -8.9040   15.5870    2.6570 C   0  0  0  0  0  0  0  0  0  0  0  0
   -9.3060   15.9100    3.9290 N   0  0  0  0  0  0  0  0  0  0  0  0
   -7.6660   14.9480    2.8110 C   0  0  0  0  0  0  0  0  0  0  0  0
   -6.7520   14.4070    1.8820 N   0  0  0  0  0  0  0  0  0  0  0  0
   -8.3540   15.4730    4.7880 C   0  0  0  0  0  0  0  0  0  0  0  0
   -7.3850   14.8980    4.1430 N   0  0  0  0  0  0  0  0  0  0  0  0
   -6.7140   14.5800    0.4850 C   0  0  0  0  0  0  0  0  0  0  0  0
   -7.6870   14.6560   -0.2520 O   0  0  0  0  0  0  0  0  0  0  0  0
   -5.3580   14.6770   -0.2080 C   0  0  0  0  0  0  0  0  0  0  0  0
   -5.3440   15.0270   -1.5780 C   0  0  0  0  0  0  0  0  0  0  0  0
   -4.1220   14.4410    0.4250 C   0  0  0  0  0  0  0  0  0  0  0  0
   -4.1370   15.1360   -2.2890 C   0  0  0  0  0  0  0  0  0  0  0  0
   -2.9130   14.5520   -0.2950 C   0  0  0  0  0  0  0  0  0  0  0  0
   -2.9160   14.9000   -1.6550 C   0  0  0  0  0  0  0  0  0  0  0  0
   -1.7060   15.0400   -2.4190 N   0  0  0  0  0  0  0  0  0  0  0  0
   -0.7180   13.8150   -3.0180 S   0  0  0  0  0  0  0  0  0  0  0  0
   -1.8310   12.7580   -3.9270 C   0  0  0  0  0  0  0  0  0  0  0  0
    0.2050   14.4070   -3.9620 O   0  0  0  0  0  0  0  0  0  0  0  0
   -0.2220   13.0930   -1.8650 O   0  0  0  0  0  0  0  0  0  0  0  0
  1  2  3  0
  2  3  1  0
  3  4  1  0
  3  5  2  0
  5  6  1  0
  4  7  1  0
  5  8  1  0
  7  8  2  0
  6  9  1  0
  9 10  2  0
  9 11  1  0
 11 12  2  0
 11 13  1  0
 12 14  1  0
 13 15  2  0
 14 16  2  0
 15 16  1  0
 16 17  1  0
 18 17  1  0
 18 19  1  0
 18 20  2  0
 18 21  2  0
M  END
