x0962_0_A-x0722_0_A
     RDKit          3D

 11 11  0  0  0  0  0  0  0  0999 V2000
   -2.8610   14.2110   -2.0740 N   0  0  0  0  0  0  0  0  0  0  0  0
   -3.9310   15.0720   -1.5180 C   0  0  1  0  0  0  0  0  0  0  0  0
   -5.4020   14.5580   -1.6790 C   0  0  0  0  0  0  0  0  0  0  0  0
   -3.9460   15.1130   -0.0710 C   0  0  0  0  0  0  0  0  0  0  0  0
   -6.3450   15.2150   -2.1100 O   0  0  0  0  0  0  0  0  0  0  0  0
   -5.6210   13.2770   -1.2240 N   0  0  0  0  0  0  0  0  0  0  0  0
   -2.9940   15.0120    0.9230 N   0  0  0  0  0  0  0  0  0  0  0  0
   -5.1360   15.2750    0.5740 C   0  0  0  0  0  0  0  0  0  0  0  0
   -1.5450   14.8190    0.8630 C   0  0  0  0  0  0  0  0  0  0  0  0
   -3.7030   15.1260    2.0840 C   0  0  0  0  0  0  0  0  0  0  0  0
   -4.9900   15.2820    1.9010 N   0  0  0  0  0  0  0  0  0  0  0  0
  2  1  1  1
  2  3  1  0
  2  4  1  0
  3  5  2  0
  3  6  1  0
  4  7  1  0
  4  8  2  0
  7  9  1  0
  7 10  1  0
  8 11  1  0
 10 11  2  0
M  END
