x0967_0_A_α-x0969_0_A_α
     RDKit          3D

 10 11  0  0  0  0  0  0  0  0999 V2000
   -7.1050   14.6510   -0.7660 N   0  0  0  0  0  0  0  0  0  0  0  0
   -7.8750   14.5560    0.3410 C   0  0  0  0  0  0  0  0  0  0  0  0
   -7.3790   14.5810    1.6280 C   0  0  0  0  0  0  0  0  0  0  0  0
   -5.7800   14.7770   -0.6270 C   0  0  0  0  0  0  0  0  0  0  0  0
   -5.1910   14.8110    0.6510 C   0  0  0  0  0  0  0  0  0  0  0  0
   -5.0290   14.8670   -1.7270 N   0  0  0  0  0  0  0  0  0  0  0  0
   -6.0080   14.7150    1.7770 C   0  0  0  0  0  0  0  0  0  0  0  0
   -3.6940   14.9870   -1.5920 C   0  0  0  0  0  0  0  0  0  0  0  0
   -3.8050   14.9380    0.7680 C   0  0  0  0  0  0  0  0  0  0  0  0
   -3.0390   15.0250   -0.3780 C   0  0  0  0  0  0  0  0  0  0  0  0
  1  2  2  0
  2  3  1  0
  1  4  1  0
  4  5  2  0
  4  6  1  0
  3  7  2  0
  5  7  1  0
  6  8  2  0
  5  9  1  0
  8 10  1  0
  9 10  2  0
M  END
