x0967_0_A-x0592_0_A
     RDKit          3D

 15 16  0  0  0  0  0  0  0  0999 V2000
   -3.6050   15.1920    2.3770 N   0  0  0  0  0  0  0  0  0  0  0  0
   -3.9790   14.3400    1.4550 C   0  0  0  0  0  0  0  0  0  0  0  0
   -3.1870   13.5280    0.9910 O   0  0  0  0  0  0  0  0  0  0  0  0
   -5.3050   14.4570    0.8690 C   0  0  0  0  0  0  0  0  0  0  0  0
   -4.9770   14.7500   -0.3820 C   0  0  0  0  0  0  0  0  0  0  0  0
   -6.6530   14.3200    1.3170 C   0  0  0  0  0  0  0  0  0  0  0  0
   -5.9480   14.9190   -1.3150 C   0  0  0  0  0  0  0  0  0  0  0  0
   -7.5710   14.5250    0.2970 C   0  0  0  0  0  0  0  0  0  0  0  0
   -3.6120   14.8700   -0.7030 C   0  0  0  0  0  0  0  0  0  0  0  0
   -7.1450   13.9880    2.6860 C   0  0  0  0  0  0  0  0  0  0  0  0
   -7.2390   14.8130   -0.9890 N   0  0  0  0  0  0  0  0  0  0  0  0
   -5.5910   15.1850   -2.5570 N   0  0  0  0  0  0  0  0  0  0  0  0
   -3.2480   15.1460   -1.9730 C   0  0  0  0  0  0  0  0  0  0  0  0
   -7.0960   15.1010    3.5630 O   0  0  0  0  0  0  0  0  0  0  0  0
   -4.2690   15.2920   -2.8640 C   0  0  0  0  0  0  0  0  0  0  0  0
  1  2  1  0
  2  3  2  0
  2  4  1  0
  4  5  2  0
  4  6  1  0
  5  7  1  0
  6  8  2  0
  5  9  1  0
  6 10  1  0
  7 11  2  0
  8 11  1  0
  7 12  1  0
  9 13  2  0
 10 14  1  0
 12 15  2  0
 13 15  1  0
M  END
