x0962_0_A-x0253_0_A
     RDKit          3D

 24 25  0  0  0  0  0  0  0  0999 V2000
   -2.8010   15.1960   -2.4200 N   0  0  0  0  0  0  0  0  0  0  0  0
   -3.0590   14.1230   -1.4740 C   0  0  1  0  0  0  0  0  0  0  0  0
   -1.7460   13.5150   -0.9830 C   0  0  0  0  0  0  0  0  0  0  0  0
   -3.8920   14.5990   -0.3510 C   0  0  0  0  0  0  0  0  0  0  0  0
   -0.6010   14.5200   -0.8940 C   0  0  0  0  0  0  0  0  0  0  0  0
   -3.3810   15.0070    0.8520 N   0  0  0  0  0  0  0  0  0  0  0  0
   -5.2520   14.7290   -0.2280 C   0  0  0  0  0  0  0  0  0  0  0  0
    0.7430   13.8320   -1.0130 C   0  0  0  0  0  0  0  0  0  0  0  0
   -4.4400   15.3570    1.6350 C   0  0  0  0  0  0  0  0  0  0  0  0
   -5.5800   15.1920    1.0050 N   0  0  0  0  0  0  0  0  0  0  0  0
    1.1120   13.6690   -2.4010 N   0  0  0  0  0  0  0  0  0  0  0  0
    0.8950   12.6000   -3.0640 C   0  0  0  0  0  0  0  0  0  0  0  0
    0.3190   11.4580   -2.6080 O   0  0  0  0  0  0  0  0  0  0  0  0
    1.3160   12.6250   -4.5080 C   0  0  0  0  0  0  0  0  0  0  0  0
    0.4470   11.8880   -5.4100 N   0  0  0  0  0  0  0  0  0  0  0  0
    1.0830   11.6260   -6.5920 C   0  0  0  0  0  0  0  0  0  0  0  0
    2.1630   12.1280   -6.7820 O   0  0  0  0  0  0  0  0  0  0  0  0
    0.4470   10.7070   -7.5770 C   0  0  0  0  0  0  0  0  0  0  0  0
   -0.5280    9.7940   -7.1750 C   0  0  0  0  0  0  0  0  0  0  0  0
    0.8330   10.7540   -8.9230 C   0  0  0  0  0  0  0  0  0  0  0  0
   -1.1220    8.9330   -8.1080 C   0  0  0  0  0  0  0  0  0  0  0  0
    0.2500    9.9020   -9.8550 C   0  0  0  0  0  0  0  0  0  0  0  0
   -2.1690    7.9600   -7.6660 C   0  0  0  0  0  0  0  0  0  0  0  0
   -0.7230    8.9970   -9.4500 C   0  0  0  0  0  0  0  0  0  0  0  0
  2  1  1  6
  2  3  1  0
  2  4  1  0
  3  5  1  0
  4  6  1  0
  4  7  2  0
  5  8  1  0
  6  9  1  0
  7 10  1  0
  9 10  2  0
  8 11  1  0
 11 12  2  3
 12 13  1  0
 12 14  1  0
 14 15  1  0
 15 16  1  0
 16 17  2  0
 16 18  1  0
 18 19  2  0
 18 20  1  0
 19 21  1  0
 20 22  2  0
 21 23  1  0
 21 24  2  0
 22 24  1  0
M  END
