x0969_0_A_α-x0689_0_A_α
     RDKit          3D

 17 19  0  0  0  0  0  0  0  0999 V2000
   -6.4920   14.7670    2.5650 N   0  0  0  0  0  0  0  0  0  0  0  0
   -6.6700   14.7770    1.2230 C   0  0  0  0  0  0  0  0  0  0  0  0
   -7.8200   14.6450    0.6040 N   0  0  0  0  0  0  0  0  0  0  0  0
   -5.6600   14.9560    0.2820 N   0  0  0  0  0  0  0  0  0  0  0  0
   -7.6060   14.7470   -0.7440 N   0  0  0  0  0  0  0  0  0  0  0  0
   -6.3320   14.9390   -0.9370 C   0  0  0  0  0  0  0  0  0  0  0  0
   -4.2630   15.1350    0.3430 C   0  0  0  0  0  0  0  0  0  0  0  0
   -5.5990   15.1300   -2.1330 C   0  0  0  0  0  0  0  0  0  0  0  0
   -3.6250   15.3130   -0.8220 C   0  0  0  0  0  0  0  0  0  0  0  0
   -3.5130   15.0850    1.4480 N   0  0  0  0  0  0  0  0  0  0  0  0
   -4.2920   15.3220   -2.0740 C   0  0  0  0  0  0  0  0  0  0  0  0
   -2.2470   14.7440    1.0760 C   0  0  0  0  0  0  0  0  0  0  0  0
   -2.0090   14.7550   -0.2430 N   0  0  0  0  0  0  0  0  0  0  0  0
   -1.3590   14.4300    1.9790 N   0  0  0  0  0  0  0  0  0  0  0  0
   -0.8050   14.4390   -0.6810 C   0  0  0  0  0  0  0  0  0  0  0  0
   -0.1550   14.1140    1.5050 C   0  0  0  0  0  0  0  0  0  0  0  0
    0.1850   14.1030    0.1630 C   0  0  0  0  0  0  0  0  0  0  0  0
  1  2  1  0
  2  3  2  0
  2  4  1  0
  3  5  1  0
  4  6  1  0
  5  6  2  0
  4  7  1  0
  6  8  1  0
  7  9  2  0
  7 10  1  0
  8 11  2  0
  9 11  1  0
 10 12  1  0
 12 13  2  0
 12 14  1  0
 13 15  1  0
 14 16  2  0
 15 17  2  0
 16 17  1  0
M  END
