x0967_0_A-x0950_1_A
     RDKit          3D

 19 20  0  0  0  0  0  0  0  0999 V2000
    1.0270   13.9990   -4.8440 C   0  0  0  0  0  0  0  0  0  0  0  0
    1.3170   12.5720   -4.4210 C   0  0  2  0  0  0  0  0  0  0  0  0
    0.5570   11.7010   -5.2680 O   0  0  0  0  0  0  0  0  0  0  0  0
    1.0140   12.3090   -2.9400 C   0  0  0  0  0  0  0  0  0  0  0  0
    0.4270   11.3030   -2.5500 O   0  0  0  0  0  0  0  0  0  0  0  0
    1.5080   13.3140   -2.1540 O   0  0  0  0  0  0  0  0  0  0  0  0
    0.7090   13.9110   -1.0980 C   0  0  0  0  0  0  0  0  0  0  0  0
   -0.5360   14.6890   -1.5570 C   0  0  0  0  0  0  0  0  0  0  0  0
   -1.3470   15.3040   -0.3910 C   0  0  0  0  0  0  0  0  0  0  0  0
   -2.8530   15.1300   -0.4430 C   0  0  0  0  0  0  0  0  0  0  0  0
   -3.5450   15.0680   -1.6450 C   0  0  0  0  0  0  0  0  0  0  0  0
   -3.6250   15.0220    0.7160 C   0  0  0  0  0  0  0  0  0  0  0  0
   -5.0210   14.8570    0.6160 C   0  0  0  0  0  0  0  0  0  0  0  0
   -4.8880   14.9100   -1.7570 N   0  0  0  0  0  0  0  0  0  0  0  0
   -5.6240   14.8030   -0.6530 C   0  0  0  0  0  0  0  0  0  0  0  0
   -5.8300   14.7420    1.7490 C   0  0  0  0  0  0  0  0  0  0  0  0
   -6.9480   14.6440   -0.7780 N   0  0  0  0  0  0  0  0  0  0  0  0
   -7.2000   14.5740    1.6140 C   0  0  0  0  0  0  0  0  0  0  0  0
   -7.7080   14.5320    0.3320 C   0  0  0  0  0  0  0  0  0  0  0  0
  2  1  1  6
  2  3  1  0
  2  4  1  0
  4  5  2  0
  4  6  1  0
  6  7  1  0
  7  8  1  0
  8  9  1  0
  9 10  1  0
 10 11  2  0
 10 12  1  0
 12 13  2  0
 11 14  1  0
 13 15  1  0
 14 15  2  0
 13 16  1  0
 15 17  1  0
 16 18  2  0
 17 19  2  0
 18 19  1  0
M  END
