x0969_0_A_α-x0742_0_A_α
     RDKit          3D

 21 24  0  0  0  0  0  0  0  0999 V2000
   -6.6450   15.0950    2.5320 N   0  0  0  0  0  0  0  0  0  0  0  0
   -6.2890   14.6000    1.2400 C   0  0  1  0  0  0  0  0  0  0  0  0
   -7.5180   14.7610    0.4180 N   0  0  0  0  0  0  0  0  0  0  0  0
   -5.3710   15.3620    0.4270 N   0  0  0  0  0  0  0  0  0  0  0  0
   -7.0260   15.1080   -0.9610 N   0  0  0  0  0  0  0  0  0  0  0  0
   -5.6500   14.7090   -0.7800 C   0  0  1  0  0  0  0  0  0  0  0  0
   -3.9800   15.7910    0.7180 C   0  0  0  0  0  0  0  0  0  0  0  0
   -4.5640   14.8050   -1.8050 C   0  0  0  0  0  0  0  0  0  0  0  0
   -2.7950   15.0680   -0.0610 C   0  0  1  0  0  0  0  0  0  0  0  0
   -3.4630   14.0610   -1.0320 C   0  0  1  0  0  0  0  0  0  0  0  0
   -1.6160   15.7940   -0.7890 C   0  0  0  0  0  0  0  0  0  0  0  0
   -2.1740   14.4710    1.1760 C   0  0  2  0  0  0  0  0  0  0  0  0
   -0.9630   13.7110    1.0100 N   0  0  0  0  0  0  0  0  0  0  0  0
   -0.3180   15.0150   -0.8200 C   0  0  0  0  0  0  0  0  0  0  0  0
   -3.2380   13.7450    1.8000 C   0  0  0  0  0  0  0  0  0  0  0  0
   -4.1120   12.9480   -0.2480 N   0  0  0  0  0  0  0  0  0  0  0  0
   -5.0220   12.0860   -0.8930 C   0  0  0  0  0  0  0  0  0  0  0  0
   -0.0720   14.0470    0.0570 C   0  0  0  0  0  0  0  0  0  0  0  0
   -4.1280   13.0530    1.1240 C   0  0  0  0  0  0  0  0  0  0  0  0
   -4.8280   11.6180   -2.0130 O   0  0  0  0  0  0  0  0  0  0  0  0
   -6.2910   11.7190   -0.1460 C   0  0  0  0  0  0  0  0  0  0  0  0
  2  1  1  1
  2  3  1  0
  2  4  1  0
  3  5  1  0
  4  6  1  0
  5  6  1  0
  4  7  1  0
  6  8  1  6
  9  7  1  1
 10  8  1  1
  9 10  1  0
  9 11  1  0
  9 12  1  0
 12 13  1  0
 11 14  1  0
 12 15  1  6
 10 16  1  0
 16 17  1  0
 13 18  1  0
 14 18  2  0
 15 19  2  0
 16 19  1  0
 17 20  2  0
 17 21  1  0
M  END
