x0969_0_A-x0855_0_A
     RDKit          3D

 23 25  0  0  0  0  0  0  0  0999 V2000
   -6.7000   14.8900    2.4860 N   0  0  0  0  0  0  0  0  0  0  0  0
   -6.5000   14.7970    1.1530 C   0  0  0  0  0  0  0  0  0  0  0  0
   -7.4210   14.6790    0.2230 N   0  0  0  0  0  0  0  0  0  0  0  0
   -5.2460   14.8210    0.5590 N   0  0  0  0  0  0  0  0  0  0  0  0
   -6.7960   14.6160   -1.0010 N   0  0  0  0  0  0  0  0  0  0  0  0
   -5.4970   14.6930   -0.7940 C   0  0  0  0  0  0  0  0  0  0  0  0
   -3.9630   14.9370    1.0960 C   0  0  0  0  0  0  0  0  0  0  0  0
   -4.3750   14.6470   -1.6660 C   0  0  0  0  0  0  0  0  0  0  0  0
   -2.9030   14.8820    0.2780 C   0  0  0  0  0  0  0  0  0  0  0  0
   -3.1170   14.7070   -1.1630 C   0  0  0  0  0  0  0  0  0  0  0  0
   -1.8850   14.5770   -2.0310 C   0  0  0  0  0  0  0  0  0  0  0  0
   -0.9960   13.3670   -1.6770 C   0  0  0  0  0  0  0  0  0  0  0  0
    0.4860   13.7190   -1.4480 C   0  0  0  0  0  0  0  0  0  0  0  0
    1.3810   13.0830   -2.3860 O   0  0  0  0  0  0  0  0  0  0  0  0
    0.8780   12.0870   -3.1550 C   0  0  0  0  0  0  0  0  0  0  0  0
    0.6480   10.9560   -2.7360 O   0  0  0  0  0  0  0  0  0  0  0  0
    0.6100   12.4970   -4.5800 C   0  0  0  0  0  0  0  0  0  0  0  0
   -0.4440   11.6750   -5.1340 N   0  0  0  0  0  0  0  0  0  0  0  0
   -0.3260   10.7360   -6.1180 C   0  0  0  0  0  0  0  0  0  0  0  0
   -1.7120   11.7980   -4.6600 N   0  0  0  0  0  0  0  0  0  0  0  0
   -1.5790   10.2160   -6.2760 C   0  0  0  0  0  0  0  0  0  0  0  0
   -2.3970   10.8960   -5.3680 C   0  0  0  0  0  0  0  0  0  0  0  0
   -2.1260    8.8760   -7.4460 Br  0  0  0  0  0  0  0  0  0  0  0  0
  1  2  1  0
  2  3  2  0
  2  4  1  0
  3  5  1  0
  4  6  1  0
  5  6  2  0
  4  7  1  0
  6  8  1  0
  7  9  2  0
  8 10  2  0
  9 10  1  0
 10 11  1  0
 11 12  1  0
 12 13  1  0
 13 14  1  0
 14 15  1  0
 15 16  2  0
 15 17  1  0
 17 18  1  0
 18 19  1  0
 18 20  1  0
 19 21  2  0
 20 22  2  0
 21 22  1  0
 21 23  1  0
M  END
