x0967_0_A-x0849_0_A
     RDKit          3D

 16 18  0  0  0  0  0  0  0  0999 V2000
   -2.6830   14.7100   -3.2340 Br  0  0  0  0  0  0  0  0  0  0  0  0
   -3.5120   15.3470   -1.5960 C   0  0  1  0  0  0  0  0  0  0  0  0
   -4.9050   14.9680   -1.6110 N   0  0  0  0  0  0  0  0  0  0  0  0
   -2.7270   15.1300   -0.2650 C   0  0  2  0  0  0  0  0  0  0  0  0
   -5.5970   14.8460   -0.4310 C   0  0  0  0  0  0  0  0  0  0  0  0
   -3.5940   15.7110    0.8740 C   0  0  0  0  0  0  0  0  0  0  0  0
   -1.2500   15.7010   -0.4820 C   0  0  0  0  0  0  0  0  0  0  0  0
   -2.4900   13.7300    0.2640 C   0  0  0  0  0  0  0  0  0  0  0  0
   -6.8590   14.3860   -0.5540 N   0  0  0  0  0  0  0  0  0  0  0  0
   -5.0150   15.1770    0.7910 C   0  0  0  0  0  0  0  0  0  0  0  0
   -1.7010   13.9170    1.4820 N   0  0  0  0  0  0  0  0  0  0  0  0
   -0.1330   15.1390    0.3750 C   0  0  0  0  0  0  0  0  0  0  0  0
   -5.7900   15.0000    1.9400 C   0  0  0  0  0  0  0  0  0  0  0  0
   -7.5800   14.2360    0.5740 C   0  0  0  0  0  0  0  0  0  0  0  0
   -0.4190   14.2770    1.3270 C   0  0  0  0  0  0  0  0  0  0  0  0
   -7.0950   14.5220    1.8320 C   0  0  0  0  0  0  0  0  0  0  0  0
  2  1  1  6
  2  3  1  0
  2  4  1  0
  3  5  1  0
  4  6  1  1
  4  7  1  0
  4  8  1  0
  5  9  1  0
  5 10  2  0
  6 10  1  0
  8 11  1  0
  7 12  1  0
 10 13  1  0
  9 14  2  0
 11 15  1  0
 12 15  2  0
 13 16  2  0
 14 16  1  0
M  END
