x0962_1_A_α-x0910_2_B_α
     RDKit          3D

 19 20  0  0  0  0  0  0  0  0999 V2000
   -3.3580   15.0630   -1.6080 N   0  0  0  0  0  0  0  0  0  0  0  0
   -4.3060   14.9710   -0.9450 C   0  0  0  0  0  0  0  0  0  0  0  0
   -5.5010   14.8790   -0.1700 C   0  0  0  0  0  0  0  0  0  0  0  0
   -5.4840   14.5930    1.1700 N   0  0  0  0  0  0  0  0  0  0  0  0
   -6.7860   15.0570   -0.6180 C   0  0  0  0  0  0  0  0  0  0  0  0
   -6.7500   14.5950    1.5440 C   0  0  0  0  0  0  0  0  0  0  0  0
   -7.5820   14.8790    0.4840 N   0  0  0  0  0  0  0  0  0  0  0  0
   -9.0290   14.9900    0.4910 C   0  0  0  0  0  0  0  0  0  0  0  0
   -9.6340   15.7710   -0.6920 C   0  0  0  0  0  0  0  0  0  0  0  0
  -10.3600   17.1000   -0.3830 C   0  0  0  0  0  0  0  0  0  0  0  0
  -10.5020   18.0020   -1.6150 C   0  0  0  0  0  0  0  0  0  0  0  0
  -11.5440   19.1360   -1.4710 C   0  0  0  0  0  0  0  0  0  0  0  0
  -11.7100   19.9160   -2.7910 C   0  0  0  0  0  0  0  0  0  0  0  0
  -12.7610   20.9210   -2.8420 N   0  0  0  0  0  0  0  0  0  0  0  0
  -12.7130   22.0570   -2.1140 C   0  0  0  0  0  0  0  0  0  0  0  0
  -11.8740   23.1240   -2.3810 N   0  0  0  0  0  0  0  0  0  0  0  0
  -13.4340   22.3490   -1.0580 N   0  0  0  0  0  0  0  0  0  0  0  0
  -12.0580   24.1010   -1.4910 N   0  0  0  0  0  0  0  0  0  0  0  0
  -13.0100   23.5890   -0.7100 C   0  0  0  0  0  0  0  0  0  0  0  0
  1  2  3  0
  2  3  1  0
  3  4  1  0
  3  5  2  0
  4  6  2  0
  5  7  1  0
  6  7  1  0
  7  8  1  0
  8  9  1  0
  9 10  1  0
 10 11  1  0
 11 12  1  0
 12 13  1  0
 13 14  1  0
 14 15  1  0
 15 16  1  0
 15 17  2  0
 16 18  1  0
 17 19  1  0
 18 19  2  0
M  END
