x0962_2_B-x0681_0_A
     RDKit          3D

 20 22  0  0  0  0  0  0  0  0999 V2000
  -10.7840   16.5620    1.0040 N   0  0  0  0  0  0  0  0  0  0  0  0
  -10.0440   16.2460    1.8340 C   0  0  0  0  0  0  0  0  0  0  0  0
   -9.1510   15.8480    2.8540 C   0  0  0  0  0  0  0  0  0  0  0  0
   -9.2580   16.1930    4.1740 N   0  0  0  0  0  0  0  0  0  0  0  0
   -8.0240   15.0650    2.7620 C   0  0  0  0  0  0  0  0  0  0  0  0
   -7.4190   14.4250    1.5510 C   0  0  0  0  0  0  0  0  0  0  0  0
   -8.2180   15.6120    4.8300 C   0  0  0  0  0  0  0  0  0  0  0  0
   -7.4720   14.9300    4.0060 N   0  0  0  0  0  0  0  0  0  0  0  0
   -5.9410   13.9280    1.5860 C   0  0  1  0  0  0  0  0  0  0  0  0
   -5.6650   13.1170    0.4340 N   0  0  0  0  0  0  0  0  0  0  0  0
   -4.8090   14.9730    1.8270 C   0  0  0  0  0  0  0  0  0  0  0  0
   -4.6540   13.3210   -0.4640 C   0  0  0  0  0  0  0  0  0  0  0  0
   -4.2390   15.5630    0.5360 C   0  0  0  0  0  0  0  0  0  0  0  0
   -6.3660   12.0220    0.0500 C   0  0  0  0  0  0  0  0  0  0  0  0
   -3.6790   14.4480   -0.3570 C   0  0  2  0  0  0  0  0  0  0  0  0
   -4.6870   12.3990   -1.4060 N   0  0  0  0  0  0  0  0  0  0  0  0
   -5.7500   11.5910   -1.0900 C   0  0  0  0  0  0  0  0  0  0  0  0
   -3.3860   14.9070   -1.7830 C   0  0  0  0  0  0  0  0  0  0  0  0
   -4.4400   15.5060   -2.4060 N   0  0  0  0  0  0  0  0  0  0  0  0
   -2.3150   14.7660   -2.3680 O   0  0  0  0  0  0  0  0  0  0  0  0
  1  2  3  0
  2  3  1  0
  3  4  1  0
  3  5  2  0
  5  6  1  0
  4  7  1  0
  5  8  1  0
  7  8  2  0
  9  6  1  6
  9 10  1  0
  9 11  1  0
 10 12  1  0
 11 13  1  0
 10 14  1  0
 12 15  1  0
 13 15  1  0
 12 16  2  0
 14 17  2  0
 16 17  1  0
 15 18  1  6
 18 19  1  0
 18 20  2  0
M  END
