x0969_0_A_α-x0104_0_A_α
     RDKit          3D

 17 19  0  0  0  0  0  0  0  0999 V2000
   -7.9370   15.0450    2.4940 C   0  0  0  0  0  0  0  0  0  0  0  0
   -7.6820   14.7750    3.8470 N   0  0  0  0  0  0  0  0  0  0  0  0
   -8.7090   14.8670    4.8280 C   0  0  0  0  0  0  0  0  0  0  0  0
   -9.0290   15.5350    2.2200 O   0  0  0  0  0  0  0  0  0  0  0  0
   -7.0610   14.8190    1.2930 C   0  0  0  0  0  0  0  0  0  0  0  0
   -7.7320   14.4000    0.2340 N   0  0  0  0  0  0  0  0  0  0  0  0
   -5.6920   14.9510    0.8880 N   0  0  0  0  0  0  0  0  0  0  0  0
   -6.9140   14.2640   -0.8400 N   0  0  0  0  0  0  0  0  0  0  0  0
   -5.7110   14.5920   -0.4740 C   0  0  0  0  0  0  0  0  0  0  0  0
   -4.4810   15.3430    1.4910 C   0  0  0  0  0  0  0  0  0  0  0  0
   -8.5880   15.0220    6.2080 C   0  0  0  0  0  0  0  0  0  0  0  0
  -10.3640   14.7950    4.3950 S   0  0  0  0  0  0  0  0  0  0  0  0
   -4.5090   14.6370   -1.2330 C   0  0  0  0  0  0  0  0  0  0  0  0
   -3.3420   15.3800    0.7560 C   0  0  0  0  0  0  0  0  0  0  0  0
   -9.8620   15.0790    6.8810 C   0  0  0  0  0  0  0  0  0  0  0  0
  -10.9160   14.9660    6.0040 C   0  0  0  0  0  0  0  0  0  0  0  0
   -3.3710   15.0170   -0.6470 C   0  0  0  0  0  0  0  0  0  0  0  0
  1  2  1  0
  2  3  1  0
  1  4  2  0
  1  5  1  0
  5  6  2  0
  5  7  1  0
  6  8  1  0
  7  9  1  0
  8  9  2  0
  7 10  1  0
  3 11  2  0
  3 12  1  0
  9 13  1  0
 10 14  2  0
 11 15  1  0
 12 16  1  0
 15 16  2  0
 13 17  2  0
 14 17  1  0
M  END
