x0969_0_A-x0711_0_A
     RDKit          3D

 17 19  0  0  0  0  0  0  0  0999 V2000
   -6.6840   14.3220    1.4830 N   0  0  0  0  0  0  0  0  0  0  0  0
   -5.5000   13.6080    1.4340 C   0  0  0  0  0  0  0  0  0  0  0  0
   -5.2700   12.6380    2.0310 O   0  0  0  0  0  0  0  0  0  0  0  0
   -6.7840   14.8390    0.2470 C   0  0  0  0  0  0  0  0  0  0  0  0
   -7.6090   15.3760   -0.5850 N   0  0  0  0  0  0  0  0  0  0  0  0
   -5.5670   14.7820   -0.3280 N   0  0  0  0  0  0  0  0  0  0  0  0
   -4.6180   14.1920    0.3840 C   0  0  0  0  0  0  0  0  0  0  0  0
   -6.8120   15.7090   -1.7330 N   0  0  0  0  0  0  0  0  0  0  0  0
   -5.5550   15.3490   -1.5100 C   0  0  0  0  0  0  0  0  0  0  0  0
   -3.3370   14.2770   -0.0490 C   0  0  0  0  0  0  0  0  0  0  0  0
   -4.2440   15.3940   -2.1000 C   0  0  0  0  0  0  0  0  0  0  0  0
   -3.1700   14.9190   -1.3830 C   0  0  0  0  0  0  0  0  0  0  0  0
   -1.8670   15.0820   -2.0080 N   0  0  0  0  0  0  0  0  0  0  0  0
   -0.9240   13.8910   -2.8190 S   0  0  0  0  0  0  0  0  0  0  0  0
   -2.1350   12.9510   -3.7090 C   0  0  0  0  0  0  0  0  0  0  0  0
   -0.0830   14.5530   -3.7970 O   0  0  0  0  0  0  0  0  0  0  0  0
   -0.3400   13.0690   -1.7830 O   0  0  0  0  0  0  0  0  0  0  0  0
  1  2  1  0
  2  3  2  0
  1  4  1  0
  4  5  2  0
  4  6  1  0
  2  7  1  0
  6  7  1  0
  5  8  1  0
  6  9  1  0
  8  9  2  0
  7 10  2  0
  9 11  1  0
 10 12  1  0
 11 12  2  0
 12 13  1  0
 14 13  1  0
 14 15  1  0
 14 16  2  0
 14 17  2  0
M  END
