x0962_2_B_α-x0969_0_A_α
     RDKit          3D

 17 19  0  0  0  0  0  0  0  0999 V2000
  -11.7580   16.3830    1.5120 N   0  0  0  0  0  0  0  0  0  0  0  0
  -10.8400   16.1450    2.1680 C   0  0  0  0  0  0  0  0  0  0  0  0
   -9.6420   15.8010    2.8120 C   0  0  0  0  0  0  0  0  0  0  0  0
   -9.2200   16.0810    4.1060 N   0  0  0  0  0  0  0  0  0  0  0  0
   -8.7470   15.1210    2.1310 C   0  0  0  0  0  0  0  0  0  0  0  0
   -8.0070   15.5290    4.1530 C   0  0  0  0  0  0  0  0  0  0  0  0
   -7.7250   14.9530    2.9330 N   0  0  0  0  0  0  0  0  0  0  0  0
   -6.6690   14.3070    2.4380 N   0  0  0  0  0  0  0  0  0  0  0  0
   -6.4070   14.5100    1.1190 C   0  0  0  0  0  0  0  0  0  0  0  0
   -7.3510   14.5170    0.1990 N   0  0  0  0  0  0  0  0  0  0  0  0
   -5.1840   14.7380    0.5020 N   0  0  0  0  0  0  0  0  0  0  0  0
   -6.7930   14.7440   -1.0260 N   0  0  0  0  0  0  0  0  0  0  0  0
   -5.5040   14.8710   -0.8470 C   0  0  0  0  0  0  0  0  0  0  0  0
   -3.8790   14.8320    0.9790 C   0  0  0  0  0  0  0  0  0  0  0  0
   -4.4490   15.1000   -1.7610 C   0  0  0  0  0  0  0  0  0  0  0  0
   -2.8830   15.0370    0.1110 C   0  0  0  0  0  0  0  0  0  0  0  0
   -3.1920   15.1680   -1.3030 C   0  0  0  0  0  0  0  0  0  0  0  0
  1  2  3  0
  2  3  1  0
  3  4  1  0
  3  5  2  0
  4  6  2  0
  5  7  1  0
  6  7  1  0
  7  8  1  0
  8  9  1  0
  9 10  2  0
  9 11  1  0
 10 12  1  0
 11 13  1  0
 12 13  2  0
 11 14  1  0
 13 15  1  0
 14 16  2  0
 15 17  2  0
 16 17  1  0
M  END
