x0962_2_B_α-x0933_0_A_α
     RDKit          3D

 14 15  0  0  0  0  0  0  0  0999 V2000
  -10.4090   16.2290    0.7480 N   0  0  0  0  0  0  0  0  0  0  0  0
   -9.6680   15.9190    1.5860 C   0  0  0  0  0  0  0  0  0  0  0  0
   -8.8210   15.5970    2.6680 C   0  0  0  0  0  0  0  0  0  0  0  0
   -9.0840   16.0340    3.9440 N   0  0  0  0  0  0  0  0  0  0  0  0
   -7.6370   14.8570    2.7730 C   0  0  0  0  0  0  0  0  0  0  0  0
   -6.8930   14.1850    1.8190 N   0  0  0  0  0  0  0  0  0  0  0  0
   -8.1030   15.5640    4.7510 C   0  0  0  0  0  0  0  0  0  0  0  0
   -7.2390   14.8580    4.0780 N   0  0  0  0  0  0  0  0  0  0  0  0
   -5.7190   14.6770    1.0690 C   0  0  0  0  0  0  0  0  0  0  0  0
   -5.7850   14.7140   -0.3950 N   0  0  0  0  0  0  0  0  0  0  0  0
   -4.4170   14.0680    1.3200 N   0  0  0  0  0  0  0  0  0  0  0  0
   -4.6640   15.3320   -1.1150 C   0  0  0  0  0  0  0  0  0  0  0  0
   -3.2880   14.8580    0.8310 C   0  0  0  0  0  0  0  0  0  0  0  0
   -3.2950   14.8380   -0.6790 C   0  0  0  0  0  0  0  0  0  0  0  0
  1  2  3  0
  2  3  1  0
  3  4  1  0
  3  5  2  0
  5  6  1  0
  4  7  1  0
  5  8  1  0
  7  8  2  0
  6  9  1  0
  9 10  1  0
  9 11  1  0
 10 12  1  0
 11 13  1  0
 12 14  1  0
 13 14  1  0
M  END
