x0962_3_A_α-x0159_0_B_β
     RDKit          3D

 18 20  0  0  0  0  0  0  0  0999 V2000
    1.8700   11.3200   -7.5820 N   0  0  0  0  0  0  0  0  0  0  0  0
    0.6830   11.0050   -8.3580 C   0  0  1  0  0  0  0  0  0  0  0  0
    0.9370   10.7350   -9.8630 C   0  0  0  0  0  0  0  0  0  0  0  0
   -0.0860    9.8870   -7.7910 C   0  0  0  0  0  0  0  0  0  0  0  0
    1.5220    9.4180  -10.1720 N   0  0  0  0  0  0  0  0  0  0  0  0
    0.1430    8.5740   -8.1140 N   0  0  0  0  0  0  0  0  0  0  0  0
   -1.1280    9.8540   -6.8990 C   0  0  0  0  0  0  0  0  0  0  0  0
   -0.7540    7.8230   -7.4220 C   0  0  0  0  0  0  0  0  0  0  0  0
   -1.5380    8.5730   -6.6800 N   0  0  0  0  0  0  0  0  0  0  0  0
    2.3110    9.4920  -11.2480 C   0  0  0  0  0  0  0  0  0  0  0  0
    2.1990   10.6300  -11.9800 N   0  0  0  0  0  0  0  0  0  0  0  0
    3.2080    8.6700  -11.7540 N   0  0  0  0  0  0  0  0  0  0  0  0
    3.0680   10.5720  -13.0120 C   0  0  0  0  0  0  0  0  0  0  0  0
    3.6960    9.3400  -12.8600 C   0  0  0  0  0  0  0  0  0  0  0  0
    3.3430   11.4770  -14.0270 C   0  0  0  0  0  0  0  0  0  0  0  0
    4.6790    8.9760  -13.7870 C   0  0  0  0  0  0  0  0  0  0  0  0
    4.3240   11.1010  -14.9380 C   0  0  0  0  0  0  0  0  0  0  0  0
    4.9820    9.8720  -14.8240 C   0  0  0  0  0  0  0  0  0  0  0  0
  2  1  1  1
  2  3  1  0
  2  4  1  0
  3  5  1  0
  4  6  1  0
  4  7  2  0
  6  8  1  0
  7  9  1  0
  8  9  2  0
  5 10  1  0
 10 11  1  0
 10 12  2  0
 11 13  1  0
 12 14  1  0
 13 14  2  0
 13 15  1  0
 14 16  1  0
 15 17  2  0
 16 18  2  0
 17 18  1  0
M  END
