x0967_0_A-x0724_0_A
     RDKit          3D

 13 14  0  0  0  0  0  0  0  0999 V2000
   -8.3980   13.6730    3.9110 N   0  0  0  0  0  0  0  0  0  0  0  0
   -8.4110   13.9430    5.3490 C   0  0  0  0  0  0  0  0  0  0  0  0
   -8.2660   14.8870    3.0880 C   0  0  0  0  0  0  0  0  0  0  0  0
   -7.4230   14.7800    1.8230 C   0  0  0  0  0  0  0  0  0  0  0  0
   -6.0470   14.9930    1.8520 C   0  0  0  0  0  0  0  0  0  0  0  0
   -7.9500   14.4880    0.5710 C   0  0  0  0  0  0  0  0  0  0  0  0
   -7.2150   14.4120   -0.5740 N   0  0  0  0  0  0  0  0  0  0  0  0
   -5.2650   14.9170    0.6940 C   0  0  0  0  0  0  0  0  0  0  0  0
   -5.8920   14.6240   -0.5260 C   0  0  0  0  0  0  0  0  0  0  0  0
   -3.8770   15.1310    0.7240 C   0  0  0  0  0  0  0  0  0  0  0  0
   -5.1840   14.5550   -1.6570 N   0  0  0  0  0  0  0  0  0  0  0  0
   -3.1590   15.0510   -0.4530 C   0  0  0  0  0  0  0  0  0  0  0  0
   -3.8500   14.7670   -1.6080 C   0  0  0  0  0  0  0  0  0  0  0  0
  1  2  1  0
  1  3  1  0
  3  4  1  0
  4  5  2  0
  4  6  1  0
  6  7  2  0
  5  8  1  0
  7  9  1  0
  8  9  2  0
  8 10  1  0
  9 11  1  0
 10 12  2  0
 11 13  2  0
 12 13  1  0
M  END
