x0962_0_A-x0895_0_A
     RDKit          3D

  8  8  0  0  0  0  0  0  0  0999 V2000
   -2.0440   14.5160   -2.3160 N   0  0  0  0  0  0  0  0  0  0  0  0
   -2.7090   14.5980   -1.3720 C   0  0  0  0  0  0  0  0  0  0  0  0
   -3.5490   14.8000   -0.2740 C   0  0  0  0  0  0  0  0  0  0  0  0
   -3.1980   14.5200    1.1290 N   0  0  1  0  0  0  0  0  0  0  0  0
   -4.7950   15.2620   -0.3280 C   0  0  0  0  0  0  0  0  0  0  0  0
   -2.0490   15.0880    1.5880 O   0  0  0  0  0  0  0  0  0  0  0  0
   -4.4350   15.0560    1.7470 C   0  0  0  0  0  0  0  0  0  0  0  0
   -5.3520   15.3960    0.9010 N   0  0  0  0  0  0  0  0  0  0  0  0
  1  2  3  0
  2  3  1  0
  3  4  1  0
  3  5  2  0
  4  6  1  1
  4  7  1  0
  5  8  1  0
  7  8  2  0
M  CHG  2   4   1   6  -1
M  END
