x0962_2_B_α-5CMS_0_I_δ
     RDKit          3D

 19 21  0  0  0  0  0  0  0  0999 V2000
  -11.4920   16.3610    1.4970 N   0  0  0  0  0  0  0  0  0  0  0  0
  -10.5380   16.0320    2.0600 C   0  0  0  0  0  0  0  0  0  0  0  0
   -9.3140   15.6090    2.6180 C   0  0  0  0  0  0  0  0  0  0  0  0
   -8.8850   15.8400    3.9080 N   0  0  0  0  0  0  0  0  0  0  0  0
   -8.4040   14.9150    1.9020 C   0  0  0  0  0  0  0  0  0  0  0  0
   -7.6860   15.2770    3.9530 C   0  0  0  0  0  0  0  0  0  0  0  0
   -7.3760   14.7120    2.7270 N   0  0  0  0  0  0  0  0  0  0  0  0
   -6.1840   14.0140    2.2710 C   0  0  0  0  0  0  0  0  0  0  0  0
   -5.0690   15.0410    1.9630 C   0  0  0  0  0  0  0  0  0  0  0  0
   -3.7460   14.4510    1.9110 N   0  0  0  0  0  0  0  0  0  0  0  0
   -2.7550   15.0600    1.0510 C   0  0  2  0  0  0  0  0  0  0  0  0
   -2.7830   14.6200   -0.4170 C   0  0  2  0  0  0  0  0  0  0  0  0
   -1.4470   14.8550    1.6530 N   0  0  0  0  0  0  0  0  0  0  0  0
   -1.5760   15.2720   -1.0510 C   0  0  2  0  0  0  0  0  0  0  0  0
   -3.8340   15.0370   -1.3360 N   0  0  0  0  0  0  0  0  0  0  0  0
   -0.3190   15.3360    0.8790 C   0  0  0  0  0  0  0  0  0  0  0  0
   -1.7100   14.8430   -2.4130 N   0  0  0  0  0  0  0  0  0  0  0  0
   -3.1560   14.9510   -2.6370 C   0  0  0  0  0  0  0  0  0  0  0  0
   -0.3510   14.8430   -0.4680 N   0  0  0  0  0  0  0  0  0  0  0  0
  1  2  3  0
  2  3  1  0
  3  4  1  0
  3  5  2  0
  4  6  2  0
  5  7  1  0
  6  7  1  0
  7  8  1  0
  8  9  1  0
  9 10  1  0
 11 10  1  1
 11 12  1  0
 11 13  1  0
 12 14  1  0
 12 15  1  6
 13 16  1  0
 14 17  1  6
 15 18  1  0
 17 18  1  0
 14 19  1  0
 16 19  1  0
M  END
