x0962_0_A-x0950_1_A
     RDKit          3D

 16 16  0  0  0  0  0  0  0  0999 V2000
   -2.9460   15.1950   -2.5380 N   0  0  0  0  0  0  0  0  0  0  0  0
   -2.7750   14.3510   -1.3690 C   0  0  1  0  0  0  0  0  0  0  0  0
   -1.3250   14.3170   -0.8320 C   0  0  0  0  0  0  0  0  0  0  0  0
   -3.7630   14.6910   -0.3140 C   0  0  0  0  0  0  0  0  0  0  0  0
   -0.2020   14.3580   -1.8820 C   0  0  0  0  0  0  0  0  0  0  0  0
   -3.4160   15.2140    0.9040 N   0  0  0  0  0  0  0  0  0  0  0  0
   -5.1370   14.5800   -0.2640 C   0  0  0  0  0  0  0  0  0  0  0  0
    1.1730   13.9460   -1.3660 C   0  0  0  0  0  0  0  0  0  0  0  0
   -4.5590   15.3860    1.6230 C   0  0  0  0  0  0  0  0  0  0  0  0
   -5.6200   15.0050    0.9400 N   0  0  0  0  0  0  0  0  0  0  0  0
    1.7560   12.8570   -2.1180 O   0  0  0  0  0  0  0  0  0  0  0  0
    1.0080   12.1510   -3.0030 C   0  0  0  0  0  0  0  0  0  0  0  0
    1.3450   12.5440   -4.4540 C   0  0  2  0  0  0  0  0  0  0  0  0
    0.1840   11.2860   -2.7150 O   0  0  0  0  0  0  0  0  0  0  0  0
    1.0600   14.0030   -4.7650 C   0  0  0  0  0  0  0  0  0  0  0  0
    0.6190   11.7390   -5.3880 O   0  0  0  0  0  0  0  0  0  0  0  0
  2  1  1  6
  2  3  1  0
  2  4  1  0
  3  5  1  0
  4  6  1  0
  4  7  2  0
  5  8  1  0
  6  9  1  0
  7 10  1  0
  9 10  2  0
  8 11  1  0
 11 12  1  0
 12 13  1  0
 12 14  2  0
 13 15  1  1
 13 16  1  0
M  END
