x0962_0_A-x0128_0_A
     RDKit          3D

 17 18  0  0  0  0  0  0  0  0999 V2000
   -2.7870   14.9320   -2.2760 N   0  0  0  0  0  0  0  0  0  0  0  0
   -3.4380   14.9830   -1.3120 C   0  0  0  0  0  0  0  0  0  0  0  0
   -4.1900   15.0070   -0.0900 C   0  0  0  0  0  0  0  0  0  0  0  0
   -3.7250   15.6690    1.0150 N   0  0  0  0  0  0  0  0  0  0  0  0
   -5.4180   14.4100    0.1740 C   0  0  0  0  0  0  0  0  0  0  0  0
   -4.6450   15.4840    1.9430 C   0  0  0  0  0  0  0  0  0  0  0  0
   -5.6730   14.7260    1.4810 N   0  0  0  0  0  0  0  0  0  0  0  0
   -6.7850   14.3210    2.1980 N   0  0  0  0  0  0  0  0  0  0  0  0
   -7.6940   15.1480    2.8370 C   0  0  0  0  0  0  0  0  0  0  0  0
   -8.6470   15.6700    2.2570 O   0  0  0  0  0  0  0  0  0  0  0  0
   -7.5550   15.3840    4.1950 N   0  0  0  0  0  0  0  0  0  0  0  0
   -8.3670   16.0590    5.1540 C   0  0  0  0  0  0  0  0  0  0  0  0
   -9.0790   17.1990    4.7730 C   0  0  0  0  0  0  0  0  0  0  0  0
   -8.5150   15.6660    6.4880 C   0  0  0  0  0  0  0  0  0  0  0  0
   -9.8820   17.9300    5.5870 N   0  0  0  0  0  0  0  0  0  0  0  0
   -9.3370   16.4030    7.3510 C   0  0  0  0  0  0  0  0  0  0  0  0
   -9.9940   17.5170    6.8600 C   0  0  0  0  0  0  0  0  0  0  0  0
  1  2  3  0
  2  3  1  0
  3  4  1  0
  3  5  2  0
  4  6  2  0
  5  7  1  0
  6  7  1  0
  7  8  1  0
  8  9  1  0
  9 10  2  0
  9 11  1  0
 11 12  1  0
 12 13  2  0
 12 14  1  0
 13 15  1  0
 14 16  2  0
 15 17  2  0
 16 17  1  0
M  END
