x0962_2_B-x0895_0_A
     RDKit          3D

 16 17  0  0  0  0  0  0  0  0999 V2000
  -11.5250   16.3290    1.4640 N   0  0  0  0  0  0  0  0  0  0  0  0
  -10.5710   16.0190    2.0370 C   0  0  0  0  0  0  0  0  0  0  0  0
   -9.3410   15.6380    2.6200 C   0  0  0  0  0  0  0  0  0  0  0  0
   -8.9570   15.8810    3.9240 N   0  0  0  0  0  0  0  0  0  0  0  0
   -8.3900   14.9830    1.9270 C   0  0  0  0  0  0  0  0  0  0  0  0
   -7.7410   15.3660    3.9990 C   0  0  0  0  0  0  0  0  0  0  0  0
   -7.3770   14.8210    2.7830 N   0  0  0  0  0  0  0  0  0  0  0  0
   -6.1340   14.1860    2.4110 C   0  0  0  0  0  0  0  0  0  0  0  0
   -5.8240   14.2400    0.9040 C   0  0  0  0  0  0  0  0  0  0  0  0
   -4.7020   15.1100    0.5480 N   0  0  0  0  0  0  0  0  0  0  0  0
   -3.8110   15.6530    1.5330 C   0  0  0  0  0  0  0  0  0  0  0  0
   -3.9450   14.9550   -0.5940 C   0  0  0  0  0  0  0  0  0  0  0  0
   -4.3140   15.1270   -1.7400 O   0  0  0  0  0  0  0  0  0  0  0  0
   -2.5650   14.8680    1.1340 C   0  0  0  0  0  0  0  0  0  0  0  0
   -2.7070   14.5710   -0.1890 N   0  0  0  0  0  0  0  0  0  0  0  0
   -1.6110   14.5580    1.8350 O   0  0  0  0  0  0  0  0  0  0  0  0
  1  2  3  0
  2  3  1  0
  3  4  1  0
  3  5  2  0
  4  6  2  0
  5  7  1  0
  6  7  1  0
  7  8  1  0
  8  9  1  0
  9 10  1  0
 10 11  1  0
 10 12  1  0
 12 13  2  0
 11 14  1  0
 12 15  1  0
 14 15  1  0
 14 16  2  0
M  END
