x0969_0_A-x0950_0_A
     RDKit          3D

 19 20  0  0  0  0  0  0  0  0999 V2000
   -6.7120   14.8630    2.4850 N   0  0  0  0  0  0  0  0  0  0  0  0
   -6.5140   14.7930    1.1500 C   0  0  0  0  0  0  0  0  0  0  0  0
   -7.4440   14.6990    0.2270 N   0  0  0  0  0  0  0  0  0  0  0  0
   -5.2660   14.8130    0.5480 N   0  0  0  0  0  0  0  0  0  0  0  0
   -6.8270   14.6460   -1.0040 N   0  0  0  0  0  0  0  0  0  0  0  0
   -5.5270   14.7020   -0.8080 C   0  0  0  0  0  0  0  0  0  0  0  0
   -3.9710   14.9070    1.0670 C   0  0  0  0  0  0  0  0  0  0  0  0
   -4.4160   14.6480   -1.6940 C   0  0  0  0  0  0  0  0  0  0  0  0
   -2.9240   14.8430    0.2370 C   0  0  0  0  0  0  0  0  0  0  0  0
   -3.1550   14.6830   -1.2000 C   0  0  0  0  0  0  0  0  0  0  0  0
   -1.9340   14.5320   -2.0850 C   0  0  0  0  0  0  0  0  0  0  0  0
   -1.0430   13.3750   -1.6080 C   0  0  0  0  0  0  0  0  0  0  0  0
    0.4270   13.7810   -1.5010 C   0  0  0  0  0  0  0  0  0  0  0  0
    1.2900   12.7090   -1.9190 O   0  0  0  0  0  0  0  0  0  0  0  0
    0.9500   11.9980   -3.0350 C   0  0  0  0  0  0  0  0  0  0  0  0
    1.5040   12.6810   -4.2930 C   0  0  1  0  0  0  0  0  0  0  0  0
    0.3080   10.9560   -3.0280 O   0  0  0  0  0  0  0  0  0  0  0  0
    3.0030   12.4550   -4.3580 C   0  0  0  0  0  0  0  0  0  0  0  0
    0.9050   12.2210   -5.5020 O   0  0  0  0  0  0  0  0  0  0  0  0
  1  2  1  0
  2  3  2  0
  2  4  1  0
  3  5  1  0
  4  6  1  0
  5  6  2  0
  4  7  1  0
  6  8  1  0
  7  9  2  0
  8 10  2  0
  9 10  1  0
 10 11  1  0
 11 12  1  0
 12 13  1  0
 13 14  1  0
 14 15  1  0
 15 16  1  0
 15 17  2  0
 16 18  1  6
 16 19  1  0
M  END
