x0962_0_A_α-x0128_0_A_α
     RDKit          3D

 17 18  0  0  0  0  0  0  0  0999 V2000
   -2.7850   14.9400   -2.2750 N   0  0  0  0  0  0  0  0  0  0  0  0
   -3.4400   14.9900   -1.3140 C   0  0  0  0  0  0  0  0  0  0  0  0
   -4.1960   15.0100   -0.0940 C   0  0  0  0  0  0  0  0  0  0  0  0
   -3.7320   15.6760    1.0130 N   0  0  0  0  0  0  0  0  0  0  0  0
   -5.4190   14.4090    0.1690 C   0  0  0  0  0  0  0  0  0  0  0  0
   -4.6510   15.4870    1.9400 C   0  0  0  0  0  0  0  0  0  0  0  0
   -5.6790   14.7250    1.4780 N   0  0  0  0  0  0  0  0  0  0  0  0
   -6.7870   14.3200    2.1940 N   0  0  0  0  0  0  0  0  0  0  0  0
   -7.7000   15.1460    2.8350 C   0  0  0  0  0  0  0  0  0  0  0  0
   -8.6510   15.6670    2.2520 O   0  0  0  0  0  0  0  0  0  0  0  0
   -7.5630   15.3840    4.1910 N   0  0  0  0  0  0  0  0  0  0  0  0
   -8.3720   16.0610    5.1540 C   0  0  0  0  0  0  0  0  0  0  0  0
   -9.0870   17.2030    4.7730 C   0  0  0  0  0  0  0  0  0  0  0  0
   -8.5160   15.6700    6.4890 C   0  0  0  0  0  0  0  0  0  0  0  0
   -9.8870   17.9330    5.5900 N   0  0  0  0  0  0  0  0  0  0  0  0
   -9.3370   16.4070    7.3550 C   0  0  0  0  0  0  0  0  0  0  0  0
   -9.9940   17.5200    6.8640 C   0  0  0  0  0  0  0  0  0  0  0  0
  1  2  3  0
  2  3  1  0
  3  4  1  0
  3  5  2  0
  4  6  2  0
  5  7  1  0
  6  7  1  0
  7  8  1  0
  8  9  1  0
  9 10  2  0
  9 11  1  0
 11 12  1  0
 12 13  2  0
 12 14  1  0
 13 15  1  0
 14 16  2  0
 15 17  2  0
 16 17  1  0
M  END
