x0967_0_A_α-x0587_0_A_α
     RDKit          3D

 17 18  0  0  0  0  0  0  0  0999 V2000
   -7.7470   14.7580    3.7070 N   0  0  0  0  0  0  0  0  0  0  0  0
   -8.1900   14.7190    2.4100 C   0  0  0  0  0  0  0  0  0  0  0  0
   -9.3910   14.6940    2.1700 O   0  0  0  0  0  0  0  0  0  0  0  0
   -7.1130   14.7450    1.3530 C   0  0  0  0  0  0  0  0  0  0  0  0
   -5.7010   14.8730    1.6650 C   0  0  0  0  0  0  0  0  0  0  0  0
   -7.3910   14.6810    0.0270 C   0  0  0  0  0  0  0  0  0  0  0  0
   -6.3690   14.7810   -0.9510 N   0  0  0  0  0  0  0  0  0  0  0  0
   -4.8500   15.3150    0.7250 C   0  0  0  0  0  0  0  0  0  0  0  0
   -5.5340   13.7480   -1.5080 C   0  0  0  0  0  0  0  0  0  0  0  0
   -5.3400   15.7070   -0.6750 C   0  0  1  0  0  0  0  0  0  0  0  0
   -3.4390   15.4170    0.9920 C   0  0  0  0  0  0  0  0  0  0  0  0
   -4.3660   13.6190   -0.8180 F   0  0  0  0  0  0  0  0  0  0  0  0
   -5.1720   13.9750   -2.7810 F   0  0  0  0  0  0  0  0  0  0  0  0
   -6.1440   12.5800   -1.5300 F   0  0  0  0  0  0  0  0  0  0  0  0
   -4.3220   15.6570   -1.7230 N   0  0  0  0  0  0  0  0  0  0  0  0
   -2.5620   15.5430   -0.0060 C   0  0  0  0  0  0  0  0  0  0  0  0
   -3.0990   15.5810   -1.3760 C   0  0  0  0  0  0  0  0  0  0  0  0
  1  2  1  0
  2  3  2  0
  2  4  1  0
  4  5  1  0
  4  6  2  0
  6  7  1  0
  5  8  2  0
  7  9  1  0
  7 10  1  0
  8 10  1  0
  8 11  1  0
  9 12  1  0
  9 13  1  0
  9 14  1  0
 10 15  1  6
 11 16  2  0
 15 17  2  0
 16 17  1  0
M  END
