x0969_0_A-x0628_0_A
     RDKit          3D

 24 26  0  0  0  0  0  0  0  0999 V2000
   -6.6810   14.8560    2.4830 N   0  0  0  0  0  0  0  0  0  0  0  0
   -6.5390   14.7940    1.1430 C   0  0  0  0  0  0  0  0  0  0  0  0
   -7.5120   14.6960    0.2690 N   0  0  0  0  0  0  0  0  0  0  0  0
   -5.3180   14.8350    0.4730 N   0  0  0  0  0  0  0  0  0  0  0  0
   -6.9630   14.6650   -0.9910 N   0  0  0  0  0  0  0  0  0  0  0  0
   -5.6580   14.7420   -0.8650 C   0  0  0  0  0  0  0  0  0  0  0  0
   -4.0010   14.9370    0.9240 C   0  0  0  0  0  0  0  0  0  0  0  0
   -4.6040   14.7280   -1.8210 C   0  0  0  0  0  0  0  0  0  0  0  0
   -3.0010   14.9100    0.0190 C   0  0  0  0  0  0  0  0  0  0  0  0
   -3.3180   14.7840   -1.4120 C   0  0  0  0  0  0  0  0  0  0  0  0
   -2.1590   14.7080   -2.3990 C   0  0  0  0  0  0  0  0  0  0  0  0
   -1.7580   13.2610   -2.8040 C   0  0  0  0  0  0  0  0  0  0  0  0
   -2.4250   12.6420   -4.0510 C   0  0  0  0  0  0  0  0  0  0  0  0
   -1.5940   11.8220   -5.0040 C   0  0  0  0  0  0  0  0  0  0  0  0
   -1.9700   10.6610   -5.5290 N   0  0  0  0  0  0  0  0  0  0  0  0
   -0.3380   12.1170   -5.4870 N   0  0  0  0  0  0  0  0  0  0  0  0
    0.5230   13.2560   -5.2310 C   0  0  0  0  0  0  0  0  0  0  0  0
   -0.9150   10.2930   -6.3250 C   0  0  0  0  0  0  0  0  0  0  0  0
    0.1000   11.1570   -6.3270 N   0  0  0  0  0  0  0  0  0  0  0  0
   -0.8960    9.0450   -7.1160 C   0  0  0  0  0  0  0  0  0  0  0  0
    1.6540   12.9480   -4.2410 C   0  0  0  0  0  0  0  0  0  0  0  0
    1.1470   12.2470   -3.0090 C   0  0  0  0  0  0  0  0  0  0  0  0
    0.6540   11.1300   -2.9760 O   0  0  0  0  0  0  0  0  0  0  0  0
    1.2800   12.9860   -1.8870 O   0  0  0  0  0  0  0  0  0  0  0  0
  1  2  1  0
  2  3  2  0
  2  4  1  0
  3  5  1  0
  4  6  1  0
  5  6  2  0
  4  7  1  0
  6  8  1  0
  7  9  2  0
  8 10  2  0
  9 10  1  0
 10 11  1  0
 11 12  1  0
 12 13  1  0
 13 14  1  0
 14 15  2  0
 14 16  1  0
 16 17  1  0
 15 18  1  0
 16 19  1  0
 18 19  2  0
 18 20  1  0
 17 21  1  0
 21 22  1  0
 22 23  2  0
 22 24  1  0
M  END
