x0962_0_A-x0626_0_A
     RDKit          3D

 17 18  0  0  0  0  0  0  0  0999 V2000
   -3.2890   15.6350   -3.9100 N   0  0  0  0  0  0  0  0  0  0  0  0
   -3.9430   15.4990   -2.9660 C   0  0  0  0  0  0  0  0  0  0  0  0
   -4.5760   15.2590   -1.7380 C   0  0  0  0  0  0  0  0  0  0  0  0
   -3.7420   14.9920   -0.8500 N   0  0  0  0  0  0  0  0  0  0  0  0
   -5.8310   15.2190   -1.2260 C   0  0  0  0  0  0  0  0  0  0  0  0
   -4.3040   14.7580    0.2350 C   0  0  0  0  0  0  0  0  0  0  0  0
   -5.6870   14.8610    0.1390 N   0  0  0  0  0  0  0  0  0  0  0  0
   -3.0910   14.5440    0.7620 C   0  0  0  0  0  0  0  0  0  0  0  0
   -6.8660   14.7370    0.8180 C   0  0  0  0  0  0  0  0  0  0  0  0
   -2.3740   14.3870    1.8280 N   0  0  0  0  0  0  0  0  0  0  0  0
   -2.3260   14.4990   -0.7800 S   0  0  0  0  0  0  0  0  0  0  0  0
   -7.8270   14.9050    0.0880 O   0  0  0  0  0  0  0  0  0  0  0  0
   -7.0340   14.4130    2.2470 C   0  0  0  0  0  0  0  0  0  0  0  0
   -0.8920   14.2390   -0.0530 C   0  0  0  0  0  0  0  0  0  0  0  0
   -1.0900   14.2020    1.2830 C   0  0  0  0  0  0  0  0  0  0  0  0
   -8.5300   14.3490    2.4660 C   0  0  0  0  0  0  0  0  0  0  0  0
    0.0480   13.9570    2.0720 C   0  0  0  0  0  0  0  0  0  0  0  0
  1  2  3  0
  2  3  1  0
  3  4  1  0
  3  5  2  0
  4  6  2  0
  5  7  1  0
  6  7  1  0
  6  8  1  0
  7  9  1  0
  8 10  2  0
  8 11  1  0
  9 12  2  0
  9 13  1  0
 11 14  1  0
 10 15  1  0
 14 15  2  0
 13 16  1  0
 15 17  1  0
M  END
