x0962_0_A-x0724_0_A
     RDKit          3D

 14 15  0  0  0  0  0  0  0  0999 V2000
   -2.3990   15.1260   -2.3120 N   0  0  0  0  0  0  0  0  0  0  0  0
   -3.1110   15.0000   -1.4090 C   0  0  0  0  0  0  0  0  0  0  0  0
   -4.0030   14.6730   -0.3570 C   0  0  0  0  0  0  0  0  0  0  0  0
   -3.7100   13.6330    0.4720 N   0  0  0  0  0  0  0  0  0  0  0  0
   -5.1700   15.2790   -0.0820 C   0  0  0  0  0  0  0  0  0  0  0  0
   -4.7350   13.5360    1.2460 C   0  0  0  0  0  0  0  0  0  0  0  0
   -5.8330   14.5320    1.0260 C   0  0  2  0  0  0  0  0  0  0  0  0
   -7.0830   13.9520    0.4970 N   0  0  0  0  0  0  0  0  0  0  0  0
   -6.1810   15.0980    2.3320 C   0  0  0  0  0  0  0  0  0  0  0  0
   -7.4770   14.9110    2.6170 C   0  0  0  0  0  0  0  0  0  0  0  0
   -7.9510   14.2090    1.4270 C   0  0  0  0  0  0  0  0  0  0  0  0
   -8.3500   15.2480    3.7650 C   0  0  0  0  0  0  0  0  0  0  0  0
   -8.9440   14.1020    4.4480 N   0  0  0  0  0  0  0  0  0  0  0  0
   -8.5970   14.0250    5.8580 C   0  0  0  0  0  0  0  0  0  0  0  0
  1  2  3  0
  2  3  1  0
  3  4  1  0
  3  5  2  0
  4  6  2  0
  7  5  1  6
  6  7  1  0
  7  8  1  0
  7  9  1  0
  9 10  2  0
  8 11  2  0
 10 11  1  0
 10 12  1  0
 12 13  1  0
 13 14  1  0
M  END
