x0969_0_A-x0689_0_A
     RDKit          3D

 17 19  0  0  0  0  0  0  0  0999 V2000
   -6.4880   14.7700    2.5730 N   0  0  0  0  0  0  0  0  0  0  0  0
   -6.6680   14.7780    1.2300 C   0  0  0  0  0  0  0  0  0  0  0  0
   -7.8190   14.6440    0.6150 N   0  0  0  0  0  0  0  0  0  0  0  0
   -5.6580   14.9560    0.2870 N   0  0  0  0  0  0  0  0  0  0  0  0
   -7.6070   14.7430   -0.7350 N   0  0  0  0  0  0  0  0  0  0  0  0
   -6.3320   14.9370   -0.9320 C   0  0  0  0  0  0  0  0  0  0  0  0
   -4.2640   15.1350    0.3470 C   0  0  0  0  0  0  0  0  0  0  0  0
   -5.6010   15.1280   -2.1300 C   0  0  0  0  0  0  0  0  0  0  0  0
   -3.6270   15.3140   -0.8190 C   0  0  0  0  0  0  0  0  0  0  0  0
   -3.5100   15.0850    1.4490 N   0  0  0  0  0  0  0  0  0  0  0  0
   -4.2940   15.3210   -2.0730 C   0  0  0  0  0  0  0  0  0  0  0  0
   -2.2450   14.7450    1.0760 C   0  0  0  0  0  0  0  0  0  0  0  0
   -2.0060   14.7570   -0.2440 N   0  0  0  0  0  0  0  0  0  0  0  0
   -1.3570   14.4290    1.9790 N   0  0  0  0  0  0  0  0  0  0  0  0
   -0.8030   14.4410   -0.6830 C   0  0  0  0  0  0  0  0  0  0  0  0
   -0.1560   14.1120    1.5040 C   0  0  0  0  0  0  0  0  0  0  0  0
    0.1860   14.1020    0.1610 C   0  0  0  0  0  0  0  0  0  0  0  0
  1  2  1  0
  2  3  2  0
  2  4  1  0
  3  5  1  0
  4  6  1  0
  5  6  2  0
  4  7  1  0
  6  8  1  0
  7  9  2  0
  7 10  1  0
  8 11  2  0
  9 11  1  0
 10 12  1  0
 12 13  2  0
 12 14  1  0
 13 15  1  0
 14 16  2  0
 15 17  2  0
 16 17  1  0
M  END
