x0967_0_A-x0711_0_A
     RDKit          3D

 18 19  0  0  0  0  0  0  0  0999 V2000
   -2.9500   14.7530   -2.6690 N   0  0  0  0  0  0  0  0  0  0  0  0
   -1.3230   14.1750   -2.8120 S   0  0  0  0  0  0  0  0  0  0  0  0
   -1.4960   12.8060   -3.9460 C   0  0  0  0  0  0  0  0  0  0  0  0
   -3.6990   14.9070   -1.4210 C   0  0  0  0  0  0  0  0  0  0  0  0
   -0.5620   15.1730   -3.5450 O   0  0  0  0  0  0  0  0  0  0  0  0
   -0.8000   13.6420   -1.5700 O   0  0  0  0  0  0  0  0  0  0  0  0
   -5.1160   14.9840   -1.2500 N   0  0  0  0  0  0  0  0  0  0  0  0
   -2.9620   15.0100   -0.2920 C   0  0  0  0  0  0  0  0  0  0  0  0
   -6.1740   14.4380   -1.8870 C   0  0  0  0  0  0  0  0  0  0  0  0
   -5.5610   14.3610   -0.0540 C   0  0  2  0  0  0  0  0  0  0  0  0
   -3.6120   15.2150    0.9960 C   0  0  0  0  0  0  0  0  0  0  0  0
   -6.4750   13.1970   -1.3800 N   0  0  0  0  0  0  0  0  0  0  0  0
   -6.8850   14.9110   -2.7320 O   0  0  0  0  0  0  0  0  0  0  0  0
   -7.0500   14.3120   -0.0810 N   0  0  0  0  0  0  0  0  0  0  0  0
   -4.9070   14.9200    1.1180 C   0  0  0  0  0  0  0  0  0  0  0  0
   -5.7340   15.0750    2.2880 C   0  0  0  0  0  0  0  0  0  0  0  0
   -7.6720   14.5380    0.9950 C   0  0  0  0  0  0  0  0  0  0  0  0
   -7.0630   14.8810    2.2770 C   0  0  0  0  0  0  0  0  0  0  0  0
  2  1  1  0
  2  3  1  0
  1  4  1  0
  2  5  2  0
  2  6  2  0
  4  7  1  0
  4  8  2  0
  7  9  1  0
  7 10  1  0
  8 11  1  0
  9 12  1  0
  9 13  2  0
 10 14  1  1
 10 15  1  0
 11 15  2  0
 15 16  1  0
 14 17  2  0
 16 18  2  0
 17 18  1  0
M  END
