x0962_3_A_α-x0662_0_A_β
     RDKit          3D

 11 11  0  0  0  0  0  0  0  0999 V2000
    1.8380   12.1710   -6.7800 N   0  0  0  0  0  0  0  0  0  0  0  0
    1.2560   11.3330   -7.3260 C   0  0  0  0  0  0  0  0  0  0  0  0
    0.3920   10.2920   -7.6610 C   0  0  0  0  0  0  0  0  0  0  0  0
    0.3940    9.4570   -8.7320 N   0  0  0  0  0  0  0  0  0  0  0  0
   -0.6560    9.9350   -6.9020 C   0  0  0  0  0  0  0  0  0  0  0  0
    1.3250    9.4620   -9.8240 N   0  0  0  0  0  0  0  0  0  0  0  0
   -0.9120   10.7620   -5.5670 C   0  0  0  0  0  0  0  0  0  0  0  0
   -0.6700    8.6020   -8.5750 C   0  0  0  0  0  0  0  0  0  0  0  0
   -1.3410    8.8620   -7.4650 N   0  0  0  0  0  0  0  0  0  0  0  0
   -1.9460   10.5010   -4.9130 O   0  0  0  0  0  0  0  0  0  0  0  0
   -0.0270   11.6390   -5.2830 O   0  0  0  0  0  0  0  0  0  0  0  0
  1  2  3  0
  2  3  1  0
  3  4  1  0
  3  5  2  0
  4  6  1  0
  5  7  1  0
  4  8  1  0
  5  9  1  0
  8  9  2  0
  7 10  2  0
  7 11  1  0
M  CHG  1  11  -1
M  END
