x0969_0_A-x0837_0_A
     RDKit          3D

 12 13  0  0  0  0  0  0  0  0999 V2000
   -7.0000   13.5180    2.4430 N   0  0  0  0  0  0  0  0  0  0  0  0
   -6.5920   14.6780    1.7490 C   0  0  2  0  0  0  0  0  0  0  0  0
   -7.8040   14.9500    0.9630 N   0  0  0  0  0  0  0  0  0  0  0  0
   -5.4410   14.5440    0.8950 N   0  0  0  0  0  0  0  0  0  0  0  0
   -7.4330   14.6930   -0.4620 N   0  0  0  0  0  0  0  0  0  0  0  0
   -6.0660   14.1500   -0.3420 C   0  0  1  0  0  0  0  0  0  0  0  0
   -4.1640   15.0690    1.0020 C   0  0  0  0  0  0  0  0  0  0  0  0
   -5.2410   14.6200   -1.4890 C   0  0  0  0  0  0  0  0  0  0  0  0
   -3.2990   14.9830   -0.0250 C   0  0  0  0  0  0  0  0  0  0  0  0
   -5.8060   15.1810   -2.4030 O   0  0  0  0  0  0  0  0  0  0  0  0
   -3.7600   14.3090   -1.2920 C   0  0  2  0  0  0  0  0  0  0  0  0
   -2.6600   14.8250   -3.0570 I   0  0  0  0  0  0  0  0  0  0  0  0
  2  1  1  6
  2  3  1  0
  2  4  1  0
  3  5  1  0
  4  6  1  0
  6  5  1  6
  4  7  1  0
  6  8  1  0
  7  9  2  0
  8 10  2  0
  8 11  1  0
  9 11  1  0
 11 12  1  6
M  END
