x0962_2_B-x0805_0_A
     RDKit          3D

 26 28  0  0  0  0  0  0  0  0999 V2000
  -10.4520   16.3300    0.7970 N   0  0  0  0  0  0  0  0  0  0  0  0
   -9.7480   15.9800    1.6500 C   0  0  0  0  0  0  0  0  0  0  0  0
   -8.9340   15.5920    2.7390 C   0  0  0  0  0  0  0  0  0  0  0  0
   -9.1860   15.9820    4.0260 N   0  0  0  0  0  0  0  0  0  0  0  0
   -7.7820   14.8060    2.8080 C   0  0  0  0  0  0  0  0  0  0  0  0
   -6.9560   14.0860    1.7610 C   0  0  0  0  0  0  0  0  0  0  0  0
   -8.2270   15.4390    4.8200 C   0  0  0  0  0  0  0  0  0  0  0  0
   -7.3860   14.7310    4.1230 N   0  0  0  0  0  0  0  0  0  0  0  0
   -5.7830   14.9260    1.1830 C   0  0  0  0  0  0  0  0  0  0  0  0
   -4.4700   14.2520    0.7910 C   0  0  0  0  0  0  0  0  0  0  0  0
   -3.7040   15.1680   -0.0250 O   0  0  0  0  0  0  0  0  0  0  0  0
   -3.3690   14.5630   -1.2010 C   0  0  0  0  0  0  0  0  0  0  0  0
   -4.3230   13.8600   -1.9180 C   0  0  0  0  0  0  0  0  0  0  0  0
   -2.0660   14.6620   -1.6610 C   0  0  0  0  0  0  0  0  0  0  0  0
   -3.9650   13.2450   -3.1140 C   0  0  0  0  0  0  0  0  0  0  0  0
   -1.6850   14.0560   -2.8590 C   0  0  0  0  0  0  0  0  0  0  0  0
   -2.6500   13.3420   -3.5870 C   0  0  0  0  0  0  0  0  0  0  0  0
   -0.2440   14.1850   -3.3300 C   0  0  1  0  0  0  0  0  0  0  0  0
    0.3510   12.8860   -3.8540 C   0  0  2  0  0  0  0  0  0  0  0  0
    0.0700   15.3700   -4.2250 C   0  0  0  0  0  0  0  0  0  0  0  0
    0.3860   11.9940   -2.6280 C   0  0  0  0  0  0  0  0  0  0  0  0
    1.7260   13.1260   -4.4930 C   0  0  0  0  0  0  0  0  0  0  0  0
    1.5590   15.5490   -4.4190 C   0  0  0  0  0  0  0  0  0  0  0  0
    0.0540   10.7080   -2.8730 O   0  0  0  0  0  0  0  0  0  0  0  0
    0.6650   12.3900   -1.5000 O   0  0  0  0  0  0  0  0  0  0  0  0
    2.3120   14.3680   -4.0830 O   0  0  0  0  0  0  0  0  0  0  0  0
  1  2  3  0
  2  3  1  0
  3  4  1  0
  3  5  2  0
  5  6  1  0
  4  7  1  0
  5  8  1  0
  7  8  2  0
  6  9  1  0
  9 10  1  0
 10 11  1  0
 11 12  1  0
 12 13  2  0
 12 14  1  0
 13 15  1  0
 14 16  2  0
 15 17  2  0
 16 17  1  0
 18 16  1  6
 18 19  1  0
 18 20  1  0
 19 21  1  1
 19 22  1  0
 20 23  1  0
 21 24  1  0
 21 25  2  0
 22 26  1  0
 23 26  1  0
M  END
