x0962_2_B_α-x0837_0_A_α
     RDKit          3D

 17 18  0  0  0  0  0  0  0  0999 V2000
  -10.4870   16.9510    1.4550 N   0  0  0  0  0  0  0  0  0  0  0  0
  -10.2980   15.5450    1.8080 C   0  0  1  0  0  0  0  0  0  0  0  0
   -9.7510   14.7840    0.5980 C   0  0  0  0  0  0  0  0  0  0  0  0
   -9.4200   15.3850    3.0010 C   0  0  0  0  0  0  0  0  0  0  0  0
   -8.3390   14.2650    0.8670 C   0  0  0  0  0  0  0  0  0  0  0  0
   -9.0330   16.3620    3.8940 N   0  0  0  0  0  0  0  0  0  0  0  0
   -8.8070   14.2400    3.4750 C   0  0  0  0  0  0  0  0  0  0  0  0
   -7.4720   14.5490   -0.2590 N   0  0  0  0  0  0  0  0  0  0  0  0
   -8.2290   15.7730    4.8300 C   0  0  0  0  0  0  0  0  0  0  0  0
   -8.0810   14.4890    4.5990 N   0  0  0  0  0  0  0  0  0  0  0  0
   -6.2400   14.8130   -0.0200 C   0  0  0  0  0  0  0  0  0  0  0  0
   -5.5650   14.8810    1.1870 N   0  0  0  0  0  0  0  0  0  0  0  0
   -5.3880   15.0920   -1.2420 C   0  0  0  0  0  0  0  0  0  0  0  0
   -4.2270   15.1700    1.2890 C   0  0  0  0  0  0  0  0  0  0  0  0
   -4.0230   14.4600   -1.0140 C   0  0  1  0  0  0  0  0  0  0  0  0
   -2.7750   14.7030   -2.7560 I   0  0  0  0  0  0  0  0  0  0  0  0
   -3.4030   14.9900    0.2510 C   0  0  0  0  0  0  0  0  0  0  0  0
  2  1  1  6
  2  3  1  0
  2  4  1  0
  3  5  1  0
  4  6  1  0
  4  7  2  0
  5  8  1  0
  6  9  1  0
  7 10  1  0
  9 10  2  0
  8 11  2  3
 11 12  1  0
 11 13  1  0
 12 14  1  0
 13 15  1  0
 15 16  1  6
 14 17  2  0
 15 17  1  0
M  END
