x0967_0_A_α-x0895_1_A_α
     RDKit          3D

 12 13  0  0  0  0  0  0  0  0999 V2000
   -2.5950   14.7720    1.8400 O   0  0  0  0  0  0  0  0  0  0  0  0
   -3.4280   14.8220    0.9160 C   0  0  0  0  0  0  0  0  0  0  0  0
   -4.9210   14.7480    1.0180 C   0  0  0  0  0  0  0  0  0  0  0  0
   -2.9060   14.9600   -0.4610 C   0  0  0  0  0  0  0  0  0  0  0  0
   -5.7480   14.7010   -0.2810 C   0  0  0  0  0  0  0  0  0  0  0  0
   -5.6190   14.7220    2.1530 C   0  0  0  0  0  0  0  0  0  0  0  0
   -3.6140   14.9660   -1.5860 C   0  0  0  0  0  0  0  0  0  0  0  0
   -7.0800   14.5570   -0.2330 N   0  0  0  0  0  0  0  0  0  0  0  0
   -7.0710   14.6320    2.1140 C   0  0  0  0  0  0  0  0  0  0  0  0
   -5.0390   14.8200   -1.5450 N   0  0  0  0  0  0  0  0  0  0  0  0
   -5.7800   14.7770   -2.5380 O   0  0  0  0  0  0  0  0  0  0  0  0
   -7.7470   14.5540    0.9600 C   0  0  0  0  0  0  0  0  0  0  0  0
  1  2  2  0
  2  3  1  0
  2  4  1  0
  3  5  1  0
  3  6  2  0
  4  7  2  0
  5  8  1  0
  6  9  1  0
  5 10  2  0
  7 10  1  0
 10 11  1  0
  8 12  1  0
  9 12  2  0
M  CHG  2  10   1  11  -1
M  END
