x0962_2_B-x0574_0_A
     RDKit          3D

 19 21  0  0  0  0  0  0  0  0999 V2000
  -10.6520   16.4240    0.8630 N   0  0  0  0  0  0  0  0  0  0  0  0
   -9.9370   16.1150    1.7200 C   0  0  0  0  0  0  0  0  0  0  0  0
   -9.1190   15.7810    2.8240 C   0  0  0  0  0  0  0  0  0  0  0  0
   -9.3120   16.2650    4.0900 N   0  0  0  0  0  0  0  0  0  0  0  0
   -8.0130   14.9650    2.9110 C   0  0  0  0  0  0  0  0  0  0  0  0
   -7.2910   14.1620    1.8700 C   0  0  0  0  0  0  0  0  0  0  0  0
   -8.3440   15.7340    4.8860 C   0  0  0  0  0  0  0  0  0  0  0  0
   -7.5600   14.9520    4.2100 N   0  0  0  0  0  0  0  0  0  0  0  0
   -6.7640   14.9350    0.7640 O   0  0  0  0  0  0  0  0  0  0  0  0
   -5.4180   14.8740    0.5010 C   0  0  0  0  0  0  0  0  0  0  0  0
   -4.4510   14.6200    1.4450 C   0  0  0  0  0  0  0  0  0  0  0  0
   -5.0320   15.0860   -0.8270 C   0  0  0  0  0  0  0  0  0  0  0  0
   -3.1020   14.5550    1.0930 C   0  0  0  0  0  0  0  0  0  0  0  0
   -3.6780   15.0320   -1.2160 C   0  0  0  0  0  0  0  0  0  0  0  0
   -2.7190   14.7530   -0.2240 C   0  0  0  0  0  0  0  0  0  0  0  0
   -2.0940   14.2980    1.9670 N   0  0  0  0  0  0  0  0  0  0  0  0
   -0.9670   14.2730    1.3700 C   0  0  0  0  0  0  0  0  0  0  0  0
   -0.9970   14.5860   -0.3130 S   0  0  0  0  0  0  0  0  0  0  0  0
    0.1230   14.0120    2.0710 N   0  0  0  0  0  0  0  0  0  0  0  0
  1  2  3  0
  2  3  1  0
  3  4  1  0
  3  5  2  0
  5  6  1  0
  4  7  1  0
  5  8  1  0
  7  8  2  0
  6  9  1  0
  9 10  1  0
 10 11  2  0
 10 12  1  0
 11 13  1  0
 12 14  2  0
 13 15  2  0
 14 15  1  0
 13 16  1  0
 16 17  2  0
 15 18  1  0
 17 18  1  0
 17 19  1  0
M  END
