x0962_1_A-x0962_0_A
     RDKit          3D

  8  8  0  0  0  0  0  0  0  0999 V2000
   -3.4490   14.8590   -1.4930 C   0  0  0  0  0  0  0  0  0  0  0  0
   -4.3320   15.7240   -0.7060 C   0  0  0  0  0  0  0  0  0  0  0  0
   -5.4720   15.0950   -0.0010 C   0  0  0  0  0  0  0  0  0  0  0  0
   -2.6990   14.2510   -2.1360 N   0  0  0  0  0  0  0  0  0  0  0  0
   -5.4670   14.7570    1.3290 N   0  0  0  0  0  0  0  0  0  0  0  0
   -6.7300   14.7300   -0.4420 C   0  0  0  0  0  0  0  0  0  0  0  0
   -6.6820   14.2230    1.6290 C   0  0  0  0  0  0  0  0  0  0  0  0
   -7.4700   14.1940    0.5760 N   0  0  0  0  0  0  0  0  0  0  0  0
  1  2  1  0
  2  3  1  0
  1  4  3  0
  3  5  1  0
  3  6  2  0
  5  7  1  0
  6  8  1  0
  7  8  2  0
M  END
