x0962_2_B_α-x0465_0_A_α
     RDKit          3D

 27 28  0  0  0  0  0  0  0  0999 V2000
  -11.2110   16.6780    1.2810 N   0  0  0  0  0  0  0  0  0  0  0  0
  -10.3260   16.2070    1.8580 C   0  0  0  0  0  0  0  0  0  0  0  0
   -9.1960   15.5990    2.4560 C   0  0  0  0  0  0  0  0  0  0  0  0
   -8.7180   15.8920    3.7110 N   0  0  0  0  0  0  0  0  0  0  0  0
   -8.4480   14.6500    1.8360 C   0  0  0  0  0  0  0  0  0  0  0  0
   -7.6590   15.1080    3.8380 C   0  0  0  0  0  0  0  0  0  0  0  0
   -7.4690   14.3340    2.6930 N   0  0  0  0  0  0  0  0  0  0  0  0
   -6.4430   13.3370    2.3490 C   0  0  0  0  0  0  0  0  0  0  0  0
   -5.0420   13.8940    2.0120 C   0  0  0  0  0  0  0  0  0  0  0  0
   -4.6050   14.0440    0.5480 C   0  0  0  0  0  0  0  0  0  0  0  0
   -3.2050   14.7020    0.4900 C   0  0  0  0  0  0  0  0  0  0  0  0
   -2.2660   14.1050   -0.5780 C   0  0  0  0  0  0  0  0  0  0  0  0
   -0.7550   14.2440   -0.2970 C   0  0  0  0  0  0  0  0  0  0  0  0
    0.2210   13.8200   -1.4180 C   0  0  0  0  0  0  0  0  0  0  0  0
    0.2870   12.3700   -1.6080 N   0  0  0  0  0  0  0  0  0  0  0  0
    0.4750   11.7650   -2.7420 C   0  0  0  0  0  0  0  0  0  0  0  0
    0.6820   12.4420   -4.1390 C   0  0  1  0  0  0  0  0  0  0  0  0
    0.4820   10.4060   -2.7310 O   0  0  0  0  0  0  0  0  0  0  0  0
    2.0530   13.1150   -4.2900 C   0  0  0  0  0  0  0  0  0  0  0  0
    0.5500   11.4170   -5.1490 O   0  0  0  0  0  0  0  0  0  0  0  0
   -0.6530   10.8140   -5.4100 C   0  0  0  0  0  0  0  0  0  0  0  0
   -0.6950    9.9000   -6.4860 C   0  0  0  0  0  0  0  0  0  0  0  0
   -1.8240   11.0390   -4.6900 C   0  0  0  0  0  0  0  0  0  0  0  0
    0.3940    9.6420   -7.2270 F   0  0  0  0  0  0  0  0  0  0  0  0
   -1.8650    9.2320   -6.8220 C   0  0  0  0  0  0  0  0  0  0  0  0
   -3.0020   10.3670   -5.0330 C   0  0  0  0  0  0  0  0  0  0  0  0
   -3.0240    9.4640   -6.0930 C   0  0  0  0  0  0  0  0  0  0  0  0
  1  2  3  0
  2  3  1  0
  3  4  1  0
  3  5  2  0
  4  6  2  0
  5  7  1  0
  6  7  1  0
  7  8  1  0
  8  9  1  0
  9 10  1  0
 10 11  1  0
 11 12  1  0
 12 13  1  0
 13 14  1  0
 14 15  1  0
 15 16  2  3
 16 17  1  0
 16 18  1  0
 17 19  1  1
 17 20  1  0
 20 21  1  0
 21 22  2  0
 21 23  1  0
 22 24  1  0
 22 25  1  0
 23 26  2  0
 25 27  2  0
 26 27  1  0
M  END
