x0962_2_B_α-x0910_1_A_α
     RDKit          3D

 15 16  0  0  0  0  0  0  0  0999 V2000
  -10.5360   17.0050    1.4530 N   0  0  0  0  0  0  0  0  0  0  0  0
  -10.0800   15.6400    1.5820 C   0  0  1  0  0  0  0  0  0  0  0  0
   -9.3740   15.1650    0.2980 C   0  0  0  0  0  0  0  0  0  0  0  0
   -9.2880   15.3850    2.8200 C   0  0  0  0  0  0  0  0  0  0  0  0
   -8.7250   13.7800    0.3300 C   0  0  0  0  0  0  0  0  0  0  0  0
   -8.9830   16.3410    3.7670 N   0  0  0  0  0  0  0  0  0  0  0  0
   -8.7010   14.2340    3.3120 C   0  0  0  0  0  0  0  0  0  0  0  0
   -7.4460   13.8100    1.0260 N   0  0  0  0  0  0  0  0  0  0  0  0
   -8.2500   15.7400    4.7530 C   0  0  0  0  0  0  0  0  0  0  0  0
   -8.0700   14.4680    4.5020 N   0  0  0  0  0  0  0  0  0  0  0  0
   -6.4520   14.5350    0.4760 C   0  0  0  0  0  0  0  0  0  0  0  0
   -6.5250   15.0190   -0.8040 N   0  0  0  0  0  0  0  0  0  0  0  0
   -5.3050   14.9010    0.9960 N   0  0  0  0  0  0  0  0  0  0  0  0
   -5.4160   15.7100   -1.1280 N   0  0  0  0  0  0  0  0  0  0  0  0
   -4.7090   15.6080   -0.0020 C   0  0  0  0  0  0  0  0  0  0  0  0
  2  1  1  6
  2  3  1  0
  2  4  1  0
  3  5  1  0
  4  6  1  0
  4  7  2  0
  5  8  1  0
  6  9  1  0
  7 10  1  0
  9 10  2  0
  8 11  1  0
 11 12  1  0
 11 13  2  0
 12 14  1  0
 13 15  1  0
 14 15  2  0
M  END
