x0962_3_A_α-x0591_0_A_α
     RDKit          3D

 24 25  0  0  0  0  0  0  0  0999 V2000
    1.2260   11.1730   -8.7480 N   0  0  0  0  0  0  0  0  0  0  0  0
    0.3070   11.3170   -7.6570 C   0  0  2  0  0  0  0  0  0  0  0  0
    1.0010   11.7830   -6.3570 C   0  0  0  0  0  0  0  0  0  0  0  0
   -0.3450   10.0100   -7.5430 C   0  0  0  0  0  0  0  0  0  0  0  0
    0.6540   13.1720   -5.8150 C   0  0  0  0  0  0  0  0  0  0  0  0
    0.0610    8.8890   -8.2410 N   0  0  0  0  0  0  0  0  0  0  0  0
   -1.4180    9.5960   -6.8000 C   0  0  0  0  0  0  0  0  0  0  0  0
   -0.2500   13.1740   -4.5870 C   0  0  0  0  0  0  0  0  0  0  0  0
   -0.7780    7.8750   -7.8870 C   0  0  0  0  0  0  0  0  0  0  0  0
   -1.6810    8.2800   -7.0190 N   0  0  0  0  0  0  0  0  0  0  0  0
   -1.6510   13.2830   -5.0340 N   0  0  0  0  0  0  0  0  0  0  0  0
   -2.3340   14.6470   -4.9620 S   0  0  1  0  0  0  0  0  0  0  0  0
   -1.0180   15.6200   -4.6090 N   0  0  0  0  0  0  0  0  0  0  0  0
   -2.9750   15.3110   -6.0750 O   0  0  0  0  0  0  0  0  0  0  0  0
   -3.4430   14.6720   -3.5890 C   0  0  0  0  0  0  0  0  0  0  0  0
   -2.9900   14.5460   -2.2680 C   0  0  0  0  0  0  0  0  0  0  0  0
   -4.7920   14.8230   -3.8530 C   0  0  0  0  0  0  0  0  0  0  0  0
   -3.9190   14.5740   -1.2210 C   0  0  0  0  0  0  0  0  0  0  0  0
   -5.7110   14.8560   -2.8140 C   0  0  0  0  0  0  0  0  0  0  0  0
   -5.2860   14.7310   -1.4920 C   0  0  0  0  0  0  0  0  0  0  0  0
   -6.2710   14.7600   -0.3810 C   0  0  0  0  0  0  0  0  0  0  0  0
   -5.8040   14.5730    0.9000 N   0  0  0  0  0  0  0  0  0  0  0  0
   -7.4570   14.9440   -0.6320 O   0  0  0  0  0  0  0  0  0  0  0  0
   -6.7550   14.5150    1.9870 C   0  0  0  0  0  0  0  0  0  0  0  0
  2  1  1  6
  2  3  1  0
  2  4  1  0
  3  5  1  0
  4  6  1  0
  4  7  2  0
  5  8  1  0
  6  9  1  0
  7 10  1  0
  9 10  2  0
  8 11  1  0
 11 12  2  0
 12 13  1  1
 12 14  2  0
 12 15  1  0
 15 16  2  0
 15 17  1  0
 16 18  1  0
 17 19  2  0
 18 20  2  0
 19 20  1  0
 20 21  1  0
 21 22  1  0
 21 23  2  0
 22 24  1  0
M  END
