x0967_0_A-x0685_1_A
     RDKit          3D

 25 27  0  0  0  0  0  0  0  0999 V2000
   -1.4010   10.6090   -4.8690 N   0  0  0  0  0  0  0  0  0  0  0  0
   -1.4490   12.0360   -4.4730 C   0  0  0  0  0  0  0  0  0  0  0  0
   -0.0530   12.6280   -4.2810 C   0  0  0  0  0  0  0  0  0  0  0  0
   -0.7380   10.3520   -6.1610 C   0  0  0  0  0  0  0  0  0  0  0  0
   -0.5170    8.8480   -6.4270 C   0  0  0  0  0  0  0  0  0  0  0  0
   -1.5980   10.9980   -7.2730 C   0  0  0  0  0  0  0  0  0  0  0  0
    0.6950   12.2190   -2.7040 S   0  0  0  0  0  0  0  0  0  0  0  0
    0.1080    8.6030   -7.7890 C   0  0  0  0  0  0  0  0  0  0  0  0
   -1.0220   10.7310   -8.6600 C   0  0  0  0  0  0  0  0  0  0  0  0
    2.2690   12.2600   -3.0090 O   0  0  0  0  0  0  0  0  0  0  0  0
    0.1810   10.7420   -2.2930 O   0  0  0  0  0  0  0  0  0  0  0  0
    0.2830   13.3860   -1.6600 O   0  0  0  0  0  0  0  0  0  0  0  0
   -0.7430    9.2380   -8.8920 C   0  0  0  0  0  0  0  0  0  0  0  0
   -0.8730   13.3090   -0.8180 C   0  0  0  0  0  0  0  0  0  0  0  0
   -1.4500   14.7080   -0.6270 C   0  0  0  0  0  0  0  0  0  0  0  0
   -2.9650   14.7380   -0.5830 C   0  0  0  0  0  0  0  0  0  0  0  0
   -3.7080   14.7910   -1.7480 C   0  0  0  0  0  0  0  0  0  0  0  0
   -3.6850   14.7060    0.6130 C   0  0  0  0  0  0  0  0  0  0  0  0
   -5.0930   14.7130    0.5710 C   0  0  0  0  0  0  0  0  0  0  0  0
   -5.0600   14.8020   -1.8040 N   0  0  0  0  0  0  0  0  0  0  0  0
   -5.7530   14.7570   -0.6700 C   0  0  0  0  0  0  0  0  0  0  0  0
   -5.8640   14.6690    1.7340 C   0  0  0  0  0  0  0  0  0  0  0  0
   -7.0880   14.7520   -0.7400 N   0  0  0  0  0  0  0  0  0  0  0  0
   -7.2460   14.6590    1.6570 C   0  0  0  0  0  0  0  0  0  0  0  0
   -7.8100   14.7010    0.4000 C   0  0  0  0  0  0  0  0  0  0  0  0
  1  2  1  0
  2  3  1  0
  1  4  1  0
  4  5  1  0
  4  6  1  0
  3  7  1  0
  5  8  1  0
  6  9  1  0
  7 10  1  0
  7 11  1  0
  7 12  1  0
  8 13  1  0
  9 13  1  0
 12 14  1  0
 14 15  1  0
 15 16  1  0
 16 17  2  0
 16 18  1  0
 18 19  2  0
 17 20  1  0
 19 21  1  0
 20 21  2  0
 19 22  1  0
 21 23  1  0
 22 24  2  0
 23 25  2  0
 24 25  1  0
M  END
