x0962_2_B-x0421_0_A
     RDKit          3D

 17 19  0  0  0  0  0  0  0  0999 V2000
  -10.8770   16.4120    1.0320 N   0  0  0  0  0  0  0  0  0  0  0  0
  -10.0630   16.0230    1.7630 C   0  0  0  0  0  0  0  0  0  0  0  0
   -9.0030   15.6360    2.6360 C   0  0  0  0  0  0  0  0  0  0  0  0
   -9.0190   16.0400    3.8720 N   0  0  0  0  0  0  0  0  0  0  0  0
   -7.8190   14.8210    2.3470 C   0  0  1  0  0  0  0  0  0  0  0  0
   -7.8720   15.5130    4.4330 C   0  0  0  0  0  0  0  0  0  0  0  0
   -7.1280   14.7990    3.6440 N   0  0  0  0  0  0  0  0  0  0  0  0
   -7.7770   13.5610    1.5410 C   0  0  0  0  0  0  0  0  0  0  0  0
   -7.1040   14.7810    0.9910 C   0  0  2  0  0  0  0  0  0  0  0  0
   -5.5590   14.8280    0.6820 C   0  0  0  0  0  0  0  0  0  0  0  0
   -4.4900   14.8410    1.5260 N   0  0  0  0  0  0  0  0  0  0  0  0
   -5.1410   14.8650   -0.5640 N   0  0  0  0  0  0  0  0  0  0  0  0
   -3.7590   14.9010   -0.5400 C   0  0  0  0  0  0  0  0  0  0  0  0
   -3.3360   14.8890    0.7790 C   0  0  0  0  0  0  0  0  0  0  0  0
   -2.9490   14.9390   -1.7650 C   0  0  0  0  0  0  0  0  0  0  0  0
   -3.6410   15.1460   -2.9290 N   0  0  0  0  0  0  0  0  0  0  0  0
   -1.7310   14.7930   -1.8020 O   0  0  0  0  0  0  0  0  0  0  0  0
  1  2  3  0
  2  3  1  0
  3  4  2  0
  3  5  1  0
  4  6  1  0
  5  7  1  0
  6  7  2  0
  5  8  1  1
  5  9  1  0
  8  9  1  0
  9 10  1  1
 10 11  1  0
 10 12  2  0
 12 13  1  0
 11 14  1  0
 13 14  2  0
 13 15  1  0
 15 16  1  0
 15 17  2  0
M  END
