x0962_1_A_α-x0962_2_B_α
     RDKit          3D

 15 16  0  0  0  0  0  0  0  0999 V2000
   -3.3680   15.2040   -1.7430 N   0  0  0  0  0  0  0  0  0  0  0  0
   -4.2920   15.0980   -1.0570 C   0  0  0  0  0  0  0  0  0  0  0  0
   -5.4510   14.9180   -0.2440 C   0  0  0  0  0  0  0  0  0  0  0  0
   -5.3500   14.6440    1.0910 N   0  0  0  0  0  0  0  0  0  0  0  0
   -6.7650   14.9880   -0.6420 C   0  0  0  0  0  0  0  0  0  0  0  0
   -6.5910   14.5420    1.5170 C   0  0  0  0  0  0  0  0  0  0  0  0
   -7.4940   14.7470    0.4930 N   0  0  0  0  0  0  0  0  0  0  0  0
   -8.9500   14.7260    0.5720 C   0  0  0  0  0  0  0  0  0  0  0  0
   -9.5690   15.7500    1.5580 C   0  0  1  0  0  0  0  0  0  0  0  0
  -11.0280   15.7950    1.5460 N   0  0  0  0  0  0  0  0  0  0  0  0
   -9.0510   15.4850    2.9240 C   0  0  0  0  0  0  0  0  0  0  0  0
   -9.0520   16.3830    3.9690 N   0  0  0  0  0  0  0  0  0  0  0  0
   -8.4760   14.3490    3.4420 C   0  0  0  0  0  0  0  0  0  0  0  0
   -8.4790   15.7570    5.0410 C   0  0  0  0  0  0  0  0  0  0  0  0
   -8.1280   14.5250    4.7480 N   0  0  0  0  0  0  0  0  0  0  0  0
  1  2  3  0
  2  3  1  0
  3  4  1  0
  3  5  2  0
  4  6  2  0
  5  7  1  0
  6  7  1  0
  7  8  1  0
  8  9  1  0
  9 10  1  1
  9 11  1  0
 11 12  1  0
 11 13  2  0
 12 14  1  0
 13 15  1  0
 14 15  2  0
M  END
