x0962_3_A-x0524_0_A
     RDKit          3D

 23 25  0  0  0  0  0  0  0  0999 V2000
    1.2360   11.0200   -8.1400 N   0  0  0  0  0  0  0  0  0  0  0  0
   -0.0160   10.8010   -7.4300 C   0  0  1  0  0  0  0  0  0  0  0  0
   -1.2520   10.4770   -8.2910 C   0  0  2  0  0  0  0  0  0  0  0  0
   -0.2180    9.4630   -6.9770 C   0  0  0  0  0  0  0  0  0  0  0  0
   -0.9220    9.1410   -8.8740 N   0  0  0  0  0  0  0  0  0  0  0  0
   -1.5920   11.4930   -9.3230 C   0  0  0  0  0  0  0  0  0  0  0  0
    0.4780    8.3500   -7.3230 N   0  0  0  0  0  0  0  0  0  0  0  0
   -1.2030    9.0530   -6.1430 C   0  0  0  0  0  0  0  0  0  0  0  0
   -0.1210    7.3160   -6.6890 C   0  0  0  0  0  0  0  0  0  0  0  0
   -1.1450    7.7200   -5.9770 N   0  0  0  0  0  0  0  0  0  0  0  0
    0.2870    8.9390   -9.5720 C   0  0  0  0  0  0  0  0  0  0  0  0
    1.3540    8.0750   -9.2170 C   0  0  0  0  0  0  0  0  0  0  0  0
    0.4360    9.6750  -10.7320 C   0  0  0  0  0  0  0  0  0  0  0  0
    2.5060    7.9780  -10.0140 C   0  0  0  0  0  0  0  0  0  0  0  0
    1.5730    9.5770  -11.5190 C   0  0  0  0  0  0  0  0  0  0  0  0
    2.6260    8.7310  -11.1780 C   0  0  0  0  0  0  0  0  0  0  0  0
    3.7280    8.7050  -12.0370 N   0  0  0  0  0  0  0  0  0  0  0  0
    4.0610    9.5280  -13.1220 C   0  0  0  0  0  0  0  0  0  0  0  0
    3.3220   10.7060  -13.3440 C   0  0  0  0  0  0  0  0  0  0  0  0
    5.0990    9.2360  -14.0030 C   0  0  0  0  0  0  0  0  0  0  0  0
    3.6160   11.5540  -14.4070 C   0  0  0  0  0  0  0  0  0  0  0  0
    5.3970   10.0840  -15.0700 C   0  0  0  0  0  0  0  0  0  0  0  0
    4.6550   11.2440  -15.2720 C   0  0  0  0  0  0  0  0  0  0  0  0
  2  1  1  6
  2  3  1  0
  2  4  1  0
  3  5  1  0
  3  6  1  6
  4  7  1  0
  4  8  2  0
  7  9  1  0
  8 10  1  0
  9 10  2  0
  5 11  1  0
 11 12  2  0
 11 13  1  0
 12 14  1  0
 13 15  2  0
 14 16  2  0
 15 16  1  0
 16 17  1  0
 17 18  1  0
 18 19  2  0
 18 20  1  0
 19 21  1  0
 20 22  2  0
 21 23  2  0
 22 23  1  0
M  END
