x0967_0_A-x0910_1_A
     RDKit          3D

 10 11  0  0  0  0  0  0  0  0999 V2000
   -7.0980   14.6750   -0.7480 N   0  0  0  0  0  0  0  0  0  0  0  0
   -7.8640   14.5730    0.3620 C   0  0  0  0  0  0  0  0  0  0  0  0
   -7.3640   14.5900    1.6460 C   0  0  0  0  0  0  0  0  0  0  0  0
   -5.7760   14.8000   -0.6100 C   0  0  0  0  0  0  0  0  0  0  0  0
   -5.1840   14.8270    0.6690 C   0  0  0  0  0  0  0  0  0  0  0  0
   -5.0270   14.9000   -1.7060 N   0  0  0  0  0  0  0  0  0  0  0  0
   -5.9970   14.7230    1.7940 C   0  0  0  0  0  0  0  0  0  0  0  0
   -3.6910   15.0210   -1.5750 C   0  0  0  0  0  0  0  0  0  0  0  0
   -3.7970   14.9530    0.7870 C   0  0  0  0  0  0  0  0  0  0  0  0
   -3.0330   15.0500   -0.3590 C   0  0  0  0  0  0  0  0  0  0  0  0
  1  2  2  0
  2  3  1  0
  1  4  1  0
  4  5  2  0
  4  6  1  0
  3  7  2  0
  5  7  1  0
  6  8  2  0
  5  9  1  0
  8 10  1  0
  9 10  2  0
M  END
