x0969_0_A-x0950_1_A
     RDKit          3D

 19 20  0  0  0  0  0  0  0  0999 V2000
   -6.7470   14.8340    2.5500 N   0  0  0  0  0  0  0  0  0  0  0  0
   -6.5110   14.7690    1.2180 C   0  0  0  0  0  0  0  0  0  0  0  0
   -7.4170   14.6910    0.2690 N   0  0  0  0  0  0  0  0  0  0  0  0
   -5.2520   14.7820    0.6410 N   0  0  0  0  0  0  0  0  0  0  0  0
   -6.7730   14.6480   -0.9480 N   0  0  0  0  0  0  0  0  0  0  0  0
   -5.4770   14.6910   -0.7210 C   0  0  0  0  0  0  0  0  0  0  0  0
   -3.9790   14.8550    1.1990 C   0  0  0  0  0  0  0  0  0  0  0  0
   -4.3390   14.6390   -1.5820 C   0  0  0  0  0  0  0  0  0  0  0  0
   -2.9050   14.7980    0.3960 C   0  0  0  0  0  0  0  0  0  0  0  0
   -3.0870   14.6600   -1.0530 C   0  0  0  0  0  0  0  0  0  0  0  0
   -1.8320   14.5120   -1.9040 C   0  0  0  0  0  0  0  0  0  0  0  0
   -0.5840   14.1620   -1.0600 C   0  0  0  0  0  0  0  0  0  0  0  0
    0.7410   14.2740   -1.8210 C   0  0  0  0  0  0  0  0  0  0  0  0
    1.3570   12.9830   -2.0340 O   0  0  0  0  0  0  0  0  0  0  0  0
    0.8620   12.1510   -2.9940 C   0  0  0  0  0  0  0  0  0  0  0  0
    1.3330   12.5350   -4.4080 C   0  0  2  0  0  0  0  0  0  0  0  0
    0.1380   11.1850   -2.7770 O   0  0  0  0  0  0  0  0  0  0  0  0
    1.0370   13.9820   -4.7660 C   0  0  0  0  0  0  0  0  0  0  0  0
    0.6980   11.7110   -5.3890 O   0  0  0  0  0  0  0  0  0  0  0  0
  1  2  1  0
  2  3  2  0
  2  4  1  0
  3  5  1  0
  4  6  1  0
  5  6  2  0
  4  7  1  0
  6  8  1  0
  7  9  2  0
  8 10  2  0
  9 10  1  0
 10 11  1  0
 11 12  1  0
 12 13  1  0
 13 14  1  0
 14 15  1  0
 15 16  1  0
 15 17  2  0
 16 18  1  6
 16 19  1  0
M  END
