x0962_1_A_α-x0631_0_A_β
     RDKit          3D

 22 23  0  0  0  0  0  0  0  0999 V2000
   -3.1420   14.8590   -0.7820 N   0  0  0  0  0  0  0  0  0  0  0  0
   -4.4380   15.3230   -1.2600 C   0  0  1  0  0  0  0  0  0  0  0  0
   -4.6370   14.7530   -2.6700 C   0  0  0  0  0  0  0  0  0  0  0  0
   -5.5000   14.9580   -0.2890 C   0  0  0  0  0  0  0  0  0  0  0  0
   -3.4770   15.0620   -3.6340 C   0  0  0  0  0  0  0  0  0  0  0  0
   -5.3050   14.8930    1.0700 N   0  0  0  0  0  0  0  0  0  0  0  0
   -6.8290   14.6280   -0.4560 C   0  0  0  0  0  0  0  0  0  0  0  0
   -3.7750   14.7910   -5.1090 C   0  0  0  0  0  0  0  0  0  0  0  0
   -6.4900   14.5350    1.6470 C   0  0  0  0  0  0  0  0  0  0  0  0
   -7.4330   14.3680    0.7450 N   0  0  0  0  0  0  0  0  0  0  0  0
   -4.3120   13.3800   -5.3660 C   0  0  0  0  0  0  0  0  0  0  0  0
   -3.4000   12.4800   -6.1990 C   0  0  0  0  0  0  0  0  0  0  0  0
   -3.8420   11.0200   -6.3170 C   0  0  0  0  0  0  0  0  0  0  0  0
   -2.6940   10.0310   -6.1050 C   0  0  0  0  0  0  0  0  0  0  0  0
   -2.7040    8.8590   -7.0900 C   0  0  0  0  0  0  0  0  0  0  0  0
   -1.6040    7.8280   -6.8500 C   0  0  0  0  0  0  0  0  0  0  0  0
   -0.1990    8.4120   -6.7960 C   0  0  0  0  0  0  0  0  0  0  0  0
   -0.0790    9.5050   -7.7600 N   0  0  0  0  0  0  0  0  0  0  0  0
    0.8350    9.2280   -8.8390 N   0  0  0  0  0  0  0  0  0  0  0  0
    0.2560   10.7740   -7.2240 N   0  0  0  0  0  0  0  0  0  0  0  0
    1.0070   10.5690   -9.3550 C   0  0  0  0  0  0  0  0  0  0  0  0
    1.2010   11.3290   -8.1340 N   0  0  0  0  0  0  0  0  0  0  0  0
  2  1  1  1
  2  3  1  0
  2  4  1  0
  3  5  1  0
  4  6  1  0
  4  7  2  0
  5  8  1  0
  6  9  1  0
  7 10  1  0
  9 10  2  0
  8 11  1  0
 11 12  1  0
 12 13  1  0
 13 14  1  0
 14 15  1  0
 15 16  1  0
 16 17  1  0
 17 18  1  0
 18 19  1  0
 18 20  1  0
 19 21  1  0
 20 22  1  0
 21 22  1  0
M  END
