x0962_0_A_α-x0471_0_A_α
     RDKit          3D

 17 18  0  0  0  0  0  0  0  0999 V2000
   -2.8730   14.9960   -2.6280 N   0  0  0  0  0  0  0  0  0  0  0  0
   -3.4320   14.8180   -1.6250 C   0  0  0  0  0  0  0  0  0  0  0  0
   -4.0380   14.5620   -0.3130 C   0  0  1  0  0  0  0  0  0  0  0  0
   -3.2090   15.1100    0.7810 N   0  0  0  0  0  0  0  0  0  0  0  0
   -5.3970   15.2580   -0.0400 C   0  0  2  0  0  0  0  0  0  0  0  0
   -4.0940   14.9320    1.9070 C   0  0  0  0  0  0  0  0  0  0  0  0
   -5.4450   15.1890    1.4240 N   0  0  0  0  0  0  0  0  0  0  0  0
   -6.7070   14.6630   -0.4520 N   0  0  0  0  0  0  0  0  0  0  0  0
   -7.2810   13.9670    0.7290 C   0  0  1  0  0  0  0  0  0  0  0  0
   -6.3100   14.0910    1.7790 N   0  0  0  0  0  0  0  0  0  0  0  0
   -8.6490   14.4930    1.2610 C   0  0  0  0  0  0  0  0  0  0  0  0
   -8.7810   14.2090    2.7030 N   0  0  0  0  0  0  0  0  0  0  0  0
   -9.1950   15.2160    3.5620 C   0  0  0  0  0  0  0  0  0  0  0  0
   -9.5060   16.3220    3.1400 O   0  0  0  0  0  0  0  0  0  0  0  0
   -9.2780   14.8590    5.0540 C   0  0  0  0  0  0  0  0  0  0  0  0
   -9.5060   13.3650    5.2890 C   0  0  0  0  0  0  0  0  0  0  0  0
   -8.0750   15.3770    5.8420 C   0  0  0  0  0  0  0  0  0  0  0  0
  1  2  3  0
  3  2  1  6
  3  4  1  0
  3  5  1  0
  4  6  1  0
  5  7  1  0
  6  7  1  0
  5  8  1  6
  8  9  1  0
  7 10  1  0
  9 10  1  0
  9 11  1  1
 11 12  1  0
 12 13  1  0
 13 14  2  0
 13 15  1  0
 15 16  1  0
 15 17  1  0
M  END
