x0969_0_A_α-x0905_0_A_α
     RDKit          3D

 11 12  0  0  0  0  0  0  0  0999 V2000
   -6.3790   14.7410    2.8930 N   0  0  0  0  0  0  0  0  0  0  0  0
   -6.4610   14.7620    1.5550 C   0  0  0  0  0  0  0  0  0  0  0  0
   -7.5480   14.6620    0.8180 N   0  0  0  0  0  0  0  0  0  0  0  0
   -5.3570   14.9090    0.7520 N   0  0  0  0  0  0  0  0  0  0  0  0
   -7.1730   14.7540   -0.4960 N   0  0  0  0  0  0  0  0  0  0  0  0
   -5.8680   14.9040   -0.5240 C   0  0  0  0  0  0  0  0  0  0  0  0
   -4.0030   15.0450    1.0460 C   0  0  0  0  0  0  0  0  0  0  0  0
   -4.9660   15.0530   -1.5750 C   0  0  0  0  0  0  0  0  0  0  0  0
   -3.1320   15.1700    0.0340 C   0  0  0  0  0  0  0  0  0  0  0  0
   -5.5910   15.0510   -2.7770 O   0  0  0  0  0  0  0  0  0  0  0  0
   -3.6420   15.1810   -1.3360 C   0  0  0  0  0  0  0  0  0  0  0  0
  1  2  1  0
  2  3  2  0
  2  4  1  0
  3  5  1  0
  4  6  1  0
  5  6  2  0
  4  7  1  0
  6  8  1  0
  7  9  2  0
  8 10  1  0
  8 11  2  0
  9 11  1  0
M  END
