x0967_0_A-x1015_0_A
     RDKit          3D

 27 30  0  0  0  0  0  0  0  0999 V2000
   -1.1710   14.4670   -4.3900 C   0  0  0  0  0  0  0  0  0  0  0  0
   -2.4090   14.2290   -3.5150 C   0  0  0  0  0  0  0  0  0  0  0  0
   -2.9090   15.5160   -2.8460 C   0  0  0  0  0  0  0  0  0  0  0  0
    0.0700   13.6570   -3.9860 C   0  0  2  0  0  0  0  0  0  0  0  0
   -0.0990   12.2110   -3.9290 N   0  0  0  0  0  0  0  0  0  0  0  0
    0.4580   13.9410   -2.5380 C   0  0  0  0  0  0  0  0  0  0  0  0
    0.5490   15.0380   -2.0080 O   0  0  0  0  0  0  0  0  0  0  0  0
   -3.6900   15.3220   -1.5720 C   0  0  0  0  0  0  0  0  0  0  0  0
    0.2910   11.7090   -2.6760 C   0  0  0  0  0  0  0  0  0  0  0  0
    0.6890   12.7610   -1.9120 N   0  0  0  0  0  0  0  0  0  0  0  0
   -0.4890   11.4270   -5.0400 C   0  0  0  0  0  0  0  0  0  0  0  0
    0.3000   10.5440   -2.2720 O   0  0  0  0  0  0  0  0  0  0  0  0
   -5.0150   15.0620   -1.6750 N   0  0  0  0  0  0  0  0  0  0  0  0
   -3.0390   15.4140   -0.3470 C   0  0  0  0  0  0  0  0  0  0  0  0
    0.0690   11.6240   -6.3130 C   0  0  0  0  0  0  0  0  0  0  0  0
   -1.4550   10.4180   -4.9000 C   0  0  0  0  0  0  0  0  0  0  0  0
   -5.7460   14.8870   -0.5790 C   0  0  0  0  0  0  0  0  0  0  0  0
   -3.7860   15.2320    0.8040 C   0  0  0  0  0  0  0  0  0  0  0  0
   -0.3220   10.8420   -7.4030 C   0  0  0  0  0  0  0  0  0  0  0  0
   -1.8510    9.6350   -5.9850 C   0  0  0  0  0  0  0  0  0  0  0  0
   -7.0500   14.6370   -0.7150 N   0  0  0  0  0  0  0  0  0  0  0  0
   -5.1550   14.9660    0.6950 C   0  0  0  0  0  0  0  0  0  0  0  0
   -1.2820    9.8490   -7.2350 C   0  0  0  0  0  0  0  0  0  0  0  0
   -1.7710    8.8810   -8.5680 Cl  0  0  0  0  0  0  0  0  0  0  0  0
   -5.9570   14.7780    1.8200 C   0  0  0  0  0  0  0  0  0  0  0  0
   -7.8070   14.4580    0.3870 C   0  0  0  0  0  0  0  0  0  0  0  0
   -7.3110   14.5170    1.6730 C   0  0  0  0  0  0  0  0  0  0  0  0
  1  2  1  0
  2  3  1  0
  4  1  1  1
  4  5  1  0
  4  6  1  0
  6  7  2  0
  3  8  1  0
  5  9  1  0
  6 10  1  0
  9 10  1  0
  5 11  1  0
  9 12  2  0
  8 13  2  0
  8 14  1  0
 11 15  2  0
 11 16  1  0
 13 17  1  0
 14 18  2  0
 15 19  1  0
 16 20  2  0
 17 21  2  0
 17 22  1  0
 18 22  1  0
 19 23  2  0
 20 23  1  0
 23 24  1  0
 22 25  2  0
 21 26  1  0
 25 27  1  0
 26 27  2  0
M  END
