x0962_1_A-x1012_0_A
     RDKit          3D

 22 23  0  0  0  0  0  0  0  0999 V2000
   -3.2270   14.9090   -0.6480 N   0  0  0  0  0  0  0  0  0  0  0  0
   -4.4940   15.3790   -1.1810 C   0  0  1  0  0  0  0  0  0  0  0  0
   -4.6910   14.8710   -2.6160 C   0  0  0  0  0  0  0  0  0  0  0  0
   -5.5780   14.9880   -0.2490 C   0  0  0  0  0  0  0  0  0  0  0  0
   -3.3560   14.8780   -3.3840 C   0  0  0  0  0  0  0  0  0  0  0  0
   -5.3810   14.8840    1.1030 N   0  0  0  0  0  0  0  0  0  0  0  0
   -6.9050   14.6680   -0.4340 C   0  0  0  0  0  0  0  0  0  0  0  0
   -3.3440   15.5960   -4.7460 C   0  0  0  0  0  0  0  0  0  0  0  0
   -6.5660   14.5130    1.6720 C   0  0  0  0  0  0  0  0  0  0  0  0
   -7.5100   14.3750    0.7630 N   0  0  0  0  0  0  0  0  0  0  0  0
   -2.6530   16.8960   -4.6420 N   0  0  0  0  0  0  0  0  0  0  0  0
   -1.3820   16.9440   -4.7650 C   0  0  0  0  0  0  0  0  0  0  0  0
   -0.6180   18.0750   -4.7050 N   0  0  0  0  0  0  0  0  0  0  0  0
   -0.6440   15.7930   -4.9720 N   0  0  0  0  0  0  0  0  0  0  0  0
   -1.3110   14.4780   -5.0820 C   0  0  0  0  0  0  0  0  0  0  0  0
    0.8130   15.7610   -4.7250 C   0  0  0  0  0  0  0  0  0  0  0  0
   -1.0350   13.5990   -3.8830 C   0  0  0  0  0  0  0  0  0  0  0  0
    1.1810   14.7840   -3.6020 C   0  0  0  0  0  0  0  0  0  0  0  0
    0.4620   13.4230   -3.7390 C   0  0  0  0  0  0  0  0  0  0  0  0
    0.6980   12.5280   -2.5560 C   0  0  0  0  0  0  0  0  0  0  0  0
    0.2530   11.2630   -2.6950 O   0  0  0  0  0  0  0  0  0  0  0  0
    1.2310   12.8740   -1.5300 O   0  0  0  0  0  0  0  0  0  0  0  0
  2  1  1  1
  2  3  1  0
  2  4  1  0
  3  5  1  0
  4  6  1  0
  4  7  2  0
  5  8  1  0
  6  9  1  0
  7 10  1  0
  9 10  2  0
  8 11  1  0
 11 12  2  3
 12 13  1  0
 12 14  1  0
 14 15  1  0
 14 16  1  0
 15 17  1  0
 16 18  1  0
 17 19  1  0
 18 19  1  0
 19 20  1  0
 20 21  1  0
 20 22  2  0
M  END
