x0962_0_A-x0933_0_A
     RDKit          3D

  8  8  0  0  0  0  0  0  0  0999 V2000
   -2.6060   14.9160   -2.7010 N   0  0  0  0  0  0  0  0  0  0  0  0
   -3.1920   14.9730   -1.7010 C   0  0  0  0  0  0  0  0  0  0  0  0
   -3.8560   15.0130   -0.4390 C   0  0  0  0  0  0  0  0  0  0  0  0
   -3.1490   15.2820    0.7010 N   0  0  0  0  0  0  0  0  0  0  0  0
   -5.1930   14.8010   -0.1790 C   0  0  0  0  0  0  0  0  0  0  0  0
   -4.0500   15.2440    1.6460 C   0  0  0  0  0  0  0  0  0  0  0  0
   -5.2820   14.9470    1.1630 N   0  0  0  0  0  0  0  0  0  0  0  0
   -6.4180   14.8180    1.9660 N   0  0  0  0  0  0  0  0  0  0  0  0
  1  2  3  0
  2  3  1  0
  3  4  1  0
  3  5  2  0
  4  6  2  0
  5  7  1  0
  6  7  1  0
  7  8  1  0
M  END
