x0962_2_B_α-x0711_0_A_α
     RDKit          3D

 21 22  0  0  0  0  0  0  0  0999 V2000
  -10.3540   16.2150    0.6330 N   0  0  0  0  0  0  0  0  0  0  0  0
   -9.6830   15.9230    1.5340 C   0  0  0  0  0  0  0  0  0  0  0  0
   -8.9000   15.5950    2.6640 C   0  0  0  0  0  0  0  0  0  0  0  0
   -9.3100   15.9160    3.9330 N   0  0  0  0  0  0  0  0  0  0  0  0
   -7.6650   14.9600    2.8150 C   0  0  0  0  0  0  0  0  0  0  0  0
   -6.7460   14.4270    1.8820 N   0  0  0  0  0  0  0  0  0  0  0  0
   -8.3570   15.4770    4.7930 C   0  0  0  0  0  0  0  0  0  0  0  0
   -7.3850   14.9080    4.1500 N   0  0  0  0  0  0  0  0  0  0  0  0
   -6.7160   14.5990    0.4860 C   0  0  0  0  0  0  0  0  0  0  0  0
   -7.6880   14.6800   -0.2480 O   0  0  0  0  0  0  0  0  0  0  0  0
   -5.3600   14.6930   -0.2130 C   0  0  0  0  0  0  0  0  0  0  0  0
   -5.3500   15.0400   -1.5790 C   0  0  0  0  0  0  0  0  0  0  0  0
   -4.1230   14.4530    0.4150 C   0  0  0  0  0  0  0  0  0  0  0  0
   -4.1440   15.1470   -2.3000 C   0  0  0  0  0  0  0  0  0  0  0  0
   -2.9140   14.5600   -0.3120 C   0  0  0  0  0  0  0  0  0  0  0  0
   -2.9220   14.9080   -1.6680 C   0  0  0  0  0  0  0  0  0  0  0  0
   -1.7090   15.0490   -2.4360 N   0  0  0  0  0  0  0  0  0  0  0  0
   -0.7000   13.8360   -3.0120 S   0  0  0  0  0  0  0  0  0  0  0  0
   -1.8100   12.7620   -3.8940 C   0  0  0  0  0  0  0  0  0  0  0  0
    0.2140   14.4260   -3.9670 O   0  0  0  0  0  0  0  0  0  0  0  0
   -0.1960   13.1360   -1.8480 O   0  0  0  0  0  0  0  0  0  0  0  0
  1  2  3  0
  2  3  1  0
  3  4  1  0
  3  5  2  0
  5  6  1  0
  4  7  1  0
  5  8  1  0
  7  8  2  0
  6  9  1  0
  9 10  2  0
  9 11  1  0
 11 12  2  0
 11 13  1  0
 12 14  1  0
 13 15  2  0
 14 16  2  0
 15 16  1  0
 16 17  1  0
 18 17  1  0
 18 19  1  0
 18 20  2  0
 18 21  2  0
M  END
