x0962_0_A_α-5CMS_0_N_β
     RDKit          3D

 19 19  0  0  0  0  0  0  0  0999 V2000
   -2.0200   13.7310   -1.7920 N   0  0  0  0  0  0  0  0  0  0  0  0
   -3.0400   14.7210   -1.8870 C   0  0  2  0  0  0  0  0  0  0  0  0
   -2.5870   15.9690   -2.5140 C   0  0  0  0  0  0  0  0  0  0  0  0
   -3.7540   14.9020   -0.5540 C   0  0  0  0  0  0  0  0  0  0  0  0
   -1.2410   16.0500   -3.1770 C   0  0  0  0  0  0  0  0  0  0  0  0
   -3.2280   15.1660    0.6450 N   0  0  0  0  0  0  0  0  0  0  0  0
   -5.1170   14.8100   -0.3700 C   0  0  0  0  0  0  0  0  0  0  0  0
   -0.7410   17.2830   -3.8610 C   0  0  0  0  0  0  0  0  0  0  0  0
   -4.2260   15.2420    1.5790 C   0  0  0  0  0  0  0  0  0  0  0  0
   -5.3870   15.0150    0.9530 N   0  0  0  0  0  0  0  0  0  0  0  0
   -1.5630   18.1880   -4.4880 O   0  0  0  0  0  0  0  0  0  0  0  0
   -1.4880   18.0840   -6.0830 P   0  0  0  0  0  0  0  0  0  0  0  0
   -0.9870   19.5220   -6.5760 O   0  0  0  0  0  0  0  0  0  0  0  0
   -1.9960   16.6540   -6.0880 O   0  0  0  0  0  0  0  0  0  0  0  0
   -2.7980   18.3620   -7.0170 O   0  0  0  0  0  0  0  0  0  0  0  0
   -0.4580   19.8810   -8.0070 P   0  0  0  0  0  0  0  0  0  0  0  0
   -1.6610   20.8510   -8.4140 O   0  0  0  0  0  0  0  0  0  0  0  0
    0.9470   20.4470   -7.3730 O   0  0  0  0  0  0  0  0  0  0  0  0
   -0.4970   18.3060   -8.4860 O   0  0  0  0  0  0  0  0  0  0  0  0
  2  1  1  1
  2  3  1  0
  2  4  1  0
  3  5  1  0
  4  6  1  0
  4  7  2  0
  5  8  1  0
  6  9  1  0
  7 10  1  0
  9 10  2  0
  8 11  1  0
 11 12  1  0
 12 13  1  0
 12 14  1  0
 12 15  1  0
 13 16  1  0
 16 17  1  0
 16 18  1  0
 16 19  1  0
M  CHG  2  15  -1  18  -1
M  END
