x0962_2_B-x0689_0_A
     RDKit          3D

 17 18  0  0  0  0  0  0  0  0999 V2000
  -10.7790   16.5760    0.9240 N   0  0  0  0  0  0  0  0  0  0  0  0
  -10.0200   16.2280    1.7250 C   0  0  0  0  0  0  0  0  0  0  0  0
   -9.1330   15.7650    2.7180 C   0  0  0  0  0  0  0  0  0  0  0  0
   -9.1790   16.1310    4.0410 N   0  0  0  0  0  0  0  0  0  0  0  0
   -8.0710   14.8960    2.6110 C   0  0  0  0  0  0  0  0  0  0  0  0
   -7.5110   14.1810    1.4180 C   0  0  0  0  0  0  0  0  0  0  0  0
   -8.1680   15.4770    4.6750 C   0  0  0  0  0  0  0  0  0  0  0  0
   -7.5000   14.7300    3.8380 N   0  0  0  0  0  0  0  0  0  0  0  0
   -6.0500   13.7190    1.5800 C   0  0  0  0  0  0  0  0  0  0  0  0
   -4.9710   14.7410    1.1480 C   0  0  0  0  0  0  0  0  0  0  0  0
   -3.6950   14.3200    1.7010 N   0  0  0  0  0  0  0  0  0  0  0  0
   -2.5030   14.4620    1.0010 C   0  0  0  0  0  0  0  0  0  0  0  0
   -2.4410   14.5230   -0.3400 N   0  0  0  0  0  0  0  0  0  0  0  0
   -1.4370   14.5170    1.7880 N   0  0  0  0  0  0  0  0  0  0  0  0
   -1.2140   14.6440   -0.8870 C   0  0  0  0  0  0  0  0  0  0  0  0
   -0.2450   14.6400    1.2030 C   0  0  0  0  0  0  0  0  0  0  0  0
   -0.0580   14.7090   -0.1500 C   0  0  0  0  0  0  0  0  0  0  0  0
  1  2  3  0
  2  3  1  0
  3  4  1  0
  3  5  2  0
  5  6  1  0
  4  7  1  0
  5  8  1  0
  7  8  2  0
  6  9  1  0
  9 10  1  0
 10 11  1  0
 11 12  1  0
 12 13  2  0
 12 14  1  0
 13 15  1  0
 14 16  2  0
 15 17  2  0
 16 17  1  0
M  END
