x0962_2_B_α-x0895_0_A_α
     RDKit          3D

 16 17  0  0  0  0  0  0  0  0999 V2000
  -11.5250   16.3270    1.4630 N   0  0  0  0  0  0  0  0  0  0  0  0
  -10.5700   16.0190    2.0350 C   0  0  0  0  0  0  0  0  0  0  0  0
   -9.3410   15.6360    2.6200 C   0  0  0  0  0  0  0  0  0  0  0  0
   -8.9590   15.8820    3.9230 N   0  0  0  0  0  0  0  0  0  0  0  0
   -8.3890   14.9810    1.9270 C   0  0  0  0  0  0  0  0  0  0  0  0
   -7.7430   15.3660    4.0010 C   0  0  0  0  0  0  0  0  0  0  0  0
   -7.3770   14.8200    2.7870 N   0  0  0  0  0  0  0  0  0  0  0  0
   -6.1350   14.1840    2.4130 C   0  0  0  0  0  0  0  0  0  0  0  0
   -5.8230   14.2410    0.9060 C   0  0  0  0  0  0  0  0  0  0  0  0
   -4.6990   15.1100    0.5490 N   0  0  0  0  0  0  0  0  0  0  0  0
   -3.8090   15.6490    1.5370 C   0  0  0  0  0  0  0  0  0  0  0  0
   -3.9440   14.9560   -0.5940 C   0  0  0  0  0  0  0  0  0  0  0  0
   -4.3140   15.1270   -1.7380 O   0  0  0  0  0  0  0  0  0  0  0  0
   -2.5630   14.8670    1.1350 C   0  0  0  0  0  0  0  0  0  0  0  0
   -2.7050   14.5720   -0.1890 N   0  0  0  0  0  0  0  0  0  0  0  0
   -1.6080   14.5550    1.8340 O   0  0  0  0  0  0  0  0  0  0  0  0
  1  2  3  0
  2  3  1  0
  3  4  1  0
  3  5  2  0
  4  6  2  0
  5  7  1  0
  6  7  1  0
  7  8  1  0
  8  9  1  0
  9 10  1  0
 10 11  1  0
 10 12  1  0
 12 13  2  0
 11 14  1  0
 12 15  1  0
 14 15  1  0
 14 16  2  0
M  END
