x0962_0_A_α-x0900_1_A_α
     RDKit          3D

 18 19  0  0  0  0  0  0  0  0999 V2000
   -1.8240   14.8350   -1.7200 N   0  0  0  0  0  0  0  0  0  0  0  0
   -3.2040   14.4260   -1.8370 C   0  0  1  0  0  0  0  0  0  0  0  0
   -3.3350   12.9500   -2.3010 C   0  0  0  0  0  0  0  0  0  0  0  0
   -3.9510   14.7100   -0.5740 C   0  0  0  0  0  0  0  0  0  0  0  0
   -2.2590   12.3860   -3.2620 C   0  0  0  0  0  0  0  0  0  0  0  0
   -3.3630   15.0890    0.6080 N   0  0  0  0  0  0  0  0  0  0  0  0
   -5.2990   14.6670   -0.2840 C   0  0  0  0  0  0  0  0  0  0  0  0
   -2.3610   10.9130   -3.7020 C   0  0  0  0  0  0  0  0  0  0  0  0
   -4.3570   15.2530    1.5320 C   0  0  0  0  0  0  0  0  0  0  0  0
   -5.5390   14.9930    1.0150 N   0  0  0  0  0  0  0  0  0  0  0  0
   -1.3690   10.5220   -4.8130 C   0  0  0  0  0  0  0  0  0  0  0  0
   -1.8240   10.7840   -6.2670 C   0  0  0  0  0  0  0  0  0  0  0  0
   -1.9190    9.6120   -7.2620 C   0  0  1  0  0  0  0  0  0  0  0  0
   -0.9000    9.5520   -8.3850 C   0  0  0  0  0  0  0  0  0  0  0  0
   -1.7440    8.2280   -6.6380 C   0  0  0  0  0  0  0  0  0  0  0  0
   -0.9630   10.0360   -9.5050 O   0  0  0  0  0  0  0  0  0  0  0  0
    0.1470    8.8030   -7.8940 N   0  0  0  0  0  0  0  0  0  0  0  0
   -0.2610    7.9540   -6.8070 C   0  0  0  0  0  0  0  0  0  0  0  0
  2  1  1  1
  2  3  1  0
  2  4  1  0
  3  5  1  0
  4  6  1  0
  4  7  2  0
  5  8  1  0
  6  9  1  0
  7 10  1  0
  9 10  2  0
  8 11  1  0
 11 12  1  0
 13 12  1  1
 13 14  1  0
 13 15  1  0
 14 16  2  0
 14 17  1  0
 15 18  1  0
 17 18  1  0
M  END
