x0962_3_A-x0864_0_A
     RDKit          3D

 18 19  0  0  0  0  0  0  0  0999 V2000
    0.9160   11.3490   -7.2760 C   0  0  0  0  0  0  0  0  0  0  0  0
    1.0270   10.3360   -7.7730 C   0  0  0  0  0  0  0  0  0  0  0  0
    0.4490    9.1230   -8.0100 C   0  0  0  0  0  0  0  0  0  0  0  0
    0.0780   12.2650   -6.5820 C   0  0  2  0  0  0  0  0  0  0  0  0
    0.0140   11.9690   -5.1480 N   0  0  0  0  0  0  0  0  0  0  0  0
   -1.2990   11.9880   -7.2200 C   0  0  0  0  0  0  0  0  0  0  0  0
    1.0000   12.6840   -4.3180 C   0  0  0  0  0  0  0  0  0  0  0  0
    0.5340    8.3240   -9.0910 N   0  0  0  0  0  0  0  0  0  0  0  0
   -0.3810    8.5000   -7.1280 C   0  0  0  0  0  0  0  0  0  0  0  0
   -0.6320   10.8250   -4.7140 C   0  0  0  0  0  0  0  0  0  0  0  0
   -2.1400   10.8310   -6.6360 C   0  0  1  0  0  0  0  0  0  0  0  0
    0.8980   12.3170   -2.8450 C   0  0  0  0  0  0  0  0  0  0  0  0
   -2.4650    9.3660   -7.8980 Br  0  0  0  0  0  0  0  0  0  0  0  0
   -0.2600    7.2440   -8.8210 C   0  0  0  0  0  0  0  0  0  0  0  0
   -0.8290    7.3240   -7.6400 N   0  0  0  0  0  0  0  0  0  0  0  0
   -1.6370   10.2550   -5.3680 C   0  0  0  0  0  0  0  0  0  0  0  0
    0.4720   11.0570   -2.6310 O   0  0  0  0  0  0  0  0  0  0  0  0
    1.1590   13.0320   -1.8970 O   0  0  0  0  0  0  0  0  0  0  0  0
  1  2  3  0
  2  3  1  0
  4  1  1  6
  4  5  1  0
  4  6  1  0
  5  7  1  0
  3  8  1  0
  3  9  2  0
  5 10  1  0
  6 11  1  0
  7 12  1  0
 11 13  1  6
  8 14  1  0
  9 15  1  0
 14 15  2  0
 10 16  2  0
 11 16  1  0
 12 17  1  0
 12 18  2  0
M  END
