x0962_0_A-x0910_1_A
     RDKit          3D

  8  8  0  0  0  0  0  0  0  0999 V2000
   -2.4130   14.8900   -2.3310 N   0  0  0  0  0  0  0  0  0  0  0  0
   -3.1190   14.9450   -1.4120 C   0  0  0  0  0  0  0  0  0  0  0  0
   -3.9930   14.9490   -0.2820 C   0  0  0  0  0  0  0  0  0  0  0  0
   -3.5670   15.3120    0.9740 N   0  0  0  0  0  0  0  0  0  0  0  0
   -5.3230   14.6030   -0.2840 C   0  0  0  0  0  0  0  0  0  0  0  0
   -4.6400   15.1790    1.7320 C   0  0  0  0  0  0  0  0  0  0  0  0
   -5.7200   14.7510    1.0020 N   0  0  0  0  0  0  0  0  0  0  0  0
   -7.0310   14.4930    1.4680 N   0  0  0  0  0  0  0  0  0  0  0  0
  1  2  3  0
  2  3  1  0
  3  4  1  0
  3  5  2  0
  4  6  2  0
  5  7  1  0
  6  7  1  0
  7  8  1  0
M  END
