x0962_3_A_α-x0926_0_A_α
     RDKit          3D

 20 21  0  0  0  0  0  0  0  0999 V2000
    0.7560   11.5770   -8.6790 N   0  0  0  0  0  0  0  0  0  0  0  0
    0.9610   10.8840   -7.4440 C   0  0  1  0  0  0  0  0  0  0  0  0
    0.9440   11.7270   -6.1280 C   0  0  0  0  0  0  0  0  0  0  0  0
   -0.0420    9.8160   -7.4680 C   0  0  0  0  0  0  0  0  0  0  0  0
    0.1240   13.0060   -5.9930 C   0  0  0  0  0  0  0  0  0  0  0  0
    0.1120    8.6320   -8.1460 N   0  0  0  0  0  0  0  0  0  0  0  0
   -1.2730    9.7340   -6.8770 C   0  0  0  0  0  0  0  0  0  0  0  0
    0.2590   13.7440   -4.6570 C   0  0  0  0  0  0  0  0  0  0  0  0
   -1.0170    7.9000   -7.9370 C   0  0  0  0  0  0  0  0  0  0  0  0
   -1.8710    8.5430   -7.1760 N   0  0  0  0  0  0  0  0  0  0  0  0
   -0.8500   14.7540   -4.3640 C   0  0  0  0  0  0  0  0  0  0  0  0
   -1.4030   14.5700   -2.9480 C   0  0  0  0  0  0  0  0  0  0  0  0
   -2.9020   14.8560   -2.9090 C   0  0  0  0  0  0  0  0  0  0  0  0
   -3.3910   15.1220   -1.5500 N   0  0  0  0  0  0  0  0  0  0  0  0
   -2.6860   14.8630   -0.3910 C   0  0  0  0  0  0  0  0  0  0  0  0
   -4.7700   15.3580   -1.4920 N   0  0  0  0  0  0  0  0  0  0  0  0
   -3.2310   14.9100    0.8270 C   0  0  0  0  0  0  0  0  0  0  0  0
   -5.4640   15.2110   -0.3240 C   0  0  0  0  0  0  0  0  0  0  0  0
   -6.6860   15.0440   -0.3500 O   0  0  0  0  0  0  0  0  0  0  0  0
   -4.6700   15.2520    0.9790 C   0  0  0  0  0  0  0  0  0  0  0  0
  2  1  1  6
  2  3  1  0
  2  4  1  0
  3  5  1  0
  4  6  1  0
  4  7  2  0
  5  8  1  0
  6  9  1  0
  7 10  1  0
  9 10  2  0
  8 11  1  0
 11 12  1  0
 12 13  1  0
 13 14  1  0
 14 15  1  0
 14 16  1  0
 15 17  2  0
 16 18  1  0
 18 19  2  0
 17 20  1  0
 18 20  1  0
M  END
