x0962_1_A-x0967_0_A
     RDKit          3D

 12 13  0  0  0  0  0  0  0  0999 V2000
   -4.3720   14.1680   -3.0070 N   0  0  0  0  0  0  0  0  0  0  0  0
   -4.9620   14.0570   -2.0220 C   0  0  0  0  0  0  0  0  0  0  0  0
   -5.5650   14.0310   -0.7010 C   0  0  2  0  0  0  0  0  0  0  0  0
   -7.0580   13.8990   -0.5590 C   0  0  0  0  0  0  0  0  0  0  0  0
   -5.3140   15.4020   -0.2350 C   0  0  1  0  0  0  0  0  0  0  0  0
   -5.1450   15.2750    1.1790 N   0  0  0  0  0  0  0  0  0  0  0  0
   -7.4200   14.4420    0.7660 N   0  0  0  0  0  0  0  0  0  0  0  0
   -4.2240   15.8390   -1.0590 N   0  0  0  0  0  0  0  0  0  0  0  0
   -6.2720   14.5010    1.7060 C   0  0  0  0  0  0  0  0  0  0  0  0
   -3.0970   15.1290   -0.8980 C   0  0  0  0  0  0  0  0  0  0  0  0
   -3.8100   14.6950    1.4670 C   0  0  0  0  0  0  0  0  0  0  0  0
   -2.8540   14.5680    0.2840 C   0  0  0  0  0  0  0  0  0  0  0  0
  1  2  3  0
  3  2  1  6
  3  4  1  0
  3  5  1  0
  5  6  1  0
  4  7  1  0
  5  8  1  6
  6  9  1  0
  7  9  1  0
  8 10  1  0
  6 11  1  0
 10 12  2  0
 11 12  1  0
M  END
