x0969_0_A_α-x0852_0_B_α
     RDKit          3D

 22 24  0  0  0  0  0  0  0  0999 V2000
   -6.8480   14.8050    2.4080 N   0  0  0  0  0  0  0  0  0  0  0  0
   -6.5640   14.4500    1.0510 C   0  0  1  0  0  0  0  0  0  0  0  0
   -7.7720   14.4940    0.1110 N   0  0  0  0  0  0  0  0  0  0  0  0
   -5.3890   14.9890    0.3980 N   0  0  0  0  0  0  0  0  0  0  0  0
   -8.7110   15.6320    0.3500 C   0  0  0  0  0  0  0  0  0  0  0  0
   -7.0940   14.7730   -1.2430 N   0  0  0  0  0  0  0  0  0  0  0  0
   -5.6870   14.4780   -0.9140 C   0  0  1  0  0  0  0  0  0  0  0  0
   -4.0780   14.9710    0.8370 C   0  0  0  0  0  0  0  0  0  0  0  0
  -10.2240   15.3770    0.4730 C   0  0  0  0  0  0  0  0  0  0  0  0
   -4.6400   14.9460   -1.8770 C   0  0  0  0  0  0  0  0  0  0  0  0
   -3.0690   15.0760   -0.0390 C   0  0  0  0  0  0  0  0  0  0  0  0
  -10.7680   16.0760    1.6120 O   0  0  0  0  0  0  0  0  0  0  0  0
   -3.3950   15.2170   -1.4500 C   0  0  0  0  0  0  0  0  0  0  0  0
  -10.0460   15.9790    2.7870 C   0  0  0  0  0  0  0  0  0  0  0  0
   -9.1270   14.9220    2.7970 C   0  0  0  0  0  0  0  0  0  0  0  0
  -10.1350   16.7840    3.9290 C   0  0  0  0  0  0  0  0  0  0  0  0
   -8.3110   14.6610    3.9040 C   0  0  0  0  0  0  0  0  0  0  0  0
   -9.3210   16.5210    5.0500 C   0  0  0  0  0  0  0  0  0  0  0  0
   -9.4600   17.3520    6.2070 C   0  0  0  0  0  0  0  0  0  0  0  0
   -8.4070   15.4620    5.0310 C   0  0  0  0  0  0  0  0  0  0  0  0
   -9.6470   17.9510    7.1840 N   0  0  0  0  0  0  0  0  0  0  0  0
   -7.6090   15.2100    6.1230 O   0  0  0  0  0  0  0  0  0  0  0  0
  2  1  1  1
  2  3  1  0
  2  4  1  0
  3  5  1  0
  3  6  1  0
  4  7  1  0
  6  7  1  0
  4  8  1  0
  5  9  1  0
  7 10  1  6
  8 11  2  0
  9 12  1  0
 10 13  2  0
 11 13  1  0
 12 14  1  0
 14 15  2  0
 14 16  1  0
 15 17  1  0
 16 18  2  0
 18 19  1  0
 17 20  2  0
 18 20  1  0
 19 21  3  0
 20 22  1  0
M  END
