x0962_0_A-x0465_0_A
     RDKit          3D

 23 24  0  0  0  0  0  0  0  0999 V2000
   -2.9210   14.8840   -2.5080 N   0  0  0  0  0  0  0  0  0  0  0  0
   -2.5310   15.1770   -1.1330 C   0  0  2  0  0  0  0  0  0  0  0  0
   -1.4390   14.2330   -0.5970 C   0  0  0  0  0  0  0  0  0  0  0  0
   -3.7030   15.1670   -0.2360 C   0  0  0  0  0  0  0  0  0  0  0  0
    0.0140   14.7080   -0.6630 C   0  0  0  0  0  0  0  0  0  0  0  0
   -3.5850   15.4350    1.0940 N   0  0  0  0  0  0  0  0  0  0  0  0
   -5.0440   14.9240   -0.4270 C   0  0  0  0  0  0  0  0  0  0  0  0
    0.9690   13.6470   -1.1990 C   0  0  0  0  0  0  0  0  0  0  0  0
   -4.8160   15.3490    1.6470 C   0  0  0  0  0  0  0  0  0  0  0  0
   -5.7270   15.0350    0.7520 N   0  0  0  0  0  0  0  0  0  0  0  0
    0.8630   13.5850   -2.6370 N   0  0  0  0  0  0  0  0  0  0  0  0
    0.7050   12.5240   -3.3390 C   0  0  0  0  0  0  0  0  0  0  0  0
    0.6030   12.5440   -4.8530 C   0  0  1  0  0  0  0  0  0  0  0  0
    0.6200   11.2980   -2.7560 O   0  0  0  0  0  0  0  0  0  0  0  0
    1.8720   13.2040   -5.3390 C   0  0  0  0  0  0  0  0  0  0  0  0
    0.5940   11.2450   -5.4320 O   0  0  0  0  0  0  0  0  0  0  0  0
   -0.6290   10.6760   -5.6130 C   0  0  0  0  0  0  0  0  0  0  0  0
   -0.7280    9.6780   -6.5860 C   0  0  0  0  0  0  0  0  0  0  0  0
   -1.7600   11.0380   -4.8820 C   0  0  0  0  0  0  0  0  0  0  0  0
    0.3460    9.3180   -7.3040 F   0  0  0  0  0  0  0  0  0  0  0  0
   -1.9350    9.0390   -6.8300 C   0  0  0  0  0  0  0  0  0  0  0  0
   -2.9750   10.3980   -5.1270 C   0  0  0  0  0  0  0  0  0  0  0  0
   -3.0630    9.3990   -6.0980 C   0  0  0  0  0  0  0  0  0  0  0  0
  2  1  1  6
  2  3  1  0
  2  4  1  0
  3  5  1  0
  4  6  1  0
  4  7  2  0
  5  8  1  0
  6  9  1  0
  7 10  1  0
  9 10  2  0
  8 11  1  0
 11 12  2  3
 12 13  1  0
 12 14  1  0
 13 15  1  6
 13 16  1  0
 16 17  1  0
 17 18  2  0
 17 19  1  0
 18 20  1  0
 18 21  1  0
 19 22  2  0
 21 23  2  0
 22 23  1  0
M  END
