x0969_0_A-x0926_0_A
     RDKit          3D

 11 12  0  0  0  0  0  0  0  0999 V2000
   -6.5200   15.0150    2.5070 N   0  0  0  0  0  0  0  0  0  0  0  0
   -6.4830   14.2250    1.3390 C   0  0  1  0  0  0  0  0  0  0  0  0
   -7.6600   14.6080    0.5700 N   0  0  0  0  0  0  0  0  0  0  0  0
   -5.3530   14.6120    0.5500 N   0  0  0  0  0  0  0  0  0  0  0  0
   -7.1880   14.9990   -0.7840 N   0  0  0  0  0  0  0  0  0  0  0  0
   -5.7970   15.3950   -0.5700 C   0  0  2  0  0  0  0  0  0  0  0  0
   -4.1080   15.0970    1.1090 C   0  0  0  0  0  0  0  0  0  0  0  0
   -4.8820   14.9880   -1.6730 C   0  0  0  0  0  0  0  0  0  0  0  0
   -3.0940   15.1340   -0.0170 C   0  0  0  0  0  0  0  0  0  0  0  0
   -5.2860   14.5950   -2.7390 O   0  0  0  0  0  0  0  0  0  0  0  0
   -3.4260   15.0860   -1.3310 C   0  0  0  0  0  0  0  0  0  0  0  0
  2  1  1  1
  2  3  1  0
  2  4  1  0
  3  5  1  0
  4  6  1  0
  6  5  1  6
  4  7  1  0
  6  8  1  0
  7  9  1  0
  8 10  2  0
  8 11  1  0
  9 11  2  0
M  END
