x0962_0_A-x0587_0_A
     RDKit          3D

 13 13  0  0  0  0  0  0  0  0999 V2000
   -2.3940   14.4840   -1.2060 N   0  0  0  0  0  0  0  0  0  0  0  0
   -3.7340   15.1120   -1.3120 C   0  0  1  0  0  0  0  0  0  0  0  0
   -4.6520   14.4620   -2.3330 C   0  0  0  0  0  0  0  0  0  0  0  0
   -4.4770   15.1180   -0.0180 C   0  0  0  0  0  0  0  0  0  0  0  0
   -4.3810   13.1470   -2.4770 F   0  0  0  0  0  0  0  0  0  0  0  0
   -4.4910   15.0620   -3.5310 F   0  0  0  0  0  0  0  0  0  0  0  0
   -3.8770   15.3910    1.1730 N   0  0  0  0  0  0  0  0  0  0  0  0
   -5.8320   14.8690    0.1640 C   0  0  0  0  0  0  0  0  0  0  0  0
   -4.8560   15.3220    2.0570 C   0  0  0  0  0  0  0  0  0  0  0  0
   -6.1050   15.0010    1.5140 N   0  0  0  0  0  0  0  0  0  0  0  0
   -7.3500   14.8750    2.2580 C   0  0  0  0  0  0  0  0  0  0  0  0
   -7.2260   14.9440    3.6080 N   0  0  0  0  0  0  0  0  0  0  0  0
   -8.4420   14.7480    1.7020 O   0  0  0  0  0  0  0  0  0  0  0  0
  2  1  1  1
  2  3  1  0
  2  4  1  0
  3  5  1  0
  3  6  1  0
  4  7  1  0
  4  8  2  0
  7  9  2  0
  8 10  1  0
  9 10  1  0
 10 11  1  0
 11 12  1  0
 11 13  2  0
M  END
