x0969_0_A-x0926_0_A
     RDKit          3D

 11 12  0  0  0  0  0  0  0  0999 V2000
   -6.5220   15.0040    2.5090 N   0  0  0  0  0  0  0  0  0  0  0  0
   -6.4840   14.2200    1.3340 C   0  0  1  0  0  0  0  0  0  0  0  0
   -7.6610   14.6090    0.5660 N   0  0  0  0  0  0  0  0  0  0  0  0
   -5.3520   14.6040    0.5440 N   0  0  0  0  0  0  0  0  0  0  0  0
   -7.1830   14.9990   -0.7870 N   0  0  0  0  0  0  0  0  0  0  0  0
   -5.7950   15.3940   -0.5730 C   0  0  2  0  0  0  0  0  0  0  0  0
   -4.1050   15.0990    1.1010 C   0  0  0  0  0  0  0  0  0  0  0  0
   -4.8810   14.9920   -1.6800 C   0  0  0  0  0  0  0  0  0  0  0  0
   -3.0940   15.1400   -0.0250 C   0  0  0  0  0  0  0  0  0  0  0  0
   -5.2910   14.6000   -2.7470 O   0  0  0  0  0  0  0  0  0  0  0  0
   -3.4280   15.0960   -1.3390 C   0  0  0  0  0  0  0  0  0  0  0  0
  2  1  1  1
  2  3  1  0
  2  4  1  0
  3  5  1  0
  4  6  1  0
  6  5  1  6
  4  7  1  0
  6  8  1  0
  7  9  1  0
  8 10  2  0
  8 11  1  0
  9 11  2  0
M  END
