x0962_0_A-x0849_0_A
     RDKit          3D

 12 13  0  0  0  0  0  0  0  0999 V2000
   -2.6200   13.5500   -2.4410 N   0  0  0  0  0  0  0  0  0  0  0  0
   -3.1530   13.8840   -1.4730 C   0  0  0  0  0  0  0  0  0  0  0  0
   -3.7420   14.4120   -0.3240 C   0  0  0  0  0  0  0  0  0  0  0  0
   -2.9210   15.0350    0.7220 C   0  0  1  0  0  0  0  0  0  0  0  0
   -5.0440   14.4850   -0.0560 C   0  0  0  0  0  0  0  0  0  0  0  0
   -4.1330   15.4730    1.5570 C   0  0  0  0  0  0  0  0  0  0  0  0
   -5.3130   15.1270    1.1100 N   0  0  0  0  0  0  0  0  0  0  0  0
   -1.9960   14.1960    1.4950 N   0  0  0  0  0  0  0  0  0  0  0  0
   -2.1620   15.9810   -0.1250 C   0  0  0  0  0  0  0  0  0  0  0  0
   -0.6310   14.1370    1.2500 C   0  0  0  0  0  0  0  0  0  0  0  0
   -0.8370   15.9370   -0.2960 C   0  0  0  0  0  0  0  0  0  0  0  0
   -0.0400   14.9600    0.3810 C   0  0  0  0  0  0  0  0  0  0  0  0
  1  2  3  0
  2  3  1  0
  4  3  1  0
  3  5  2  0
  4  6  1  1
  5  7  1  0
  6  7  2  0
  4  8  1  0
  4  9  1  0
  8 10  1  0
  9 11  2  0
 10 12  2  0
 11 12  1  0
M  END
