x0967_0_A-x0689_0_A
     RDKit          3D

 18 20  0  0  0  0  0  0  0  0999 V2000
   -3.0410   14.2330    1.9310 N   0  0  0  0  0  0  0  0  0  0  0  0
   -3.8520   15.3690    1.7160 C   0  0  0  0  0  0  0  0  0  0  0  0
   -4.4690   15.1880    0.4140 C   0  0  0  0  0  0  0  0  0  0  0  0
   -1.9670   14.3390    1.1210 C   0  0  0  0  0  0  0  0  0  0  0  0
   -2.0880   13.9230   -0.1450 N   0  0  0  0  0  0  0  0  0  0  0  0
   -0.8990   14.8600    1.6290 N   0  0  0  0  0  0  0  0  0  0  0  0
   -5.7960   14.8650    0.3600 C   0  0  0  0  0  0  0  0  0  0  0  0
   -3.7330   15.3370   -0.7500 C   0  0  0  0  0  0  0  0  0  0  0  0
   -1.0100   14.0750   -0.9290 C   0  0  0  0  0  0  0  0  0  0  0  0
    0.1470   15.0020    0.8210 C   0  0  0  0  0  0  0  0  0  0  0  0
   -6.3820   14.7030   -0.8920 C   0  0  0  0  0  0  0  0  0  0  0  0
   -6.5650   14.6970    1.5230 C   0  0  0  0  0  0  0  0  0  0  0  0
   -4.3760   15.1590   -1.9390 C   0  0  0  0  0  0  0  0  0  0  0  0
    0.1600   14.6220   -0.4880 C   0  0  0  0  0  0  0  0  0  0  0  0
   -7.6680   14.3980   -0.9850 N   0  0  0  0  0  0  0  0  0  0  0  0
   -7.8940   14.3820    1.4190 C   0  0  0  0  0  0  0  0  0  0  0  0
   -5.6820   14.8480   -2.0220 N   0  0  0  0  0  0  0  0  0  0  0  0
   -8.3950   14.2450    0.1460 C   0  0  0  0  0  0  0  0  0  0  0  0
  1  2  1  0
  2  3  1  0
  1  4  1  0
  4  5  2  0
  4  6  1  0
  3  7  1  0
  3  8  2  0
  5  9  1  0
  6 10  2  0
  7 11  2  0
  7 12  1  0
  8 13  1  0
  9 14  2  0
 10 14  1  0
 11 15  1  0
 12 16  2  0
 11 17  1  0
 13 17  2  0
 15 18  2  0
 16 18  1  0
M  END
