x0969_0_A_α-x0662_0_A_β
     RDKit          3D

 24 26  0  0  0  0  0  0  0  0999 V2000
   -6.7560   14.8800    2.5050 N   0  0  0  0  0  0  0  0  0  0  0  0
   -6.5520   14.8010    1.1700 C   0  0  0  0  0  0  0  0  0  0  0  0
   -7.4750   14.6870    0.2380 N   0  0  0  0  0  0  0  0  0  0  0  0
   -5.3020   14.8340    0.5750 N   0  0  0  0  0  0  0  0  0  0  0  0
   -6.8470   14.6320   -0.9910 N   0  0  0  0  0  0  0  0  0  0  0  0
   -5.5460   14.7080   -0.7820 C   0  0  0  0  0  0  0  0  0  0  0  0
   -4.0210   14.9510    1.1110 C   0  0  0  0  0  0  0  0  0  0  0  0
   -4.4240   14.6560   -1.6560 C   0  0  0  0  0  0  0  0  0  0  0  0
   -2.9690   14.8880    0.2930 C   0  0  0  0  0  0  0  0  0  0  0  0
   -3.1710   14.7070   -1.1400 C   0  0  0  0  0  0  0  0  0  0  0  0
   -1.9190   14.5520   -1.9780 C   0  0  0  0  0  0  0  0  0  0  0  0
   -1.1960   13.2220   -1.6940 C   0  0  0  0  0  0  0  0  0  0  0  0
   -1.4160   12.0710   -2.6830 C   0  0  0  0  0  0  0  0  0  0  0  0
   -0.1610   11.7060   -3.4690 C   0  0  0  0  0  0  0  0  0  0  0  0
   -0.4410   10.9900   -4.7130 N   0  0  0  0  0  0  0  0  0  0  0  0
    0.2270   11.3500   -5.7620 C   0  0  0  0  0  0  0  0  0  0  0  0
    1.0830   12.2410   -5.9250 O   0  0  0  0  0  0  0  0  0  0  0  0
   -0.0080   10.5630   -7.0530 C   0  0  0  0  0  0  0  0  0  0  0  0
    0.7960   10.8660   -8.1590 C   0  0  0  0  0  0  0  0  0  0  0  0
   -0.9660    9.5500   -7.2120 C   0  0  0  0  0  0  0  0  0  0  0  0
    0.6660   10.2040   -9.3840 C   0  0  0  0  0  0  0  0  0  0  0  0
   -1.1080    8.8750   -8.4290 C   0  0  0  0  0  0  0  0  0  0  0  0
    1.4890   10.5440  -10.4710 N   0  0  0  0  0  0  0  0  0  0  0  0
   -0.2920    9.2040   -9.5120 C   0  0  0  0  0  0  0  0  0  0  0  0
  1  2  1  0
  2  3  2  0
  2  4  1  0
  3  5  1  0
  4  6  1  0
  5  6  2  0
  4  7  1  0
  6  8  1  0
  7  9  2  0
  8 10  2  0
  9 10  1  0
 10 11  1  0
 11 12  1  0
 12 13  1  0
 13 14  1  0
 14 15  1  0
 15 16  2  3
 16 17  1  0
 16 18  1  0
 18 19  2  0
 18 20  1  0
 19 21  1  0
 20 22  2  0
 21 23  1  0
 21 24  2  0
 22 24  1  0
M  CHG  1  17  -1
M  END
