x0969_0_A-x0895_0_A
     RDKit          3D

 11 12  0  0  0  0  0  0  0  0999 V2000
   -6.6300   13.4380    1.9850 N   0  0  0  0  0  0  0  0  0  0  0  0
   -6.4390   14.6600    1.2980 C   0  0  2  0  0  0  0  0  0  0  0  0
   -7.5150   14.7420    0.3150 N   0  0  0  0  0  0  0  0  0  0  0  0
   -5.2160   14.5820    0.5500 N   0  0  0  0  0  0  0  0  0  0  0  0
   -6.8510   14.7970   -1.0200 N   0  0  0  0  0  0  0  0  0  0  0  0
   -5.5290   15.2850   -0.6620 C   0  0  2  0  0  0  0  0  0  0  0  0
   -4.0470   15.2220    1.1630 C   0  0  0  0  0  0  0  0  0  0  0  0
   -4.4150   15.1830   -1.6410 C   0  0  0  0  0  0  0  0  0  0  0  0
   -2.8710   14.9670    0.2460 C   0  0  0  0  0  0  0  0  0  0  0  0
   -1.7450   14.6860    0.6850 O   0  0  0  0  0  0  0  0  0  0  0  0
   -3.1340   15.0340   -1.2320 C   0  0  0  0  0  0  0  0  0  0  0  0
  2  1  1  6
  2  3  1  0
  2  4  1  0
  3  5  1  0
  4  6  1  0
  5  6  1  0
  4  7  1  0
  6  8  1  6
  7  9  1  0
  9 10  2  0
  8 11  2  0
  9 11  1  0
M  END
