x0967_0_A-x0766_0_A
     RDKit          3D

 21 24  0  0  0  0  0  0  0  0999 V2000
    0.5310   12.1830   -2.8140 C   0  0  0  0  0  0  0  0  0  0  0  0
   -0.1320   11.0140   -2.9380 O   0  0  0  0  0  0  0  0  0  0  0  0
    1.4010   12.3290   -1.9810 O   0  0  0  0  0  0  0  0  0  0  0  0
    0.0960   13.2820   -3.7670 C   0  0  2  0  0  0  0  0  0  0  0  0
    1.2450   13.6470   -4.7330 C   0  0  0  0  0  0  0  0  0  0  0  0
   -0.1600   14.5760   -2.9730 C   0  0  1  0  0  0  0  0  0  0  0  0
    1.4350   15.1650   -4.6240 C   0  0  0  0  0  0  0  0  0  0  0  0
    0.1860   15.6940   -3.9450 C   0  0  0  0  0  0  0  0  0  0  0  0
   -1.4280   14.6440   -2.1710 C   0  0  0  0  0  0  0  0  0  0  0  0
   -2.7710   14.6250   -2.7700 C   0  0  0  0  0  0  0  0  0  0  0  0
   -1.5520   14.7350   -0.8290 C   0  0  0  0  0  0  0  0  0  0  0  0
   -3.6930   14.6990   -1.7910 C   0  0  0  0  0  0  0  0  0  0  0  0
   -2.9700   14.7610   -0.5340 C   0  0  0  0  0  0  0  0  0  0  0  0
   -5.0520   14.7110   -1.8810 N   0  0  0  0  0  0  0  0  0  0  0  0
   -3.5950   14.8180    0.6490 C   0  0  0  0  0  0  0  0  0  0  0  0
   -5.7170   14.7450   -0.7520 C   0  0  0  0  0  0  0  0  0  0  0  0
   -5.0370   14.7770    0.6170 C   0  0  0  0  0  0  0  0  0  0  0  0
   -7.0970   14.7430   -0.7780 N   0  0  0  0  0  0  0  0  0  0  0  0
   -5.8440   14.7430    1.6890 C   0  0  0  0  0  0  0  0  0  0  0  0
   -7.2920   14.6650    1.5760 C   0  0  0  0  0  0  0  0  0  0  0  0
   -7.8580   14.6680    0.3620 C   0  0  0  0  0  0  0  0  0  0  0  0
  1  2  1  0
  1  3  2  0
  4  1  1  1
  4  5  1  0
  4  6  1  0
  5  7  1  0
  6  8  1  0
  7  8  1  0
  6  9  1  6
  9 10  1  0
  9 11  2  0
 10 12  2  0
 11 13  1  0
 12 13  1  0
 12 14  1  0
 13 15  2  0
 14 16  2  0
 15 17  1  0
 16 17  1  0
 16 18  1  0
 17 19  2  0
 19 20  1  0
 18 21  1  0
 20 21  2  0
M  END
