x0962_1_A_α-x0574_0_A_α
     RDKit          3D

 18 20  0  0  0  0  0  0  0  0999 V2000
   -4.1990   15.6650   -2.8030 N   0  0  0  0  0  0  0  0  0  0  0  0
   -5.0410   15.4010   -2.0530 C   0  0  0  0  0  0  0  0  0  0  0  0
   -5.9020   14.9200   -1.0350 C   0  0  0  0  0  0  0  0  0  0  0  0
   -5.9010   15.5580    0.0620 N   0  0  0  0  0  0  0  0  0  0  0  0
   -6.8040   13.7530   -1.0340 C   0  0  0  0  0  0  0  0  0  0  0  0
   -6.5560   14.5370    0.8540 C   0  0  1  0  0  0  0  0  0  0  0  0
   -7.2940   13.5120    0.1250 N   0  0  0  0  0  0  0  0  0  0  0  0
   -5.1050   14.3230    0.6070 C   0  0  0  0  0  0  0  0  0  0  0  0
   -6.8930   14.7720    2.3370 C   0  0  0  0  0  0  0  0  0  0  0  0
   -4.1660   14.4040    1.5640 C   0  0  0  0  0  0  0  0  0  0  0  0
   -4.7070   14.0840   -0.7180 C   0  0  0  0  0  0  0  0  0  0  0  0
   -2.8450   14.2530    1.2190 C   0  0  0  0  0  0  0  0  0  0  0  0
   -3.3810   13.9360   -1.0950 C   0  0  0  0  0  0  0  0  0  0  0  0
   -2.4520   14.0290   -0.0880 C   0  0  0  0  0  0  0  0  0  0  0  0
   -1.8660   14.3070    2.1010 N   0  0  0  0  0  0  0  0  0  0  0  0
   -0.7580   14.1280    1.5310 C   0  0  0  0  0  0  0  0  0  0  0  0
   -0.7420   13.9030   -0.1590 S   0  0  0  0  0  0  0  0  0  0  0  0
    0.2800   14.1160    2.2860 N   0  0  0  0  0  0  0  0  0  0  0  0
  1  2  3  0
  2  3  1  0
  3  4  2  0
  3  5  1  0
  4  6  1  0
  5  7  2  0
  6  7  1  0
  6  8  1  0
  6  9  1  1
  8 10  2  0
  8 11  1  0
 10 12  1  0
 11 13  2  0
 12 14  2  0
 13 14  1  0
 12 15  1  0
 15 16  2  0
 14 17  1  0
 16 17  1  0
 16 18  1  0
M  END
