x0962_3_A-x0524_0_A
     RDKit          3D

 23 25  0  0  0  0  0  0  0  0999 V2000
    1.2240   11.0220   -8.2280 N   0  0  0  0  0  0  0  0  0  0  0  0
    0.0080   10.7970   -7.4590 C   0  0  1  0  0  0  0  0  0  0  0  0
   -1.2690   10.4670   -8.2650 C   0  0  2  0  0  0  0  0  0  0  0  0
   -0.1770    9.4540   -7.0020 C   0  0  0  0  0  0  0  0  0  0  0  0
   -0.9490    9.1420   -8.8850 N   0  0  0  0  0  0  0  0  0  0  0  0
   -1.6790   11.4930   -9.2630 C   0  0  0  0  0  0  0  0  0  0  0  0
    0.5130    8.3420   -7.3630 N   0  0  0  0  0  0  0  0  0  0  0  0
   -1.1390    9.0450   -6.1420 C   0  0  0  0  0  0  0  0  0  0  0  0
   -0.0690    7.3080   -6.7110 C   0  0  0  0  0  0  0  0  0  0  0  0
   -1.0730    7.7110   -5.9730 N   0  0  0  0  0  0  0  0  0  0  0  0
    0.2650    8.9420   -9.5820 C   0  0  0  0  0  0  0  0  0  0  0  0
    1.3310    8.0800   -9.2240 C   0  0  0  0  0  0  0  0  0  0  0  0
    0.4170    9.6770  -10.7440 C   0  0  0  0  0  0  0  0  0  0  0  0
    2.4890    7.9830  -10.0160 C   0  0  0  0  0  0  0  0  0  0  0  0
    1.5590    9.5780  -11.5250 C   0  0  0  0  0  0  0  0  0  0  0  0
    2.6100    8.7360  -11.1810 C   0  0  0  0  0  0  0  0  0  0  0  0
    3.7180    8.7100  -12.0320 N   0  0  0  0  0  0  0  0  0  0  0  0
    4.0520    9.5340  -13.1160 C   0  0  0  0  0  0  0  0  0  0  0  0
    3.3180   10.7110  -13.3410 C   0  0  0  0  0  0  0  0  0  0  0  0
    5.0940    9.2350  -13.9940 C   0  0  0  0  0  0  0  0  0  0  0  0
    3.6130   11.5570  -14.4050 C   0  0  0  0  0  0  0  0  0  0  0  0
    5.3930   10.0800  -15.0630 C   0  0  0  0  0  0  0  0  0  0  0  0
    4.6560   11.2410  -15.2700 C   0  0  0  0  0  0  0  0  0  0  0  0
  2  1  1  6
  2  3  1  0
  2  4  1  0
  3  5  1  0
  3  6  1  6
  4  7  1  0
  4  8  2  0
  7  9  1  0
  8 10  1  0
  9 10  2  0
  5 11  1  0
 11 12  2  0
 11 13  1  0
 12 14  1  0
 13 15  2  0
 14 16  2  0
 15 16  1  0
 16 17  1  0
 17 18  1  0
 18 19  2  0
 18 20  1  0
 19 21  1  0
 20 22  2  0
 21 23  2  0
 22 23  1  0
M  END
