x0962_3_A_α-x0253_0_A_α
     RDKit          3D

 13 13  0  0  0  0  0  0  0  0999 V2000
    0.5740   11.8060   -8.2330 N   0  0  0  0  0  0  0  0  0  0  0  0
    0.8690   11.0500   -7.0860 C   0  0  1  0  0  0  0  0  0  0  0  0
    0.2820   11.8000   -5.9570 N   0  0  0  0  0  0  0  0  0  0  0  0
    0.0540    9.8340   -7.3540 C   0  0  0  0  0  0  0  0  0  0  0  0
    1.2130   12.5330   -5.0450 C   0  0  0  0  0  0  0  0  0  0  0  0
    0.5160    8.7600   -8.1070 N   0  0  0  0  0  0  0  0  0  0  0  0
   -1.2280    9.6100   -6.9270 C   0  0  0  0  0  0  0  0  0  0  0  0
    0.9740   12.2280   -3.5560 C   0  0  0  0  0  0  0  0  0  0  0  0
   -0.4840    7.9130   -8.1220 C   0  0  0  0  0  0  0  0  0  0  0  0
   -1.5500    8.3900   -7.4250 N   0  0  0  0  0  0  0  0  0  0  0  0
    1.4330   12.8520   -2.6080 O   0  0  0  0  0  0  0  0  0  0  0  0
    0.1770   11.1690   -3.3180 O   0  0  0  0  0  0  0  0  0  0  0  0
   -2.7920    7.7050   -7.2570 C   0  0  0  0  0  0  0  0  0  0  0  0
  2  1  1  6
  2  3  1  0
  2  4  1  0
  3  5  1  0
  4  6  1  0
  4  7  2  0
  5  8  1  0
  6  9  2  0
  7 10  1  0
  9 10  1  0
  8 11  2  0
  8 12  1  0
 10 13  1  0
M  END
