x0969_0_A_α-x0685_0_A_α
     RDKit          3D

 14 15  0  0  0  0  0  0  0  0999 V2000
   -6.6690   14.9540    2.6640 N   0  0  0  0  0  0  0  0  0  0  0  0
   -7.8900   14.5740    3.3350 C   0  0  0  0  0  0  0  0  0  0  0  0
   -8.0530   13.0750    3.1950 C   0  0  0  0  0  0  0  0  0  0  0  0
   -6.6380   14.8380    1.3210 C   0  0  0  0  0  0  0  0  0  0  0  0
   -7.6750   14.6480    0.5370 N   0  0  0  0  0  0  0  0  0  0  0  0
   -5.4860   14.9240    0.5610 N   0  0  0  0  0  0  0  0  0  0  0  0
   -7.2350   14.6190   -0.7580 N   0  0  0  0  0  0  0  0  0  0  0  0
   -5.9410   14.7890   -0.7380 C   0  0  0  0  0  0  0  0  0  0  0  0
   -4.1390   15.1080    0.8890 C   0  0  0  0  0  0  0  0  0  0  0  0
   -4.9990   14.8520   -1.7720 C   0  0  0  0  0  0  0  0  0  0  0  0
   -3.2370   15.1500   -0.1050 C   0  0  0  0  0  0  0  0  0  0  0  0
   -3.7100   15.0230   -1.4900 C   0  0  0  0  0  0  0  0  0  0  0  0
   -2.8420   15.0780   -2.5950 C   0  0  0  0  0  0  0  0  0  0  0  0
   -2.1800   15.1320   -3.5370 N   0  0  0  0  0  0  0  0  0  0  0  0
  1  2  1  0
  2  3  1  0
  1  4  1  0
  4  5  2  0
  4  6  1  0
  5  7  1  0
  6  8  1  0
  7  8  2  0
  6  9  1  0
  8 10  1  0
  9 11  2  0
 10 12  2  0
 11 12  1  0
 12 13  1  0
 13 14  3  0
M  END
