x0962_1_A_α-x0910_0_A_α
     RDKit          3D

 12 13  0  0  0  0  0  0  0  0999 V2000
   -3.1450   14.8450   -0.3640 C   0  0  0  0  0  0  0  0  0  0  0  0
   -4.3180   14.8470   -0.2840 C   0  0  0  0  0  0  0  0  0  0  0  0
   -5.6550   14.7670    0.1230 C   0  0  0  0  0  0  0  0  0  0  0  0
   -1.7680   14.7930   -0.1000 C   0  0  0  0  0  0  0  0  0  0  0  0
   -1.4210   14.8550    1.1820 N   0  0  0  0  0  0  0  0  0  0  0  0
   -0.7580   14.6870   -1.0010 N   0  0  0  0  0  0  0  0  0  0  0  0
   -6.0000   14.5480    1.4340 N   0  0  0  0  0  0  0  0  0  0  0  0
   -6.8420   14.8650   -0.5510 C   0  0  0  0  0  0  0  0  0  0  0  0
   -0.0980   14.7850    1.0850 N   0  0  0  0  0  0  0  0  0  0  0  0
    0.2920   14.6870   -0.2100 C   0  0  0  0  0  0  0  0  0  0  0  0
   -7.3540   14.5190    1.5040 C   0  0  0  0  0  0  0  0  0  0  0  0
   -7.8980   14.7070    0.3230 N   0  0  0  0  0  0  0  0  0  0  0  0
  1  2  3  0
  2  3  1  0
  1  4  1  0
  4  5  2  0
  4  6  1  0
  3  7  1  0
  3  8  2  0
  5  9  1  0
  6 10  2  0
  9 10  1  0
  7 11  1  0
  8 12  1  0
 11 12  2  0
M  END
