x0962_3_A_α-x0969_0_A_α
     RDKit          3D

 23 25  0  0  0  0  0  0  0  0999 V2000
    0.9610   11.4310   -8.8240 N   0  0  0  0  0  0  0  0  0  0  0  0
    0.9050   11.0170   -7.4380 C   0  0  1  0  0  0  0  0  0  0  0  0
    0.3270   12.1240   -6.5190 C   0  0  0  0  0  0  0  0  0  0  0  0
    0.0060    9.8590   -7.4760 C   0  0  0  0  0  0  0  0  0  0  0  0
    1.0150   12.3960   -5.1710 C   0  0  0  0  0  0  0  0  0  0  0  0
    0.2660    8.7060   -8.1780 N   0  0  0  0  0  0  0  0  0  0  0  0
   -1.2090    9.6480   -6.8870 C   0  0  0  0  0  0  0  0  0  0  0  0
    0.3920   13.5480   -4.3560 C   0  0  0  0  0  0  0  0  0  0  0  0
   -0.7900    7.8710   -7.9810 C   0  0  0  0  0  0  0  0  0  0  0  0
   -1.6980    8.4150   -7.2040 N   0  0  0  0  0  0  0  0  0  0  0  0
   -0.0540   13.2190   -2.9160 C   0  0  0  0  0  0  0  0  0  0  0  0
   -1.5720   13.3780   -2.6710 C   0  0  0  0  0  0  0  0  0  0  0  0
   -1.9790   14.7770   -2.1670 C   0  0  0  0  0  0  0  0  0  0  0  0
   -3.1740   14.8150   -1.2280 C   0  0  0  0  0  0  0  0  0  0  0  0
   -4.4480   14.7470   -1.6850 C   0  0  0  0  0  0  0  0  0  0  0  0
   -2.9160   14.9210    0.2160 C   0  0  0  0  0  0  0  0  0  0  0  0
   -5.5370   14.7370   -0.7710 C   0  0  0  0  0  0  0  0  0  0  0  0
   -3.9490   14.9220    1.0810 C   0  0  0  0  0  0  0  0  0  0  0  0
   -6.8390   14.6520   -0.9430 N   0  0  0  0  0  0  0  0  0  0  0  0
   -5.2510   14.8170    0.5830 N   0  0  0  0  0  0  0  0  0  0  0  0
   -6.4850   14.7650    1.2100 C   0  0  0  0  0  0  0  0  0  0  0  0
   -7.4300   14.6670    0.2980 N   0  0  0  0  0  0  0  0  0  0  0  0
   -6.6770   14.8200    2.5480 N   0  0  0  0  0  0  0  0  0  0  0  0
  2  1  1  6
  2  3  1  0
  2  4  1  0
  3  5  1  0
  4  6  1  0
  4  7  2  0
  5  8  1  0
  6  9  1  0
  7 10  1  0
  9 10  2  0
  8 11  1  0
 11 12  1  0
 12 13  1  0
 13 14  1  0
 14 15  2  0
 14 16  1  0
 15 17  1  0
 16 18  2  0
 17 19  2  0
 17 20  1  0
 18 20  1  0
 20 21  1  0
 19 22  1  0
 21 22  2  0
 21 23  1  0
M  END
