x0969_0_A_α-x0837_0_A_α
     RDKit          3D

 12 13  0  0  0  0  0  0  0  0999 V2000
   -7.0000   13.5130    2.4420 N   0  0  0  0  0  0  0  0  0  0  0  0
   -6.5930   14.6740    1.7490 C   0  0  2  0  0  0  0  0  0  0  0  0
   -7.8050   14.9460    0.9580 N   0  0  0  0  0  0  0  0  0  0  0  0
   -5.4380   14.5450    0.8970 N   0  0  0  0  0  0  0  0  0  0  0  0
   -7.4280   14.6900   -0.4640 N   0  0  0  0  0  0  0  0  0  0  0  0
   -6.0650   14.1490   -0.3370 C   0  0  1  0  0  0  0  0  0  0  0  0
   -4.1600   15.0690    1.0040 C   0  0  0  0  0  0  0  0  0  0  0  0
   -5.2450   14.6190   -1.4840 C   0  0  0  0  0  0  0  0  0  0  0  0
   -3.2950   14.9830   -0.0250 C   0  0  0  0  0  0  0  0  0  0  0  0
   -5.8130   15.1840   -2.3990 O   0  0  0  0  0  0  0  0  0  0  0  0
   -3.7640   14.3090   -1.2930 C   0  0  2  0  0  0  0  0  0  0  0  0
   -2.6750   14.8300   -3.0620 I   0  0  0  0  0  0  0  0  0  0  0  0
  2  1  1  6
  2  3  1  0
  2  4  1  0
  3  5  1  0
  4  6  1  0
  6  5  1  6
  4  7  1  0
  6  8  1  0
  7  9  2  0
  8 10  2  0
  8 11  1  0
  9 11  1  0
 11 12  1  6
M  END
