x0962_3_A_α-x0967_0_A_α
     RDKit          3D

 23 25  0  0  0  0  0  0  0  0999 V2000
    1.3930   11.2000   -7.8800 N   0  0  0  0  0  0  0  0  0  0  0  0
    0.0950   11.2950   -7.3440 C   0  0  2  0  0  0  0  0  0  0  0  0
    0.0880   11.8840   -5.9170 C   0  0  0  0  0  0  0  0  0  0  0  0
   -0.4910    9.9600   -7.4300 C   0  0  0  0  0  0  0  0  0  0  0  0
   -0.5090   13.2890   -5.9310 C   0  0  0  0  0  0  0  0  0  0  0  0
    0.0270    8.9450   -8.2020 N   0  0  0  0  0  0  0  0  0  0  0  0
   -1.5930    9.4230   -6.8320 C   0  0  0  0  0  0  0  0  0  0  0  0
   -1.3250   13.7090   -4.7160 C   0  0  0  0  0  0  0  0  0  0  0  0
   -0.7790    7.8640   -8.0340 C   0  0  0  0  0  0  0  0  0  0  0  0
   -1.7680    8.1280   -7.2100 N   0  0  0  0  0  0  0  0  0  0  0  0
   -2.3410   14.8270   -4.9990 C   0  0  0  0  0  0  0  0  0  0  0  0
   -3.1590   15.2850   -3.7950 C   0  0  0  0  0  0  0  0  0  0  0  0
   -2.5710   14.7310   -2.5090 C   0  0  0  0  0  0  0  0  0  0  0  0
   -3.5140   14.7750   -1.3390 C   0  0  0  0  0  0  0  0  0  0  0  0
   -4.8450   14.6600   -1.5740 N   0  0  0  0  0  0  0  0  0  0  0  0
   -2.9730   14.9200   -0.0760 C   0  0  0  0  0  0  0  0  0  0  0  0
   -5.6850   14.6720   -0.5320 C   0  0  0  0  0  0  0  0  0  0  0  0
   -3.8290   14.9370    1.0030 C   0  0  0  0  0  0  0  0  0  0  0  0
   -6.9950   14.5470   -0.7590 N   0  0  0  0  0  0  0  0  0  0  0  0
   -5.1980   14.8050    0.7810 C   0  0  0  0  0  0  0  0  0  0  0  0
   -6.0990   14.8010    1.8500 C   0  0  0  0  0  0  0  0  0  0  0  0
   -7.8500   14.5440    0.2880 C   0  0  0  0  0  0  0  0  0  0  0  0
   -7.4550   14.6660    1.6050 C   0  0  0  0  0  0  0  0  0  0  0  0
  2  1  1  1
  2  3  1  0
  2  4  1  0
  3  5  1  0
  4  6  1  0
  4  7  2  0
  5  8  1  0
  6  9  1  0
  7 10  1  0
  9 10  2  0
  8 11  1  0
 11 12  1  0
 12 13  1  0
 13 14  1  0
 14 15  2  0
 14 16  1  0
 15 17  1  0
 16 18  2  0
 17 19  2  0
 17 20  1  0
 18 20  1  0
 20 21  2  0
 19 22  1  0
 21 23  1  0
 22 23  2  0
M  END
