x0962_0_A_α-x0727_0_A_α
     RDKit          3D

 23 24  0  0  0  0  0  0  0  0999 V2000
   -2.8030   14.5530   -2.4170 N   0  0  0  0  0  0  0  0  0  0  0  0
   -2.5820   15.4340   -1.2740 C   0  0  2  0  0  0  0  0  0  0  0  0
   -1.1700   15.2890   -0.6660 C   0  0  0  0  0  0  0  0  0  0  0  0
   -3.6870   15.2840   -0.2870 C   0  0  0  0  0  0  0  0  0  0  0  0
   -0.0740   14.7810   -1.6200 C   0  0  0  0  0  0  0  0  0  0  0  0
   -3.4670   15.4690    1.0510 N   0  0  0  0  0  0  0  0  0  0  0  0
   -5.0270   14.9740   -0.3750 C   0  0  0  0  0  0  0  0  0  0  0  0
    0.2530   13.3080   -1.3750 C   0  0  0  0  0  0  0  0  0  0  0  0
   -4.6450   15.2730    1.7010 C   0  0  0  0  0  0  0  0  0  0  0  0
   -5.6100   14.9670    0.8640 N   0  0  0  0  0  0  0  0  0  0  0  0
    1.1820   12.8380   -2.3700 O   0  0  0  0  0  0  0  0  0  0  0  0
    0.6860   11.8930   -3.2180 C   0  0  0  0  0  0  0  0  0  0  0  0
    0.8860   12.3160   -4.6850 C   0  0  1  0  0  0  0  0  0  0  0  0
    0.1600   10.8410   -2.8550 O   0  0  0  0  0  0  0  0  0  0  0  0
    0.1310   11.4260   -5.5700 N   0  0  0  0  0  0  0  0  0  0  0  0
    0.4570   13.7610   -4.8960 C   0  0  0  0  0  0  0  0  0  0  0  0
    0.7120   11.1070   -6.7740 C   0  0  0  0  0  0  0  0  0  0  0  0
    1.6590   11.7300   -7.1830 O   0  0  0  0  0  0  0  0  0  0  0  0
    0.1110    9.9210   -7.5200 C   0  0  0  0  0  0  0  0  0  0  0  0
   -1.1950   10.2910   -8.2330 C   0  0  0  0  0  0  0  0  0  0  0  0
   -0.2270    8.7530   -6.5730 C   0  0  0  0  0  0  0  0  0  0  0  0
   -2.1590    9.1400   -7.9860 C   0  0  0  0  0  0  0  0  0  0  0  0
   -1.7260    8.5210   -6.6690 C   0  0  0  0  0  0  0  0  0  0  0  0
  2  1  1  6
  2  3  1  0
  2  4  1  0
  3  5  1  0
  4  6  1  0
  4  7  2  0
  5  8  1  0
  6  9  1  0
  7 10  1  0
  9 10  2  0
  8 11  1  0
 11 12  1  0
 12 13  1  0
 12 14  2  0
 13 15  1  0
 13 16  1  1
 15 17  1  0
 17 18  2  0
 17 19  1  0
 19 20  1  0
 19 21  1  0
 20 22  1  0
 21 23  1  0
 22 23  1  0
M  END
