x0962_1_A-x0591_0_A
     RDKit          3D

 20 21  0  0  0  0  0  0  0  0999 V2000
   -6.0110   15.7060   -1.9020 N   0  0  0  0  0  0  0  0  0  0  0  0
   -6.1060   14.4520   -0.9630 S   0  0  0  0  0  0  0  0  0  0  0  0
   -6.1160   12.8800   -1.1360 N   0  0  0  0  0  0  0  0  0  0  0  0
   -7.4070   14.4800   -0.9980 O   0  0  0  0  0  0  0  0  0  0  0  0
   -6.3160   14.6980    0.7320 C   0  0  0  0  0  0  0  0  0  0  0  0
   -4.3950   14.4780   -1.2080 C   0  0  0  0  0  0  0  0  0  0  0  0
   -6.1650   12.1340    0.0660 C   0  0  0  0  0  0  0  0  0  0  0  0
   -5.4480   15.0460    1.6580 N   0  0  0  0  0  0  0  0  0  0  0  0
   -7.5110   14.5390    1.3090 C   0  0  0  0  0  0  0  0  0  0  0  0
   -4.8440   14.5180   -2.4230 C   0  0  0  0  0  0  0  0  0  0  0  0
   -3.2750   14.5180   -2.1420 C   0  0  0  0  0  0  0  0  0  0  0  0
   -6.1530   15.1000    2.8050 C   0  0  0  0  0  0  0  0  0  0  0  0
   -7.4210   14.7910    2.6220 N   0  0  0  0  0  0  0  0  0  0  0  0
   -3.3220   14.5650   -3.6060 C   0  0  0  0  0  0  0  0  0  0  0  0
   -5.4980   14.5530   -3.5270 C   0  0  0  0  0  0  0  0  0  0  0  0
   -1.8940   14.5940   -4.5820 S   0  0  0  0  0  0  0  0  0  0  0  0
   -4.5030   14.5850   -4.3210 C   0  0  0  0  0  0  0  0  0  0  0  0
   -0.6560   15.6640   -4.0460 N   0  0  0  0  0  0  0  0  0  0  0  0
   -1.3140   13.1950   -4.6320 O   0  0  0  0  0  0  0  0  0  0  0  0
   -2.3630   14.9240   -5.9490 O   0  0  0  0  0  0  0  0  0  0  0  0
  1  2  1  0
  2  3  1  0
  2  4  2  0
  2  5  1  0
  2  6  1  0
  3  7  1  0
  5  8  1  0
  5  9  2  0
  6 10  2  0
  6 11  1  0
  8 12  1  0
  9 13  1  0
 12 13  2  0
 11 14  2  0
 10 15  1  0
 14 16  1  0
 14 17  1  0
 15 17  2  0
 16 18  1  0
 16 19  2  0
 16 20  2  0
M  END
