x0962_0_A-x0421_0_A
     RDKit          3D

 10 11  0  0  0  0  0  0  0  0999 V2000
   -2.0920   14.6400   -1.5980 N   0  0  0  0  0  0  0  0  0  0  0  0
   -3.4150   15.1690   -1.7390 C   0  0  0  0  0  0  0  0  0  0  0  0
   -3.8540   14.4880   -2.9180 N   0  0  0  0  0  0  0  0  0  0  0  0
   -4.2600   14.9920   -0.5040 C   0  0  0  0  0  0  0  0  0  0  0  0
   -3.7760   15.2930    0.7740 N   0  0  0  0  0  0  0  0  0  0  0  0
   -5.5300   14.5640   -0.4600 C   0  0  0  0  0  0  0  0  0  0  0  0
   -4.7670   15.0570    1.5920 C   0  0  0  0  0  0  0  0  0  0  0  0
   -5.9720   14.5300    0.9090 C   0  0  0  0  0  0  0  0  0  0  0  0
   -7.3950   14.7110    1.3450 C   0  0  0  0  0  0  0  0  0  0  0  0
   -6.7520   13.3550    1.4120 C   0  0  0  0  0  0  0  0  0  0  0  0
  1  2  1  0
  2  3  1  0
  2  4  1  0
  4  5  1  0
  4  6  2  0
  5  7  2  0
  8  6  1  0
  7  8  1  0
  8  9  1  0
  8 10  1  0
  9 10  1  0
M  END
