x0969_0_A-x0900_0_A
     RDKit          3D

 11 12  0  0  0  0  0  0  0  0999 V2000
   -6.6590   13.3770    2.0580 N   0  0  0  0  0  0  0  0  0  0  0  0
   -6.5110   14.6580    1.5110 C   0  0  2  0  0  0  0  0  0  0  0  0
   -7.6790   14.8030    0.6430 N   0  0  0  0  0  0  0  0  0  0  0  0
   -5.3730   14.6450    0.6410 N   0  0  0  0  0  0  0  0  0  0  0  0
   -7.1660   15.0060   -0.7360 N   0  0  0  0  0  0  0  0  0  0  0  0
   -5.7750   15.3890   -0.5280 C   0  0  2  0  0  0  0  0  0  0  0  0
   -4.0970   15.1240    1.1400 C   0  0  0  0  0  0  0  0  0  0  0  0
   -4.8800   14.9460   -1.6360 C   0  0  0  0  0  0  0  0  0  0  0  0
   -3.0880   15.0990    0.0070 C   0  0  0  0  0  0  0  0  0  0  0  0
   -5.3080   14.5490   -2.6970 O   0  0  0  0  0  0  0  0  0  0  0  0
   -3.4220   15.0200   -1.3040 C   0  0  0  0  0  0  0  0  0  0  0  0
  2  1  1  6
  2  3  1  0
  2  4  1  0
  3  5  1  0
  4  6  1  0
  6  5  1  6
  4  7  1  0
  6  8  1  0
  7  9  1  0
  8 10  2  0
  8 11  1  0
  9 11  2  0
M  END
