x0962_3_A_α-x0524_0_A_α
     RDKit          3D

 23 25  0  0  0  0  0  0  0  0999 V2000
    1.2290   11.0130   -8.1750 N   0  0  0  0  0  0  0  0  0  0  0  0
   -0.0140   10.7780   -7.4450 C   0  0  1  0  0  0  0  0  0  0  0  0
   -1.2800   10.4550   -8.2750 C   0  0  2  0  0  0  0  0  0  0  0  0
   -0.2010    9.4340   -7.0030 C   0  0  0  0  0  0  0  0  0  0  0  0
   -0.9630    9.1290   -8.8920 N   0  0  0  0  0  0  0  0  0  0  0  0
   -1.6650   11.4830   -9.2750 C   0  0  0  0  0  0  0  0  0  0  0  0
    0.4970    8.3240   -7.3580 N   0  0  0  0  0  0  0  0  0  0  0  0
   -1.1760    9.0180   -6.1630 C   0  0  0  0  0  0  0  0  0  0  0  0
   -0.0980    7.2870   -6.7220 C   0  0  0  0  0  0  0  0  0  0  0  0
   -1.1140    7.6840   -5.9990 N   0  0  0  0  0  0  0  0  0  0  0  0
    0.2500    8.9340   -9.5840 C   0  0  0  0  0  0  0  0  0  0  0  0
    1.3160    8.0800   -9.2250 C   0  0  0  0  0  0  0  0  0  0  0  0
    0.3990    9.6740  -10.7430 C   0  0  0  0  0  0  0  0  0  0  0  0
    2.4730    7.9900  -10.0110 C   0  0  0  0  0  0  0  0  0  0  0  0
    1.5420    9.5840  -11.5200 C   0  0  0  0  0  0  0  0  0  0  0  0
    2.5980    8.7480  -11.1750 C   0  0  0  0  0  0  0  0  0  0  0  0
    3.7100    8.7220  -12.0210 N   0  0  0  0  0  0  0  0  0  0  0  0
    4.0410    9.5380  -13.1130 C   0  0  0  0  0  0  0  0  0  0  0  0
    3.3020   10.7110  -13.3480 C   0  0  0  0  0  0  0  0  0  0  0  0
    5.0830    9.2350  -13.9860 C   0  0  0  0  0  0  0  0  0  0  0  0
    3.5990   11.5470  -14.4220 C   0  0  0  0  0  0  0  0  0  0  0  0
    5.3840   10.0710  -15.0630 C   0  0  0  0  0  0  0  0  0  0  0  0
    4.6420   11.2280  -15.2810 C   0  0  0  0  0  0  0  0  0  0  0  0
  2  1  1  6
  2  3  1  0
  2  4  1  0
  3  5  1  0
  3  6  1  6
  4  7  1  0
  4  8  2  0
  7  9  1  0
  8 10  1  0
  9 10  2  0
  5 11  1  0
 11 12  2  0
 11 13  1  0
 12 14  1  0
 13 15  2  0
 14 16  2  0
 15 16  1  0
 16 17  1  0
 17 18  1  0
 18 19  2  0
 18 20  1  0
 19 21  1  0
 20 22  2  0
 21 23  2  0
 22 23  1  0
M  END
