x0969_0_A-x0849_0_A
     RDKit          3D

 16 18  0  0  0  0  0  0  0  0999 V2000
   -6.6570   14.9320    2.6250 N   0  0  0  0  0  0  0  0  0  0  0  0
   -6.3560   14.8560    1.3260 C   0  0  0  0  0  0  0  0  0  0  0  0
   -7.2810   14.4030    0.4260 N   0  0  0  0  0  0  0  0  0  0  0  0
   -5.2120   15.1680    0.6000 C   0  0  0  0  0  0  0  0  0  0  0  0
   -6.8350   14.3850   -0.8340 N   0  0  0  0  0  0  0  0  0  0  0  0
   -5.5880   14.8420   -0.7200 C   0  0  0  0  0  0  0  0  0  0  0  0
   -3.8490   15.7170    0.9670 C   0  0  0  0  0  0  0  0  0  0  0  0
   -4.7110   14.9800   -1.8890 C   0  0  0  0  0  0  0  0  0  0  0  0
   -2.7600   15.2140   -0.0460 C   0  0  1  0  0  0  0  0  0  0  0  0
   -3.2940   15.4370   -1.5170 C   0  0  1  0  0  0  0  0  0  0  0  0
   -1.3180   15.9050    0.0270 C   0  0  0  0  0  0  0  0  0  0  0  0
   -2.5210   13.8080    0.4810 C   0  0  0  0  0  0  0  0  0  0  0  0
   -2.1290   14.7360   -2.9420 Br  0  0  0  0  0  0  0  0  0  0  0  0
   -1.5470   13.9380    1.5550 N   0  0  0  0  0  0  0  0  0  0  0  0
   -0.1040   15.0510    0.2980 C   0  0  0  0  0  0  0  0  0  0  0  0
   -0.2970   14.0650    1.1190 C   0  0  0  0  0  0  0  0  0  0  0  0
  1  2  1  0
  2  3  1  0
  2  4  2  0
  3  5  1  0
  4  6  1  0
  5  6  2  0
  4  7  1  0
  6  8  1  0
  9  7  1  1
  8 10  1  0
  9 10  1  0
  9 11  1  0
  9 12  1  0
 10 13  1  6
 12 14  1  0
 11 15  1  0
 14 16  1  0
 15 16  2  0
M  END
