x0969_0_A-x0967_0_A
     RDKit          3D

 10 11  0  0  0  0  0  0  0  0999 V2000
   -6.8040   14.7040    2.5740 N   0  0  0  0  0  0  0  0  0  0  0  0
   -6.5980   14.7360    1.2360 C   0  0  0  0  0  0  0  0  0  0  0  0
   -7.5320   14.6400    0.3160 N   0  0  0  0  0  0  0  0  0  0  0  0
   -5.3640   14.8880    0.6230 N   0  0  0  0  0  0  0  0  0  0  0  0
   -6.9400   14.7340   -0.9240 N   0  0  0  0  0  0  0  0  0  0  0  0
   -5.6480   14.8830   -0.7370 C   0  0  0  0  0  0  0  0  0  0  0  0
   -4.0720   15.0280    1.1320 C   0  0  0  0  0  0  0  0  0  0  0  0
   -4.5640   15.0320   -1.6400 C   0  0  0  0  0  0  0  0  0  0  0  0
   -3.0470   15.1570    0.2770 C   0  0  0  0  0  0  0  0  0  0  0  0
   -3.3180   15.1590   -1.1550 C   0  0  0  0  0  0  0  0  0  0  0  0
  1  2  1  0
  2  3  2  0
  2  4  1  0
  3  5  1  0
  4  6  1  0
  5  6  2  0
  4  7  1  0
  6  8  1  0
  7  9  2  0
  8 10  2  0
  9 10  1  0
M  END
