x0962_0_A-x0722_0_A
     RDKit          3D

 11 11  0  0  0  0  0  0  0  0999 V2000
   -2.8530   14.2060   -2.0680 N   0  0  0  0  0  0  0  0  0  0  0  0
   -3.9260   15.0650   -1.5110 C   0  0  1  0  0  0  0  0  0  0  0  0
   -5.3960   14.5590   -1.6780 C   0  0  0  0  0  0  0  0  0  0  0  0
   -3.9460   15.1030   -0.0690 C   0  0  0  0  0  0  0  0  0  0  0  0
   -6.3350   15.2200   -2.1040 O   0  0  0  0  0  0  0  0  0  0  0  0
   -5.6210   13.2790   -1.2260 N   0  0  0  0  0  0  0  0  0  0  0  0
   -2.9930   14.9960    0.9240 N   0  0  0  0  0  0  0  0  0  0  0  0
   -5.1370   15.2670    0.5750 C   0  0  0  0  0  0  0  0  0  0  0  0
   -1.5440   14.7980    0.8610 C   0  0  0  0  0  0  0  0  0  0  0  0
   -3.7040   15.1120    2.0870 C   0  0  0  0  0  0  0  0  0  0  0  0
   -4.9900   15.2720    1.9000 N   0  0  0  0  0  0  0  0  0  0  0  0
  2  1  1  1
  2  3  1  0
  2  4  1  0
  3  5  2  0
  3  6  1  0
  4  7  1  0
  4  8  2  0
  7  9  1  0
  7 10  1  0
  8 11  1  0
 10 11  2  0
M  END
