x0962_0_A_α-x0371_0_A_β
     RDKit          3D

 12 13  0  0  0  0  0  0  0  0999 V2000
   -2.2860   14.7870   -2.4020 N   0  0  0  0  0  0  0  0  0  0  0  0
   -3.0230   14.8920   -1.5100 C   0  0  0  0  0  0  0  0  0  0  0  0
   -3.9490   14.9130   -0.4360 C   0  0  0  0  0  0  0  0  0  0  0  0
   -3.4370   15.1090    0.8360 N   0  0  0  0  0  0  0  0  0  0  0  0
   -5.2660   14.7400   -0.5890 C   0  0  0  0  0  0  0  0  0  0  0  0
   -4.3230   15.1890    1.8810 C   0  0  0  0  0  0  0  0  0  0  0  0
   -6.1090   14.7710    0.5810 C   0  0  0  0  0  0  0  0  0  0  0  0
   -6.0460   14.5100   -1.6970 N   0  0  0  0  0  0  0  0  0  0  0  0
   -5.6080   15.0340    1.8160 N   0  0  0  0  0  0  0  0  0  0  0  0
   -7.3680   14.5200    0.2580 C   0  0  0  0  0  0  0  0  0  0  0  0
   -7.2460   14.3720   -1.1990 C   0  0  0  0  0  0  0  0  0  0  0  0
   -8.5950   14.4240    1.0620 C   0  0  0  0  0  0  0  0  0  0  0  0
  1  2  3  0
  2  3  1  0
  3  4  1  0
  3  5  2  0
  4  6  1  0
  5  7  1  0
  5  8  1  0
  6  9  2  0
  7  9  1  0
  7 10  2  0
  8 11  2  0
 10 11  1  0
 10 12  1  0
M  END
