x0962_0_A-x1015_0_A
     RDKit          3D

 24 26  0  0  0  0  0  0  0  0999 V2000
   -1.6350   14.7550   -1.2220 N   0  0  0  0  0  0  0  0  0  0  0  0
   -3.0020   14.5290   -1.6010 C   0  0  2  0  0  0  0  0  0  0  0  0
   -3.3150   15.1840   -2.9620 C   0  0  0  0  0  0  0  0  0  0  0  0
   -3.9300   14.7960   -0.4710 C   0  0  0  0  0  0  0  0  0  0  0  0
   -2.1610   15.2820   -3.9870 C   0  0  0  0  0  0  0  0  0  0  0  0
   -3.4840   15.2290    0.7600 N   0  0  0  0  0  0  0  0  0  0  0  0
   -5.2970   14.6990   -0.3210 C   0  0  0  0  0  0  0  0  0  0  0  0
   -1.5370   13.9580   -4.4400 C   0  0  0  0  0  0  0  0  0  0  0  0
   -4.5690   15.3630    1.5720 C   0  0  0  0  0  0  0  0  0  0  0  0
   -5.6770   15.0400    0.9420 N   0  0  0  0  0  0  0  0  0  0  0  0
   -0.0750   13.6270   -4.0580 C   0  0  2  0  0  0  0  0  0  0  0  0
    0.1120   12.1730   -4.0280 N   0  0  0  0  0  0  0  0  0  0  0  0
    0.2940   13.9570   -2.6120 C   0  0  0  0  0  0  0  0  0  0  0  0
    0.4360   15.0740   -2.1350 O   0  0  0  0  0  0  0  0  0  0  0  0
    0.2610   11.7180   -2.7080 C   0  0  0  0  0  0  0  0  0  0  0  0
    0.4700   12.8060   -1.9150 N   0  0  0  0  0  0  0  0  0  0  0  0
   -0.3620   11.3790   -5.0950 C   0  0  0  0  0  0  0  0  0  0  0  0
    0.2310   10.5640   -2.2690 O   0  0  0  0  0  0  0  0  0  0  0  0
    0.1460   11.5570   -6.3920 C   0  0  0  0  0  0  0  0  0  0  0  0
   -1.3400   10.3960   -4.9020 C   0  0  0  0  0  0  0  0  0  0  0  0
   -0.3080   10.7790   -7.4560 C   0  0  0  0  0  0  0  0  0  0  0  0
   -1.8000    9.6130   -5.9640 C   0  0  0  0  0  0  0  0  0  0  0  0
   -1.2820    9.8080   -7.2380 C   0  0  0  0  0  0  0  0  0  0  0  0
   -1.8430    8.8500   -8.5470 Cl  0  0  0  0  0  0  0  0  0  0  0  0
  2  1  1  1
  2  3  1  0
  2  4  1  0
  3  5  1  0
  4  6  1  0
  4  7  2  0
  5  8  1  0
  6  9  1  0
  7 10  1  0
  9 10  2  0
 11  8  1  1
 11 12  1  0
 11 13  1  0
 13 14  2  0
 12 15  1  0
 13 16  1  0
 15 16  1  0
 12 17  1  0
 15 18  2  0
 17 19  2  0
 17 20  1  0
 19 21  1  0
 20 22  2  0
 21 23  2  0
 22 23  1  0
 23 24  1  0
M  END
