x0962_2_B_α-x0104_0_A_α
     RDKit          3D

 14 15  0  0  0  0  0  0  0  0999 V2000
   -9.9680   16.6330    1.6270 N   0  0  0  0  0  0  0  0  0  0  0  0
   -9.8710   16.1360    3.0140 C   0  0  2  0  0  0  0  0  0  0  0  0
   -9.4480   17.1620    4.1120 C   0  0  0  0  0  0  0  0  0  0  0  0
   -8.8210   15.1200    3.1150 C   0  0  0  0  0  0  0  0  0  0  0  0
   -9.0250   16.4770    5.3230 N   0  0  0  0  0  0  0  0  0  0  0  0
   -7.7030   15.3620    3.8650 N   0  0  0  0  0  0  0  0  0  0  0  0
   -8.6500   13.8650    2.6090 C   0  0  0  0  0  0  0  0  0  0  0  0
   -6.9140   14.2710    3.7930 C   0  0  0  0  0  0  0  0  0  0  0  0
   -7.4600   13.3460    3.0370 N   0  0  0  0  0  0  0  0  0  0  0  0
   -9.8820   15.6720    5.9770 C   0  0  0  0  0  0  0  0  0  0  0  0
   -9.6600   15.1240    7.2200 C   0  0  0  0  0  0  0  0  0  0  0  0
  -11.4150   15.1950    5.3590 S   0  0  0  0  0  0  0  0  0  0  0  0
  -10.7450   14.3180    7.6670 C   0  0  0  0  0  0  0  0  0  0  0  0
  -11.7660   14.2730    6.7450 C   0  0  0  0  0  0  0  0  0  0  0  0
  2  1  1  6
  2  3  1  0
  2  4  1  0
  3  5  1  0
  4  6  1  0
  4  7  2  0
  6  8  1  0
  7  9  1  0
  8  9  2  0
  5 10  1  0
 10 11  2  0
 10 12  1  0
 11 13  1  0
 12 14  1  0
 13 14  2  0
M  END
