x0962_1_A-x0910_0_A
     RDKit          3D

 12 13  0  0  0  0  0  0  0  0999 V2000
   -3.1530   14.8510   -0.3690 C   0  0  0  0  0  0  0  0  0  0  0  0
   -4.3280   14.8510   -0.2840 C   0  0  0  0  0  0  0  0  0  0  0  0
   -5.6630   14.7620    0.1190 C   0  0  0  0  0  0  0  0  0  0  0  0
   -1.7760   14.7900   -0.1090 C   0  0  0  0  0  0  0  0  0  0  0  0
   -1.4260   14.8460    1.1700 N   0  0  0  0  0  0  0  0  0  0  0  0
   -0.7650   14.6820   -1.0130 N   0  0  0  0  0  0  0  0  0  0  0  0
   -6.0090   14.5410    1.4310 N   0  0  0  0  0  0  0  0  0  0  0  0
   -6.8500   14.8480   -0.5560 C   0  0  0  0  0  0  0  0  0  0  0  0
   -0.0990   14.7670    1.0760 N   0  0  0  0  0  0  0  0  0  0  0  0
    0.2870   14.6700   -0.2220 C   0  0  0  0  0  0  0  0  0  0  0  0
   -7.3610   14.5050    1.4980 C   0  0  0  0  0  0  0  0  0  0  0  0
   -7.9050   14.6850    0.3160 N   0  0  0  0  0  0  0  0  0  0  0  0
  1  2  3  0
  2  3  1  0
  1  4  1  0
  4  5  2  0
  4  6  1  0
  3  7  1  0
  3  8  2  0
  5  9  1  0
  6 10  2  0
  9 10  1  0
  7 11  1  0
  8 12  1  0
 11 12  2  0
M  END
