x0967_0_A-x1018_0_A
     RDKit          3D

 10 11  0  0  0  0  0  0  0  0999 V2000
   -7.1010   14.6550   -0.7650 N   0  0  0  0  0  0  0  0  0  0  0  0
   -7.8720   14.5610    0.3380 C   0  0  0  0  0  0  0  0  0  0  0  0
   -7.3800   14.5900    1.6240 C   0  0  0  0  0  0  0  0  0  0  0  0
   -5.7770   14.7820   -0.6250 C   0  0  0  0  0  0  0  0  0  0  0  0
   -5.1890   14.8190    0.6520 C   0  0  0  0  0  0  0  0  0  0  0  0
   -5.0300   14.8710   -1.7260 N   0  0  0  0  0  0  0  0  0  0  0  0
   -6.0080   14.7250    1.7810 C   0  0  0  0  0  0  0  0  0  0  0  0
   -3.6930   14.9930   -1.5920 C   0  0  0  0  0  0  0  0  0  0  0  0
   -3.8010   14.9490    0.7690 C   0  0  0  0  0  0  0  0  0  0  0  0
   -3.0390   15.0340   -0.3800 C   0  0  0  0  0  0  0  0  0  0  0  0
  1  2  2  0
  2  3  1  0
  1  4  1  0
  4  5  2  0
  4  6  1  0
  3  7  2  0
  5  7  1  0
  6  8  2  0
  5  9  1  0
  8 10  1  0
  9 10  2  0
M  END
