x0967_0_A_α-x0685_1_A_α
     RDKit          3D

 25 27  0  0  0  0  0  0  0  0999 V2000
   -1.3540   10.6210   -4.8250 N   0  0  0  0  0  0  0  0  0  0  0  0
   -1.4760   12.0490   -4.4540 C   0  0  0  0  0  0  0  0  0  0  0  0
   -0.1280   12.6830   -4.1040 C   0  0  0  0  0  0  0  0  0  0  0  0
   -0.7200   10.3630   -6.1360 C   0  0  0  0  0  0  0  0  0  0  0  0
   -0.5250    8.8590   -6.4110 C   0  0  0  0  0  0  0  0  0  0  0  0
   -1.5900   11.0160   -7.2330 C   0  0  0  0  0  0  0  0  0  0  0  0
    0.5840   12.0860   -2.5660 S   0  0  0  0  0  0  0  0  0  0  0  0
    0.0950    8.6160   -7.7790 C   0  0  0  0  0  0  0  0  0  0  0  0
   -1.0330   10.7480   -8.6340 C   0  0  0  0  0  0  0  0  0  0  0  0
    2.1560   12.3650   -2.7430 O   0  0  0  0  0  0  0  0  0  0  0  0
    0.2680   10.5060   -2.4890 O   0  0  0  0  0  0  0  0  0  0  0  0
   -0.0630   12.8850   -1.3050 O   0  0  0  0  0  0  0  0  0  0  0  0
   -0.7640    9.2550   -8.8710 C   0  0  0  0  0  0  0  0  0  0  0  0
   -0.6140   14.2030   -1.5340 C   0  0  0  0  0  0  0  0  0  0  0  0
   -1.3210   14.8070   -0.2950 C   0  0  0  0  0  0  0  0  0  0  0  0
   -2.8430   14.8050   -0.3850 C   0  0  0  0  0  0  0  0  0  0  0  0
   -3.5170   14.8350   -1.6020 C   0  0  0  0  0  0  0  0  0  0  0  0
   -3.6490   14.7670    0.7570 C   0  0  0  0  0  0  0  0  0  0  0  0
   -5.0510   14.7440    0.6270 C   0  0  0  0  0  0  0  0  0  0  0  0
   -4.8680   14.8170   -1.7410 N   0  0  0  0  0  0  0  0  0  0  0  0
   -5.6320   14.7650   -0.6510 C   0  0  0  0  0  0  0  0  0  0  0  0
   -5.8950   14.6950    1.7390 C   0  0  0  0  0  0  0  0  0  0  0  0
   -6.9640   14.7290   -0.8050 N   0  0  0  0  0  0  0  0  0  0  0  0
   -7.2720   14.6530    1.5780 C   0  0  0  0  0  0  0  0  0  0  0  0
   -7.7550   14.6720    0.2870 C   0  0  0  0  0  0  0  0  0  0  0  0
  1  2  1  0
  2  3  1  0
  1  4  1  0
  4  5  1  0
  4  6  1  0
  3  7  1  0
  5  8  1  0
  6  9  1  0
  7 10  1  0
  7 11  1  0
  7 12  1  0
  8 13  1  0
  9 13  1  0
 12 14  1  0
 14 15  1  0
 15 16  1  0
 16 17  2  0
 16 18  1  0
 18 19  2  0
 17 20  1  0
 19 21  1  0
 20 21  2  0
 19 22  1  0
 21 23  1  0
 22 24  2  0
 23 25  2  0
 24 25  1  0
M  END
