x0962_1_A_α-x0969_0_A_α
     RDKit          3D

 12 13  0  0  0  0  0  0  0  0999 V2000
   -4.1640   15.0360   -2.6400 N   0  0  0  0  0  0  0  0  0  0  0  0
   -5.1140   14.8130   -2.0120 C   0  0  0  0  0  0  0  0  0  0  0  0
   -6.2550   14.4860   -1.2320 C   0  0  0  0  0  0  0  0  0  0  0  0
   -7.1920   14.3180   -0.2260 C   0  0  0  0  0  0  0  0  0  0  0  0
   -5.2650   15.2400   -0.3990 C   0  0  1  0  0  0  0  0  0  0  0  0
   -5.0150   14.6660    0.9280 N   0  0  0  0  0  0  0  0  0  0  0  0
   -7.2620   14.6440    1.1210 N   0  0  0  0  0  0  0  0  0  0  0  0
   -3.9780   15.3720   -1.1890 C   0  0  0  0  0  0  0  0  0  0  0  0
   -6.1260   14.7800    1.6680 C   0  0  0  0  0  0  0  0  0  0  0  0
   -2.7750   15.0810   -0.7010 C   0  0  0  0  0  0  0  0  0  0  0  0
   -3.7280   14.4690    1.3910 C   0  0  0  0  0  0  0  0  0  0  0  0
   -2.6370   14.6490    0.6510 C   0  0  0  0  0  0  0  0  0  0  0  0
  1  2  3  0
  2  3  1  0
  3  4  2  0
  3  5  1  0
  5  6  1  0
  4  7  1  0
  5  8  1  6
  6  9  1  0
  7  9  2  0
  8 10  2  0
  6 11  1  0
 10 12  1  0
 11 12  2  0
M  END
