x0962_1_A_α-x0895_1_A_α
     RDKit          3D

 13 14  0  0  0  0  0  0  0  0999 V2000
   -4.2540   15.1710   -2.4130 N   0  0  0  0  0  0  0  0  0  0  0  0
   -5.0680   14.9970   -1.6010 C   0  0  0  0  0  0  0  0  0  0  0  0
   -5.9660   14.7660   -0.5240 C   0  0  0  0  0  0  0  0  0  0  0  0
   -5.6260   14.9290    0.7670 N   0  0  0  0  0  0  0  0  0  0  0  0
   -7.2700   14.3600   -0.5000 C   0  0  0  0  0  0  0  0  0  0  0  0
   -6.7000   14.6160    1.5530 C   0  0  0  0  0  0  0  0  0  0  0  0
   -7.7250   14.2670    0.7980 N   0  0  0  0  0  0  0  0  0  0  0  0
   -4.3140   15.3630    1.1040 C   0  0  2  0  0  0  0  0  0  0  0  0
   -3.6820   15.5500   -0.2100 N   0  0  0  0  0  0  0  0  0  0  0  0
   -3.4830   14.4590    1.7440 N   0  0  0  0  0  0  0  0  0  0  0  0
   -2.5270   14.6280   -0.2500 C   0  0  0  0  0  0  0  0  0  0  0  0
   -2.2450   14.5190    1.2090 C   0  0  0  0  0  0  0  0  0  0  0  0
   -1.2040   14.5010    1.8080 O   0  0  0  0  0  0  0  0  0  0  0  0
  1  2  3  0
  2  3  1  0
  3  4  1  0
  3  5  2  0
  4  6  1  0
  5  7  1  0
  6  7  2  0
  8  4  1  6
  8  9  1  0
  8 10  1  0
  9 11  1  0
 10 12  1  0
 11 12  1  0
 12 13  2  0
M  END
