x0967_0_A-x0805_0_A
     RDKit          3D

 26 29  0  0  0  0  0  0  0  0999 V2000
   -2.3490   15.0870    0.0560 O   0  0  0  0  0  0  0  0  0  0  0  0
   -2.3770   14.7200   -1.2600 C   0  0  0  0  0  0  0  0  0  0  0  0
   -1.2490   14.6810   -1.9170 C   0  0  0  0  0  0  0  0  0  0  0  0
   -3.5400   14.4060   -1.8570 C   0  0  0  0  0  0  0  0  0  0  0  0
   -3.6290   14.0340   -3.1970 C   0  0  0  0  0  0  0  0  0  0  0  0
   -1.2580   14.3230   -3.2150 C   0  0  0  0  0  0  0  0  0  0  0  0
   -4.5080   14.5140   -0.9120 C   0  0  0  0  0  0  0  0  0  0  0  0
   -2.4330   13.9910   -3.9100 C   0  0  0  0  0  0  0  0  0  0  0  0
    0.0870   14.3530   -3.7320 C   0  0  1  0  0  0  0  0  0  0  0  0
   -5.7850   14.5370   -1.2220 N   0  0  0  0  0  0  0  0  0  0  0  0
   -3.9470   14.5760    0.3350 C   0  0  0  0  0  0  0  0  0  0  0  0
    1.0860   13.2470   -3.4110 C   0  0  1  0  0  0  0  0  0  0  0  0
    0.2910   15.0110   -5.0410 C   0  0  0  0  0  0  0  0  0  0  0  0
   -6.5830   14.6200   -0.1900 C   0  0  0  0  0  0  0  0  0  0  0  0
   -4.7420   14.6670    1.3860 C   0  0  0  0  0  0  0  0  0  0  0  0
    0.6580   12.0650   -2.6170 C   0  0  0  0  0  0  0  0  0  0  0  0
    2.0640   13.1690   -4.5240 C   0  0  0  0  0  0  0  0  0  0  0  0
    1.6410   15.5740   -4.8100 C   0  0  0  0  0  0  0  0  0  0  0  0
   -7.8790   14.6420   -0.4300 N   0  0  0  0  0  0  0  0  0  0  0  0
   -6.0880   14.6840    1.1350 C   0  0  0  0  0  0  0  0  0  0  0  0
    0.3490   10.9330   -3.2660 O   0  0  0  0  0  0  0  0  0  0  0  0
    0.6070   12.1390   -1.4050 O   0  0  0  0  0  0  0  0  0  0  0  0
    2.5870   14.4950   -4.5880 O   0  0  0  0  0  0  0  0  0  0  0  0
   -6.9670   14.7640    2.1930 C   0  0  0  0  0  0  0  0  0  0  0  0
   -8.7160   14.7200    0.6150 C   0  0  0  0  0  0  0  0  0  0  0  0
   -8.3150   14.7820    1.9340 C   0  0  0  0  0  0  0  0  0  0  0  0
  1  2  1  0
  2  3  2  0
  2  4  1  0
  4  5  2  0
  3  6  1  0
  4  7  1  0
  5  8  1  0
  6  8  2  0
  9  6  1  6
  7 10  2  0
  7 11  1  0
  9 12  1  0
  9 13  1  0
 10 14  1  0
 11 15  2  0
 12 16  1  6
 12 17  1  0
 13 18  1  0
 14 19  2  0
 14 20  1  0
 15 20  1  0
 16 21  1  0
 16 22  2  0
 17 23  1  0
 18 23  1  0
 20 24  2  0
 19 25  1  0
 24 26  1  0
 25 26  2  0
M  END
