x0967_0_A_α-6WOJ_0_B_γ
     RDKit          3D

 20 22  0  0  0  0  0  0  0  0999 V2000
   -0.4680   12.1000   -4.5330 O   0  0  0  0  0  0  0  0  0  0  0  0
   -0.6300   13.5090   -4.5410 C   0  0  1  0  0  0  0  0  0  0  0  0
   -0.5720   14.2160   -3.1730 C   0  0  2  0  0  0  0  0  0  0  0  0
    0.5100   14.2000   -5.2650 C   0  0  2  0  0  0  0  0  0  0  0  0
    1.7610   13.6330   -4.9040 O   0  0  0  0  0  0  0  0  0  0  0  0
   -1.8290   14.9690   -2.8100 C   0  0  0  0  0  0  0  0  0  0  0  0
    0.3950   15.2810   -3.3010 O   0  0  0  0  0  0  0  0  0  0  0  0
    0.2250   15.5670   -4.6870 C   0  0  1  0  0  0  0  0  0  0  0  0
    1.0180   16.7640   -5.1580 C   0  0  0  0  0  0  0  0  0  0  0  0
   -3.1760   14.3070   -2.8430 C   0  0  0  0  0  0  0  0  0  0  0  0
   -3.8770   14.4860   -1.5370 C   0  0  0  0  0  0  0  0  0  0  0  0
   -5.2160   14.4010   -1.5790 N   0  0  0  0  0  0  0  0  0  0  0  0
   -3.1630   14.7150   -0.3690 C   0  0  0  0  0  0  0  0  0  0  0  0
   -5.9060   14.5200   -0.4570 C   0  0  0  0  0  0  0  0  0  0  0  0
   -3.8750   14.8440    0.8110 C   0  0  0  0  0  0  0  0  0  0  0  0
   -7.2300   14.4160   -0.5510 N   0  0  0  0  0  0  0  0  0  0  0  0
   -5.2670   14.7380    0.7700 C   0  0  0  0  0  0  0  0  0  0  0  0
   -6.0510   14.8400    1.9210 C   0  0  0  0  0  0  0  0  0  0  0  0
   -7.9640   14.5160    0.5750 C   0  0  0  0  0  0  0  0  0  0  0  0
   -7.4260   14.7240    1.8270 C   0  0  0  0  0  0  0  0  0  0  0  0
  2  1  1  1
  2  3  1  0
  2  4  1  0
  4  5  1  1
  3  6  1  6
  3  7  1  0
  4  8  1  0
  7  8  1  0
  8  9  1  6
  6 10  1  0
 10 11  1  0
 11 12  2  0
 11 13  1  0
 12 14  1  0
 13 15  2  0
 14 16  2  0
 14 17  1  0
 15 17  1  0
 17 18  2  0
 16 19  1  0
 18 20  1  0
 19 20  2  0
M  END
