x0962_2_B-x0962_0_A
     RDKit          3D

 15 16  0  0  0  0  0  0  0  0999 V2000
  -10.6730   16.3120    0.8660 N   0  0  0  0  0  0  0  0  0  0  0  0
   -9.9280   16.0440    1.7090 C   0  0  0  0  0  0  0  0  0  0  0  0
   -9.0250   15.7020    2.7310 C   0  0  0  0  0  0  0  0  0  0  0  0
   -9.1340   16.1070    4.0380 N   0  0  0  0  0  0  0  0  0  0  0  0
   -7.8830   14.9250    2.6580 C   0  0  0  0  0  0  0  0  0  0  0  0
   -7.2700   14.2220    1.4690 C   0  0  0  0  0  0  0  0  0  0  0  0
   -8.0760   15.5700    4.7110 C   0  0  0  0  0  0  0  0  0  0  0  0
   -7.3210   14.8590    3.9130 N   0  0  0  0  0  0  0  0  0  0  0  0
   -5.9230   14.6540    1.0150 N   0  0  0  0  0  0  0  0  0  0  0  0
   -4.9310   15.3100    1.7170 C   0  0  0  0  0  0  0  0  0  0  0  0
   -5.4210   14.4460   -0.2460 C   0  0  0  0  0  0  0  0  0  0  0  0
   -4.1490   14.9740   -0.2400 C   0  0  0  0  0  0  0  0  0  0  0  0
   -3.8510   15.5100    0.9840 N   0  0  0  0  0  0  0  0  0  0  0  0
   -3.2300   14.9780   -1.3370 C   0  0  0  0  0  0  0  0  0  0  0  0
   -2.4870   14.9210   -2.2320 N   0  0  0  0  0  0  0  0  0  0  0  0
  1  2  3  0
  2  3  1  0
  3  4  1  0
  3  5  2  0
  5  6  1  0
  4  7  1  0
  5  8  1  0
  7  8  2  0
  6  9  1  0
  9 10  1  0
  9 11  1  0
 11 12  2  0
 10 13  2  0
 12 13  1  0
 12 14  1  0
 14 15  3  0
M  END
