x0962_0_A_α-x0681_0_A_α
     RDKit          3D

 12 13  0  0  0  0  0  0  0  0999 V2000
   -1.8110   14.8390   -1.8000 N   0  0  0  0  0  0  0  0  0  0  0  0
   -3.1930   14.4500   -1.6970 C   0  0  0  0  0  0  0  0  0  0  0  0
   -3.7170   15.0290   -2.9150 N   0  0  0  0  0  0  0  0  0  0  0  0
   -4.0010   15.0180   -0.5100 C   0  0  2  0  0  0  0  0  0  0  0  0
   -3.3070   15.2290    0.8030 N   0  0  0  0  0  0  0  0  0  0  0  0
   -5.2180   14.1670   -0.0900 C   0  0  0  0  0  0  0  0  0  0  0  0
   -4.4700   15.1880    1.7050 C   0  0  0  0  0  0  0  0  0  0  0  0
   -5.6820   15.1020    0.8850 N   0  0  0  0  0  0  0  0  0  0  0  0
   -6.0300   13.6310   -1.1920 N   0  0  0  0  0  0  0  0  0  0  0  0
   -4.8730   12.8910    0.5360 N   0  0  0  0  0  0  0  0  0  0  0  0
   -5.9810   12.0680    0.3410 C   0  0  0  0  0  0  0  0  0  0  0  0
   -6.6640   12.5060   -0.7080 C   0  0  0  0  0  0  0  0  0  0  0  0
  1  2  1  0
  2  3  1  0
  4  2  1  6
  4  5  1  0
  4  6  1  0
  5  7  1  0
  6  8  1  0
  7  8  1  0
  6  9  1  0
  6 10  1  0
 10 11  1  0
  9 12  1  0
 11 12  2  0
M  END
