x0962_3_A_α-x0471_0_A_α
     RDKit          3D

 30 32  0  0  0  0  0  0  0  0999 V2000
    1.2090   11.1580   -8.8820 N   0  0  0  0  0  0  0  0  0  0  0  0
    0.3170   11.2970   -7.7580 C   0  0  2  0  0  0  0  0  0  0  0  0
    1.0320   11.9130   -6.5350 C   0  0  0  0  0  0  0  0  0  0  0  0
   -0.2970    9.9830   -7.5740 C   0  0  0  0  0  0  0  0  0  0  0  0
    0.2610   11.8610   -5.2050 C   0  0  0  0  0  0  0  0  0  0  0  0
    0.1150    8.8250   -8.1830 N   0  0  0  0  0  0  0  0  0  0  0  0
   -1.3690    9.6210   -6.8020 C   0  0  0  0  0  0  0  0  0  0  0  0
    0.5390   12.9960   -4.2190 C   0  0  0  0  0  0  0  0  0  0  0  0
   -0.7170    7.8340   -7.7590 C   0  0  0  0  0  0  0  0  0  0  0  0
   -1.6250    8.2870   -6.9250 N   0  0  0  0  0  0  0  0  0  0  0  0
    0.1050   14.3890   -4.7120 C   0  0  0  0  0  0  0  0  0  0  0  0
   -0.3910   15.3380   -3.6230 C   0  0  0  0  0  0  0  0  0  0  0  0
   -1.3580   14.6790   -2.6300 C   0  0  0  0  0  0  0  0  0  0  0  0
   -2.8300   15.0720   -2.8650 C   0  0  0  0  0  0  0  0  0  0  0  0
   -3.6940   14.9910   -1.6220 C   0  0  0  0  0  0  0  0  0  0  0  0
   -5.0800   14.8800   -1.7930 C   0  0  0  0  0  0  0  0  0  0  0  0
   -3.1390   15.0120   -0.3270 C   0  0  0  0  0  0  0  0  0  0  0  0
   -5.8590   14.7780   -0.6490 C   0  0  0  0  0  0  0  0  0  0  0  0
   -3.9500   14.9140    0.8130 C   0  0  0  0  0  0  0  0  0  0  0  0
   -7.2130   14.6450   -0.4710 N   0  0  0  0  0  0  0  0  0  0  0  0
   -5.3380   14.7900    0.6340 C   0  0  0  0  0  0  0  0  0  0  0  0
   -7.4650   14.5760    0.8760 C   0  0  0  0  0  0  0  0  0  0  0  0
   -6.3430   14.6670    1.5630 N   0  0  0  0  0  0  0  0  0  0  0  0
   -8.8480   14.4180    1.4130 C   0  0  0  0  0  0  0  0  0  0  0  0
   -8.8110   14.1770    2.8430 N   0  0  0  0  0  0  0  0  0  0  0  0
   -9.1830   15.1760    3.7150 C   0  0  0  0  0  0  0  0  0  0  0  0
   -9.4760   16.2930    3.3030 O   0  0  0  0  0  0  0  0  0  0  0  0
   -9.2580   14.8420    5.2010 C   0  0  0  0  0  0  0  0  0  0  0  0
   -9.6490   13.3910    5.4550 C   0  0  0  0  0  0  0  0  0  0  0  0
   -7.9860   15.2540    5.9320 C   0  0  0  0  0  0  0  0  0  0  0  0
  2  1  1  6
  2  3  1  0
  2  4  1  0
  3  5  1  0
  4  6  1  0
  4  7  2  0
  5  8  1  0
  6  9  1  0
  7 10  1  0
  9 10  2  0
  8 11  1  0
 11 12  1  0
 12 13  1  0
 13 14  1  0
 14 15  1  0
 15 16  2  0
 15 17  1  0
 16 18  1  0
 17 19  2  0
 18 20  1  0
 18 21  2  0
 19 21  1  0
 20 22  1  0
 21 23  1  0
 22 23  2  0
 22 24  1  0
 24 25  1  0
 25 26  1  0
 26 27  2  0
 26 28  1  0
 28 29  1  0
 28 30  1  0
M  END
