x0962_0_A_α-x1012_0_A_α
     RDKit          3D

 20 21  0  0  0  0  0  0  0  0999 V2000
   -3.6590   15.6050   -2.7410 N   0  0  0  0  0  0  0  0  0  0  0  0
   -3.3080   14.5200   -1.8830 C   0  0  1  0  0  0  0  0  0  0  0  0
   -1.8020   14.2190   -1.9900 C   0  0  0  0  0  0  0  0  0  0  0  0
   -3.9290   14.7750   -0.5500 C   0  0  0  0  0  0  0  0  0  0  0  0
   -3.2860   15.1130    0.6150 N   0  0  0  0  0  0  0  0  0  0  0  0
   -5.2600   14.7290   -0.2090 C   0  0  0  0  0  0  0  0  0  0  0  0
   -1.3360   13.7950   -3.4240 C   0  0  1  0  0  0  0  0  0  0  0  0
   -4.2420   15.2540    1.5830 C   0  0  0  0  0  0  0  0  0  0  0  0
   -5.4460   15.0170    1.1070 N   0  0  0  0  0  0  0  0  0  0  0  0
   -1.6690   14.8370   -4.5260 C   0  0  0  0  0  0  0  0  0  0  0  0
    0.1390   13.3770   -3.5430 C   0  0  2  0  0  0  0  0  0  0  0  0
    0.4610   12.4260   -2.4060 C   0  0  0  0  0  0  0  0  0  0  0  0
    1.0890   14.5940   -3.5630 C   0  0  0  0  0  0  0  0  0  0  0  0
   -0.6960   15.9290   -4.6680 N   0  0  0  0  0  0  0  0  0  0  0  0
   -1.2000   17.2130   -4.7520 C   0  0  0  0  0  0  0  0  0  0  0  0
    0.5080   11.1390   -2.7970 O   0  0  0  0  0  0  0  0  0  0  0  0
    0.6460   12.7130   -1.2380 O   0  0  0  0  0  0  0  0  0  0  0  0
    0.7290   15.5930   -4.6640 C   0  0  0  0  0  0  0  0  0  0  0  0
   -0.3040   18.2210   -4.7100 N   0  0  0  0  0  0  0  0  0  0  0  0
   -2.3850   17.5050   -4.8390 O   0  0  0  0  0  0  0  0  0  0  0  0
  2  1  1  6
  2  3  1  0
  2  4  1  0
  4  5  1  0
  4  6  2  0
  7  3  1  1
  5  8  1  0
  6  9  1  0
  8  9  2  0
  7 10  1  0
  7 11  1  0
 11 12  1  1
 11 13  1  0
 10 14  1  0
 14 15  1  0
 12 16  1  0
 12 17  2  0
 13 18  1  0
 14 18  1  0
 15 19  1  0
 15 20  2  0
M  END
