x0969_0_A-x0290_0_A
     RDKit          3D

 22 24  0  0  0  0  0  0  0  0999 V2000
   -6.2860   14.5830    1.6450 N   0  0  0  0  0  0  0  0  0  0  0  0
   -7.3760   14.3020    2.5300 N   0  0  0  0  0  0  0  0  0  0  0  0
   -8.6740   14.5880    1.9090 C   0  0  0  0  0  0  0  0  0  0  0  0
   -5.1250   13.8260    1.7730 C   0  0  0  0  0  0  0  0  0  0  0  0
   -6.6070   14.6660    0.3390 C   0  0  0  0  0  0  0  0  0  0  0  0
   -5.1770   12.6020    1.6900 O   0  0  0  0  0  0  0  0  0  0  0  0
   -3.8970   14.3940    1.9240 N   0  0  0  0  0  0  0  0  0  0  0  0
   -7.7620   14.5030   -0.2680 N   0  0  0  0  0  0  0  0  0  0  0  0
   -5.6340   14.9320   -0.5600 N   0  0  0  0  0  0  0  0  0  0  0  0
   -7.5370   14.6420   -1.6150 N   0  0  0  0  0  0  0  0  0  0  0  0
   -6.2550   14.8820   -1.7740 C   0  0  0  0  0  0  0  0  0  0  0  0
   -4.2840   15.1900   -0.3940 C   0  0  0  0  0  0  0  0  0  0  0  0
   -2.6880   14.3380    1.1900 C   0  0  0  0  0  0  0  0  0  0  0  0
   -5.4440   15.0730   -2.9110 C   0  0  0  0  0  0  0  0  0  0  0  0
   -3.5210   15.3630   -1.4670 C   0  0  0  0  0  0  0  0  0  0  0  0
   -1.6040   14.4370    1.9690 N   0  0  0  0  0  0  0  0  0  0  0  0
   -2.5680   14.2010   -0.1910 C   0  0  0  0  0  0  0  0  0  0  0  0
   -4.1270   15.2990   -2.7680 C   0  0  0  0  0  0  0  0  0  0  0  0
   -0.3900   14.4170    1.3920 C   0  0  0  0  0  0  0  0  0  0  0  0
   -1.2960   14.1840   -0.7810 C   0  0  0  0  0  0  0  0  0  0  0  0
   -1.1530   14.0500   -2.2690 C   0  0  0  0  0  0  0  0  0  0  0  0
   -0.1800   14.2970    0.0360 C   0  0  0  0  0  0  0  0  0  0  0  0
  1  2  1  0
  2  3  1  0
  1  4  1  0
  1  5  1  0
  4  6  2  0
  4  7  1  0
  5  8  2  0
  5  9  1  0
  8 10  1  0
  9 11  1  0
 10 11  2  0
  9 12  1  0
  7 13  1  0
 11 14  1  0
 12 15  2  0
 13 16  2  0
 13 17  1  0
 14 18  2  0
 15 18  1  0
 16 19  1  0
 17 20  2  0
 20 21  1  0
 19 22  2  0
 20 22  1  0
M  END
