x0962_0_A-x1012_0_A
     RDKit          3D

 20 21  0  0  0  0  0  0  0  0999 V2000
   -3.6600   15.6170   -2.7360 N   0  0  0  0  0  0  0  0  0  0  0  0
   -3.3050   14.5300   -1.8790 C   0  0  1  0  0  0  0  0  0  0  0  0
   -1.8020   14.2300   -1.9890 C   0  0  0  0  0  0  0  0  0  0  0  0
   -3.9300   14.7830   -0.5490 C   0  0  0  0  0  0  0  0  0  0  0  0
   -3.2850   15.1190    0.6180 N   0  0  0  0  0  0  0  0  0  0  0  0
   -5.2610   14.7360   -0.2070 C   0  0  0  0  0  0  0  0  0  0  0  0
   -1.3370   13.7960   -3.4210 C   0  0  1  0  0  0  0  0  0  0  0  0
   -4.2450   15.2560    1.5840 C   0  0  0  0  0  0  0  0  0  0  0  0
   -5.4480   15.0200    1.1090 N   0  0  0  0  0  0  0  0  0  0  0  0
   -1.6690   14.8370   -4.5260 C   0  0  0  0  0  0  0  0  0  0  0  0
    0.1380   13.3780   -3.5380 C   0  0  2  0  0  0  0  0  0  0  0  0
    0.4610   12.4280   -2.3990 C   0  0  0  0  0  0  0  0  0  0  0  0
    1.0900   14.5950   -3.5640 C   0  0  0  0  0  0  0  0  0  0  0  0
   -0.6980   15.9280   -4.6630 N   0  0  0  0  0  0  0  0  0  0  0  0
   -1.2010   17.2110   -4.7580 C   0  0  0  0  0  0  0  0  0  0  0  0
    0.5130   11.1400   -2.7890 O   0  0  0  0  0  0  0  0  0  0  0  0
    0.6440   12.7160   -1.2320 O   0  0  0  0  0  0  0  0  0  0  0  0
    0.7290   15.5960   -4.6620 C   0  0  0  0  0  0  0  0  0  0  0  0
   -0.3100   18.2210   -4.7050 N   0  0  0  0  0  0  0  0  0  0  0  0
   -2.3870   17.4970   -4.8650 O   0  0  0  0  0  0  0  0  0  0  0  0
  2  1  1  6
  2  3  1  0
  2  4  1  0
  4  5  1  0
  4  6  2  0
  7  3  1  1
  5  8  1  0
  6  9  1  0
  8  9  2  0
  7 10  1  0
  7 11  1  0
 11 12  1  1
 11 13  1  0
 10 14  1  0
 14 15  1  0
 12 16  1  0
 12 17  2  0
 13 18  1  0
 14 18  1  0
 15 19  1  0
 15 20  2  0
M  END
