x0962_0_A_α-x0662_0_A_β
     RDKit          3D

 21 22  0  0  0  0  0  0  0  0999 V2000
   -2.8670   15.0740   -2.5360 N   0  0  0  0  0  0  0  0  0  0  0  0
   -2.9020   14.1220   -1.4300 C   0  0  2  0  0  0  0  0  0  0  0  0
   -3.4040   12.7520   -1.9320 C   0  0  0  0  0  0  0  0  0  0  0  0
   -3.7650   14.6080   -0.3320 C   0  0  0  0  0  0  0  0  0  0  0  0
   -2.5070   12.1300   -3.0020 C   0  0  0  0  0  0  0  0  0  0  0  0
   -3.2580   14.9970    0.8800 N   0  0  0  0  0  0  0  0  0  0  0  0
   -5.1250   14.7710   -0.2220 C   0  0  0  0  0  0  0  0  0  0  0  0
   -1.2270   11.5100   -2.4430 C   0  0  0  0  0  0  0  0  0  0  0  0
   -4.3210   15.3690    1.6550 C   0  0  0  0  0  0  0  0  0  0  0  0
   -5.4590   15.2350    1.0110 N   0  0  0  0  0  0  0  0  0  0  0  0
   -0.0690   11.6480   -3.4270 C   0  0  0  0  0  0  0  0  0  0  0  0
   -0.3320   10.9480   -4.6920 N   0  0  0  0  0  0  0  0  0  0  0  0
    0.2640   11.3630   -5.7600 C   0  0  0  0  0  0  0  0  0  0  0  0
    1.0580   12.3030   -5.9460 O   0  0  0  0  0  0  0  0  0  0  0  0
    0.0140   10.5790   -7.0490 C   0  0  0  0  0  0  0  0  0  0  0  0
    0.8080   10.8750   -8.1590 C   0  0  0  0  0  0  0  0  0  0  0  0
   -0.9540    9.5710   -7.2020 C   0  0  0  0  0  0  0  0  0  0  0  0
    0.6720   10.2210   -9.3880 C   0  0  0  0  0  0  0  0  0  0  0  0
   -1.1060    8.9040   -8.4220 C   0  0  0  0  0  0  0  0  0  0  0  0
    1.4900   10.5580  -10.4780 N   0  0  0  0  0  0  0  0  0  0  0  0
   -0.2980    9.2270   -9.5090 C   0  0  0  0  0  0  0  0  0  0  0  0
  2  1  1  6
  2  3  1  0
  2  4  1  0
  3  5  1  0
  4  6  1  0
  4  7  2  0
  5  8  1  0
  6  9  1  0
  7 10  1  0
  9 10  2  0
  8 11  1  0
 11 12  1  0
 12 13  2  3
 13 14  1  0
 13 15  1  0
 15 16  2  0
 15 17  1  0
 16 18  1  0
 17 19  2  0
 18 20  1  0
 18 21  2  0
 19 21  1  0
M  CHG  1  14  -1
M  END
