x0969_0_A-x0864_0_A
     RDKit          3D

 25 27  0  0  0  0  0  0  0  0999 V2000
   -6.8800   14.8020    2.4530 N   0  0  0  0  0  0  0  0  0  0  0  0
   -6.5620   14.7640    1.1330 C   0  0  0  0  0  0  0  0  0  0  0  0
   -7.3780   14.6970    0.1040 N   0  0  0  0  0  0  0  0  0  0  0  0
   -5.2680   14.8010    0.6690 N   0  0  0  0  0  0  0  0  0  0  0  0
   -6.6200   14.6770   -1.0570 N   0  0  0  0  0  0  0  0  0  0  0  0
   -5.3450   14.7290   -0.7120 C   0  0  0  0  0  0  0  0  0  0  0  0
   -4.0870   14.8800    1.3680 C   0  0  0  0  0  0  0  0  0  0  0  0
   -4.1000   14.7020   -1.4390 C   0  0  0  0  0  0  0  0  0  0  0  0
   -2.9390   14.8440    0.7150 C   0  0  0  0  0  0  0  0  0  0  0  0
   -2.9270   14.7250   -0.7310 C   0  0  0  0  0  0  0  0  0  0  0  0
   -1.5040   14.6130   -1.2320 C   0  0  0  0  0  0  0  0  0  0  0  0
   -1.1320   14.6990   -2.7080 C   0  0  0  0  0  0  0  0  0  0  0  0
    0.3930   14.6120   -2.7780 C   0  0  0  0  0  0  0  0  0  0  0  0
    0.6510   13.2640   -2.2970 N   0  0  0  0  0  0  0  0  0  0  0  0
    0.6330   12.3460   -3.1640 C   0  0  0  0  0  0  0  0  0  0  0  0
    0.4060   12.7100   -4.6210 C   0  0  0  0  0  0  0  0  0  0  0  0
    0.7910   11.0410   -2.9070 O   0  0  0  0  0  0  0  0  0  0  0  0
   -0.1780   11.6090   -5.3530 N   0  0  0  0  0  0  0  0  0  0  0  0
   -1.3850   11.0740   -4.9480 C   0  0  0  0  0  0  0  0  0  0  0  0
    0.4560   11.2330   -6.5210 C   0  0  0  0  0  0  0  0  0  0  0  0
    1.4720   11.7560   -6.9550 O   0  0  0  0  0  0  0  0  0  0  0  0
   -1.9510   10.0800   -5.6370 C   0  0  0  0  0  0  0  0  0  0  0  0
   -0.1530   10.1010   -7.2550 C   0  0  0  0  0  0  0  0  0  0  0  0
   -1.2980    9.5640   -6.8170 C   0  0  0  0  0  0  0  0  0  0  0  0
   -2.1080    8.1330   -7.6960 Br  0  0  0  0  0  0  0  0  0  0  0  0
  1  2  1  0
  2  3  2  0
  2  4  1  0
  3  5  1  0
  4  6  1  0
  5  6  2  0
  4  7  1  0
  6  8  1  0
  7  9  2  0
  8 10  2  0
  9 10  1  0
 10 11  1  0
 11 12  1  0
 12 13  1  0
 13 14  1  0
 14 15  2  3
 15 16  1  0
 15 17  1  0
 16 18  1  0
 18 19  1  0
 18 20  1  0
 20 21  2  0
 19 22  2  0
 20 23  1  0
 22 24  1  0
 23 24  2  0
 24 25  1  0
M  END
