x0962_1_A-x0689_0_A
     RDKit          3D

 14 15  0  0  0  0  0  0  0  0999 V2000
   -4.1960   15.4540   -1.3900 N   0  0  0  0  0  0  0  0  0  0  0  0
   -4.3900   14.7680   -0.1220 C   0  0  1  0  0  0  0  0  0  0  0  0
   -3.5510   15.0610    0.9890 N   0  0  0  0  0  0  0  0  0  0  0  0
   -5.7950   14.7240    0.2690 C   0  0  0  0  0  0  0  0  0  0  0  0
   -6.1320   14.5480    1.5890 N   0  0  0  0  0  0  0  0  0  0  0  0
   -6.9940   14.8170   -0.3910 C   0  0  0  0  0  0  0  0  0  0  0  0
   -2.2620   14.7840    0.7600 C   0  0  0  0  0  0  0  0  0  0  0  0
   -7.4770   14.5410    1.6770 C   0  0  0  0  0  0  0  0  0  0  0  0
   -8.0350   14.7000    0.4980 N   0  0  0  0  0  0  0  0  0  0  0  0
   -1.9920   14.7870   -0.5470 N   0  0  0  0  0  0  0  0  0  0  0  0
   -1.3910   14.5400    1.7230 N   0  0  0  0  0  0  0  0  0  0  0  0
   -0.7390   14.5340   -0.9110 C   0  0  0  0  0  0  0  0  0  0  0  0
   -0.1540   14.2940    1.3150 C   0  0  0  0  0  0  0  0  0  0  0  0
    0.2410   14.2780   -0.0100 C   0  0  0  0  0  0  0  0  0  0  0  0
  2  1  1  6
  2  3  1  0
  2  4  1  0
  4  5  1  0
  4  6  2  0
  3  7  1  0
  5  8  1  0
  6  9  1  0
  8  9  2  0
  7 10  2  0
  7 11  1  0
 10 12  1  0
 11 13  2  0
 12 14  2  0
 13 14  1  0
M  END
