x0962_3_A-x0950_1_A
     RDKit          3D

 14 14  0  0  0  0  0  0  0  0999 V2000
    1.1940   11.1400   -9.0660 N   0  0  0  0  0  0  0  0  0  0  0  0
    0.4050   11.2870   -7.8580 C   0  0  2  0  0  0  0  0  0  0  0  0
    1.2080   11.8780   -6.6630 C   0  0  0  0  0  0  0  0  0  0  0  0
   -0.2560    9.9970   -7.6210 C   0  0  0  0  0  0  0  0  0  0  0  0
    0.7080   11.6560   -5.3540 O   0  0  0  0  0  0  0  0  0  0  0  0
    0.1370    8.8300   -8.2340 N   0  0  0  0  0  0  0  0  0  0  0  0
   -1.3150    9.6430   -6.8340 C   0  0  0  0  0  0  0  0  0  0  0  0
    1.3000   12.4470   -4.3370 C   0  0  1  0  0  0  0  0  0  0  0  0
   -0.6920    7.8430   -7.7970 C   0  0  0  0  0  0  0  0  0  0  0  0
   -1.5810    8.3090   -6.9500 N   0  0  0  0  0  0  0  0  0  0  0  0
    0.9330   13.8980   -4.6290 C   0  0  0  0  0  0  0  0  0  0  0  0
    0.9250   12.0750   -2.8930 C   0  0  0  0  0  0  0  0  0  0  0  0
    0.3000   11.0790   -2.5960 O   0  0  0  0  0  0  0  0  0  0  0  0
    1.3480   12.9580   -1.9640 O   0  0  0  0  0  0  0  0  0  0  0  0
  2  1  1  6
  2  3  1  0
  2  4  1  0
  3  5  1  0
  4  6  1  0
  4  7  2  0
  5  8  1  0
  6  9  1  0
  7 10  1  0
  9 10  2  0
  8 11  1  6
  8 12  1  0
 12 13  2  0
 12 14  1  0
M  END
