x0962_0_A-x0574_0_A
     RDKit          3D

 14 15  0  0  0  0  0  0  0  0999 V2000
   -2.8000   14.7480   -2.6800 N   0  0  0  0  0  0  0  0  0  0  0  0
   -3.3070   14.4410   -1.6830 C   0  0  0  0  0  0  0  0  0  0  0  0
   -3.8570   14.1290   -0.3590 C   0  0  1  0  0  0  0  0  0  0  0  0
   -3.1080   14.8920    0.7290 C   0  0  1  0  0  0  0  0  0  0  0  0
   -5.3180   14.5640   -0.2940 C   0  0  0  0  0  0  0  0  0  0  0  0
   -4.2100   15.6420    1.5180 C   0  0  0  0  0  0  0  0  0  0  0  0
   -5.5150   15.2210    0.9820 N   0  0  0  0  0  0  0  0  0  0  0  0
   -2.1540   14.1830    1.6500 N   0  0  0  0  0  0  0  0  0  0  0  0
   -2.2840   15.8510   -0.0740 C   0  0  0  0  0  0  0  0  0  0  0  0
   -0.8080   13.9990    1.1250 C   0  0  1  0  0  0  0  0  0  0  0  0
   -0.6100   15.3850    0.0650 S   0  0  0  0  0  0  0  0  0  0  0  0
   -6.5530   14.7330    1.8990 C   0  0  0  0  0  0  0  0  0  0  0  0
    0.1100   14.0360    2.1950 N   0  0  0  0  0  0  0  0  0  0  0  0
   -6.7660   13.2450    2.0290 C   0  0  0  0  0  0  0  0  0  0  0  0
  1  2  3  0
  3  2  1  6
  3  4  1  0
  3  5  1  0
  4  6  1  1
  5  7  1  0
  6  7  1  0
  4  8  1  0
  4  9  1  0
  8 10  1  0
  9 11  2  0
 10 11  1  0
  7 12  1  0
 10 13  1  1
 12 14  1  0
M  END
