x0969_0_A_α-x0465_0_A_α
     RDKit          3D

 26 28  0  0  0  0  0  0  0  0999 V2000
   -6.7780   14.8290    2.5980 N   0  0  0  0  0  0  0  0  0  0  0  0
   -6.6090   14.7710    1.2560 C   0  0  0  0  0  0  0  0  0  0  0  0
   -7.5570   14.6600    0.3560 N   0  0  0  0  0  0  0  0  0  0  0  0
   -5.3760   14.8330    0.6210 N   0  0  0  0  0  0  0  0  0  0  0  0
   -6.9760   14.6400   -0.8920 N   0  0  0  0  0  0  0  0  0  0  0  0
   -5.6790   14.7390   -0.7310 C   0  0  0  0  0  0  0  0  0  0  0  0
   -4.0780   14.9570    1.1110 C   0  0  0  0  0  0  0  0  0  0  0  0
   -4.6000   14.7480   -1.6460 C   0  0  0  0  0  0  0  0  0  0  0  0
   -3.0560   14.9600    0.2430 C   0  0  0  0  0  0  0  0  0  0  0  0
   -3.3360   14.8320   -1.1910 C   0  0  0  0  0  0  0  0  0  0  0  0
   -2.1660   14.7750   -2.1290 C   0  0  0  0  0  0  0  0  0  0  0  0
   -1.4450   13.4440   -2.1310 C   0  0  0  0  0  0  0  0  0  0  0  0
    0.0210   13.5960   -1.7360 C   0  0  0  0  0  0  0  0  0  0  0  0
    0.6880   12.3720   -2.0580 N   0  0  0  0  0  0  0  0  0  0  0  0
    0.9330   11.9620   -3.2350 C   0  0  0  0  0  0  0  0  0  0  0  0
    0.6040   12.6990   -4.5410 C   0  0  1  0  0  0  0  0  0  0  0  0
    1.5310   10.8040   -3.4580 O   0  0  0  0  0  0  0  0  0  0  0  0
    1.8350   13.5300   -4.8680 C   0  0  0  0  0  0  0  0  0  0  0  0
    0.4190   11.7590   -5.6030 O   0  0  0  0  0  0  0  0  0  0  0  0
   -0.7470   11.0620   -5.8130 C   0  0  0  0  0  0  0  0  0  0  0  0
   -1.0680   10.3100   -6.9450 C   0  0  0  0  0  0  0  0  0  0  0  0
   -1.6800   11.1180   -4.7770 C   0  0  0  0  0  0  0  0  0  0  0  0
   -0.2180   10.2060   -7.9780 F   0  0  0  0  0  0  0  0  0  0  0  0
   -2.2710    9.6220   -7.0480 C   0  0  0  0  0  0  0  0  0  0  0  0
   -2.8960   10.4310   -4.8750 C   0  0  0  0  0  0  0  0  0  0  0  0
   -3.1900    9.6800   -6.0120 C   0  0  0  0  0  0  0  0  0  0  0  0
  1  2  1  0
  2  3  2  0
  2  4  1  0
  3  5  1  0
  4  6  1  0
  5  6  2  0
  4  7  1  0
  6  8  1  0
  7  9  2  0
  8 10  2  0
  9 10  1  0
 10 11  1  0
 11 12  1  0
 12 13  1  0
 13 14  1  0
 14 15  2  3
 15 16  1  0
 15 17  1  0
 16 18  1  6
 16 19  1  0
 19 20  1  0
 20 21  2  0
 20 22  1  0
 21 23  1  0
 21 24  1  0
 22 25  2  0
 24 26  2  0
 25 26  1  0
M  END
