x0969_0_A-x1012_0_A
     RDKit          3D

 24 26  0  0  0  0  0  0  0  0999 V2000
   -6.8010   14.7580    2.6400 N   0  0  0  0  0  0  0  0  0  0  0  0
   -6.6320   14.7460    1.3020 C   0  0  0  0  0  0  0  0  0  0  0  0
   -7.5740   14.5220    0.4140 N   0  0  0  0  0  0  0  0  0  0  0  0
   -5.4290   14.9880    0.6500 N   0  0  0  0  0  0  0  0  0  0  0  0
   -7.0240   14.6140   -0.8400 N   0  0  0  0  0  0  0  0  0  0  0  0
   -5.7510   14.8930   -0.6940 C   0  0  0  0  0  0  0  0  0  0  0  0
   -4.1410   15.2770    1.1110 C   0  0  0  0  0  0  0  0  0  0  0  0
   -4.7220   15.1030   -1.6270 C   0  0  0  0  0  0  0  0  0  0  0  0
   -3.1570   15.4790    0.2150 C   0  0  0  0  0  0  0  0  0  0  0  0
   -3.4750   15.3860   -1.2160 C   0  0  0  0  0  0  0  0  0  0  0  0
   -2.3890   15.6060   -2.2250 C   0  0  0  0  0  0  0  0  0  0  0  0
   -2.9560   15.8960   -3.6240 C   0  0  0  0  0  0  0  0  0  0  0  0
   -2.3820   17.1020   -4.2180 N   0  0  0  0  0  0  0  0  0  0  0  0
   -1.2530   16.9390   -4.7680 C   0  0  0  0  0  0  0  0  0  0  0  0
   -0.6380   18.0070   -5.3240 N   0  0  0  0  0  0  0  0  0  0  0  0
   -0.5680   15.7580   -4.8730 N   0  0  0  0  0  0  0  0  0  0  0  0
   -1.2590   14.4990   -5.1540 C   0  0  0  0  0  0  0  0  0  0  0  0
    0.8720   15.6960   -4.6260 C   0  0  0  0  0  0  0  0  0  0  0  0
   -1.1450   13.5080   -4.0030 C   0  0  0  0  0  0  0  0  0  0  0  0
    1.2470   14.4080   -3.8810 C   0  0  0  0  0  0  0  0  0  0  0  0
    0.0580   13.8150   -3.1130 C   0  0  0  0  0  0  0  0  0  0  0  0
    0.4020   12.6110   -2.2550 C   0  0  0  0  0  0  0  0  0  0  0  0
    0.4780   11.4230   -2.8980 O   0  0  0  0  0  0  0  0  0  0  0  0
    0.5840   12.6990   -1.0600 O   0  0  0  0  0  0  0  0  0  0  0  0
  1  2  1  0
  2  3  2  0
  2  4  1  0
  3  5  1  0
  4  6  1  0
  5  6  2  0
  4  7  1  0
  6  8  1  0
  7  9  2  0
  8 10  2  0
  9 10  1  0
 10 11  1  0
 11 12  1  0
 12 13  1  0
 13 14  2  3
 14 15  1  0
 14 16  1  0
 16 17  1  0
 16 18  1  0
 17 19  1  0
 18 20  1  0
 19 21  1  0
 20 21  1  0
 21 22  1  0
 22 23  1  0
 22 24  2  0
M  END
