x0967_0_A_α-x0950_1_A_α
     RDKit          3D

 19 20  0  0  0  0  0  0  0  0999 V2000
    1.0290   14.0010   -4.8440 C   0  0  0  0  0  0  0  0  0  0  0  0
    1.3120   12.5760   -4.4180 C   0  0  2  0  0  0  0  0  0  0  0  0
    0.5500   11.7030   -5.2590 O   0  0  0  0  0  0  0  0  0  0  0  0
    1.0120   12.3130   -2.9340 C   0  0  0  0  0  0  0  0  0  0  0  0
    0.4200   11.3100   -2.5470 O   0  0  0  0  0  0  0  0  0  0  0  0
    1.5130   13.3120   -2.1440 O   0  0  0  0  0  0  0  0  0  0  0  0
    0.7130   13.9110   -1.0910 C   0  0  0  0  0  0  0  0  0  0  0  0
   -0.5320   14.6860   -1.5510 C   0  0  0  0  0  0  0  0  0  0  0  0
   -1.3500   15.2990   -0.3910 C   0  0  0  0  0  0  0  0  0  0  0  0
   -2.8540   15.1270   -0.4430 C   0  0  0  0  0  0  0  0  0  0  0  0
   -3.5470   15.0670   -1.6450 C   0  0  0  0  0  0  0  0  0  0  0  0
   -3.6250   15.0190    0.7160 C   0  0  0  0  0  0  0  0  0  0  0  0
   -5.0200   14.8560    0.6180 C   0  0  0  0  0  0  0  0  0  0  0  0
   -4.8890   14.9100   -1.7550 N   0  0  0  0  0  0  0  0  0  0  0  0
   -5.6250   14.8040   -0.6490 C   0  0  0  0  0  0  0  0  0  0  0  0
   -5.8310   14.7430    1.7540 C   0  0  0  0  0  0  0  0  0  0  0  0
   -6.9480   14.6480   -0.7750 N   0  0  0  0  0  0  0  0  0  0  0  0
   -7.1990   14.5770    1.6180 C   0  0  0  0  0  0  0  0  0  0  0  0
   -7.7100   14.5370    0.3360 C   0  0  0  0  0  0  0  0  0  0  0  0
  2  1  1  6
  2  3  1  0
  2  4  1  0
  4  5  2  0
  4  6  1  0
  6  7  1  0
  7  8  1  0
  8  9  1  0
  9 10  1  0
 10 11  2  0
 10 12  1  0
 12 13  2  0
 11 14  1  0
 13 15  1  0
 14 15  2  0
 13 16  1  0
 15 17  1  0
 16 18  2  0
 17 19  2  0
 18 19  1  0
M  END
