x0962_2_B-x0962_1_A
     RDKit          3D

 15 16  0  0  0  0  0  0  0  0999 V2000
  -11.0230   15.8220    1.5250 N   0  0  0  0  0  0  0  0  0  0  0  0
   -9.5650   15.7430    1.5580 C   0  0  2  0  0  0  0  0  0  0  0  0
   -8.9390   14.7250    0.5690 C   0  0  0  0  0  0  0  0  0  0  0  0
   -9.0540   15.5030    2.9330 C   0  0  0  0  0  0  0  0  0  0  0  0
   -9.0490   16.3940    3.9850 N   0  0  0  0  0  0  0  0  0  0  0  0
   -8.4820   14.3610    3.4480 C   0  0  0  0  0  0  0  0  0  0  0  0
   -7.4860   14.7510    0.4880 N   0  0  0  0  0  0  0  0  0  0  0  0
   -8.4760   15.7590    5.0520 C   0  0  0  0  0  0  0  0  0  0  0  0
   -8.1320   14.5300    4.7550 N   0  0  0  0  0  0  0  0  0  0  0  0
   -6.5860   14.5530    1.5130 C   0  0  0  0  0  0  0  0  0  0  0  0
   -6.7570   14.9880   -0.6470 C   0  0  0  0  0  0  0  0  0  0  0  0
   -5.4410   14.9210   -0.2460 C   0  0  0  0  0  0  0  0  0  0  0  0
   -5.3430   14.6540    1.0860 N   0  0  0  0  0  0  0  0  0  0  0  0
   -4.2850   15.0970   -1.0590 C   0  0  0  0  0  0  0  0  0  0  0  0
   -3.3630   15.2120   -1.7510 N   0  0  0  0  0  0  0  0  0  0  0  0
  2  1  1  1
  2  3  1  0
  2  4  1  0
  4  5  1  0
  4  6  2  0
  3  7  1  0
  5  8  1  0
  6  9  1  0
  8  9  2  0
  7 10  1  0
  7 11  1  0
 11 12  2  0
 10 13  2  0
 12 13  1  0
 12 14  1  0
 14 15  3  0
M  END
