x0962_1_A_α-x0766_0_A_α
     RDKit          3D

 20 22  0  0  0  0  0  0  0  0999 V2000
   -3.6110   16.2110    0.7280 N   0  0  0  0  0  0  0  0  0  0  0  0
   -3.8960   14.8700    0.3090 C   0  0  1  0  0  0  0  0  0  0  0  0
   -5.3690   14.7340    0.3850 C   0  0  0  0  0  0  0  0  0  0  0  0
   -3.1980   14.7630   -0.9890 C   0  0  0  0  0  0  0  0  0  0  0  0
   -5.9520   14.5190    1.6020 N   0  0  0  0  0  0  0  0  0  0  0  0
   -6.4360   14.7650   -0.4920 C   0  0  0  0  0  0  0  0  0  0  0  0
   -1.8480   14.6530   -1.2190 C   0  0  0  0  0  0  0  0  0  0  0  0
   -4.0970   14.7900   -2.4260 S   0  0  0  0  0  0  0  0  0  0  0  0
   -7.2870   14.4320    1.4400 C   0  0  0  0  0  0  0  0  0  0  0  0
   -7.6240   14.5740    0.1820 N   0  0  0  0  0  0  0  0  0  0  0  0
   -2.6830   14.6560   -3.3650 C   0  0  0  0  0  0  0  0  0  0  0  0
   -1.5340   14.5940   -2.6030 C   0  0  0  0  0  0  0  0  0  0  0  0
   -0.1150   14.4890   -3.0730 C   0  0  1  0  0  0  0  0  0  0  0  0
    0.1860   13.2230   -3.8790 C   0  0  2  0  0  0  0  0  0  0  0  0
    0.3480   15.6420   -3.9370 C   0  0  0  0  0  0  0  0  0  0  0  0
    0.5690   12.1590   -2.8930 C   0  0  0  0  0  0  0  0  0  0  0  0
    1.3090   13.6060   -4.8600 C   0  0  0  0  0  0  0  0  0  0  0  0
    1.5620   15.1020   -4.6440 C   0  0  0  0  0  0  0  0  0  0  0  0
    1.4330   12.2890   -2.0520 O   0  0  0  0  0  0  0  0  0  0  0  0
   -0.1360   11.0150   -2.9780 O   0  0  0  0  0  0  0  0  0  0  0  0
  2  1  1  6
  2  3  1  0
  2  4  1  0
  3  5  1  0
  3  6  2  0
  4  7  2  0
  4  8  1  0
  5  9  1  0
  6 10  1  0
  9 10  2  0
  8 11  1  0
  7 12  1  0
 11 12  2  0
 13 12  1  6
 13 14  1  0
 13 15  1  0
 14 16  1  1
 14 17  1  0
 15 18  1  0
 17 18  1  0
 16 19  2  0
 16 20  1  0
M  END
