x0962_0_A-x0969_0_A
     RDKit          3D

 11 12  0  0  0  0  0  0  0  0999 V2000
   -2.5290   14.5750   -2.5680 N   0  0  0  0  0  0  0  0  0  0  0  0
   -3.2040   14.9050   -1.6870 C   0  0  0  0  0  0  0  0  0  0  0  0
   -3.9980   15.3890   -0.5460 C   0  0  2  0  0  0  0  0  0  0  0  0
   -3.2380   15.3180    0.7380 N   0  0  0  0  0  0  0  0  0  0  0  0
   -5.2320   14.5410   -0.2310 C   0  0  1  0  0  0  0  0  0  0  0  0
   -4.2370   15.0130    1.7670 C   0  0  0  0  0  0  0  0  0  0  0  0
   -5.4860   15.0200    1.0800 N   0  0  0  0  0  0  0  0  0  0  0  0
   -6.5570   14.8160   -0.8410 N   0  0  0  0  0  0  0  0  0  0  0  0
   -6.6180   14.2790    1.4490 C   0  0  2  0  0  0  0  0  0  0  0  0
   -7.4750   14.5600    0.2990 N   0  0  0  0  0  0  0  0  0  0  0  0
   -7.2240   14.7270    2.6600 N   0  0  0  0  0  0  0  0  0  0  0  0
  1  2  3  0
  3  2  1  6
  3  4  1  0
  3  5  1  0
  4  6  1  0
  5  7  1  0
  6  7  1  0
  5  8  1  6
  7  9  1  0
  8 10  1  0
  9 10  1  0
  9 11  1  1
M  END
