x0962_2_B-x0104_0_A
     RDKit          3D

 23 25  0  0  0  0  0  0  0  0999 V2000
  -10.4360   15.0590    1.7890 N   0  0  0  0  0  0  0  0  0  0  0  0
   -9.0470   15.4010    2.1800 C   0  0  2  0  0  0  0  0  0  0  0  0
   -8.0670   14.3590    2.8720 C   0  0  2  0  0  0  0  0  0  0  0  0
   -8.9340   16.0610    3.4420 C   0  0  0  0  0  0  0  0  0  0  0  0
   -6.9660   13.7520    2.1500 N   0  0  0  0  0  0  0  0  0  0  0  0
   -8.6020   13.5880    4.0020 N   0  0  0  0  0  0  0  0  0  0  0  0
   -9.6290   17.0770    3.9810 N   0  0  0  0  0  0  0  0  0  0  0  0
   -8.0060   15.6990    4.3810 C   0  0  0  0  0  0  0  0  0  0  0  0
   -9.0910   17.2730    5.2180 C   0  0  0  0  0  0  0  0  0  0  0  0
   -8.1130   16.4430    5.4720 N   0  0  0  0  0  0  0  0  0  0  0  0
   -6.4040   14.2380    0.9910 C   0  0  0  0  0  0  0  0  0  0  0  0
   -9.4950   14.1120    4.9280 C   0  0  0  0  0  0  0  0  0  0  0  0
   -5.0100   14.3320    0.8700 C   0  0  0  0  0  0  0  0  0  0  0  0
   -7.1300   14.6560   -0.1100 C   0  0  0  0  0  0  0  0  0  0  0  0
   -9.2160   14.4100    6.2650 C   0  0  0  0  0  0  0  0  0  0  0  0
  -11.1370   14.4930    4.5890 S   0  0  0  0  0  0  0  0  0  0  0  0
   -4.3360   14.7790   -0.2120 N   0  0  0  0  0  0  0  0  0  0  0  0
   -6.4790   15.1240   -1.2440 C   0  0  0  0  0  0  0  0  0  0  0  0
  -11.4550   15.0300    6.1770 C   0  0  0  0  0  0  0  0  0  0  0  0
  -10.3420   14.9350    6.9790 C   0  0  0  0  0  0  0  0  0  0  0  0
   -5.1010   15.1620   -1.2490 C   0  0  0  0  0  0  0  0  0  0  0  0
   -4.5180   15.6240   -2.4010 O   0  0  0  0  0  0  0  0  0  0  0  0
   -3.2840   14.9870   -2.6870 C   0  0  0  0  0  0  0  0  0  0  0  0
  2  1  1  1
  2  3  1  0
  2  4  1  0
  3  5  1  6
  3  6  1  0
  4  7  1  0
  4  8  2  0
  7  9  1  0
  8 10  1  0
  9 10  2  0
  5 11  1  0
  6 12  1  0
 11 13  2  0
 11 14  1  0
 12 15  2  0
 12 16  1  0
 13 17  1  0
 14 18  2  0
 16 19  1  0
 15 20  1  0
 19 20  2  0
 17 21  2  0
 18 21  1  0
 21 22  1  0
 22 23  1  0
M  END
