x0962_1_A-x0895_1_A
     RDKit          3D

 13 14  0  0  0  0  0  0  0  0999 V2000
   -4.2660   15.1550   -2.4290 N   0  0  0  0  0  0  0  0  0  0  0  0
   -5.0800   14.9870   -1.6130 C   0  0  0  0  0  0  0  0  0  0  0  0
   -5.9710   14.7660   -0.5360 C   0  0  0  0  0  0  0  0  0  0  0  0
   -5.6320   14.9320    0.7570 N   0  0  0  0  0  0  0  0  0  0  0  0
   -7.2790   14.3640   -0.5050 C   0  0  0  0  0  0  0  0  0  0  0  0
   -6.7060   14.6290    1.5440 C   0  0  0  0  0  0  0  0  0  0  0  0
   -7.7320   14.2820    0.7930 N   0  0  0  0  0  0  0  0  0  0  0  0
   -4.3190   15.3610    1.0920 C   0  0  2  0  0  0  0  0  0  0  0  0
   -3.6890   15.5470   -0.2180 N   0  0  0  0  0  0  0  0  0  0  0  0
   -3.4910   14.4510    1.7320 N   0  0  0  0  0  0  0  0  0  0  0  0
   -2.5260   14.6300   -0.2550 C   0  0  0  0  0  0  0  0  0  0  0  0
   -2.2540   14.5230    1.2070 C   0  0  0  0  0  0  0  0  0  0  0  0
   -1.2140   14.5200    1.8140 O   0  0  0  0  0  0  0  0  0  0  0  0
  1  2  3  0
  2  3  1  0
  3  4  1  0
  3  5  2  0
  4  6  1  0
  5  7  1  0
  6  7  2  0
  8  4  1  6
  8  9  1  0
  8 10  1  0
  9 11  1  0
 10 12  1  0
 11 12  1  0
 12 13  2  0
M  END
