x0967_0_A-x1012_0_A
     RDKit          3D

 24 26  0  0  0  0  0  0  0  0999 V2000
   -0.8680   17.9320   -4.9960 N   0  0  0  0  0  0  0  0  0  0  0  0
   -1.4820   16.7510   -4.7260 C   0  0  0  0  0  0  0  0  0  0  0  0
   -2.7030   16.7840   -4.3440 N   0  0  0  0  0  0  0  0  0  0  0  0
   -0.6570   15.6790   -4.8940 N   0  0  0  0  0  0  0  0  0  0  0  0
   -3.3760   15.5060   -4.0060 C   0  0  0  0  0  0  0  0  0  0  0  0
   -1.2130   14.3820   -5.2730 C   0  0  0  0  0  0  0  0  0  0  0  0
    0.7540   15.7320   -4.5130 C   0  0  0  0  0  0  0  0  0  0  0  0
   -2.7400   14.8610   -2.7770 C   0  0  0  0  0  0  0  0  0  0  0  0
   -1.0570   13.3590   -4.1670 C   0  0  0  0  0  0  0  0  0  0  0  0
    1.1950   14.4600   -3.7710 C   0  0  0  0  0  0  0  0  0  0  0  0
   -3.6210   14.8750   -1.5440 C   0  0  0  0  0  0  0  0  0  0  0  0
   -0.0160   13.7440   -3.1300 C   0  0  0  0  0  0  0  0  0  0  0  0
    0.3860   12.5680   -2.2500 C   0  0  0  0  0  0  0  0  0  0  0  0
   -4.9590   14.7170   -1.7240 N   0  0  0  0  0  0  0  0  0  0  0  0
   -3.0580   15.0350   -0.2900 C   0  0  0  0  0  0  0  0  0  0  0  0
    0.4600   11.3530   -2.8310 O   0  0  0  0  0  0  0  0  0  0  0  0
    0.6080   12.7050   -1.0640 O   0  0  0  0  0  0  0  0  0  0  0  0
   -5.7690   14.7080   -0.6690 C   0  0  0  0  0  0  0  0  0  0  0  0
   -3.8910   15.0330    0.8160 C   0  0  0  0  0  0  0  0  0  0  0  0
   -7.0750   14.5420   -0.9050 N   0  0  0  0  0  0  0  0  0  0  0  0
   -5.2700   14.8650    0.6340 C   0  0  0  0  0  0  0  0  0  0  0  0
   -6.1820   14.8450    1.6970 C   0  0  0  0  0  0  0  0  0  0  0  0
   -7.9240   14.5210    0.1450 C   0  0  0  0  0  0  0  0  0  0  0  0
   -7.5310   14.6660    1.4560 C   0  0  0  0  0  0  0  0  0  0  0  0
  1  2  1  0
  2  3  2  3
  2  4  1  0
  3  5  1  0
  4  6  1  0
  4  7  1  0
  5  8  1  0
  6  9  1  0
  7 10  1  0
  8 11  1  0
  9 12  1  0
 10 12  1  0
 12 13  1  0
 11 14  2  0
 11 15  1  0
 13 16  1  0
 13 17  2  0
 14 18  1  0
 15 19  2  0
 18 20  2  0
 18 21  1  0
 19 21  1  0
 21 22  2  0
 20 23  1  0
 22 24  1  0
 23 24  2  0
M  END
