x0962_3_A-x0805_0_A
     RDKit          3D

 26 28  0  0  0  0  0  0  0  0999 V2000
    0.9010   11.3720   -8.8390 N   0  0  0  0  0  0  0  0  0  0  0  0
    0.8660   10.8810   -7.4820 C   0  0  1  0  0  0  0  0  0  0  0  0
    0.4840   11.9220   -6.3850 C   0  0  0  0  0  0  0  0  0  0  0  0
   -0.0470    9.7400   -7.5160 C   0  0  0  0  0  0  0  0  0  0  0  0
    1.5510   12.8940   -5.8650 C   0  0  0  0  0  0  0  0  0  0  0  0
    0.1910    8.5710   -8.1910 N   0  0  0  0  0  0  0  0  0  0  0  0
   -1.2790    9.5630   -6.9340 C   0  0  0  0  0  0  0  0  0  0  0  0
   -0.8860    7.7590   -7.9890 C   0  0  0  0  0  0  0  0  0  0  0  0
   -1.7900    8.3370   -7.2330 N   0  0  0  0  0  0  0  0  0  0  0  0
    1.8800   13.0440   -4.3610 C   0  0  1  0  0  0  0  0  0  0  0  0
    2.4620   14.3550   -4.2690 O   0  0  0  0  0  0  0  0  0  0  0  0
    0.7510   13.2370   -3.3560 C   0  0  2  0  0  0  0  0  0  0  0  0
    0.3850   12.1100   -2.4420 C   0  0  0  0  0  0  0  0  0  0  0  0
   -0.4360   13.9430   -3.9990 C   0  0  1  0  0  0  0  0  0  0  0  0
    1.5820   15.5020   -4.4510 C   0  0  0  0  0  0  0  0  0  0  0  0
    0.1040   10.9300   -3.0270 O   0  0  0  0  0  0  0  0  0  0  0  0
    0.3460   12.2720   -1.2340 O   0  0  0  0  0  0  0  0  0  0  0  0
   -1.7390   13.8850   -3.1980 C   0  0  0  0  0  0  0  0  0  0  0  0
    0.0590   15.3510   -4.2950 C   0  0  0  0  0  0  0  0  0  0  0  0
   -2.8230   13.0930   -3.5970 C   0  0  0  0  0  0  0  0  0  0  0  0
   -1.8800   14.6430   -2.0220 C   0  0  0  0  0  0  0  0  0  0  0  0
   -3.0620   14.6190   -1.2630 C   0  0  0  0  0  0  0  0  0  0  0  0
   -4.0020   13.0630   -2.8460 C   0  0  0  0  0  0  0  0  0  0  0  0
   -3.0390   15.4120   -0.1480 O   0  0  0  0  0  0  0  0  0  0  0  0
   -4.1200   13.8250   -1.6820 C   0  0  0  0  0  0  0  0  0  0  0  0
   -4.2310   15.5390    0.6170 C   0  0  0  0  0  0  0  0  0  0  0  0
  2  1  1  6
  2  3  1  0
  2  4  1  0
  3  5  1  0
  4  6  1  0
  4  7  2  0
  6  8  1  0
  7  9  1  0
  8  9  2  0
 10  5  1  6
 10 11  1  0
 10 12  1  0
 12 13  1  6
 12 14  1  0
 11 15  1  0
 13 16  1  0
 13 17  2  0
 14 18  1  1
 14 19  1  0
 15 19  1  0
 18 20  2  0
 18 21  1  0
 21 22  2  0
 20 23  1  0
 22 24  1  0
 22 25  1  0
 23 25  2  0
 24 26  1  0
M  END
