x0967_0_A-x0900_0_A
     RDKit          3D

 11 12  0  0  0  0  0  0  0  0999 V2000
   -5.8190   14.7730   -2.7080 O   0  0  0  0  0  0  0  0  0  0  0  0
   -5.2130   14.8440   -1.6050 N   0  0  0  0  0  0  0  0  0  0  0  0
   -5.9250   14.7750   -0.4180 C   0  0  0  0  0  0  0  0  0  0  0  0
   -3.8320   14.9890   -1.5740 C   0  0  0  0  0  0  0  0  0  0  0  0
   -7.2770   14.6240   -0.4930 N   0  0  0  0  0  0  0  0  0  0  0  0
   -5.2290   14.8610    0.7960 C   0  0  0  0  0  0  0  0  0  0  0  0
   -3.1310   15.0710   -0.3770 C   0  0  0  0  0  0  0  0  0  0  0  0
   -5.9910   14.7900    1.9570 C   0  0  0  0  0  0  0  0  0  0  0  0
   -7.9660   14.5550    0.6560 C   0  0  0  0  0  0  0  0  0  0  0  0
   -3.8370   15.0100    0.8170 C   0  0  0  0  0  0  0  0  0  0  0  0
   -7.3710   14.6330    1.8990 C   0  0  0  0  0  0  0  0  0  0  0  0
  1  2  1  0
  2  3  2  0
  2  4  1  0
  3  5  1  0
  3  6  1  0
  4  7  2  0
  6  8  1  0
  5  9  2  0
  6 10  2  0
  7 10  1  0
  8 11  2  0
  9 11  1  0
M  CHG  2   1  -1   2   1
M  END
