x0969_0_A-x0910_0_A
     RDKit          3D

 15 17  0  0  0  0  0  0  0  0999 V2000
   -7.3270   14.7120    2.3330 N   0  0  0  0  0  0  0  0  0  0  0  0
   -6.9180   14.7140    1.0350 C   0  0  0  0  0  0  0  0  0  0  0  0
   -7.5960   14.6490   -0.0860 N   0  0  0  0  0  0  0  0  0  0  0  0
   -5.6100   14.7960    0.7370 N   0  0  0  0  0  0  0  0  0  0  0  0
   -6.6850   14.6800   -1.1460 N   0  0  0  0  0  0  0  0  0  0  0  0
   -5.4690   14.7590   -0.6330 C   0  0  0  0  0  0  0  0  0  0  0  0
   -4.6040   14.8850    1.6200 C   0  0  0  0  0  0  0  0  0  0  0  0
   -4.1140   14.7910   -1.1380 C   0  0  0  0  0  0  0  0  0  0  0  0
   -3.3930   14.8900    1.1990 C   0  0  0  0  0  0  0  0  0  0  0  0
   -3.0960   14.8230   -0.2110 C   0  0  0  0  0  0  0  0  0  0  0  0
   -1.7100   14.8010   -0.4030 C   0  0  0  0  0  0  0  0  0  0  0  0
   -1.0780   15.0510    0.7750 N   0  0  0  0  0  0  0  0  0  0  0  0
   -0.8080   14.6150   -1.3370 N   0  0  0  0  0  0  0  0  0  0  0  0
    0.2290   15.0370    0.6680 N   0  0  0  0  0  0  0  0  0  0  0  0
    0.3640   14.7670   -0.6270 C   0  0  0  0  0  0  0  0  0  0  0  0
  1  2  1  0
  2  3  2  0
  2  4  1  0
  3  5  1  0
  4  6  1  0
  5  6  2  0
  4  7  1  0
  6  8  1  0
  7  9  2  0
  8 10  2  0
  9 10  1  0
 10 11  1  0
 11 12  1  0
 11 13  2  0
 12 14  1  0
 13 15  1  0
 14 15  2  0
M  END
