x0967_0_A_α-x0104_0_A_β
     RDKit          3D

 13 14  0  0  0  0  0  0  0  0999 V2000
   -6.6900   14.8020    2.8190 N   0  0  0  0  0  0  0  0  0  0  0  0
   -6.4610   14.8490    1.4720 C   0  0  0  0  0  0  0  0  0  0  0  0
   -5.2870   15.0500    0.7840 C   0  0  0  0  0  0  0  0  0  0  0  0
   -7.6860   14.6850    0.7140 C   0  0  0  0  0  0  0  0  0  0  0  0
   -5.3180   15.1420   -0.7450 C   0  0  2  0  0  0  0  0  0  0  0  0
   -7.6320   14.4610   -0.6010 C   0  0  0  0  0  0  0  0  0  0  0  0
   -3.9660   15.2230    1.3580 C   0  0  0  0  0  0  0  0  0  0  0  0
   -6.4260   14.3780   -1.2610 N   0  0  0  0  0  0  0  0  0  0  0  0
   -4.0860   14.8370   -1.4670 N   0  0  0  0  0  0  0  0  0  0  0  0
   -2.8540   15.1290    0.6150 C   0  0  0  0  0  0  0  0  0  0  0  0
   -6.3450   14.3380   -2.6710 O   0  0  0  0  0  0  0  0  0  0  0  0
   -3.0110   14.8450   -0.8130 C   0  0  0  0  0  0  0  0  0  0  0  0
   -4.9990   14.6440   -3.0920 C   0  0  0  0  0  0  0  0  0  0  0  0
  1  2  1  0
  2  3  2  0
  2  4  1  0
  3  5  1  0
  4  6  2  0
  3  7  1  0
  5  8  1  0
  6  8  1  0
  5  9  1  6
  7 10  2  0
  8 11  1  0
  9 12  2  0
 10 12  1  0
 11 13  1  0
M  END
