x0962_0_A-x0962_2_B
     RDKit          3D

 15 16  0  0  0  0  0  0  0  0999 V2000
   -2.4780   14.9200   -2.2180 N   0  0  0  0  0  0  0  0  0  0  0  0
   -3.2260   14.9720   -1.3290 C   0  0  0  0  0  0  0  0  0  0  0  0
   -4.1520   14.9640   -0.2360 C   0  0  0  0  0  0  0  0  0  0  0  0
   -3.8580   15.5020    0.9880 N   0  0  0  0  0  0  0  0  0  0  0  0
   -5.4220   14.4350   -0.2450 C   0  0  0  0  0  0  0  0  0  0  0  0
   -4.9400   15.2980    1.7200 C   0  0  0  0  0  0  0  0  0  0  0  0
   -5.9270   14.6410    1.0160 N   0  0  0  0  0  0  0  0  0  0  0  0
   -7.2720   14.2060    1.4660 C   0  0  0  0  0  0  0  0  0  0  0  0
   -7.8890   14.9130    2.6480 C   0  0  0  0  0  0  0  0  0  0  0  0
   -9.0310   15.6910    2.7190 C   0  0  0  0  0  0  0  0  0  0  0  0
   -7.3210   14.8460    3.8970 N   0  0  0  0  0  0  0  0  0  0  0  0
   -9.9390   16.0330    1.7000 C   0  0  0  0  0  0  0  0  0  0  0  0
   -9.1330   16.0970    4.0260 N   0  0  0  0  0  0  0  0  0  0  0  0
   -8.0740   15.5590    4.6950 C   0  0  0  0  0  0  0  0  0  0  0  0
  -10.6860   16.2940    0.8560 N   0  0  0  0  0  0  0  0  0  0  0  0
  1  2  3  0
  2  3  1  0
  3  4  1  0
  3  5  2  0
  4  6  2  0
  5  7  1  0
  6  7  1  0
  7  8  1  0
  8  9  1  0
  9 10  2  0
  9 11  1  0
 10 12  1  0
 10 13  1  0
 11 14  2  0
 13 14  1  0
 12 15  3  0
M  END
