x0969_0_A-x0128_0_A
     RDKit          3D

 19 21  0  0  0  0  0  0  0  0999 V2000
   -6.8190   14.6850    2.4990 N   0  0  0  0  0  0  0  0  0  0  0  0
   -7.8860   15.2040    3.1690 C   0  0  0  0  0  0  0  0  0  0  0  0
   -8.8650   15.5630    2.5200 O   0  0  0  0  0  0  0  0  0  0  0  0
   -6.5510   14.7440    1.1570 C   0  0  0  0  0  0  0  0  0  0  0  0
   -7.7660   15.2820    4.5310 N   0  0  0  0  0  0  0  0  0  0  0  0
   -7.5020   14.6750    0.2490 N   0  0  0  0  0  0  0  0  0  0  0  0
   -5.3230   14.8860    0.5250 N   0  0  0  0  0  0  0  0  0  0  0  0
   -6.9300   14.7680   -0.9940 N   0  0  0  0  0  0  0  0  0  0  0  0
   -5.6360   14.8930   -0.8310 C   0  0  0  0  0  0  0  0  0  0  0  0
   -4.0120   15.0050    0.9930 C   0  0  0  0  0  0  0  0  0  0  0  0
   -8.5460   16.0740    5.3950 C   0  0  0  0  0  0  0  0  0  0  0  0
   -4.5690   15.0220   -1.7570 C   0  0  0  0  0  0  0  0  0  0  0  0
   -3.0080   15.1140    0.1170 C   0  0  0  0  0  0  0  0  0  0  0  0
   -9.1710   17.2200    4.9050 C   0  0  0  0  0  0  0  0  0  0  0  0
   -8.7330   15.7750    6.7410 C   0  0  0  0  0  0  0  0  0  0  0  0
   -3.3100   15.1220   -1.3060 C   0  0  0  0  0  0  0  0  0  0  0  0
   -9.9420   18.0520    5.6420 N   0  0  0  0  0  0  0  0  0  0  0  0
   -9.5220   16.6140    7.5270 C   0  0  0  0  0  0  0  0  0  0  0  0
  -10.0980   17.7270    6.9380 C   0  0  0  0  0  0  0  0  0  0  0  0
  1  2  1  0
  2  3  2  0
  1  4  1  0
  2  5  1  0
  4  6  2  0
  4  7  1  0
  6  8  1  0
  7  9  1  0
  8  9  2  0
  7 10  1  0
  5 11  1  0
  9 12  1  0
 10 13  2  0
 11 14  2  0
 11 15  1  0
 12 16  2  0
 13 16  1  0
 14 17  1  0
 15 18  2  0
 17 19  2  0
 18 19  1  0
M  END
