x0962_2_B_α-x0849_0_A_α
     RDKit          3D

 20 22  0  0  0  0  0  0  0  0999 V2000
  -11.7590   16.1440    1.7070 N   0  0  0  0  0  0  0  0  0  0  0  0
  -10.7800   15.9320    2.2750 C   0  0  0  0  0  0  0  0  0  0  0  0
   -9.5240   15.6540    2.8490 C   0  0  0  0  0  0  0  0  0  0  0  0
   -9.1460   15.9550    4.1440 N   0  0  0  0  0  0  0  0  0  0  0  0
   -8.5390   15.0560    2.1610 C   0  0  0  0  0  0  0  0  0  0  0  0
   -7.8980   15.5280    4.2170 C   0  0  0  0  0  0  0  0  0  0  0  0
   -7.5210   14.9890    3.0130 N   0  0  0  0  0  0  0  0  0  0  0  0
   -6.2580   14.4350    2.6370 C   0  0  0  0  0  0  0  0  0  0  0  0
   -6.1180   14.4320    1.1340 C   0  0  0  0  0  0  0  0  0  0  0  0
   -4.7150   14.5800    0.6190 C   0  0  0  0  0  0  0  0  0  0  0  0
   -3.6590   14.4960    1.4540 N   0  0  0  0  0  0  0  0  0  0  0  0
   -4.5800   14.7800   -0.7230 C   0  0  0  0  0  0  0  0  0  0  0  0
   -2.4250   14.5860    0.9610 C   0  0  0  0  0  0  0  0  0  0  0  0
   -3.3130   14.8740   -1.2400 C   0  0  0  0  0  0  0  0  0  0  0  0
   -3.2090   15.1300   -3.1190 Br  0  0  0  0  0  0  0  0  0  0  0  0
   -2.1880   14.7710   -0.4080 C   0  0  0  0  0  0  0  0  0  0  0  0
   -1.4330   14.4890    1.8250 N   0  0  0  0  0  0  0  0  0  0  0  0
   -0.1730   14.5560    1.3840 C   0  0  0  0  0  0  0  0  0  0  0  0
   -0.8490   14.8380   -0.8440 C   0  0  0  0  0  0  0  0  0  0  0  0
    0.1770   14.7290    0.0630 C   0  0  0  0  0  0  0  0  0  0  0  0
  1  2  3  0
  2  3  1  0
  3  4  1  0
  3  5  2  0
  4  6  2  0
  5  7  1  0
  6  7  1  0
  7  8  1  0
  8  9  1  0
  9 10  1  0
 10 11  2  0
 10 12  1  0
 11 13  1  0
 12 14  2  0
 14 15  1  0
 13 16  2  0
 14 16  1  0
 13 17  1  0
 17 18  2  0
 16 19  1  0
 18 20  1  0
 19 20  2  0
M  END
