x0962_2_B_α-x0962_1_A_α
     RDKit          3D

 15 16  0  0  0  0  0  0  0  0999 V2000
  -11.0230   15.8090    1.5220 N   0  0  0  0  0  0  0  0  0  0  0  0
   -9.5670   15.7290    1.5600 C   0  0  2  0  0  0  0  0  0  0  0  0
   -8.9470   14.7090    0.5680 C   0  0  0  0  0  0  0  0  0  0  0  0
   -9.0530   15.4920    2.9330 C   0  0  0  0  0  0  0  0  0  0  0  0
   -9.0540   16.3860    3.9830 N   0  0  0  0  0  0  0  0  0  0  0  0
   -8.4720   14.3560    3.4490 C   0  0  0  0  0  0  0  0  0  0  0  0
   -7.4930   14.7360    0.4870 N   0  0  0  0  0  0  0  0  0  0  0  0
   -8.4750   15.7580    5.0510 C   0  0  0  0  0  0  0  0  0  0  0  0
   -8.1220   14.5320    4.7550 N   0  0  0  0  0  0  0  0  0  0  0  0
   -6.5930   14.5360    1.5120 C   0  0  0  0  0  0  0  0  0  0  0  0
   -6.7660   14.9760   -0.6470 C   0  0  0  0  0  0  0  0  0  0  0  0
   -5.4500   14.9110   -0.2490 C   0  0  0  0  0  0  0  0  0  0  0  0
   -5.3520   14.6410    1.0850 N   0  0  0  0  0  0  0  0  0  0  0  0
   -4.2920   15.0900   -1.0580 C   0  0  0  0  0  0  0  0  0  0  0  0
   -3.3610   15.2020   -1.7380 N   0  0  0  0  0  0  0  0  0  0  0  0
  2  1  1  1
  2  3  1  0
  2  4  1  0
  4  5  1  0
  4  6  2  0
  3  7  1  0
  5  8  1  0
  6  9  1  0
  8  9  2  0
  7 10  1  0
  7 11  1  0
 11 12  2  0
 10 13  2  0
 12 13  1  0
 12 14  1  0
 14 15  3  0
M  END
