x0969_0_A-x0962_2_B
     RDKit          3D

 18 20  0  0  0  0  0  0  0  0999 V2000
   -6.7360   14.9440    2.4760 N   0  0  0  0  0  0  0  0  0  0  0  0
   -6.4210   14.4930    1.1440 C   0  0  1  0  0  0  0  0  0  0  0  0
   -7.5860   14.5220    0.2200 N   0  0  0  0  0  0  0  0  0  0  0  0
   -5.3280   15.2620    0.5650 N   0  0  0  0  0  0  0  0  0  0  0  0
   -8.7190   15.4970    0.1910 C   0  0  0  0  0  0  0  0  0  0  0  0
   -6.9110   14.5290   -1.1160 N   0  0  0  0  0  0  0  0  0  0  0  0
   -5.7290   15.3820   -0.8420 C   0  0  2  0  0  0  0  0  0  0  0  0
   -4.0040   15.1560    0.9590 C   0  0  0  0  0  0  0  0  0  0  0  0
   -9.5700   15.8880    1.4720 C   0  0  1  0  0  0  0  0  0  0  0  0
   -4.5570   15.1740   -1.7670 C   0  0  0  0  0  0  0  0  0  0  0  0
   -3.0020   15.0380    0.0870 C   0  0  0  0  0  0  0  0  0  0  0  0
  -10.9900   15.5620    1.3320 N   0  0  0  0  0  0  0  0  0  0  0  0
   -3.2950   15.0160   -1.3320 C   0  0  0  0  0  0  0  0  0  0  0  0
   -9.0800   15.4800    2.8240 C   0  0  0  0  0  0  0  0  0  0  0  0
   -8.8690   16.3260    3.8910 N   0  0  0  0  0  0  0  0  0  0  0  0
   -8.7340   14.2340    3.3120 C   0  0  0  0  0  0  0  0  0  0  0  0
   -8.4110   15.5770    4.9360 C   0  0  0  0  0  0  0  0  0  0  0  0
   -8.3210   14.3050    4.6160 N   0  0  0  0  0  0  0  0  0  0  0  0
  2  1  1  1
  2  3  1  0
  2  4  1  0
  3  5  1  0
  3  6  1  0
  4  7  1  0
  6  7  1  0
  4  8  1  0
  5  9  1  0
  7 10  1  6
  8 11  2  0
  9 12  1  6
 10 13  2  0
 11 13  1  0
  9 14  1  0
 14 15  1  0
 14 16  2  0
 15 17  1  0
 16 18  1  0
 17 18  2  0
M  END
