x0962_1_A_α-x0592_0_A_α
     RDKit          3D

 10 10  0  0  0  0  0  0  0  0999 V2000
   -3.6640   15.3270   -1.4580 N   0  0  0  0  0  0  0  0  0  0  0  0
   -3.9270   14.5270   -0.3050 C   0  0  0  0  0  0  0  0  0  0  0  0
   -3.0120   14.9680    0.7120 N   0  0  0  0  0  0  0  0  0  0  0  0
   -5.3250   14.6260    0.1580 C   0  0  0  0  0  0  0  0  0  0  0  0
   -5.7260   14.6280    1.4750 N   0  0  0  0  0  0  0  0  0  0  0  0
   -6.5130   14.7300   -0.5440 C   0  0  0  0  0  0  0  0  0  0  0  0
   -7.0800   14.7340    1.5030 C   0  0  0  0  0  0  0  0  0  0  0  0
   -7.5920   14.7940    0.3000 N   0  0  0  0  0  0  0  0  0  0  0  0
   -7.7510   14.7750    2.6400 O   0  0  0  0  0  0  0  0  0  0  0  0
   -8.0680   13.4880    3.1190 C   0  0  0  0  0  0  0  0  0  0  0  0
  1  2  1  0
  2  3  1  0
  2  4  1  0
  4  5  1  0
  4  6  2  0
  5  7  1  0
  6  8  1  0
  7  8  2  0
  7  9  1  0
  9 10  1  0
M  END
