x0962_0_A_α-x0967_0_A_α
     RDKit          3D

 11 12  0  0  0  0  0  0  0  0999 V2000
   -2.7620   14.9580   -2.5800 N   0  0  0  0  0  0  0  0  0  0  0  0
   -3.3350   14.9780   -1.5710 C   0  0  0  0  0  0  0  0  0  0  0  0
   -4.0060   14.9890   -0.3120 C   0  0  0  0  0  0  0  0  0  0  0  0
   -3.2800   15.1890    0.8410 N   0  0  0  0  0  0  0  0  0  0  0  0
   -5.3600   14.8150   -0.0510 C   0  0  0  0  0  0  0  0  0  0  0  0
   -4.1710   15.1410    1.7980 C   0  0  0  0  0  0  0  0  0  0  0  0
   -5.4310   14.9130    1.3260 N   0  0  0  0  0  0  0  0  0  0  0  0
   -6.4990   14.5890   -0.7900 N   0  0  0  0  0  0  0  0  0  0  0  0
   -6.6150   14.7860    2.0260 C   0  0  0  0  0  0  0  0  0  0  0  0
   -7.6080   14.4710   -0.1120 C   0  0  0  0  0  0  0  0  0  0  0  0
   -7.7490   14.5590    1.3660 C   0  0  0  0  0  0  0  0  0  0  0  0
  1  2  3  0
  2  3  1  0
  3  4  1  0
  3  5  2  0
  4  6  2  0
  5  7  1  0
  6  7  1  0
  5  8  1  0
  7  9  1  0
  8 10  2  0
  9 11  2  0
 10 11  1  0
M  END
