x0962_0_A-x0711_0_A
     RDKit          3D

 14 14  0  0  0  0  0  0  0  0999 V2000
   -1.8120   14.5730   -2.1820 C   0  0  0  0  0  0  0  0  0  0  0  0
   -2.6800   14.8040   -1.3980 C   0  0  0  0  0  0  0  0  0  0  0  0
   -3.6710   14.9220   -0.4160 C   0  0  0  0  0  0  0  0  0  0  0  0
   -0.4930   14.0480   -3.2540 S   0  0  0  0  0  0  0  0  0  0  0  0
   -1.2470   12.9150   -4.3800 C   0  0  0  0  0  0  0  0  0  0  0  0
   -0.1350   15.2920   -3.8850 O   0  0  0  0  0  0  0  0  0  0  0  0
    0.3090   13.3680   -2.2570 O   0  0  0  0  0  0  0  0  0  0  0  0
   -3.3710   15.3600    0.8390 N   0  0  0  0  0  0  0  0  0  0  0  0
   -4.9840   14.6220   -0.5590 C   0  0  0  0  0  0  0  0  0  0  0  0
   -4.5200   15.3130    1.4690 C   0  0  0  0  0  0  0  0  0  0  0  0
   -5.5450   14.8620    0.6580 N   0  0  0  0  0  0  0  0  0  0  0  0
   -6.8780   14.6610    0.9510 C   0  0  0  0  0  0  0  0  0  0  0  0
   -7.0640   14.4300    2.2730 N   0  0  0  0  0  0  0  0  0  0  0  0
   -7.7380   14.6960    0.0830 O   0  0  0  0  0  0  0  0  0  0  0  0
  1  2  3  0
  2  3  1  0
  4  1  1  0
  4  5  1  0
  4  6  2  0
  4  7  2  0
  3  8  1  0
  3  9  2  0
  8 10  2  0
  9 11  1  0
 10 11  1  0
 11 12  1  0
 12 13  1  0
 12 14  2  0
M  END
