x0967_0_A-x0969_0_A
     RDKit          3D

 10 11  0  0  0  0  0  0  0  0999 V2000
   -7.1020   14.6530   -0.7580 N   0  0  0  0  0  0  0  0  0  0  0  0
   -7.8740   14.5590    0.3480 C   0  0  0  0  0  0  0  0  0  0  0  0
   -7.3770   14.5870    1.6330 C   0  0  0  0  0  0  0  0  0  0  0  0
   -5.7790   14.7760   -0.6210 C   0  0  0  0  0  0  0  0  0  0  0  0
   -5.1880   14.8130    0.6570 C   0  0  0  0  0  0  0  0  0  0  0  0
   -5.0320   14.8630   -1.7200 N   0  0  0  0  0  0  0  0  0  0  0  0
   -6.0080   14.7190    1.7830 C   0  0  0  0  0  0  0  0  0  0  0  0
   -3.6960   14.9840   -1.5890 C   0  0  0  0  0  0  0  0  0  0  0  0
   -3.8000   14.9400    0.7730 C   0  0  0  0  0  0  0  0  0  0  0  0
   -3.0370   15.0250   -0.3770 C   0  0  0  0  0  0  0  0  0  0  0  0
  1  2  2  0
  2  3  1  0
  1  4  1  0
  4  5  2  0
  4  6  1  0
  3  7  2  0
  5  7  1  0
  6  8  2  0
  5  9  1  0
  8 10  1  0
  9 10  2  0
M  END
