x0967_0_A-x0685_0_A
     RDKit          3D

 14 15  0  0  0  0  0  0  0  0999 V2000
   -5.1590   15.2100    2.2550 N   0  0  0  0  0  0  0  0  0  0  0  0
   -6.4700   14.8120    2.8220 C   0  0  0  0  0  0  0  0  0  0  0  0
   -6.7260   13.3020    2.6920 C   0  0  0  0  0  0  0  0  0  0  0  0
   -4.9190   15.0720    0.8810 C   0  0  0  0  0  0  0  0  0  0  0  0
   -6.0920   14.8040    0.1860 C   0  0  0  0  0  0  0  0  0  0  0  0
   -3.7310   15.1660    0.1420 C   0  0  0  0  0  0  0  0  0  0  0  0
   -6.0790   14.6420   -1.1920 C   0  0  0  0  0  0  0  0  0  0  0  0
   -7.3180   14.6930    0.8610 C   0  0  0  0  0  0  0  0  0  0  0  0
   -3.8130   14.9840   -1.2450 C   0  0  0  0  0  0  0  0  0  0  0  0
   -7.2050   14.3910   -1.8540 N   0  0  0  0  0  0  0  0  0  0  0  0
   -8.4730   14.4340    0.1850 C   0  0  0  0  0  0  0  0  0  0  0  0
   -4.9570   14.7310   -1.8880 N   0  0  0  0  0  0  0  0  0  0  0  0
   -2.6930   15.0530   -2.0690 N   0  0  0  0  0  0  0  0  0  0  0  0
   -8.3660   14.2930   -1.1720 C   0  0  0  0  0  0  0  0  0  0  0  0
  1  2  1  0
  2  3  1  0
  1  4  1  0
  4  5  2  0
  4  6  1  0
  5  7  1  0
  5  8  1  0
  6  9  2  0
  7 10  1  0
  8 11  2  0
  7 12  2  0
  9 12  1  0
  9 13  1  0
 10 14  2  0
 11 14  1  0
M  END
