x0962_2_B_α-x0805_0_A_β
     RDKit          3D

 23 24  0  0  0  0  0  0  0  0999 V2000
  -11.5400   16.3350    1.3840 N   0  0  0  0  0  0  0  0  0  0  0  0
  -10.6020   16.0350    1.9880 C   0  0  0  0  0  0  0  0  0  0  0  0
   -9.3900   15.6690    2.6160 C   0  0  0  0  0  0  0  0  0  0  0  0
   -9.0590   15.9230    3.9320 N   0  0  0  0  0  0  0  0  0  0  0  0
   -8.4030   15.0230    1.9580 C   0  0  0  0  0  0  0  0  0  0  0  0
   -7.8420   15.4230    4.0550 C   0  0  0  0  0  0  0  0  0  0  0  0
   -7.4300   14.8840    2.8600 N   0  0  0  0  0  0  0  0  0  0  0  0
   -6.1640   14.2740    2.5600 C   0  0  0  0  0  0  0  0  0  0  0  0
   -5.7420   14.3680    1.1010 C   0  0  0  0  0  0  0  0  0  0  0  0
   -4.3720   15.0560    1.0130 C   0  0  0  0  0  0  0  0  0  0  0  0
   -3.2570   14.0440    1.2820 C   0  0  0  0  0  0  0  0  0  0  0  0
   -1.8450   14.5480    0.9690 C   0  0  0  0  0  0  0  0  0  0  0  0
   -1.3350   14.1900   -0.4290 C   0  0  0  0  0  0  0  0  0  0  0  0
    0.1010   13.6790   -0.4320 C   0  0  0  0  0  0  0  0  0  0  0  0
    0.1050   12.3770   -1.0850 N   0  0  0  0  0  0  0  0  0  0  0  0
    0.3630   12.2140   -2.3130 C   0  0  0  0  0  0  0  0  0  0  0  0
    0.3230   10.9420   -2.7730 O   0  0  0  0  0  0  0  0  0  0  0  0
    0.7160   13.2720   -3.3180 C   0  0  2  0  0  0  0  0  0  0  0  0
   -0.4630   14.0260   -3.8870 C   0  0  0  0  0  0  0  0  0  0  0  0
    1.7250   12.9390   -4.3780 C   0  0  0  0  0  0  0  0  0  0  0  0
    2.3200   14.1580   -4.7540 O   0  0  0  0  0  0  0  0  0  0  0  0
    0.0900   15.3620   -4.3220 C   0  0  0  0  0  0  0  0  0  0  0  0
    1.6200   15.3800   -4.4140 C   0  0  0  0  0  0  0  0  0  0  0  0
  1  2  3  0
  2  3  1  0
  3  4  1  0
  3  5  2  0
  4  6  2  0
  5  7  1  0
  6  7  1  0
  7  8  1  0
  8  9  1  0
  9 10  1  0
 10 11  1  0
 11 12  1  0
 12 13  1  0
 13 14  1  0
 14 15  1  0
 15 16  2  3
 16 17  1  0
 18 16  1  6
 18 19  1  0
 18 20  1  0
 20 21  1  0
 19 22  1  0
 21 23  1  0
 22 23  1  0
M  END
