x0967_0_A-x0962_1_A
     RDKit          3D

 12 13  0  0  0  0  0  0  0  0999 V2000
   -5.2240   16.2070   -1.3720 N   0  0  0  0  0  0  0  0  0  0  0  0
   -5.9520   15.4020   -1.0530 C   0  0  0  0  0  0  0  0  0  0  0  0
   -6.5110   14.2910   -0.6450 N   0  0  0  0  0  0  0  0  0  0  0  0
   -5.2950   13.6350   -0.2660 C   0  0  2  0  0  0  0  0  0  0  0  0
   -7.5540   14.3940    0.3420 C   0  0  0  0  0  0  0  0  0  0  0  0
   -4.8420   14.3560    0.9950 C   0  0  0  0  0  0  0  0  0  0  0  0
   -7.1390   14.6350    1.5900 C   0  0  0  0  0  0  0  0  0  0  0  0
   -4.4490   13.9260   -1.4350 N   0  0  0  0  0  0  0  0  0  0  0  0
   -5.7420   14.8120    1.8740 C   0  0  0  0  0  0  0  0  0  0  0  0
   -3.2590   14.3530   -1.2150 C   0  0  0  0  0  0  0  0  0  0  0  0
   -3.4270   14.5470    1.1720 C   0  0  0  0  0  0  0  0  0  0  0  0
   -2.6260   14.5640    0.1020 C   0  0  0  0  0  0  0  0  0  0  0  0
  1  2  3  0
  2  3  1  0
  3  4  1  0
  3  5  1  0
  4  6  1  0
  5  7  2  0
  4  8  1  6
  6  9  2  0
  7  9  1  0
  8 10  2  0
  6 11  1  0
 10 12  1  0
 11 12  2  0
M  END
