x0962_2_B-x0371_0_A
     RDKit          3D

 24 27  0  0  0  0  0  0  0  0999 V2000
   -9.6690   16.0410    1.3120 N   0  0  0  0  0  0  0  0  0  0  0  0
   -9.7420   15.3960    2.6510 C   0  0  1  0  0  0  0  0  0  0  0  0
   -8.5230   14.5450    3.1480 C   0  0  2  0  0  0  0  0  0  0  0  0
   -9.5760   16.3730    3.6840 C   0  0  0  0  0  0  0  0  0  0  0  0
   -8.4850   13.2130    2.5280 N   0  0  0  0  0  0  0  0  0  0  0  0
  -10.4550   17.3150    4.0960 N   0  0  0  0  0  0  0  0  0  0  0  0
   -8.4680   16.5110    4.4620 C   0  0  0  0  0  0  0  0  0  0  0  0
   -8.5640   14.5230    4.6750 C   0  0  0  0  0  0  0  0  0  0  0  0
   -8.4750   13.4020    1.0780 C   0  0  0  0  0  0  0  0  0  0  0  0
   -9.8360   17.9830    5.1080 C   0  0  0  0  0  0  0  0  0  0  0  0
   -8.6450   17.5030    5.3390 N   0  0  0  0  0  0  0  0  0  0  0  0
   -7.6830   13.7070    5.3140 O   0  0  0  0  0  0  0  0  0  0  0  0
   -9.3340   15.1840    5.6340 C   0  0  0  0  0  0  0  0  0  0  0  0
   -7.1680   13.8800    0.5120 C   0  0  0  0  0  0  0  0  0  0  0  0
   -8.8820   14.7490    6.9000 C   0  0  0  0  0  0  0  0  0  0  0  0
   -7.8810   13.8500    6.6480 C   0  0  0  0  0  0  0  0  0  0  0  0
   -5.9840   13.9570    1.2260 N   0  0  0  0  0  0  0  0  0  0  0  0
   -6.9800   14.2760   -0.7290 N   0  0  0  0  0  0  0  0  0  0  0  0
   -5.6520   14.6000   -0.8220 C   0  0  0  0  0  0  0  0  0  0  0  0
   -5.0100   14.4060    0.3880 C   0  0  0  0  0  0  0  0  0  0  0  0
   -3.6600   14.6440    0.5960 C   0  0  0  0  0  0  0  0  0  0  0  0
   -4.9260   15.0650   -1.9190 C   0  0  0  0  0  0  0  0  0  0  0  0
   -2.9500   15.0960   -0.5090 C   0  0  0  0  0  0  0  0  0  0  0  0
   -3.5640   15.3080   -1.7470 C   0  0  0  0  0  0  0  0  0  0  0  0
  2  1  1  6
  2  3  1  0
  2  4  1  0
  3  5  1  6
  4  6  1  0
  4  7  2  0
  3  8  1  0
  5  9  1  0
  6 10  1  0
  7 11  1  0
 10 11  2  0
  8 12  1  0
  8 13  2  0
  9 14  1  0
 13 15  1  0
 12 16  1  0
 15 16  2  0
 14 17  1  0
 14 18  2  0
 18 19  1  0
 17 20  1  0
 19 20  2  0
 20 21  1  0
 19 22  1  0
 21 23  2  0
 22 24  2  0
 23 24  1  0
M  END
