x0962_2_B-x0900_0_A
     RDKit          3D

 15 16  0  0  0  0  0  0  0  0999 V2000
  -11.2660   15.6420    1.5160 N   0  0  0  0  0  0  0  0  0  0  0  0
   -9.9080   16.1600    1.5510 C   0  0  2  0  0  0  0  0  0  0  0  0
   -9.1760   15.8080    0.2370 C   0  0  0  0  0  0  0  0  0  0  0  0
   -9.1980   15.6190    2.7600 C   0  0  0  0  0  0  0  0  0  0  0  0
   -8.0570   14.7730    0.3560 C   0  0  0  0  0  0  0  0  0  0  0  0
   -8.9510   16.3610    3.8960 N   0  0  0  0  0  0  0  0  0  0  0  0
   -8.6590   14.3810    3.0450 C   0  0  0  0  0  0  0  0  0  0  0  0
   -7.0470   14.9690   -0.6850 N   0  0  0  0  0  0  0  0  0  0  0  0
   -8.2880   15.5640    4.7830 C   0  0  0  0  0  0  0  0  0  0  0  0
   -8.1030   14.3570    4.2970 N   0  0  0  0  0  0  0  0  0  0  0  0
   -5.8070   14.9520   -0.3540 C   0  0  0  0  0  0  0  0  0  0  0  0
   -4.6750   15.1080   -1.1100 N   0  0  0  0  0  0  0  0  0  0  0  0
   -5.3990   14.7280    1.0920 C   0  0  0  0  0  0  0  0  0  0  0  0
   -3.9800   15.2910    1.0690 C   0  0  0  0  0  0  0  0  0  0  0  0
   -3.5010   14.8430   -0.3050 C   0  0  0  0  0  0  0  0  0  0  0  0
  2  1  1  6
  2  3  1  0
  2  4  1  0
  3  5  1  0
  4  6  1  0
  4  7  2  0
  5  8  1  0
  6  9  1  0
  7 10  1  0
  9 10  2  0
  8 11  2  3
 11 12  1  0
 11 13  1  0
 13 14  1  0
 12 15  1  0
 14 15  1  0
M  END
