x0969_0_A-x0685_1_A
     RDKit          3D

 25 27  0  0  0  0  0  0  0  0999 V2000
   -6.8140   14.8280    2.4970 N   0  0  0  0  0  0  0  0  0  0  0  0
   -6.5810   14.7920    1.1650 C   0  0  0  0  0  0  0  0  0  0  0  0
   -7.4820   14.7190    0.2110 N   0  0  0  0  0  0  0  0  0  0  0  0
   -5.3170   14.8300    0.6100 N   0  0  0  0  0  0  0  0  0  0  0  0
   -6.8230   14.7000   -0.9990 N   0  0  0  0  0  0  0  0  0  0  0  0
   -5.5290   14.7560   -0.7580 C   0  0  0  0  0  0  0  0  0  0  0  0
   -4.0500   14.9140    1.1850 C   0  0  0  0  0  0  0  0  0  0  0  0
   -4.3820   14.7250   -1.6020 C   0  0  0  0  0  0  0  0  0  0  0  0
   -2.9730   14.8770    0.3980 C   0  0  0  0  0  0  0  0  0  0  0  0
   -3.1440   14.7490   -1.0490 C   0  0  0  0  0  0  0  0  0  0  0  0
   -1.8760   14.6100   -1.8460 C   0  0  0  0  0  0  0  0  0  0  0  0
   -1.2890   13.2230   -1.5740 C   0  0  0  0  0  0  0  0  0  0  0  0
    0.1080   13.2190   -1.8470 O   0  0  0  0  0  0  0  0  0  0  0  0
    0.7030   12.1350   -2.8740 S   0  0  0  0  0  0  0  0  0  0  0  0
    0.0670   12.5240   -4.5080 C   0  0  0  0  0  0  0  0  0  0  0  0
    2.2920   12.2660   -2.9960 O   0  0  0  0  0  0  0  0  0  0  0  0
    0.2670   10.6260   -2.4850 O   0  0  0  0  0  0  0  0  0  0  0  0
   -1.3480   12.0090   -4.7420 C   0  0  0  0  0  0  0  0  0  0  0  0
   -1.4230   10.5530   -4.9430 N   0  0  0  0  0  0  0  0  0  0  0  0
   -1.4550   10.0440   -6.3270 C   0  0  0  0  0  0  0  0  0  0  0  0
   -0.2020    9.2470   -6.6870 C   0  0  0  0  0  0  0  0  0  0  0  0
   -1.5990   11.1980   -7.3330 C   0  0  0  0  0  0  0  0  0  0  0  0
   -0.3470    8.4970   -7.9930 C   0  0  0  0  0  0  0  0  0  0  0  0
   -1.1080   10.8020   -8.7270 C   0  0  0  0  0  0  0  0  0  0  0  0
   -1.1890    9.2920   -8.9810 C   0  0  0  0  0  0  0  0  0  0  0  0
  1  2  1  0
  2  3  2  0
  2  4  1  0
  3  5  1  0
  4  6  1  0
  5  6  2  0
  4  7  1  0
  6  8  1  0
  7  9  2  0
  8 10  2  0
  9 10  1  0
 10 11  1  0
 11 12  1  0
 12 13  1  0
 14 13  1  0
 14 15  1  0
 14 16  1  0
 14 17  1  0
 15 18  1  0
 18 19  1  0
 19 20  1  0
 20 21  1  0
 20 22  1  0
 21 23  1  0
 22 24  1  0
 23 25  1  0
 24 25  1  0
M  END
