x0969_0_A-x0962_1_A
     RDKit          3D

 12 13  0  0  0  0  0  0  0  0999 V2000
   -6.7380   14.7350    2.4220 N   0  0  0  0  0  0  0  0  0  0  0  0
   -6.3900   14.7110    1.1120 C   0  0  0  0  0  0  0  0  0  0  0  0
   -7.0630   14.0920    0.1800 N   0  0  0  0  0  0  0  0  0  0  0  0
   -5.2630   15.3800    0.6710 N   0  0  0  0  0  0  0  0  0  0  0  0
   -6.2320   14.4130   -1.0520 N   0  0  0  0  0  0  0  0  0  0  0  0
   -5.5570   15.6370   -0.7580 C   0  0  2  0  0  0  0  0  0  0  0  0
   -3.9620   15.1000    1.0690 C   0  0  0  0  0  0  0  0  0  0  0  0
   -5.3070   13.5430   -1.4180 C   0  0  0  0  0  0  0  0  0  0  0  0
   -4.3530   15.6030   -1.6420 C   0  0  0  0  0  0  0  0  0  0  0  0
   -2.9260   15.0460    0.2240 C   0  0  0  0  0  0  0  0  0  0  0  0
   -4.3820   12.9390   -1.7460 N   0  0  0  0  0  0  0  0  0  0  0  0
   -3.1390   15.3060   -1.1800 C   0  0  0  0  0  0  0  0  0  0  0  0
  1  2  1  0
  2  3  2  0
  2  4  1  0
  3  5  1  0
  4  6  1  0
  5  6  1  0
  4  7  1  0
  5  8  1  0
  6  9  1  6
  7 10  2  0
  8 11  3  0
  9 12  2  0
 10 12  1  0
M  END
