x0967_0_A-x0969_0_A
     RDKit          3D

 10 11  0  0  0  0  0  0  0  0999 V2000
   -7.0980   14.6560   -0.7660 N   0  0  0  0  0  0  0  0  0  0  0  0
   -7.8710   14.5620    0.3360 C   0  0  0  0  0  0  0  0  0  0  0  0
   -7.3770   14.5920    1.6230 C   0  0  0  0  0  0  0  0  0  0  0  0
   -5.7770   14.7820   -0.6240 C   0  0  0  0  0  0  0  0  0  0  0  0
   -5.1870   14.8200    0.6570 C   0  0  0  0  0  0  0  0  0  0  0  0
   -5.0310   14.8690   -1.7230 N   0  0  0  0  0  0  0  0  0  0  0  0
   -6.0100   14.7250    1.7810 C   0  0  0  0  0  0  0  0  0  0  0  0
   -3.6950   14.9930   -1.5950 C   0  0  0  0  0  0  0  0  0  0  0  0
   -3.8010   14.9490    0.7700 C   0  0  0  0  0  0  0  0  0  0  0  0
   -3.0370   15.0340   -0.3800 C   0  0  0  0  0  0  0  0  0  0  0  0
  1  2  2  0
  2  3  1  0
  1  4  1  0
  4  5  2  0
  4  6  1  0
  3  7  2  0
  5  7  1  0
  6  8  2  0
  5  9  1  0
  8 10  1  0
  9 10  2  0
M  END
