x0969_0_A_α-6WOJ_0_D_α
     RDKit          3D

 24 26  0  0  0  0  0  0  0  0999 V2000
   -6.5830   14.7980    2.1300 N   0  0  0  0  0  0  0  0  0  0  0  0
   -6.3670   14.8560    0.7850 C   0  0  0  0  0  0  0  0  0  0  0  0
   -7.2750   14.8320   -0.1670 N   0  0  0  0  0  0  0  0  0  0  0  0
   -5.1090   14.9420    0.2290 N   0  0  0  0  0  0  0  0  0  0  0  0
   -6.6200   14.9120   -1.3870 N   0  0  0  0  0  0  0  0  0  0  0  0
   -5.3170   14.9780   -1.1670 C   0  0  0  0  0  0  0  0  0  0  0  0
   -3.8560   15.0050    0.8190 C   0  0  0  0  0  0  0  0  0  0  0  0
   -4.1400   15.0630   -2.0410 C   0  0  0  0  0  0  0  0  0  0  0  0
   -2.7740   15.0840    0.0490 C   0  0  0  0  0  0  0  0  0  0  0  0
   -4.1470   15.1040   -3.5940 C   0  0  0  0  0  0  0  0  0  0  0  0
   -2.9390   15.1050   -1.4120 C   0  0  0  0  0  0  0  0  0  0  0  0
   -2.9820   16.0550   -4.0780 C   0  0  0  0  0  0  0  0  0  0  0  0
   -2.9580   16.8250   -5.4360 C   0  0  0  0  0  0  0  0  0  0  0  0
   -2.2930   18.2810   -5.3840 C   0  0  0  0  0  0  0  0  0  0  0  0
   -2.8780   19.5230   -6.1730 C   0  0  0  0  0  0  0  0  0  0  0  0
   -3.8550   20.4770   -5.5590 O   0  0  0  0  0  0  0  0  0  0  0  0
   -4.3910   21.4470   -6.5070 C   0  0  2  0  0  0  0  0  0  0  0  0
   -3.7560   21.1490   -7.7310 O   0  0  0  0  0  0  0  0  0  0  0  0
   -4.1070   22.9750   -6.2610 C   0  0  2  0  0  0  0  0  0  0  0  0
   -5.2360   23.8880   -6.3120 O   0  0  0  0  0  0  0  0  0  0  0  0
   -2.5810   21.9120   -7.5490 C   0  0  2  0  0  0  0  0  0  0  0  0
   -3.1900   23.3010   -7.4500 C   0  0  1  0  0  0  0  0  0  0  0  0
   -1.5460   21.5360   -8.5750 C   0  0  0  0  0  0  0  0  0  0  0  0
   -3.9160   23.7790   -8.6000 O   0  0  0  0  0  0  0  0  0  0  0  0
  1  2  1  0
  2  3  2  0
  2  4  1  0
  3  5  1  0
  4  6  1  0
  5  6  2  0
  4  7  1  0
  6  8  1  0
  7  9  2  0
  8 10  1  0
  8 11  2  0
  9 11  1  0
 10 12  1  0
 12 13  1  0
 13 14  1  0
 14 15  1  0
 15 16  1  0
 17 16  1  1
 17 18  1  0
 17 19  1  0
 19 20  1  6
 18 21  1  0
 19 22  1  0
 21 22  1  0
 21 23  1  6
 22 24  1  6
M  END
