x0962_2_B-x0438_0_A
     RDKit          3D

 20 22  0  0  0  0  0  0  0  0999 V2000
  -11.0710   16.2390    1.8280 N   0  0  0  0  0  0  0  0  0  0  0  0
   -9.6840   16.1050    2.1370 C   0  0  2  0  0  0  0  0  0  0  0  0
   -9.2070   14.4330    1.9480 S   0  0  0  0  0  0  0  0  0  0  0  0
   -9.2430   16.0900    3.5110 C   0  0  0  0  0  0  0  0  0  0  0  0
   -7.8680   14.1050    3.1100 C   0  0  0  0  0  0  0  0  0  0  0  0
  -10.5840   13.5760    2.5880 O   0  0  0  0  0  0  0  0  0  0  0  0
   -8.8790   13.8840    0.3840 C   0  0  0  0  0  0  0  0  0  0  0  0
   -9.0450   16.9950    4.4530 N   0  0  0  0  0  0  0  0  0  0  0  0
   -8.9190   14.8650    4.0590 C   0  0  0  0  0  0  0  0  0  0  0  0
   -8.6110   16.3450    5.5460 C   0  0  0  0  0  0  0  0  0  0  0  0
   -8.5340   15.0490    5.2990 N   0  0  0  0  0  0  0  0  0  0  0  0
   -7.4710   14.2140    0.1650 C   0  0  0  0  0  0  0  0  0  0  0  0
   -6.9680   14.5880   -0.9920 N   0  0  0  0  0  0  0  0  0  0  0  0
   -6.4550   14.1980    1.0600 N   0  0  0  0  0  0  0  0  0  0  0  0
   -5.3250   14.5560    0.4280 C   0  0  0  0  0  0  0  0  0  0  0  0
   -5.6600   14.8060   -0.8860 C   0  0  0  0  0  0  0  0  0  0  0  0
   -4.7230   15.1890   -1.7940 C   0  0  0  0  0  0  0  0  0  0  0  0
   -4.0030   14.7090    0.7990 C   0  0  0  0  0  0  0  0  0  0  0  0
   -3.4110   15.3300   -1.4190 C   0  0  0  0  0  0  0  0  0  0  0  0
   -3.0480   15.0870   -0.1020 C   0  0  0  0  0  0  0  0  0  0  0  0
  2  1  1  1
  2  3  1  0
  2  4  1  0
  3  5  1  0
  3  6  2  0
  3  7  1  0
  4  8  1  0
  4  9  2  0
  8 10  1  0
  9 11  1  0
 10 11  2  0
  7 12  1  0
 12 13  1  0
 12 14  2  0
 14 15  1  0
 13 16  1  0
 15 16  2  0
 16 17  1  0
 15 18  1  0
 17 19  2  0
 18 20  2  0
 19 20  1  0
M  END
