x0962_0_A_α-x0950_0_A_α
     RDKit          3D

 16 16  0  0  0  0  0  0  0  0999 V2000
   -2.7880   15.0030   -2.4980 N   0  0  0  0  0  0  0  0  0  0  0  0
   -2.5620   14.3990   -1.1960 C   0  0  1  0  0  0  0  0  0  0  0  0
   -1.1520   14.6820   -0.6300 C   0  0  0  0  0  0  0  0  0  0  0  0
   -3.6430   14.7260   -0.2270 C   0  0  0  0  0  0  0  0  0  0  0  0
   -0.1500   13.5330   -0.5730 C   0  0  0  0  0  0  0  0  0  0  0  0
   -3.4350   15.1850    1.0460 N   0  0  0  0  0  0  0  0  0  0  0  0
   -5.0160   14.6550   -0.3450 C   0  0  0  0  0  0  0  0  0  0  0  0
    1.0430   13.7730   -1.4950 C   0  0  0  0  0  0  0  0  0  0  0  0
   -4.6550   15.3610    1.6270 C   0  0  0  0  0  0  0  0  0  0  0  0
   -5.6290   15.0420    0.8070 N   0  0  0  0  0  0  0  0  0  0  0  0
    1.5350   12.5250   -1.9900 O   0  0  0  0  0  0  0  0  0  0  0  0
    0.9210   11.9810   -3.0710 C   0  0  0  0  0  0  0  0  0  0  0  0
    1.2460   12.7600   -4.3460 C   0  0  1  0  0  0  0  0  0  0  0  0
    0.2070   10.9850   -3.0490 O   0  0  0  0  0  0  0  0  0  0  0  0
    2.7290   13.0470   -4.4570 C   0  0  0  0  0  0  0  0  0  0  0  0
    0.8440   12.0380   -5.5120 O   0  0  0  0  0  0  0  0  0  0  0  0
  2  1  1  6
  2  3  1  0
  2  4  1  0
  3  5  1  0
  4  6  1  0
  4  7  2  0
  5  8  1  0
  6  9  1  0
  7 10  1  0
  9 10  2  0
  8 11  1  0
 11 12  1  0
 12 13  1  0
 12 14  2  0
 13 15  1  6
 13 16  1  0
M  END
