x0969_0_A_α-x0591_0_A_α
     RDKit          3D

 23 25  0  0  0  0  0  0  0  0999 V2000
   -6.5030   14.2840    1.8190 N   0  0  0  0  0  0  0  0  0  0  0  0
   -6.1430   13.1130    1.1210 N   0  0  0  0  0  0  0  0  0  0  0  0
   -6.3970   13.3150   -0.2920 C   0  0  0  0  0  0  0  0  0  0  0  0
   -6.3440   14.8890    0.7020 C   0  0  0  0  0  0  0  0  0  0  0  0
   -7.2420   15.2580   -0.1820 N   0  0  0  0  0  0  0  0  0  0  0  0
   -5.0800   15.1420    0.3170 N   0  0  0  0  0  0  0  0  0  0  0  0
   -7.5670   13.3170   -0.6670 O   0  0  0  0  0  0  0  0  0  0  0  0
   -6.5300   15.7550   -1.2420 N   0  0  0  0  0  0  0  0  0  0  0  0
   -5.2390   15.6490   -0.9390 C   0  0  0  0  0  0  0  0  0  0  0  0
   -3.8560   14.9320    0.9550 C   0  0  0  0  0  0  0  0  0  0  0  0
   -5.3600   13.6080   -1.3820 C   0  0  0  0  0  0  0  0  0  0  0  0
   -4.0420   15.9200   -1.6320 C   0  0  0  0  0  0  0  0  0  0  0  0
   -2.7310   15.2260    0.3020 C   0  0  0  0  0  0  0  0  0  0  0  0
   -3.9890   13.3040   -1.2490 C   0  0  0  0  0  0  0  0  0  0  0  0
   -5.8160   14.2130   -2.5870 C   0  0  0  0  0  0  0  0  0  0  0  0
   -2.8460   15.7270   -1.0480 C   0  0  0  0  0  0  0  0  0  0  0  0
   -3.0970   13.5950   -2.3130 C   0  0  0  0  0  0  0  0  0  0  0  0
   -4.9270   14.4980   -3.6360 C   0  0  0  0  0  0  0  0  0  0  0  0
   -3.5740   14.1870   -3.5020 C   0  0  0  0  0  0  0  0  0  0  0  0
   -2.4590   14.5360   -4.8610 S   0  0  0  0  0  0  0  0  0  0  0  0
   -1.3690   15.6600   -4.2440 N   0  0  0  0  0  0  0  0  0  0  0  0
   -1.7320   13.3200   -5.1330 O   0  0  0  0  0  0  0  0  0  0  0  0
   -3.1880   15.2270   -5.9040 O   0  0  0  0  0  0  0  0  0  0  0  0
  1  2  1  0
  2  3  1  0
  1  4  1  0
  4  5  2  0
  4  6  1  0
  3  7  2  0
  5  8  1  0
  6  9  1  0
  8  9  2  0
  6 10  1  0
  3 11  1  0
  9 12  1  0
 10 13  2  0
 11 14  2  0
 11 15  1  0
 12 16  2  0
 13 16  1  0
 14 17  1  0
 15 18  2  0
 17 19  2  0
 18 19  1  0
 19 20  1  0
 20 21  1  0
 20 22  2  0
 20 23  2  0
M  END
