x0969_0_A-x0742_0_A
     RDKit          3D

 21 24  0  0  0  0  0  0  0  0999 V2000
   -6.6440   15.0930    2.5300 N   0  0  0  0  0  0  0  0  0  0  0  0
   -6.2890   14.5990    1.2410 C   0  0  1  0  0  0  0  0  0  0  0  0
   -7.5160   14.7600    0.4200 N   0  0  0  0  0  0  0  0  0  0  0  0
   -5.3740   15.3610    0.4280 N   0  0  0  0  0  0  0  0  0  0  0  0
   -7.0260   15.1070   -0.9600 N   0  0  0  0  0  0  0  0  0  0  0  0
   -5.6530   14.7070   -0.7780 C   0  0  1  0  0  0  0  0  0  0  0  0
   -3.9830   15.7930    0.7150 C   0  0  0  0  0  0  0  0  0  0  0  0
   -4.5680   14.8080   -1.8030 C   0  0  0  0  0  0  0  0  0  0  0  0
   -2.7950   15.0680   -0.0590 C   0  0  1  0  0  0  0  0  0  0  0  0
   -3.4640   14.0630   -1.0340 C   0  0  1  0  0  0  0  0  0  0  0  0
   -1.6170   15.7940   -0.7890 C   0  0  0  0  0  0  0  0  0  0  0  0
   -2.1750   14.4730    1.1770 C   0  0  2  0  0  0  0  0  0  0  0  0
   -0.9680   13.7110    1.0120 N   0  0  0  0  0  0  0  0  0  0  0  0
   -0.3200   15.0140   -0.8200 C   0  0  0  0  0  0  0  0  0  0  0  0
   -3.2390   13.7460    1.7970 C   0  0  0  0  0  0  0  0  0  0  0  0
   -4.1090   12.9490   -0.2510 N   0  0  0  0  0  0  0  0  0  0  0  0
   -5.0190   12.0880   -0.8930 C   0  0  0  0  0  0  0  0  0  0  0  0
   -0.0770   14.0490    0.0590 C   0  0  0  0  0  0  0  0  0  0  0  0
   -4.1290   13.0540    1.1250 C   0  0  0  0  0  0  0  0  0  0  0  0
   -4.8290   11.6150   -2.0120 O   0  0  0  0  0  0  0  0  0  0  0  0
   -6.2900   11.7200   -0.1440 C   0  0  0  0  0  0  0  0  0  0  0  0
  2  1  1  1
  2  3  1  0
  2  4  1  0
  3  5  1  0
  4  6  1  0
  5  6  1  0
  4  7  1  0
  6  8  1  6
  9  7  1  1
 10  8  1  1
  9 10  1  0
  9 11  1  0
  9 12  1  0
 12 13  1  0
 11 14  1  0
 12 15  1  6
 10 16  1  0
 16 17  1  0
 13 18  1  0
 14 18  2  0
 15 19  2  0
 16 19  1  0
 17 20  2  0
 17 21  1  0
M  END
