x0969_0_A-x0905_0_A
     RDKit          3D

 11 12  0  0  0  0  0  0  0  0999 V2000
   -6.4090   14.7330    2.8820 N   0  0  0  0  0  0  0  0  0  0  0  0
   -6.4780   14.7590    1.5390 C   0  0  0  0  0  0  0  0  0  0  0  0
   -7.5570   14.6650    0.7960 N   0  0  0  0  0  0  0  0  0  0  0  0
   -5.3680   14.9060    0.7410 N   0  0  0  0  0  0  0  0  0  0  0  0
   -7.1780   14.7580   -0.5210 N   0  0  0  0  0  0  0  0  0  0  0  0
   -5.8760   14.9030   -0.5420 C   0  0  0  0  0  0  0  0  0  0  0  0
   -4.0110   15.0380    1.0370 C   0  0  0  0  0  0  0  0  0  0  0  0
   -4.9650   15.0480   -1.5880 C   0  0  0  0  0  0  0  0  0  0  0  0
   -3.1370   15.1630    0.0300 C   0  0  0  0  0  0  0  0  0  0  0  0
   -5.5890   15.0430   -2.7950 O   0  0  0  0  0  0  0  0  0  0  0  0
   -3.6410   15.1720   -1.3450 C   0  0  0  0  0  0  0  0  0  0  0  0
  1  2  1  0
  2  3  2  0
  2  4  1  0
  3  5  1  0
  4  6  1  0
  5  6  2  0
  4  7  1  0
  6  8  1  0
  7  9  2  0
  8 10  1  0
  8 11  2  0
  9 11  1  0
M  END
