x0967_0_A-x0855_0_A
     RDKit          3D

 23 25  0  0  0  0  0  0  0  0999 V2000
    1.4890   13.0880   -2.3400 O   0  0  0  0  0  0  0  0  0  0  0  0
    0.8650   12.1400   -3.1000 C   0  0  0  0  0  0  0  0  0  0  0  0
    0.5810   12.5810   -4.5130 C   0  0  0  0  0  0  0  0  0  0  0  0
    0.6940   14.1150   -1.6860 C   0  0  0  0  0  0  0  0  0  0  0  0
    0.5670   11.0250   -2.6800 O   0  0  0  0  0  0  0  0  0  0  0  0
   -0.6700   13.5890   -1.2230 C   0  0  0  0  0  0  0  0  0  0  0  0
   -1.3440   14.4750   -0.1530 C   0  0  0  0  0  0  0  0  0  0  0  0
   -0.4400   11.7280   -5.0810 N   0  0  0  0  0  0  0  0  0  0  0  0
   -2.8520   14.5920   -0.2970 C   0  0  0  0  0  0  0  0  0  0  0  0
   -0.2930   10.8070   -6.0800 C   0  0  0  0  0  0  0  0  0  0  0  0
   -1.7010   11.8010   -4.6020 N   0  0  0  0  0  0  0  0  0  0  0  0
   -3.4880   14.7010   -1.5350 C   0  0  0  0  0  0  0  0  0  0  0  0
   -3.6920   14.5810    0.8170 C   0  0  0  0  0  0  0  0  0  0  0  0
   -1.5310   10.2500   -6.2390 C   0  0  0  0  0  0  0  0  0  0  0  0
   -2.3650   10.8890   -5.3170 C   0  0  0  0  0  0  0  0  0  0  0  0
   -2.0480    8.9080   -7.4240 Br  0  0  0  0  0  0  0  0  0  0  0  0
   -5.0860   14.6550    0.6470 C   0  0  0  0  0  0  0  0  0  0  0  0
   -4.8300   14.7770   -1.7110 N   0  0  0  0  0  0  0  0  0  0  0  0
   -5.6290   14.7470   -0.6440 C   0  0  0  0  0  0  0  0  0  0  0  0
   -5.9560   14.6310    1.7370 C   0  0  0  0  0  0  0  0  0  0  0  0
   -6.9550   14.8000   -0.8290 N   0  0  0  0  0  0  0  0  0  0  0  0
   -7.3260   14.6800    1.5440 C   0  0  0  0  0  0  0  0  0  0  0  0
   -7.7740   14.7640    0.2440 C   0  0  0  0  0  0  0  0  0  0  0  0
  1  2  1  0
  2  3  1  0
  1  4  1  0
  2  5  2  0
  4  6  1  0
  6  7  1  0
  3  8  1  0
  7  9  1  0
  8 10  1  0
  8 11  1  0
  9 12  2  0
  9 13  1  0
 10 14  2  0
 11 15  2  0
 14 15  1  0
 14 16  1  0
 13 17  2  0
 12 18  1  0
 17 19  1  0
 18 19  2  0
 17 20  1  0
 19 21  1  0
 20 22  2  0
 21 23  2  0
 22 23  1  0
M  END
