x0969_0_A_α-x0805_0_A_α
     RDKit          3D

 17 19  0  0  0  0  0  0  0  0999 V2000
   -6.8390   14.5090    2.7050 N   0  0  0  0  0  0  0  0  0  0  0  0
   -6.8760   14.7240    1.3860 C   0  0  0  0  0  0  0  0  0  0  0  0
   -7.9520   14.7880    0.6360 N   0  0  0  0  0  0  0  0  0  0  0  0
   -5.7580   14.9210    0.6090 N   0  0  0  0  0  0  0  0  0  0  0  0
   -7.5720   15.0370   -0.6560 N   0  0  0  0  0  0  0  0  0  0  0  0
   -6.2710   15.1210   -0.6750 C   0  0  0  0  0  0  0  0  0  0  0  0
   -4.3980   14.9280    0.9080 C   0  0  0  0  0  0  0  0  0  0  0  0
   -5.3780   15.3690   -1.7220 C   0  0  0  0  0  0  0  0  0  0  0  0
   -3.5890   15.1240   -0.1210 C   0  0  0  0  0  0  0  0  0  0  0  0
   -4.0920   15.3820   -1.4610 C   0  0  0  0  0  0  0  0  0  0  0  0
   -2.2640   15.0650   -0.1250 O   0  0  0  0  0  0  0  0  0  0  0  0
   -2.1560   14.4160   -1.3190 C   0  0  0  0  0  0  0  0  0  0  0  0
   -3.1870   13.4800   -1.5400 C   0  0  0  0  0  0  0  0  0  0  0  0
   -1.1760   14.6170   -2.2720 C   0  0  0  0  0  0  0  0  0  0  0  0
   -1.2280   13.8850   -3.4560 C   0  0  0  0  0  0  0  0  0  0  0  0
   -3.2350   12.7550   -2.7180 C   0  0  0  0  0  0  0  0  0  0  0  0
   -2.2520   12.9580   -3.6800 C   0  0  0  0  0  0  0  0  0  0  0  0
  1  2  1  0
  2  3  2  0
  2  4  1  0
  3  5  1  0
  4  6  1  0
  5  6  2  0
  4  7  1  0
  6  8  1  0
  7  9  2  0
  8 10  2  0
  9 10  1  0
  9 11  1  0
 11 12  1  0
 12 13  2  0
 12 14  1  0
 14 15  2  0
 13 16  1  0
 15 17  1  0
 16 17  2  0
M  END
