x0962_1_A_α-x0587_0_A_α
     RDKit          3D

 12 12  0  0  0  0  0  0  0  0999 V2000
   -3.3640   15.1390   -0.4110 N   0  0  0  0  0  0  0  0  0  0  0  0
   -4.5320   14.6350   -1.0530 C   0  0  0  0  0  0  0  0  0  0  0  0
   -4.2590   13.3790   -1.4770 F   0  0  0  0  0  0  0  0  0  0  0  0
   -4.7170   15.3550   -2.1820 F   0  0  0  0  0  0  0  0  0  0  0  0
   -5.7690   14.6540   -0.2380 C   0  0  0  0  0  0  0  0  0  0  0  0
   -5.8840   14.7920    1.1490 N   0  0  0  0  0  0  0  0  0  0  0  0
   -7.0600   14.5440   -0.6670 C   0  0  0  0  0  0  0  0  0  0  0  0
   -7.2520   14.7600    1.4620 C   0  0  0  0  0  0  0  0  0  0  0  0
   -7.9410   14.6040    0.3590 N   0  0  0  0  0  0  0  0  0  0  0  0
   -7.9510   14.8810    2.7430 C   0  0  0  0  0  0  0  0  0  0  0  0
   -7.2050   15.0300    3.8700 N   0  0  0  0  0  0  0  0  0  0  0  0
   -9.1800   14.8770    2.8590 O   0  0  0  0  0  0  0  0  0  0  0  0
  1  2  1  0
  2  3  1  0
  2  4  1  0
  2  5  1  0
  5  6  1  0
  5  7  2  0
  6  8  1  0
  7  9  1  0
  8  9  2  0
  8 10  1  0
 10 11  1  0
 10 12  2  0
M  END
