x0962_2_B-x0967_0_A
     RDKit          3D

 18 20  0  0  0  0  0  0  0  0999 V2000
  -11.2780   15.8450    1.4570 N   0  0  0  0  0  0  0  0  0  0  0  0
   -9.8250   15.7310    1.4420 C   0  0  2  0  0  0  0  0  0  0  0  0
   -9.2720   14.7080    0.4020 C   0  0  0  0  0  0  0  0  0  0  0  0
   -9.2300   15.4440    2.7890 C   0  0  0  0  0  0  0  0  0  0  0  0
   -9.0040   16.3780    3.7810 N   0  0  0  0  0  0  0  0  0  0  0  0
   -8.7790   14.2590    3.3330 C   0  0  0  0  0  0  0  0  0  0  0  0
   -7.7670   14.7490    0.3460 C   0  0  0  0  0  0  0  0  0  0  0  0
   -8.4360   15.7260    4.8400 C   0  0  0  0  0  0  0  0  0  0  0  0
   -8.2910   14.4430    4.5970 N   0  0  0  0  0  0  0  0  0  0  0  0
   -7.0880   14.7180   -0.8350 N   0  0  0  0  0  0  0  0  0  0  0  0
   -7.1250   14.8460    1.5560 C   0  0  0  0  0  0  0  0  0  0  0  0
   -5.7490   14.8000   -0.8110 C   0  0  0  0  0  0  0  0  0  0  0  0
   -5.7620   14.9400    1.5670 C   0  0  0  0  0  0  0  0  0  0  0  0
   -5.0500   14.9150    0.3970 C   0  0  0  0  0  0  0  0  0  0  0  0
   -5.0920   14.7740   -1.9640 N   0  0  0  0  0  0  0  0  0  0  0  0
   -3.7410   14.8620   -1.9400 C   0  0  0  0  0  0  0  0  0  0  0  0
   -3.6610   15.0050    0.4060 C   0  0  0  0  0  0  0  0  0  0  0  0
   -2.9870   14.9760   -0.7920 C   0  0  0  0  0  0  0  0  0  0  0  0
  2  1  1  1
  2  3  1  0
  2  4  1  0
  4  5  1  0
  4  6  2  0
  3  7  1  0
  5  8  1  0
  6  9  1  0
  8  9  2  0
  7 10  2  0
  7 11  1  0
 10 12  1  0
 11 13  2  0
 12 14  2  0
 13 14  1  0
 12 15  1  0
 15 16  2  0
 14 17  1  0
 16 18  1  0
 17 18  2  0
M  END
