x0962_2_B_α-x1018_0_A_α
     RDKit          3D

 18 20  0  0  0  0  0  0  0  0999 V2000
  -10.2610   16.4360    1.2470 N   0  0  0  0  0  0  0  0  0  0  0  0
   -9.9550   15.1430    1.8550 C   0  0  1  0  0  0  0  0  0  0  0  0
   -9.1470   14.2270    0.9250 C   0  0  0  0  0  0  0  0  0  0  0  0
   -9.1790   15.2780    3.1010 C   0  0  0  0  0  0  0  0  0  0  0  0
   -8.3190   15.0080   -0.0780 C   0  0  0  0  0  0  0  0  0  0  0  0
   -9.1280   16.3560    3.9480 N   0  0  0  0  0  0  0  0  0  0  0  0
   -8.3480   14.3460    3.6670 C   0  0  0  0  0  0  0  0  0  0  0  0
   -8.2830   16.0210    4.9660 C   0  0  0  0  0  0  0  0  0  0  0  0
   -7.8030   14.8120    4.8190 N   0  0  0  0  0  0  0  0  0  0  0  0
   -6.7970   14.8570   -0.1000 C   0  0  0  0  0  0  0  0  0  0  0  0
   -6.3100   14.9100   -1.2920 N   0  0  0  0  0  0  0  0  0  0  0  0
   -5.9720   14.7100    1.1550 C   0  0  0  0  0  0  0  0  0  0  0  0
   -4.9720   14.8430   -1.3280 N   0  0  0  0  0  0  0  0  0  0  0  0
   -4.6300   14.6610    1.0080 C   0  0  0  0  0  0  0  0  0  0  0  0
   -4.3000   14.8910   -2.4790 N   0  0  0  0  0  0  0  0  0  0  0  0
   -4.0910   14.7280   -0.2870 C   0  0  0  0  0  0  0  0  0  0  0  0
   -2.8700   14.7050   -0.7770 N   0  0  0  0  0  0  0  0  0  0  0  0
   -3.0230   14.8060   -2.1400 N   0  0  0  0  0  0  0  0  0  0  0  0
  2  1  1  6
  2  3  1  0
  2  4  1  0
  3  5  1  0
  4  6  1  0
  4  7  2  0
  6  8  1  0
  7  9  1  0
  8  9  2  0
  5 10  1  0
 10 11  2  0
 10 12  1  0
 11 13  1  0
 12 14  2  0
 13 15  1  0
 13 16  1  0
 14 16  1  0
 16 17  2  0
 15 18  2  0
 17 18  1  0
M  END
