x0967_0_A_α-x0805_0_A_α
     RDKit          3D

 17 19  0  0  0  0  0  0  0  0999 V2000
   -1.9490   16.0250   -1.0540 O   0  0  0  0  0  0  0  0  0  0  0  0
   -2.1030   15.1000   -2.0570 C   0  0  0  0  0  0  0  0  0  0  0  0
   -3.1770   14.2670   -2.0150 C   0  0  0  0  0  0  0  0  0  0  0  0
   -1.1780   15.0280   -3.0810 C   0  0  0  0  0  0  0  0  0  0  0  0
   -1.3500   14.0800   -4.0890 C   0  0  0  0  0  0  0  0  0  0  0  0
   -3.3600   13.3100   -3.0280 C   0  0  0  0  0  0  0  0  0  0  0  0
   -4.0500   14.4240   -0.9180 C   0  0  0  0  0  0  0  0  0  0  0  0
   -2.4430   13.2170   -4.0680 C   0  0  0  0  0  0  0  0  0  0  0  0
   -5.3590   14.3530   -1.1760 N   0  0  0  0  0  0  0  0  0  0  0  0
   -3.5150   14.6380    0.3250 C   0  0  0  0  0  0  0  0  0  0  0  0
   -6.1920   14.4830   -0.1740 C   0  0  0  0  0  0  0  0  0  0  0  0
   -4.3560   14.7770    1.3740 C   0  0  0  0  0  0  0  0  0  0  0  0
   -7.4900   14.4030   -0.4320 N   0  0  0  0  0  0  0  0  0  0  0  0
   -5.7150   14.6940    1.1290 C   0  0  0  0  0  0  0  0  0  0  0  0
   -6.6270   14.8130    2.1700 C   0  0  0  0  0  0  0  0  0  0  0  0
   -8.3550   14.5230    0.5890 C   0  0  0  0  0  0  0  0  0  0  0  0
   -7.9760   14.7250    1.8970 C   0  0  0  0  0  0  0  0  0  0  0  0
  1  2  1  0
  2  3  2  0
  2  4  1  0
  4  5  2  0
  3  6  1  0
  3  7  1  0
  5  8  1  0
  6  8  2  0
  7  9  2  0
  7 10  1  0
  9 11  1  0
 10 12  2  0
 11 13  2  0
 11 14  1  0
 12 14  1  0
 14 15  2  0
 13 16  1  0
 15 17  1  0
 16 17  2  0
M  END
