x0962_0_A_α-x0849_0_A_α
     RDKit          3D

 12 13  0  0  0  0  0  0  0  0999 V2000
   -2.6240   13.5470   -2.4450 N   0  0  0  0  0  0  0  0  0  0  0  0
   -3.1550   13.8800   -1.4750 C   0  0  0  0  0  0  0  0  0  0  0  0
   -3.7410   14.4120   -0.3260 C   0  0  0  0  0  0  0  0  0  0  0  0
   -2.9220   15.0350    0.7200 C   0  0  1  0  0  0  0  0  0  0  0  0
   -5.0440   14.4840   -0.0580 C   0  0  0  0  0  0  0  0  0  0  0  0
   -4.1330   15.4710    1.5560 C   0  0  0  0  0  0  0  0  0  0  0  0
   -5.3140   15.1270    1.1110 N   0  0  0  0  0  0  0  0  0  0  0  0
   -1.9970   14.1980    1.4950 N   0  0  0  0  0  0  0  0  0  0  0  0
   -2.1650   15.9810   -0.1260 C   0  0  0  0  0  0  0  0  0  0  0  0
   -0.6340   14.1390    1.2480 C   0  0  0  0  0  0  0  0  0  0  0  0
   -0.8370   15.9390   -0.2950 C   0  0  0  0  0  0  0  0  0  0  0  0
   -0.0410   14.9610    0.3820 C   0  0  0  0  0  0  0  0  0  0  0  0
  1  2  3  0
  2  3  1  0
  4  3  1  0
  3  5  2  0
  4  6  1  1
  5  7  1  0
  6  7  2  0
  4  8  1  0
  4  9  1  0
  8 10  1  0
  9 11  2  0
 10 12  2  0
 11 12  1  0
M  END
