x0962_0_A_α-x0910_1_A_α
     RDKit          3D

  8  8  0  0  0  0  0  0  0  0999 V2000
   -2.3990   14.8680   -2.3170 N   0  0  0  0  0  0  0  0  0  0  0  0
   -3.1200   14.9330   -1.4080 C   0  0  0  0  0  0  0  0  0  0  0  0
   -4.0040   14.9490   -0.2850 C   0  0  0  0  0  0  0  0  0  0  0  0
   -3.5780   15.3100    0.9710 N   0  0  0  0  0  0  0  0  0  0  0  0
   -5.3370   14.6210   -0.2880 C   0  0  0  0  0  0  0  0  0  0  0  0
   -4.6510   15.1960    1.7260 C   0  0  0  0  0  0  0  0  0  0  0  0
   -5.7380   14.7770    0.9980 N   0  0  0  0  0  0  0  0  0  0  0  0
   -7.0470   14.5380    1.4690 N   0  0  0  0  0  0  0  0  0  0  0  0
  1  2  3  0
  2  3  1  0
  3  4  1  0
  3  5  2  0
  4  6  2  0
  5  7  1  0
  6  7  1  0
  7  8  1  0
M  END
