x0962_2_B-x0438_0_A
     RDKit          3D

 20 22  0  0  0  0  0  0  0  0999 V2000
  -10.7900   16.5930    1.6640 N   0  0  0  0  0  0  0  0  0  0  0  0
   -9.5120   16.0210    1.9440 C   0  0  2  0  0  0  0  0  0  0  0  0
   -9.6480   14.2810    2.0270 S   0  0  0  0  0  0  0  0  0  0  0  0
   -8.9610   16.0890    3.2680 C   0  0  0  0  0  0  0  0  0  0  0  0
   -9.1070   13.7480    3.6540 C   0  0  0  0  0  0  0  0  0  0  0  0
  -11.3600   13.9960    2.0890 O   0  0  0  0  0  0  0  0  0  0  0  0
   -8.9450   13.4180    0.7280 C   0  0  0  0  0  0  0  0  0  0  0  0
   -9.2100   16.8400    4.3290 N   0  0  0  0  0  0  0  0  0  0  0  0
   -7.9600   15.2110    3.6170 C   0  0  0  0  0  0  0  0  0  0  0  0
   -8.4030   16.4330    5.3090 C   0  0  0  0  0  0  0  0  0  0  0  0
   -7.6400   15.4370    4.8770 N   0  0  0  0  0  0  0  0  0  0  0  0
   -7.5770   13.9080    0.4380 C   0  0  0  0  0  0  0  0  0  0  0  0
   -7.1940   14.4220   -0.7280 N   0  0  0  0  0  0  0  0  0  0  0  0
   -6.4870   13.9210    1.2420 N   0  0  0  0  0  0  0  0  0  0  0  0
   -5.4410   14.4230    0.5530 C   0  0  0  0  0  0  0  0  0  0  0  0
   -5.8950   14.7430   -0.7050 C   0  0  0  0  0  0  0  0  0  0  0  0
   -5.0590   15.2760   -1.6490 C   0  0  0  0  0  0  0  0  0  0  0  0
   -4.1040   14.6580    0.8380 C   0  0  0  0  0  0  0  0  0  0  0  0
   -3.7330   15.4950   -1.3590 C   0  0  0  0  0  0  0  0  0  0  0  0
   -3.2540   15.1810   -0.0970 C   0  0  0  0  0  0  0  0  0  0  0  0
  2  1  1  1
  2  3  1  0
  2  4  1  0
  3  5  1  0
  3  6  2  0
  3  7  1  0
  4  8  1  0
  4  9  2  0
  8 10  1  0
  9 11  1  0
 10 11  2  0
  7 12  1  0
 12 13  1  0
 12 14  2  0
 14 15  1  0
 13 16  1  0
 15 16  2  0
 16 17  1  0
 15 18  1  0
 17 19  2  0
 18 20  2  0
 19 20  1  0
M  END
