x0962_3_A_α-x0837_0_A_α
     RDKit          3D

 20 21  0  0  0  0  0  0  0  0999 V2000
    1.2180   11.1910   -8.7680 N   0  0  0  0  0  0  0  0  0  0  0  0
    0.3120   11.2830   -7.6660 C   0  0  2  0  0  0  0  0  0  0  0  0
    0.8970   11.7810   -6.3620 C   0  0  0  0  0  0  0  0  0  0  0  0
   -0.3420    9.9810   -7.5410 C   0  0  0  0  0  0  0  0  0  0  0  0
    0.3610   13.1290   -5.9270 C   0  0  0  0  0  0  0  0  0  0  0  0
    0.0380    8.8670   -8.1890 N   0  0  0  0  0  0  0  0  0  0  0  0
   -1.4330    9.6750   -6.7680 C   0  0  0  0  0  0  0  0  0  0  0  0
    0.2960   13.2630   -4.4370 C   0  0  0  0  0  0  0  0  0  0  0  0
   -0.7940    7.8780   -7.8370 C   0  0  0  0  0  0  0  0  0  0  0  0
   -1.6830    8.3890   -6.9730 N   0  0  0  0  0  0  0  0  0  0  0  0
   -0.2890   14.5570   -3.9650 C   0  0  0  0  0  0  0  0  0  0  0  0
   -0.9720   14.4540   -2.6190 C   0  0  0  0  0  0  0  0  0  0  0  0
   -3.0540   14.7480   -2.8040 I   0  0  0  0  0  0  0  0  0  0  0  0
   -4.1440   14.5440   -0.9930 C   0  0  1  0  0  0  0  0  0  0  0  0
   -3.4690   15.0300    0.2140 C   0  0  0  0  0  0  0  0  0  0  0  0
   -5.5380   15.0590   -1.1250 C   0  0  0  0  0  0  0  0  0  0  0  0
   -4.1800   15.1600    1.2920 C   0  0  0  0  0  0  0  0  0  0  0  0
   -6.2710   14.8470    0.1210 C   0  0  0  0  0  0  0  0  0  0  0  0
   -7.5090   14.6650    0.1060 O   0  0  0  0  0  0  0  0  0  0  0  0
   -5.5790   14.8500    1.3620 N   0  0  0  0  0  0  0  0  0  0  0  0
  2  1  1  6
  2  3  1  0
  2  4  1  0
  3  5  1  0
  4  6  1  0
  4  7  2  0
  5  8  1  0
  6  9  1  0
  7 10  1  0
  9 10  2  0
  8 11  1  0
 11 12  1  0
 12 13  1  0
 14 13  1  6
 14 15  1  0
 14 16  1  0
 15 17  2  0
 16 18  1  0
 18 19  2  0
 17 20  1  0
 18 20  1  0
M  END
