x0962_0_A-x0950_0_A
     RDKit          3D

 16 16  0  0  0  0  0  0  0  0999 V2000
   -2.7980   15.0370   -2.5110 N   0  0  0  0  0  0  0  0  0  0  0  0
   -2.5740   14.4190   -1.2150 C   0  0  1  0  0  0  0  0  0  0  0  0
   -1.1610   14.6880   -0.6460 C   0  0  0  0  0  0  0  0  0  0  0  0
   -3.6470   14.7420   -0.2390 C   0  0  0  0  0  0  0  0  0  0  0  0
   -0.1630   13.5370   -0.5710 C   0  0  0  0  0  0  0  0  0  0  0  0
   -3.4300   15.2110    1.0270 N   0  0  0  0  0  0  0  0  0  0  0  0
   -5.0200   14.6560   -0.3410 C   0  0  0  0  0  0  0  0  0  0  0  0
    1.0420   13.7700   -1.4840 C   0  0  0  0  0  0  0  0  0  0  0  0
   -4.6420   15.3780    1.6250 C   0  0  0  0  0  0  0  0  0  0  0  0
   -5.6230   15.0440    0.8180 N   0  0  0  0  0  0  0  0  0  0  0  0
    1.5240   12.5200   -1.9870 O   0  0  0  0  0  0  0  0  0  0  0  0
    0.9160   11.9810   -3.0730 C   0  0  0  0  0  0  0  0  0  0  0  0
    1.2460   12.7610   -4.3480 C   0  0  1  0  0  0  0  0  0  0  0  0
    0.2060   10.9820   -3.0590 O   0  0  0  0  0  0  0  0  0  0  0  0
    2.7300   13.0410   -4.4490 C   0  0  0  0  0  0  0  0  0  0  0  0
    0.8470   12.0440   -5.5150 O   0  0  0  0  0  0  0  0  0  0  0  0
  2  1  1  6
  2  3  1  0
  2  4  1  0
  3  5  1  0
  4  6  1  0
  4  7  2  0
  5  8  1  0
  6  9  1  0
  7 10  1  0
  9 10  2  0
  8 11  1  0
 11 12  1  0
 12 13  1  0
 12 14  2  0
 13 15  1  6
 13 16  1  0
M  END
