x0969_0_A-x0910_0_A
     RDKit          3D

 15 17  0  0  0  0  0  0  0  0999 V2000
   -7.3380   14.7130    2.3240 N   0  0  0  0  0  0  0  0  0  0  0  0
   -6.9260   14.7150    1.0240 C   0  0  0  0  0  0  0  0  0  0  0  0
   -7.6030   14.6500   -0.0980 N   0  0  0  0  0  0  0  0  0  0  0  0
   -5.6160   14.7990    0.7300 N   0  0  0  0  0  0  0  0  0  0  0  0
   -6.6880   14.6790   -1.1570 N   0  0  0  0  0  0  0  0  0  0  0  0
   -5.4730   14.7580   -0.6430 C   0  0  0  0  0  0  0  0  0  0  0  0
   -4.6110   14.8940    1.6130 C   0  0  0  0  0  0  0  0  0  0  0  0
   -4.1150   14.7900   -1.1490 C   0  0  0  0  0  0  0  0  0  0  0  0
   -3.3990   14.9040    1.1900 C   0  0  0  0  0  0  0  0  0  0  0  0
   -3.1000   14.8290   -0.2210 C   0  0  0  0  0  0  0  0  0  0  0  0
   -1.7080   14.8060   -0.4100 C   0  0  0  0  0  0  0  0  0  0  0  0
   -1.0780   15.0490    0.7710 N   0  0  0  0  0  0  0  0  0  0  0  0
   -0.8070   14.6190   -1.3420 N   0  0  0  0  0  0  0  0  0  0  0  0
    0.2290   15.0340    0.6640 N   0  0  0  0  0  0  0  0  0  0  0  0
    0.3650   14.7680   -0.6320 C   0  0  0  0  0  0  0  0  0  0  0  0
  1  2  1  0
  2  3  2  0
  2  4  1  0
  3  5  1  0
  4  6  1  0
  5  6  2  0
  4  7  1  0
  6  8  1  0
  7  9  2  0
  8 10  2  0
  9 10  1  0
 10 11  1  0
 11 12  1  0
 11 13  2  0
 12 14  1  0
 13 15  1  0
 14 15  2  0
M  END
