x0962_0_A-x0926_0_A
     RDKit          3D

  8  8  0  0  0  0  0  0  0  0999 V2000
   -2.5120   14.8000   -2.4980 N   0  0  0  0  0  0  0  0  0  0  0  0
   -3.1590   14.9010   -1.5430 C   0  0  0  0  0  0  0  0  0  0  0  0
   -3.9280   15.0340   -0.3600 C   0  0  0  0  0  0  0  0  0  0  0  0
   -3.3220   15.2900    0.7540 N   0  0  0  0  0  0  0  0  0  0  0  0
   -5.3830   14.9330   -0.1120 C   0  0  0  0  0  0  0  0  0  0  0  0
   -6.2240   14.7140   -0.9620 O   0  0  0  0  0  0  0  0  0  0  0  0
   -4.3640   15.3590    1.6640 C   0  0  0  0  0  0  0  0  0  0  0  0
   -5.5620   15.1400    1.2200 N   0  0  0  0  0  0  0  0  0  0  0  0
  1  2  3  0
  2  3  1  0
  3  4  2  0
  3  5  1  0
  5  6  2  0
  4  7  1  0
  5  8  1  0
  7  8  2  0
M  END
