x0962_1_A-x0471_0_A
     RDKit          3D

 19 20  0  0  0  0  0  0  0  0999 V2000
   -4.4890   15.3460   -2.9810 N   0  0  0  0  0  0  0  0  0  0  0  0
   -5.1210   15.3520   -2.0160 C   0  0  0  0  0  0  0  0  0  0  0  0
   -5.7550   15.2840   -0.7180 C   0  0  1  0  0  0  0  0  0  0  0  0
   -7.2420   14.9490   -0.5590 C   0  0  0  0  0  0  0  0  0  0  0  0
   -5.0840   14.0990   -0.1880 C   0  0  2  0  0  0  0  0  0  0  0  0
   -5.0340   14.3660    1.2220 N   0  0  0  0  0  0  0  0  0  0  0  0
   -7.5390   14.2700    0.7470 N   0  0  0  0  0  0  0  0  0  0  0  0
   -3.7430   14.0670   -0.8490 C   0  0  0  0  0  0  0  0  0  0  0  0
   -8.8140   14.6250    1.3660 C   0  0  0  0  0  0  0  0  0  0  0  0
   -6.4180   14.3650    1.7240 C   0  0  0  0  0  0  0  0  0  0  0  0
   -2.7460   14.7730   -0.3500 C   0  0  0  0  0  0  0  0  0  0  0  0
   -4.0900   15.3140    1.5830 C   0  0  0  0  0  0  0  0  0  0  0  0
   -8.7090   14.3070    2.7660 N   0  0  0  0  0  0  0  0  0  0  0  0
   -2.9810   15.5380    0.8450 C   0  0  0  0  0  0  0  0  0  0  0  0
   -9.1600   15.2290    3.6780 C   0  0  0  0  0  0  0  0  0  0  0  0
   -9.5440   16.3390    3.3240 O   0  0  0  0  0  0  0  0  0  0  0  0
   -9.2070   14.8250    5.1500 C   0  0  0  0  0  0  0  0  0  0  0  0
   -9.5820   13.3590    5.3580 C   0  0  0  0  0  0  0  0  0  0  0  0
   -7.9270   15.2130    5.8780 C   0  0  0  0  0  0  0  0  0  0  0  0
  1  2  3  0
  3  2  1  6
  3  4  1  0
  3  5  1  0
  5  6  1  0
  4  7  1  0
  5  8  1  6
  7  9  1  0
  6 10  1  0
  7 10  1  0
  8 11  2  0
  6 12  1  0
  9 13  1  0
 11 14  1  0
 12 14  2  0
 13 15  1  0
 15 16  2  0
 15 17  1  0
 17 18  1  0
 17 19  1  0
M  END
