x0962_0_A-x1012_0_A
     RDKit          3D

 20 21  0  0  0  0  0  0  0  0999 V2000
   -3.6620   15.6070   -2.7380 N   0  0  0  0  0  0  0  0  0  0  0  0
   -3.3060   14.5170   -1.8810 C   0  0  1  0  0  0  0  0  0  0  0  0
   -1.8030   14.2220   -1.9860 C   0  0  0  0  0  0  0  0  0  0  0  0
   -3.9300   14.7750   -0.5500 C   0  0  0  0  0  0  0  0  0  0  0  0
   -3.2840   15.1120    0.6150 N   0  0  0  0  0  0  0  0  0  0  0  0
   -5.2600   14.7300   -0.2070 C   0  0  0  0  0  0  0  0  0  0  0  0
   -1.3330   13.7980   -3.4210 C   0  0  1  0  0  0  0  0  0  0  0  0
   -4.2420   15.2510    1.5830 C   0  0  0  0  0  0  0  0  0  0  0  0
   -5.4450   15.0140    1.1110 N   0  0  0  0  0  0  0  0  0  0  0  0
   -1.6640   14.8450   -4.5170 C   0  0  0  0  0  0  0  0  0  0  0  0
    0.1370   13.3710   -3.5380 C   0  0  2  0  0  0  0  0  0  0  0  0
    0.4590   12.4240   -2.4000 C   0  0  0  0  0  0  0  0  0  0  0  0
    1.0960   14.5840   -3.5620 C   0  0  0  0  0  0  0  0  0  0  0  0
   -0.6850   15.9320   -4.6530 N   0  0  0  0  0  0  0  0  0  0  0  0
   -1.1780   17.2170   -4.7590 C   0  0  0  0  0  0  0  0  0  0  0  0
    0.5070   11.1340   -2.7890 O   0  0  0  0  0  0  0  0  0  0  0  0
    0.6430   12.7110   -1.2320 O   0  0  0  0  0  0  0  0  0  0  0  0
    0.7360   15.5830   -4.6610 C   0  0  0  0  0  0  0  0  0  0  0  0
   -0.2620   18.2070   -4.7640 N   0  0  0  0  0  0  0  0  0  0  0  0
   -2.3620   17.5190   -4.8290 O   0  0  0  0  0  0  0  0  0  0  0  0
  2  1  1  6
  2  3  1  0
  2  4  1  0
  4  5  1  0
  4  6  2  0
  7  3  1  1
  5  8  1  0
  6  9  1  0
  8  9  2  0
  7 10  1  0
  7 11  1  0
 11 12  1  1
 11 13  1  0
 10 14  1  0
 14 15  1  0
 12 16  1  0
 12 17  2  0
 13 18  1  0
 14 18  1  0
 15 19  1  0
 15 20  2  0
M  END
