x0967_0_A_α-5CB5_0_P_γ
     RDKit          3D

 20 22  0  0  0  0  0  0  0  0999 V2000
   -1.8580   12.9400   -3.6830 O   0  0  0  0  0  0  0  0  0  0  0  0
   -2.9880   13.8040   -3.9000 C   0  0  0  0  0  0  0  0  0  0  0  0
   -3.0320   15.0930   -3.0740 C   0  0  0  0  0  0  0  0  0  0  0  0
   -0.5270   13.4920   -3.7280 C   0  0  2  0  0  0  0  0  0  0  0  0
   -0.3880   14.5740   -2.6520 C   0  0  0  0  0  0  0  0  0  0  0  0
   -0.1600   14.2180   -5.0250 C   0  0  2  0  0  0  0  0  0  0  0  0
    1.1830   13.8280   -5.3440 O   0  0  0  0  0  0  0  0  0  0  0  0
   -3.7530   14.9930   -1.7420 C   0  0  0  0  0  0  0  0  0  0  0  0
   -0.0610   15.8300   -3.2680 O   0  0  0  0  0  0  0  0  0  0  0  0
   -0.3090   15.7070   -4.6720 C   0  0  1  0  0  0  0  0  0  0  0  0
    0.5900   16.6880   -5.4030 C   0  0  0  0  0  0  0  0  0  0  0  0
   -5.1020   14.8710   -1.7900 N   0  0  0  0  0  0  0  0  0  0  0  0
   -3.0600   15.0300   -0.5360 C   0  0  0  0  0  0  0  0  0  0  0  0
   -5.8030   14.7830   -0.6610 C   0  0  0  0  0  0  0  0  0  0  0  0
   -3.7740   14.9440    0.6480 C   0  0  0  0  0  0  0  0  0  0  0  0
   -7.1290   14.6590   -0.7510 N   0  0  0  0  0  0  0  0  0  0  0  0
   -5.1660   14.8170    0.5920 C   0  0  0  0  0  0  0  0  0  0  0  0
   -5.9390   14.7230    1.7490 C   0  0  0  0  0  0  0  0  0  0  0  0
   -7.8590   14.5660    0.3840 C   0  0  0  0  0  0  0  0  0  0  0  0
   -7.3140   14.5930    1.6500 C   0  0  0  0  0  0  0  0  0  0  0  0
  1  2  1  0
  2  3  1  0
  4  1  1  6
  4  5  1  0
  4  6  1  0
  6  7  1  1
  3  8  1  0
  5  9  1  0
  6 10  1  0
  9 10  1  0
 10 11  1  6
  8 12  2  0
  8 13  1  0
 12 14  1  0
 13 15  2  0
 14 16  2  0
 14 17  1  0
 15 17  1  0
 17 18  2  0
 16 19  1  0
 18 20  1  0
 19 20  2  0
M  END
