x0967_0_A_α-x0849_0_A_α
     RDKit          3D

 16 18  0  0  0  0  0  0  0  0999 V2000
   -2.6810   14.7110   -3.2340 Br  0  0  0  0  0  0  0  0  0  0  0  0
   -3.5100   15.3470   -1.5950 C   0  0  1  0  0  0  0  0  0  0  0  0
   -4.9040   14.9690   -1.6110 N   0  0  0  0  0  0  0  0  0  0  0  0
   -2.7280   15.1280   -0.2650 C   0  0  2  0  0  0  0  0  0  0  0  0
   -5.5950   14.8470   -0.4300 C   0  0  0  0  0  0  0  0  0  0  0  0
   -3.5920   15.7100    0.8740 C   0  0  0  0  0  0  0  0  0  0  0  0
   -1.2500   15.6990   -0.4830 C   0  0  0  0  0  0  0  0  0  0  0  0
   -2.4890   13.7280    0.2650 C   0  0  0  0  0  0  0  0  0  0  0  0
   -6.8580   14.3870   -0.5530 N   0  0  0  0  0  0  0  0  0  0  0  0
   -5.0140   15.1770    0.7930 C   0  0  0  0  0  0  0  0  0  0  0  0
   -1.7010   13.9160    1.4820 N   0  0  0  0  0  0  0  0  0  0  0  0
   -0.1340   15.1380    0.3750 C   0  0  0  0  0  0  0  0  0  0  0  0
   -5.7920   15.0010    1.9400 C   0  0  0  0  0  0  0  0  0  0  0  0
   -7.5790   14.2370    0.5740 C   0  0  0  0  0  0  0  0  0  0  0  0
   -0.4190   14.2770    1.3270 C   0  0  0  0  0  0  0  0  0  0  0  0
   -7.0960   14.5240    1.8330 C   0  0  0  0  0  0  0  0  0  0  0  0
  2  1  1  6
  2  3  1  0
  2  4  1  0
  3  5  1  0
  4  6  1  1
  4  7  1  0
  4  8  1  0
  5  9  1  0
  5 10  2  0
  6 10  1  0
  8 11  1  0
  7 12  1  0
 10 13  1  0
  9 14  2  0
 11 15  1  0
 12 15  2  0
 13 16  2  0
 14 16  1  0
M  END
