x0969_0_A-x0766_0_A
     RDKit          3D

 21 24  0  0  0  0  0  0  0  0999 V2000
   -6.4090   14.9870    2.6400 N   0  0  0  0  0  0  0  0  0  0  0  0
   -6.1490   14.3020    1.4240 C   0  0  1  0  0  0  0  0  0  0  0  0
   -7.4260   14.2740    0.7200 N   0  0  0  0  0  0  0  0  0  0  0  0
   -5.1680   14.9610    0.5630 N   0  0  0  0  0  0  0  0  0  0  0  0
   -7.1330   14.7140   -0.6460 N   0  0  0  0  0  0  0  0  0  0  0  0
   -5.6870   14.5690   -0.7270 C   0  0  1  0  0  0  0  0  0  0  0  0
   -3.7350   14.5570    0.6500 C   0  0  0  0  0  0  0  0  0  0  0  0
   -5.1080   15.3630   -1.8540 C   0  0  0  0  0  0  0  0  0  0  0  0
   -2.8810   15.2380   -0.4610 C   0  0  2  0  0  0  0  0  0  0  0  0
   -3.6020   15.4010   -1.8380 C   0  0  1  0  0  0  0  0  0  0  0  0
   -1.5050   14.6300   -0.9070 C   0  0  0  0  0  0  0  0  0  0  0  0
   -2.9130   14.4120   -2.7380 C   0  0  0  0  0  0  0  0  0  0  0  0
   -1.5310   14.9430   -2.4340 C   0  0  2  0  0  0  0  0  0  0  0  0
   -0.4420   14.5770   -3.4750 C   0  0  2  0  0  0  0  0  0  0  0  0
    0.0500   13.1180   -3.6930 C   0  0  2  0  0  0  0  0  0  0  0  0
    0.8610   15.3260   -3.2550 C   0  0  0  0  0  0  0  0  0  0  0  0
    0.2270   12.2810   -2.4350 C   0  0  0  0  0  0  0  0  0  0  0  0
    1.4040   13.2920   -4.4130 C   0  0  0  0  0  0  0  0  0  0  0  0
    1.7120   14.7910   -4.3820 C   0  0  0  0  0  0  0  0  0  0  0  0
    0.4840   12.6940   -1.3180 O   0  0  0  0  0  0  0  0  0  0  0  0
    0.0790   10.9600   -2.6760 O   0  0  0  0  0  0  0  0  0  0  0  0
  2  1  1  1
  2  3  1  0
  2  4  1  0
  3  5  1  0
  4  6  1  0
  5  6  1  0
  4  7  1  0
  6  8  1  6
  9  7  1  1
 10  8  1  1
  9 10  1  0
  9 11  1  0
 10 12  1  0
 13 11  1  1
 12 13  1  0
 13 14  1  0
 14 15  1  0
 14 16  1  1
 15 17  1  1
 15 18  1  0
 16 19  1  0
 18 19  1  0
 17 20  2  0
 17 21  1  0
M  END
