x0969_0_A-x0465_0_A
     RDKit          3D

 26 28  0  0  0  0  0  0  0  0999 V2000
   -6.7910   14.7720    2.6250 N   0  0  0  0  0  0  0  0  0  0  0  0
   -6.6610   14.7470    1.2810 C   0  0  0  0  0  0  0  0  0  0  0  0
   -7.6390   14.6370    0.4130 N   0  0  0  0  0  0  0  0  0  0  0  0
   -5.4540   14.8500    0.6060 N   0  0  0  0  0  0  0  0  0  0  0  0
   -7.1070   14.6680   -0.8530 N   0  0  0  0  0  0  0  0  0  0  0  0
   -5.8080   14.7940   -0.7360 C   0  0  0  0  0  0  0  0  0  0  0  0
   -4.1360   14.9840    1.0480 C   0  0  0  0  0  0  0  0  0  0  0  0
   -4.7770   14.8730   -1.6920 C   0  0  0  0  0  0  0  0  0  0  0  0
   -3.1570   15.0490    0.1340 C   0  0  0  0  0  0  0  0  0  0  0  0
   -3.5060   14.9870   -1.2910 C   0  0  0  0  0  0  0  0  0  0  0  0
   -2.3970   15.0680   -2.2880 C   0  0  0  0  0  0  0  0  0  0  0  0
   -1.9280   13.8070   -2.9570 C   0  0  0  0  0  0  0  0  0  0  0  0
   -0.4060   13.8220   -3.0130 C   0  0  0  0  0  0  0  0  0  0  0  0
    0.0470   12.5360   -2.5880 N   0  0  0  0  0  0  0  0  0  0  0  0
    0.7260   11.7820   -3.3310 C   0  0  0  0  0  0  0  0  0  0  0  0
    1.1940   12.1470   -4.7480 C   0  0  2  0  0  0  0  0  0  0  0  0
    1.0930   10.5670   -2.9390 O   0  0  0  0  0  0  0  0  0  0  0  0
    1.9570   13.4620   -4.6830 C   0  0  0  0  0  0  0  0  0  0  0  0
    0.0870   12.2720   -5.6450 O   0  0  0  0  0  0  0  0  0  0  0  0
   -0.8650   11.3010   -5.8410 C   0  0  0  0  0  0  0  0  0  0  0  0
   -0.9840   10.4060   -6.9100 C   0  0  0  0  0  0  0  0  0  0  0  0
   -1.8210   11.2310   -4.8260 C   0  0  0  0  0  0  0  0  0  0  0  0
   -0.1100   10.3910   -7.9250 F   0  0  0  0  0  0  0  0  0  0  0  0
   -2.0210    9.4700   -6.9650 C   0  0  0  0  0  0  0  0  0  0  0  0
   -2.8610   10.3000   -4.8740 C   0  0  0  0  0  0  0  0  0  0  0  0
   -2.9620    9.4170   -5.9460 C   0  0  0  0  0  0  0  0  0  0  0  0
  1  2  1  0
  2  3  2  0
  2  4  1  0
  3  5  1  0
  4  6  1  0
  5  6  2  0
  4  7  1  0
  6  8  1  0
  7  9  2  0
  8 10  2  0
  9 10  1  0
 10 11  1  0
 11 12  1  0
 12 13  1  0
 13 14  1  0
 14 15  2  3
 15 16  1  0
 15 17  1  0
 16 18  1  1
 16 19  1  0
 19 20  1  0
 20 21  2  0
 20 22  1  0
 21 23  1  0
 21 24  1  0
 22 25  2  0
 24 26  2  0
 25 26  1  0
M  END
