x0962_0_A-x0371_0_A
     RDKit          3D

 20 22  0  0  0  0  0  0  0  0999 V2000
   -2.6950   14.9190   -2.4580 N   0  0  0  0  0  0  0  0  0  0  0  0
   -3.4040   14.9370   -1.5370 C   0  0  0  0  0  0  0  0  0  0  0  0
   -4.1780   14.9100   -0.3450 C   0  0  0  0  0  0  0  0  0  0  0  0
   -3.5360   15.2990    0.8230 N   0  0  0  0  0  0  0  0  0  0  0  0
   -5.4670   14.5070   -0.2490 C   0  0  0  0  0  0  0  0  0  0  0  0
   -4.2830   15.4120    1.9640 C   0  0  0  0  0  0  0  0  0  0  0  0
   -6.3760   14.0100   -1.1500 N   0  0  0  0  0  0  0  0  0  0  0  0
   -6.0870   14.5240    1.0500 C   0  0  0  0  0  0  0  0  0  0  0  0
   -5.4960   15.0750    2.1110 N   0  0  0  0  0  0  0  0  0  0  0  0
   -7.2490   13.9160    1.0580 C   0  0  0  0  0  0  0  0  0  0  0  0
   -7.3770   13.6300   -0.3850 C   0  0  0  0  0  0  0  0  0  0  0  0
   -8.1530   13.6350    2.2020 C   0  0  0  0  0  0  0  0  0  0  0  0
   -9.1880   14.6000    2.4600 N   0  0  0  0  0  0  0  0  0  0  0  0
   -9.1410   15.6780    3.3460 C   0  0  0  0  0  0  0  0  0  0  0  0
   -9.4490   16.7830    2.9520 O   0  0  0  0  0  0  0  0  0  0  0  0
   -8.7710   15.4700    4.7480 C   0  0  0  0  0  0  0  0  0  0  0  0
   -8.2030   14.3070    5.1990 O   0  0  0  0  0  0  0  0  0  0  0  0
   -8.9120   16.3410    5.8210 C   0  0  0  0  0  0  0  0  0  0  0  0
   -8.4090   15.6770    6.9660 C   0  0  0  0  0  0  0  0  0  0  0  0
   -7.9860   14.4470    6.5380 C   0  0  0  0  0  0  0  0  0  0  0  0
  1  2  3  0
  2  3  1  0
  3  4  1  0
  3  5  2  0
  4  6  1  0
  5  7  1  0
  5  8  1  0
  6  9  2  0
  8  9  1  0
  8 10  2  0
  7 11  2  0
 10 11  1  0
 10 12  1  0
 12 13  1  0
 13 14  1  0
 14 15  2  0
 14 16  1  0
 16 17  1  0
 16 18  2  0
 18 19  1  0
 17 20  1  0
 19 20  2  0
M  END
