x0969_0_A-x0852_0_B
     RDKit          3D

 22 24  0  0  0  0  0  0  0  0999 V2000
   -6.8280   14.8080    2.4270 N   0  0  0  0  0  0  0  0  0  0  0  0
   -6.5440   14.4600    1.0660 C   0  0  1  0  0  0  0  0  0  0  0  0
   -7.7580   14.4920    0.1310 N   0  0  0  0  0  0  0  0  0  0  0  0
   -5.3780   15.0200    0.4160 N   0  0  0  0  0  0  0  0  0  0  0  0
   -8.7020   15.6260    0.3700 C   0  0  0  0  0  0  0  0  0  0  0  0
   -7.0880   14.8030   -1.2170 N   0  0  0  0  0  0  0  0  0  0  0  0
   -5.6820   14.5100   -0.8960 C   0  0  1  0  0  0  0  0  0  0  0  0
   -4.0650   14.9840    0.8420 C   0  0  0  0  0  0  0  0  0  0  0  0
  -10.2150   15.3800    0.4780 C   0  0  0  0  0  0  0  0  0  0  0  0
   -4.6420   14.9680   -1.8650 C   0  0  0  0  0  0  0  0  0  0  0  0
   -3.0590   15.0770   -0.0360 C   0  0  0  0  0  0  0  0  0  0  0  0
  -10.7670   16.0810    1.6120 O   0  0  0  0  0  0  0  0  0  0  0  0
   -3.3900   15.2250   -1.4500 C   0  0  0  0  0  0  0  0  0  0  0  0
  -10.0490   15.9860    2.7920 C   0  0  0  0  0  0  0  0  0  0  0  0
   -9.1260   14.9350    2.7970 C   0  0  0  0  0  0  0  0  0  0  0  0
  -10.1430   16.7880    3.9360 C   0  0  0  0  0  0  0  0  0  0  0  0
   -8.3070   14.6750    3.9020 C   0  0  0  0  0  0  0  0  0  0  0  0
   -9.3280   16.5240    5.0560 C   0  0  0  0  0  0  0  0  0  0  0  0
   -9.4730   17.3480    6.2190 C   0  0  0  0  0  0  0  0  0  0  0  0
   -8.4070   15.4700    5.0320 C   0  0  0  0  0  0  0  0  0  0  0  0
   -9.6620   17.9430    7.1980 N   0  0  0  0  0  0  0  0  0  0  0  0
   -7.6120   15.2140    6.1220 O   0  0  0  0  0  0  0  0  0  0  0  0
  2  1  1  1
  2  3  1  0
  2  4  1  0
  3  5  1  0
  3  6  1  0
  4  7  1  0
  6  7  1  0
  4  8  1  0
  5  9  1  0
  7 10  1  6
  8 11  2  0
  9 12  1  0
 10 13  2  0
 11 13  1  0
 12 14  1  0
 14 15  2  0
 14 16  1  0
 15 17  1  0
 16 18  2  0
 18 19  1  0
 17 20  2  0
 18 20  1  0
 19 21  3  0
 20 22  1  0
M  END
