x0962_2_B_α-x0962_0_A_α
     RDKit          3D

 15 16  0  0  0  0  0  0  0  0999 V2000
  -10.6540   16.3260    0.8480 N   0  0  0  0  0  0  0  0  0  0  0  0
   -9.9200   16.0560    1.6970 C   0  0  0  0  0  0  0  0  0  0  0  0
   -9.0180   15.7080    2.7240 C   0  0  0  0  0  0  0  0  0  0  0  0
   -9.1250   16.1110    4.0310 N   0  0  0  0  0  0  0  0  0  0  0  0
   -7.8820   14.9270    2.6550 C   0  0  0  0  0  0  0  0  0  0  0  0
   -7.2710   14.2240    1.4660 C   0  0  0  0  0  0  0  0  0  0  0  0
   -8.0750   15.5650    4.7060 C   0  0  0  0  0  0  0  0  0  0  0  0
   -7.3210   14.8500    3.9090 N   0  0  0  0  0  0  0  0  0  0  0  0
   -5.9220   14.6520    1.0150 N   0  0  0  0  0  0  0  0  0  0  0  0
   -4.9310   15.3050    1.7180 C   0  0  0  0  0  0  0  0  0  0  0  0
   -5.4230   14.4410   -0.2430 C   0  0  0  0  0  0  0  0  0  0  0  0
   -4.1510   14.9660   -0.2380 C   0  0  0  0  0  0  0  0  0  0  0  0
   -3.8490   15.5020    0.9830 N   0  0  0  0  0  0  0  0  0  0  0  0
   -3.2320   14.9650   -1.3350 C   0  0  0  0  0  0  0  0  0  0  0  0
   -2.5060   14.9110   -2.2410 N   0  0  0  0  0  0  0  0  0  0  0  0
  1  2  3  0
  2  3  1  0
  3  4  1  0
  3  5  2  0
  5  6  1  0
  4  7  1  0
  5  8  1  0
  7  8  2  0
  6  9  1  0
  9 10  1  0
  9 11  1  0
 11 12  2  0
 10 13  2  0
 12 13  1  0
 12 14  1  0
 14 15  3  0
M  END
