x0969_0_A_α-x0253_0_A_α
     RDKit          3D

 27 29  0  0  0  0  0  0  0  0999 V2000
   -6.6980   14.8370    2.4490 N   0  0  0  0  0  0  0  0  0  0  0  0
   -6.4510   14.7670    1.1220 C   0  0  0  0  0  0  0  0  0  0  0  0
   -7.3360   14.6430    0.1590 N   0  0  0  0  0  0  0  0  0  0  0  0
   -5.1790   14.8180    0.5690 N   0  0  0  0  0  0  0  0  0  0  0  0
   -6.6650   14.6000   -1.0460 N   0  0  0  0  0  0  0  0  0  0  0  0
   -5.3740   14.6940   -0.7930 C   0  0  0  0  0  0  0  0  0  0  0  0
   -3.9230   14.9510    1.1520 C   0  0  0  0  0  0  0  0  0  0  0  0
   -4.2110   14.6680   -1.6270 C   0  0  0  0  0  0  0  0  0  0  0  0
   -2.8330   14.9130    0.3800 C   0  0  0  0  0  0  0  0  0  0  0  0
   -2.9720   14.7450   -1.0620 C   0  0  0  0  0  0  0  0  0  0  0  0
   -1.6680   14.6430   -1.8410 C   0  0  0  0  0  0  0  0  0  0  0  0
   -0.4020   14.6130   -0.9390 C   0  0  0  0  0  0  0  0  0  0  0  0
    0.8650   14.0830   -1.6170 C   0  0  0  0  0  0  0  0  0  0  0  0
    0.7310   12.6380   -1.6940 N   0  0  0  0  0  0  0  0  0  0  0  0
    0.7030   12.0960   -2.8610 C   0  0  0  0  0  0  0  0  0  0  0  0
    0.5280   10.7630   -2.8390 O   0  0  0  0  0  0  0  0  0  0  0  0
    0.8270   12.6780   -4.2740 C   0  0  0  0  0  0  0  0  0  0  0  0
    0.2740   11.9200   -5.3880 N   0  0  0  0  0  0  0  0  0  0  0  0
    1.0610   11.6820   -6.5000 C   0  0  0  0  0  0  0  0  0  0  0  0
    2.1770   12.1620   -6.5840 O   0  0  0  0  0  0  0  0  0  0  0  0
    0.4930   10.7820   -7.5590 C   0  0  0  0  0  0  0  0  0  0  0  0
   -0.4850    9.8640   -7.1510 C   0  0  0  0  0  0  0  0  0  0  0  0
    0.8700   10.7940   -8.9120 C   0  0  0  0  0  0  0  0  0  0  0  0
   -1.0760    8.9820   -8.0630 C   0  0  0  0  0  0  0  0  0  0  0  0
    0.2880    9.9200   -9.8250 C   0  0  0  0  0  0  0  0  0  0  0  0
   -2.1200    8.0140   -7.5940 C   0  0  0  0  0  0  0  0  0  0  0  0
   -0.6840    9.0150   -9.4050 C   0  0  0  0  0  0  0  0  0  0  0  0
  1  2  1  0
  2  3  2  0
  2  4  1  0
  3  5  1  0
  4  6  1  0
  5  6  2  0
  4  7  1  0
  6  8  1  0
  7  9  2  0
  8 10  2  0
  9 10  1  0
 10 11  1  0
 11 12  1  0
 12 13  1  0
 13 14  1  0
 14 15  2  3
 15 16  1  0
 15 17  1  0
 17 18  1  0
 18 19  1  0
 19 20  2  0
 19 21  1  0
 21 22  2  0
 21 23  1  0
 22 24  1  0
 23 25  2  0
 24 26  1  0
 24 27  2  0
 25 27  1  0
M  END
