x0967_0_A_α-x0524_0_A_α
     RDKit          3D

 32 35  0  0  0  0  0  0  0  0999 V2000
   -0.4750    8.7540   -8.1510 N   0  0  0  0  0  0  0  0  0  0  0  0
   -0.7790    9.8610   -7.3690 C   0  0  0  0  0  0  0  0  0  0  0  0
   -2.2410    9.8840   -6.9370 C   0  0  0  0  0  0  0  0  0  0  0  0
    0.5910    8.6630   -9.0670 C   0  0  0  0  0  0  0  0  0  0  0  0
   -0.0050   10.7500   -7.0540 O   0  0  0  0  0  0  0  0  0  0  0  0
    1.6710    7.7980   -8.9410 C   0  0  0  0  0  0  0  0  0  0  0  0
    0.5430    9.5130  -10.1760 C   0  0  0  0  0  0  0  0  0  0  0  0
   -2.8770   11.2900   -6.9740 C   0  0  0  0  0  0  0  0  0  0  0  0
    2.6910    7.7840   -9.9060 C   0  0  0  0  0  0  0  0  0  0  0  0
    1.5580    9.4960  -11.1370 C   0  0  0  0  0  0  0  0  0  0  0  0
   -2.9120   11.9700   -5.5980 C   0  0  0  0  0  0  0  0  0  0  0  0
    2.6510    8.6310  -11.0160 C   0  0  0  0  0  0  0  0  0  0  0  0
    3.6460    8.6510  -12.0060 N   0  0  0  0  0  0  0  0  0  0  0  0
   -2.9700   13.5080   -5.5230 C   0  0  0  0  0  0  0  0  0  0  0  0
   -3.8360   14.0290   -4.3480 C   0  0  0  0  0  0  0  0  0  0  0  0
    3.9300    9.5420  -13.0550 C   0  0  0  0  0  0  0  0  0  0  0  0
   -3.0360   14.7090   -3.2140 C   0  0  0  0  0  0  0  0  0  0  0  0
    3.1990   10.7160  -13.2930 C   0  0  0  0  0  0  0  0  0  0  0  0
    4.9990    9.2500  -13.9110 C   0  0  0  0  0  0  0  0  0  0  0  0
   -3.7630   14.7680   -1.8820 C   0  0  0  0  0  0  0  0  0  0  0  0
    3.5240   11.5670  -14.3480 C   0  0  0  0  0  0  0  0  0  0  0  0
    5.3280   10.0980  -14.9690 C   0  0  0  0  0  0  0  0  0  0  0  0
   -5.1070   14.6030   -1.9190 N   0  0  0  0  0  0  0  0  0  0  0  0
   -3.0720   14.9780   -0.6910 C   0  0  0  0  0  0  0  0  0  0  0  0
    4.5880   11.2600  -15.1890 C   0  0  0  0  0  0  0  0  0  0  0  0
   -5.8110   14.6380   -0.7880 C   0  0  0  0  0  0  0  0  0  0  0  0
   -3.7950   15.0230    0.4950 C   0  0  0  0  0  0  0  0  0  0  0  0
   -7.1360   14.4630   -0.8630 N   0  0  0  0  0  0  0  0  0  0  0  0
   -5.1840   14.8490    0.4490 C   0  0  0  0  0  0  0  0  0  0  0  0
   -5.9740   14.8790    1.6030 C   0  0  0  0  0  0  0  0  0  0  0  0
   -7.8740   14.4880    0.2690 C   0  0  0  0  0  0  0  0  0  0  0  0
   -7.3440   14.6910    1.5220 C   0  0  0  0  0  0  0  0  0  0  0  0
  1  2  1  0
  2  3  1  0
  1  4  1  0
  2  5  2  0
  4  6  2  0
  4  7  1  0
  3  8  1  0
  6  9  1  0
  7 10  2  0
  8 11  1  0
  9 12  2  0
 10 12  1  0
 12 13  1  0
 11 14  1  0
 14 15  1  0
 13 16  1  0
 15 17  1  0
 16 18  2  0
 16 19  1  0
 17 20  1  0
 18 21  1  0
 19 22  2  0
 20 23  2  0
 20 24  1  0
 21 25  2  0
 22 25  1  0
 23 26  1  0
 24 27  2  0
 26 28  2  0
 26 29  1  0
 27 29  1  0
 29 30  2  0
 28 31  1  0
 30 32  1  0
 31 32  2  0
M  END
