x0962_2_B-x0967_0_A
     RDKit          3D

 18 20  0  0  0  0  0  0  0  0999 V2000
  -11.2650   15.8570    1.4710 N   0  0  0  0  0  0  0  0  0  0  0  0
   -9.8110   15.7320    1.4510 C   0  0  2  0  0  0  0  0  0  0  0  0
   -9.2630   14.7140    0.4040 C   0  0  0  0  0  0  0  0  0  0  0  0
   -9.2220   15.4440    2.7980 C   0  0  0  0  0  0  0  0  0  0  0  0
   -8.9990   16.3790    3.7880 N   0  0  0  0  0  0  0  0  0  0  0  0
   -8.7740   14.2620    3.3480 C   0  0  0  0  0  0  0  0  0  0  0  0
   -7.7600   14.7530    0.3480 C   0  0  0  0  0  0  0  0  0  0  0  0
   -8.4370   15.7330    4.8500 C   0  0  0  0  0  0  0  0  0  0  0  0
   -8.2910   14.4470    4.6140 N   0  0  0  0  0  0  0  0  0  0  0  0
   -7.0820   14.7310   -0.8340 N   0  0  0  0  0  0  0  0  0  0  0  0
   -7.1140   14.8390    1.5560 C   0  0  0  0  0  0  0  0  0  0  0  0
   -5.7410   14.8090   -0.8100 C   0  0  0  0  0  0  0  0  0  0  0  0
   -5.7530   14.9300    1.5670 C   0  0  0  0  0  0  0  0  0  0  0  0
   -5.0440   14.9120    0.3970 C   0  0  0  0  0  0  0  0  0  0  0  0
   -5.0830   14.7910   -1.9620 N   0  0  0  0  0  0  0  0  0  0  0  0
   -3.7300   14.8760   -1.9340 C   0  0  0  0  0  0  0  0  0  0  0  0
   -3.6530   14.9980    0.4180 C   0  0  0  0  0  0  0  0  0  0  0  0
   -2.9790   14.9770   -0.7810 C   0  0  0  0  0  0  0  0  0  0  0  0
  2  1  1  1
  2  3  1  0
  2  4  1  0
  4  5  1  0
  4  6  2  0
  3  7  1  0
  5  8  1  0
  6  9  1  0
  8  9  2  0
  7 10  2  0
  7 11  1  0
 10 12  1  0
 11 13  2  0
 12 14  2  0
 13 14  1  0
 12 15  1  0
 15 16  2  0
 14 17  1  0
 16 18  1  0
 17 18  2  0
M  END
