x0962_0_A_α-x0852_0_B_α
     RDKit          3D

 18 19  0  0  0  0  0  0  0  0999 V2000
   -3.0330   15.1040   -2.1190 N   0  0  0  0  0  0  0  0  0  0  0  0
   -3.6120   15.0730   -1.1050 C   0  0  0  0  0  0  0  0  0  0  0  0
   -4.2700   14.9590    0.1720 C   0  0  0  0  0  0  0  0  0  0  0  0
   -3.6860   15.4170    1.3240 N   0  0  0  0  0  0  0  0  0  0  0  0
   -5.5130   14.3980    0.4610 C   0  0  0  0  0  0  0  0  0  0  0  0
   -4.5320   15.1410    2.2950 C   0  0  0  0  0  0  0  0  0  0  0  0
   -5.6610   14.5140    1.8380 N   0  0  0  0  0  0  0  0  0  0  0  0
   -6.7820   14.0460    2.7140 C   0  0  0  0  0  0  0  0  0  0  0  0
   -7.8770   15.0310    3.1410 C   0  0  0  0  0  0  0  0  0  0  0  0
   -8.0630   15.5190    4.4720 C   0  0  0  0  0  0  0  0  0  0  0  0
   -8.7650   15.4810    2.1560 C   0  0  0  0  0  0  0  0  0  0  0  0
   -7.2030   15.0690    5.4410 O   0  0  0  0  0  0  0  0  0  0  0  0
   -9.7840   16.3780    2.4610 C   0  0  0  0  0  0  0  0  0  0  0  0
   -9.1020   16.4330    4.7720 C   0  0  0  0  0  0  0  0  0  0  0  0
   -9.3320   16.9590    6.0860 C   0  0  0  0  0  0  0  0  0  0  0  0
  -10.9410   16.9520    1.0830 Br  0  0  0  0  0  0  0  0  0  0  0  0
   -9.9580   16.8580    3.7530 C   0  0  0  0  0  0  0  0  0  0  0  0
   -9.5880   17.4080    7.1320 N   0  0  0  0  0  0  0  0  0  0  0  0
  1  2  3  0
  2  3  1  0
  3  4  1  0
  3  5  2  0
  4  6  2  0
  5  7  1  0
  6  7  1  0
  7  8  1  0
  8  9  1  0
  9 10  2  0
  9 11  1  0
 10 12  1  0
 11 13  2  0
 10 14  1  0
 14 15  1  0
 13 16  1  0
 13 17  1  0
 14 17  2  0
 15 18  3  0
M  END
