x0962_1_A_α-x1015_0_A_α
     RDKit          3D

 25 27  0  0  0  0  0  0  0  0999 V2000
   -3.8430   15.8210   -1.2470 N   0  0  0  0  0  0  0  0  0  0  0  0
   -4.4040   14.5180   -1.0480 C   0  0  1  0  0  0  0  0  0  0  0  0
   -3.3370   13.4600   -0.7090 C   0  0  0  0  0  0  0  0  0  0  0  0
   -5.5500   14.5730   -0.1000 C   0  0  0  0  0  0  0  0  0  0  0  0
   -2.1850   13.3500   -1.7220 C   0  0  0  0  0  0  0  0  0  0  0  0
   -5.3950   14.6160    1.2650 N   0  0  0  0  0  0  0  0  0  0  0  0
   -6.9180   14.5930   -0.2810 C   0  0  0  0  0  0  0  0  0  0  0  0
   -2.5910   13.8120   -3.1340 C   0  0  0  0  0  0  0  0  0  0  0  0
   -6.6350   14.6490    1.8320 C   0  0  0  0  0  0  0  0  0  0  0  0
   -7.5790   14.6350    0.9170 N   0  0  0  0  0  0  0  0  0  0  0  0
   -1.4440   14.3410   -4.0140 C   0  0  0  0  0  0  0  0  0  0  0  0
   -0.0710   13.6660   -3.8870 C   0  0  2  0  0  0  0  0  0  0  0  0
   -0.0570   12.2120   -3.9200 N   0  0  0  0  0  0  0  0  0  0  0  0
    0.5230   13.9150   -2.5070 C   0  0  0  0  0  0  0  0  0  0  0  0
    0.7010   14.9990   -1.9740 O   0  0  0  0  0  0  0  0  0  0  0  0
    0.3390   11.6920   -2.6800 C   0  0  0  0  0  0  0  0  0  0  0  0
    0.8360   12.7230   -1.9470 N   0  0  0  0  0  0  0  0  0  0  0  0
   -0.4620   11.4350   -5.0320 C   0  0  0  0  0  0  0  0  0  0  0  0
    0.2810   10.5320   -2.2690 O   0  0  0  0  0  0  0  0  0  0  0  0
    0.0920   11.6300   -6.3050 C   0  0  0  0  0  0  0  0  0  0  0  0
   -1.4370   10.4360   -4.8840 C   0  0  0  0  0  0  0  0  0  0  0  0
   -0.3150   10.8550   -7.3950 C   0  0  0  0  0  0  0  0  0  0  0  0
   -1.8470    9.6590   -5.9700 C   0  0  0  0  0  0  0  0  0  0  0  0
   -1.2830    9.8710   -7.2230 C   0  0  0  0  0  0  0  0  0  0  0  0
   -1.7890    8.9120   -8.5550 Cl  0  0  0  0  0  0  0  0  0  0  0  0
  2  1  1  1
  2  3  1  0
  2  4  1  0
  3  5  1  0
  4  6  1  0
  4  7  2  0
  5  8  1  0
  6  9  1  0
  7 10  1  0
  9 10  2  0
  8 11  1  0
 12 11  1  1
 12 13  1  0
 12 14  1  0
 14 15  2  0
 13 16  1  0
 14 17  1  0
 16 17  1  0
 13 18  1  0
 16 19  2  0
 18 20  2  0
 18 21  1  0
 20 22  1  0
 21 23  2  0
 22 24  2  0
 23 24  1  0
 24 25  1  0
M  END
