x0962_3_A_α-x0685_1_A_α
     RDKit          3D

 14 14  0  0  0  0  0  0  0  0999 V2000
    1.6680   12.0120   -7.0350 N   0  0  0  0  0  0  0  0  0  0  0  0
    0.9690   11.1410   -7.2720 C   0  0  0  0  0  0  0  0  0  0  0  0
    0.0470   10.1070   -7.3910 C   0  0  0  0  0  0  0  0  0  0  0  0
    0.1490    8.9820   -8.1710 N   0  0  0  0  0  0  0  0  0  0  0  0
   -1.1470   10.0120   -6.7420 C   0  0  0  0  0  0  0  0  0  0  0  0
   -1.6550   10.9260   -5.8590 N   0  0  0  0  0  0  0  0  0  0  0  0
   -0.9910    8.2590   -7.9580 C   0  0  0  0  0  0  0  0  0  0  0  0
   -1.7920    8.8610   -7.0990 N   0  0  0  0  0  0  0  0  0  0  0  0
   -1.2500   11.0100   -4.4500 C   0  0  0  0  0  0  0  0  0  0  0  0
   -0.4260   12.2550   -4.1050 C   0  0  0  0  0  0  0  0  0  0  0  0
    0.5900   11.9270   -2.6600 S   0  0  0  0  0  0  0  0  0  0  0  0
    2.0980   12.3600   -2.9930 O   0  0  0  0  0  0  0  0  0  0  0  0
    0.4910   10.3480   -2.4170 O   0  0  0  0  0  0  0  0  0  0  0  0
    0.0380   12.7020   -1.3730 O   0  0  0  0  0  0  0  0  0  0  0  0
  1  2  3  0
  2  3  1  0
  3  4  1  0
  3  5  2  0
  5  6  1  0
  4  7  1  0
  5  8  1  0
  7  8  2  0
  6  9  1  0
  9 10  1  0
 10 11  1  0
 11 12  1  0
 11 13  1  0
 11 14  1  0
M  END
