x0962_0_A-x0689_0_A
     RDKit          3D

 14 15  0  0  0  0  0  0  0  0999 V2000
   -2.7510   15.0580   -2.3300 N   0  0  0  0  0  0  0  0  0  0  0  0
   -3.5590   15.0520   -1.4960 C   0  0  0  0  0  0  0  0  0  0  0  0
   -4.5860   14.9800   -0.5210 C   0  0  0  0  0  0  0  0  0  0  0  0
   -4.4850   14.9780    0.8450 N   0  0  0  0  0  0  0  0  0  0  0  0
   -5.9260   14.8880   -0.7580 C   0  0  0  0  0  0  0  0  0  0  0  0
   -5.7370   14.8830    1.3530 C   0  0  0  0  0  0  0  0  0  0  0  0
   -6.6370   14.8240    0.4110 N   0  0  0  0  0  0  0  0  0  0  0  0
   -3.4110   15.0450    1.6160 N   0  0  0  0  0  0  0  0  0  0  0  0
   -2.2160   14.7330    1.0500 C   0  0  0  0  0  0  0  0  0  0  0  0
   -2.0560   14.7980   -0.2700 N   0  0  0  0  0  0  0  0  0  0  0  0
   -1.3020   14.3820    1.9070 N   0  0  0  0  0  0  0  0  0  0  0  0
   -0.8520   14.4840   -0.7520 C   0  0  0  0  0  0  0  0  0  0  0  0
   -0.1280   14.0750    1.3990 C   0  0  0  0  0  0  0  0  0  0  0  0
    0.1730   14.1080    0.0540 C   0  0  0  0  0  0  0  0  0  0  0  0
  1  2  3  0
  2  3  1  0
  3  4  1  0
  3  5  2  0
  4  6  1  0
  5  7  1  0
  6  7  2  0
  4  8  1  0
  8  9  1  0
  9 10  2  0
  9 11  1  0
 10 12  1  0
 11 13  2  0
 12 14  2  0
 13 14  1  0
M  END
