x0967_0_A-x0962_2_B
     RDKit          3D

 20 22  0  0  0  0  0  0  0  0999 V2000
  -10.6570   16.4690    0.7600 N   0  0  0  0  0  0  0  0  0  0  0  0
   -9.6420   15.4230    0.8230 C   0  0  1  0  0  0  0  0  0  0  0  0
   -8.4830   15.7470   -0.2020 C   0  0  0  0  0  0  0  0  0  0  0  0
   -9.1980   15.3060    2.2800 C   0  0  0  0  0  0  0  0  0  0  0  0
   -8.4010   15.0950   -1.6230 C   0  0  0  0  0  0  0  0  0  0  0  0
   -9.1480   16.3530    3.1890 N   0  0  0  0  0  0  0  0  0  0  0  0
   -8.7700   14.2270    3.0320 C   0  0  0  0  0  0  0  0  0  0  0  0
   -7.0500   15.4240   -2.3880 C   0  0  0  0  0  0  0  0  0  0  0  0
   -8.6930   15.8660    4.3890 C   0  0  0  0  0  0  0  0  0  0  0  0
   -8.4610   14.5820    4.3230 N   0  0  0  0  0  0  0  0  0  0  0  0
   -5.8470   14.8950   -1.7120 N   0  0  0  0  0  0  0  0  0  0  0  0
   -6.2280   14.7550   -0.3650 C   0  0  1  0  0  0  0  0  0  0  0  0
   -4.4910   15.0950   -2.0250 C   0  0  0  0  0  0  0  0  0  0  0  0
   -7.1000   13.6220   -0.1690 N   0  0  0  0  0  0  0  0  0  0  0  0
   -5.1240   14.9220    0.6460 C   0  0  0  0  0  0  0  0  0  0  0  0
   -3.5120   15.1980   -1.0910 C   0  0  0  0  0  0  0  0  0  0  0  0
   -5.6370   14.8460    1.9720 C   0  0  0  0  0  0  0  0  0  0  0  0
   -7.3010   13.3750    1.0470 C   0  0  0  0  0  0  0  0  0  0  0  0
   -3.8450   15.1260    0.3130 C   0  0  0  0  0  0  0  0  0  0  0  0
   -6.7230   14.0990    2.1940 C   0  0  0  0  0  0  0  0  0  0  0  0
  2  1  1  1
  2  3  1  0
  2  4  1  0
  3  5  1  0
  4  6  1  0
  4  7  2  0
  5  8  1  0
  6  9  1  0
  7 10  1  0
  9 10  2  0
  8 11  1  0
 11 12  1  0
 11 13  1  0
 12 14  1  6
 12 15  1  0
 13 16  2  0
 15 17  1  0
 14 18  2  0
 15 19  2  0
 16 19  1  0
 17 20  2  0
 18 20  1  0
M  END
