x0962_1_A-x1015_0_A
     RDKit          3D

 25 27  0  0  0  0  0  0  0  0999 V2000
   -4.0340   15.8410   -1.4490 N   0  0  0  0  0  0  0  0  0  0  0  0
   -4.3700   14.5210   -0.9960 C   0  0  1  0  0  0  0  0  0  0  0  0
   -3.1450   13.7480   -0.4820 C   0  0  0  0  0  0  0  0  0  0  0  0
   -5.5470   14.5580   -0.0830 C   0  0  0  0  0  0  0  0  0  0  0  0
   -2.0000   13.6350   -1.5000 C   0  0  0  0  0  0  0  0  0  0  0  0
   -5.4370   14.5960    1.2860 N   0  0  0  0  0  0  0  0  0  0  0  0
   -6.9110   14.5590   -0.3070 C   0  0  0  0  0  0  0  0  0  0  0  0
   -2.4910   13.8070   -2.9510 C   0  0  0  0  0  0  0  0  0  0  0  0
   -6.6960   14.6120    1.8100 C   0  0  0  0  0  0  0  0  0  0  0  0
   -7.6110   14.5910    0.8680 N   0  0  0  0  0  0  0  0  0  0  0  0
   -1.4420   14.3100   -3.9580 C   0  0  0  0  0  0  0  0  0  0  0  0
   -0.0530   13.6610   -3.9050 C   0  0  2  0  0  0  0  0  0  0  0  0
   -0.0160   12.2070   -3.9310 N   0  0  0  0  0  0  0  0  0  0  0  0
    0.5950   13.9270   -2.5560 C   0  0  0  0  0  0  0  0  0  0  0  0
    0.9940   15.0040   -2.1490 O   0  0  0  0  0  0  0  0  0  0  0  0
    0.3210   11.7000   -2.6630 C   0  0  0  0  0  0  0  0  0  0  0  0
    0.6650   12.7600   -1.8760 N   0  0  0  0  0  0  0  0  0  0  0  0
   -0.4370   11.4310   -5.0350 C   0  0  0  0  0  0  0  0  0  0  0  0
    0.3260   10.5330   -2.2720 O   0  0  0  0  0  0  0  0  0  0  0  0
    0.1020   11.6270   -6.3130 C   0  0  0  0  0  0  0  0  0  0  0  0
   -1.4130   10.4330   -4.8760 C   0  0  0  0  0  0  0  0  0  0  0  0
   -0.3160   10.8520   -7.3990 C   0  0  0  0  0  0  0  0  0  0  0  0
   -1.8320    9.6570   -5.9600 C   0  0  0  0  0  0  0  0  0  0  0  0
   -1.2840    9.8690   -7.2180 C   0  0  0  0  0  0  0  0  0  0  0  0
   -1.8030    8.9110   -8.5460 Cl  0  0  0  0  0  0  0  0  0  0  0  0
  2  1  1  1
  2  3  1  0
  2  4  1  0
  3  5  1  0
  4  6  1  0
  4  7  2  0
  5  8  1  0
  6  9  1  0
  7 10  1  0
  9 10  2  0
  8 11  1  0
 12 11  1  1
 12 13  1  0
 12 14  1  0
 14 15  2  0
 13 16  1  0
 14 17  1  0
 16 17  1  0
 13 18  1  0
 16 19  2  0
 18 20  2  0
 18 21  1  0
 20 22  1  0
 21 23  2  0
 22 24  2  0
 23 24  1  0
 24 25  1  0
M  END
