x0969_0_A-x0371_0_A
     RDKit          3D

 18 20  0  0  0  0  0  0  0  0999 V2000
   -7.3730   14.5180    2.5500 N   0  0  0  0  0  0  0  0  0  0  0  0
   -8.3060   15.4260    3.1840 C   0  0  0  0  0  0  0  0  0  0  0  0
   -9.0850   16.1640    2.5750 O   0  0  0  0  0  0  0  0  0  0  0  0
   -7.6420   13.1440    2.8740 C   0  0  0  0  0  0  0  0  0  0  0  0
   -6.9430   14.7250    1.2010 C   0  0  0  0  0  0  0  0  0  0  0  0
   -7.7880   14.7170    0.1880 N   0  0  0  0  0  0  0  0  0  0  0  0
   -5.6420   14.9490    0.6400 N   0  0  0  0  0  0  0  0  0  0  0  0
   -8.3540   15.4520    4.6670 C   0  0  0  0  0  0  0  0  0  0  0  0
   -7.1360   14.9090   -0.9950 N   0  0  0  0  0  0  0  0  0  0  0  0
   -5.8670   15.0400   -0.7390 C   0  0  0  0  0  0  0  0  0  0  0  0
   -4.3290   15.0700    1.1400 C   0  0  0  0  0  0  0  0  0  0  0  0
   -7.8850   14.3970    5.4080 O   0  0  0  0  0  0  0  0  0  0  0  0
   -8.8250   16.4220    5.5450 C   0  0  0  0  0  0  0  0  0  0  0  0
   -4.7690   15.2360   -1.6170 C   0  0  0  0  0  0  0  0  0  0  0  0
   -3.2900   15.2420    0.3050 C   0  0  0  0  0  0  0  0  0  0  0  0
   -8.6310   15.9260    6.8640 C   0  0  0  0  0  0  0  0  0  0  0  0
   -8.0530   14.6910    6.7220 C   0  0  0  0  0  0  0  0  0  0  0  0
   -3.5300   15.3200   -1.1220 C   0  0  0  0  0  0  0  0  0  0  0  0
  1  2  1  0
  2  3  2  0
  1  4  1  0
  1  5  1  0
  5  6  2  0
  5  7  1  0
  2  8  1  0
  6  9  1  0
  7 10  1  0
  9 10  2  0
  7 11  1  0
  8 12  1  0
  8 13  2  0
 10 14  1  0
 11 15  2  0
 13 16  1  0
 12 17  1  0
 16 17  2  0
 14 18  2  0
 15 18  1  0
M  END
