x0969_0_A_α-x0910_0_A_α
     RDKit          3D

 15 17  0  0  0  0  0  0  0  0999 V2000
   -7.3280   14.7150    2.3400 N   0  0  0  0  0  0  0  0  0  0  0  0
   -6.9210   14.7180    1.0400 C   0  0  0  0  0  0  0  0  0  0  0  0
   -7.6010   14.6590   -0.0820 N   0  0  0  0  0  0  0  0  0  0  0  0
   -5.6140   14.7940    0.7400 N   0  0  0  0  0  0  0  0  0  0  0  0
   -6.6910   14.6860   -1.1410 N   0  0  0  0  0  0  0  0  0  0  0  0
   -5.4740   14.7590   -0.6320 C   0  0  0  0  0  0  0  0  0  0  0  0
   -4.6060   14.8820    1.6230 C   0  0  0  0  0  0  0  0  0  0  0  0
   -4.1150   14.7880   -1.1370 C   0  0  0  0  0  0  0  0  0  0  0  0
   -3.3960   14.8890    1.2000 C   0  0  0  0  0  0  0  0  0  0  0  0
   -3.0960   14.8210   -0.2080 C   0  0  0  0  0  0  0  0  0  0  0  0
   -1.7060   14.7980   -0.4000 C   0  0  0  0  0  0  0  0  0  0  0  0
   -1.0720   15.0530    0.7760 N   0  0  0  0  0  0  0  0  0  0  0  0
   -0.8030   14.6060   -1.3320 N   0  0  0  0  0  0  0  0  0  0  0  0
    0.2350   15.0380    0.6680 N   0  0  0  0  0  0  0  0  0  0  0  0
    0.3690   14.7630   -0.6250 C   0  0  0  0  0  0  0  0  0  0  0  0
  1  2  1  0
  2  3  2  0
  2  4  1  0
  3  5  1  0
  4  6  1  0
  5  6  2  0
  4  7  1  0
  6  8  1  0
  7  9  2  0
  8 10  2  0
  9 10  1  0
 10 11  1  0
 11 12  1  0
 11 13  2  0
 12 14  1  0
 13 15  1  0
 14 15  2  0
M  END
