x0962_2_B-x0849_0_A
     RDKit          3D

 20 22  0  0  0  0  0  0  0  0999 V2000
  -11.7500   16.1460    1.7050 N   0  0  0  0  0  0  0  0  0  0  0  0
  -10.7730   15.9370    2.2760 C   0  0  0  0  0  0  0  0  0  0  0  0
   -9.5190   15.6620    2.8530 C   0  0  0  0  0  0  0  0  0  0  0  0
   -9.1440   15.9600    4.1480 N   0  0  0  0  0  0  0  0  0  0  0  0
   -8.5340   15.0640    2.1630 C   0  0  0  0  0  0  0  0  0  0  0  0
   -7.8940   15.5320    4.2200 C   0  0  0  0  0  0  0  0  0  0  0  0
   -7.5180   14.9950    3.0170 N   0  0  0  0  0  0  0  0  0  0  0  0
   -6.2560   14.4390    2.6400 C   0  0  0  0  0  0  0  0  0  0  0  0
   -6.1170   14.4250    1.1350 C   0  0  0  0  0  0  0  0  0  0  0  0
   -4.7160   14.5740    0.6200 C   0  0  0  0  0  0  0  0  0  0  0  0
   -3.6590   14.4940    1.4560 N   0  0  0  0  0  0  0  0  0  0  0  0
   -4.5780   14.7700   -0.7230 C   0  0  0  0  0  0  0  0  0  0  0  0
   -2.4250   14.5860    0.9650 C   0  0  0  0  0  0  0  0  0  0  0  0
   -3.3120   14.8650   -1.2400 C   0  0  0  0  0  0  0  0  0  0  0  0
   -3.2080   15.1150   -3.1180 Br  0  0  0  0  0  0  0  0  0  0  0  0
   -2.1860   14.7660   -0.4050 C   0  0  0  0  0  0  0  0  0  0  0  0
   -1.4310   14.4920    1.8290 N   0  0  0  0  0  0  0  0  0  0  0  0
   -0.1710   14.5590    1.3870 C   0  0  0  0  0  0  0  0  0  0  0  0
   -0.8430   14.8350   -0.8420 C   0  0  0  0  0  0  0  0  0  0  0  0
    0.1830   14.7300    0.0690 C   0  0  0  0  0  0  0  0  0  0  0  0
  1  2  3  0
  2  3  1  0
  3  4  1  0
  3  5  2  0
  4  6  2  0
  5  7  1  0
  6  7  1  0
  7  8  1  0
  8  9  1  0
  9 10  1  0
 10 11  2  0
 10 12  1  0
 11 13  1  0
 12 14  2  0
 14 15  1  0
 13 16  2  0
 14 16  1  0
 13 17  1  0
 17 18  2  0
 16 19  1  0
 18 20  1  0
 19 20  2  0
M  END
