x0969_0_A-x0282_0_A
     RDKit          3D

 17 19  0  0  0  0  0  0  0  0999 V2000
   -7.1590   13.5710    1.9830 N   0  0  0  0  0  0  0  0  0  0  0  0
   -6.7480   14.0730    0.7880 C   0  0  0  0  0  0  0  0  0  0  0  0
   -7.5930   14.3660   -0.2440 N   0  0  0  0  0  0  0  0  0  0  0  0
   -5.5010   14.4000    0.3290 C   0  0  0  0  0  0  0  0  0  0  0  0
   -6.9620   14.8670   -1.3320 N   0  0  0  0  0  0  0  0  0  0  0  0
   -5.6760   14.8900   -0.9650 C   0  0  0  0  0  0  0  0  0  0  0  0
   -4.1990   14.3140    1.0210 C   0  0  2  0  0  0  0  0  0  0  0  0
   -4.6540   15.4590    1.8880 C   0  0  0  0  0  0  0  0  0  0  0  0
   -4.5530   15.3450   -1.7110 C   0  0  0  0  0  0  0  0  0  0  0  0
   -2.8990   14.5150    0.0530 C   0  0  2  0  0  0  0  0  0  0  0  0
   -6.0370   15.2220    2.2790 O   0  0  0  0  0  0  0  0  0  0  0  0
   -3.2810   15.1960   -1.2620 C   0  0  0  0  0  0  0  0  0  0  0  0
   -2.3180   13.2750   -0.4380 N   0  0  0  0  0  0  0  0  0  0  0  0
   -1.8800   15.2580    0.8410 N   0  0  0  0  0  0  0  0  0  0  0  0
   -0.9930   13.4610   -1.0480 C   0  0  0  0  0  0  0  0  0  0  0  0
   -0.5150   15.0150    0.7200 C   0  0  0  0  0  0  0  0  0  0  0  0
   -0.0410   14.1690   -0.1700 C   0  0  0  0  0  0  0  0  0  0  0  0
  1  2  1  0
  2  3  1  0
  2  4  2  0
  3  5  1  0
  4  6  1  0
  5  6  2  0
  4  7  1  0
  7  8  1  1
  6  9  1  0
  7 10  1  0
  8 11  1  0
  9 12  2  0
 10 12  1  6
 10 13  1  0
 10 14  1  0
 13 15  1  0
 14 16  1  0
 15 17  1  0
 16 17  2  0
M  END
