x0969_0_A_α-x0849_0_A_α
     RDKit          3D

 16 18  0  0  0  0  0  0  0  0999 V2000
   -6.6560   14.9290    2.6250 N   0  0  0  0  0  0  0  0  0  0  0  0
   -6.3580   14.8530    1.3260 C   0  0  0  0  0  0  0  0  0  0  0  0
   -7.2810   14.3990    0.4270 N   0  0  0  0  0  0  0  0  0  0  0  0
   -5.2160   15.1690    0.6050 C   0  0  0  0  0  0  0  0  0  0  0  0
   -6.8360   14.3820   -0.8350 N   0  0  0  0  0  0  0  0  0  0  0  0
   -5.5900   14.8430   -0.7190 C   0  0  0  0  0  0  0  0  0  0  0  0
   -3.8540   15.7220    0.9710 C   0  0  0  0  0  0  0  0  0  0  0  0
   -4.7130   14.9830   -1.8870 C   0  0  0  0  0  0  0  0  0  0  0  0
   -2.7670   15.2130   -0.0360 C   0  0  1  0  0  0  0  0  0  0  0  0
   -3.2930   15.4370   -1.5110 C   0  0  1  0  0  0  0  0  0  0  0  0
   -1.3170   15.8980    0.0450 C   0  0  0  0  0  0  0  0  0  0  0  0
   -2.5300   13.8010    0.4840 C   0  0  0  0  0  0  0  0  0  0  0  0
   -2.1240   14.7290   -2.9290 Br  0  0  0  0  0  0  0  0  0  0  0  0
   -1.5730   13.9240    1.5760 N   0  0  0  0  0  0  0  0  0  0  0  0
   -0.1090   15.0460    0.3400 C   0  0  0  0  0  0  0  0  0  0  0  0
   -0.3120   14.0580    1.1580 C   0  0  0  0  0  0  0  0  0  0  0  0
  1  2  1  0
  2  3  1  0
  2  4  2  0
  3  5  1  0
  4  6  1  0
  5  6  2  0
  4  7  1  0
  6  8  1  0
  9  7  1  1
  8 10  1  0
  9 10  1  0
  9 11  1  0
  9 12  1  0
 10 13  1  6
 12 14  1  0
 11 15  1  0
 14 16  1  0
 15 16  2  0
M  END
