x0962_0_A_α-x0574_0_A_α
     RDKit          3D

 14 15  0  0  0  0  0  0  0  0999 V2000
   -2.8060   14.7500   -2.6820 N   0  0  0  0  0  0  0  0  0  0  0  0
   -3.3090   14.4380   -1.6820 C   0  0  0  0  0  0  0  0  0  0  0  0
   -3.8530   14.1260   -0.3590 C   0  0  1  0  0  0  0  0  0  0  0  0
   -3.1080   14.8910    0.7290 C   0  0  1  0  0  0  0  0  0  0  0  0
   -5.3160   14.5610   -0.2920 C   0  0  0  0  0  0  0  0  0  0  0  0
   -4.2080   15.6410    1.5190 C   0  0  0  0  0  0  0  0  0  0  0  0
   -5.5140   15.2200    0.9820 N   0  0  0  0  0  0  0  0  0  0  0  0
   -2.1540   14.1840    1.6510 N   0  0  0  0  0  0  0  0  0  0  0  0
   -2.2840   15.8520   -0.0740 C   0  0  0  0  0  0  0  0  0  0  0  0
   -0.8060   13.9990    1.1260 C   0  0  1  0  0  0  0  0  0  0  0  0
   -0.6100   15.3870    0.0670 S   0  0  0  0  0  0  0  0  0  0  0  0
   -6.5530   14.7340    1.9000 C   0  0  0  0  0  0  0  0  0  0  0  0
    0.1100   14.0370    2.1910 N   0  0  0  0  0  0  0  0  0  0  0  0
   -6.7640   13.2440    2.0320 C   0  0  0  0  0  0  0  0  0  0  0  0
  1  2  3  0
  3  2  1  6
  3  4  1  0
  3  5  1  0
  4  6  1  1
  5  7  1  0
  6  7  1  0
  4  8  1  0
  4  9  1  0
  8 10  1  0
  9 11  2  0
 10 11  1  0
  7 12  1  0
 10 13  1  1
 12 14  1  0
M  END
