x0962_3_A_α-x0681_0_A_α
     RDKit          3D

 24 26  0  0  0  0  0  0  0  0999 V2000
    1.2070   11.1910   -8.7870 N   0  0  0  0  0  0  0  0  0  0  0  0
    0.3100   11.3320   -7.6680 C   0  0  2  0  0  0  0  0  0  0  0  0
    0.9690   11.8030   -6.3500 C   0  0  0  0  0  0  0  0  0  0  0  0
   -0.3430   10.0260   -7.5280 C   0  0  0  0  0  0  0  0  0  0  0  0
    0.5660   13.1850   -5.8020 C   0  0  0  0  0  0  0  0  0  0  0  0
    0.0510    8.9010   -8.2100 N   0  0  0  0  0  0  0  0  0  0  0  0
   -1.4060    9.6360   -6.7670 C   0  0  0  0  0  0  0  0  0  0  0  0
   -0.2990   13.1950   -4.5350 C   0  0  0  0  0  0  0  0  0  0  0  0
   -0.7860    7.8950   -7.8340 C   0  0  0  0  0  0  0  0  0  0  0  0
   -1.6760    8.3130   -6.9630 N   0  0  0  0  0  0  0  0  0  0  0  0
   -1.6670   13.8620   -4.7380 C   0  0  0  0  0  0  0  0  0  0  0  0
   -1.8760   15.1110   -3.8690 C   0  0  0  0  0  0  0  0  0  0  0  0
   -2.2610   14.7390   -2.5050 N   0  0  0  0  0  0  0  0  0  0  0  0
   -3.4470   14.9430   -2.0390 C   0  0  0  0  0  0  0  0  0  0  0  0
   -4.5010   15.5010   -2.7070 N   0  0  0  0  0  0  0  0  0  0  0  0
   -3.7760   14.5460   -0.5870 C   0  0  2  0  0  0  0  0  0  0  0  0
   -4.9650   13.6140   -0.6000 C   0  0  0  0  0  0  0  0  0  0  0  0
   -4.0700   15.7320    0.3370 C   0  0  0  0  0  0  0  0  0  0  0  0
   -5.9000   13.6210    0.3890 N   0  0  0  0  0  0  0  0  0  0  0  0
   -4.5250   15.1970    1.6650 C   0  0  0  0  0  0  0  0  0  0  0  0
   -5.2840   12.7130   -1.4940 N   0  0  0  0  0  0  0  0  0  0  0  0
   -5.8880   14.4940    1.5100 C   0  0  0  0  0  0  0  0  0  0  0  0
   -6.8350   12.6690    0.1280 C   0  0  0  0  0  0  0  0  0  0  0  0
   -6.4310   12.1140   -1.0530 C   0  0  0  0  0  0  0  0  0  0  0  0
  2  1  1  6
  2  3  1  0
  2  4  1  0
  3  5  1  0
  4  6  1  0
  4  7  2  0
  5  8  1  0
  6  9  1  0
  7 10  1  0
  9 10  2  0
  8 11  1  0
 11 12  1  0
 12 13  1  0
 13 14  2  3
 14 15  1  0
 16 14  1  6
 16 17  1  0
 16 18  1  0
 17 19  1  0
 18 20  1  0
 17 21  2  0
 19 22  1  0
 20 22  1  0
 19 23  1  0
 21 24  1  0
 23 24  2  0
M  END
