x0962_2_B-x0681_0_A
     RDKit          3D

 20 22  0  0  0  0  0  0  0  0999 V2000
  -10.7870   16.5440    0.9940 N   0  0  0  0  0  0  0  0  0  0  0  0
  -10.0510   16.2310    1.8300 C   0  0  0  0  0  0  0  0  0  0  0  0
   -9.1560   15.8360    2.8490 C   0  0  0  0  0  0  0  0  0  0  0  0
   -9.2600   16.1810    4.1690 N   0  0  0  0  0  0  0  0  0  0  0  0
   -8.0250   15.0590    2.7580 C   0  0  0  0  0  0  0  0  0  0  0  0
   -7.4190   14.4240    1.5440 C   0  0  0  0  0  0  0  0  0  0  0  0
   -8.2130   15.6050    4.8230 C   0  0  0  0  0  0  0  0  0  0  0  0
   -7.4690   14.9290    3.9980 N   0  0  0  0  0  0  0  0  0  0  0  0
   -5.9420   13.9300    1.5820 C   0  0  1  0  0  0  0  0  0  0  0  0
   -5.6670   13.1210    0.4270 N   0  0  0  0  0  0  0  0  0  0  0  0
   -4.8140   14.9790    1.8210 C   0  0  0  0  0  0  0  0  0  0  0  0
   -4.6590   13.3240   -0.4700 C   0  0  0  0  0  0  0  0  0  0  0  0
   -4.2410   15.5670    0.5320 C   0  0  0  0  0  0  0  0  0  0  0  0
   -6.3710   12.0260    0.0430 C   0  0  0  0  0  0  0  0  0  0  0  0
   -3.6820   14.4530   -0.3600 C   0  0  2  0  0  0  0  0  0  0  0  0
   -4.6930   12.4040   -1.4140 N   0  0  0  0  0  0  0  0  0  0  0  0
   -5.7550   11.5980   -1.0990 C   0  0  0  0  0  0  0  0  0  0  0  0
   -3.3880   14.9130   -1.7860 C   0  0  0  0  0  0  0  0  0  0  0  0
   -4.4410   15.5170   -2.4060 N   0  0  0  0  0  0  0  0  0  0  0  0
   -2.3190   14.7690   -2.3700 O   0  0  0  0  0  0  0  0  0  0  0  0
  1  2  3  0
  2  3  1  0
  3  4  1  0
  3  5  2  0
  5  6  1  0
  4  7  1  0
  5  8  1  0
  7  8  2  0
  9  6  1  6
  9 10  1  0
  9 11  1  0
 10 12  1  0
 11 13  1  0
 10 14  1  0
 12 15  1  0
 13 15  1  0
 12 16  2  0
 14 17  2  0
 16 17  1  0
 15 18  1  6
 18 19  1  0
 18 20  2  0
M  END
