x0962_1_A_α-x0104_0_A_α
     RDKit          3D

 15 16  0  0  0  0  0  0  0  0999 V2000
   -3.2100   14.9370   -0.8810 N   0  0  0  0  0  0  0  0  0  0  0  0
   -4.2070   14.8450   -0.2960 C   0  0  0  0  0  0  0  0  0  0  0  0
   -5.4820   14.7630    0.3160 C   0  0  0  0  0  0  0  0  0  0  0  0
   -5.8210   14.9410    1.6570 N   0  0  0  0  0  0  0  0  0  0  0  0
   -6.6570   14.4940   -0.3200 C   0  0  0  0  0  0  0  0  0  0  0  0
   -7.2110   14.7880    1.7560 C   0  0  0  0  0  0  0  0  0  0  0  0
   -7.6930   14.5100    0.5570 N   0  0  0  0  0  0  0  0  0  0  0  0
   -8.1940   14.8960    2.8660 C   0  0  0  0  0  0  0  0  0  0  0  0
   -7.8430   14.9170    4.2190 N   0  0  0  0  0  0  0  0  0  0  0  0
   -9.3640   14.9950    2.5300 O   0  0  0  0  0  0  0  0  0  0  0  0
   -8.8480   15.0020    5.1970 C   0  0  0  0  0  0  0  0  0  0  0  0
   -8.8610   15.1760    6.5650 C   0  0  0  0  0  0  0  0  0  0  0  0
  -10.4370   14.8590    4.5760 S   0  0  0  0  0  0  0  0  0  0  0  0
  -10.1940   15.1890    7.1000 C   0  0  0  0  0  0  0  0  0  0  0  0
  -11.1520   15.0250    6.1200 C   0  0  0  0  0  0  0  0  0  0  0  0
  1  2  3  0
  2  3  1  0
  3  4  1  0
  3  5  2  0
  4  6  1  0
  5  7  1  0
  6  7  2  0
  6  8  1  0
  8  9  1  0
  8 10  2  0
  9 11  1  0
 11 12  2  0
 11 13  1  0
 12 14  1  0
 13 15  1  0
 14 15  2  0
M  END
