x0962_1_A_α-x0727_0_A_α
     RDKit          3D

 24 25  0  0  0  0  0  0  0  0999 V2000
   -3.7570   15.1290   -1.6420 N   0  0  0  0  0  0  0  0  0  0  0  0
   -3.8620   15.1620   -0.1870 C   0  0  2  0  0  0  0  0  0  0  0  0
   -2.8930   14.1440    0.4640 C   0  0  0  0  0  0  0  0  0  0  0  0
   -5.2890   14.9120    0.1900 C   0  0  0  0  0  0  0  0  0  0  0  0
   -1.4000   14.5680    0.4340 C   0  0  0  0  0  0  0  0  0  0  0  0
   -5.6670   14.6210    1.4820 N   0  0  0  0  0  0  0  0  0  0  0  0
   -6.4870   14.8910   -0.5030 C   0  0  0  0  0  0  0  0  0  0  0  0
   -0.7620   14.4820   -0.9710 C   0  0  0  0  0  0  0  0  0  0  0  0
   -7.0140   14.4470    1.5100 C   0  0  0  0  0  0  0  0  0  0  0  0
   -7.5490   14.6030    0.3210 N   0  0  0  0  0  0  0  0  0  0  0  0
    0.0140   13.1720   -1.1180 C   0  0  0  0  0  0  0  0  0  0  0  0
    0.7610   13.1340   -2.3570 O   0  0  0  0  0  0  0  0  0  0  0  0
    0.5840   12.0240   -3.1390 C   0  0  0  0  0  0  0  0  0  0  0  0
    0.7840   12.3270   -4.6430 C   0  0  1  0  0  0  0  0  0  0  0  0
    0.2970   10.9090   -2.7020 O   0  0  0  0  0  0  0  0  0  0  0  0
    0.0860   11.4460   -5.5830 N   0  0  0  0  0  0  0  0  0  0  0  0
    0.5590   13.8020   -4.9640 C   0  0  0  0  0  0  0  0  0  0  0  0
    0.6700   11.1210   -6.7800 C   0  0  0  0  0  0  0  0  0  0  0  0
    1.6230   11.7290   -7.1920 O   0  0  0  0  0  0  0  0  0  0  0  0
    0.0630    9.9370   -7.5250 C   0  0  0  0  0  0  0  0  0  0  0  0
   -1.2150   10.3030   -8.2850 C   0  0  0  0  0  0  0  0  0  0  0  0
   -0.3060    8.7450   -6.6190 C   0  0  0  0  0  0  0  0  0  0  0  0
   -2.1670    9.1360   -8.0700 C   0  0  0  0  0  0  0  0  0  0  0  0
   -1.8160    8.6100   -6.6920 C   0  0  0  0  0  0  0  0  0  0  0  0
  2  1  1  6
  2  3  1  0
  2  4  1  0
  3  5  1  0
  4  6  1  0
  4  7  2  0
  5  8  1  0
  6  9  1  0
  7 10  1  0
  9 10  2  0
  8 11  1  0
 11 12  1  0
 12 13  1  0
 13 14  1  0
 13 15  2  0
 14 16  1  0
 14 17  1  1
 16 18  1  0
 18 19  2  0
 18 20  1  0
 20 21  1  0
 20 22  1  0
 21 23  1  0
 22 24  1  0
 23 24  1  0
M  END
