x0967_0_A_α-x1018_0_A_α
     RDKit          3D

 10 11  0  0  0  0  0  0  0  0999 V2000
   -7.0950   14.6500   -0.7610 N   0  0  0  0  0  0  0  0  0  0  0  0
   -7.8670   14.5600    0.3430 C   0  0  0  0  0  0  0  0  0  0  0  0
   -7.3830   14.5890    1.6320 C   0  0  0  0  0  0  0  0  0  0  0  0
   -5.7760   14.7740   -0.6210 C   0  0  0  0  0  0  0  0  0  0  0  0
   -5.1870   14.8120    0.6580 C   0  0  0  0  0  0  0  0  0  0  0  0
   -5.0330   14.8620   -1.7210 N   0  0  0  0  0  0  0  0  0  0  0  0
   -6.0090   14.7190    1.7830 C   0  0  0  0  0  0  0  0  0  0  0  0
   -3.6960   14.9850   -1.5920 C   0  0  0  0  0  0  0  0  0  0  0  0
   -3.7960   14.9420    0.7750 C   0  0  0  0  0  0  0  0  0  0  0  0
   -3.0400   15.0270   -0.3780 C   0  0  0  0  0  0  0  0  0  0  0  0
  1  2  2  0
  2  3  1  0
  1  4  1  0
  4  5  2  0
  4  6  1  0
  3  7  2  0
  5  7  1  0
  6  8  2  0
  5  9  1  0
  8 10  1  0
  9 10  2  0
M  END
