x0962_0_A-x0626_0_A
     RDKit          3D

 17 18  0  0  0  0  0  0  0  0999 V2000
   -3.2900   15.6350   -3.9090 N   0  0  0  0  0  0  0  0  0  0  0  0
   -3.9440   15.4940   -2.9700 C   0  0  0  0  0  0  0  0  0  0  0  0
   -4.5750   15.2570   -1.7400 C   0  0  0  0  0  0  0  0  0  0  0  0
   -3.7440   14.9930   -0.8480 N   0  0  0  0  0  0  0  0  0  0  0  0
   -5.8330   15.2180   -1.2260 C   0  0  0  0  0  0  0  0  0  0  0  0
   -4.3040   14.7580    0.2340 C   0  0  0  0  0  0  0  0  0  0  0  0
   -5.6870   14.8620    0.1390 N   0  0  0  0  0  0  0  0  0  0  0  0
   -3.0920   14.5450    0.7590 C   0  0  0  0  0  0  0  0  0  0  0  0
   -6.8660   14.7390    0.8200 C   0  0  0  0  0  0  0  0  0  0  0  0
   -2.3780   14.3890    1.8250 N   0  0  0  0  0  0  0  0  0  0  0  0
   -2.3280   14.4980   -0.7820 S   0  0  0  0  0  0  0  0  0  0  0  0
   -7.8260   14.9200    0.0960 O   0  0  0  0  0  0  0  0  0  0  0  0
   -7.0360   14.4090    2.2480 C   0  0  0  0  0  0  0  0  0  0  0  0
   -0.8950   14.2400   -0.0560 C   0  0  0  0  0  0  0  0  0  0  0  0
   -1.0920   14.2020    1.2790 C   0  0  0  0  0  0  0  0  0  0  0  0
   -8.5320   14.3410    2.4620 C   0  0  0  0  0  0  0  0  0  0  0  0
    0.0470   13.9590    2.0710 C   0  0  0  0  0  0  0  0  0  0  0  0
  1  2  3  0
  2  3  1  0
  3  4  1  0
  3  5  2  0
  4  6  2  0
  5  7  1  0
  6  7  1  0
  6  8  1  0
  7  9  1  0
  8 10  2  0
  8 11  1  0
  9 12  2  0
  9 13  1  0
 11 14  1  0
 10 15  1  0
 14 15  2  0
 13 16  1  0
 15 17  1  0
M  END
