x0962_0_A_α-x0685_1_A_α
     RDKit          3D

 22 23  0  0  0  0  0  0  0  0999 V2000
   -2.9940   15.1950   -2.5510 N   0  0  0  0  0  0  0  0  0  0  0  0
   -2.7160   14.4760   -1.3180 C   0  0  1  0  0  0  0  0  0  0  0  0
   -1.2470   14.6070   -0.8860 C   0  0  0  0  0  0  0  0  0  0  0  0
   -3.7320   14.7750   -0.2770 C   0  0  0  0  0  0  0  0  0  0  0  0
   -0.4480   13.3190   -0.7880 C   0  0  0  0  0  0  0  0  0  0  0  0
   -3.4460   15.2360    0.9780 N   0  0  0  0  0  0  0  0  0  0  0  0
   -5.1050   14.6700   -0.2960 C   0  0  0  0  0  0  0  0  0  0  0  0
    0.6120   13.3390   -1.7210 O   0  0  0  0  0  0  0  0  0  0  0  0
   -4.6180   15.3810    1.6510 C   0  0  0  0  0  0  0  0  0  0  0  0
   -5.6420   15.0400    0.8990 N   0  0  0  0  0  0  0  0  0  0  0  0
    0.8340   12.1690   -2.8030 S   0  0  0  0  0  0  0  0  0  0  0  0
   -0.0270   12.6350   -4.3080 C   0  0  0  0  0  0  0  0  0  0  0  0
    2.3810   12.1900   -3.2000 O   0  0  0  0  0  0  0  0  0  0  0  0
    0.3400   10.7060   -2.3370 O   0  0  0  0  0  0  0  0  0  0  0  0
   -1.4050   11.9920   -4.4270 C   0  0  0  0  0  0  0  0  0  0  0  0
   -1.4080   10.5990   -4.8970 N   0  0  0  0  0  0  0  0  0  0  0  0
   -0.7600   10.3490   -6.1920 C   0  0  0  0  0  0  0  0  0  0  0  0
   -0.5760    8.8480   -6.4720 C   0  0  0  0  0  0  0  0  0  0  0  0
   -1.5930   10.9850   -7.3190 C   0  0  0  0  0  0  0  0  0  0  0  0
    0.0790    8.5770   -7.8280 C   0  0  0  0  0  0  0  0  0  0  0  0
   -0.9990   10.6900   -8.7060 C   0  0  0  0  0  0  0  0  0  0  0  0
   -0.7180    9.2050   -8.9650 C   0  0  0  0  0  0  0  0  0  0  0  0
  2  1  1  6
  2  3  1  0
  2  4  1  0
  3  5  1  0
  4  6  1  0
  4  7  2  0
  5  8  1  0
  6  9  1  0
  7 10  1  0
  9 10  2  0
 11  8  1  0
 11 12  1  0
 11 13  1  0
 11 14  1  0
 12 15  1  0
 15 16  1  0
 16 17  1  0
 17 18  1  0
 17 19  1  0
 18 20  1  0
 19 21  1  0
 20 22  1  0
 21 22  1  0
M  END
