x0967_0_A_α-x0591_0_A_α
     RDKit          3D

 24 26  0  0  0  0  0  0  0  0999 V2000
   -6.4010   12.6120   -0.8190 N   0  0  0  0  0  0  0  0  0  0  0  0
   -6.2740   12.3180    0.6050 C   0  0  0  0  0  0  0  0  0  0  0  0
   -6.1910   13.9900   -1.2530 C   0  0  1  0  0  0  0  0  0  0  0  0
   -7.4590   14.4430   -1.6930 O   0  0  0  0  0  0  0  0  0  0  0  0
   -5.7430   14.9460   -0.3200 N   0  0  0  0  0  0  0  0  0  0  0  0
   -5.1540   14.1030   -2.3000 C   0  0  0  0  0  0  0  0  0  0  0  0
   -6.4110   14.5220    0.8650 C   0  0  2  0  0  0  0  0  0  0  0  0
   -4.3820   15.2730   -0.2480 C   0  0  0  0  0  0  0  0  0  0  0  0
   -3.8370   13.6980   -2.0110 C   0  0  0  0  0  0  0  0  0  0  0  0
   -5.4870   14.6220   -3.5360 C   0  0  0  0  0  0  0  0  0  0  0  0
   -7.8650   14.6370    0.6680 N   0  0  0  0  0  0  0  0  0  0  0  0
   -5.8170   15.1560    2.0790 C   0  0  0  0  0  0  0  0  0  0  0  0
   -3.7730   15.6080    0.8800 C   0  0  0  0  0  0  0  0  0  0  0  0
   -2.8550   13.8260   -2.9610 C   0  0  0  0  0  0  0  0  0  0  0  0
   -4.5200   14.7500   -4.4850 C   0  0  0  0  0  0  0  0  0  0  0  0
   -6.7190   15.1920    3.2200 C   0  0  0  0  0  0  0  0  0  0  0  0
   -8.5500   14.8770    1.7050 C   0  0  0  0  0  0  0  0  0  0  0  0
   -4.5670   15.6570    2.0750 C   0  0  0  0  0  0  0  0  0  0  0  0
   -3.2310   14.3560   -4.1790 C   0  0  0  0  0  0  0  0  0  0  0  0
   -2.1050   14.5820   -5.4580 S   0  0  0  0  0  0  0  0  0  0  0  0
   -8.0370   15.0570    3.0690 C   0  0  0  0  0  0  0  0  0  0  0  0
   -0.9130   15.5270   -4.7290 N   0  0  0  0  0  0  0  0  0  0  0  0
   -1.4970   13.3150   -5.7840 O   0  0  0  0  0  0  0  0  0  0  0  0
   -2.8630   15.3890   -6.3820 O   0  0  0  0  0  0  0  0  0  0  0  0
  1  2  1  0
  1  3  1  0
  3  4  1  6
  3  5  1  0
  3  6  1  0
  5  7  1  0
  5  8  1  0
  6  9  2  0
  6 10  1  0
  7 11  1  6
  7 12  1  0
  8 13  2  0
  9 14  1  0
 10 15  2  0
 12 16  1  0
 11 17  2  0
 12 18  2  0
 13 18  1  0
 14 19  2  0
 15 19  1  0
 19 20  1  0
 16 21  2  0
 17 21  1  0
 20 22  1  0
 20 23  2  0
 20 24  2  0
M  END
