x0962_2_B-x0128_0_A
     RDKit          3D

 22 24  0  0  0  0  0  0  0  0999 V2000
   -9.4700   15.1380    1.1410 N   0  0  0  0  0  0  0  0  0  0  0  0
   -8.7700   15.6250    2.3610 C   0  0  2  0  0  0  0  0  0  0  0  0
   -7.4470   14.9090    2.9470 C   0  0  1  0  0  0  0  0  0  0  0  0
   -9.3970   15.1070    3.5100 C   0  0  0  0  0  0  0  0  0  0  0  0
   -6.1280   15.1310    2.3690 N   0  0  0  0  0  0  0  0  0  0  0  0
   -7.2290   15.4220    4.3200 N   0  0  0  0  0  0  0  0  0  0  0  0
  -10.2150   15.7660    4.3480 N   0  0  0  0  0  0  0  0  0  0  0  0
   -9.2440   13.8460    3.9930 C   0  0  0  0  0  0  0  0  0  0  0  0
  -10.5160   14.8750    5.3210 C   0  0  0  0  0  0  0  0  0  0  0  0
   -9.9400   13.7030    5.1290 N   0  0  0  0  0  0  0  0  0  0  0  0
   -5.7170   15.0680    1.0670 C   0  0  0  0  0  0  0  0  0  0  0  0
   -8.1380   16.0730    5.2130 C   0  0  0  0  0  0  0  0  0  0  0  0
   -6.6420   14.7720    0.0610 C   0  0  0  0  0  0  0  0  0  0  0  0
   -4.3930   15.3080    0.7090 C   0  0  0  0  0  0  0  0  0  0  0  0
   -8.8470   17.2410    4.8490 C   0  0  0  0  0  0  0  0  0  0  0  0
   -8.4050   15.6320    6.5170 C   0  0  0  0  0  0  0  0  0  0  0  0
   -6.2510   14.7260   -1.2740 C   0  0  0  0  0  0  0  0  0  0  0  0
   -3.9970   15.2600   -0.6250 C   0  0  0  0  0  0  0  0  0  0  0  0
   -9.7230   17.9290    5.6280 N   0  0  0  0  0  0  0  0  0  0  0  0
   -9.3020   16.3200    7.3500 C   0  0  0  0  0  0  0  0  0  0  0  0
   -4.9270   14.9710   -1.6150 C   0  0  0  0  0  0  0  0  0  0  0  0
   -9.9290   17.4540    6.8630 C   0  0  0  0  0  0  0  0  0  0  0  0
  2  1  1  6
  2  3  1  0
  2  4  1  0
  3  5  1  6
  3  6  1  0
  4  7  1  0
  4  8  2  0
  7  9  1  0
  8 10  1  0
  9 10  2  0
  5 11  1  0
  6 12  1  0
 11 13  2  0
 11 14  1  0
 12 15  2  0
 12 16  1  0
 13 17  1  0
 14 18  2  0
 15 19  1  0
 16 20  2  0
 17 21  2  0
 18 21  1  0
 19 22  2  0
 20 22  1  0
M  END
