x0969_0_A-x0290_0_A
     RDKit          3D

 22 24  0  0  0  0  0  0  0  0999 V2000
   -6.2900   14.5800    1.6430 N   0  0  0  0  0  0  0  0  0  0  0  0
   -7.3800   14.3040    2.5310 N   0  0  0  0  0  0  0  0  0  0  0  0
   -8.6800   14.5920    1.9160 C   0  0  0  0  0  0  0  0  0  0  0  0
   -5.1280   13.8230    1.7720 C   0  0  0  0  0  0  0  0  0  0  0  0
   -6.6060   14.6640    0.3380 C   0  0  0  0  0  0  0  0  0  0  0  0
   -5.1740   12.5990    1.6910 O   0  0  0  0  0  0  0  0  0  0  0  0
   -3.9010   14.3950    1.9200 N   0  0  0  0  0  0  0  0  0  0  0  0
   -7.7620   14.5030   -0.2710 N   0  0  0  0  0  0  0  0  0  0  0  0
   -5.6320   14.9290   -0.5600 N   0  0  0  0  0  0  0  0  0  0  0  0
   -7.5350   14.6420   -1.6170 N   0  0  0  0  0  0  0  0  0  0  0  0
   -6.2510   14.8800   -1.7760 C   0  0  0  0  0  0  0  0  0  0  0  0
   -4.2800   15.1840   -0.3930 C   0  0  0  0  0  0  0  0  0  0  0  0
   -2.6910   14.3400    1.1850 C   0  0  0  0  0  0  0  0  0  0  0  0
   -5.4370   15.0720   -2.9090 C   0  0  0  0  0  0  0  0  0  0  0  0
   -3.5150   15.3580   -1.4650 C   0  0  0  0  0  0  0  0  0  0  0  0
   -1.6090   14.4380    1.9670 N   0  0  0  0  0  0  0  0  0  0  0  0
   -2.5730   14.2040   -0.1940 C   0  0  0  0  0  0  0  0  0  0  0  0
   -4.1210   15.2960   -2.7670 C   0  0  0  0  0  0  0  0  0  0  0  0
   -0.3960   14.4180    1.3900 C   0  0  0  0  0  0  0  0  0  0  0  0
   -1.2980   14.1850   -0.7850 C   0  0  0  0  0  0  0  0  0  0  0  0
   -1.1490   14.0490   -2.2720 C   0  0  0  0  0  0  0  0  0  0  0  0
   -0.1840   14.2970    0.0350 C   0  0  0  0  0  0  0  0  0  0  0  0
  1  2  1  0
  2  3  1  0
  1  4  1  0
  1  5  1  0
  4  6  2  0
  4  7  1  0
  5  8  2  0
  5  9  1  0
  8 10  1  0
  9 11  1  0
 10 11  2  0
  9 12  1  0
  7 13  1  0
 11 14  1  0
 12 15  2  0
 13 16  2  0
 13 17  1  0
 14 18  2  0
 15 18  1  0
 16 19  1  0
 17 20  2  0
 20 21  1  0
 19 22  2  0
 20 22  1  0
M  END
