x0969_0_A-x0587_0_A
     RDKit          3D

 16 17  0  0  0  0  0  0  0  0999 V2000
   -7.5000   14.8040    2.2360 C   0  0  0  0  0  0  0  0  0  0  0  0
   -6.8910   15.0660    3.4170 N   0  0  0  0  0  0  0  0  0  0  0  0
   -8.7110   14.5930    2.1960 O   0  0  0  0  0  0  0  0  0  0  0  0
   -6.6420   14.8270    0.9240 C   0  0  0  0  0  0  0  0  0  0  0  0
   -7.2130   14.3080   -0.1550 N   0  0  0  0  0  0  0  0  0  0  0  0
   -5.3630   15.4020    0.6510 N   0  0  0  0  0  0  0  0  0  0  0  0
   -6.3000   14.5650   -1.1810 N   0  0  0  0  0  0  0  0  0  0  0  0
   -5.4890   15.6470   -0.7990 C   0  0  2  0  0  0  0  0  0  0  0  0
   -4.1340   15.1460    1.2260 C   0  0  0  0  0  0  0  0  0  0  0  0
   -5.3460   13.6520   -1.7280 C   0  0  0  0  0  0  0  0  0  0  0  0
   -4.1640   15.5840   -1.5120 C   0  0  0  0  0  0  0  0  0  0  0  0
   -2.9940   15.0720    0.5270 C   0  0  0  0  0  0  0  0  0  0  0  0
   -4.2690   13.5090   -0.9080 F   0  0  0  0  0  0  0  0  0  0  0  0
   -4.8490   14.0330   -2.9140 F   0  0  0  0  0  0  0  0  0  0  0  0
   -5.8860   12.4730   -1.9420 F   0  0  0  0  0  0  0  0  0  0  0  0
   -3.0250   15.2900   -0.8960 C   0  0  0  0  0  0  0  0  0  0  0  0
  1  2  1  0
  1  3  2  0
  1  4  1  0
  4  5  2  0
  4  6  1  0
  5  7  1  0
  6  8  1  0
  7  8  1  0
  6  9  1  0
  7 10  1  0
  8 11  1  6
  9 12  2  0
 10 13  1  0
 10 14  1  0
 10 15  1  0
 11 16  2  0
 12 16  1  0
M  END
