x0969_0_A_α-x0587_0_A_α
     RDKit          3D

 16 17  0  0  0  0  0  0  0  0999 V2000
   -7.4990   14.8080    2.2360 C   0  0  0  0  0  0  0  0  0  0  0  0
   -6.8930   15.0690    3.4210 N   0  0  0  0  0  0  0  0  0  0  0  0
   -8.7110   14.5990    2.1930 O   0  0  0  0  0  0  0  0  0  0  0  0
   -6.6440   14.8330    0.9240 C   0  0  0  0  0  0  0  0  0  0  0  0
   -7.2110   14.3120   -0.1540 N   0  0  0  0  0  0  0  0  0  0  0  0
   -5.3640   15.4080    0.6500 N   0  0  0  0  0  0  0  0  0  0  0  0
   -6.2980   14.5690   -1.1810 N   0  0  0  0  0  0  0  0  0  0  0  0
   -5.4880   15.6540   -0.7980 C   0  0  2  0  0  0  0  0  0  0  0  0
   -4.1360   15.1490    1.2260 C   0  0  0  0  0  0  0  0  0  0  0  0
   -5.3430   13.6550   -1.7280 C   0  0  0  0  0  0  0  0  0  0  0  0
   -4.1640   15.5870   -1.5140 C   0  0  0  0  0  0  0  0  0  0  0  0
   -2.9980   15.0680    0.5260 C   0  0  0  0  0  0  0  0  0  0  0  0
   -4.2700   13.5040   -0.9100 F   0  0  0  0  0  0  0  0  0  0  0  0
   -4.8420   14.0330   -2.9150 F   0  0  0  0  0  0  0  0  0  0  0  0
   -5.8880   12.4790   -1.9480 F   0  0  0  0  0  0  0  0  0  0  0  0
   -3.0240   15.2850   -0.8980 C   0  0  0  0  0  0  0  0  0  0  0  0
  1  2  1  0
  1  3  2  0
  1  4  1  0
  4  5  2  0
  4  6  1  0
  5  7  1  0
  6  8  1  0
  7  8  1  0
  6  9  1  0
  7 10  1  0
  8 11  1  6
  9 12  2  0
 10 13  1  0
 10 14  1  0
 10 15  1  0
 11 16  2  0
 12 16  1  0
M  END
