x0962_1_A-x0962_2_B
     RDKit          3D

 15 16  0  0  0  0  0  0  0  0999 V2000
   -3.3660   15.2000   -1.7430 N   0  0  0  0  0  0  0  0  0  0  0  0
   -4.2920   15.0920   -1.0570 C   0  0  0  0  0  0  0  0  0  0  0  0
   -5.4500   14.9140   -0.2430 C   0  0  0  0  0  0  0  0  0  0  0  0
   -5.3500   14.6390    1.0880 N   0  0  0  0  0  0  0  0  0  0  0  0
   -6.7650   14.9850   -0.6420 C   0  0  0  0  0  0  0  0  0  0  0  0
   -6.5920   14.5400    1.5160 C   0  0  0  0  0  0  0  0  0  0  0  0
   -7.4930   14.7460    0.4900 N   0  0  0  0  0  0  0  0  0  0  0  0
   -8.9500   14.7260    0.5720 C   0  0  0  0  0  0  0  0  0  0  0  0
   -9.5660   15.7510    1.5610 C   0  0  1  0  0  0  0  0  0  0  0  0
  -11.0250   15.7970    1.5450 N   0  0  0  0  0  0  0  0  0  0  0  0
   -9.0500   15.4860    2.9250 C   0  0  0  0  0  0  0  0  0  0  0  0
   -9.0540   16.3830    3.9730 N   0  0  0  0  0  0  0  0  0  0  0  0
   -8.4720   14.3510    3.4450 C   0  0  0  0  0  0  0  0  0  0  0  0
   -8.4810   15.7580    5.0450 C   0  0  0  0  0  0  0  0  0  0  0  0
   -8.1260   14.5300    4.7520 N   0  0  0  0  0  0  0  0  0  0  0  0
  1  2  3  0
  2  3  1  0
  3  4  1  0
  3  5  2  0
  4  6  2  0
  5  7  1  0
  6  7  1  0
  7  8  1  0
  8  9  1  0
  9 10  1  1
  9 11  1  0
 11 12  1  0
 11 13  2  0
 12 14  1  0
 13 15  1  0
 14 15  2  0
M  END
