x0969_0_A_α-x0864_0_A_α
     RDKit          3D

 25 27  0  0  0  0  0  0  0  0999 V2000
   -6.7730   14.8560    2.5780 N   0  0  0  0  0  0  0  0  0  0  0  0
   -6.6330   14.8030    1.2410 C   0  0  0  0  0  0  0  0  0  0  0  0
   -7.5970   14.6870    0.3540 N   0  0  0  0  0  0  0  0  0  0  0  0
   -5.4140   14.8730    0.5910 N   0  0  0  0  0  0  0  0  0  0  0  0
   -7.0300   14.6730   -0.9000 N   0  0  0  0  0  0  0  0  0  0  0  0
   -5.7300   14.7760   -0.7500 C   0  0  0  0  0  0  0  0  0  0  0  0
   -4.1070   15.0070    1.0680 C   0  0  0  0  0  0  0  0  0  0  0  0
   -4.6650   14.7800   -1.6800 C   0  0  0  0  0  0  0  0  0  0  0  0
   -3.0960   15.0000    0.1890 C   0  0  0  0  0  0  0  0  0  0  0  0
   -3.3940   14.8570   -1.2370 C   0  0  0  0  0  0  0  0  0  0  0  0
   -2.2440   14.7610   -2.1900 C   0  0  0  0  0  0  0  0  0  0  0  0
   -1.5280   13.4420   -2.0430 C   0  0  0  0  0  0  0  0  0  0  0  0
   -0.1070   13.6150   -1.5180 C   0  0  0  0  0  0  0  0  0  0  0  0
    0.4840   12.3290   -1.7170 N   0  0  0  0  0  0  0  0  0  0  0  0
    0.6890   11.9070   -2.9150 C   0  0  0  0  0  0  0  0  0  0  0  0
    0.3840   12.7060   -4.1880 C   0  0  0  0  0  0  0  0  0  0  0  0
    1.1910   10.7080   -3.1620 O   0  0  0  0  0  0  0  0  0  0  0  0
   -0.3360   11.8830   -5.1700 N   0  0  0  0  0  0  0  0  0  0  0  0
   -1.4190   11.1250   -4.7550 C   0  0  0  0  0  0  0  0  0  0  0  0
    0.3000   11.6350   -6.3840 C   0  0  0  0  0  0  0  0  0  0  0  0
    1.3970   12.0790   -6.6990 O   0  0  0  0  0  0  0  0  0  0  0  0
   -1.9990   10.2390   -5.5730 C   0  0  0  0  0  0  0  0  0  0  0  0
   -0.4100   10.7330   -7.3300 C   0  0  0  0  0  0  0  0  0  0  0  0
   -1.5000   10.0640   -6.9170 C   0  0  0  0  0  0  0  0  0  0  0  0
   -2.4090    8.8660   -8.0200 Br  0  0  0  0  0  0  0  0  0  0  0  0
  1  2  1  0
  2  3  2  0
  2  4  1  0
  3  5  1  0
  4  6  1  0
  5  6  2  0
  4  7  1  0
  6  8  1  0
  7  9  2  0
  8 10  2  0
  9 10  1  0
 10 11  1  0
 11 12  1  0
 12 13  1  0
 13 14  1  0
 14 15  2  3
 15 16  1  0
 15 17  1  0
 16 18  1  0
 18 19  1  0
 18 20  1  0
 20 21  2  0
 19 22  2  0
 20 23  1  0
 22 24  1  0
 23 24  2  0
 24 25  1  0
M  END
