x0962_2_B-x0895_1_A
     RDKit          3D

 15 16  0  0  0  0  0  0  0  0999 V2000
  -10.5100   16.3170    0.7980 N   0  0  0  0  0  0  0  0  0  0  0  0
   -9.7870   15.9960    1.6430 C   0  0  0  0  0  0  0  0  0  0  0  0
   -8.9570   15.6510    2.7380 C   0  0  0  0  0  0  0  0  0  0  0  0
   -9.1280   16.1720    3.9960 N   0  0  0  0  0  0  0  0  0  0  0  0
   -7.8660   14.7940    2.8320 C   0  0  0  0  0  0  0  0  0  0  0  0
   -7.1400   13.9120    1.8350 C   0  0  0  0  0  0  0  0  0  0  0  0
   -8.1740   15.6300    4.8020 C   0  0  0  0  0  0  0  0  0  0  0  0
   -7.4140   14.8050    4.1390 N   0  0  0  0  0  0  0  0  0  0  0  0
   -6.4530   14.5700    0.6870 N   0  0  0  0  0  0  0  0  0  0  0  0
   -5.1610   14.7430    0.5740 C   0  0  0  0  0  0  0  0  0  0  0  0
   -4.5550   15.3040   -0.5110 N   0  0  0  0  0  0  0  0  0  0  0  0
   -4.1730   14.4140    1.4450 N   0  0  0  0  0  0  0  0  0  0  0  0
   -3.1970   14.7790   -0.5720 C   0  0  0  0  0  0  0  0  0  0  0  0
   -2.9310   14.6690    0.9250 C   0  0  0  0  0  0  0  0  0  0  0  0
   -1.8600   14.7810    1.5360 O   0  0  0  0  0  0  0  0  0  0  0  0
  1  2  3  0
  2  3  1  0
  3  4  1  0
  3  5  2  0
  5  6  1  0
  4  7  1  0
  5  8  1  0
  7  8  2  0
  6  9  1  0
  9 10  2  3
 10 11  1  0
 10 12  1  0
 11 13  1  0
 12 14  1  0
 13 14  1  0
 14 15  2  0
M  END
