x0962_1_A-x0587_0_A
     RDKit          3D

 12 12  0  0  0  0  0  0  0  0999 V2000
   -3.3590   15.1550   -0.4110 N   0  0  0  0  0  0  0  0  0  0  0  0
   -4.5270   14.6560   -1.0510 C   0  0  0  0  0  0  0  0  0  0  0  0
   -4.2650   13.3960   -1.4780 F   0  0  0  0  0  0  0  0  0  0  0  0
   -4.7130   15.3840   -2.1760 F   0  0  0  0  0  0  0  0  0  0  0  0
   -5.7580   14.6650   -0.2320 C   0  0  0  0  0  0  0  0  0  0  0  0
   -5.8750   14.7940    1.1540 N   0  0  0  0  0  0  0  0  0  0  0  0
   -7.0510   14.5510   -0.6620 C   0  0  0  0  0  0  0  0  0  0  0  0
   -7.2420   14.7580    1.4680 C   0  0  0  0  0  0  0  0  0  0  0  0
   -7.9350   14.6050    0.3640 N   0  0  0  0  0  0  0  0  0  0  0  0
   -7.9420   14.8750    2.7480 C   0  0  0  0  0  0  0  0  0  0  0  0
   -7.1880   15.0170    3.8730 N   0  0  0  0  0  0  0  0  0  0  0  0
   -9.1680   14.8790    2.8700 O   0  0  0  0  0  0  0  0  0  0  0  0
  1  2  1  0
  2  3  1  0
  2  4  1  0
  2  5  1  0
  5  6  1  0
  5  7  2  0
  6  8  1  0
  7  9  1  0
  8  9  2  0
  8 10  1  0
 10 11  1  0
 10 12  2  0
M  END
