x0962_2_B-x0724_0_A
     RDKit          3D

 21 23  0  0  0  0  0  0  0  0999 V2000
  -10.6880   16.3360    1.0150 N   0  0  0  0  0  0  0  0  0  0  0  0
  -10.1420   16.2560    2.0330 C   0  0  0  0  0  0  0  0  0  0  0  0
   -9.4620   16.1000    3.2620 C   0  0  0  0  0  0  0  0  0  0  0  0
   -9.3790   17.0160    4.2630 N   0  0  0  0  0  0  0  0  0  0  0  0
   -8.7520   15.0350    3.7200 C   0  0  0  0  0  0  0  0  0  0  0  0
   -8.5010   13.7660    3.0490 C   0  0  2  0  0  0  0  0  0  0  0  0
   -8.6340   16.4680    5.2610 C   0  0  0  0  0  0  0  0  0  0  0  0
   -8.2400   15.2690    4.9690 N   0  0  0  0  0  0  0  0  0  0  0  0
   -7.6980   12.9620    3.9770 N   0  0  0  0  0  0  0  0  0  0  0  0
   -7.7830   14.1450    1.8110 C   0  0  0  0  0  0  0  0  0  0  0  0
   -8.1720   13.0480    5.3590 C   0  0  0  0  0  0  0  0  0  0  0  0
   -6.4530   14.0770    1.5360 C   0  0  0  0  0  0  0  0  0  0  0  0
   -8.3260   14.6770    0.6280 C   0  0  0  0  0  0  0  0  0  0  0  0
   -7.4060   14.9230   -0.3020 N   0  0  0  0  0  0  0  0  0  0  0  0
   -6.2460   14.5480    0.2840 N   0  0  0  0  0  0  0  0  0  0  0  0
   -4.9950   14.6430   -0.3440 C   0  0  0  0  0  0  0  0  0  0  0  0
   -3.8500   14.7170    0.4630 C   0  0  0  0  0  0  0  0  0  0  0  0
   -4.8810   14.6590   -1.7310 C   0  0  0  0  0  0  0  0  0  0  0  0
   -2.5910   14.8020   -0.1250 C   0  0  0  0  0  0  0  0  0  0  0  0
   -3.6180   14.7460   -2.3140 C   0  0  0  0  0  0  0  0  0  0  0  0
   -2.4820   14.8150   -1.5150 C   0  0  0  0  0  0  0  0  0  0  0  0
  1  2  3  0
  2  3  1  0
  3  4  1  0
  3  5  2  0
  5  6  1  0
  4  7  1  0
  5  8  1  0
  7  8  2  0
  6  9  1  1
  6 10  1  0
  9 11  1  0
 10 12  2  0
 10 13  1  0
 13 14  2  0
 12 15  1  0
 14 15  1  0
 15 16  1  0
 16 17  2  0
 16 18  1  0
 17 19  1  0
 18 20  2  0
 19 21  2  0
 20 21  1  0
M  END
