x0962_3_A-x0950_1_A
     RDKit          3D

 14 14  0  0  0  0  0  0  0  0999 V2000
    1.1930   11.1400   -9.0630 N   0  0  0  0  0  0  0  0  0  0  0  0
    0.4040   11.2860   -7.8520 C   0  0  2  0  0  0  0  0  0  0  0  0
    1.2060   11.8680   -6.6580 C   0  0  0  0  0  0  0  0  0  0  0  0
   -0.2600    9.9950   -7.6150 C   0  0  0  0  0  0  0  0  0  0  0  0
    0.6960   11.6570   -5.3520 O   0  0  0  0  0  0  0  0  0  0  0  0
    0.1330    8.8300   -8.2290 N   0  0  0  0  0  0  0  0  0  0  0  0
   -1.3220    9.6380   -6.8290 C   0  0  0  0  0  0  0  0  0  0  0  0
    1.2930   12.4450   -4.3350 C   0  0  1  0  0  0  0  0  0  0  0  0
   -0.6950    7.8420   -7.7950 C   0  0  0  0  0  0  0  0  0  0  0  0
   -1.5860    8.3040   -6.9470 N   0  0  0  0  0  0  0  0  0  0  0  0
    0.9320   13.9010   -4.6310 C   0  0  0  0  0  0  0  0  0  0  0  0
    0.9220   12.0770   -2.8890 C   0  0  0  0  0  0  0  0  0  0  0  0
    0.3010   11.0780   -2.5850 O   0  0  0  0  0  0  0  0  0  0  0  0
    1.3460   12.9610   -1.9610 O   0  0  0  0  0  0  0  0  0  0  0  0
  2  1  1  6
  2  3  1  0
  2  4  1  0
  3  5  1  0
  4  6  1  0
  4  7  2  0
  5  8  1  0
  6  9  1  0
  7 10  1  0
  9 10  2  0
  8 11  1  6
  8 12  1  0
 12 13  2  0
 12 14  1  0
M  END
