x0967_0_A-x0895_0_A
     RDKit          3D

 11 12  0  0  0  0  0  0  0  0999 V2000
   -2.6510   14.7880    1.7470 O   0  0  0  0  0  0  0  0  0  0  0  0
   -3.4030   14.8350    0.7450 C   0  0  0  0  0  0  0  0  0  0  0  0
   -4.8970   14.7750    0.7050 C   0  0  0  0  0  0  0  0  0  0  0  0
   -2.8170   14.9410   -0.5980 C   0  0  0  0  0  0  0  0  0  0  0  0
   -5.5920   14.7300   -0.6250 C   0  0  0  0  0  0  0  0  0  0  0  0
   -5.6980   14.7540    1.7840 C   0  0  0  0  0  0  0  0  0  0  0  0
   -3.5870   14.9210   -1.6900 C   0  0  0  0  0  0  0  0  0  0  0  0
   -6.9690   14.6050   -0.6590 N   0  0  0  0  0  0  0  0  0  0  0  0
   -7.1550   14.6580    1.6850 C   0  0  0  0  0  0  0  0  0  0  0  0
   -4.9450   14.8030   -1.7490 N   0  0  0  0  0  0  0  0  0  0  0  0
   -7.7270   14.5870    0.4770 C   0  0  0  0  0  0  0  0  0  0  0  0
  1  2  2  0
  2  3  1  0
  2  4  1  0
  3  5  1  0
  3  6  2  0
  4  7  2  0
  5  8  1  0
  6  9  1  0
  5 10  2  0
  7 10  1  0
  8 11  1  0
  9 11  2  0
M  END
