x0969_0_A_α-x0685_1_A_α
     RDKit          3D

 25 27  0  0  0  0  0  0  0  0999 V2000
   -6.7890   14.8600    2.4990 N   0  0  0  0  0  0  0  0  0  0  0  0
   -6.5630   14.8030    1.1680 C   0  0  0  0  0  0  0  0  0  0  0  0
   -7.4660   14.7200    0.2160 N   0  0  0  0  0  0  0  0  0  0  0  0
   -5.3020   14.8320    0.6070 N   0  0  0  0  0  0  0  0  0  0  0  0
   -6.8120   14.6860   -0.9960 N   0  0  0  0  0  0  0  0  0  0  0  0
   -5.5180   14.7430   -0.7580 C   0  0  0  0  0  0  0  0  0  0  0  0
   -4.0360   14.9210    1.1830 C   0  0  0  0  0  0  0  0  0  0  0  0
   -4.3730   14.7060   -1.6050 C   0  0  0  0  0  0  0  0  0  0  0  0
   -2.9600   14.8760    0.3920 C   0  0  0  0  0  0  0  0  0  0  0  0
   -3.1340   14.7390   -1.0480 C   0  0  0  0  0  0  0  0  0  0  0  0
   -1.8680   14.5960   -1.8500 C   0  0  0  0  0  0  0  0  0  0  0  0
   -1.2610   13.2230   -1.5520 C   0  0  0  0  0  0  0  0  0  0  0  0
    0.1300   13.2290   -1.8520 O   0  0  0  0  0  0  0  0  0  0  0  0
    0.7120   12.1460   -2.8860 S   0  0  0  0  0  0  0  0  0  0  0  0
    0.0560   12.5350   -4.5130 C   0  0  0  0  0  0  0  0  0  0  0  0
    2.3010   12.2760   -3.0300 O   0  0  0  0  0  0  0  0  0  0  0  0
    0.2760   10.6400   -2.4880 O   0  0  0  0  0  0  0  0  0  0  0  0
   -1.3560   12.0040   -4.7370 C   0  0  0  0  0  0  0  0  0  0  0  0
   -1.4140   10.5490   -4.9420 N   0  0  0  0  0  0  0  0  0  0  0  0
   -1.4510   10.0400   -6.3270 C   0  0  0  0  0  0  0  0  0  0  0  0
   -0.2010    9.2390   -6.6910 C   0  0  0  0  0  0  0  0  0  0  0  0
   -1.5970   11.1960   -7.3300 C   0  0  0  0  0  0  0  0  0  0  0  0
   -0.3560    8.4930   -8.0020 C   0  0  0  0  0  0  0  0  0  0  0  0
   -1.1050   10.8030   -8.7270 C   0  0  0  0  0  0  0  0  0  0  0  0
   -1.1920    9.2950   -8.9870 C   0  0  0  0  0  0  0  0  0  0  0  0
  1  2  1  0
  2  3  2  0
  2  4  1  0
  3  5  1  0
  4  6  1  0
  5  6  2  0
  4  7  1  0
  6  8  1  0
  7  9  2  0
  8 10  2  0
  9 10  1  0
 10 11  1  0
 11 12  1  0
 12 13  1  0
 14 13  1  0
 14 15  1  0
 14 16  1  0
 14 17  1  0
 15 18  1  0
 18 19  1  0
 19 20  1  0
 20 21  1  0
 20 22  1  0
 21 23  1  0
 22 24  1  0
 23 25  1  0
 24 25  1  0
M  END
