x0969_0_A-x0727_0_A
     RDKit          3D

 26 28  0  0  0  0  0  0  0  0999 V2000
   -6.7730   14.7700    2.4870 N   0  0  0  0  0  0  0  0  0  0  0  0
   -6.5410   14.7690    1.1540 C   0  0  0  0  0  0  0  0  0  0  0  0
   -7.4260   14.5930    0.2020 N   0  0  0  0  0  0  0  0  0  0  0  0
   -5.2890   14.9690    0.5910 N   0  0  0  0  0  0  0  0  0  0  0  0
   -6.7760   14.6690   -1.0140 N   0  0  0  0  0  0  0  0  0  0  0  0
   -5.5000   14.8890   -0.7750 C   0  0  0  0  0  0  0  0  0  0  0  0
   -4.0360   15.2020    1.1580 C   0  0  0  0  0  0  0  0  0  0  0  0
   -4.3680   15.0400   -1.6290 C   0  0  0  0  0  0  0  0  0  0  0  0
   -2.9670   15.3380    0.3580 C   0  0  0  0  0  0  0  0  0  0  0  0
   -3.1330   15.2440   -1.0910 C   0  0  0  0  0  0  0  0  0  0  0  0
   -1.8800   15.3720   -1.9290 C   0  0  0  0  0  0  0  0  0  0  0  0
   -0.6550   14.5660   -1.4190 C   0  0  0  0  0  0  0  0  0  0  0  0
    0.4600   14.3690   -2.4520 C   0  0  0  0  0  0  0  0  0  0  0  0
    1.0890   13.0780   -2.3070 O   0  0  0  0  0  0  0  0  0  0  0  0
    0.7650   12.1020   -3.2030 C   0  0  0  0  0  0  0  0  0  0  0  0
    1.0950   12.5190   -4.6500 C   0  0  1  0  0  0  0  0  0  0  0  0
    0.2730   11.0180   -2.8920 O   0  0  0  0  0  0  0  0  0  0  0  0
    0.1460   11.8470   -5.5140 N   0  0  0  0  0  0  0  0  0  0  0  0
    0.9890   14.0170   -4.8780 C   0  0  0  0  0  0  0  0  0  0  0  0
    0.4930   11.1740   -6.6450 C   0  0  0  0  0  0  0  0  0  0  0  0
    1.5180   11.3690   -7.2780 O   0  0  0  0  0  0  0  0  0  0  0  0
   -0.5480   10.1440   -7.0050 C   0  0  0  0  0  0  0  0  0  0  0  0
   -1.0140   10.0840   -8.4420 C   0  0  0  0  0  0  0  0  0  0  0  0
   -0.2040    8.6940   -6.7140 C   0  0  0  0  0  0  0  0  0  0  0  0
   -1.9560    8.8800   -8.3900 C   0  0  0  0  0  0  0  0  0  0  0  0
   -1.4610    8.0090   -7.2190 C   0  0  0  0  0  0  0  0  0  0  0  0
  1  2  1  0
  2  3  2  0
  2  4  1  0
  3  5  1  0
  4  6  1  0
  5  6  2  0
  4  7  1  0
  6  8  1  0
  7  9  2  0
  8 10  2  0
  9 10  1  0
 10 11  1  0
 11 12  1  0
 12 13  1  0
 13 14  1  0
 14 15  1  0
 15 16  1  0
 15 17  2  0
 16 18  1  0
 16 19  1  1
 18 20  1  0
 20 21  2  0
 20 22  1  0
 22 23  1  0
 22 24  1  0
 23 25  1  0
 24 26  1  0
 25 26  1  0
M  END
