x0969_0_A-x0685_1_A
     RDKit          3D

 25 27  0  0  0  0  0  0  0  0999 V2000
   -6.8060   14.8300    2.4960 N   0  0  0  0  0  0  0  0  0  0  0  0
   -6.5760   14.7920    1.1700 C   0  0  0  0  0  0  0  0  0  0  0  0
   -7.4770   14.7200    0.2120 N   0  0  0  0  0  0  0  0  0  0  0  0
   -5.3110   14.8290    0.6090 N   0  0  0  0  0  0  0  0  0  0  0  0
   -6.8180   14.7000   -0.9970 N   0  0  0  0  0  0  0  0  0  0  0  0
   -5.5260   14.7540   -0.7560 C   0  0  0  0  0  0  0  0  0  0  0  0
   -4.0470   14.9110    1.1890 C   0  0  0  0  0  0  0  0  0  0  0  0
   -4.3800   14.7230   -1.5990 C   0  0  0  0  0  0  0  0  0  0  0  0
   -2.9700   14.8730    0.4000 C   0  0  0  0  0  0  0  0  0  0  0  0
   -3.1430   14.7460   -1.0470 C   0  0  0  0  0  0  0  0  0  0  0  0
   -1.8760   14.6060   -1.8430 C   0  0  0  0  0  0  0  0  0  0  0  0
   -1.2860   13.2210   -1.5750 C   0  0  0  0  0  0  0  0  0  0  0  0
    0.1090   13.2310   -1.8450 O   0  0  0  0  0  0  0  0  0  0  0  0
    0.7040   12.1480   -2.8700 S   0  0  0  0  0  0  0  0  0  0  0  0
    0.0680   12.5410   -4.5040 C   0  0  0  0  0  0  0  0  0  0  0  0
    2.2930   12.2760   -2.9940 O   0  0  0  0  0  0  0  0  0  0  0  0
    0.2690   10.6440   -2.4720 O   0  0  0  0  0  0  0  0  0  0  0  0
   -1.3470   12.0170   -4.7430 C   0  0  0  0  0  0  0  0  0  0  0  0
   -1.4130   10.5620   -4.9410 N   0  0  0  0  0  0  0  0  0  0  0  0
   -1.4460   10.0450   -6.3240 C   0  0  0  0  0  0  0  0  0  0  0  0
   -0.1980    9.2430   -6.6820 C   0  0  0  0  0  0  0  0  0  0  0  0
   -1.5870   11.1980   -7.3300 C   0  0  0  0  0  0  0  0  0  0  0  0
   -0.3480    8.4910   -7.9890 C   0  0  0  0  0  0  0  0  0  0  0  0
   -1.0980   10.7970   -8.7260 C   0  0  0  0  0  0  0  0  0  0  0  0
   -1.1870    9.2890   -8.9790 C   0  0  0  0  0  0  0  0  0  0  0  0
  1  2  1  0
  2  3  2  0
  2  4  1  0
  3  5  1  0
  4  6  1  0
  5  6  2  0
  4  7  1  0
  6  8  1  0
  7  9  2  0
  8 10  2  0
  9 10  1  0
 10 11  1  0
 11 12  1  0
 12 13  1  0
 14 13  1  0
 14 15  1  0
 14 16  1  0
 14 17  1  0
 15 18  1  0
 18 19  1  0
 19 20  1  0
 20 21  1  0
 20 22  1  0
 21 23  1  0
 22 24  1  0
 23 25  1  0
 24 25  1  0
M  END
