x0969_0_A_α-x0900_1_A_α
     RDKit          3D

 21 23  0  0  0  0  0  0  0  0999 V2000
   -6.6630   14.8500    2.4660 N   0  0  0  0  0  0  0  0  0  0  0  0
   -6.5200   14.7920    1.1280 C   0  0  0  0  0  0  0  0  0  0  0  0
   -7.5050   14.7200    0.2630 N   0  0  0  0  0  0  0  0  0  0  0  0
   -5.3030   14.8010    0.4460 N   0  0  0  0  0  0  0  0  0  0  0  0
   -6.9690   14.6740   -1.0010 N   0  0  0  0  0  0  0  0  0  0  0  0
   -5.6610   14.7150   -0.8870 C   0  0  0  0  0  0  0  0  0  0  0  0
   -3.9670   14.8670    0.8710 C   0  0  0  0  0  0  0  0  0  0  0  0
   -4.6270   14.6640   -1.8570 C   0  0  0  0  0  0  0  0  0  0  0  0
   -2.9830   14.8100   -0.0540 C   0  0  0  0  0  0  0  0  0  0  0  0
   -3.3310   14.6810   -1.4800 C   0  0  0  0  0  0  0  0  0  0  0  0
   -2.2220   14.5360   -2.5160 C   0  0  0  0  0  0  0  0  0  0  0  0
   -2.5920   13.5010   -3.6090 C   0  0  0  0  0  0  0  0  0  0  0  0
   -1.5700   12.3520   -3.7950 C   0  0  0  0  0  0  0  0  0  0  0  0
   -2.0450   11.3550   -4.8790 C   0  0  0  0  0  0  0  0  0  0  0  0
   -1.0110   10.2520   -5.2310 C   0  0  0  0  0  0  0  0  0  0  0  0
   -1.4840    9.1370   -6.2120 C   0  0  1  0  0  0  0  0  0  0  0  0
   -2.0500    9.6660   -7.5440 C   0  0  0  0  0  0  0  0  0  0  0  0
   -0.3900    8.1820   -6.6840 C   0  0  0  0  0  0  0  0  0  0  0  0
    0.0850    8.7810   -7.8930 N   0  0  0  0  0  0  0  0  0  0  0  0
   -0.9110    9.4970   -8.5230 C   0  0  0  0  0  0  0  0  0  0  0  0
   -0.8690    9.9090   -9.6690 O   0  0  0  0  0  0  0  0  0  0  0  0
  1  2  1  0
  2  3  2  0
  2  4  1  0
  3  5  1  0
  4  6  1  0
  5  6  2  0
  4  7  1  0
  6  8  1  0
  7  9  2  0
  8 10  2  0
  9 10  1  0
 10 11  1  0
 11 12  1  0
 12 13  1  0
 13 14  1  0
 14 15  1  0
 16 15  1  1
 16 17  1  0
 16 18  1  0
 18 19  1  0
 17 20  1  0
 19 20  1  0
 20 21  2  0
M  END
