x0962_2_B_α-x0371_0_A_α
     RDKit          3D

 14 15  0  0  0  0  0  0  0  0999 V2000
  -11.2850   15.7360    1.7740 N   0  0  0  0  0  0  0  0  0  0  0  0
  -10.5170   16.1020    2.9770 C   0  0  1  0  0  0  0  0  0  0  0  0
  -11.0670   15.5000    4.3270 C   0  0  1  0  0  0  0  0  0  0  0  0
   -9.1570   15.5600    2.8680 C   0  0  0  0  0  0  0  0  0  0  0  0
  -11.4410   14.0680    4.1510 N   0  0  0  0  0  0  0  0  0  0  0  0
   -8.2760   15.7880    3.8790 N   0  0  0  0  0  0  0  0  0  0  0  0
   -8.4620   14.8110    1.9530 C   0  0  0  0  0  0  0  0  0  0  0  0
  -10.0280   15.5430    5.4230 C   0  0  0  0  0  0  0  0  0  0  0  0
   -7.1180   15.1910    3.5590 C   0  0  0  0  0  0  0  0  0  0  0  0
   -7.1870   14.5840    2.3890 N   0  0  0  0  0  0  0  0  0  0  0  0
   -9.2110   14.4470    5.5360 O   0  0  0  0  0  0  0  0  0  0  0  0
   -9.6880   16.4710    6.3880 C   0  0  0  0  0  0  0  0  0  0  0  0
   -8.3560   14.6810    6.5680 C   0  0  0  0  0  0  0  0  0  0  0  0
   -8.6150   15.9090    7.1230 C   0  0  0  0  0  0  0  0  0  0  0  0
  2  1  1  6
  2  3  1  0
  2  4  1  0
  3  5  1  6
  4  6  1  0
  4  7  2  0
  3  8  1  0
  6  9  1  0
  7 10  1  0
  9 10  2  0
  8 11  1  0
  8 12  2  0
 11 13  1  0
 12 14  1  0
 13 14  2  0
M  END
