x0962_3_A-x0159_0_B
     RDKit          3D

 26 29  0  0  0  0  0  0  0  0999 V2000
    1.8600   11.2550   -7.6170 N   0  0  0  0  0  0  0  0  0  0  0  0
    0.6710   10.9180   -8.3910 C   0  0  1  0  0  0  0  0  0  0  0  0
    0.8990   10.5350   -9.8750 C   0  0  0  0  0  0  0  0  0  0  0  0
   -0.1940    9.9350   -7.7310 C   0  0  0  0  0  0  0  0  0  0  0  0
    1.5960    9.2500  -10.1900 N   0  0  0  0  0  0  0  0  0  0  0  0
   -0.3620    8.7040   -8.2850 N   0  0  0  0  0  0  0  0  0  0  0  0
   -0.9630    9.9190   -6.6000 C   0  0  0  0  0  0  0  0  0  0  0  0
    1.8330    8.1990   -9.1830 C   0  0  0  0  0  0  0  0  0  0  0  0
   -1.2060    7.9990   -7.4920 C   0  0  0  0  0  0  0  0  0  0  0  0
   -1.5920    8.7080   -6.4590 N   0  0  0  0  0  0  0  0  0  0  0  0
    2.3600    9.4180  -11.2790 C   0  0  0  0  0  0  0  0  0  0  0  0
    1.0490    6.9070   -9.4770 C   0  0  0  0  0  0  0  0  0  0  0  0
    2.2240   10.5700  -11.9970 N   0  0  0  0  0  0  0  0  0  0  0  0
    3.2730    8.6350  -11.8050 N   0  0  0  0  0  0  0  0  0  0  0  0
    3.7420    9.3320  -12.8970 C   0  0  0  0  0  0  0  0  0  0  0  0
    3.0910   10.5490  -13.0310 C   0  0  0  0  0  0  0  0  0  0  0  0
    1.4360    5.7370   -8.6140 C   0  0  0  0  0  0  0  0  0  0  0  0
    2.3510    4.8000   -9.0970 C   0  0  0  0  0  0  0  0  0  0  0  0
    0.8930    5.5700   -7.3360 C   0  0  0  0  0  0  0  0  0  0  0  0
    3.3440   11.4760  -14.0320 C   0  0  0  0  0  0  0  0  0  0  0  0
    4.7290    8.9960  -13.8270 C   0  0  0  0  0  0  0  0  0  0  0  0
    2.7210    3.7140   -8.3220 C   0  0  0  0  0  0  0  0  0  0  0  0
    1.2690    4.4810   -6.5660 C   0  0  0  0  0  0  0  0  0  0  0  0
    4.3310   11.1290  -14.9500 C   0  0  0  0  0  0  0  0  0  0  0  0
    5.0130    9.9110  -14.8510 C   0  0  0  0  0  0  0  0  0  0  0  0
    2.1850    3.5550   -7.0610 C   0  0  0  0  0  0  0  0  0  0  0  0
  2  1  1  1
  2  3  1  0
  2  4  1  0
  3  5  1  0
  4  6  1  0
  4  7  2  0
  5  8  1  0
  6  9  1  0
  7 10  1  0
  9 10  2  0
  5 11  1  0
  8 12  1  0
 11 13  1  0
 11 14  2  0
 14 15  1  0
 13 16  1  0
 15 16  2  0
 12 17  1  0
 17 18  2  0
 17 19  1  0
 16 20  1  0
 15 21  1  0
 18 22  1  0
 19 23  2  0
 20 24  2  0
 21 25  2  0
 24 25  1  0
 22 26  2  0
 23 26  1  0
M  END
