x0969_0_A_α-x0950_1_A_α
     RDKit          3D

 19 20  0  0  0  0  0  0  0  0999 V2000
   -6.7420   14.8380    2.5520 N   0  0  0  0  0  0  0  0  0  0  0  0
   -6.5030   14.7740    1.2170 C   0  0  0  0  0  0  0  0  0  0  0  0
   -7.4080   14.6980    0.2650 N   0  0  0  0  0  0  0  0  0  0  0  0
   -5.2410   14.7870    0.6420 N   0  0  0  0  0  0  0  0  0  0  0  0
   -6.7630   14.6500   -0.9510 N   0  0  0  0  0  0  0  0  0  0  0  0
   -5.4680   14.6940   -0.7230 C   0  0  0  0  0  0  0  0  0  0  0  0
   -3.9680   14.8630    1.1980 C   0  0  0  0  0  0  0  0  0  0  0  0
   -4.3350   14.6410   -1.5860 C   0  0  0  0  0  0  0  0  0  0  0  0
   -2.8930   14.8020    0.3930 C   0  0  0  0  0  0  0  0  0  0  0  0
   -3.0810   14.6620   -1.0590 C   0  0  0  0  0  0  0  0  0  0  0  0
   -1.8250   14.5170   -1.9040 C   0  0  0  0  0  0  0  0  0  0  0  0
   -0.5790   14.1790   -1.0590 C   0  0  0  0  0  0  0  0  0  0  0  0
    0.7360   14.2770   -1.8360 C   0  0  0  0  0  0  0  0  0  0  0  0
    1.3510   12.9830   -2.0360 O   0  0  0  0  0  0  0  0  0  0  0  0
    0.8620   12.1520   -3.0000 C   0  0  0  0  0  0  0  0  0  0  0  0
    1.3260   12.5410   -4.4150 C   0  0  2  0  0  0  0  0  0  0  0  0
    0.1460   11.1810   -2.7840 O   0  0  0  0  0  0  0  0  0  0  0  0
    1.0330   13.9900   -4.7600 C   0  0  0  0  0  0  0  0  0  0  0  0
    0.6820   11.7250   -5.3980 O   0  0  0  0  0  0  0  0  0  0  0  0
  1  2  1  0
  2  3  2  0
  2  4  1  0
  3  5  1  0
  4  6  1  0
  5  6  2  0
  4  7  1  0
  6  8  1  0
  7  9  2  0
  8 10  2  0
  9 10  1  0
 10 11  1  0
 11 12  1  0
 12 13  1  0
 13 14  1  0
 14 15  1  0
 15 16  1  0
 15 17  2  0
 16 18  1  6
 16 19  1  0
M  END
