x0962_0_A-x0837_0_A
     RDKit          3D

  8  8  0  0  0  0  0  0  0  0999 V2000
   -2.1480   14.8110   -2.1270 N   0  0  0  0  0  0  0  0  0  0  0  0
   -2.9690   14.8710   -1.3160 C   0  0  0  0  0  0  0  0  0  0  0  0
   -4.0140   14.8780   -0.3490 C   0  0  0  0  0  0  0  0  0  0  0  0
   -3.7890   14.9110    1.0230 N   0  0  0  0  0  0  0  0  0  0  0  0
   -5.3700   14.8470   -0.6610 C   0  0  0  0  0  0  0  0  0  0  0  0
   -5.0320   14.8960    1.5750 C   0  0  0  0  0  0  0  0  0  0  0  0
   -6.0230   14.8540    0.5090 N   0  0  0  0  0  0  0  0  0  0  0  0
   -7.2550   14.8320    0.7520 O   0  0  0  0  0  0  0  0  0  0  0  0
  1  2  3  0
  2  3  1  0
  3  4  1  0
  3  5  2  0
  4  6  1  0
  5  7  1  0
  6  7  2  0
  7  8  1  0
M  CHG  2   7   1   8  -1
M  END
