x0967_0_A_α-x0722_0_A_α
     RDKit          3D

 22 24  0  0  0  0  0  0  0  0999 V2000
   -4.6860   13.3920    1.8370 C   0  0  0  0  0  0  0  0  0  0  0  0
   -3.4960   13.7560    1.0470 C   0  0  0  0  0  0  0  0  0  0  0  0
   -2.3390   13.9760    1.6690 N   0  0  0  0  0  0  0  0  0  0  0  0
   -3.3900   13.9220   -0.3620 C   0  0  0  0  0  0  0  0  0  0  0  0
   -4.5330   13.7910   -1.3650 C   0  0  1  0  0  0  0  0  0  0  0  0
   -2.0520   14.2420   -0.5550 C   0  0  0  0  0  0  0  0  0  0  0  0
   -1.4870   14.2590    0.6930 N   0  0  0  0  0  0  0  0  0  0  0  0
   -0.1240   14.5400    1.0350 C   0  0  0  0  0  0  0  0  0  0  0  0
   -1.2750   14.5340   -1.7840 C   0  0  0  0  0  0  0  0  0  0  0  0
   -5.7220   12.8130   -1.1800 C   0  0  0  0  0  0  0  0  0  0  0  0
   -5.1450   15.0790   -1.2550 N   0  0  0  0  0  0  0  0  0  0  0  0
   -6.7990   12.9680   -1.7640 O   0  0  0  0  0  0  0  0  0  0  0  0
   -5.6010   11.7580   -0.3340 N   0  0  0  0  0  0  0  0  0  0  0  0
   -6.2770   14.7900   -0.3570 C   0  0  2  0  0  0  0  0  0  0  0  0
   -4.1500   15.8940   -0.8060 C   0  0  0  0  0  0  0  0  0  0  0  0
   -7.6030   15.3330   -0.6390 N   0  0  0  0  0  0  0  0  0  0  0  0
   -5.8830   14.9700    1.0970 C   0  0  0  0  0  0  0  0  0  0  0  0
   -3.9200   16.1500    0.4940 C   0  0  0  0  0  0  0  0  0  0  0  0
   -6.8550   14.4130    2.0010 C   0  0  0  0  0  0  0  0  0  0  0  0
   -8.4260   15.1560    0.3400 C   0  0  0  0  0  0  0  0  0  0  0  0
   -4.7670   15.5950    1.4870 C   0  0  0  0  0  0  0  0  0  0  0  0
   -8.1410   14.4930    1.6440 C   0  0  0  0  0  0  0  0  0  0  0  0
  1  2  1  0
  2  3  2  0
  2  4  1  0
  4  5  1  0
  4  6  2  0
  3  7  1  0
  6  7  1  0
  7  8  1  0
  6  9  1  0
  5 10  1  1
  5 11  1  0
 10 12  2  0
 10 13  1  0
 11 14  1  0
 11 15  1  0
 14 16  1  6
 14 17  1  0
 15 18  2  0
 17 19  1  0
 16 20  2  0
 17 21  2  0
 18 21  1  0
 19 22  2  0
 20 22  1  0
M  END
