x0969_0_A-x0574_0_A
     RDKit          3D

 16 19  0  0  0  0  0  0  0  0999 V2000
   -6.8170   14.5340    1.7340 N   0  0  0  0  0  0  0  0  0  0  0  0
   -5.3240   14.4520    1.8170 O   0  0  0  0  0  0  0  0  0  0  0  0
   -4.7800   14.6860    0.5470 C   0  0  0  0  0  0  0  0  0  0  0  0
   -6.9350   14.8040    0.4680 C   0  0  0  0  0  0  0  0  0  0  0  0
   -7.9220   15.0390   -0.4520 N   0  0  0  0  0  0  0  0  0  0  0  0
   -5.8070   14.8900   -0.1580 C   0  0  0  0  0  0  0  0  0  0  0  0
   -7.3150   15.2930   -1.7360 N   0  0  0  0  0  0  0  0  0  0  0  0
   -5.9590   15.1860   -1.4680 C   0  0  0  0  0  0  0  0  0  0  0  0
   -3.4190   14.7090   -0.0350 C   0  0  1  0  0  0  0  0  0  0  0  0
   -4.7220   15.3170   -2.2060 C   0  0  0  0  0  0  0  0  0  0  0  0
   -3.5210   15.1160   -1.5510 C   0  0  0  0  0  0  0  0  0  0  0  0
   -2.1890   15.5300    0.9590 S   0  0  0  0  0  0  0  0  0  0  0  0
   -2.8610   13.3270    0.0580 C   0  0  0  0  0  0  0  0  0  0  0  0
   -1.3960   13.3360   -0.1140 N   0  0  0  0  0  0  0  0  0  0  0  0
   -0.8340   14.4700    0.5330 C   0  0  2  0  0  0  0  0  0  0  0  0
   -0.1550   14.0130    1.7010 N   0  0  0  0  0  0  0  0  0  0  0  0
  1  2  1  0
  2  3  1  0
  1  4  2  0
  4  5  1  0
  3  6  2  0
  4  6  1  0
  5  7  1  0
  6  8  1  0
  7  8  2  0
  3  9  1  0
  8 10  1  0
  9 11  1  6
 10 11  2  0
  9 12  1  0
  9 13  1  0
 13 14  1  0
 12 15  1  0
 14 15  1  0
 15 16  1  1
M  END
