x0962_3_A_α-x0592_0_A_α
     RDKit          3D

 24 25  0  0  0  0  0  0  0  0999 V2000
    0.9790   11.3320   -8.8770 N   0  0  0  0  0  0  0  0  0  0  0  0
    0.8200   10.9480   -7.5030 C   0  0  1  0  0  0  0  0  0  0  0  0
    0.2160   12.0540   -6.5960 C   0  0  0  0  0  0  0  0  0  0  0  0
   -0.0360    9.7570   -7.4970 C   0  0  0  0  0  0  0  0  0  0  0  0
    0.9690   12.4270   -5.3140 C   0  0  0  0  0  0  0  0  0  0  0  0
    0.2170    8.5720   -8.1410 N   0  0  0  0  0  0  0  0  0  0  0  0
   -1.2460    9.5640   -6.8760 C   0  0  0  0  0  0  0  0  0  0  0  0
    0.3990   13.7220   -4.6970 C   0  0  0  0  0  0  0  0  0  0  0  0
   -0.8290    7.7390   -7.8860 C   0  0  0  0  0  0  0  0  0  0  0  0
   -1.7330    8.3130   -7.1210 N   0  0  0  0  0  0  0  0  0  0  0  0
   -0.9160   13.5080   -3.9070 C   0  0  0  0  0  0  0  0  0  0  0  0
   -1.4990   14.7870   -3.2570 C   0  0  0  0  0  0  0  0  0  0  0  0
   -2.7550   14.6420   -2.3720 C   0  0  0  0  0  0  0  0  0  0  0  0
   -2.3470   14.6550   -0.9650 N   0  0  0  0  0  0  0  0  0  0  0  0
   -3.1670   14.7240    0.0400 C   0  0  0  0  0  0  0  0  0  0  0  0
   -2.8450   14.7370    1.3800 N   0  0  0  0  0  0  0  0  0  0  0  0
   -4.6070   14.7970   -0.1800 C   0  0  0  0  0  0  0  0  0  0  0  0
   -5.3590   15.1500   -1.3330 C   0  0  0  0  0  0  0  0  0  0  0  0
   -5.5860   14.5150    0.7550 C   0  0  0  0  0  0  0  0  0  0  0  0
   -6.6880   15.0900   -1.1320 N   0  0  0  0  0  0  0  0  0  0  0  0
   -6.7880   14.7000    0.1560 N   0  0  0  0  0  0  0  0  0  0  0  0
   -8.0900   14.5150    0.7790 C   0  0  0  0  0  0  0  0  0  0  0  0
   -7.9240   14.0820    2.2370 C   0  0  0  0  0  0  0  0  0  0  0  0
   -7.1710   15.0250    3.0000 O   0  0  0  0  0  0  0  0  0  0  0  0
  2  1  1  6
  2  3  1  0
  2  4  1  0
  3  5  1  0
  4  6  1  0
  4  7  2  0
  5  8  1  0
  6  9  1  0
  7 10  1  0
  9 10  2  0
  8 11  1  0
 11 12  1  0
 12 13  1  0
 13 14  1  0
 14 15  2  3
 15 16  1  0
 15 17  1  0
 17 18  1  0
 17 19  2  0
 18 20  2  0
 19 21  1  0
 20 21  1  0
 21 22  1  0
 22 23  1  0
 23 24  1  0
M  END
