x0962_3_A_α-x0905_0_A_α
     RDKit          3D

 21 22  0  0  0  0  0  0  0  0999 V2000
    0.9610   11.4050   -8.8970 N   0  0  0  0  0  0  0  0  0  0  0  0
    1.0570   10.8650   -7.5550 C   0  0  1  0  0  0  0  0  0  0  0  0
    1.2040   11.9570   -6.4590 C   0  0  0  0  0  0  0  0  0  0  0  0
   -0.0490    9.9120   -7.4700 C   0  0  0  0  0  0  0  0  0  0  0  0
   -0.0080   12.7940   -6.0690 C   0  0  0  0  0  0  0  0  0  0  0  0
    0.0480    8.7010   -8.1230 N   0  0  0  0  0  0  0  0  0  0  0  0
   -1.2740    9.8840   -6.8630 C   0  0  0  0  0  0  0  0  0  0  0  0
    0.4880   14.0740   -5.3880 C   0  0  0  0  0  0  0  0  0  0  0  0
   -1.0960    8.0130   -7.8850 C   0  0  0  0  0  0  0  0  0  0  0  0
   -1.9180    8.7020   -7.1240 N   0  0  0  0  0  0  0  0  0  0  0  0
   -0.5100   14.9290   -4.6250 C   0  0  0  0  0  0  0  0  0  0  0  0
   -0.1360   15.0860   -3.1490 C   0  0  0  0  0  0  0  0  0  0  0  0
   -1.1930   14.5990   -2.1590 C   0  0  0  0  0  0  0  0  0  0  0  0
   -2.6450   14.8830   -2.5840 C   0  0  0  0  0  0  0  0  0  0  0  0
   -3.6120   14.9670   -1.4360 C   0  0  0  0  0  0  0  0  0  0  0  0
   -3.1530   14.9550   -0.1150 C   0  0  0  0  0  0  0  0  0  0  0  0
   -4.9860   15.0490   -1.6680 C   0  0  0  0  0  0  0  0  0  0  0  0
   -4.0810   15.0150    0.9080 C   0  0  0  0  0  0  0  0  0  0  0  0
   -5.8290   15.1010   -0.5720 C   0  0  0  0  0  0  0  0  0  0  0  0
   -7.1820   15.1740   -0.7360 O   0  0  0  0  0  0  0  0  0  0  0  0
   -5.4100   15.0770    0.7040 N   0  0  0  0  0  0  0  0  0  0  0  0
  2  1  1  6
  2  3  1  0
  2  4  1  0
  3  5  1  0
  4  6  1  0
  4  7  2  0
  5  8  1  0
  6  9  1  0
  7 10  1  0
  9 10  2  0
  8 11  1  0
 11 12  1  0
 12 13  1  0
 13 14  1  0
 14 15  1  0
 15 16  2  0
 15 17  1  0
 16 18  1  0
 17 19  2  0
 19 20  1  0
 18 21  2  0
 19 21  1  0
M  END
