x0962_1_A-x0290_0_A
     RDKit          3D

 19 20  0  0  0  0  0  0  0  0999 V2000
   -4.3680   15.5900   -0.9600 N   0  0  0  0  0  0  0  0  0  0  0  0
   -5.2050   14.4310   -0.5820 C   0  0  1  0  0  0  0  0  0  0  0  0
   -4.6250   13.5220    0.5170 C   0  0  2  0  0  0  0  0  0  0  0  0
   -6.4590   14.7750    0.0420 C   0  0  0  0  0  0  0  0  0  0  0  0
   -5.7000   12.5930    1.2000 C   0  0  0  0  0  0  0  0  0  0  0  0
   -3.7450   14.3080    1.3780 N   0  0  0  0  0  0  0  0  0  0  0  0
   -6.5520   14.7290    1.4270 N   0  0  0  0  0  0  0  0  0  0  0  0
   -7.6970   15.1460   -0.3890 C   0  0  0  0  0  0  0  0  0  0  0  0
   -7.0590   13.1050    1.5300 N   0  0  0  0  0  0  0  0  0  0  0  0
   -7.8240   15.0510    1.7600 C   0  0  0  0  0  0  0  0  0  0  0  0
   -8.5420   15.3120    0.6840 N   0  0  0  0  0  0  0  0  0  0  0  0
   -2.4560   14.4340    0.9630 C   0  0  0  0  0  0  0  0  0  0  0  0
   -8.1160   12.8330    0.5670 C   0  0  0  0  0  0  0  0  0  0  0  0
   -1.4510   14.5090    1.8110 N   0  0  0  0  0  0  0  0  0  0  0  0
   -2.2710   14.4690   -0.4160 C   0  0  0  0  0  0  0  0  0  0  0  0
   -0.2230   14.6260    1.2870 C   0  0  0  0  0  0  0  0  0  0  0  0
   -1.0060   14.5900   -0.9530 C   0  0  0  0  0  0  0  0  0  0  0  0
   -0.8120   14.6270   -2.4390 C   0  0  0  0  0  0  0  0  0  0  0  0
    0.0580   14.6720   -0.0680 C   0  0  0  0  0  0  0  0  0  0  0  0
  2  1  1  1
  2  3  1  0
  2  4  1  0
  3  5  1  1
  3  6  1  0
  4  7  1  0
  4  8  2  0
  5  9  1  0
  7 10  1  0
  8 11  1  0
 10 11  2  0
  6 12  1  0
  9 13  1  0
 12 14  2  0
 12 15  1  0
 14 16  1  0
 15 17  2  0
 17 18  1  0
 16 19  2  0
 17 19  1  0
M  END
