x0967_0_A_α-x0926_0_A_α
     RDKit          3D

 11 12  0  0  0  0  0  0  0  0999 V2000
   -5.7440   14.7520   -2.6880 O   0  0  0  0  0  0  0  0  0  0  0  0
   -5.1640   14.8250   -1.5730 N   0  0  0  0  0  0  0  0  0  0  0  0
   -5.8990   14.7660   -0.4000 C   0  0  0  0  0  0  0  0  0  0  0  0
   -3.7840   14.9660   -1.5170 C   0  0  0  0  0  0  0  0  0  0  0  0
   -7.2540   14.6210   -0.4960 N   0  0  0  0  0  0  0  0  0  0  0  0
   -5.2270   14.8560    0.8240 C   0  0  0  0  0  0  0  0  0  0  0  0
   -3.1090   15.0500   -0.3050 C   0  0  0  0  0  0  0  0  0  0  0  0
   -6.0050   14.7980    1.9750 C   0  0  0  0  0  0  0  0  0  0  0  0
   -7.9610   14.5640    0.6430 C   0  0  0  0  0  0  0  0  0  0  0  0
   -3.8360   14.9980    0.8730 C   0  0  0  0  0  0  0  0  0  0  0  0
   -7.3870   14.6470    1.8930 C   0  0  0  0  0  0  0  0  0  0  0  0
  1  2  1  0
  2  3  2  0
  2  4  1  0
  3  5  1  0
  3  6  1  0
  4  7  2  0
  6  8  1  0
  5  9  2  0
  6 10  2  0
  7 10  1  0
  8 11  2  0
  9 11  1  0
M  CHG  2   1  -1   2   1
M  END
