x0962_1_A-x0967_0_A
     RDKit          3D

 12 13  0  0  0  0  0  0  0  0999 V2000
   -4.3650   14.1610   -3.0070 N   0  0  0  0  0  0  0  0  0  0  0  0
   -4.9590   14.0510   -2.0210 C   0  0  0  0  0  0  0  0  0  0  0  0
   -5.5650   14.0230   -0.7010 C   0  0  2  0  0  0  0  0  0  0  0  0
   -7.0610   13.8920   -0.5570 C   0  0  0  0  0  0  0  0  0  0  0  0
   -5.3190   15.3980   -0.2370 C   0  0  1  0  0  0  0  0  0  0  0  0
   -5.1440   15.2790    1.1790 N   0  0  0  0  0  0  0  0  0  0  0  0
   -7.4190   14.4400    0.7690 N   0  0  0  0  0  0  0  0  0  0  0  0
   -4.2300   15.8340   -1.0650 N   0  0  0  0  0  0  0  0  0  0  0  0
   -6.2670   14.5010    1.7040 C   0  0  0  0  0  0  0  0  0  0  0  0
   -3.1010   15.1240   -0.9000 C   0  0  0  0  0  0  0  0  0  0  0  0
   -3.8130   14.6940    1.4650 C   0  0  0  0  0  0  0  0  0  0  0  0
   -2.8570   14.5650    0.2860 C   0  0  0  0  0  0  0  0  0  0  0  0
  1  2  3  0
  3  2  1  6
  3  4  1  0
  3  5  1  0
  5  6  1  0
  4  7  1  0
  5  8  1  6
  6  9  1  0
  7  9  1  0
  8 10  1  0
  6 11  1  0
 10 12  2  0
 11 12  1  0
M  END
