x0967_0_A-x0465_0_A
     RDKit          3D

 26 28  0  0  0  0  0  0  0  0999 V2000
    1.9530   13.1890   -4.3200 C   0  0  0  0  0  0  0  0  0  0  0  0
    0.6250   12.4360   -4.1490 C   0  0  1  0  0  0  0  0  0  0  0  0
    0.6100   11.4490   -5.2080 O   0  0  0  0  0  0  0  0  0  0  0  0
    0.4900   11.7720   -2.7390 C   0  0  0  0  0  0  0  0  0  0  0  0
    0.3550   12.3910   -1.6030 N   0  0  0  0  0  0  0  0  0  0  0  0
    0.5060   10.4110   -2.7040 O   0  0  0  0  0  0  0  0  0  0  0  0
   -0.5620   10.7940   -5.5060 C   0  0  0  0  0  0  0  0  0  0  0  0
    0.2930   13.8500   -1.4920 C   0  0  0  0  0  0  0  0  0  0  0  0
   -0.6690    9.8310   -6.5240 C   0  0  0  0  0  0  0  0  0  0  0  0
   -1.6920   11.1100   -4.7500 C   0  0  0  0  0  0  0  0  0  0  0  0
    0.3860    9.4960   -7.2840 F   0  0  0  0  0  0  0  0  0  0  0  0
   -0.5750   14.1560   -0.2570 C   0  0  0  0  0  0  0  0  0  0  0  0
   -1.8720    9.1900   -6.7770 C   0  0  0  0  0  0  0  0  0  0  0  0
   -2.9040   10.4660   -5.0080 C   0  0  0  0  0  0  0  0  0  0  0  0
   -1.3600   15.4800   -0.3240 C   0  0  0  0  0  0  0  0  0  0  0  0
   -2.9980    9.5070   -6.0170 C   0  0  0  0  0  0  0  0  0  0  0  0
   -2.8640   15.2650   -0.3770 C   0  0  0  0  0  0  0  0  0  0  0  0
   -3.5410   15.1930   -1.5870 C   0  0  0  0  0  0  0  0  0  0  0  0
   -3.6440   15.1270    0.7760 C   0  0  0  0  0  0  0  0  0  0  0  0
   -5.0330   14.9250    0.6560 C   0  0  0  0  0  0  0  0  0  0  0  0
   -4.8780   14.9980   -1.7180 N   0  0  0  0  0  0  0  0  0  0  0  0
   -5.6240   14.8640   -0.6200 C   0  0  0  0  0  0  0  0  0  0  0  0
   -5.8530   14.7810    1.7840 C   0  0  0  0  0  0  0  0  0  0  0  0
   -6.9420   14.6700   -0.7640 N   0  0  0  0  0  0  0  0  0  0  0  0
   -7.2150   14.5770    1.6290 C   0  0  0  0  0  0  0  0  0  0  0  0
   -7.7100   14.5300    0.3420 C   0  0  0  0  0  0  0  0  0  0  0  0
  2  1  1  1
  2  3  1  0
  2  4  1  0
  4  5  2  3
  4  6  1  0
  3  7  1  0
  5  8  1  0
  7  9  2  0
  7 10  1  0
  9 11  1  0
  8 12  1  0
  9 13  1  0
 10 14  2  0
 12 15  1  0
 13 16  2  0
 14 16  1  0
 15 17  1  0
 17 18  2  0
 17 19  1  0
 19 20  2  0
 18 21  1  0
 20 22  1  0
 21 22  2  0
 20 23  1  0
 22 24  1  0
 23 25  2  0
 24 26  2  0
 25 26  1  0
M  END
