x0962_1_A-x0471_0_A
     RDKit          3D

 19 20  0  0  0  0  0  0  0  0999 V2000
   -4.4870   15.3490   -2.9790 N   0  0  0  0  0  0  0  0  0  0  0  0
   -5.1230   15.3520   -2.0170 C   0  0  0  0  0  0  0  0  0  0  0  0
   -5.7620   15.2800   -0.7200 C   0  0  1  0  0  0  0  0  0  0  0  0
   -7.2500   14.9380   -0.5590 C   0  0  0  0  0  0  0  0  0  0  0  0
   -5.0880   14.0920   -0.1940 C   0  0  2  0  0  0  0  0  0  0  0  0
   -5.0390   14.3540    1.2190 N   0  0  0  0  0  0  0  0  0  0  0  0
   -7.5450   14.2530    0.7450 N   0  0  0  0  0  0  0  0  0  0  0  0
   -3.7440   14.0550   -0.8490 C   0  0  0  0  0  0  0  0  0  0  0  0
   -8.8130   14.6140    1.3710 C   0  0  0  0  0  0  0  0  0  0  0  0
   -6.4220   14.3530    1.7210 C   0  0  0  0  0  0  0  0  0  0  0  0
   -2.7450   14.7570   -0.3490 C   0  0  0  0  0  0  0  0  0  0  0  0
   -4.0980   15.3040    1.5760 C   0  0  0  0  0  0  0  0  0  0  0  0
   -8.7100   14.2960    2.7670 N   0  0  0  0  0  0  0  0  0  0  0  0
   -2.9830   15.5290    0.8440 C   0  0  0  0  0  0  0  0  0  0  0  0
   -9.1670   15.2240    3.6770 C   0  0  0  0  0  0  0  0  0  0  0  0
   -9.5450   16.3330    3.3170 O   0  0  0  0  0  0  0  0  0  0  0  0
   -9.2280   14.8180    5.1450 C   0  0  0  0  0  0  0  0  0  0  0  0
   -9.5500   13.3430    5.3490 C   0  0  0  0  0  0  0  0  0  0  0  0
   -7.9720   15.2500    5.8930 C   0  0  0  0  0  0  0  0  0  0  0  0
  1  2  3  0
  3  2  1  6
  3  4  1  0
  3  5  1  0
  5  6  1  0
  4  7  1  0
  5  8  1  6
  7  9  1  0
  6 10  1  0
  7 10  1  0
  8 11  2  0
  6 12  1  0
  9 13  1  0
 11 14  1  0
 12 14  2  0
 13 15  1  0
 15 16  2  0
 15 17  1  0
 17 18  1  0
 17 19  1  0
M  END
