x0962_3_A_α-x0855_0_A_α
     RDKit          3D

 16 17  0  0  0  0  0  0  0  0999 V2000
    1.7590   10.7710  -10.4450 N   0  0  0  0  0  0  0  0  0  0  0  0
    1.1060   10.1980   -9.7030 C   0  0  0  0  0  0  0  0  0  0  0  0
    0.2620    9.6500   -8.7370 C   0  0  0  0  0  0  0  0  0  0  0  0
   -0.2590    8.3750   -8.6610 N   0  0  0  0  0  0  0  0  0  0  0  0
   -0.1240   10.4040   -7.7430 C   0  0  0  0  0  0  0  0  0  0  0  0
   -0.9940    8.4070   -7.5440 C   0  0  0  0  0  0  0  0  0  0  0  0
   -0.9040    9.6620   -6.9790 N   0  0  0  0  0  0  0  0  0  0  0  0
   -1.3260   10.3860   -5.9090 C   0  0  0  0  0  0  0  0  0  0  0  0
   -0.4040   11.2470   -5.4320 C   0  0  0  0  0  0  0  0  0  0  0  0
   -2.4690   10.5450   -5.1160 C   0  0  0  0  0  0  0  0  0  0  0  0
   -0.9670   11.8820   -4.4160 N   0  0  0  0  0  0  0  0  0  0  0  0
   -2.2420   11.4890   -4.1790 N   0  0  0  0  0  0  0  0  0  0  0  0
   -0.2880   12.8760   -3.6460 C   0  0  0  0  0  0  0  0  0  0  0  0
    0.7510   12.1700   -2.8450 C   0  0  0  0  0  0  0  0  0  0  0  0
    1.7070   12.9960   -2.3850 O   0  0  0  0  0  0  0  0  0  0  0  0
    0.7940   10.9810   -2.5920 O   0  0  0  0  0  0  0  0  0  0  0  0
  1  2  3  0
  2  3  1  0
  3  4  1  0
  3  5  2  0
  4  6  2  0
  5  7  1  0
  6  7  1  0
  7  8  1  0
  8  9  2  0
  8 10  1  0
  9 11  1  0
 10 12  2  0
 11 12  1  0
 11 13  1  0
 13 14  1  0
 14 15  1  0
 14 16  2  0
M  END
