x0962_0_A_α-x0371_0_A_α
     RDKit          3D

 17 18  0  0  0  0  0  0  0  0999 V2000
   -2.4620   14.8320   -2.4420 N   0  0  0  0  0  0  0  0  0  0  0  0
   -3.1510   14.8580   -1.5080 C   0  0  0  0  0  0  0  0  0  0  0  0
   -3.9540   14.8700   -0.3280 C   0  0  0  0  0  0  0  0  0  0  0  0
   -3.3910   14.9730    0.9150 N   0  0  0  0  0  0  0  0  0  0  0  0
   -5.3290   14.7850   -0.2520 C   0  0  0  0  0  0  0  0  0  0  0  0
   -4.4110   14.9600    1.7420 C   0  0  0  0  0  0  0  0  0  0  0  0
   -5.6030   14.8400    1.0850 N   0  0  0  0  0  0  0  0  0  0  0  0
   -6.9190   14.8000    1.7190 C   0  0  0  0  0  0  0  0  0  0  0  0
   -7.4870   13.4920    2.2160 C   0  0  0  0  0  0  0  0  0  0  0  0
   -8.6160   13.7780    3.0970 N   0  0  0  0  0  0  0  0  0  0  0  0
   -8.8970   15.0770    3.5480 C   0  0  0  0  0  0  0  0  0  0  0  0
   -9.2910   15.9540    2.7720 O   0  0  0  0  0  0  0  0  0  0  0  0
   -8.7170   15.3000    4.9730 C   0  0  0  0  0  0  0  0  0  0  0  0
   -8.1960   14.2710    5.7090 O   0  0  0  0  0  0  0  0  0  0  0  0
   -8.9640   16.3660    5.8230 C   0  0  0  0  0  0  0  0  0  0  0  0
   -8.1090   14.6690    6.9940 C   0  0  0  0  0  0  0  0  0  0  0  0
   -8.5720   15.9510    7.1250 C   0  0  0  0  0  0  0  0  0  0  0  0
  1  2  3  0
  2  3  1  0
  3  4  1  0
  3  5  2  0
  4  6  2  0
  5  7  1  0
  6  7  1  0
  7  8  1  0
  8  9  1  0
  9 10  1  0
 10 11  1  0
 11 12  2  0
 11 13  1  0
 13 14  1  0
 13 15  2  0
 14 16  1  0
 15 17  1  0
 16 17  2  0
M  END
