x0962_1_A_α-x0864_0_A_α
     RDKit          3D

 23 24  0  0  0  0  0  0  0  0999 V2000
   -3.8240   14.9930   -1.6470 N   0  0  0  0  0  0  0  0  0  0  0  0
   -3.9620   15.2210   -0.1980 C   0  0  2  0  0  0  0  0  0  0  0  0
   -2.8710   14.4090    0.5430 C   0  0  0  0  0  0  0  0  0  0  0  0
   -5.3630   14.9260    0.2180 C   0  0  0  0  0  0  0  0  0  0  0  0
   -1.4580   14.8720    0.1620 C   0  0  0  0  0  0  0  0  0  0  0  0
   -5.7110   14.6200    1.5110 N   0  0  0  0  0  0  0  0  0  0  0  0
   -6.5670   14.8790   -0.4580 C   0  0  0  0  0  0  0  0  0  0  0  0
   -0.3580   13.8320    0.1840 C   0  0  0  0  0  0  0  0  0  0  0  0
   -7.0460   14.4120    1.5650 C   0  0  0  0  0  0  0  0  0  0  0  0
   -7.6040   14.5590    0.3880 N   0  0  0  0  0  0  0  0  0  0  0  0
    0.4250   13.6780   -1.1240 C   0  0  0  0  0  0  0  0  0  0  0  0
    0.4230   12.2720   -1.4780 N   0  0  0  0  0  0  0  0  0  0  0  0
    0.4930   11.7710   -2.6610 C   0  0  0  0  0  0  0  0  0  0  0  0
    0.5920   12.4370   -4.0450 C   0  0  0  0  0  0  0  0  0  0  0  0
    0.4630   10.4110   -2.6630 O   0  0  0  0  0  0  0  0  0  0  0  0
   -0.1800   11.7510   -5.0980 N   0  0  0  0  0  0  0  0  0  0  0  0
   -1.3910   11.1590   -4.7840 C   0  0  0  0  0  0  0  0  0  0  0  0
    0.4780   11.4540   -6.2940 C   0  0  0  0  0  0  0  0  0  0  0  0
    1.4740   12.0370   -6.7000 O   0  0  0  0  0  0  0  0  0  0  0  0
   -1.9120   10.1870   -5.5460 C   0  0  0  0  0  0  0  0  0  0  0  0
   -0.0740   10.3320   -7.0970 C   0  0  0  0  0  0  0  0  0  0  0  0
   -1.2120    9.7370   -6.7220 C   0  0  0  0  0  0  0  0  0  0  0  0
   -1.9490    8.3150   -7.6770 Br  0  0  0  0  0  0  0  0  0  0  0  0
  2  1  1  6
  2  3  1  0
  2  4  1  0
  3  5  1  0
  4  6  1  0
  4  7  2  0
  5  8  1  0
  6  9  1  0
  7 10  1  0
  9 10  2  0
  8 11  1  0
 11 12  1  0
 12 13  2  3
 13 14  1  0
 13 15  1  0
 14 16  1  0
 16 17  1  0
 16 18  1  0
 18 19  2  0
 17 20  2  0
 18 21  1  0
 20 22  1  0
 21 22  2  0
 22 23  1  0
M  END
