x0969_0_A-x0711_0_A
     RDKit          3D

 17 19  0  0  0  0  0  0  0  0999 V2000
   -6.6830   14.3220    1.4930 N   0  0  0  0  0  0  0  0  0  0  0  0
   -5.5010   13.6110    1.4440 C   0  0  0  0  0  0  0  0  0  0  0  0
   -5.2690   12.6400    2.0370 O   0  0  0  0  0  0  0  0  0  0  0  0
   -6.7830   14.8330    0.2520 C   0  0  0  0  0  0  0  0  0  0  0  0
   -7.6100   15.3610   -0.5810 N   0  0  0  0  0  0  0  0  0  0  0  0
   -5.5690   14.7780   -0.3210 N   0  0  0  0  0  0  0  0  0  0  0  0
   -4.6160   14.1980    0.3940 C   0  0  0  0  0  0  0  0  0  0  0  0
   -6.8150   15.6930   -1.7310 N   0  0  0  0  0  0  0  0  0  0  0  0
   -5.5560   15.3370   -1.5060 C   0  0  0  0  0  0  0  0  0  0  0  0
   -3.3370   14.2870   -0.0330 C   0  0  0  0  0  0  0  0  0  0  0  0
   -4.2460   15.3830   -2.0970 C   0  0  0  0  0  0  0  0  0  0  0  0
   -3.1690   14.9200   -1.3730 C   0  0  0  0  0  0  0  0  0  0  0  0
   -1.8630   15.0780   -1.9970 N   0  0  0  0  0  0  0  0  0  0  0  0
   -0.9250   13.8900   -2.8180 S   0  0  0  0  0  0  0  0  0  0  0  0
   -2.1400   12.9520   -3.7060 C   0  0  0  0  0  0  0  0  0  0  0  0
   -0.0820   14.5550   -3.7910 O   0  0  0  0  0  0  0  0  0  0  0  0
   -0.3350   13.0620   -1.7940 O   0  0  0  0  0  0  0  0  0  0  0  0
  1  2  1  0
  2  3  2  0
  1  4  1  0
  4  5  2  0
  4  6  1  0
  2  7  1  0
  6  7  1  0
  5  8  1  0
  6  9  1  0
  8  9  2  0
  7 10  2  0
  9 11  1  0
 10 12  1  0
 11 12  2  0
 12 13  1  0
 14 13  1  0
 14 15  1  0
 14 16  2  0
 14 17  2  0
M  END
