x0962_2_B-x0104_0_A
     RDKit          3D

 23 25  0  0  0  0  0  0  0  0999 V2000
  -10.4420   15.0280    1.7830 N   0  0  0  0  0  0  0  0  0  0  0  0
   -9.0620   15.4010    2.1790 C   0  0  2  0  0  0  0  0  0  0  0  0
   -8.0810   14.3580    2.8670 C   0  0  2  0  0  0  0  0  0  0  0  0
   -8.9460   16.0630    3.4390 C   0  0  0  0  0  0  0  0  0  0  0  0
   -6.9820   13.7480    2.1450 N   0  0  0  0  0  0  0  0  0  0  0  0
   -8.6200   13.5830    3.9950 N   0  0  0  0  0  0  0  0  0  0  0  0
   -9.6360   17.0800    3.9830 N   0  0  0  0  0  0  0  0  0  0  0  0
   -8.0110   15.7020    4.3720 C   0  0  0  0  0  0  0  0  0  0  0  0
   -9.0890   17.2760    5.2180 C   0  0  0  0  0  0  0  0  0  0  0  0
   -8.1100   16.4470    5.4660 N   0  0  0  0  0  0  0  0  0  0  0  0
   -6.4200   14.2340    0.9810 C   0  0  0  0  0  0  0  0  0  0  0  0
   -9.5090   14.1080    4.9260 C   0  0  0  0  0  0  0  0  0  0  0  0
   -5.0290   14.3220    0.8670 C   0  0  0  0  0  0  0  0  0  0  0  0
   -7.1460   14.6520   -0.1190 C   0  0  0  0  0  0  0  0  0  0  0  0
   -9.2250   14.4000    6.2610 C   0  0  0  0  0  0  0  0  0  0  0  0
  -11.1500   14.4950    4.5930 S   0  0  0  0  0  0  0  0  0  0  0  0
   -4.3500   14.7660   -0.2130 N   0  0  0  0  0  0  0  0  0  0  0  0
   -6.4890   15.1200   -1.2560 C   0  0  0  0  0  0  0  0  0  0  0  0
  -11.4600   15.0270    6.1840 C   0  0  0  0  0  0  0  0  0  0  0  0
  -10.3430   14.9260    6.9800 C   0  0  0  0  0  0  0  0  0  0  0  0
   -5.1100   15.1520   -1.2520 C   0  0  0  0  0  0  0  0  0  0  0  0
   -4.5180   15.6110   -2.4050 O   0  0  0  0  0  0  0  0  0  0  0  0
   -3.2730   14.9850   -2.6850 C   0  0  0  0  0  0  0  0  0  0  0  0
  2  1  1  1
  2  3  1  0
  2  4  1  0
  3  5  1  6
  3  6  1  0
  4  7  1  0
  4  8  2  0
  7  9  1  0
  8 10  1  0
  9 10  2  0
  5 11  1  0
  6 12  1  0
 11 13  2  0
 11 14  1  0
 12 15  2  0
 12 16  1  0
 13 17  1  0
 14 18  2  0
 16 19  1  0
 15 20  1  0
 19 20  2  0
 17 21  2  0
 18 21  1  0
 21 22  1  0
 22 23  1  0
M  END
