x0962_2_B-x0685_0_A
     RDKit          3D

 18 19  0  0  0  0  0  0  0  0999 V2000
  -10.5570   16.3980    0.9280 N   0  0  0  0  0  0  0  0  0  0  0  0
   -9.9630   16.1650    1.8960 C   0  0  0  0  0  0  0  0  0  0  0  0
   -9.2850   15.9160    3.1130 C   0  0  0  0  0  0  0  0  0  0  0  0
   -9.6230   16.4520    4.3210 N   0  0  0  0  0  0  0  0  0  0  0  0
   -8.1880   15.1390    3.3830 C   0  0  0  0  0  0  0  0  0  0  0  0
   -7.3440   14.3210    2.4810 C   0  0  1  0  0  0  0  0  0  0  0  0
   -8.7420   15.9820    5.2500 C   0  0  0  0  0  0  0  0  0  0  0  0
   -7.8750   15.1870    4.7140 N   0  0  0  0  0  0  0  0  0  0  0  0
   -5.9450   14.7520    2.4650 N   0  0  0  0  0  0  0  0  0  0  0  0
   -7.4440   12.8220    2.7650 C   0  0  0  0  0  0  0  0  0  0  0  0
   -5.2480   14.8450    1.2960 C   0  0  0  0  0  0  0  0  0  0  0  0
   -3.8700   14.9110    1.2360 C   0  0  0  0  0  0  0  0  0  0  0  0
   -6.0240   14.8720    0.1990 N   0  0  0  0  0  0  0  0  0  0  0  0
   -3.2580   15.0100   -0.0050 C   0  0  0  0  0  0  0  0  0  0  0  0
   -5.4170   14.9710   -0.9960 C   0  0  0  0  0  0  0  0  0  0  0  0
   -4.0480   15.0410   -1.1490 C   0  0  0  0  0  0  0  0  0  0  0  0
   -3.4790   15.1420   -2.4450 C   0  0  0  0  0  0  0  0  0  0  0  0
   -3.0270   15.2220   -3.5080 N   0  0  0  0  0  0  0  0  0  0  0  0
  1  2  3  0
  2  3  1  0
  3  4  1  0
  3  5  2  0
  5  6  1  0
  4  7  1  0
  5  8  1  0
  7  8  2  0
  6  9  1  0
  6 10  1  1
  9 11  1  0
 11 12  2  0
 11 13  1  0
 12 14  1  0
 13 15  2  0
 14 16  2  0
 15 16  1  0
 16 17  1  0
 17 18  3  0
M  END
