x0967_0_A_α-x0855_0_A_α
     RDKit          3D

 23 25  0  0  0  0  0  0  0  0999 V2000
    1.1510   13.3310   -2.4820 O   0  0  0  0  0  0  0  0  0  0  0  0
    0.8330   12.2350   -3.2230 C   0  0  0  0  0  0  0  0  0  0  0  0
    0.6150   12.5510   -4.6760 C   0  0  0  0  0  0  0  0  0  0  0  0
    0.4470   13.4770   -1.2330 C   0  0  0  0  0  0  0  0  0  0  0  0
    0.7180   11.1020   -2.7590 O   0  0  0  0  0  0  0  0  0  0  0  0
   -0.5470   14.6340   -1.2620 C   0  0  0  0  0  0  0  0  0  0  0  0
   -1.3910   14.7040    0.0200 C   0  0  0  0  0  0  0  0  0  0  0  0
   -0.4250   11.6900   -5.1860 N   0  0  0  0  0  0  0  0  0  0  0  0
   -2.8940   14.7440   -0.1880 C   0  0  0  0  0  0  0  0  0  0  0  0
   -0.3070   10.7330   -6.1500 C   0  0  0  0  0  0  0  0  0  0  0  0
   -1.6720   11.7960   -4.6810 N   0  0  0  0  0  0  0  0  0  0  0  0
   -3.4910   14.8100   -1.4460 C   0  0  0  0  0  0  0  0  0  0  0  0
   -3.7580   14.7080    0.9000 C   0  0  0  0  0  0  0  0  0  0  0  0
   -1.5530   10.1830   -6.2610 C   0  0  0  0  0  0  0  0  0  0  0  0
   -2.3610   10.8660   -5.3450 C   0  0  0  0  0  0  0  0  0  0  0  0
   -2.1030    8.8050   -7.3860 Br  0  0  0  0  0  0  0  0  0  0  0  0
   -5.1470   14.7200    0.6910 C   0  0  0  0  0  0  0  0  0  0  0  0
   -4.8310   14.8260   -1.6620 N   0  0  0  0  0  0  0  0  0  0  0  0
   -5.6570   14.7750   -0.6150 C   0  0  0  0  0  0  0  0  0  0  0  0
   -6.0420   14.6720    1.7640 C   0  0  0  0  0  0  0  0  0  0  0  0
   -6.9770   14.7730   -0.8360 N   0  0  0  0  0  0  0  0  0  0  0  0
   -7.4070   14.6670    1.5290 C   0  0  0  0  0  0  0  0  0  0  0  0
   -7.8200   14.7190    0.2170 C   0  0  0  0  0  0  0  0  0  0  0  0
  1  2  1  0
  2  3  1  0
  1  4  1  0
  2  5  2  0
  4  6  1  0
  6  7  1  0
  3  8  1  0
  7  9  1  0
  8 10  1  0
  8 11  1  0
  9 12  2  0
  9 13  1  0
 10 14  2  0
 11 15  2  0
 14 15  1  0
 14 16  1  0
 13 17  2  0
 12 18  1  0
 17 19  1  0
 18 19  2  0
 17 20  1  0
 19 21  1  0
 20 22  2  0
 21 23  2  0
 22 23  1  0
M  END
