x0962_1_A_α-x0591_0_A_α
     RDKit          3D

 20 21  0  0  0  0  0  0  0  0999 V2000
   -6.1140   15.7810   -2.0080 N   0  0  0  0  0  0  0  0  0  0  0  0
   -6.1920   14.5150   -1.0700 S   0  0  0  0  0  0  0  0  0  0  0  0
   -6.2050   12.9440   -1.2650 N   0  0  0  0  0  0  0  0  0  0  0  0
   -7.4910   14.5450   -1.0900 O   0  0  0  0  0  0  0  0  0  0  0  0
   -6.3620   14.7230    0.6380 C   0  0  0  0  0  0  0  0  0  0  0  0
   -4.4780   14.5320   -1.3010 C   0  0  0  0  0  0  0  0  0  0  0  0
   -6.1950   12.1840   -0.0700 C   0  0  0  0  0  0  0  0  0  0  0  0
   -5.4600   15.0390    1.5470 N   0  0  0  0  0  0  0  0  0  0  0  0
   -7.5410   14.5640    1.2550 C   0  0  0  0  0  0  0  0  0  0  0  0
   -4.9070   14.5330   -2.5190 C   0  0  0  0  0  0  0  0  0  0  0  0
   -3.3410   14.5420   -2.2110 C   0  0  0  0  0  0  0  0  0  0  0  0
   -6.1230   15.0770    2.7200 C   0  0  0  0  0  0  0  0  0  0  0  0
   -7.4010   14.7860    2.5700 N   0  0  0  0  0  0  0  0  0  0  0  0
   -3.3590   14.5410   -3.6720 C   0  0  0  0  0  0  0  0  0  0  0  0
   -5.5390   14.5330   -3.6300 C   0  0  0  0  0  0  0  0  0  0  0  0
   -1.9140   14.5380   -4.6150 S   0  0  0  0  0  0  0  0  0  0  0  0
   -4.5300   14.5390   -4.4080 C   0  0  0  0  0  0  0  0  0  0  0  0
   -0.7300   15.6910   -4.1360 N   0  0  0  0  0  0  0  0  0  0  0  0
   -1.2850   13.1620   -4.5370 O   0  0  0  0  0  0  0  0  0  0  0  0
   -2.3630   14.7350   -6.0120 O   0  0  0  0  0  0  0  0  0  0  0  0
  1  2  1  0
  2  3  1  0
  2  4  2  0
  2  5  1  0
  2  6  1  0
  3  7  1  0
  5  8  1  0
  5  9  2  0
  6 10  2  0
  6 11  1  0
  8 12  1  0
  9 13  1  0
 12 13  2  0
 11 14  2  0
 10 15  1  0
 14 16  1  0
 14 17  1  0
 15 17  2  0
 16 18  1  0
 16 19  2  0
 16 20  2  0
M  END
