x0962_0_A-x0910_0_A
     RDKit          3D

 12 13  0  0  0  0  0  0  0  0999 V2000
   -2.9240   15.1400   -2.4470 N   0  0  0  0  0  0  0  0  0  0  0  0
   -2.8880   14.3590   -1.2100 C   0  0  2  0  0  0  0  0  0  0  0  0
   -4.0040   14.6600   -0.2960 C   0  0  0  0  0  0  0  0  0  0  0  0
   -1.6270   14.5930   -0.4290 C   0  0  0  0  0  0  0  0  0  0  0  0
   -3.7630   15.0930    0.9820 N   0  0  0  0  0  0  0  0  0  0  0  0
   -5.3730   14.6080   -0.3950 C   0  0  0  0  0  0  0  0  0  0  0  0
   -1.6230   14.6380    0.9150 N   0  0  0  0  0  0  0  0  0  0  0  0
   -0.4060   14.7760   -1.0190 N   0  0  0  0  0  0  0  0  0  0  0  0
   -4.9600   15.2710    1.5870 C   0  0  0  0  0  0  0  0  0  0  0  0
   -5.9550   14.9830    0.7800 N   0  0  0  0  0  0  0  0  0  0  0  0
   -0.3300   14.8600    1.1600 N   0  0  0  0  0  0  0  0  0  0  0  0
    0.3760   14.9430    0.0080 C   0  0  0  0  0  0  0  0  0  0  0  0
  2  1  1  6
  2  3  1  0
  2  4  1  0
  3  5  1  0
  3  6  2  0
  4  7  2  0
  4  8  1  0
  5  9  1  0
  6 10  1  0
  9 10  2  0
  7 11  1  0
  8 12  2  0
 11 12  1  0
M  END
