x0962_3_A_α-x0722_0_A_α
     RDKit          3D

 25 26  0  0  0  0  0  0  0  0999 V2000
    1.3770   11.2910   -7.9140 N   0  0  0  0  0  0  0  0  0  0  0  0
    0.1330   11.3430   -7.2540 C   0  0  2  0  0  0  0  0  0  0  0  0
    0.2370   11.9070   -5.8100 C   0  0  0  0  0  0  0  0  0  0  0  0
   -0.4780   10.0130   -7.3710 C   0  0  0  0  0  0  0  0  0  0  0  0
    1.4540   12.7810   -5.4370 C   0  0  0  0  0  0  0  0  0  0  0  0
    0.0260    8.9840   -8.1370 N   0  0  0  0  0  0  0  0  0  0  0  0
   -1.6050    9.5010   -6.8010 C   0  0  0  0  0  0  0  0  0  0  0  0
    1.1310   14.0790   -4.6800 C   0  0  0  0  0  0  0  0  0  0  0  0
   -0.8130    7.9220   -7.9920 C   0  0  0  0  0  0  0  0  0  0  0  0
   -1.8100    8.2080   -7.1880 N   0  0  0  0  0  0  0  0  0  0  0  0
    1.9100   14.2430   -3.3640 C   0  0  0  0  0  0  0  0  0  0  0  0
    1.1760   13.9090   -2.0470 C   0  0  0  0  0  0  0  0  0  0  0  0
    0.1210   14.9300   -1.5840 C   0  0  0  0  0  0  0  0  0  0  0  0
   -1.3390   14.4410   -1.6610 C   0  0  0  0  0  0  0  0  0  0  0  0
   -2.1250   14.6370   -0.3920 C   0  0  0  0  0  0  0  0  0  0  0  0
   -3.4630   14.9760   -0.1800 C   0  0  0  0  0  0  0  0  0  0  0  0
   -1.5870   14.4960    0.8690 N   0  0  0  0  0  0  0  0  0  0  0  0
   -0.2340   14.1580    1.2300 C   0  0  0  0  0  0  0  0  0  0  0  0
   -4.5500   15.2610   -1.1730 C   0  0  0  0  0  0  0  0  0  0  0  0
   -2.4700   14.7060    1.8440 N   0  0  0  0  0  0  0  0  0  0  0  0
   -3.6010   14.9970    1.2170 C   0  0  0  0  0  0  0  0  0  0  0  0
   -4.8190   15.2920    1.9720 C   0  0  0  0  0  0  0  0  0  0  0  0
   -5.8990   14.6970   -0.7350 C   0  0  0  0  0  0  0  0  0  0  0  0
   -6.9720   15.2870   -0.8450 O   0  0  0  0  0  0  0  0  0  0  0  0
   -5.8730   13.4460   -0.1830 N   0  0  0  0  0  0  0  0  0  0  0  0
  2  1  1  1
  2  3  1  0
  2  4  1  0
  3  5  1  0
  4  6  1  0
  4  7  2  0
  5  8  1  0
  6  9  1  0
  7 10  1  0
  9 10  2  0
  8 11  1  0
 11 12  1  0
 12 13  1  0
 13 14  1  0
 14 15  1  0
 15 16  2  0
 15 17  1  0
 17 18  1  0
 16 19  1  0
 17 20  1  0
 16 21  1  0
 20 21  2  0
 21 22  1  0
 19 23  1  0
 23 24  2  0
 23 25  1  0
M  END
