x0969_0_A_α-x0371_0_A_β
     RDKit          3D

 11 12  0  0  0  0  0  0  0  0999 V2000
   -6.7340   14.9630    2.7320 N   0  0  0  0  0  0  0  0  0  0  0  0
   -6.4550   14.5940    1.3670 C   0  0  1  0  0  0  0  0  0  0  0  0
   -7.6750   14.8050    0.5350 N   0  0  0  0  0  0  0  0  0  0  0  0
   -5.2990   15.0640    0.6200 N   0  0  0  0  0  0  0  0  0  0  0  0
   -8.6470   13.7210    0.7300 C   0  0  0  0  0  0  0  0  0  0  0  0
   -7.1210   14.7760   -0.9260 N   0  0  0  0  0  0  0  0  0  0  0  0
   -5.6860   14.5220   -0.6660 C   0  0  1  0  0  0  0  0  0  0  0  0
   -3.9670   15.0150    0.9750 C   0  0  0  0  0  0  0  0  0  0  0  0
   -4.6930   14.9540   -1.7030 C   0  0  0  0  0  0  0  0  0  0  0  0
   -3.0130   15.0770    0.0350 C   0  0  0  0  0  0  0  0  0  0  0  0
   -3.4190   15.2080   -1.3590 C   0  0  0  0  0  0  0  0  0  0  0  0
  2  1  1  1
  2  3  1  0
  2  4  1  0
  3  5  1  0
  3  6  1  0
  4  7  1  0
  6  7  1  0
  4  8  1  0
  7  9  1  6
  8 10  2  0
  9 11  2  0
 10 11  1  0
M  END
