x0962_3_A_α-x1015_0_A_α
     RDKit          3D

 22 24  0  0  0  0  0  0  0  0999 V2000
    1.8630   11.9290   -6.7830 N   0  0  0  0  0  0  0  0  0  0  0  0
    1.0130   11.2680   -7.2040 C   0  0  0  0  0  0  0  0  0  0  0  0
   -0.1490   10.5270   -7.5440 C   0  0  0  0  0  0  0  0  0  0  0  0
   -0.3980    9.7480   -8.6620 N   0  0  0  0  0  0  0  0  0  0  0  0
   -1.2000   10.5340   -6.7200 C   0  0  0  0  0  0  0  0  0  0  0  0
   -1.6430    9.2920   -8.4770 C   0  0  0  0  0  0  0  0  0  0  0  0
   -2.1460    9.7660   -7.2910 N   0  0  0  0  0  0  0  0  0  0  0  0
   -3.3930    9.6190   -6.5810 C   0  0  0  0  0  0  0  0  0  0  0  0
   -2.9200   10.3370   -5.3490 C   0  0  0  0  0  0  0  0  0  0  0  0
   -2.4800   11.6600   -5.4890 C   0  0  0  0  0  0  0  0  0  0  0  0
   -2.8640    9.7490   -4.0890 C   0  0  0  0  0  0  0  0  0  0  0  0
   -1.9700   12.3680   -4.4020 C   0  0  0  0  0  0  0  0  0  0  0  0
   -2.3490   10.4690   -2.9950 C   0  0  0  0  0  0  0  0  0  0  0  0
   -1.8820   11.7850   -3.1360 C   0  0  0  0  0  0  0  0  0  0  0  0
   -1.3200   12.5130   -2.0530 N   0  0  0  0  0  0  0  0  0  0  0  0
   -1.5220   13.9550   -1.9100 C   0  0  1  0  0  0  0  0  0  0  0  0
   -0.0090   12.2120   -1.6340 C   0  0  0  0  0  0  0  0  0  0  0  0
   -2.2520   14.3530   -0.6310 C   0  0  0  0  0  0  0  0  0  0  0  0
    0.5340   11.1080   -1.5540 O   0  0  0  0  0  0  0  0  0  0  0  0
    0.6250   13.3750   -1.2830 N   0  0  0  0  0  0  0  0  0  0  0  0
   -0.0720   14.4000   -1.8030 C   0  0  0  0  0  0  0  0  0  0  0  0
    0.3870   15.4800   -2.1300 O   0  0  0  0  0  0  0  0  0  0  0  0
  1  2  3  0
  2  3  1  0
  3  4  1  0
  3  5  2  0
  4  6  2  0
  5  7  1  0
  6  7  1  0
  7  8  1  0
  8  9  1  0
  9 10  2  0
  9 11  1  0
 10 12  1  0
 11 13  2  0
 12 14  2  0
 13 14  1  0
 14 15  1  0
 15 16  1  0
 15 17  1  0
 16 18  1  1
 17 19  2  0
 17 20  1  0
 16 21  1  0
 20 21  1  0
 21 22  2  0
M  END
