x0962_3_A-x0855_0_A
     RDKit          3D

 16 17  0  0  0  0  0  0  0  0999 V2000
    1.7670   10.7790  -10.4370 N   0  0  0  0  0  0  0  0  0  0  0  0
    1.1150   10.2120   -9.6910 C   0  0  0  0  0  0  0  0  0  0  0  0
    0.2680    9.6640   -8.7240 C   0  0  0  0  0  0  0  0  0  0  0  0
   -0.2540    8.3840   -8.6500 N   0  0  0  0  0  0  0  0  0  0  0  0
   -0.1210   10.4160   -7.7290 C   0  0  0  0  0  0  0  0  0  0  0  0
   -0.9870    8.4180   -7.5330 C   0  0  0  0  0  0  0  0  0  0  0  0
   -0.9010    9.6720   -6.9660 N   0  0  0  0  0  0  0  0  0  0  0  0
   -1.3250   10.3980   -5.8970 C   0  0  0  0  0  0  0  0  0  0  0  0
   -0.4030   11.2560   -5.4270 C   0  0  0  0  0  0  0  0  0  0  0  0
   -2.4700   10.5550   -5.1070 C   0  0  0  0  0  0  0  0  0  0  0  0
   -0.9620   11.8960   -4.4100 N   0  0  0  0  0  0  0  0  0  0  0  0
   -2.2370   11.5010   -4.1710 N   0  0  0  0  0  0  0  0  0  0  0  0
   -0.2750   12.8920   -3.6460 C   0  0  0  0  0  0  0  0  0  0  0  0
    0.7530   12.1800   -2.8400 C   0  0  0  0  0  0  0  0  0  0  0  0
    1.7080   12.9960   -2.3560 O   0  0  0  0  0  0  0  0  0  0  0  0
    0.7830   10.9880   -2.6010 O   0  0  0  0  0  0  0  0  0  0  0  0
  1  2  3  0
  2  3  1  0
  3  4  1  0
  3  5  2  0
  4  6  2  0
  5  7  1  0
  6  7  1  0
  7  8  1  0
  8  9  2  0
  8 10  1  0
  9 11  1  0
 10 12  2  0
 11 12  1  0
 11 13  1  0
 13 14  1  0
 14 15  1  0
 14 16  2  0
M  END
