x0962_0_A-x0104_0_A
     RDKit          3D

 17 19  0  0  0  0  0  0  0  0999 V2000
   -4.2670   14.5040   -1.6500 C   0  0  0  0  0  0  0  0  0  0  0  0
   -3.4450   15.2860   -1.3000 C   0  0  0  0  0  0  0  0  0  0  0  0
   -3.9680   15.3480    0.0150 C   0  0  0  0  0  0  0  0  0  0  0  0
   -5.4990   14.1480   -1.1550 O   0  0  0  0  0  0  0  0  0  0  0  0
   -5.1620   14.6670    0.0480 C   0  0  0  0  0  0  0  0  0  0  0  0
   -3.6290   15.8600    1.1910 N   0  0  0  0  0  0  0  0  0  0  0  0
   -5.5990   14.7570    1.3730 N   0  0  0  0  0  0  0  0  0  0  0  0
   -6.7130   14.2480    2.0530 N   0  0  0  0  0  0  0  0  0  0  0  0
   -4.6220   15.5020    1.9920 C   0  0  0  0  0  0  0  0  0  0  0  0
   -7.7500   14.9730    2.6580 C   0  0  0  0  0  0  0  0  0  0  0  0
   -7.7750   14.9630    4.0480 N   0  0  0  0  0  0  0  0  0  0  0  0
   -8.6380   15.5730    2.0530 O   0  0  0  0  0  0  0  0  0  0  0  0
   -8.8410   15.0390    4.9640 C   0  0  0  0  0  0  0  0  0  0  0  0
   -8.9180   15.1880    6.3410 C   0  0  0  0  0  0  0  0  0  0  0  0
  -10.3980   14.9220    4.2680 S   0  0  0  0  0  0  0  0  0  0  0  0
  -11.1820   15.0650    5.7870 C   0  0  0  0  0  0  0  0  0  0  0  0
  -10.2770   15.2020    6.8130 C   0  0  0  0  0  0  0  0  0  0  0  0
  1  2  3  0
  2  3  1  0
  1  4  1  0
  3  5  2  0
  4  5  1  0
  3  6  1  0
  5  7  1  0
  7  8  1  0
  6  9  2  0
  7  9  1  0
  8 10  1  0
 10 11  1  0
 10 12  2  0
 11 13  1  0
 13 14  2  0
 13 15  1  0
 15 16  1  0
 14 17  1  0
 16 17  2  0
M  END
