x0962_0_A-x0844_0_A
     RDKit          3D

  8  8  0  0  0  0  0  0  0  0999 V2000
   -2.1120   14.8120   -2.1000 N   0  0  0  0  0  0  0  0  0  0  0  0
   -2.9480   14.8680   -1.3030 C   0  0  0  0  0  0  0  0  0  0  0  0
   -4.0110   14.8770   -0.3590 C   0  0  0  0  0  0  0  0  0  0  0  0
   -3.8040   14.8760    1.0190 N   0  0  0  0  0  0  0  0  0  0  0  0
   -5.3640   14.8800   -0.6920 C   0  0  0  0  0  0  0  0  0  0  0  0
   -5.0600   14.8760    1.5490 C   0  0  0  0  0  0  0  0  0  0  0  0
   -6.0320   14.8730    0.4670 N   0  0  0  0  0  0  0  0  0  0  0  0
   -7.2680   14.8660    0.6780 O   0  0  0  0  0  0  0  0  0  0  0  0
  1  2  3  0
  2  3  1  0
  3  4  1  0
  3  5  2  0
  4  6  1  0
  5  7  1  0
  6  7  2  0
  7  8  1  0
M  CHG  2   7   1   8  -1
M  END
