x0962_1_A-x0849_0_A
     RDKit          3D

 16 18  0  0  0  0  0  0  0  0999 V2000
   -6.0620   14.8750   -1.7240 C   0  0  0  0  0  0  0  0  0  0  0  0
   -6.5870   14.7850   -0.3400 C   0  0  0  0  0  0  0  0  0  0  0  0
   -5.8060   14.8630    0.7730 N   0  0  0  0  0  0  0  0  0  0  0  0
   -7.8580   14.6150    0.1150 C   0  0  0  0  0  0  0  0  0  0  0  0
   -6.6410   14.7380    1.8590 C   0  0  0  0  0  0  0  0  0  0  0  0
   -7.8930   14.5860    1.4760 N   0  0  0  0  0  0  0  0  0  0  0  0
   -4.4490   15.0310    0.5710 C   0  0  0  0  0  0  0  0  0  0  0  0
   -3.5060   14.6340    1.4250 N   0  0  0  0  0  0  0  0  0  0  0  0
   -4.1910   15.6200   -0.6420 C   0  0  0  0  0  0  0  0  0  0  0  0
   -2.2570   14.8020    1.0450 C   0  0  0  0  0  0  0  0  0  0  0  0
   -2.9130   15.7950   -1.0310 C   0  0  0  0  0  0  0  0  0  0  0  0
   -1.9230   15.3760   -0.1910 C   0  0  0  0  0  0  0  0  0  0  0  0
   -1.3360   14.3990    1.8690 N   0  0  0  0  0  0  0  0  0  0  0  0
   -0.0710   14.5310    1.4970 C   0  0  0  0  0  0  0  0  0  0  0  0
   -0.6050   15.5180   -0.5640 C   0  0  0  0  0  0  0  0  0  0  0  0
    0.3490   15.0810    0.2990 C   0  0  0  0  0  0  0  0  0  0  0  0
  1  2  1  0
  2  3  1  0
  2  4  2  0
  3  5  1  0
  4  6  1  0
  5  6  2  0
  3  7  1  0
  7  8  2  0
  7  9  1  0
  8 10  1  0
  9 11  2  0
 10 12  2  0
 11 12  1  0
 10 13  1  0
 13 14  2  0
 12 15  1  0
 14 16  1  0
 15 16  2  0
M  END
