x0967_0_A-x0290_0_A
     RDKit          3D

 23 25  0  0  0  0  0  0  0  0999 V2000
   -7.2060   12.7430    0.3930 N   0  0  0  0  0  0  0  0  0  0  0  0
   -8.5020   12.4700    1.0010 C   0  0  0  0  0  0  0  0  0  0  0  0
   -6.1160   12.7510    1.4050 C   0  0  0  0  0  0  0  0  0  0  0  0
   -4.7960   13.3320    0.8390 C   0  0  0  0  0  0  0  0  0  0  0  0
   -4.6740   13.8190   -0.3580 N   0  0  0  0  0  0  0  0  0  0  0  0
   -3.6520   13.4130    1.5880 N   0  0  0  0  0  0  0  0  0  0  0  0
   -5.6380   14.0110   -1.3080 N   0  0  0  0  0  0  0  0  0  0  0  0
   -2.4410   13.9070    1.0370 C   0  0  0  0  0  0  0  0  0  0  0  0
   -6.4190   14.9980   -0.5630 C   0  0  1  0  0  0  0  0  0  0  0  0
   -4.8720   14.7390   -2.1710 C   0  0  0  0  0  0  0  0  0  0  0  0
   -1.4030   14.2780    1.8100 N   0  0  0  0  0  0  0  0  0  0  0  0
   -2.3430   13.9870   -0.3590 C   0  0  0  0  0  0  0  0  0  0  0  0
   -7.7370   14.6580    0.0070 N   0  0  0  0  0  0  0  0  0  0  0  0
   -5.2960   15.3300    0.4230 C   0  0  0  0  0  0  0  0  0  0  0  0
   -4.0470   15.6240   -1.5870 C   0  0  0  0  0  0  0  0  0  0  0  0
   -0.2820   14.7110    1.1970 C   0  0  0  0  0  0  0  0  0  0  0  0
   -1.1780   14.4490   -0.9720 C   0  0  0  0  0  0  0  0  0  0  0  0
   -1.0730   14.5380   -2.4630 C   0  0  0  0  0  0  0  0  0  0  0  0
   -5.5610   15.2310    1.8460 C   0  0  0  0  0  0  0  0  0  0  0  0
   -7.8370   14.6460    1.2870 C   0  0  0  0  0  0  0  0  0  0  0  0
   -4.1080   15.6630   -0.1190 C   0  0  0  0  0  0  0  0  0  0  0  0
   -0.1210   14.8150   -0.1620 C   0  0  0  0  0  0  0  0  0  0  0  0
   -6.7850   14.9000    2.2940 C   0  0  0  0  0  0  0  0  0  0  0  0
  1  2  1  0
  1  3  1  0
  3  4  1  0
  4  5  2  3
  4  6  1  0
  5  7  1  0
  6  8  1  0
  7  9  1  0
  7 10  1  0
  8 11  2  0
  8 12  1  0
  9 13  1  1
  9 14  1  0
 10 15  2  0
 11 16  1  0
 12 17  2  0
 17 18  1  0
 14 19  1  0
 13 20  2  0
 14 21  2  0
 15 21  1  0
 16 22  2  0
 17 22  1  0
 19 23  2  0
 20 23  1  0
M  END
