x0962_2_B-x0895_1_A
     RDKit          3D

 15 16  0  0  0  0  0  0  0  0999 V2000
  -10.5170   16.3220    0.8010 N   0  0  0  0  0  0  0  0  0  0  0  0
   -9.7880   15.9990    1.6410 C   0  0  0  0  0  0  0  0  0  0  0  0
   -8.9570   15.6490    2.7340 C   0  0  0  0  0  0  0  0  0  0  0  0
   -9.1260   16.1680    3.9920 N   0  0  0  0  0  0  0  0  0  0  0  0
   -7.8660   14.7920    2.8290 C   0  0  0  0  0  0  0  0  0  0  0  0
   -7.1420   13.9110    1.8330 C   0  0  0  0  0  0  0  0  0  0  0  0
   -8.1720   15.6270    4.7950 C   0  0  0  0  0  0  0  0  0  0  0  0
   -7.4110   14.8010    4.1340 N   0  0  0  0  0  0  0  0  0  0  0  0
   -6.4540   14.5700    0.6850 N   0  0  0  0  0  0  0  0  0  0  0  0
   -5.1640   14.7400    0.5760 C   0  0  0  0  0  0  0  0  0  0  0  0
   -4.5550   15.3040   -0.5120 N   0  0  0  0  0  0  0  0  0  0  0  0
   -4.1750   14.4110    1.4440 N   0  0  0  0  0  0  0  0  0  0  0  0
   -3.2000   14.7820   -0.5720 C   0  0  0  0  0  0  0  0  0  0  0  0
   -2.9350   14.6730    0.9290 C   0  0  0  0  0  0  0  0  0  0  0  0
   -1.8660   14.7860    1.5370 O   0  0  0  0  0  0  0  0  0  0  0  0
  1  2  3  0
  2  3  1  0
  3  4  1  0
  3  5  2  0
  5  6  1  0
  4  7  1  0
  5  8  1  0
  7  8  2  0
  6  9  1  0
  9 10  2  3
 10 11  1  0
 10 12  1  0
 11 13  1  0
 12 14  1  0
 13 14  1  0
 14 15  2  0
M  END
