x0962_2_B_α-x0967_0_A_α
     RDKit          3D

 18 20  0  0  0  0  0  0  0  0999 V2000
  -11.2710   15.8490    1.4670 N   0  0  0  0  0  0  0  0  0  0  0  0
   -9.8180   15.7330    1.4480 C   0  0  2  0  0  0  0  0  0  0  0  0
   -9.2680   14.7110    0.4050 C   0  0  0  0  0  0  0  0  0  0  0  0
   -9.2270   15.4470    2.7920 C   0  0  0  0  0  0  0  0  0  0  0  0
   -9.0030   16.3790    3.7830 N   0  0  0  0  0  0  0  0  0  0  0  0
   -8.7790   14.2620    3.3400 C   0  0  0  0  0  0  0  0  0  0  0  0
   -7.7640   14.7530    0.3450 C   0  0  0  0  0  0  0  0  0  0  0  0
   -8.4410   15.7300    4.8460 C   0  0  0  0  0  0  0  0  0  0  0  0
   -8.2970   14.4460    4.6060 N   0  0  0  0  0  0  0  0  0  0  0  0
   -7.0840   14.7290   -0.8370 N   0  0  0  0  0  0  0  0  0  0  0  0
   -7.1200   14.8440    1.5560 C   0  0  0  0  0  0  0  0  0  0  0  0
   -5.7420   14.8090   -0.8120 C   0  0  0  0  0  0  0  0  0  0  0  0
   -5.7560   14.9380    1.5690 C   0  0  0  0  0  0  0  0  0  0  0  0
   -5.0440   14.9170    0.3960 C   0  0  0  0  0  0  0  0  0  0  0  0
   -5.0830   14.7870   -1.9670 N   0  0  0  0  0  0  0  0  0  0  0  0
   -3.7320   14.8710   -1.9400 C   0  0  0  0  0  0  0  0  0  0  0  0
   -3.6520   15.0060    0.4110 C   0  0  0  0  0  0  0  0  0  0  0  0
   -2.9780   14.9800   -0.7890 C   0  0  0  0  0  0  0  0  0  0  0  0
  2  1  1  1
  2  3  1  0
  2  4  1  0
  4  5  1  0
  4  6  2  0
  3  7  1  0
  5  8  1  0
  6  9  1  0
  8  9  2  0
  7 10  2  0
  7 11  1  0
 10 12  1  0
 11 13  2  0
 12 14  2  0
 13 14  1  0
 12 15  1  0
 15 16  2  0
 14 17  1  0
 16 18  1  0
 17 18  2  0
M  END
