x0962_0_A-x0290_0_A
     RDKit          3D

 19 20  0  0  0  0  0  0  0  0999 V2000
   -2.2280   14.8330   -1.9770 C   0  0  0  0  0  0  0  0  0  0  0  0
   -3.3240   14.9700   -2.3280 C   0  0  0  0  0  0  0  0  0  0  0  0
   -4.6610   15.0610   -1.9210 C   0  0  0  0  0  0  0  0  0  0  0  0
   -1.5720   14.7230   -0.7710 C   0  0  0  0  0  0  0  0  0  0  0  0
   -0.3020   14.8490   -0.2600 C   0  0  0  0  0  0  0  0  0  0  0  0
   -2.6320   14.4260    0.0170 C   0  0  0  0  0  0  0  0  0  0  0  0
   -4.8770   15.1510   -0.5690 N   0  0  0  0  0  0  0  0  0  0  0  0
   -5.9060   15.0810   -2.4740 C   0  0  0  0  0  0  0  0  0  0  0  0
   -0.2630   14.6570    1.1260 C   0  0  0  0  0  0  0  0  0  0  0  0
   -2.5290   14.2520    1.3070 C   0  0  0  0  0  0  0  0  0  0  0  0
   -3.6920   13.9540    1.9930 N   0  0  0  0  0  0  0  0  0  0  0  0
   -6.1980   15.2080   -0.3530 C   0  0  0  0  0  0  0  0  0  0  0  0
   -6.8620   15.1730   -1.4800 N   0  0  0  0  0  0  0  0  0  0  0  0
   -1.3410   14.3650    1.9120 N   0  0  0  0  0  0  0  0  0  0  0  0
   -4.8700   13.5210    1.3930 C   0  0  0  0  0  0  0  0  0  0  0  0
   -4.9530   13.0090    0.2780 O   0  0  0  0  0  0  0  0  0  0  0  0
   -6.1550   13.7200    2.2230 C   0  0  0  0  0  0  0  0  0  0  0  0
   -7.4020   13.5120    1.4260 N   0  0  0  0  0  0  0  0  0  0  0  0
   -8.3440   14.6260    1.5690 C   0  0  0  0  0  0  0  0  0  0  0  0
  1  2  3  0
  2  3  1  0
  1  4  1  0
  4  5  2  0
  4  6  1  0
  3  7  1  0
  3  8  2  0
  5  9  1  0
  6 10  2  0
 10 11  1  0
  7 12  1  0
  8 13  1  0
 12 13  2  0
  9 14  2  0
 10 14  1  0
 11 15  1  0
 15 16  2  0
 15 17  1  0
 17 18  1  0
 18 19  1  0
M  END
