x0962_2_B-x1018_0_A
     RDKit          3D

 18 20  0  0  0  0  0  0  0  0999 V2000
  -10.2620   16.4370    1.2490 N   0  0  0  0  0  0  0  0  0  0  0  0
   -9.9590   15.1430    1.8550 C   0  0  1  0  0  0  0  0  0  0  0  0
   -9.1520   14.2250    0.9220 C   0  0  0  0  0  0  0  0  0  0  0  0
   -9.1790   15.2760    3.0990 C   0  0  0  0  0  0  0  0  0  0  0  0
   -8.3240   15.0060   -0.0820 C   0  0  0  0  0  0  0  0  0  0  0  0
   -9.1300   16.3550    3.9460 N   0  0  0  0  0  0  0  0  0  0  0  0
   -8.3480   14.3460    3.6650 C   0  0  0  0  0  0  0  0  0  0  0  0
   -8.2830   16.0210    4.9640 C   0  0  0  0  0  0  0  0  0  0  0  0
   -7.8040   14.8130    4.8160 N   0  0  0  0  0  0  0  0  0  0  0  0
   -6.8040   14.8550   -0.1030 C   0  0  0  0  0  0  0  0  0  0  0  0
   -6.3140   14.9090   -1.2930 N   0  0  0  0  0  0  0  0  0  0  0  0
   -5.9750   14.7110    1.1510 C   0  0  0  0  0  0  0  0  0  0  0  0
   -4.9740   14.8410   -1.3300 N   0  0  0  0  0  0  0  0  0  0  0  0
   -4.6320   14.6620    1.0070 C   0  0  0  0  0  0  0  0  0  0  0  0
   -4.3010   14.8880   -2.4820 N   0  0  0  0  0  0  0  0  0  0  0  0
   -4.0920   14.7270   -0.2870 C   0  0  0  0  0  0  0  0  0  0  0  0
   -2.8750   14.7040   -0.7780 N   0  0  0  0  0  0  0  0  0  0  0  0
   -3.0260   14.8040   -2.1410 N   0  0  0  0  0  0  0  0  0  0  0  0
  2  1  1  6
  2  3  1  0
  2  4  1  0
  3  5  1  0
  4  6  1  0
  4  7  2  0
  6  8  1  0
  7  9  1  0
  8  9  2  0
  5 10  1  0
 10 11  2  0
 10 12  1  0
 11 13  1  0
 12 14  2  0
 13 15  1  0
 13 16  1  0
 14 16  1  0
 16 17  2  0
 15 18  2  0
 17 18  1  0
M  END
