x0962_2_B_α-x0591_0_A_α
     RDKit          3D

 21 22  0  0  0  0  0  0  0  0999 V2000
  -10.5910   16.3590    0.8780 N   0  0  0  0  0  0  0  0  0  0  0  0
   -9.8450   16.0240    1.6990 C   0  0  0  0  0  0  0  0  0  0  0  0
   -8.9830   15.6620    2.7620 C   0  0  0  0  0  0  0  0  0  0  0  0
   -9.0980   16.1720    4.0280 N   0  0  0  0  0  0  0  0  0  0  0  0
   -7.9010   14.7880    2.8070 C   0  0  0  0  0  0  0  0  0  0  0  0
   -7.2460   13.9150    1.7620 C   0  0  0  0  0  0  0  0  0  0  0  0
   -8.1220   15.6130    4.7940 C   0  0  0  0  0  0  0  0  0  0  0  0
   -7.3970   14.7810    4.0940 N   0  0  0  0  0  0  0  0  0  0  0  0
   -6.2200   14.6160    0.9800 N   0  0  0  0  0  0  0  0  0  0  0  0
   -6.4380   14.8230   -0.3710 C   0  0  0  0  0  0  0  0  0  0  0  0
   -7.5590   15.0660   -0.7940 O   0  0  0  0  0  0  0  0  0  0  0  0
   -5.3250   14.7460   -1.3820 C   0  0  0  0  0  0  0  0  0  0  0  0
   -3.9580   14.5430   -1.1040 C   0  0  0  0  0  0  0  0  0  0  0  0
   -5.7230   14.8880   -2.7110 C   0  0  0  0  0  0  0  0  0  0  0  0
   -3.0260   14.4860   -2.1630 C   0  0  0  0  0  0  0  0  0  0  0  0
   -4.8050   14.8270   -3.7560 C   0  0  0  0  0  0  0  0  0  0  0  0
   -3.4610   14.6270   -3.4870 C   0  0  0  0  0  0  0  0  0  0  0  0
   -2.3510   14.5580   -4.8750 S   0  0  0  0  0  0  0  0  0  0  0  0
   -1.0920   15.5830   -4.4340 N   0  0  0  0  0  0  0  0  0  0  0  0
   -1.7730   13.2360   -4.9210 O   0  0  0  0  0  0  0  0  0  0  0  0
   -3.0190   15.1460   -6.0110 O   0  0  0  0  0  0  0  0  0  0  0  0
  1  2  3  0
  2  3  1  0
  3  4  1  0
  3  5  2  0
  5  6  1  0
  4  7  1  0
  5  8  1  0
  7  8  2  0
  6  9  1  0
  9 10  1  0
 10 11  2  0
 10 12  1  0
 12 13  2  0
 12 14  1  0
 13 15  1  0
 14 16  2  0
 15 17  2  0
 16 17  1  0
 17 18  1  0
 18 19  1  0
 18 20  2  0
 18 21  2  0
M  END
