x0962_0_A-x0587_0_A
     RDKit          3D

 13 13  0  0  0  0  0  0  0  0999 V2000
   -2.3930   14.4700   -1.2090 N   0  0  0  0  0  0  0  0  0  0  0  0
   -3.7310   15.0990   -1.3170 C   0  0  1  0  0  0  0  0  0  0  0  0
   -4.6520   14.4430   -2.3330 C   0  0  0  0  0  0  0  0  0  0  0  0
   -4.4780   15.1080   -0.0260 C   0  0  0  0  0  0  0  0  0  0  0  0
   -4.3920   13.1250   -2.4540 F   0  0  0  0  0  0  0  0  0  0  0  0
   -4.4870   15.0250   -3.5410 F   0  0  0  0  0  0  0  0  0  0  0  0
   -3.8810   15.3800    1.1680 N   0  0  0  0  0  0  0  0  0  0  0  0
   -5.8380   14.8640    0.1500 C   0  0  0  0  0  0  0  0  0  0  0  0
   -4.8630   15.3140    2.0470 C   0  0  0  0  0  0  0  0  0  0  0  0
   -6.1090   14.9980    1.5030 N   0  0  0  0  0  0  0  0  0  0  0  0
   -7.3570   14.8770    2.2440 C   0  0  0  0  0  0  0  0  0  0  0  0
   -7.2280   14.9660    3.5930 N   0  0  0  0  0  0  0  0  0  0  0  0
   -8.4440   14.7370    1.6940 O   0  0  0  0  0  0  0  0  0  0  0  0
  2  1  1  1
  2  3  1  0
  2  4  1  0
  3  5  1  0
  3  6  1  0
  4  7  1  0
  4  8  2  0
  7  9  2  0
  8 10  1  0
  9 10  1  0
 10 11  1  0
 11 12  1  0
 11 13  2  0
M  END
