x0962_1_A_α-x0849_0_A_α
     RDKit          3D

 16 18  0  0  0  0  0  0  0  0999 V2000
   -6.0690   14.8700   -1.7300 C   0  0  0  0  0  0  0  0  0  0  0  0
   -6.5920   14.7770   -0.3400 C   0  0  0  0  0  0  0  0  0  0  0  0
   -5.8100   14.8560    0.7690 N   0  0  0  0  0  0  0  0  0  0  0  0
   -7.8640   14.6040    0.1140 C   0  0  0  0  0  0  0  0  0  0  0  0
   -6.6410   14.7300    1.8580 C   0  0  0  0  0  0  0  0  0  0  0  0
   -7.8960   14.5750    1.4770 N   0  0  0  0  0  0  0  0  0  0  0  0
   -4.4500   15.0260    0.5600 C   0  0  0  0  0  0  0  0  0  0  0  0
   -3.5110   14.6370    1.4200 N   0  0  0  0  0  0  0  0  0  0  0  0
   -4.1900   15.6060   -0.6570 C   0  0  0  0  0  0  0  0  0  0  0  0
   -2.2590   14.8040    1.0460 C   0  0  0  0  0  0  0  0  0  0  0  0
   -2.9070   15.7810   -1.0450 C   0  0  0  0  0  0  0  0  0  0  0  0
   -1.9230   15.3700   -0.1940 C   0  0  0  0  0  0  0  0  0  0  0  0
   -1.3410   14.4110    1.8790 N   0  0  0  0  0  0  0  0  0  0  0  0
   -0.0750   14.5410    1.5150 C   0  0  0  0  0  0  0  0  0  0  0  0
   -0.6000   15.5110   -0.5580 C   0  0  0  0  0  0  0  0  0  0  0  0
    0.3520   15.0830    0.3160 C   0  0  0  0  0  0  0  0  0  0  0  0
  1  2  1  0
  2  3  1  0
  2  4  2  0
  3  5  1  0
  4  6  1  0
  5  6  2  0
  3  7  1  0
  7  8  2  0
  7  9  1  0
  8 10  1  0
  9 11  2  0
 10 12  2  0
 11 12  1  0
 10 13  1  0
 13 14  2  0
 12 15  1  0
 14 16  1  0
 15 16  2  0
M  END
