x0962_0_A_α-x0837_0_A_α
     RDKit          3D

  8  8  0  0  0  0  0  0  0  0999 V2000
   -2.1540   14.8230   -2.1150 N   0  0  0  0  0  0  0  0  0  0  0  0
   -2.9720   14.8750   -1.3010 C   0  0  0  0  0  0  0  0  0  0  0  0
   -4.0140   14.8870   -0.3350 C   0  0  0  0  0  0  0  0  0  0  0  0
   -3.7830   14.9570    1.0370 N   0  0  0  0  0  0  0  0  0  0  0  0
   -5.3710   14.8260   -0.6420 C   0  0  0  0  0  0  0  0  0  0  0  0
   -5.0280   14.9340    1.5930 C   0  0  0  0  0  0  0  0  0  0  0  0
   -6.0180   14.8490    0.5330 N   0  0  0  0  0  0  0  0  0  0  0  0
   -7.2510   14.8100    0.7750 O   0  0  0  0  0  0  0  0  0  0  0  0
  1  2  3  0
  2  3  1  0
  3  4  1  0
  3  5  2  0
  4  6  1  0
  5  7  1  0
  6  7  2  0
  7  8  1  0
M  CHG  2   7   1   8  -1
M  END
