x0962_1_A-x0685_0_A
     RDKit          3D

 11 11  0  0  0  0  0  0  0  0999 V2000
   -3.7710   15.1000   -2.2120 C   0  0  0  0  0  0  0  0  0  0  0  0
   -3.8040   15.0990   -0.7500 C   0  0  0  0  0  0  0  0  0  0  0  0
   -5.1210   14.8790   -0.1120 C   0  0  0  0  0  0  0  0  0  0  0  0
   -3.6650   15.1150   -3.3670 N   0  0  0  0  0  0  0  0  0  0  0  0
   -5.2440   15.0580    1.2200 N   0  0  0  0  0  0  0  0  0  0  0  0
   -6.3840   14.5090   -0.5300 C   0  0  0  0  0  0  0  0  0  0  0  0
   -6.5200   14.8040    1.5730 C   0  0  0  0  0  0  0  0  0  0  0  0
   -7.2520   14.4640    0.5350 N   0  0  0  0  0  0  0  0  0  0  0  0
   -6.8060   14.9440    2.8570 N   0  0  0  0  0  0  0  0  0  0  0  0
   -8.1330   14.6080    3.2690 C   0  0  0  0  0  0  0  0  0  0  0  0
   -8.2550   13.0980    3.2250 C   0  0  0  0  0  0  0  0  0  0  0  0
  1  2  1  0
  2  3  1  0
  1  4  3  0
  3  5  1  0
  3  6  2  0
  5  7  1  0
  6  8  1  0
  7  8  2  0
  7  9  1  0
  9 10  1  0
 10 11  1  0
M  END
