x0962_2_B-x0591_0_A
     RDKit          3D

 21 22  0  0  0  0  0  0  0  0999 V2000
  -10.5860   16.3520    0.8780 N   0  0  0  0  0  0  0  0  0  0  0  0
   -9.8380   16.0250    1.7010 C   0  0  0  0  0  0  0  0  0  0  0  0
   -8.9780   15.6630    2.7640 C   0  0  0  0  0  0  0  0  0  0  0  0
   -9.0980   16.1750    4.0300 N   0  0  0  0  0  0  0  0  0  0  0  0
   -7.8980   14.7890    2.8110 C   0  0  0  0  0  0  0  0  0  0  0  0
   -7.2470   13.9170    1.7610 C   0  0  0  0  0  0  0  0  0  0  0  0
   -8.1230   15.6130    4.7970 C   0  0  0  0  0  0  0  0  0  0  0  0
   -7.3980   14.7810    4.1020 N   0  0  0  0  0  0  0  0  0  0  0  0
   -6.2190   14.6130    0.9790 N   0  0  0  0  0  0  0  0  0  0  0  0
   -6.4430   14.8250   -0.3730 C   0  0  0  0  0  0  0  0  0  0  0  0
   -7.5600   15.0690   -0.7960 O   0  0  0  0  0  0  0  0  0  0  0  0
   -5.3260   14.7430   -1.3830 C   0  0  0  0  0  0  0  0  0  0  0  0
   -3.9630   14.5440   -1.1040 C   0  0  0  0  0  0  0  0  0  0  0  0
   -5.7250   14.8820   -2.7150 C   0  0  0  0  0  0  0  0  0  0  0  0
   -3.0240   14.4860   -2.1620 C   0  0  0  0  0  0  0  0  0  0  0  0
   -4.8010   14.8210   -3.7580 C   0  0  0  0  0  0  0  0  0  0  0  0
   -3.4590   14.6260   -3.4870 C   0  0  0  0  0  0  0  0  0  0  0  0
   -2.3510   14.5560   -4.8790 S   0  0  0  0  0  0  0  0  0  0  0  0
   -1.0960   15.5850   -4.4360 N   0  0  0  0  0  0  0  0  0  0  0  0
   -1.7690   13.2360   -4.9340 O   0  0  0  0  0  0  0  0  0  0  0  0
   -3.0260   15.1470   -6.0120 O   0  0  0  0  0  0  0  0  0  0  0  0
  1  2  3  0
  2  3  1  0
  3  4  1  0
  3  5  2  0
  5  6  1  0
  4  7  1  0
  5  8  1  0
  7  8  2  0
  6  9  1  0
  9 10  1  0
 10 11  2  0
 10 12  1  0
 12 13  2  0
 12 14  1  0
 13 15  1  0
 14 16  2  0
 15 17  2  0
 16 17  1  0
 17 18  1  0
 18 19  1  0
 18 20  2  0
 18 21  2  0
M  END
