x0962_1_A-x0962_2_B
     RDKit          3D

 15 16  0  0  0  0  0  0  0  0999 V2000
   -3.3790   15.2270   -1.7400 N   0  0  0  0  0  0  0  0  0  0  0  0
   -4.3040   15.1090   -1.0530 C   0  0  0  0  0  0  0  0  0  0  0  0
   -5.4590   14.9220   -0.2410 C   0  0  0  0  0  0  0  0  0  0  0  0
   -5.3580   14.6480    1.0920 N   0  0  0  0  0  0  0  0  0  0  0  0
   -6.7740   14.9840   -0.6390 C   0  0  0  0  0  0  0  0  0  0  0  0
   -6.5990   14.5390    1.5160 C   0  0  0  0  0  0  0  0  0  0  0  0
   -7.5000   14.7400    0.4920 N   0  0  0  0  0  0  0  0  0  0  0  0
   -8.9510   14.7110    0.5750 C   0  0  0  0  0  0  0  0  0  0  0  0
   -9.5700   15.7460    1.5530 C   0  0  1  0  0  0  0  0  0  0  0  0
  -11.0350   15.7810    1.5390 N   0  0  0  0  0  0  0  0  0  0  0  0
   -9.0520   15.4820    2.9180 C   0  0  0  0  0  0  0  0  0  0  0  0
   -9.0570   16.3780    3.9680 N   0  0  0  0  0  0  0  0  0  0  0  0
   -8.4730   14.3480    3.4350 C   0  0  0  0  0  0  0  0  0  0  0  0
   -8.4820   15.7520    5.0370 C   0  0  0  0  0  0  0  0  0  0  0  0
   -8.1270   14.5240    4.7440 N   0  0  0  0  0  0  0  0  0  0  0  0
  1  2  3  0
  2  3  1  0
  3  4  1  0
  3  5  2  0
  4  6  2  0
  5  7  1  0
  6  7  1  0
  7  8  1  0
  8  9  1  0
  9 10  1  1
  9 11  1  0
 11 12  1  0
 11 13  2  0
 12 14  1  0
 13 15  1  0
 14 15  2  0
M  END
