x0962_1_A_α-x0689_0_A_α
     RDKit          3D

 14 15  0  0  0  0  0  0  0  0999 V2000
   -4.1940   15.4540   -1.3890 N   0  0  0  0  0  0  0  0  0  0  0  0
   -4.3920   14.7680   -0.1220 C   0  0  1  0  0  0  0  0  0  0  0  0
   -3.5550   15.0590    0.9900 N   0  0  0  0  0  0  0  0  0  0  0  0
   -5.7980   14.7220    0.2670 C   0  0  0  0  0  0  0  0  0  0  0  0
   -6.1300   14.5460    1.5870 N   0  0  0  0  0  0  0  0  0  0  0  0
   -6.9950   14.8150   -0.3930 C   0  0  0  0  0  0  0  0  0  0  0  0
   -2.2660   14.7820    0.7600 C   0  0  0  0  0  0  0  0  0  0  0  0
   -7.4770   14.5400    1.6760 C   0  0  0  0  0  0  0  0  0  0  0  0
   -8.0360   14.6990    0.4960 N   0  0  0  0  0  0  0  0  0  0  0  0
   -1.9960   14.7860   -0.5480 N   0  0  0  0  0  0  0  0  0  0  0  0
   -1.3940   14.5380    1.7230 N   0  0  0  0  0  0  0  0  0  0  0  0
   -0.7440   14.5330   -0.9090 C   0  0  0  0  0  0  0  0  0  0  0  0
   -0.1550   14.2920    1.3160 C   0  0  0  0  0  0  0  0  0  0  0  0
    0.2390   14.2770   -0.0080 C   0  0  0  0  0  0  0  0  0  0  0  0
  2  1  1  6
  2  3  1  0
  2  4  1  0
  4  5  1  0
  4  6  2  0
  3  7  1  0
  5  8  1  0
  6  9  1  0
  8  9  2  0
  7 10  2  0
  7 11  1  0
 10 12  1  0
 11 13  2  0
 12 14  2  0
 13 14  1  0
M  END
