x0969_0_A-x0855_0_A
     RDKit          3D

 23 25  0  0  0  0  0  0  0  0999 V2000
   -6.7220   14.8480    2.4810 N   0  0  0  0  0  0  0  0  0  0  0  0
   -6.5180   14.7830    1.1440 C   0  0  0  0  0  0  0  0  0  0  0  0
   -7.4350   14.6860    0.2120 N   0  0  0  0  0  0  0  0  0  0  0  0
   -5.2580   14.8160    0.5570 N   0  0  0  0  0  0  0  0  0  0  0  0
   -6.8030   14.6440   -1.0120 N   0  0  0  0  0  0  0  0  0  0  0  0
   -5.5060   14.7120   -0.8000 C   0  0  0  0  0  0  0  0  0  0  0  0
   -3.9760   14.9180    1.0960 C   0  0  0  0  0  0  0  0  0  0  0  0
   -4.3810   14.6730   -1.6720 C   0  0  0  0  0  0  0  0  0  0  0  0
   -2.9140   14.8710    0.2800 C   0  0  0  0  0  0  0  0  0  0  0  0
   -3.1230   14.7190   -1.1620 C   0  0  0  0  0  0  0  0  0  0  0  0
   -1.8870   14.5960   -2.0250 C   0  0  0  0  0  0  0  0  0  0  0  0
   -1.0080   13.3700   -1.6910 C   0  0  0  0  0  0  0  0  0  0  0  0
    0.4730   13.7050   -1.4430 C   0  0  0  0  0  0  0  0  0  0  0  0
    1.3720   13.0780   -2.3820 O   0  0  0  0  0  0  0  0  0  0  0  0
    0.8750   12.0830   -3.1560 C   0  0  0  0  0  0  0  0  0  0  0  0
    0.6460   10.9500   -2.7420 O   0  0  0  0  0  0  0  0  0  0  0  0
    0.6100   12.4950   -4.5820 C   0  0  0  0  0  0  0  0  0  0  0  0
   -0.4450   11.6750   -5.1360 N   0  0  0  0  0  0  0  0  0  0  0  0
   -0.3280   10.7330   -6.1200 C   0  0  0  0  0  0  0  0  0  0  0  0
   -1.7130   11.7980   -4.6620 N   0  0  0  0  0  0  0  0  0  0  0  0
   -1.5810   10.2160   -6.2780 C   0  0  0  0  0  0  0  0  0  0  0  0
   -2.3980   10.8960   -5.3700 C   0  0  0  0  0  0  0  0  0  0  0  0
   -2.1290    8.8760   -7.4510 Br  0  0  0  0  0  0  0  0  0  0  0  0
  1  2  1  0
  2  3  2  0
  2  4  1  0
  3  5  1  0
  4  6  1  0
  5  6  2  0
  4  7  1  0
  6  8  1  0
  7  9  2  0
  8 10  2  0
  9 10  1  0
 10 11  1  0
 11 12  1  0
 12 13  1  0
 13 14  1  0
 14 15  1  0
 15 16  2  0
 15 17  1  0
 17 18  1  0
 18 19  1  0
 18 20  1  0
 19 21  2  0
 20 22  2  0
 21 22  1  0
 21 23  1  0
M  END
