x0962_2_B_α-x0926_0_A_α
     RDKit          3D

 16 17  0  0  0  0  0  0  0  0999 V2000
  -10.5920   16.8050    1.4000 N   0  0  0  0  0  0  0  0  0  0  0  0
   -9.8780   15.5390    1.4630 C   0  0  1  0  0  0  0  0  0  0  0  0
   -8.9740   15.3540    0.2300 C   0  0  0  0  0  0  0  0  0  0  0  0
   -9.1500   15.3490    2.7550 C   0  0  0  0  0  0  0  0  0  0  0  0
   -7.6550   14.6040    0.4720 C   0  0  0  0  0  0  0  0  0  0  0  0
   -9.0750   16.2850    3.7660 N   0  0  0  0  0  0  0  0  0  0  0  0
   -8.4260   14.2790    3.2330 C   0  0  0  0  0  0  0  0  0  0  0  0
   -6.7780   14.9160   -0.6600 N   0  0  0  0  0  0  0  0  0  0  0  0
   -8.3240   15.7430    4.7760 C   0  0  0  0  0  0  0  0  0  0  0  0
   -7.9290   14.5320    4.4790 N   0  0  0  0  0  0  0  0  0  0  0  0
   -5.5020   15.0710   -0.4750 C   0  0  0  0  0  0  0  0  0  0  0  0
   -4.9760   14.8950    0.9710 C   0  0  0  0  0  0  0  0  0  0  0  0
   -4.5690   15.3710   -1.4550 N   0  0  0  0  0  0  0  0  0  0  0  0
   -3.2470   15.0740   -1.2540 N   0  0  0  0  0  0  0  0  0  0  0  0
   -3.4840   14.9400    1.0950 C   0  0  0  0  0  0  0  0  0  0  0  0
   -2.7200   15.0200    0.0080 C   0  0  0  0  0  0  0  0  0  0  0  0
  2  1  1  1
  2  3  1  0
  2  4  1  0
  3  5  1  0
  4  6  1  0
  4  7  2  0
  5  8  1  0
  6  9  1  0
  7 10  1  0
  9 10  2  0
  8 11  2  3
 11 12  1  0
 11 13  1  0
 13 14  1  0
 12 15  1  0
 14 16  1  0
 15 16  2  0
M  END
