x0962_3_A_α-x0742_0_A_α
     RDKit          3D

 28 31  0  0  0  0  0  0  0  0999 V2000
    1.5830   11.9640   -7.0550 N   0  0  0  0  0  0  0  0  0  0  0  0
    0.9090   11.0690   -7.2940 C   0  0  0  0  0  0  0  0  0  0  0  0
    0.0460    9.9780   -7.4660 C   0  0  0  0  0  0  0  0  0  0  0  0
    0.1210    9.0310   -8.4480 N   0  0  0  0  0  0  0  0  0  0  0  0
   -1.0400    9.6300   -6.6950 C   0  0  0  0  0  0  0  0  0  0  0  0
   -1.5960   10.2990   -5.4760 C   0  0  0  0  0  0  0  0  0  0  0  0
   -0.9050    8.1570   -8.2460 C   0  0  0  0  0  0  0  0  0  0  0  0
   -1.6250    8.4930   -7.1980 N   0  0  0  0  0  0  0  0  0  0  0  0
   -0.5910   10.4370   -4.3180 C   0  0  0  0  0  0  0  0  0  0  0  0
   -1.1120   10.9500   -2.9570 C   0  0  0  0  0  0  0  0  0  0  0  0
   -2.6090   10.7280   -2.6980 C   0  0  0  0  0  0  0  0  0  0  0  0
   -3.3790   12.0030   -2.3160 C   0  0  0  0  0  0  0  0  0  0  0  0
   -4.4400   11.6980   -1.3570 N   0  0  0  0  0  0  0  0  0  0  0  0
   -5.1090   12.5630   -0.6480 C   0  0  0  0  0  0  0  0  0  0  0  0
   -6.1750   12.0920    0.3260 C   0  0  0  0  0  0  0  0  0  0  0  0
   -4.8520   14.1310   -0.7730 C   0  0  2  0  0  0  0  0  0  0  0  0
   -5.0320   14.8410    0.5910 C   0  0  0  0  0  0  0  0  0  0  0  0
   -5.7950   14.6790   -1.8510 C   0  0  0  0  0  0  0  0  0  0  0  0
   -3.5290   14.7210   -1.3040 C   0  0  2  0  0  0  0  0  0  0  0  0
   -3.5480   14.6370   -2.8310 C   0  0  0  0  0  0  0  0  0  0  0  0
   -2.3230   14.5040   -0.4400 C   0  0  0  0  0  0  0  0  0  0  0  0
   -3.8790   14.5220    1.5630 C   0  0  0  0  0  0  0  0  0  0  0  0
   -5.0310   14.3930   -3.1530 C   0  0  0  0  0  0  0  0  0  0  0  0
   -1.0270   14.3890   -0.9370 C   0  0  0  0  0  0  0  0  0  0  0  0
   -2.5070   14.4250    0.9500 C   0  0  0  0  0  0  0  0  0  0  0  0
   -1.4920   14.2600    1.8200 N   0  0  0  0  0  0  0  0  0  0  0  0
    0.0260   14.2100   -0.0520 C   0  0  0  0  0  0  0  0  0  0  0  0
   -0.2640   14.1560    1.3050 C   0  0  0  0  0  0  0  0  0  0  0  0
  1  2  3  0
  2  3  1  0
  3  4  1  0
  3  5  2  0
  5  6  1  0
  4  7  1  0
  5  8  1  0
  7  8  2  0
  6  9  1  0
  9 10  1  0
 10 11  1  0
 11 12  1  0
 12 13  1  0
 13 14  2  3
 14 15  1  0
 16 14  1  1
 16 17  1  0
 16 18  1  0
 16 19  1  0
 19 20  1  6
 19 21  1  0
 17 22  1  0
 18 23  1  0
 20 23  1  0
 21 24  1  0
 21 25  2  0
 22 25  1  0
 25 26  1  0
 24 27  2  0
 26 28  2  0
 27 28  1  0
M  END
