x0969_0_A-x0685_0_A
     RDKit          3D

 14 15  0  0  0  0  0  0  0  0999 V2000
   -6.6720   14.9540    2.6590 N   0  0  0  0  0  0  0  0  0  0  0  0
   -7.8970   14.5760    3.3300 C   0  0  0  0  0  0  0  0  0  0  0  0
   -8.0620   13.0790    3.1910 C   0  0  0  0  0  0  0  0  0  0  0  0
   -6.6420   14.8370    1.3150 C   0  0  0  0  0  0  0  0  0  0  0  0
   -7.6770   14.6470    0.5290 N   0  0  0  0  0  0  0  0  0  0  0  0
   -5.4900   14.9270    0.5590 N   0  0  0  0  0  0  0  0  0  0  0  0
   -7.2380   14.6210   -0.7660 N   0  0  0  0  0  0  0  0  0  0  0  0
   -5.9420   14.7920   -0.7420 C   0  0  0  0  0  0  0  0  0  0  0  0
   -4.1450   15.1140    0.8920 C   0  0  0  0  0  0  0  0  0  0  0  0
   -5.0010   14.8590   -1.7720 C   0  0  0  0  0  0  0  0  0  0  0  0
   -3.2400   15.1600   -0.1000 C   0  0  0  0  0  0  0  0  0  0  0  0
   -3.7110   15.0310   -1.4890 C   0  0  0  0  0  0  0  0  0  0  0  0
   -2.8440   15.0880   -2.5930 C   0  0  0  0  0  0  0  0  0  0  0  0
   -2.1890   15.1420   -3.5370 N   0  0  0  0  0  0  0  0  0  0  0  0
  1  2  1  0
  2  3  1  0
  1  4  1  0
  4  5  2  0
  4  6  1  0
  5  7  1  0
  6  8  1  0
  7  8  2  0
  6  9  1  0
  8 10  1  0
  9 11  2  0
 10 12  2  0
 11 12  1  0
 12 13  1  0
 13 14  3  0
M  END
