x0962_3_A_α-x0587_0_A_α
     RDKit          3D

 26 27  0  0  0  0  0  0  0  0999 V2000
    0.9630   11.4260   -8.8550 N   0  0  0  0  0  0  0  0  0  0  0  0
    0.9800   10.8940   -7.5150 C   0  0  1  0  0  0  0  0  0  0  0  0
    0.7380   11.9430   -6.3950 C   0  0  0  0  0  0  0  0  0  0  0  0
   -0.0210    9.8200   -7.5280 C   0  0  0  0  0  0  0  0  0  0  0  0
   -0.1970   11.4430   -5.2690 C   0  0  0  0  0  0  0  0  0  0  0  0
    0.2120    8.5980   -8.1090 N   0  0  0  0  0  0  0  0  0  0  0  0
   -1.2980    9.7370   -7.0360 C   0  0  0  0  0  0  0  0  0  0  0  0
    0.1060   12.0010   -3.8660 C   0  0  0  0  0  0  0  0  0  0  0  0
   -0.9110    7.8490   -7.9440 C   0  0  0  0  0  0  0  0  0  0  0  0
   -1.8390    8.5110   -7.2980 N   0  0  0  0  0  0  0  0  0  0  0  0
   -0.9800   11.7340   -2.8060 C   0  0  0  0  0  0  0  0  0  0  0  0
   -1.8790   12.9180   -2.3990 C   0  0  0  0  0  0  0  0  0  0  0  0
   -3.1250   12.5450   -1.5830 C   0  0  0  0  0  0  0  0  0  0  0  0
   -4.2800   13.2350   -2.0440 O   0  0  0  0  0  0  0  0  0  0  0  0
   -4.4220   14.5470   -1.4760 C   0  0  0  0  0  0  0  0  0  0  0  0
   -3.1910   14.9910   -1.0810 F   0  0  0  0  0  0  0  0  0  0  0  0
   -4.7540   15.3460   -2.5310 F   0  0  0  0  0  0  0  0  0  0  0  0
   -5.4710   14.6060   -0.3430 C   0  0  0  0  0  0  0  0  0  0  0  0
   -6.7870   14.4850   -0.6520 N   0  0  0  0  0  0  0  0  0  0  0  0
   -5.0260   14.7870    0.9260 N   0  0  0  0  0  0  0  0  0  0  0  0
   -7.6800   14.5620    0.3640 C   0  0  0  0  0  0  0  0  0  0  0  0
   -5.9650   14.8560    1.9000 C   0  0  0  0  0  0  0  0  0  0  0  0
   -7.3240   14.7540    1.6780 C   0  0  0  0  0  0  0  0  0  0  0  0
   -8.2610   14.8660    2.8080 C   0  0  0  0  0  0  0  0  0  0  0  0
   -7.7450   14.8590    4.0690 N   0  0  0  0  0  0  0  0  0  0  0  0
   -9.4670   14.9790    2.6200 O   0  0  0  0  0  0  0  0  0  0  0  0
  2  1  1  6
  2  3  1  0
  2  4  1  0
  3  5  1  0
  4  6  1  0
  4  7  2  0
  5  8  1  0
  6  9  1  0
  7 10  1  0
  9 10  2  0
  8 11  1  0
 11 12  1  0
 12 13  1  0
 13 14  1  0
 14 15  1  0
 15 16  1  0
 15 17  1  0
 15 18  1  0
 18 19  2  0
 18 20  1  0
 19 21  1  0
 20 22  2  0
 21 23  2  0
 22 23  1  0
 23 24  1  0
 24 25  1  0
 24 26  2  0
M  END
