x0962_3_A_α-x0438_0_A_α
     RDKit          3D

 27 29  0  0  0  0  0  0  0  0999 V2000
    0.9040   11.3510   -8.8630 N   0  0  0  0  0  0  0  0  0  0  0  0
    1.0190   10.7940   -7.5320 C   0  0  1  0  0  0  0  0  0  0  0  0
    1.0060   11.8630   -6.4010 C   0  0  0  0  0  0  0  0  0  0  0  0
   -0.0500    9.8070   -7.4750 C   0  0  0  0  0  0  0  0  0  0  0  0
   -0.1730   12.8260   -6.3010 C   0  0  0  0  0  0  0  0  0  0  0  0
    0.0400    8.6060   -8.1290 N   0  0  0  0  0  0  0  0  0  0  0  0
   -1.2670    9.7910   -6.8530 C   0  0  0  0  0  0  0  0  0  0  0  0
   -0.7950   12.9380   -4.9060 C   0  0  0  0  0  0  0  0  0  0  0  0
   -1.1080    7.9230   -7.8800 C   0  0  0  0  0  0  0  0  0  0  0  0
   -1.9190    8.6160   -7.1100 N   0  0  0  0  0  0  0  0  0  0  0  0
   -1.2550   14.3690   -4.5860 C   0  0  0  0  0  0  0  0  0  0  0  0
   -1.7720   14.6260   -3.1600 C   0  0  0  0  0  0  0  0  0  0  0  0
   -3.1590   15.2850   -3.0740 C   0  0  0  0  0  0  0  0  0  0  0  0
   -3.8760   15.0970   -1.7510 C   0  0  0  0  0  0  0  0  0  0  0  0
   -5.2610   14.9250   -1.7990 C   0  0  0  0  0  0  0  0  0  0  0  0
   -3.2070   15.0750   -0.5070 C   0  0  0  0  0  0  0  0  0  0  0  0
   -5.9260   14.7170   -0.6010 C   0  0  0  0  0  0  0  0  0  0  0  0
   -3.9080   14.8760    0.6990 C   0  0  0  0  0  0  0  0  0  0  0  0
   -7.2470   14.4980   -0.3270 N   0  0  0  0  0  0  0  0  0  0  0  0
   -5.2960   14.6870    0.6330 C   0  0  0  0  0  0  0  0  0  0  0  0
   -7.3850   14.3290    1.0270 C   0  0  0  0  0  0  0  0  0  0  0  0
   -6.2180   14.4530    1.6300 N   0  0  0  0  0  0  0  0  0  0  0  0
   -8.6970   14.0300    1.6620 C   0  0  0  0  0  0  0  0  0  0  0  0
   -9.3550   15.3650    2.6380 S   0  0  0  0  0  0  0  0  0  0  0  0
   -8.1710   15.6170    3.9480 C   0  0  0  0  0  0  0  0  0  0  0  0
  -10.5940   14.8870    3.2320 O   0  0  0  0  0  0  0  0  0  0  0  0
   -9.4020   16.5380    1.7950 O   0  0  0  0  0  0  0  0  0  0  0  0
  2  1  1  6
  2  3  1  0
  2  4  1  0
  3  5  1  0
  4  6  1  0
  4  7  2  0
  5  8  1  0
  6  9  1  0
  7 10  1  0
  9 10  2  0
  8 11  1  0
 11 12  1  0
 12 13  1  0
 13 14  1  0
 14 15  2  0
 14 16  1  0
 15 17  1  0
 16 18  2  0
 17 19  1  0
 17 20  2  0
 18 20  1  0
 19 21  1  0
 20 22  1  0
 21 22  2  0
 21 23  1  0
 24 23  1  0
 24 25  1  0
 24 26  2  0
 24 27  2  0
M  END
