x0969_0_A-x0471_0_A
     RDKit          3D

 17 18  0  0  0  0  0  0  0  0999 V2000
   -6.5100   15.0190    2.8160 N   0  0  0  0  0  0  0  0  0  0  0  0
   -6.3300   14.6590    1.4440 C   0  0  1  0  0  0  0  0  0  0  0  0
   -7.5840   14.8410    0.6690 N   0  0  0  0  0  0  0  0  0  0  0  0
   -5.2420   15.2430    0.6830 N   0  0  0  0  0  0  0  0  0  0  0  0
   -8.7190   14.0210    1.1290 C   0  0  0  0  0  0  0  0  0  0  0  0
   -7.0330   14.5350   -0.7780 N   0  0  0  0  0  0  0  0  0  0  0  0
   -5.7700   15.3390   -0.6800 C   0  0  2  0  0  0  0  0  0  0  0  0
   -3.9050   15.1470    0.9910 C   0  0  0  0  0  0  0  0  0  0  0  0
   -8.5790   13.8750    2.5680 N   0  0  0  0  0  0  0  0  0  0  0  0
   -4.6860   15.0720   -1.6930 C   0  0  0  0  0  0  0  0  0  0  0  0
   -2.9750   14.9930    0.0430 C   0  0  0  0  0  0  0  0  0  0  0  0
   -8.9570   14.8490    3.4880 C   0  0  0  0  0  0  0  0  0  0  0  0
   -3.3880   14.9190   -1.3470 C   0  0  0  0  0  0  0  0  0  0  0  0
   -9.4140   15.9470    3.1710 O   0  0  0  0  0  0  0  0  0  0  0  0
   -8.7490   14.4100    4.9470 C   0  0  0  0  0  0  0  0  0  0  0  0
   -9.9910   13.7120    5.5000 C   0  0  0  0  0  0  0  0  0  0  0  0
   -8.3670   15.5950    5.8430 C   0  0  0  0  0  0  0  0  0  0  0  0
  2  1  1  1
  2  3  1  0
  2  4  1  0
  3  5  1  0
  3  6  1  0
  4  7  1  0
  6  7  1  0
  4  8  1  0
  5  9  1  0
  7 10  1  6
  8 11  2  0
  9 12  1  0
 10 13  2  0
 11 13  1  0
 12 14  2  0
 12 15  1  0
 15 16  1  0
 15 17  1  0
M  END
