x0962_3_A-x0855_0_A
     RDKit          3D

 16 17  0  0  0  0  0  0  0  0999 V2000
    1.7600   10.7710  -10.4440 N   0  0  0  0  0  0  0  0  0  0  0  0
    1.1070   10.2000   -9.7050 C   0  0  0  0  0  0  0  0  0  0  0  0
    0.2620    9.6510   -8.7370 C   0  0  0  0  0  0  0  0  0  0  0  0
   -0.2610    8.3750   -8.6600 N   0  0  0  0  0  0  0  0  0  0  0  0
   -0.1220   10.4060   -7.7430 C   0  0  0  0  0  0  0  0  0  0  0  0
   -0.9920    8.4090   -7.5430 C   0  0  0  0  0  0  0  0  0  0  0  0
   -0.9040    9.6630   -6.9770 N   0  0  0  0  0  0  0  0  0  0  0  0
   -1.3270   10.3870   -5.9080 C   0  0  0  0  0  0  0  0  0  0  0  0
   -0.4050   11.2470   -5.4310 C   0  0  0  0  0  0  0  0  0  0  0  0
   -2.4710   10.5430   -5.1180 C   0  0  0  0  0  0  0  0  0  0  0  0
   -0.9670   11.8810   -4.4160 N   0  0  0  0  0  0  0  0  0  0  0  0
   -2.2420   11.4870   -4.1790 N   0  0  0  0  0  0  0  0  0  0  0  0
   -0.2860   12.8760   -3.6450 C   0  0  0  0  0  0  0  0  0  0  0  0
    0.7500   12.1710   -2.8420 C   0  0  0  0  0  0  0  0  0  0  0  0
    1.7040   12.9950   -2.3840 O   0  0  0  0  0  0  0  0  0  0  0  0
    0.7890   10.9810   -2.5890 O   0  0  0  0  0  0  0  0  0  0  0  0
  1  2  3  0
  2  3  1  0
  3  4  1  0
  3  5  2  0
  4  6  2  0
  5  7  1  0
  6  7  1  0
  7  8  1  0
  8  9  2  0
  8 10  1  0
  9 11  1  0
 10 12  2  0
 11 12  1  0
 11 13  1  0
 13 14  1  0
 14 15  1  0
 14 16  2  0
M  END
