x0962_2_B-x0128_0_A
     RDKit          3D

 22 24  0  0  0  0  0  0  0  0999 V2000
   -9.4390   15.1870    1.1200 N   0  0  0  0  0  0  0  0  0  0  0  0
   -8.7550   15.6410    2.3610 C   0  0  2  0  0  0  0  0  0  0  0  0
   -7.4340   14.9160    2.9450 C   0  0  1  0  0  0  0  0  0  0  0  0
   -9.3860   15.1160    3.5050 C   0  0  0  0  0  0  0  0  0  0  0  0
   -6.1190   15.1300    2.3640 N   0  0  0  0  0  0  0  0  0  0  0  0
   -7.2200   15.4190    4.3210 N   0  0  0  0  0  0  0  0  0  0  0  0
  -10.2050   15.7710    4.3470 N   0  0  0  0  0  0  0  0  0  0  0  0
   -9.2380   13.8510    3.9790 C   0  0  0  0  0  0  0  0  0  0  0  0
  -10.5100   14.8720    5.3120 C   0  0  0  0  0  0  0  0  0  0  0  0
   -9.9390   13.7030    5.1110 N   0  0  0  0  0  0  0  0  0  0  0  0
   -5.7100   15.0650    1.0590 C   0  0  0  0  0  0  0  0  0  0  0  0
   -8.1300   16.0720    5.2170 C   0  0  0  0  0  0  0  0  0  0  0  0
   -6.6390   14.7670    0.0530 C   0  0  0  0  0  0  0  0  0  0  0  0
   -4.3910   15.3060    0.6990 C   0  0  0  0  0  0  0  0  0  0  0  0
   -8.8300   17.2420    4.8530 C   0  0  0  0  0  0  0  0  0  0  0  0
   -8.4030   15.6280    6.5200 C   0  0  0  0  0  0  0  0  0  0  0  0
   -6.2490   14.7200   -1.2830 C   0  0  0  0  0  0  0  0  0  0  0  0
   -3.9960   15.2580   -0.6320 C   0  0  0  0  0  0  0  0  0  0  0  0
   -9.7090   17.9360    5.6280 N   0  0  0  0  0  0  0  0  0  0  0  0
   -9.3040   16.3240    7.3490 C   0  0  0  0  0  0  0  0  0  0  0  0
   -4.9260   14.9670   -1.6240 C   0  0  0  0  0  0  0  0  0  0  0  0
   -9.9240   17.4590    6.8610 C   0  0  0  0  0  0  0  0  0  0  0  0
  2  1  1  6
  2  3  1  0
  2  4  1  0
  3  5  1  6
  3  6  1  0
  4  7  1  0
  4  8  2  0
  7  9  1  0
  8 10  1  0
  9 10  2  0
  5 11  1  0
  6 12  1  0
 11 13  2  0
 11 14  1  0
 12 15  2  0
 12 16  1  0
 13 17  1  0
 14 18  2  0
 15 19  1  0
 16 20  2  0
 17 21  2  0
 18 21  1  0
 19 22  2  0
 20 22  1  0
M  END
