x0967_0_A-x0933_0_A
     RDKit          3D

 11 12  0  0  0  0  0  0  0  0999 V2000
   -3.5800   15.1580    1.9350 N   0  0  0  0  0  0  0  0  0  0  0  0
   -4.1010   15.0330    0.6630 C   0  0  0  0  0  0  0  0  0  0  0  0
   -5.4700   14.8420    0.5060 C   0  0  0  0  0  0  0  0  0  0  0  0
   -3.2780   15.1000   -0.4470 C   0  0  0  0  0  0  0  0  0  0  0  0
   -5.9840   14.7300   -0.7880 C   0  0  0  0  0  0  0  0  0  0  0  0
   -6.3610   14.7560    1.5940 C   0  0  0  0  0  0  0  0  0  0  0  0
   -3.8670   14.9820   -1.6830 C   0  0  0  0  0  0  0  0  0  0  0  0
   -7.2870   14.5500   -0.9880 N   0  0  0  0  0  0  0  0  0  0  0  0
   -7.7070   14.5650    1.3800 C   0  0  0  0  0  0  0  0  0  0  0  0
   -5.1910   14.8020   -1.8580 N   0  0  0  0  0  0  0  0  0  0  0  0
   -8.1180   14.4700    0.0740 C   0  0  0  0  0  0  0  0  0  0  0  0
  1  2  1  0
  2  3  2  0
  2  4  1  0
  3  5  1  0
  3  6  1  0
  4  7  2  0
  5  8  1  0
  6  9  2  0
  5 10  2  0
  7 10  1  0
  8 11  2  0
  9 11  1  0
M  END
