x0962_3_A_α-x0159_0_B_α
     RDKit          3D

 17 18  0  0  0  0  0  0  0  0999 V2000
    1.3720   11.2300   -7.4600 N   0  0  0  0  0  0  0  0  0  0  0  0
    0.8850   10.2020   -8.3860 C   0  0  1  0  0  0  0  0  0  0  0  0
    1.6300    8.8520   -8.3920 C   0  0  0  0  0  0  0  0  0  0  0  0
   -0.4070    9.7550   -7.9160 C   0  0  0  0  0  0  0  0  0  0  0  0
    2.2920    8.4420   -9.7170 C   0  0  0  0  0  0  0  0  0  0  0  0
   -0.9370    8.6320   -8.4750 N   0  0  0  0  0  0  0  0  0  0  0  0
   -1.3200   10.1610   -6.9850 C   0  0  0  0  0  0  0  0  0  0  0  0
    1.5420    7.3210  -10.4080 C   0  0  0  0  0  0  0  0  0  0  0  0
   -2.1190    8.3890   -7.8790 C   0  0  0  0  0  0  0  0  0  0  0  0
   -2.3860    9.3000   -6.9700 N   0  0  0  0  0  0  0  0  0  0  0  0
    0.5530    6.5870   -9.5100 C   0  0  0  0  0  0  0  0  0  0  0  0
    1.1600    5.5280   -8.6410 C   0  0  0  0  0  0  0  0  0  0  0  0
    0.7280    5.3990   -7.3220 C   0  0  0  0  0  0  0  0  0  0  0  0
    2.1470    4.6680   -9.1320 C   0  0  0  0  0  0  0  0  0  0  0  0
    1.2740    4.4250   -6.5130 C   0  0  0  0  0  0  0  0  0  0  0  0
    2.6910    3.6890   -8.3120 C   0  0  0  0  0  0  0  0  0  0  0  0
    2.2590    3.5680   -7.0040 C   0  0  0  0  0  0  0  0  0  0  0  0
  2  1  1  1
  2  3  1  0
  2  4  1  0
  3  5  1  0
  4  6  1  0
  4  7  2  0
  5  8  1  0
  6  9  1  0
  7 10  1  0
  9 10  2  0
  8 11  1  0
 11 12  1  0
 12 13  2  0
 12 14  1  0
 13 15  1  0
 14 16  2  0
 15 17  2  0
 16 17  1  0
M  END
