x0969_0_A-x0805_0_A
     RDKit          3D

 26 29  0  0  0  0  0  0  0  0999 V2000
   -7.0950   14.5350    2.7600 N   0  0  0  0  0  0  0  0  0  0  0  0
   -7.0410   14.7380    1.4240 C   0  0  0  0  0  0  0  0  0  0  0  0
   -8.0730   14.7950    0.6150 N   0  0  0  0  0  0  0  0  0  0  0  0
   -5.8850   14.9300    0.6950 N   0  0  0  0  0  0  0  0  0  0  0  0
   -7.6270   15.0350   -0.6620 N   0  0  0  0  0  0  0  0  0  0  0  0
   -6.3290   15.1220   -0.6170 C   0  0  0  0  0  0  0  0  0  0  0  0
   -4.5530   14.9400    1.0640 C   0  0  0  0  0  0  0  0  0  0  0  0
   -5.3830   15.3700   -1.6190 C   0  0  0  0  0  0  0  0  0  0  0  0
   -3.6860   15.1280    0.0830 C   0  0  0  0  0  0  0  0  0  0  0  0
   -4.1140   15.3830   -1.2830 C   0  0  0  0  0  0  0  0  0  0  0  0
   -2.3740   15.0840    0.0450 O   0  0  0  0  0  0  0  0  0  0  0  0
   -2.3730   14.3880   -1.1250 C   0  0  0  0  0  0  0  0  0  0  0  0
   -3.4730   13.5300   -1.3200 C   0  0  0  0  0  0  0  0  0  0  0  0
   -1.4070   14.4960   -2.0780 C   0  0  0  0  0  0  0  0  0  0  0  0
   -3.5820   12.7950   -2.4900 C   0  0  0  0  0  0  0  0  0  0  0  0
   -1.5030   13.7600   -3.2570 C   0  0  0  0  0  0  0  0  0  0  0  0
   -2.5960   12.9110   -3.4600 C   0  0  0  0  0  0  0  0  0  0  0  0
   -0.3800   13.9600   -4.2190 C   0  0  2  0  0  0  0  0  0  0  0  0
    0.6130   12.7830   -4.1230 C   0  0  2  0  0  0  0  0  0  0  0  0
    0.2400   15.3530   -4.0130 C   0  0  0  0  0  0  0  0  0  0  0  0
    0.5540   12.0700   -2.7770 C   0  0  0  0  0  0  0  0  0  0  0  0
    2.0250   13.1450   -4.5490 C   0  0  0  0  0  0  0  0  0  0  0  0
    1.7170   15.4730   -4.2390 C   0  0  0  0  0  0  0  0  0  0  0  0
    0.1440   10.7940   -2.9040 O   0  0  0  0  0  0  0  0  0  0  0  0
    0.8110   12.5210   -1.6600 O   0  0  0  0  0  0  0  0  0  0  0  0
    2.4500   14.3150   -3.8640 O   0  0  0  0  0  0  0  0  0  0  0  0
  1  2  1  0
  2  3  2  0
  2  4  1  0
  3  5  1  0
  4  6  1  0
  5  6  2  0
  4  7  1  0
  6  8  1  0
  7  9  2  0
  8 10  2  0
  9 10  1  0
  9 11  1  0
 11 12  1  0
 12 13  2  0
 12 14  1  0
 13 15  1  0
 14 16  2  0
 15 17  2  0
 16 17  1  0
 18 16  1  1
 18 19  1  0
 18 20  1  0
 19 21  1  1
 19 22  1  0
 20 23  1  0
 21 24  1  0
 21 25  2  0
 22 26  1  0
 23 26  1  0
M  END
