x0967_0_A-x0128_0_A
     RDKit          3D

 19 21  0  0  0  0  0  0  0  0999 V2000
   -7.5170   15.0390    3.5940 C   0  0  0  0  0  0  0  0  0  0  0  0
   -8.2040   14.6940    2.5660 N   0  0  0  0  0  0  0  0  0  0  0  0
   -7.3890   14.7130    1.4480 C   0  0  0  0  0  0  0  0  0  0  0  0
   -7.8410   15.1470    4.8970 N   0  0  0  0  0  0  0  0  0  0  0  0
   -8.6270   16.0960    5.5410 C   0  0  0  0  0  0  0  0  0  0  0  0
   -9.1830   17.2380    4.9730 C   0  0  0  0  0  0  0  0  0  0  0  0
   -8.8910   15.8840    6.8930 C   0  0  0  0  0  0  0  0  0  0  0  0
   -6.0140   14.7880    1.6320 C   0  0  0  0  0  0  0  0  0  0  0  0
   -7.8450   14.6750    0.1470 C   0  0  0  0  0  0  0  0  0  0  0  0
   -9.9510   18.1300    5.6480 N   0  0  0  0  0  0  0  0  0  0  0  0
   -9.6710   16.7820    7.6130 C   0  0  0  0  0  0  0  0  0  0  0  0
   -7.0400   14.7120   -0.9380 N   0  0  0  0  0  0  0  0  0  0  0  0
   -5.1640   14.8330    0.5360 C   0  0  0  0  0  0  0  0  0  0  0  0
  -10.1750   17.8820    6.9510 C   0  0  0  0  0  0  0  0  0  0  0  0
   -5.7170   14.7950   -0.7580 C   0  0  0  0  0  0  0  0  0  0  0  0
   -3.7770   14.9160    0.6980 C   0  0  0  0  0  0  0  0  0  0  0  0
   -4.9340   14.8410   -1.8340 N   0  0  0  0  0  0  0  0  0  0  0  0
   -2.9770   14.9610   -0.4250 C   0  0  0  0  0  0  0  0  0  0  0  0
   -3.5970   14.9230   -1.6580 C   0  0  0  0  0  0  0  0  0  0  0  0
  1  2  2  3
  2  3  1  0
  1  4  1  0
  4  5  1  0
  5  6  2  0
  5  7  1  0
  3  8  2  0
  3  9  1  0
  6 10  1  0
  7 11  2  0
  9 12  2  0
  8 13  1  0
 10 14  2  0
 11 14  1  0
 12 15  1  0
 13 15  2  0
 13 16  1  0
 15 17  1  0
 16 18  2  0
 17 19  2  0
 18 19  1  0
M  END
