x0962_2_B-x0587_0_A
     RDKit          3D

 19 20  0  0  0  0  0  0  0  0999 V2000
   -9.8340   16.3450    1.3570 N   0  0  0  0  0  0  0  0  0  0  0  0
   -9.4870   15.2460    2.2830 C   0  0  1  0  0  0  0  0  0  0  0  0
   -8.0410   14.6580    2.3560 C   0  0  1  0  0  0  0  0  0  0  0  0
   -9.2770   15.6180    3.6540 C   0  0  0  0  0  0  0  0  0  0  0  0
   -7.9680   13.3930    3.0860 N   0  0  0  0  0  0  0  0  0  0  0  0
   -9.2730   16.8530    4.2130 N   0  0  0  0  0  0  0  0  0  0  0  0
   -8.9940   14.7470    4.6660 C   0  0  0  0  0  0  0  0  0  0  0  0
   -7.1300   14.6340    1.2250 C   0  0  0  0  0  0  0  0  0  0  0  0
   -8.9830   16.6690    5.5280 C   0  0  0  0  0  0  0  0  0  0  0  0
   -8.8090   15.4020    5.8240 N   0  0  0  0  0  0  0  0  0  0  0  0
   -7.4830   14.5430   -0.0840 C   0  0  0  0  0  0  0  0  0  0  0  0
   -5.7860   14.7140    1.5000 C   0  0  0  0  0  0  0  0  0  0  0  0
   -6.5810   14.5290   -1.0670 N   0  0  0  0  0  0  0  0  0  0  0  0
   -4.8410   14.7040    0.5710 N   0  0  0  0  0  0  0  0  0  0  0  0
   -5.2790   14.6090   -0.6970 C   0  0  0  0  0  0  0  0  0  0  0  0
   -4.2370   14.5870   -1.7870 C   0  0  0  0  0  0  0  0  0  0  0  0
   -3.0040   14.9880   -1.3570 F   0  0  0  0  0  0  0  0  0  0  0  0
   -4.0680   13.3310   -2.2940 F   0  0  0  0  0  0  0  0  0  0  0  0
   -4.5400   15.3800   -2.8490 F   0  0  0  0  0  0  0  0  0  0  0  0
  2  1  1  6
  2  3  1  0
  2  4  1  0
  3  5  1  6
  4  6  1  0
  4  7  2  0
  3  8  1  0
  6  9  1  0
  7 10  1  0
  9 10  2  0
  8 11  2  0
  8 12  1  0
 11 13  1  0
 12 14  2  0
 13 15  2  0
 14 15  1  0
 15 16  1  0
 16 17  1  0
 16 18  1  0
 16 19  1  0
M  END
