x0962_3_A-x0662_0_A
     RDKit          3D

 19 20  0  0  0  0  0  0  0  0999 V2000
    1.7700   12.1980   -6.8960 N   0  0  0  0  0  0  0  0  0  0  0  0
    1.2310   11.4140   -7.5470 C   0  0  0  0  0  0  0  0  0  0  0  0
    0.4470   10.3650   -7.9510 C   0  0  0  0  0  0  0  0  0  0  0  0
    0.3870    9.6840   -9.1280 N   0  0  0  0  0  0  0  0  0  0  0  0
   -0.4510    9.8570   -7.1180 C   0  0  0  0  0  0  0  0  0  0  0  0
    1.1830   10.0050  -10.2520 N   0  0  0  0  0  0  0  0  0  0  0  0
   -0.5240   10.5960   -5.6900 C   0  0  0  0  0  0  0  0  0  0  0  0
   -0.5820    8.7080   -8.9450 C   0  0  0  0  0  0  0  0  0  0  0  0
   -1.1240    8.7860   -7.7140 N   0  0  0  0  0  0  0  0  0  0  0  0
    2.0250    9.1480  -10.9830 C   0  0  0  0  0  0  0  0  0  0  0  0
   -1.4790   10.3470   -4.9240 O   0  0  0  0  0  0  0  0  0  0  0  0
    0.4260   11.4240   -5.4570 O   0  0  0  0  0  0  0  0  0  0  0  0
    2.2140    7.9800  -10.6680 O   0  0  0  0  0  0  0  0  0  0  0  0
    2.7100    9.7570  -12.1910 C   0  0  0  0  0  0  0  0  0  0  0  0
    2.4920   11.0230  -12.8410 C   0  0  0  0  0  0  0  0  0  0  0  0
    3.7070    9.1030  -12.8410 N   0  0  0  0  0  0  0  0  0  0  0  0
    4.0940    9.9170  -13.8410 N   0  0  0  0  0  0  0  0  0  0  0  0
    3.3940   11.0870  -13.8870 C   0  0  0  0  0  0  0  0  0  0  0  0
    5.1600    9.5020  -14.7290 C   0  0  0  0  0  0  0  0  0  0  0  0
  1  2  3  0
  2  3  1  0
  3  4  1  0
  3  5  2  0
  4  6  1  0
  5  7  1  0
  4  8  1  0
  5  9  1  0
  8  9  2  0
  6 10  1  0
  7 11  2  0
  7 12  1  0
 10 13  2  0
 10 14  1  0
 14 15  1  0
 14 16  2  0
 16 17  1  0
 15 18  2  0
 17 18  1  0
 17 19  1  0
M  CHG  1  12  -1
M  END
