x0962_0_A_α-x0766_0_A_α
     RDKit          3D

 20 22  0  0  0  0  0  0  0  0999 V2000
   -4.1330   16.1530   -1.2880 N   0  0  0  0  0  0  0  0  0  0  0  0
   -3.5090   15.3500   -0.2870 C   0  0  1  0  0  0  0  0  0  0  0  0
   -4.6390   14.9140    0.4260 C   0  0  0  0  0  0  0  0  0  0  0  0
   -2.8340   14.6540   -1.2990 C   0  0  0  0  0  0  0  0  0  0  0  0
   -4.7330   15.2710    1.7110 N   0  0  0  0  0  0  0  0  0  0  0  0
   -5.7480   14.1960    0.1260 C   0  0  0  0  0  0  0  0  0  0  0  0
   -1.5490   14.7870   -1.5970 C   0  0  0  0  0  0  0  0  0  0  0  0
   -3.7060   13.6010   -2.2930 S   0  0  0  0  0  0  0  0  0  0  0  0
   -5.8950   14.7690    2.1660 C   0  0  0  0  0  0  0  0  0  0  0  0
   -6.5370   14.1110    1.2310 N   0  0  0  0  0  0  0  0  0  0  0  0
   -2.2930   13.3380   -3.1940 C   0  0  0  0  0  0  0  0  0  0  0  0
   -1.2200   14.0510   -2.6990 C   0  0  0  0  0  0  0  0  0  0  0  0
    0.1550   14.1430   -3.1650 C   0  0  1  0  0  0  0  0  0  0  0  0
    0.5170   12.9600   -3.9980 C   0  0  2  0  0  0  0  0  0  0  0  0
    0.4400   15.3810   -3.9750 C   0  0  0  0  0  0  0  0  0  0  0  0
    0.8540   11.9720   -2.9370 C   0  0  0  0  0  0  0  0  0  0  0  0
    1.6480   13.4560   -4.8980 C   0  0  0  0  0  0  0  0  0  0  0  0
    1.6510   14.9890   -4.7590 C   0  0  0  0  0  0  0  0  0  0  0  0
    1.5620   12.2300   -1.9930 O   0  0  0  0  0  0  0  0  0  0  0  0
    0.2950   10.7700   -3.0580 O   0  0  0  0  0  0  0  0  0  0  0  0
  2  1  1  6
  2  3  1  0
  2  4  1  0
  3  5  1  0
  3  6  2  0
  4  7  2  0
  4  8  1  0
  5  9  1  0
  6 10  1  0
  9 10  2  0
  8 11  1  0
  7 12  1  0
 11 12  2  0
 13 12  1  6
 13 14  1  0
 13 15  1  0
 14 16  1  1
 14 17  1  0
 15 18  1  0
 17 18  1  0
 16 19  2  0
 16 20  1  0
M  END
