x0969_0_A-x1015_0_A
     RDKit          3D

 27 30  0  0  0  0  0  0  0  0999 V2000
   -6.7220   14.7380    2.4910 N   0  0  0  0  0  0  0  0  0  0  0  0
   -6.5540   14.7580    1.1550 C   0  0  0  0  0  0  0  0  0  0  0  0
   -7.4880   14.5480    0.2570 N   0  0  0  0  0  0  0  0  0  0  0  0
   -5.3450   15.0210    0.5170 N   0  0  0  0  0  0  0  0  0  0  0  0
   -6.9240   14.6700   -0.9890 N   0  0  0  0  0  0  0  0  0  0  0  0
   -5.6500   14.9530   -0.8300 C   0  0  0  0  0  0  0  0  0  0  0  0
   -4.0580   15.3080    0.9880 C   0  0  0  0  0  0  0  0  0  0  0  0
   -4.6090   15.1840   -1.7580 C   0  0  0  0  0  0  0  0  0  0  0  0
   -3.0660   15.5300    0.1030 C   0  0  0  0  0  0  0  0  0  0  0  0
   -3.3550   15.4640   -1.3400 C   0  0  0  0  0  0  0  0  0  0  0  0
   -2.2240   15.7040   -2.3180 C   0  0  0  0  0  0  0  0  0  0  0  0
   -1.9660   14.4970   -3.2190 C   0  0  0  0  0  0  0  0  0  0  0  0
   -0.9330   14.5830   -4.3370 C   0  0  0  0  0  0  0  0  0  0  0  0
    0.2790   13.6900   -4.0190 C   0  0  2  0  0  0  0  0  0  0  0  0
   -0.0310   12.2480   -3.9450 N   0  0  0  0  0  0  0  0  0  0  0  0
    0.6520   13.9070   -2.5570 C   0  0  0  0  0  0  0  0  0  0  0  0
    0.6880   14.9780   -1.9710 O   0  0  0  0  0  0  0  0  0  0  0  0
    0.3900   11.7090   -2.7170 C   0  0  0  0  0  0  0  0  0  0  0  0
    0.9430   12.7160   -1.9960 N   0  0  0  0  0  0  0  0  0  0  0  0
   -0.4380   11.4630   -5.0570 C   0  0  0  0  0  0  0  0  0  0  0  0
    0.3100   10.5500   -2.3040 O   0  0  0  0  0  0  0  0  0  0  0  0
   -0.0620   11.7930   -6.3680 C   0  0  0  0  0  0  0  0  0  0  0  0
   -1.2280   10.3190   -4.8830 C   0  0  0  0  0  0  0  0  0  0  0  0
   -0.4660   11.0110   -7.4550 C   0  0  0  0  0  0  0  0  0  0  0  0
   -1.6380    9.5350   -5.9610 C   0  0  0  0  0  0  0  0  0  0  0  0
   -1.2550    9.8830   -7.2470 C   0  0  0  0  0  0  0  0  0  0  0  0
   -1.7560    8.9200   -8.5780 Cl  0  0  0  0  0  0  0  0  0  0  0  0
  1  2  1  0
  2  3  2  0
  2  4  1  0
  3  5  1  0
  4  6  1  0
  5  6  2  0
  4  7  1  0
  6  8  1  0
  7  9  2  0
  8 10  2  0
  9 10  1  0
 10 11  1  0
 11 12  1  0
 12 13  1  0
 14 13  1  1
 14 15  1  0
 14 16  1  0
 16 17  2  0
 15 18  1  0
 16 19  1  0
 18 19  1  0
 15 20  1  0
 18 21  2  0
 20 22  2  0
 20 23  1  0
 22 24  1  0
 23 25  2  0
 24 26  2  0
 25 26  1  0
 26 27  1  0
M  END
