x0962_0_A_α-x0689_0_A_α
     RDKit          3D

 14 15  0  0  0  0  0  0  0  0999 V2000
   -2.7470   15.0550   -2.3250 N   0  0  0  0  0  0  0  0  0  0  0  0
   -3.5590   15.0500   -1.4930 C   0  0  0  0  0  0  0  0  0  0  0  0
   -4.5830   14.9800   -0.5200 C   0  0  0  0  0  0  0  0  0  0  0  0
   -4.4860   14.9810    0.8440 N   0  0  0  0  0  0  0  0  0  0  0  0
   -5.9270   14.8890   -0.7580 C   0  0  0  0  0  0  0  0  0  0  0  0
   -5.7390   14.8860    1.3540 C   0  0  0  0  0  0  0  0  0  0  0  0
   -6.6390   14.8260    0.4090 N   0  0  0  0  0  0  0  0  0  0  0  0
   -3.4110   15.0500    1.6150 N   0  0  0  0  0  0  0  0  0  0  0  0
   -2.2160   14.7360    1.0500 C   0  0  0  0  0  0  0  0  0  0  0  0
   -2.0540   14.8010   -0.2730 N   0  0  0  0  0  0  0  0  0  0  0  0
   -1.3010   14.3850    1.9070 N   0  0  0  0  0  0  0  0  0  0  0  0
   -0.8500   14.4860   -0.7540 C   0  0  0  0  0  0  0  0  0  0  0  0
   -0.1280   14.0750    1.3980 C   0  0  0  0  0  0  0  0  0  0  0  0
    0.1750   14.1070    0.0540 C   0  0  0  0  0  0  0  0  0  0  0  0
  1  2  3  0
  2  3  1  0
  3  4  1  0
  3  5  2  0
  4  6  1  0
  5  7  1  0
  6  7  2  0
  4  8  1  0
  8  9  1  0
  9 10  2  0
  9 11  1  0
 10 12  1  0
 11 13  2  0
 12 14  2  0
 13 14  1  0
M  END
