x0967_0_A-x0290_0_A
     RDKit          3D

 23 25  0  0  0  0  0  0  0  0999 V2000
   -7.2080   12.7420    0.3920 N   0  0  0  0  0  0  0  0  0  0  0  0
   -8.5030   12.4670    1.0020 C   0  0  0  0  0  0  0  0  0  0  0  0
   -6.1190   12.7510    1.4040 C   0  0  0  0  0  0  0  0  0  0  0  0
   -4.7970   13.3310    0.8400 C   0  0  0  0  0  0  0  0  0  0  0  0
   -4.6750   13.8210   -0.3570 N   0  0  0  0  0  0  0  0  0  0  0  0
   -3.6520   13.4100    1.5860 N   0  0  0  0  0  0  0  0  0  0  0  0
   -5.6370   14.0150   -1.3060 N   0  0  0  0  0  0  0  0  0  0  0  0
   -2.4410   13.9050    1.0380 C   0  0  0  0  0  0  0  0  0  0  0  0
   -6.4180   15.0020   -0.5630 C   0  0  1  0  0  0  0  0  0  0  0  0
   -4.8670   14.7400   -2.1700 C   0  0  0  0  0  0  0  0  0  0  0  0
   -1.4020   14.2760    1.8090 N   0  0  0  0  0  0  0  0  0  0  0  0
   -2.3420   13.9870   -0.3600 C   0  0  0  0  0  0  0  0  0  0  0  0
   -7.7360   14.6610    0.0070 N   0  0  0  0  0  0  0  0  0  0  0  0
   -5.2950   15.3320    0.4230 C   0  0  0  0  0  0  0  0  0  0  0  0
   -4.0410   15.6200   -1.5840 C   0  0  0  0  0  0  0  0  0  0  0  0
   -0.2820   14.7090    1.1980 C   0  0  0  0  0  0  0  0  0  0  0  0
   -1.1790   14.4470   -0.9710 C   0  0  0  0  0  0  0  0  0  0  0  0
   -1.0740   14.5390   -2.4640 C   0  0  0  0  0  0  0  0  0  0  0  0
   -5.5610   15.2340    1.8440 C   0  0  0  0  0  0  0  0  0  0  0  0
   -7.8370   14.6470    1.2880 C   0  0  0  0  0  0  0  0  0  0  0  0
   -4.1050   15.6610   -0.1200 C   0  0  0  0  0  0  0  0  0  0  0  0
   -0.1200   14.8140   -0.1650 C   0  0  0  0  0  0  0  0  0  0  0  0
   -6.7840   14.9020    2.2920 C   0  0  0  0  0  0  0  0  0  0  0  0
  1  2  1  0
  1  3  1  0
  3  4  1  0
  4  5  2  3
  4  6  1  0
  5  7  1  0
  6  8  1  0
  7  9  1  0
  7 10  1  0
  8 11  2  0
  8 12  1  0
  9 13  1  1
  9 14  1  0
 10 15  2  0
 11 16  1  0
 12 17  2  0
 17 18  1  0
 14 19  1  0
 13 20  2  0
 14 21  2  0
 15 21  1  0
 16 22  2  0
 17 22  1  0
 19 23  2  0
 20 23  1  0
M  END
