x0969_0_A-x0282_0_A
     RDKit          3D

 17 19  0  0  0  0  0  0  0  0999 V2000
   -7.1610   13.5720    1.9860 N   0  0  0  0  0  0  0  0  0  0  0  0
   -6.7490   14.0710    0.7910 C   0  0  0  0  0  0  0  0  0  0  0  0
   -7.5930   14.3650   -0.2420 N   0  0  0  0  0  0  0  0  0  0  0  0
   -5.5010   14.3980    0.3330 C   0  0  0  0  0  0  0  0  0  0  0  0
   -6.9590   14.8640   -1.3290 N   0  0  0  0  0  0  0  0  0  0  0  0
   -5.6770   14.8890   -0.9630 C   0  0  0  0  0  0  0  0  0  0  0  0
   -4.1990   14.3160    1.0250 C   0  0  2  0  0  0  0  0  0  0  0  0
   -4.6540   15.4610    1.8900 C   0  0  0  0  0  0  0  0  0  0  0  0
   -4.5510   15.3430   -1.7070 C   0  0  0  0  0  0  0  0  0  0  0  0
   -2.8980   14.5150    0.0580 C   0  0  2  0  0  0  0  0  0  0  0  0
   -6.0390   15.2240    2.2810 O   0  0  0  0  0  0  0  0  0  0  0  0
   -3.2820   15.1950   -1.2600 C   0  0  0  0  0  0  0  0  0  0  0  0
   -2.3180   13.2740   -0.4300 N   0  0  0  0  0  0  0  0  0  0  0  0
   -1.8760   15.2560    0.8430 N   0  0  0  0  0  0  0  0  0  0  0  0
   -0.9970   13.4580   -1.0430 C   0  0  0  0  0  0  0  0  0  0  0  0
   -0.5140   15.0140    0.7200 C   0  0  0  0  0  0  0  0  0  0  0  0
   -0.0400   14.1660   -0.1700 C   0  0  0  0  0  0  0  0  0  0  0  0
  1  2  1  0
  2  3  1  0
  2  4  2  0
  3  5  1  0
  4  6  1  0
  5  6  2  0
  4  7  1  0
  7  8  1  1
  6  9  1  0
  7 10  1  0
  8 11  1  0
  9 12  2  0
 10 12  1  6
 10 13  1  0
 10 14  1  0
 13 15  1  0
 14 16  1  0
 15 17  1  0
 16 17  2  0
M  END
