x0962_1_A_α-x0471_0_A_α
     RDKit          3D

 19 20  0  0  0  0  0  0  0  0999 V2000
   -4.4760   15.3470   -2.9770 N   0  0  0  0  0  0  0  0  0  0  0  0
   -5.1110   15.3540   -2.0140 C   0  0  0  0  0  0  0  0  0  0  0  0
   -5.7520   15.2910   -0.7180 C   0  0  1  0  0  0  0  0  0  0  0  0
   -7.2380   14.9550   -0.5610 C   0  0  0  0  0  0  0  0  0  0  0  0
   -5.0820   14.1050   -0.1850 C   0  0  2  0  0  0  0  0  0  0  0  0
   -5.0330   14.3730    1.2240 N   0  0  0  0  0  0  0  0  0  0  0  0
   -7.5380   14.2810    0.7470 N   0  0  0  0  0  0  0  0  0  0  0  0
   -3.7440   14.0770   -0.8500 C   0  0  0  0  0  0  0  0  0  0  0  0
   -8.8140   14.6280    1.3650 C   0  0  0  0  0  0  0  0  0  0  0  0
   -6.4160   14.3690    1.7260 C   0  0  0  0  0  0  0  0  0  0  0  0
   -2.7450   14.7830   -0.3530 C   0  0  0  0  0  0  0  0  0  0  0  0
   -4.0880   15.3200    1.5860 C   0  0  0  0  0  0  0  0  0  0  0  0
   -8.7090   14.3090    2.7650 N   0  0  0  0  0  0  0  0  0  0  0  0
   -2.9770   15.5460    0.8460 C   0  0  0  0  0  0  0  0  0  0  0  0
   -9.1630   15.2280    3.6800 C   0  0  0  0  0  0  0  0  0  0  0  0
   -9.5450   16.3400    3.3290 O   0  0  0  0  0  0  0  0  0  0  0  0
   -9.2090   14.8210    5.1510 C   0  0  0  0  0  0  0  0  0  0  0  0
   -9.5680   13.3510    5.3550 C   0  0  0  0  0  0  0  0  0  0  0  0
   -7.9400   15.2250    5.8890 C   0  0  0  0  0  0  0  0  0  0  0  0
  1  2  3  0
  3  2  1  6
  3  4  1  0
  3  5  1  0
  5  6  1  0
  4  7  1  0
  5  8  1  6
  7  9  1  0
  6 10  1  0
  7 10  1  0
  8 11  2  0
  6 12  1  0
  9 13  1  0
 11 14  1  0
 12 14  2  0
 13 15  1  0
 15 16  2  0
 15 17  1  0
 17 18  1  0
 17 19  1  0
M  END
