x0969_0_A_α-x0729_2_B_α
     RDKit          3D

 30 32  0  0  0  0  0  0  0  0999 V2000
   -6.7140   13.4120    1.7460 N   0  0  0  0  0  0  0  0  0  0  0  0
   -6.7880   14.6820    1.0710 C   0  0  2  0  0  0  0  0  0  0  0  0
   -7.8060   14.6940   -0.0560 N   0  0  0  0  0  0  0  0  0  0  0  0
   -5.5120   15.1780    0.5290 N   0  0  0  0  0  0  0  0  0  0  0  0
   -8.6230   15.9290   -0.2350 C   0  0  0  0  0  0  0  0  0  0  0  0
   -6.9370   14.5210   -1.2690 N   0  0  0  0  0  0  0  0  0  0  0  0
   -5.7960   15.3730   -0.8860 C   0  0  2  0  0  0  0  0  0  0  0  0
   -4.2390   15.2000    1.0640 C   0  0  0  0  0  0  0  0  0  0  0  0
   -9.7970   15.8560   -1.2240 C   0  0  0  0  0  0  0  0  0  0  0  0
   -4.5500   15.1580   -1.7100 C   0  0  0  0  0  0  0  0  0  0  0  0
   -3.1520   15.1410    0.2810 C   0  0  0  0  0  0  0  0  0  0  0  0
  -10.0720   17.2670   -1.8020 C   0  0  0  0  0  0  0  0  0  0  0  0
   -3.3240   15.0530   -1.1590 C   0  0  0  0  0  0  0  0  0  0  0  0
  -11.2090   18.0630   -1.1320 C   0  0  0  0  0  0  0  0  0  0  0  0
  -11.4980   19.4790   -1.6700 C   0  0  0  0  0  0  0  0  0  0  0  0
  -12.9580   19.8650   -1.9950 C   0  0  0  0  0  0  0  0  0  0  0  0
  -13.9470   19.9770   -0.8310 C   0  0  0  0  0  0  0  0  0  0  0  0
  -14.4900   21.3320   -0.5790 C   0  0  0  0  0  0  0  0  0  0  0  0
  -14.9340   22.4130   -0.2730 C   0  0  0  0  0  0  0  0  0  0  0  0
  -15.4180   23.7300    0.2070 C   0  0  1  0  0  0  0  0  0  0  0  0
  -16.9170   23.9590   -0.0470 C   0  0  0  0  0  0  0  0  0  0  0  0
  -15.0550   23.8300    1.7020 C   0  0  1  0  0  0  0  0  0  0  0  0
  -13.7490   24.5650    1.8630 C   0  0  0  0  0  0  0  0  0  0  0  0
  -16.1550   24.3940    2.5240 N   0  0  0  0  0  0  0  0  0  0  0  0
  -17.4240   25.2810    0.5390 C   0  0  0  0  0  0  0  0  0  0  0  0
  -15.9530   24.4650    4.1910 S   0  0  0  0  0  0  0  0  0  0  0  0
  -16.7800   25.5890    1.8930 C   0  0  0  0  0  0  0  0  0  0  0  0
  -16.3780   25.7400    4.7190 O   0  0  0  0  0  0  0  0  0  0  0  0
  -14.6170   23.9650    4.3890 O   0  0  0  0  0  0  0  0  0  0  0  0
  -17.0520   23.2160    4.8140 C   0  0  0  0  0  0  0  0  0  0  0  0
  2  1  1  6
  2  3  1  0
  2  4  1  0
  3  5  1  0
  3  6  1  0
  4  7  1  0
  6  7  1  0
  4  8  1  0
  5  9  1  0
  7 10  1  6
  8 11  2  0
  9 12  1  0
 10 13  2  0
 11 13  1  0
 12 14  1  0
 14 15  1  0
 15 16  1  0
 16 17  1  0
 17 18  1  0
 18 19  3  0
 20 19  1  1
 20 21  1  0
 20 22  1  0
 22 23  1  6
 22 24  1  0
 21 25  1  0
 24 26  1  0
 24 27  1  0
 25 27  1  0
 26 28  2  0
 26 29  2  0
 26 30  1  0
M  END
