x0969_0_A-x0724_0_A
     RDKit          3D

 13 14  0  0  0  0  0  0  0  0999 V2000
   -5.8170   13.9880    3.1800 N   0  0  0  0  0  0  0  0  0  0  0  0
   -5.9570   14.6240    1.8940 C   0  0  2  0  0  0  0  0  0  0  0  0
   -7.3280   14.5010    1.4330 N   0  0  0  0  0  0  0  0  0  0  0  0
   -5.0720   14.1710    0.8470 N   0  0  0  0  0  0  0  0  0  0  0  0
   -8.4290   14.8720    2.3500 C   0  0  0  0  0  0  0  0  0  0  0  0
   -7.2560   14.9210   -0.0230 N   0  0  0  0  0  0  0  0  0  0  0  0
   -5.8960   14.3750   -0.3670 C   0  0  1  0  0  0  0  0  0  0  0  0
   -3.7160   14.4150    0.8700 C   0  0  0  0  0  0  0  0  0  0  0  0
   -8.4420   13.9640    3.5210 N   0  0  0  0  0  0  0  0  0  0  0  0
   -5.1180   15.1270   -1.4290 C   0  0  0  0  0  0  0  0  0  0  0  0
   -3.0610   14.9940   -0.1390 C   0  0  0  0  0  0  0  0  0  0  0  0
   -8.7480   14.6190    4.7920 C   0  0  0  0  0  0  0  0  0  0  0  0
   -3.8040   15.3970   -1.3110 C   0  0  0  0  0  0  0  0  0  0  0  0
  2  1  1  1
  2  3  1  0
  2  4  1  0
  3  5  1  0
  3  6  1  0
  4  7  1  0
  6  7  1  0
  4  8  1  0
  5  9  1  0
  7 10  1  6
  8 11  2  0
  9 12  1  0
 10 13  2  0
 11 13  1  0
M  END
