x0962_1_A_α-x0253_0_A_α
     RDKit          3D

 25 26  0  0  0  0  0  0  0  0999 V2000
   -3.8030   14.6170   -1.8920 N   0  0  0  0  0  0  0  0  0  0  0  0
   -3.8870   15.2840   -0.5980 C   0  0  2  0  0  0  0  0  0  0  0  0
   -2.6300   14.9160    0.2310 C   0  0  0  0  0  0  0  0  0  0  0  0
   -5.2060   14.9530    0.0250 C   0  0  0  0  0  0  0  0  0  0  0  0
   -1.2760   15.4610   -0.2790 C   0  0  0  0  0  0  0  0  0  0  0  0
   -5.3440   14.7730    1.3760 N   0  0  0  0  0  0  0  0  0  0  0  0
   -6.4860   14.7620   -0.4670 C   0  0  0  0  0  0  0  0  0  0  0  0
   -0.0370   14.5490   -0.1620 C   0  0  0  0  0  0  0  0  0  0  0  0
   -6.6490   14.4880    1.6430 C   0  0  0  0  0  0  0  0  0  0  0  0
   -7.3740   14.4740    0.5460 N   0  0  0  0  0  0  0  0  0  0  0  0
    0.6040   13.9480   -1.4360 C   0  0  0  0  0  0  0  0  0  0  0  0
    0.3810   12.4990   -1.5570 N   0  0  0  0  0  0  0  0  0  0  0  0
    0.5620   11.8430   -2.6690 C   0  0  0  0  0  0  0  0  0  0  0  0
    0.3270   10.5080   -2.6840 O   0  0  0  0  0  0  0  0  0  0  0  0
    1.0410   12.4680   -4.0060 C   0  0  0  0  0  0  0  0  0  0  0  0
    0.2710   12.0010   -5.1750 N   0  0  0  0  0  0  0  0  0  0  0  0
    0.9020   11.8170   -6.4110 C   0  0  0  0  0  0  0  0  0  0  0  0
    2.0200   12.2850   -6.5800 O   0  0  0  0  0  0  0  0  0  0  0  0
    0.2300   10.9740   -7.4820 C   0  0  0  0  0  0  0  0  0  0  0  0
   -0.9430   10.2350   -7.2170 C   0  0  0  0  0  0  0  0  0  0  0  0
    0.7760   10.8840   -8.7750 C   0  0  0  0  0  0  0  0  0  0  0  0
   -1.5220    9.4220   -8.2040 C   0  0  0  0  0  0  0  0  0  0  0  0
    0.1970   10.0880   -9.7580 C   0  0  0  0  0  0  0  0  0  0  0  0
   -2.7540    8.6280   -7.8770 C   0  0  0  0  0  0  0  0  0  0  0  0
   -0.9480    9.3540   -9.4710 C   0  0  0  0  0  0  0  0  0  0  0  0
  2  1  1  6
  2  3  1  0
  2  4  1  0
  3  5  1  0
  4  6  1  0
  4  7  2  0
  5  8  1  0
  6  9  1  0
  7 10  1  0
  9 10  2  0
  8 11  1  0
 11 12  1  0
 12 13  2  3
 13 14  1  0
 13 15  1  0
 15 16  1  0
 16 17  1  0
 17 18  2  0
 17 19  1  0
 19 20  2  0
 19 21  1  0
 20 22  1  0
 21 23  2  0
 22 24  1  0
 22 25  2  0
 23 25  1  0
M  END
