x0962_2_B-x0471_0_A
     RDKit          3D

 22 24  0  0  0  0  0  0  0  0999 V2000
   -9.9440   16.1520    1.2530 N   0  0  0  0  0  0  0  0  0  0  0  0
  -10.1560   15.4710    2.5400 C   0  0  1  0  0  0  0  0  0  0  0  0
   -9.3760   14.1810    3.0000 C   0  0  2  0  0  0  0  0  0  0  0  0
   -9.3720   16.0680    3.5500 C   0  0  0  0  0  0  0  0  0  0  0  0
   -9.3050   13.0690    2.0550 N   0  0  0  0  0  0  0  0  0  0  0  0
   -9.7560   13.7640    4.5080 C   0  0  0  0  0  0  0  0  0  0  0  0
   -9.6470   17.1410    4.2880 N   0  0  0  0  0  0  0  0  0  0  0  0
   -8.1610   15.5840    3.9630 C   0  0  0  0  0  0  0  0  0  0  0  0
   -9.9590   12.2890    4.7920 C   0  0  0  0  0  0  0  0  0  0  0  0
   -8.8780   14.3450    5.6470 C   0  0  0  0  0  0  0  0  0  0  0  0
   -8.9880   13.5790    0.7180 C   0  0  0  0  0  0  0  0  0  0  0  0
   -8.6050   17.2670    5.1280 C   0  0  0  0  0  0  0  0  0  0  0  0
   -7.6950   16.3360    4.9570 N   0  0  0  0  0  0  0  0  0  0  0  0
   -7.5690   14.0340    0.4770 C   0  0  0  0  0  0  0  0  0  0  0  0
   -7.1640   14.4230   -0.7710 N   0  0  0  0  0  0  0  0  0  0  0  0
   -6.5600   14.1210    1.3340 N   0  0  0  0  0  0  0  0  0  0  0  0
   -5.4780   14.5580    0.6000 C   0  0  0  0  0  0  0  0  0  0  0  0
   -5.8400   14.7530   -0.7240 C   0  0  0  0  0  0  0  0  0  0  0  0
   -4.9610   15.1890   -1.7070 C   0  0  0  0  0  0  0  0  0  0  0  0
   -4.1520   14.8100    0.9860 C   0  0  0  0  0  0  0  0  0  0  0  0
   -3.6520   15.4230   -1.3040 C   0  0  0  0  0  0  0  0  0  0  0  0
   -3.2500   15.2380    0.0200 C   0  0  0  0  0  0  0  0  0  0  0  0
  2  1  1  6
  2  3  1  0
  2  4  1  0
  3  5  1  6
  3  6  1  0
  4  7  1  0
  4  8  2  0
  6  9  1  0
  6 10  1  0
  5 11  1  0
  7 12  1  0
  8 13  1  0
 12 13  2  0
 11 14  1  0
 14 15  1  0
 14 16  2  0
 16 17  1  0
 15 18  1  0
 17 18  2  0
 18 19  1  0
 17 20  1  0
 19 21  2  0
 20 22  2  0
 21 22  1  0
M  END
