x0969_0_A-x0253_0_A
     RDKit          3D

 27 29  0  0  0  0  0  0  0  0999 V2000
   -6.6780   14.8610    2.4600 N   0  0  0  0  0  0  0  0  0  0  0  0
   -6.4400   14.7730    1.1330 C   0  0  0  0  0  0  0  0  0  0  0  0
   -7.3310   14.6400    0.1740 N   0  0  0  0  0  0  0  0  0  0  0  0
   -5.1750   14.8190    0.5760 N   0  0  0  0  0  0  0  0  0  0  0  0
   -6.6630   14.5840   -1.0330 N   0  0  0  0  0  0  0  0  0  0  0  0
   -5.3720   14.6810   -0.7870 C   0  0  0  0  0  0  0  0  0  0  0  0
   -3.9170   14.9570    1.1540 C   0  0  0  0  0  0  0  0  0  0  0  0
   -4.2090   14.6490   -1.6200 C   0  0  0  0  0  0  0  0  0  0  0  0
   -2.8290   14.9170    0.3830 C   0  0  0  0  0  0  0  0  0  0  0  0
   -2.9690   14.7350   -1.0590 C   0  0  0  0  0  0  0  0  0  0  0  0
   -1.6630   14.6360   -1.8360 C   0  0  0  0  0  0  0  0  0  0  0  0
   -0.3980   14.6120   -0.9330 C   0  0  0  0  0  0  0  0  0  0  0  0
    0.8680   14.0850   -1.6160 C   0  0  0  0  0  0  0  0  0  0  0  0
    0.7320   12.6420   -1.6950 N   0  0  0  0  0  0  0  0  0  0  0  0
    0.7080   12.0970   -2.8600 C   0  0  0  0  0  0  0  0  0  0  0  0
    0.5300   10.7670   -2.8410 O   0  0  0  0  0  0  0  0  0  0  0  0
    0.8350   12.6750   -4.2750 C   0  0  0  0  0  0  0  0  0  0  0  0
    0.2830   11.9130   -5.3860 N   0  0  0  0  0  0  0  0  0  0  0  0
    1.0730   11.6770   -6.4960 C   0  0  0  0  0  0  0  0  0  0  0  0
    2.1880   12.1570   -6.5780 O   0  0  0  0  0  0  0  0  0  0  0  0
    0.5020   10.7770   -7.5600 C   0  0  0  0  0  0  0  0  0  0  0  0
   -0.4720    9.8620   -7.1480 C   0  0  0  0  0  0  0  0  0  0  0  0
    0.8760   10.7960   -8.9140 C   0  0  0  0  0  0  0  0  0  0  0  0
   -1.0700    8.9760   -8.0620 C   0  0  0  0  0  0  0  0  0  0  0  0
    0.2890    9.9200   -9.8260 C   0  0  0  0  0  0  0  0  0  0  0  0
   -2.1120    8.0110   -7.5920 C   0  0  0  0  0  0  0  0  0  0  0  0
   -0.6780    9.0160   -9.4050 C   0  0  0  0  0  0  0  0  0  0  0  0
  1  2  1  0
  2  3  2  0
  2  4  1  0
  3  5  1  0
  4  6  1  0
  5  6  2  0
  4  7  1  0
  6  8  1  0
  7  9  2  0
  8 10  2  0
  9 10  1  0
 10 11  1  0
 11 12  1  0
 12 13  1  0
 13 14  1  0
 14 15  2  3
 15 16  1  0
 15 17  1  0
 17 18  1  0
 18 19  1  0
 19 20  2  0
 19 21  1  0
 21 22  2  0
 21 23  1  0
 22 24  1  0
 23 25  2  0
 24 26  1  0
 24 27  2  0
 25 27  1  0
M  END
