x0962_0_A_α-x0950_1_A_α
     RDKit          3D

 16 16  0  0  0  0  0  0  0  0999 V2000
   -2.9630   15.1940   -2.5330 N   0  0  0  0  0  0  0  0  0  0  0  0
   -2.7740   14.3420   -1.3740 C   0  0  1  0  0  0  0  0  0  0  0  0
   -1.3170   14.2900   -0.8600 C   0  0  0  0  0  0  0  0  0  0  0  0
   -3.7540   14.6880   -0.3110 C   0  0  0  0  0  0  0  0  0  0  0  0
   -0.1980   14.3260   -1.9150 C   0  0  0  0  0  0  0  0  0  0  0  0
   -3.4020   15.2040    0.9100 N   0  0  0  0  0  0  0  0  0  0  0  0
   -5.1260   14.5900   -0.2620 C   0  0  0  0  0  0  0  0  0  0  0  0
    1.1880   13.9530   -1.4020 C   0  0  0  0  0  0  0  0  0  0  0  0
   -4.5460   15.3840    1.6260 C   0  0  0  0  0  0  0  0  0  0  0  0
   -5.6050   15.0140    0.9400 N   0  0  0  0  0  0  0  0  0  0  0  0
    1.7560   12.8260   -2.1100 O   0  0  0  0  0  0  0  0  0  0  0  0
    1.0140   12.1340   -3.0130 C   0  0  0  0  0  0  0  0  0  0  0  0
    1.3490   12.5490   -4.4570 C   0  0  2  0  0  0  0  0  0  0  0  0
    0.1840   11.2700   -2.7330 O   0  0  0  0  0  0  0  0  0  0  0  0
    1.0510   14.0090   -4.7580 C   0  0  0  0  0  0  0  0  0  0  0  0
    0.6260   11.7490   -5.4010 O   0  0  0  0  0  0  0  0  0  0  0  0
  2  1  1  6
  2  3  1  0
  2  4  1  0
  3  5  1  0
  4  6  1  0
  4  7  2  0
  5  8  1  0
  6  9  1  0
  7 10  1  0
  9 10  2  0
  8 11  1  0
 11 12  1  0
 12 13  1  0
 12 14  2  0
 13 15  1  1
 13 16  1  0
M  END
