x0969_0_A_α-x0722_0_A_α
     RDKit          3D

 15 16  0  0  0  0  0  0  0  0999 V2000
   -6.5980   14.7830    2.6150 N   0  0  0  0  0  0  0  0  0  0  0  0
   -6.3240   14.9570    1.3050 C   0  0  0  0  0  0  0  0  0  0  0  0
   -7.2950   14.8920    0.4170 N   0  0  0  0  0  0  0  0  0  0  0  0
   -5.0470   15.2610    0.8050 N   0  0  0  0  0  0  0  0  0  0  0  0
   -6.7080   15.1380   -0.8130 N   0  0  0  0  0  0  0  0  0  0  0  0
   -5.2890   14.8680   -0.5530 C   0  0  1  0  0  0  0  0  0  0  0  0
   -3.7580   15.0720    1.2800 C   0  0  0  0  0  0  0  0  0  0  0  0
   -4.1530   15.2430   -1.4560 C   0  0  0  0  0  0  0  0  0  0  0  0
   -2.6710   15.0770    0.4690 C   0  0  0  0  0  0  0  0  0  0  0  0
   -7.1550   14.2000   -1.5890 N   0  0  0  0  0  0  0  0  0  0  0  0
   -1.2680   14.8380    0.9920 C   0  0  0  0  0  0  0  0  0  0  0  0
   -2.8970   15.3240   -0.9670 C   0  0  0  0  0  0  0  0  0  0  0  0
   -6.6470   13.1590   -1.0420 C   0  0  0  0  0  0  0  0  0  0  0  0
   -1.7220   15.6500   -1.8270 C   0  0  0  0  0  0  0  0  0  0  0  0
   -6.7220   11.8620   -1.3540 N   0  0  0  0  0  0  0  0  0  0  0  0
  1  2  1  0
  2  3  2  0
  2  4  1  0
  3  5  1  0
  4  6  1  0
  5  6  1  0
  4  7  1  0
  6  8  1  6
  7  9  2  0
  5 10  1  0
  9 11  1  0
  8 12  2  0
  9 12  1  0
 10 13  2  3
 12 14  1  0
 13 15  1  0
M  END
