x0967_0_A_α-x0910_0_A_α
     RDKit          3D

 16 18  0  0  0  0  0  0  0  0999 V2000
   -2.5620   14.7880   -1.7740 N   0  0  0  0  0  0  0  0  0  0  0  0
   -1.4520   14.7950   -1.0170 C   0  0  0  0  0  0  0  0  0  0  0  0
   -1.5280   14.6550    0.3560 N   0  0  0  0  0  0  0  0  0  0  0  0
   -3.6880   14.7880   -0.9860 C   0  0  0  0  0  0  0  0  0  0  0  0
   -4.9660   14.6450   -1.3970 N   0  0  0  0  0  0  0  0  0  0  0  0
   -3.3340   14.9460    0.3330 C   0  0  0  0  0  0  0  0  0  0  0  0
   -0.2060   14.9350   -1.3530 N   0  0  0  0  0  0  0  0  0  0  0  0
   -5.9120   14.6420   -0.4460 C   0  0  0  0  0  0  0  0  0  0  0  0
   -4.2770   14.9440    1.2950 C   0  0  0  0  0  0  0  0  0  0  0  0
   -0.3280   14.7090    0.9340 N   0  0  0  0  0  0  0  0  0  0  0  0
    0.4330   14.8820   -0.1500 C   0  0  0  0  0  0  0  0  0  0  0  0
   -7.1790   14.4970   -0.8130 N   0  0  0  0  0  0  0  0  0  0  0  0
   -5.5880   14.7830    0.9200 C   0  0  0  0  0  0  0  0  0  0  0  0
   -6.5840   14.7600    1.8860 C   0  0  0  0  0  0  0  0  0  0  0  0
   -8.1370   14.4790    0.1410 C   0  0  0  0  0  0  0  0  0  0  0  0
   -7.8920   14.6030    1.4950 C   0  0  0  0  0  0  0  0  0  0  0  0
  1  2  1  0
  2  3  1  0
  1  4  1  0
  4  5  2  0
  4  6  1  0
  2  7  2  0
  5  8  1  0
  6  9  2  0
  3 10  1  0
  7 11  1  0
 10 11  2  0
  8 12  2  0
  8 13  1  0
  9 13  1  0
 13 14  2  0
 12 15  1  0
 14 16  1  0
 15 16  2  0
M  END
