x0962_0_A_α-x0685_0_A_α
     RDKit          3D

 10 10  0  0  0  0  0  0  0  0999 V2000
   -2.1340   14.8440   -2.1240 N   0  0  0  0  0  0  0  0  0  0  0  0
   -2.9420   14.8900   -1.2970 C   0  0  0  0  0  0  0  0  0  0  0  0
   -3.9690   14.8920   -0.3340 C   0  0  0  0  0  0  0  0  0  0  0  0
   -3.8360   14.6480    1.0110 N   0  0  0  0  0  0  0  0  0  0  0  0
   -5.3000   15.1240   -0.5250 C   0  0  0  0  0  0  0  0  0  0  0  0
   -5.0930   14.7350    1.5630 C   0  0  0  0  0  0  0  0  0  0  0  0
   -5.9780   15.0190    0.6500 N   0  0  0  0  0  0  0  0  0  0  0  0
   -5.3250   14.5320    2.8640 N   0  0  0  0  0  0  0  0  0  0  0  0
   -6.7150   14.7180    3.2950 C   0  0  0  0  0  0  0  0  0  0  0  0
   -7.4730   13.4010    3.2570 C   0  0  0  0  0  0  0  0  0  0  0  0
  1  2  3  0
  2  3  1  0
  3  4  1  0
  3  5  2  0
  4  6  1  0
  5  7  1  0
  6  7  2  0
  6  8  1  0
  8  9  1  0
  9 10  1  0
M  END
