x0962_2_B-x0711_0_A
     RDKit          3D

 21 22  0  0  0  0  0  0  0  0999 V2000
  -10.3620   16.2060    0.6310 N   0  0  0  0  0  0  0  0  0  0  0  0
   -9.6860   15.9120    1.5280 C   0  0  0  0  0  0  0  0  0  0  0  0
   -8.9010   15.5880    2.6530 C   0  0  0  0  0  0  0  0  0  0  0  0
   -9.3050   15.9090    3.9270 N   0  0  0  0  0  0  0  0  0  0  0  0
   -7.6630   14.9510    2.8080 C   0  0  0  0  0  0  0  0  0  0  0  0
   -6.7470   14.4160    1.8770 N   0  0  0  0  0  0  0  0  0  0  0  0
   -8.3510   15.4730    4.7860 C   0  0  0  0  0  0  0  0  0  0  0  0
   -7.3820   14.9000    4.1420 N   0  0  0  0  0  0  0  0  0  0  0  0
   -6.7140   14.5880    0.4830 C   0  0  0  0  0  0  0  0  0  0  0  0
   -7.6880   14.6640   -0.2520 O   0  0  0  0  0  0  0  0  0  0  0  0
   -5.3590   14.6810   -0.2080 C   0  0  0  0  0  0  0  0  0  0  0  0
   -5.3460   15.0300   -1.5770 C   0  0  0  0  0  0  0  0  0  0  0  0
   -4.1210   14.4430    0.4220 C   0  0  0  0  0  0  0  0  0  0  0  0
   -4.1410   15.1370   -2.2900 C   0  0  0  0  0  0  0  0  0  0  0  0
   -2.9140   14.5530   -0.3010 C   0  0  0  0  0  0  0  0  0  0  0  0
   -2.9210   14.9010   -1.6580 C   0  0  0  0  0  0  0  0  0  0  0  0
   -1.7130   15.0440   -2.4230 N   0  0  0  0  0  0  0  0  0  0  0  0
   -0.7170   13.8270   -3.0180 S   0  0  0  0  0  0  0  0  0  0  0  0
   -1.8290   12.7670   -3.9120 C   0  0  0  0  0  0  0  0  0  0  0  0
    0.2010   14.4190   -3.9650 O   0  0  0  0  0  0  0  0  0  0  0  0
   -0.2220   13.1080   -1.8640 O   0  0  0  0  0  0  0  0  0  0  0  0
  1  2  3  0
  2  3  1  0
  3  4  1  0
  3  5  2  0
  5  6  1  0
  4  7  1  0
  5  8  1  0
  7  8  2  0
  6  9  1  0
  9 10  2  0
  9 11  1  0
 11 12  2  0
 11 13  1  0
 12 14  1  0
 13 15  2  0
 14 16  2  0
 15 16  1  0
 16 17  1  0
 18 17  1  0
 18 19  1  0
 18 20  2  0
 18 21  2  0
M  END
