x0967_0_A-x0471_0_A
     RDKit          3D

 17 18  0  0  0  0  0  0  0  0999 V2000
   -9.3540   14.0450    2.5430 N   0  0  0  0  0  0  0  0  0  0  0  0
   -9.1810   14.9830    3.5460 C   0  0  0  0  0  0  0  0  0  0  0  0
   -9.3330   16.1900    3.3630 O   0  0  0  0  0  0  0  0  0  0  0  0
   -9.1310   14.3690    1.1350 C   0  0  0  0  0  0  0  0  0  0  0  0
   -8.7950   14.4240    4.9180 C   0  0  0  0  0  0  0  0  0  0  0  0
   -7.6590   14.5530    0.9020 C   0  0  0  0  0  0  0  0  0  0  0  0
   -9.9530   13.6560    5.5530 C   0  0  0  0  0  0  0  0  0  0  0  0
   -8.2800   15.5240    5.8460 C   0  0  0  0  0  0  0  0  0  0  0  0
   -7.1540   14.6080   -0.3730 N   0  0  0  0  0  0  0  0  0  0  0  0
   -6.8700   14.6610    2.0170 C   0  0  0  0  0  0  0  0  0  0  0  0
   -5.8270   14.7700   -0.5300 C   0  0  0  0  0  0  0  0  0  0  0  0
   -5.5240   14.8310    1.8530 C   0  0  0  0  0  0  0  0  0  0  0  0
   -4.9820   14.8840    0.5880 C   0  0  0  0  0  0  0  0  0  0  0  0
   -5.3120   14.8200   -1.7610 N   0  0  0  0  0  0  0  0  0  0  0  0
   -3.9760   14.9780   -1.9010 C   0  0  0  0  0  0  0  0  0  0  0  0
   -3.6100   15.0460    0.4270 C   0  0  0  0  0  0  0  0  0  0  0  0
   -3.0930   15.0900   -0.8490 C   0  0  0  0  0  0  0  0  0  0  0  0
  1  2  1  0
  2  3  2  0
  1  4  1  0
  2  5  1  0
  4  6  1  0
  5  7  1  0
  5  8  1  0
  6  9  2  0
  6 10  1  0
  9 11  1  0
 10 12  2  0
 11 13  2  0
 12 13  1  0
 11 14  1  0
 14 15  2  0
 13 16  1  0
 15 17  1  0
 16 17  2  0
M  END
