x0967_0_A-x0626_0_A
     RDKit          3D

 16 17  0  0  0  0  0  0  0  0999 V2000
   -4.6150   14.2690    1.9760 N   0  0  0  0  0  0  0  0  0  0  0  0
   -5.9740   14.2000    2.2620 C   0  0  0  0  0  0  0  0  0  0  0  0
   -6.6860   15.1480    2.5360 O   0  0  0  0  0  0  0  0  0  0  0  0
   -4.3180   14.5630    0.6530 C   0  0  0  0  0  0  0  0  0  0  0  0
   -6.5390   12.8000    2.1630 C   0  0  0  0  0  0  0  0  0  0  0  0
   -5.4560   14.7540   -0.1270 C   0  0  0  0  0  0  0  0  0  0  0  0
   -3.0280   14.6590    0.1150 C   0  0  0  0  0  0  0  0  0  0  0  0
   -7.9750   12.8090    1.6510 C   0  0  0  0  0  0  0  0  0  0  0  0
   -1.7420   14.4730    0.8910 C   0  0  0  0  0  0  0  0  0  0  0  0
   -5.3150   15.0370   -1.4690 C   0  0  0  0  0  0  0  0  0  0  0  0
   -6.7620   14.6710    0.3900 C   0  0  0  0  0  0  0  0  0  0  0  0
   -3.0090   14.9480   -1.2500 C   0  0  0  0  0  0  0  0  0  0  0  0
   -6.3780   15.2210   -2.2440 N   0  0  0  0  0  0  0  0  0  0  0  0
   -7.8630   14.8650   -0.3950 C   0  0  0  0  0  0  0  0  0  0  0  0
   -4.1100   15.1300   -2.0200 N   0  0  0  0  0  0  0  0  0  0  0  0
   -7.6190   15.1380   -1.7100 C   0  0  0  0  0  0  0  0  0  0  0  0
  1  2  1  0
  2  3  2  0
  1  4  1  0
  2  5  1  0
  4  6  2  0
  4  7  1  0
  5  8  1  0
  7  9  1  0
  6 10  1  0
  6 11  1  0
  7 12  2  0
 10 13  1  0
 11 14  2  0
 10 15  2  0
 12 15  1  0
 13 16  2  0
 14 16  1  0
M  END
