x0962_1_A_α-2fav_B_0_B_δ
     RDKit          3D

 18 20  0  0  0  0  0  0  0  0999 V2000
   -5.2010   14.8490   -2.0540 N   0  0  0  0  0  0  0  0  0  0  0  0
   -4.9800   14.7190   -0.6180 C   0  0  1  0  0  0  0  0  0  0  0  0
   -4.2010   15.8740   -0.0330 C   0  0  0  0  0  0  0  0  0  0  0  0
   -6.2050   14.6070    0.1550 C   0  0  0  0  0  0  0  0  0  0  0  0
   -3.4380   15.5840    1.1590 N   0  0  0  0  0  0  0  0  0  0  0  0
   -6.2490   14.4480    1.5220 N   0  0  0  0  0  0  0  0  0  0  0  0
   -7.5120   14.6360   -0.2400 C   0  0  0  0  0  0  0  0  0  0  0  0
   -7.5490   14.3910    1.8800 C   0  0  0  0  0  0  0  0  0  0  0  0
   -8.3410   14.5020    0.8360 N   0  0  0  0  0  0  0  0  0  0  0  0
   -2.2050   15.0020    0.7330 C   0  0  2  0  0  0  0  0  0  0  0  0
   -2.3940   14.2290   -0.5910 C   0  0  2  0  0  0  0  0  0  0  0  0
   -1.6590   14.1770    1.7250 N   0  0  0  0  0  0  0  0  0  0  0  0
   -0.9960   13.7830   -0.9630 C   0  0  1  0  0  0  0  0  0  0  0  0
   -2.8960   15.0300   -1.7330 N   0  0  0  0  0  0  0  0  0  0  0  0
   -0.2660   13.9760    1.3970 C   0  0  0  0  0  0  0  0  0  0  0  0
   -0.7320   14.4640   -2.2240 N   0  0  0  0  0  0  0  0  0  0  0  0
   -2.0250   14.6850   -2.8320 C   0  0  0  0  0  0  0  0  0  0  0  0
    0.0340   14.1950   -0.0300 N   0  0  0  0  0  0  0  0  0  0  0  0
  2  1  1  6
  2  3  1  0
  2  4  1  0
  3  5  1  0
  4  6  1  0
  4  7  2  0
  6  8  1  0
  7  9  1  0
  8  9  2  0
 10  5  1  1
 10 11  1  0
 10 12  1  0
 11 13  1  0
 11 14  1  6
 12 15  1  0
 13 16  1  6
 14 17  1  0
 16 17  1  0
 13 18  1  0
 15 18  1  0
M  END
