x0967_0_A-x0895_1_A
     RDKit          3D

 12 13  0  0  0  0  0  0  0  0999 V2000
   -2.5950   14.7740    1.8390 O   0  0  0  0  0  0  0  0  0  0  0  0
   -3.4250   14.8210    0.9170 C   0  0  0  0  0  0  0  0  0  0  0  0
   -4.9220   14.7490    1.0190 C   0  0  0  0  0  0  0  0  0  0  0  0
   -2.9070   14.9610   -0.4600 C   0  0  0  0  0  0  0  0  0  0  0  0
   -5.7480   14.7020   -0.2810 C   0  0  0  0  0  0  0  0  0  0  0  0
   -5.6190   14.7230    2.1540 C   0  0  0  0  0  0  0  0  0  0  0  0
   -3.6120   14.9680   -1.5880 C   0  0  0  0  0  0  0  0  0  0  0  0
   -7.0810   14.5540   -0.2330 N   0  0  0  0  0  0  0  0  0  0  0  0
   -7.0700   14.6330    2.1160 C   0  0  0  0  0  0  0  0  0  0  0  0
   -5.0360   14.8210   -1.5470 N   0  0  0  0  0  0  0  0  0  0  0  0
   -5.7750   14.7750   -2.5430 O   0  0  0  0  0  0  0  0  0  0  0  0
   -7.7470   14.5530    0.9630 C   0  0  0  0  0  0  0  0  0  0  0  0
  1  2  2  0
  2  3  1  0
  2  4  1  0
  3  5  1  0
  3  6  2  0
  4  7  2  0
  5  8  1  0
  6  9  1  0
  5 10  2  0
  7 10  1  0
 10 11  1  0
  8 12  1  0
  9 12  2  0
M  CHG  2  10   1  11  -1
M  END
