x0962_1_A_α-x0722_0_A_α
     RDKit          3D

 17 18  0  0  0  0  0  0  0  0999 V2000
   -3.9840   15.1380   -1.3550 C   0  0  0  0  0  0  0  0  0  0  0  0
   -5.4710   15.3560   -1.0920 C   0  0  1  0  0  0  0  0  0  0  0  0
   -6.2460   14.3580   -1.8830 C   0  0  0  0  0  0  0  0  0  0  0  0
   -3.0930   14.9470   -0.1970 C   0  0  0  0  0  0  0  0  0  0  0  0
   -6.1460   14.9870    0.1620 C   0  0  0  0  0  0  0  0  0  0  0  0
   -3.2180   15.2990    1.1710 C   0  0  0  0  0  0  0  0  0  0  0  0
   -1.8680   14.3460   -0.2720 C   0  0  0  0  0  0  0  0  0  0  0  0
   -7.1850   14.6280   -2.6090 O   0  0  0  0  0  0  0  0  0  0  0  0
   -5.8590   13.0680   -1.6610 N   0  0  0  0  0  0  0  0  0  0  0  0
   -4.2770   15.9810    1.8990 C   0  0  0  0  0  0  0  0  0  0  0  0
   -5.6950   14.8330    1.4350 N   0  0  0  0  0  0  0  0  0  0  0  0
   -7.4880   14.7110    0.2300 C   0  0  0  0  0  0  0  0  0  0  0  0
   -2.1630   14.9320    1.8530 N   0  0  0  0  0  0  0  0  0  0  0  0
   -1.3670   14.3740    0.9720 N   0  0  0  0  0  0  0  0  0  0  0  0
   -0.1160   13.8880    1.4150 C   0  0  0  0  0  0  0  0  0  0  0  0
   -6.7800   14.4830    2.1970 C   0  0  0  0  0  0  0  0  0  0  0  0
   -7.8740   14.4020    1.4870 N   0  0  0  0  0  0  0  0  0  0  0  0
  2  1  1  1
  2  3  1  0
  1  4  1  0
  2  5  1  0
  4  6  1  0
  4  7  2  0
  3  8  2  0
  3  9  1  0
  6 10  1  0
  5 11  1  0
  5 12  2  0
  6 13  2  0
  7 14  1  0
 13 14  1  0
 14 15  1  0
 11 16  1  0
 12 17  1  0
 16 17  2  0
M  END
