x0962_3_A_α-x0727_0_A_α
     RDKit          3D

 13 13  0  0  0  0  0  0  0  0999 V2000
    0.7270   11.6600   -8.2890 N   0  0  0  0  0  0  0  0  0  0  0  0
    0.8220   10.8740   -7.1160 C   0  0  1  0  0  0  0  0  0  0  0  0
    0.2310   11.6740   -6.0440 N   0  0  0  0  0  0  0  0  0  0  0  0
   -0.0260    9.7250   -7.3720 C   0  0  0  0  0  0  0  0  0  0  0  0
    1.0510   12.3850   -5.0350 C   0  0  1  0  0  0  0  0  0  0  0  0
    0.3020    8.6630   -8.1880 N   0  0  0  0  0  0  0  0  0  0  0  0
   -1.2780    9.4340   -6.9040 C   0  0  0  0  0  0  0  0  0  0  0  0
    0.8580   13.8930   -5.1080 C   0  0  0  0  0  0  0  0  0  0  0  0
    0.8370   11.8940   -3.5810 C   0  0  0  0  0  0  0  0  0  0  0  0
   -0.7580    7.8030   -8.1640 C   0  0  0  0  0  0  0  0  0  0  0  0
   -1.7260    8.2470   -7.3960 N   0  0  0  0  0  0  0  0  0  0  0  0
    0.2570   10.8680   -3.2460 O   0  0  0  0  0  0  0  0  0  0  0  0
    1.3790   12.7300   -2.6600 O   0  0  0  0  0  0  0  0  0  0  0  0
  2  1  1  6
  2  3  1  0
  2  4  1  0
  3  5  1  0
  4  6  1  0
  4  7  2  0
  5  8  1  1
  5  9  1  0
  6 10  1  0
  7 11  1  0
 10 11  2  0
  9 12  2  0
  9 13  1  0
M  END
