x0962_0_A_α-x0104_0_A_α
     RDKit          3D

 16 17  0  0  0  0  0  0  0  0999 V2000
   -2.7230   15.0100   -2.2120 N   0  0  0  0  0  0  0  0  0  0  0  0
   -3.3880   15.0320   -1.2590 C   0  0  0  0  0  0  0  0  0  0  0  0
   -4.1970   14.9750   -0.0730 C   0  0  0  0  0  0  0  0  0  0  0  0
   -3.7750   15.4660    1.1380 N   0  0  0  0  0  0  0  0  0  0  0  0
   -5.4620   14.4360    0.0440 C   0  0  0  0  0  0  0  0  0  0  0  0
   -4.7660   15.2240    1.9790 C   0  0  0  0  0  0  0  0  0  0  0  0
   -5.8160   14.5910    1.3660 N   0  0  0  0  0  0  0  0  0  0  0  0
   -7.0840   14.1320    1.9890 C   0  0  0  0  0  0  0  0  0  0  0  0
   -7.9760   15.0680    2.8300 C   0  0  0  0  0  0  0  0  0  0  0  0
   -7.8150   14.9960    4.2140 N   0  0  0  0  0  0  0  0  0  0  0  0
   -8.7960   15.7850    2.2610 O   0  0  0  0  0  0  0  0  0  0  0  0
   -8.8810   15.0450    5.1210 C   0  0  0  0  0  0  0  0  0  0  0  0
   -8.9610   15.1710    6.4950 C   0  0  0  0  0  0  0  0  0  0  0  0
  -10.4280   14.9230    4.4070 S   0  0  0  0  0  0  0  0  0  0  0  0
  -10.3210   15.1650    6.9580 C   0  0  0  0  0  0  0  0  0  0  0  0
  -11.2210   15.0360    5.9240 C   0  0  0  0  0  0  0  0  0  0  0  0
  1  2  3  0
  2  3  1  0
  3  4  1  0
  3  5  2  0
  4  6  2  0
  5  7  1  0
  6  7  1  0
  7  8  1  0
  8  9  1  0
  9 10  1  0
  9 11  2  0
 10 12  1  0
 12 13  2  0
 12 14  1  0
 13 15  1  0
 14 16  1  0
 15 16  2  0
M  END
