x1012_0_A_α-x0228_0_B_β
     RDKit          3D

 28 29  0  0  0  0  0  0  0  0999 V2000
   -0.0090   18.0990   -4.4590 N   0  0  0  0  0  0  0  0  0  0  0  0
   -1.0460   17.3870   -4.9500 C   0  0  0  0  0  0  0  0  0  0  0  0
   -2.0850   17.9120   -5.5060 N   0  0  0  0  0  0  0  0  0  0  0  0
   -0.7880   16.0340   -4.7620 N   0  0  0  0  0  0  0  0  0  0  0  0
   -2.0510   19.3930   -5.5760 C   0  0  0  0  0  0  0  0  0  0  0  0
   -1.8290   14.9950   -4.6220 C   0  0  0  0  0  0  0  0  0  0  0  0
    0.6150   15.5620   -4.7870 C   0  0  0  0  0  0  0  0  0  0  0  0
   -2.9610   19.9720   -6.6730 C   0  0  0  0  0  0  0  0  0  0  0  0
   -1.5130   13.9830   -3.5040 C   0  0  0  0  0  0  0  0  0  0  0  0
    0.9110   14.6430   -3.6000 C   0  0  0  0  0  0  0  0  0  0  0  0
   -3.5960   21.3230   -6.2860 C   0  0  0  0  0  0  0  0  0  0  0  0
   -0.0650   13.4610   -3.5730 C   0  0  0  0  0  0  0  0  0  0  0  0
    0.2080   12.5020   -2.4210 C   0  0  0  0  0  0  0  0  0  0  0  0
   -4.9040   21.7480   -6.9880 C   0  0  0  0  0  0  0  0  0  0  0  0
    0.0810   11.2070   -2.7880 O   0  0  0  0  0  0  0  0  0  0  0  0
    0.4990   12.8160   -1.2750 O   0  0  0  0  0  0  0  0  0  0  0  0
   -4.9470   23.2110   -7.4980 C   0  0  0  0  0  0  0  0  0  0  0  0
   -4.2660   23.4020   -8.8610 C   0  0  0  0  0  0  0  0  0  0  0  0
   -5.2620   23.8100   -9.9790 C   0  0  0  0  0  0  0  0  0  0  0  0
   -4.8160   24.5640  -11.2670 C   0  0  0  0  0  0  0  0  0  0  0  0
   -5.7800   24.7370  -12.2470 C   0  0  0  0  0  0  0  0  0  0  0  0
   -3.5570   25.1070  -11.5880 C   0  0  0  0  0  0  0  0  0  0  0  0
   -5.4920   25.3990  -13.4490 C   0  0  0  0  0  0  0  0  0  0  0  0
   -3.2440   25.7560  -12.7560 C   0  0  0  0  0  0  0  0  0  0  0  0
   -6.5110   25.5440  -14.4020 N   0  0  0  0  0  0  0  0  0  0  0  0
   -4.2060   25.9110  -13.7050 C   0  0  0  0  0  0  0  0  0  0  0  0
   -4.0040   26.5390  -14.9070 O   0  0  0  0  0  0  0  0  0  0  0  0
   -2.6540   26.8800  -15.2210 C   0  0  0  0  0  0  0  0  0  0  0  0
  1  2  1  0
  2  3  2  3
  2  4  1  0
  3  5  1  0
  4  6  1  0
  4  7  1  0
  5  8  1  0
  6  9  1  0
  7 10  1  0
  8 11  1  0
  9 12  1  0
 10 12  1  0
 12 13  1  0
 11 14  1  0
 13 15  1  0
 13 16  2  0
 14 17  1  0
 17 18  1  0
 18 19  1  0
 19 20  1  0
 20 21  2  0
 20 22  1  0
 21 23  1  0
 22 24  2  0
 23 25  1  0
 23 26  2  0
 24 26  1  0
 26 27  1  0
 27 28  1  0
M  END
