x1012_0_A-x0895_1_A
     RDKit          3D

 22 23  0  0  0  0  0  0  0  0999 V2000
   -0.2990   18.1680   -4.7160 N   0  0  0  0  0  0  0  0  0  0  0  0
   -1.2140   17.1740   -4.7750 C   0  0  0  0  0  0  0  0  0  0  0  0
   -2.3970   17.4690   -4.7490 O   0  0  0  0  0  0  0  0  0  0  0  0
   -0.7330   15.8860   -4.8330 N   0  0  0  0  0  0  0  0  0  0  0  0
   -1.7150   14.7990   -4.6990 C   0  0  0  0  0  0  0  0  0  0  0  0
    0.6850   15.5120   -4.8980 C   0  0  0  0  0  0  0  0  0  0  0  0
   -1.3610   13.7920   -3.6090 C   0  0  0  0  0  0  0  0  0  0  0  0
    1.0700   14.5200   -3.8030 C   0  0  0  0  0  0  0  0  0  0  0  0
    0.0920   13.3280   -3.7160 C   0  0  0  0  0  0  0  0  0  0  0  0
    0.4130   12.3140   -2.6220 C   0  0  0  0  0  0  0  0  0  0  0  0
    0.3780   11.0150   -2.9430 O   0  0  0  0  0  0  0  0  0  0  0  0
    0.6980   12.6790   -1.4320 N   0  0  0  0  0  0  0  0  0  0  0  0
    0.6990   14.1100   -1.1700 C   0  0  0  0  0  0  0  0  0  0  0  0
   -0.6310   14.3780   -0.5060 C   0  0  0  0  0  0  0  0  0  0  0  0
   -0.4910   14.7490    0.9610 C   0  0  0  0  0  0  0  0  0  0  0  0
   -1.7860   14.7240    1.6410 N   0  0  0  0  0  0  0  0  0  0  0  0
   -2.8970   14.7240    0.9740 C   0  0  0  0  0  0  0  0  0  0  0  0
   -3.0650   14.7050   -0.5400 C   0  0  0  0  0  0  0  0  0  0  0  0
   -4.1340   14.7340    1.5090 N   0  0  0  0  0  0  0  0  0  0  0  0
   -4.4390   15.1080   -0.6330 N   0  0  0  0  0  0  0  0  0  0  0  0
   -5.0750   14.8610    0.5530 C   0  0  0  0  0  0  0  0  0  0  0  0
   -6.2800   14.7710    0.6960 O   0  0  0  0  0  0  0  0  0  0  0  0
  1  2  1  0
  2  3  2  0
  2  4  1  0
  4  5  1  0
  4  6  1  0
  5  7  1  0
  6  8  1  0
  7  9  1  0
  8  9  1  0
  9 10  1  0
 10 11  1  0
 10 12  2  3
 12 13  1  0
 13 14  1  0
 14 15  1  0
 15 16  1  0
 16 17  2  3
 17 18  1  0
 17 19  1  0
 18 20  1  0
 19 21  1  0
 20 21  1  0
 21 22  2  0
M  END
