x1015_0_A_α-5L9K_0_B_β
     RDKit          3D

 27 28  0  0  0  0  0  0  0  0999 V2000
   -1.5120   14.0720   -3.5400 C   0  0  0  0  0  0  0  0  0  0  0  0
   -0.1850   13.6160   -3.9430 C   0  0  2  0  0  0  0  0  0  0  0  0
    0.0460   12.1500   -4.1060 N   0  0  0  0  0  0  0  0  0  0  0  0
    0.8140   13.7470   -2.7530 C   0  0  0  0  0  0  0  0  0  0  0  0
    1.6680   14.5500   -2.7610 N   0  0  0  0  0  0  0  0  0  0  0  0
    0.2920   11.6110   -2.7500 C   0  0  0  0  0  0  0  0  0  0  0  0
    0.3740   12.7450   -1.8620 N   0  0  0  0  0  0  0  0  0  0  0  0
   -0.3690   11.3510   -5.1480 C   0  0  0  0  0  0  0  0  0  0  0  0
    0.3760   10.4040   -2.4910 O   0  0  0  0  0  0  0  0  0  0  0  0
    1.8610   15.4350   -3.9500 C   0  0  0  0  0  0  0  0  0  0  0  0
   -0.0810   11.6260   -6.4540 C   0  0  0  0  0  0  0  0  0  0  0  0
   -1.1240   10.1990   -4.9450 C   0  0  0  0  0  0  0  0  0  0  0  0
    0.6170   16.2990   -3.8900 C   0  0  0  0  0  0  0  0  0  0  0  0
   -0.4820   10.8640   -7.5310 C   0  0  0  0  0  0  0  0  0  0  0  0
   -1.5480    9.4110   -5.9990 C   0  0  0  0  0  0  0  0  0  0  0  0
    0.2050   17.3240   -4.8050 C   0  0  0  0  0  0  0  0  0  0  0  0
   -1.2250    9.7440   -7.3180 C   0  0  0  0  0  0  0  0  0  0  0  0
   -1.7730    8.7370   -8.6190 Cl  0  0  0  0  0  0  0  0  0  0  0  0
   -0.7650   16.8940   -5.7010 O   0  0  0  0  0  0  0  0  0  0  0  0
   -1.8280   18.1920   -5.9660 P   0  0  0  0  0  0  0  0  0  0  0  0
   -0.8470   19.1180   -6.5220 O   0  0  0  0  0  0  0  0  0  0  0  0
   -2.1070   19.1850   -4.6710 O   0  0  0  0  0  0  0  0  0  0  0  0
   -2.8510   18.1360   -7.1270 O   0  0  0  0  0  0  0  0  0  0  0  0
   -0.7590   19.8770   -7.8780 P   0  0  0  0  0  0  0  0  0  0  0  0
   -2.3090   20.4810   -7.7230 O   0  0  0  0  0  0  0  0  0  0  0  0
   -0.4870   18.4170   -8.6060 O   0  0  0  0  0  0  0  0  0  0  0  0
    0.4450   20.8390   -7.5420 O   0  0  0  0  0  0  0  0  0  0  0  0
  2  1  1  1
  2  3  1  0
  2  4  1  0
  4  5  2  3
  3  6  1  0
  4  7  1  0
  6  7  1  0
  3  8  1  0
  6  9  2  0
  5 10  1  0
  8 11  2  0
  8 12  1  0
 10 13  1  0
 11 14  1  0
 12 15  2  0
 13 16  1  0
 14 17  2  0
 15 17  1  0
 17 18  1  0
 16 19  1  0
 19 20  1  0
 20 21  1  0
 20 22  1  0
 20 23  1  0
 21 24  1  0
 24 25  1  0
 24 26  1  0
 24 27  1  0
M  CHG  2  22  -1  26  -1
M  END
