x1018_0_A-x0727_0_A
     RDKit          3D

 26 28  0  0  0  0  0  0  0  0999 V2000
   -8.5100   14.5680    0.7960 Cl  0  0  0  0  0  0  0  0  0  0  0  0
   -6.8520   14.5650    0.3060 C   0  0  0  0  0  0  0  0  0  0  0  0
   -5.8080   14.1490    1.2790 C   0  0  0  0  0  0  0  0  0  0  0  0
   -6.6030   14.9350   -0.9080 N   0  0  0  0  0  0  0  0  0  0  0  0
   -5.2710   14.9050   -1.1750 N   0  0  0  0  0  0  0  0  0  0  0  0
   -4.5360   14.5220    1.0080 C   0  0  0  0  0  0  0  0  0  0  0  0
   -4.8340   15.0730   -2.4690 N   0  0  0  0  0  0  0  0  0  0  0  0
   -4.2700   15.3130   -0.2180 C   0  0  1  0  0  0  0  0  0  0  0  0
   -3.0230   15.1410   -0.9840 N   0  0  0  0  0  0  0  0  0  0  0  0
   -3.4180   14.8730   -2.3660 N   0  0  0  0  0  0  0  0  0  0  0  0
   -2.0540   14.1560   -0.5150 C   0  0  0  0  0  0  0  0  0  0  0  0
   -0.7240   14.2960   -1.2770 C   0  0  0  0  0  0  0  0  0  0  0  0
    0.1830   13.0840   -1.2140 C   0  0  0  0  0  0  0  0  0  0  0  0
    1.0190   12.9650   -2.3770 O   0  0  0  0  0  0  0  0  0  0  0  0
    0.6660   11.9500   -3.2210 C   0  0  0  0  0  0  0  0  0  0  0  0
    0.9000   12.3560   -4.6820 C   0  0  1  0  0  0  0  0  0  0  0  0
    0.2250   10.8610   -2.8610 O   0  0  0  0  0  0  0  0  0  0  0  0
    0.1610   11.4400   -5.5520 N   0  0  0  0  0  0  0  0  0  0  0  0
    0.4820   13.7960   -4.9270 C   0  0  0  0  0  0  0  0  0  0  0  0
    0.7020   11.1020   -6.7580 C   0  0  0  0  0  0  0  0  0  0  0  0
    1.6460   11.7110   -7.1930 O   0  0  0  0  0  0  0  0  0  0  0  0
    0.1040    9.9210   -7.5100 C   0  0  0  0  0  0  0  0  0  0  0  0
   -1.1870   10.2950   -8.2480 C   0  0  0  0  0  0  0  0  0  0  0  0
   -0.2400    8.7210   -6.6110 C   0  0  0  0  0  0  0  0  0  0  0  0
   -2.1260    9.1140   -8.0360 C   0  0  0  0  0  0  0  0  0  0  0  0
   -1.7500    8.5710   -6.6680 C   0  0  0  0  0  0  0  0  0  0  0  0
  1  2  1  0
  2  3  1  0
  2  4  2  0
  4  5  1  0
  3  6  2  0
  5  7  1  0
  5  8  1  0
  8  6  1  1
  8  9  1  0
  7 10  1  0
  9 10  1  0
  9 11  1  0
 11 12  1  0
 12 13  1  0
 13 14  1  0
 14 15  1  0
 15 16  1  0
 15 17  2  0
 16 18  1  0
 16 19  1  1
 18 20  1  0
 20 21  2  0
 20 22  1  0
 22 23  1  0
 22 24  1  0
 23 25  1  0
 24 26  1  0
 25 26  1  0
M  END
