x1018_0_A_α-x0910_1_A_α
     RDKit          3D

 10 11  0  0  0  0  0  0  0  0999 V2000
   -8.3590   14.5420    0.8870 Cl  0  0  0  0  0  0  0  0  0  0  0  0
   -6.6890   14.6360    0.4600 C   0  0  0  0  0  0  0  0  0  0  0  0
   -5.6760   14.6130    1.5540 C   0  0  0  0  0  0  0  0  0  0  0  0
   -6.4370   14.7260   -0.8050 N   0  0  0  0  0  0  0  0  0  0  0  0
   -5.1100   14.7960   -1.0530 N   0  0  0  0  0  0  0  0  0  0  0  0
   -4.3830   14.6870    1.2150 C   0  0  0  0  0  0  0  0  0  0  0  0
   -4.6150   14.8920   -2.2910 N   0  0  0  0  0  0  0  0  0  0  0  0
   -4.0620   14.7820   -0.1530 C   0  0  0  0  0  0  0  0  0  0  0  0
   -2.9350   14.8640   -0.8210 N   0  0  0  0  0  0  0  0  0  0  0  0
   -3.2990   14.9330   -2.1450 N   0  0  0  0  0  0  0  0  0  0  0  0
  1  2  1  0
  2  3  1  0
  2  4  2  0
  4  5  1  0
  3  6  2  0
  5  7  1  0
  5  8  1  0
  6  8  1  0
  8  9  2  0
  7 10  2  0
  9 10  1  0
M  END
