x1015_0_A-x0662_0_A
     RDKit          3D

 33 36  0  0  0  0  0  0  0  0999 V2000
   -1.8200   14.8440   -4.3950 C   0  0  0  0  0  0  0  0  0  0  0  0
   -0.5290   14.0790   -4.1790 C   0  0  2  0  0  0  0  0  0  0  0  0
   -0.4780   12.6370   -4.3070 N   0  0  0  0  0  0  0  0  0  0  0  0
    0.1430   14.2930   -2.8210 C   0  0  0  0  0  0  0  0  0  0  0  0
    0.6560   15.3230   -2.4140 O   0  0  0  0  0  0  0  0  0  0  0  0
   -0.2010   12.0950   -2.9870 C   0  0  0  0  0  0  0  0  0  0  0  0
    0.0760   13.1240   -2.1400 N   0  0  0  0  0  0  0  0  0  0  0  0
   -1.2310   11.8100   -5.2430 C   0  0  0  0  0  0  0  0  0  0  0  0
   -0.1960   10.9130   -2.6300 O   0  0  0  0  0  0  0  0  0  0  0  0
   -2.3320   12.1750   -5.9600 C   0  0  0  0  0  0  0  0  0  0  0  0
   -0.7540   10.5630   -5.3900 C   0  0  0  0  0  0  0  0  0  0  0  0
    0.3250   10.6470   -4.6560 N   0  0  0  0  0  0  0  0  0  0  0  0
   -2.9110   11.2120   -6.8050 C   0  0  0  0  0  0  0  0  0  0  0  0
   -1.2870    9.5680   -6.1680 C   0  0  0  0  0  0  0  0  0  0  0  0
    1.1960   10.7070   -5.5910 C   0  0  0  0  0  0  0  0  0  0  0  0
   -2.3950    9.9090   -6.9030 C   0  0  0  0  0  0  0  0  0  0  0  0
   -3.1260    8.7530   -7.9480 Cl  0  0  0  0  0  0  0  0  0  0  0  0
    2.3920   10.9940   -5.6610 O   0  0  0  0  0  0  0  0  0  0  0  0
    0.7390   10.2300   -6.9730 C   0  0  0  0  0  0  0  0  0  0  0  0
   -0.1230    9.1180   -7.0050 C   0  0  0  0  0  0  0  0  0  0  0  0
    1.1430   10.7640   -8.1850 C   0  0  0  0  0  0  0  0  0  0  0  0
   -0.5450    8.5640   -8.2140 C   0  0  0  0  0  0  0  0  0  0  0  0
    0.7620   10.1970   -9.4120 C   0  0  0  0  0  0  0  0  0  0  0  0
    1.1900   10.5970  -10.7020 N   0  0  0  0  0  0  0  0  0  0  0  0
   -0.0980    9.0960   -9.4110 C   0  0  0  0  0  0  0  0  0  0  0  0
    1.9870    9.6860  -11.4240 C   0  0  0  0  0  0  0  0  0  0  0  0
    2.0890    8.4980  -11.1210 O   0  0  0  0  0  0  0  0  0  0  0  0
    2.7690   10.1900  -12.5880 C   0  0  0  0  0  0  0  0  0  0  0  0
    2.6970   11.4470  -13.2650 C   0  0  0  0  0  0  0  0  0  0  0  0
    3.7190    9.4120  -13.1570 N   0  0  0  0  0  0  0  0  0  0  0  0
    4.2270   10.1500  -14.1500 N   0  0  0  0  0  0  0  0  0  0  0  0
    3.6490   11.3820  -14.2620 C   0  0  0  0  0  0  0  0  0  0  0  0
    5.2870    9.6010  -14.9640 C   0  0  0  0  0  0  0  0  0  0  0  0
  2  1  1  1
  2  3  1  0
  2  4  1  0
  4  5  2  0
  3  6  1  0
  4  7  1  0
  6  7  1  0
  3  8  1  0
  6  9  2  0
  8 10  2  0
  8 11  1  0
 11 12  1  0
 10 13  1  0
 11 14  2  0
 12 15  2  3
 13 16  2  0
 14 16  1  0
 16 17  1  0
 15 18  1  0
 15 19  1  0
 19 20  2  0
 19 21  1  0
 20 22  1  0
 21 23  2  0
 23 24  1  0
 22 25  2  0
 23 25  1  0
 24 26  1  0
 26 27  2  0
 26 28  1  0
 28 29  1  0
 28 30  2  0
 30 31  1  0
 29 32  2  0
 31 32  1  0
 31 33  1  0
M  CHG  1  18  -1
M  END
