x1012_0_A_α-x0852_0_B_α
     RDKit          3D

 29 30  0  0  0  0  0  0  0  0999 V2000
   -1.7350   17.5500   -4.7140 N   0  0  0  0  0  0  0  0  0  0  0  0
   -1.7680   16.2040   -4.4410 C   0  0  0  0  0  0  0  0  0  0  0  0
   -2.5130   15.4270   -3.7010 N   0  0  0  0  0  0  0  0  0  0  0  0
   -0.7810   15.5470   -5.0950 N   0  0  0  0  0  0  0  0  0  0  0  0
   -3.6570   15.6350   -2.8090 C   0  0  0  0  0  0  0  0  0  0  0  0
   -1.1510   14.1660   -5.3870 C   0  0  0  0  0  0  0  0  0  0  0  0
    0.6080   15.6690   -4.6010 C   0  0  0  0  0  0  0  0  0  0  0  0
   -4.2520   14.3640   -2.2160 C   0  0  0  0  0  0  0  0  0  0  0  0
   -1.0490   13.3220   -4.1300 C   0  0  0  0  0  0  0  0  0  0  0  0
    0.9170   14.7320   -3.4110 C   0  0  0  0  0  0  0  0  0  0  0  0
   -5.7830   14.3480   -2.3980 C   0  0  0  0  0  0  0  0  0  0  0  0
    0.3820   13.2980   -3.6120 C   0  0  0  0  0  0  0  0  0  0  0  0
    0.4350   12.4280   -2.3740 C   0  0  0  0  0  0  0  0  0  0  0  0
   -6.5950   15.2860   -1.4790 C   0  0  0  0  0  0  0  0  0  0  0  0
    0.1610   11.1350   -2.6620 O   0  0  0  0  0  0  0  0  0  0  0  0
    0.6640   12.7570   -1.2220 O   0  0  0  0  0  0  0  0  0  0  0  0
   -8.1250   15.2400   -1.6830 C   0  0  0  0  0  0  0  0  0  0  0  0
   -8.9990   16.2870   -0.9650 C   0  0  0  0  0  0  0  0  0  0  0  0
   -9.8960   15.6630    0.1230 C   0  0  0  0  0  0  0  0  0  0  0  0
  -10.1430   16.5890    1.2050 O   0  0  0  0  0  0  0  0  0  0  0  0
   -9.5750   16.2950    2.4400 C   0  0  0  0  0  0  0  0  0  0  0  0
   -8.6470   15.2460    2.4290 C   0  0  0  0  0  0  0  0  0  0  0  0
   -9.8360   16.9390    3.6610 C   0  0  0  0  0  0  0  0  0  0  0  0
   -7.9860   14.8450    3.5960 C   0  0  0  0  0  0  0  0  0  0  0  0
   -9.1740   16.5390    4.8440 C   0  0  0  0  0  0  0  0  0  0  0  0
   -9.4660   17.2190    6.0760 C   0  0  0  0  0  0  0  0  0  0  0  0
   -8.2470   15.4900    4.7980 C   0  0  0  0  0  0  0  0  0  0  0  0
   -9.7270   17.7080    7.1040 N   0  0  0  0  0  0  0  0  0  0  0  0
   -7.5950   15.0960    5.9380 O   0  0  0  0  0  0  0  0  0  0  0  0
  1  2  1  0
  2  3  2  3
  2  4  1  0
  3  5  1  0
  4  6  1  0
  4  7  1  0
  5  8  1  0
  6  9  1  0
  7 10  1  0
  8 11  1  0
  9 12  1  0
 10 12  1  0
 12 13  1  0
 11 14  1  0
 13 15  1  0
 13 16  2  0
 14 17  1  0
 17 18  1  0
 18 19  1  0
 19 20  1  0
 20 21  1  0
 21 22  2  0
 21 23  1  0
 22 24  1  0
 23 25  2  0
 25 26  1  0
 24 27  2  0
 25 27  1  0
 26 28  3  0
 27 29  1  0
M  END
