x1012_0_A-x0685_1_A
     RDKit          3D

 22 23  0  0  0  0  0  0  0  0999 V2000
   -0.4250   18.3320   -4.9340 N   0  0  0  0  0  0  0  0  0  0  0  0
   -1.2300   17.2040   -4.7850 C   0  0  0  0  0  0  0  0  0  0  0  0
   -2.4620   17.3620   -4.6610 O   0  0  0  0  0  0  0  0  0  0  0  0
   -0.6800   15.9210   -4.7300 N   0  0  0  0  0  0  0  0  0  0  0  0
   -1.6190   14.8320   -4.4570 C   0  0  0  0  0  0  0  0  0  0  0  0
    0.7460   15.8070   -4.4750 C   0  0  0  0  0  0  0  0  0  0  0  0
   -1.1060   14.1020   -3.2460 C   0  0  0  0  0  0  0  0  0  0  0  0
    1.1570   14.8540   -3.4190 C   0  0  0  0  0  0  0  0  0  0  0  0
    0.3220   13.5890   -3.5200 C   0  0  0  0  0  0  0  0  0  0  0  0
    0.6870   12.1940   -2.8490 S   0  0  0  0  0  0  0  0  0  0  0  0
    0.7640   10.9610   -2.0060 O   0  0  0  0  0  0  0  0  0  0  0  0
   -0.1610   12.6440   -1.4110 O   0  0  0  0  0  0  0  0  0  0  0  0
    0.0190   11.4060   -4.0830 C   0  0  0  0  0  0  0  0  0  0  0  0
    2.2760   12.4750   -2.8250 O   0  0  0  0  0  0  0  0  0  0  0  0
   -1.4510   11.4610   -4.2520 C   0  0  0  0  0  0  0  0  0  0  0  0
   -1.9290   10.6520   -5.2540 N   0  0  0  0  0  0  0  0  0  0  0  0
   -1.2480   10.3240   -6.3910 C   0  0  0  0  0  0  0  0  0  0  0  0
   -0.8200    8.8930   -6.5320 C   0  0  0  0  0  0  0  0  0  0  0  0
   -1.9380   10.7450   -7.6780 C   0  0  0  0  0  0  0  0  0  0  0  0
    0.0750    8.6500   -7.7580 C   0  0  0  0  0  0  0  0  0  0  0  0
   -0.9150   10.6370   -8.7880 C   0  0  0  0  0  0  0  0  0  0  0  0
   -0.6300    9.1700   -8.9960 C   0  0  0  0  0  0  0  0  0  0  0  0
  1  2  1  0
  2  3  2  0
  2  4  1  0
  4  5  1  0
  4  6  1  0
  5  7  1  0
  6  8  1  0
  7  9  1  0
  8  9  1  0
  9 10  1  0
 10 11  1  0
 10 12  2  0
 10 13  1  0
 10 14  1  0
 13 15  1  0
 15 16  1  0
 16 17  1  0
 17 18  1  0
 17 19  1  0
 18 20  1  0
 19 21  1  0
 20 22  1  0
 21 22  1  0
M  END
