x1012_0_A-x0844_0_A
     RDKit          3D

 21 22  0  0  0  0  0  0  0  0999 V2000
   -0.2480   18.1350   -4.5970 N   0  0  0  0  0  0  0  0  0  0  0  0
   -1.2120   17.2060   -4.7810 C   0  0  0  0  0  0  0  0  0  0  0  0
   -2.3680   17.5980   -4.8690 O   0  0  0  0  0  0  0  0  0  0  0  0
   -0.8130   15.8910   -4.8170 N   0  0  0  0  0  0  0  0  0  0  0  0
   -1.7310   14.7520   -4.7500 C   0  0  0  0  0  0  0  0  0  0  0  0
    0.6170   15.5770   -4.7380 C   0  0  0  0  0  0  0  0  0  0  0  0
   -1.4580   13.7820   -3.5830 C   0  0  2  0  0  0  0  0  0  0  0  0
    0.9580   14.6640   -3.5640 C   0  0  0  0  0  0  0  0  0  0  0  0
   -2.0710   14.2710   -2.2470 C   0  0  0  0  0  0  0  0  0  0  0  0
    0.0460   13.4200   -3.5410 C   0  0  1  0  0  0  0  0  0  0  0  0
    0.3510   12.4860   -2.3870 C   0  0  0  0  0  0  0  0  0  0  0  0
   -3.4740   14.4740   -2.3670 O   0  0  0  0  0  0  0  0  0  0  0  0
    0.4030   11.1910   -2.7610 O   0  0  0  0  0  0  0  0  0  0  0  0
    0.5260   12.7780   -1.2190 O   0  0  0  0  0  0  0  0  0  0  0  0
   -4.0990   15.3010   -1.3700 C   0  0  2  0  0  0  0  0  0  0  0  0
   -3.4600   15.0680   -0.0370 C   0  0  0  0  0  0  0  0  0  0  0  0
   -5.6060   15.0550   -1.4160 C   0  0  0  0  0  0  0  0  0  0  0  0
   -4.1650   14.8640    1.0670 C   0  0  0  0  0  0  0  0  0  0  0  0
   -6.3020   14.8850   -0.0840 C   0  0  0  0  0  0  0  0  0  0  0  0
   -7.5290   14.7880   -0.0040 O   0  0  0  0  0  0  0  0  0  0  0  0
   -5.5270   14.8420    1.0480 N   0  0  0  0  0  0  0  0  0  0  0  0
  1  2  1  0
  2  3  2  0
  2  4  1  0
  4  5  1  0
  4  6  1  0
  5  7  1  0
  6  8  1  0
  7  9  1  1
  7 10  1  0
  8 10  1  0
 10 11  1  1
  9 12  1  0
 11 13  1  0
 11 14  2  0
 15 12  1  6
 15 16  1  0
 15 17  1  0
 16 18  2  0
 17 19  1  0
 19 20  2  0
 18 21  1  0
 19 21  1  0
M  END
