x1012_0_A_α-x0895_0_A_α
     RDKit          3D

 21 22  0  0  0  0  0  0  0  0999 V2000
   -0.8020   17.9520   -5.0220 N   0  0  0  0  0  0  0  0  0  0  0  0
   -1.4320   16.7740   -4.7780 C   0  0  0  0  0  0  0  0  0  0  0  0
   -2.6640   16.8090   -4.4240 N   0  0  0  0  0  0  0  0  0  0  0  0
   -0.6260   15.6830   -4.9450 N   0  0  0  0  0  0  0  0  0  0  0  0
   -3.3530   15.5210   -4.1540 C   0  0  0  0  0  0  0  0  0  0  0  0
   -1.1960   14.3610   -5.1970 C   0  0  0  0  0  0  0  0  0  0  0  0
    0.7790   15.7070   -4.5220 C   0  0  0  0  0  0  0  0  0  0  0  0
   -3.0930   14.9590   -2.7360 C   0  0  0  0  0  0  0  0  0  0  0  0
   -1.0690   13.4570   -3.9880 C   0  0  0  0  0  0  0  0  0  0  0  0
    1.0510   14.6900   -3.4000 C   0  0  0  0  0  0  0  0  0  0  0  0
   -4.2100   15.2110   -1.8030 N   0  0  0  0  0  0  0  0  0  0  0  0
    0.3980   13.3060   -3.6220 C   0  0  0  0  0  0  0  0  0  0  0  0
    0.4850   12.4120   -2.4080 C   0  0  0  0  0  0  0  0  0  0  0  0
   -3.9670   15.0650   -0.5610 C   0  0  0  0  0  0  0  0  0  0  0  0
    0.3800   11.1080   -2.7320 O   0  0  0  0  0  0  0  0  0  0  0  0
    0.6190   12.7430   -1.2440 O   0  0  0  0  0  0  0  0  0  0  0  0
   -4.7250   15.2220    0.5560 N   0  0  0  0  0  0  0  0  0  0  0  0
   -2.7320   14.6790   -0.1600 N   0  0  0  0  0  0  0  0  0  0  0  0
   -3.8190   15.7180    1.5690 C   0  0  0  0  0  0  0  0  0  0  0  0
   -2.5760   14.9220    1.1790 C   0  0  0  0  0  0  0  0  0  0  0  0
   -1.6340   14.5760    1.8810 O   0  0  0  0  0  0  0  0  0  0  0  0
  1  2  1  0
  2  3  2  3
  2  4  1  0
  3  5  1  0
  4  6  1  0
  4  7  1  0
  5  8  1  0
  6  9  1  0
  7 10  1  0
  8 11  1  0
  9 12  1  0
 10 12  1  0
 12 13  1  0
 11 14  2  3
 13 15  1  0
 13 16  2  0
 14 17  1  0
 14 18  1  0
 17 19  1  0
 18 20  1  0
 19 20  1  0
 20 21  2  0
M  END
