x1018_0_A_α-x0524_0_A_α
     RDKit          3D

 32 35  0  0  0  0  0  0  0  0999 V2000
   -8.4250   14.6030    0.7910 Cl  0  0  0  0  0  0  0  0  0  0  0  0
   -6.7720   14.5530    0.2810 C   0  0  0  0  0  0  0  0  0  0  0  0
   -5.7320   14.1000    1.2420 C   0  0  0  0  0  0  0  0  0  0  0  0
   -6.5270   14.9150   -0.9380 N   0  0  0  0  0  0  0  0  0  0  0  0
   -5.2000   14.8400   -1.2340 N   0  0  0  0  0  0  0  0  0  0  0  0
   -4.4450   14.4020    0.9520 C   0  0  0  0  0  0  0  0  0  0  0  0
   -4.7660   14.9420   -2.5500 N   0  0  0  0  0  0  0  0  0  0  0  0
   -4.1440   15.1620   -0.2920 C   0  0  1  0  0  0  0  0  0  0  0  0
   -2.9610   14.8090   -1.0840 N   0  0  0  0  0  0  0  0  0  0  0  0
   -3.3860   15.3070   -2.3960 N   0  0  0  0  0  0  0  0  0  0  0  0
   -2.5490   14.9420   -3.5600 C   0  0  0  0  0  0  0  0  0  0  0  0
   -3.3840   14.3430   -4.7150 C   0  0  0  0  0  0  0  0  0  0  0  0
   -2.5800   13.4930   -5.7230 C   0  0  0  0  0  0  0  0  0  0  0  0
   -2.8660   11.9830   -5.6780 C   0  0  0  0  0  0  0  0  0  0  0  0
   -2.8650   11.1970   -6.9950 C   0  0  0  0  0  0  0  0  0  0  0  0
   -2.1940    9.8140   -6.8860 C   0  0  0  0  0  0  0  0  0  0  0  0
   -0.7480    9.8120   -7.3560 C   0  0  0  0  0  0  0  0  0  0  0  0
   -0.4350    8.7070   -8.1320 N   0  0  0  0  0  0  0  0  0  0  0  0
    0.0150   10.7150   -7.0610 O   0  0  0  0  0  0  0  0  0  0  0  0
    0.6190    8.6360   -9.0640 C   0  0  0  0  0  0  0  0  0  0  0  0
    1.7030    7.7760   -8.9550 C   0  0  0  0  0  0  0  0  0  0  0  0
    0.5580    9.4950  -10.1660 C   0  0  0  0  0  0  0  0  0  0  0  0
    2.7140    7.7730   -9.9250 C   0  0  0  0  0  0  0  0  0  0  0  0
    1.5680    9.4880  -11.1360 C   0  0  0  0  0  0  0  0  0  0  0  0
    2.6640    8.6260  -11.0310 C   0  0  0  0  0  0  0  0  0  0  0  0
    3.6640    8.6380  -12.0140 N   0  0  0  0  0  0  0  0  0  0  0  0
    3.9730    9.5150  -13.0720 C   0  0  0  0  0  0  0  0  0  0  0  0
    3.2130   10.6820  -13.2610 C   0  0  0  0  0  0  0  0  0  0  0  0
    5.0240    9.2660  -13.9510 C   0  0  0  0  0  0  0  0  0  0  0  0
    3.5030   11.5650  -14.3020 C   0  0  0  0  0  0  0  0  0  0  0  0
    5.3180   10.1460  -14.9950 C   0  0  0  0  0  0  0  0  0  0  0  0
    4.5540   11.2970  -15.1680 C   0  0  0  0  0  0  0  0  0  0  0  0
  1  2  1  0
  2  3  1  0
  2  4  2  0
  4  5  1  0
  3  6  2  0
  5  7  1  0
  5  8  1  0
  8  6  1  1
  8  9  1  0
  7 10  1  0
  9 10  1  0
 10 11  1  0
 11 12  1  0
 12 13  1  0
 13 14  1  0
 14 15  1  0
 15 16  1  0
 16 17  1  0
 17 18  1  0
 17 19  2  0
 18 20  1  0
 20 21  2  0
 20 22  1  0
 21 23  1  0
 22 24  2  0
 23 25  2  0
 24 25  1  0
 25 26  1  0
 26 27  1  0
 27 28  2  0
 27 29  1  0
 28 30  1  0
 29 31  2  0
 30 32  2  0
 31 32  1  0
M  END
