x1015_0_A-x0967_0_A
     RDKit          3D

 27 30  0  0  0  0  0  0  0  0999 V2000
   -1.4280   14.2410   -3.7140 C   0  0  0  0  0  0  0  0  0  0  0  0
   -0.0970   13.4960   -3.7320 C   0  0  2  0  0  0  0  0  0  0  0  0
   -0.2290   12.0410   -3.9000 N   0  0  0  0  0  0  0  0  0  0  0  0
    0.5670   13.3780   -2.3510 C   0  0  0  0  0  0  0  0  0  0  0  0
    0.4240   14.0190   -1.2750 N   0  0  0  0  0  0  0  0  0  0  0  0
    0.4890   11.4240   -2.8680 C   0  0  0  0  0  0  0  0  0  0  0  0
    1.3690   12.3520   -2.4760 N   0  0  0  0  0  0  0  0  0  0  0  0
   -0.5830   11.3580   -5.0790 C   0  0  0  0  0  0  0  0  0  0  0  0
    0.3900   10.3150   -2.3660 O   0  0  0  0  0  0  0  0  0  0  0  0
   -0.4660   15.0930   -1.0240 C   0  0  0  0  0  0  0  0  0  0  0  0
   -0.0010   11.6280   -6.3250 C   0  0  0  0  0  0  0  0  0  0  0  0
   -1.5520   10.3480   -5.0080 C   0  0  0  0  0  0  0  0  0  0  0  0
   -1.3770   14.8000    0.1830 C   0  0  0  0  0  0  0  0  0  0  0  0
   -0.3810   10.9060   -7.4630 C   0  0  0  0  0  0  0  0  0  0  0  0
   -1.9330    9.6260   -6.1360 C   0  0  0  0  0  0  0  0  0  0  0  0
   -1.3450    9.9060   -7.3620 C   0  0  0  0  0  0  0  0  0  0  0  0
   -2.8740   14.8070   -0.0950 C   0  0  0  0  0  0  0  0  0  0  0  0
   -1.8190    9.0080   -8.7470 Cl  0  0  0  0  0  0  0  0  0  0  0  0
   -3.4410   14.8580   -1.3690 C   0  0  0  0  0  0  0  0  0  0  0  0
   -3.7680   14.7540    0.9660 C   0  0  0  0  0  0  0  0  0  0  0  0
   -5.1470   14.7390    0.7260 C   0  0  0  0  0  0  0  0  0  0  0  0
   -4.7760   14.8470   -1.6190 N   0  0  0  0  0  0  0  0  0  0  0  0
   -5.6270   14.7820   -0.5930 C   0  0  0  0  0  0  0  0  0  0  0  0
   -6.0620   14.6770    1.7770 C   0  0  0  0  0  0  0  0  0  0  0  0
   -6.9410   14.7560   -0.8390 N   0  0  0  0  0  0  0  0  0  0  0  0
   -7.4190   14.6470    1.5170 C   0  0  0  0  0  0  0  0  0  0  0  0
   -7.8080   14.6880    0.1960 C   0  0  0  0  0  0  0  0  0  0  0  0
  2  1  1  1
  2  3  1  0
  2  4  1  0
  4  5  2  3
  3  6  1  0
  4  7  1  0
  6  7  1  0
  3  8  1  0
  6  9  2  0
  5 10  1  0
  8 11  2  0
  8 12  1  0
 10 13  1  0
 11 14  1  0
 12 15  2  0
 14 16  2  0
 15 16  1  0
 13 17  1  0
 16 18  1  0
 17 19  2  0
 17 20  1  0
 20 21  2  0
 19 22  1  0
 21 23  1  0
 22 23  2  0
 21 24  1  0
 23 25  1  0
 24 26  2  0
 25 27  2  0
 26 27  1  0
M  END
