x1012_0_A_α-x0438_0_A_α
     RDKit          3D

 28 30  0  0  0  0  0  0  0  0999 V2000
   -1.1080   17.3210   -4.2820 N   0  0  0  0  0  0  0  0  0  0  0  0
   -1.2680   16.0200   -4.6730 C   0  0  0  0  0  0  0  0  0  0  0  0
   -2.2860   15.3360   -4.4500 N   0  0  0  0  0  0  0  0  0  0  0  0
   -0.2200   15.5210   -5.2830 N   0  0  0  0  0  0  0  0  0  0  0  0
   -3.3310   15.8120   -3.7020 C   0  0  0  0  0  0  0  0  0  0  0  0
   -0.5050   14.0970   -5.5450 C   0  0  0  0  0  0  0  0  0  0  0  0
    1.0520   15.7070   -4.5930 C   0  0  0  0  0  0  0  0  0  0  0  0
   -2.7480   15.7130   -2.3060 C   0  0  0  0  0  0  0  0  0  0  0  0
   -0.8010   13.3470   -4.2560 C   0  0  0  0  0  0  0  0  0  0  0  0
    1.4050   14.4500   -3.7850 C   0  0  0  0  0  0  0  0  0  0  0  0
    0.1520   13.8010   -3.1680 C   0  0  0  0  0  0  0  0  0  0  0  0
   -3.7150   15.4150   -1.2250 C   0  0  0  0  0  0  0  0  0  0  0  0
    0.4360   12.6290   -2.2470 C   0  0  0  0  0  0  0  0  0  0  0  0
   -5.0650   15.1880   -1.5170 C   0  0  0  0  0  0  0  0  0  0  0  0
   -3.2220   15.3630    0.0790 C   0  0  0  0  0  0  0  0  0  0  0  0
    0.4410   11.4190   -2.8550 O   0  0  0  0  0  0  0  0  0  0  0  0
    0.6240   12.7510   -1.0560 O   0  0  0  0  0  0  0  0  0  0  0  0
   -5.8830   14.8930   -0.4360 C   0  0  0  0  0  0  0  0  0  0  0  0
   -4.0630   15.0730    1.1410 C   0  0  0  0  0  0  0  0  0  0  0  0
   -7.2220   14.6110   -0.3400 N   0  0  0  0  0  0  0  0  0  0  0  0
   -5.4110   14.8310    0.8660 C   0  0  0  0  0  0  0  0  0  0  0  0
   -7.5010   14.3870    0.9930 C   0  0  0  0  0  0  0  0  0  0  0  0
   -6.4280   14.5190    1.7240 N   0  0  0  0  0  0  0  0  0  0  0  0
   -8.8480   14.0410    1.5010 C   0  0  0  0  0  0  0  0  0  0  0  0
   -9.4640   15.3390    2.5600 S   0  0  0  0  0  0  0  0  0  0  0  0
   -8.2480   15.5470    3.8500 C   0  0  0  0  0  0  0  0  0  0  0  0
  -10.6720   14.8320    3.1860 O   0  0  0  0  0  0  0  0  0  0  0  0
   -9.5400   16.5510    1.7700 O   0  0  0  0  0  0  0  0  0  0  0  0
  1  2  1  0
  2  3  2  3
  2  4  1  0
  3  5  1  0
  4  6  1  0
  4  7  1  0
  5  8  1  0
  6  9  1  0
  7 10  1  0
  9 11  1  0
 10 11  1  0
  8 12  1  0
 11 13  1  0
 12 14  2  0
 12 15  1  0
 13 16  1  0
 13 17  2  0
 14 18  1  0
 15 19  2  0
 18 20  1  0
 18 21  2  0
 19 21  1  0
 20 22  1  0
 21 23  1  0
 22 23  2  0
 22 24  1  0
 25 24  1  0
 25 26  1  0
 25 27  2  0
 25 28  2  0
M  END
