x1015_0_A_α-x0724_0_A_α
     RDKit          3D

 31 34  0  0  0  0  0  0  0  0999 V2000
   -0.6520   14.1500   -4.8770 C   0  0  0  0  0  0  0  0  0  0  0  0
    0.4330   13.3570   -4.1430 C   0  0  2  0  0  0  0  0  0  0  0  0
    0.1770   11.9310   -4.0890 N   0  0  0  0  0  0  0  0  0  0  0  0
    0.2670   13.6530   -2.6810 C   0  0  0  0  0  0  0  0  0  0  0  0
    0.5400   14.7570   -2.1750 N   0  0  0  0  0  0  0  0  0  0  0  0
    0.1180   11.5010   -2.7620 C   0  0  0  0  0  0  0  0  0  0  0  0
   -0.2340   12.5820   -2.0410 N   0  0  0  0  0  0  0  0  0  0  0  0
   -0.3470   11.2210   -5.1790 C   0  0  0  0  0  0  0  0  0  0  0  0
    0.3320   10.3940   -2.2740 O   0  0  0  0  0  0  0  0  0  0  0  0
    0.1880   14.8600   -0.7880 C   0  0  0  0  0  0  0  0  0  0  0  0
    0.1330   11.4580   -6.4700 C   0  0  0  0  0  0  0  0  0  0  0  0
   -1.3520   10.2630   -5.0050 C   0  0  0  0  0  0  0  0  0  0  0  0
   -0.8990   15.9020   -0.9090 C   0  0  0  0  0  0  0  0  0  0  0  0
   -0.3730   10.7530   -7.5610 C   0  0  0  0  0  0  0  0  0  0  0  0
   -1.8630    9.5540   -6.0920 C   0  0  0  0  0  0  0  0  0  0  0  0
   -1.3670    9.8020   -7.3660 C   0  0  0  0  0  0  0  0  0  0  0  0
   -2.3340   15.5270   -0.6080 C   0  0  0  0  0  0  0  0  0  0  0  0
   -1.9900    8.9280   -8.7040 Cl  0  0  0  0  0  0  0  0  0  0  0  0
   -2.6520   15.4410    0.7270 C   0  0  0  0  0  0  0  0  0  0  0  0
   -3.3460   15.2900   -1.5760 C   0  0  0  0  0  0  0  0  0  0  0  0
   -3.9330   15.1580    1.1380 C   0  0  0  0  0  0  0  0  0  0  0  0
   -4.6640   14.9980   -1.1620 C   0  0  0  0  0  0  0  0  0  0  0  0
   -4.9510   14.9480    0.2130 C   0  0  0  0  0  0  0  0  0  0  0  0
   -6.2340   14.7280    0.7720 N   0  0  0  0  0  0  0  0  0  0  0  0
   -7.3390   14.3970    0.0560 N   0  0  0  0  0  0  0  0  0  0  0  0
   -6.5290   14.8580    2.1100 C   0  0  0  0  0  0  0  0  0  0  0  0
   -7.8690   14.6320    2.2780 C   0  0  0  0  0  0  0  0  0  0  0  0
   -8.3140   14.3440    0.9710 C   0  0  0  0  0  0  0  0  0  0  0  0
   -8.6560   14.6890    3.5390 C   0  0  0  0  0  0  0  0  0  0  0  0
   -8.2580   13.6050    4.4200 N   0  0  0  0  0  0  0  0  0  0  0  0
   -8.6380   13.8930    5.7950 C   0  0  0  0  0  0  0  0  0  0  0  0
  2  1  1  6
  2  3  1  0
  2  4  1  0
  4  5  2  3
  3  6  1  0
  4  7  1  0
  6  7  1  0
  3  8  1  0
  6  9  2  0
  5 10  1  0
  8 11  2  0
  8 12  1  0
 10 13  1  0
 11 14  1  0
 12 15  2  0
 14 16  2  0
 15 16  1  0
 13 17  1  0
 16 18  1  0
 17 19  2  0
 17 20  1  0
 19 21  1  0
 20 22  2  0
 21 23  2  0
 22 23  1  0
 23 24  1  0
 24 25  1  0
 24 26  1  0
 26 27  2  0
 25 28  2  0
 27 28  1  0
 27 29  1  0
 29 30  1  0
 30 31  1  0
M  END
