x1018_0_A-x0967_0_A
     RDKit          3D

 10 11  0  0  0  0  0  0  0  0999 V2000
   -8.3520   14.5750    0.9220 Cl  0  0  0  0  0  0  0  0  0  0  0  0
   -6.6790   14.6600    0.4880 C   0  0  0  0  0  0  0  0  0  0  0  0
   -5.6550   14.6360    1.5760 C   0  0  0  0  0  0  0  0  0  0  0  0
   -6.4320   14.7470   -0.7770 N   0  0  0  0  0  0  0  0  0  0  0  0
   -5.1070   14.8100   -1.0360 N   0  0  0  0  0  0  0  0  0  0  0  0
   -4.3650   14.7070    1.2260 C   0  0  0  0  0  0  0  0  0  0  0  0
   -4.6210   14.9020   -2.2810 N   0  0  0  0  0  0  0  0  0  0  0  0
   -4.0530   14.8000   -0.1440 C   0  0  0  0  0  0  0  0  0  0  0  0
   -2.9320   14.8750   -0.8210 N   0  0  0  0  0  0  0  0  0  0  0  0
   -3.3020   14.9400   -2.1460 N   0  0  0  0  0  0  0  0  0  0  0  0
  1  2  1  0
  2  3  1  0
  2  4  2  0
  4  5  1  0
  3  6  2  0
  5  7  1  0
  5  8  1  0
  6  8  1  0
  8  9  2  0
  7 10  2  0
  9 10  1  0
M  END
