x1015_0_A-x0724_0_A
     RDKit          3D

 31 34  0  0  0  0  0  0  0  0999 V2000
   -0.6940   14.1970   -4.8420 C   0  0  0  0  0  0  0  0  0  0  0  0
    0.4200   13.3720   -4.1910 C   0  0  2  0  0  0  0  0  0  0  0  0
    0.1240   11.9560   -4.1030 N   0  0  0  0  0  0  0  0  0  0  0  0
    0.3850   13.6630   -2.7230 C   0  0  0  0  0  0  0  0  0  0  0  0
    0.2930   14.8080   -2.2770 N   0  0  0  0  0  0  0  0  0  0  0  0
    0.2430   11.4800   -2.7900 C   0  0  0  0  0  0  0  0  0  0  0  0
    0.4370   12.5440   -1.9880 N   0  0  0  0  0  0  0  0  0  0  0  0
   -0.3850   11.2280   -5.1850 C   0  0  0  0  0  0  0  0  0  0  0  0
    0.2020   10.3360   -2.3610 O   0  0  0  0  0  0  0  0  0  0  0  0
    0.1720   14.8790   -0.8540 C   0  0  0  0  0  0  0  0  0  0  0  0
    0.1070   11.4570   -6.4720 C   0  0  0  0  0  0  0  0  0  0  0  0
   -1.3830   10.2640   -5.0090 C   0  0  0  0  0  0  0  0  0  0  0  0
   -0.8720   15.9480   -0.7450 C   0  0  0  0  0  0  0  0  0  0  0  0
   -0.3830   10.7390   -7.5610 C   0  0  0  0  0  0  0  0  0  0  0  0
   -1.8770    9.5420   -6.0950 C   0  0  0  0  0  0  0  0  0  0  0  0
   -1.3730    9.7840   -7.3660 C   0  0  0  0  0  0  0  0  0  0  0  0
   -2.3180   15.5520   -0.5250 C   0  0  0  0  0  0  0  0  0  0  0  0
   -1.9770    8.8930   -8.7040 Cl  0  0  0  0  0  0  0  0  0  0  0  0
   -2.6720   15.4320    0.7940 C   0  0  0  0  0  0  0  0  0  0  0  0
   -3.3040   15.3310   -1.5270 C   0  0  0  0  0  0  0  0  0  0  0  0
   -3.9560   15.1400    1.1680 C   0  0  0  0  0  0  0  0  0  0  0  0
   -4.6320   15.0260   -1.1510 C   0  0  0  0  0  0  0  0  0  0  0  0
   -4.9520   14.9490    0.2180 C   0  0  0  0  0  0  0  0  0  0  0  0
   -6.2420   14.7190    0.7590 N   0  0  0  0  0  0  0  0  0  0  0  0
   -7.3420   14.3890    0.0350 N   0  0  0  0  0  0  0  0  0  0  0  0
   -6.5440   14.8420    2.0950 C   0  0  0  0  0  0  0  0  0  0  0  0
   -7.8830   14.6150    2.2590 C   0  0  0  0  0  0  0  0  0  0  0  0
   -8.3210   14.3310    0.9470 C   0  0  0  0  0  0  0  0  0  0  0  0
   -8.6710   14.6740    3.5180 C   0  0  0  0  0  0  0  0  0  0  0  0
   -8.2600   13.6000    4.4130 N   0  0  0  0  0  0  0  0  0  0  0  0
   -8.6390   13.8960    5.7870 C   0  0  0  0  0  0  0  0  0  0  0  0
  2  1  1  6
  2  3  1  0
  2  4  1  0
  4  5  2  3
  3  6  1  0
  4  7  1  0
  6  7  1  0
  3  8  1  0
  6  9  2  0
  5 10  1  0
  8 11  2  0
  8 12  1  0
 10 13  1  0
 11 14  1  0
 12 15  2  0
 14 16  2  0
 15 16  1  0
 13 17  1  0
 16 18  1  0
 17 19  2  0
 17 20  1  0
 19 21  1  0
 20 22  2  0
 21 23  2  0
 22 23  1  0
 23 24  1  0
 24 25  1  0
 24 26  1  0
 26 27  2  0
 25 28  2  0
 27 28  1  0
 27 29  1  0
 29 30  1  0
 30 31  1  0
M  END
