x1012_0_A-x0905_0_A
     RDKit          3D

 21 22  0  0  0  0  0  0  0  0999 V2000
   -1.3680   17.7790   -4.7490 N   0  0  0  0  0  0  0  0  0  0  0  0
   -1.3940   16.4060   -4.7180 C   0  0  0  0  0  0  0  0  0  0  0  0
   -2.1900   15.5420   -4.2870 N   0  0  0  0  0  0  0  0  0  0  0  0
   -0.3430   15.7310   -5.2060 N   0  0  0  0  0  0  0  0  0  0  0  0
   -3.4130   15.5450   -3.5890 C   0  0  0  0  0  0  0  0  0  0  0  0
   -0.7690   14.3310   -5.4680 C   0  0  0  0  0  0  0  0  0  0  0  0
    0.9590   15.8080   -4.5200 C   0  0  0  0  0  0  0  0  0  0  0  0
   -2.9510   14.7720   -2.3730 C   0  0  0  0  0  0  0  0  0  0  0  0
   -0.8230   13.4970   -4.2050 C   0  0  0  0  0  0  0  0  0  0  0  0
    1.0970   14.8370   -3.3240 C   0  0  0  0  0  0  0  0  0  0  0  0
    0.5700   13.4190   -3.6160 C   0  0  0  0  0  0  0  0  0  0  0  0
   -3.8590   14.9000   -1.2240 C   0  0  0  0  0  0  0  0  0  0  0  0
    0.5300   12.5230   -2.3890 C   0  0  0  0  0  0  0  0  0  0  0  0
   -3.3540   14.9690    0.0690 C   0  0  0  0  0  0  0  0  0  0  0  0
   -5.2200   14.9420   -1.4490 C   0  0  0  0  0  0  0  0  0  0  0  0
    0.2630   11.2420   -2.7160 O   0  0  0  0  0  0  0  0  0  0  0  0
    0.6880   12.8260   -1.2210 O   0  0  0  0  0  0  0  0  0  0  0  0
   -4.2580   15.0630    1.1010 C   0  0  0  0  0  0  0  0  0  0  0  0
   -6.0360   15.0350   -0.3550 C   0  0  0  0  0  0  0  0  0  0  0  0
   -7.3870   15.0760   -0.5110 O   0  0  0  0  0  0  0  0  0  0  0  0
   -5.5930   15.0850    0.9120 N   0  0  0  0  0  0  0  0  0  0  0  0
  1  2  1  0
  2  3  2  3
  2  4  1  0
  3  5  1  0
  4  6  1  0
  4  7  1  0
  5  8  1  0
  6  9  1  0
  7 10  1  0
  9 11  1  0
 10 11  1  0
  8 12  1  0
 11 13  1  0
 12 14  2  0
 12 15  1  0
 13 16  1  0
 13 17  2  0
 14 18  1  0
 15 19  2  0
 19 20  1  0
 18 21  2  0
 19 21  1  0
M  END
