x1012_0_A_α-x0592_0_A_α
     RDKit          3D

 24 25  0  0  0  0  0  0  0  0999 V2000
   -0.2500   18.0980   -5.1190 N   0  0  0  0  0  0  0  0  0  0  0  0
   -1.2590   17.2380   -4.8840 C   0  0  0  0  0  0  0  0  0  0  0  0
   -2.4040   17.6550   -4.8340 O   0  0  0  0  0  0  0  0  0  0  0  0
   -0.9180   15.9230   -4.6990 N   0  0  0  0  0  0  0  0  0  0  0  0
   -1.7430   15.0330   -3.8670 C   0  0  0  0  0  0  0  0  0  0  0  0
    0.5300   15.6200   -4.9160 C   0  0  0  0  0  0  0  0  0  0  0  0
   -0.8300   14.4750   -2.8000 C   0  0  1  0  0  0  0  0  0  0  0  0
    1.1580   14.4150   -4.1860 C   0  0  0  0  0  0  0  0  0  0  0  0
   -1.4400   13.8860   -1.5110 C   0  0  0  0  0  0  0  0  0  0  0  0
    0.1090   13.5270   -3.5230 C   0  0  1  0  0  0  0  0  0  0  0  0
    0.7130   12.5360   -2.5580 C   0  0  0  0  0  0  0  0  0  0  0  0
   -2.8570   14.1690   -1.3600 N   0  0  0  0  0  0  0  0  0  0  0  0
    0.3570   11.2460   -2.7620 O   0  0  0  0  0  0  0  0  0  0  0  0
    1.4520   12.8100   -1.6510 O   0  0  0  0  0  0  0  0  0  0  0  0
   -3.3420   14.5820   -0.2400 C   0  0  0  0  0  0  0  0  0  0  0  0
   -2.7350   14.8610    0.9630 N   0  0  0  0  0  0  0  0  0  0  0  0
   -4.7760   14.7390   -0.2520 C   0  0  0  0  0  0  0  0  0  0  0  0
   -5.5900   15.2220   -1.3100 C   0  0  0  0  0  0  0  0  0  0  0  0
   -5.6840   14.4430    0.7480 C   0  0  0  0  0  0  0  0  0  0  0  0
   -6.8920   15.2240   -1.0060 N   0  0  0  0  0  0  0  0  0  0  0  0
   -6.9200   14.7440    0.2510 N   0  0  0  0  0  0  0  0  0  0  0  0
   -8.1930   14.5920    0.9380 C   0  0  0  0  0  0  0  0  0  0  0  0
   -8.0080   14.0670    2.3620 C   0  0  0  0  0  0  0  0  0  0  0  0
   -7.3090   14.9930    3.1870 O   0  0  0  0  0  0  0  0  0  0  0  0
  1  2  1  0
  2  3  2  0
  2  4  1  0
  4  5  1  0
  4  6  1  0
  5  7  1  0
  6  8  1  0
  7  9  1  1
  7 10  1  0
  8 10  1  0
 10 11  1  1
  9 12  1  0
 11 13  1  0
 11 14  2  0
 12 15  2  3
 15 16  1  0
 15 17  1  0
 17 18  1  0
 17 19  2  0
 18 20  2  0
 19 21  1  0
 20 21  1  0
 21 22  1  0
 22 23  1  0
 23 24  1  0
M  END
