x1015_0_A-x0681_0_A
     RDKit          3D

 26 29  0  0  0  0  0  0  0  0999 V2000
   -2.0430   14.4600   -3.4160 C   0  0  0  0  0  0  0  0  0  0  0  0
   -3.1210   14.7160   -2.5310 C   0  0  0  0  0  0  0  0  0  0  0  0
   -4.1560   15.4160   -3.1250 N   0  0  0  0  0  0  0  0  0  0  0  0
   -0.6560   13.7860   -3.4530 C   0  0  2  0  0  0  0  0  0  0  0  0
   -0.6270   12.3120   -3.5660 N   0  0  0  0  0  0  0  0  0  0  0  0
    0.1480   14.0060   -2.1820 C   0  0  0  0  0  0  0  0  0  0  0  0
   -3.5790   14.4680   -1.0350 C   0  0  1  0  0  0  0  0  0  0  0  0
    0.3160   15.0570   -1.5860 O   0  0  0  0  0  0  0  0  0  0  0  0
    0.1240   11.7920   -2.4950 C   0  0  0  0  0  0  0  0  0  0  0  0
    0.6860   12.8250   -1.8140 N   0  0  0  0  0  0  0  0  0  0  0  0
   -0.8080   11.5680   -4.7840 C   0  0  0  0  0  0  0  0  0  0  0  0
   -4.6350   13.4220   -0.7980 C   0  0  0  0  0  0  0  0  0  0  0  0
   -2.6300   14.4980    0.1720 C   0  0  0  0  0  0  0  0  0  0  0  0
    0.2990   10.6200   -2.1610 O   0  0  0  0  0  0  0  0  0  0  0  0
   -0.1370   11.8530   -5.9950 C   0  0  0  0  0  0  0  0  0  0  0  0
   -1.6970   10.4800   -4.7930 C   0  0  0  0  0  0  0  0  0  0  0  0
   -5.1070   13.1970    0.4560 N   0  0  0  0  0  0  0  0  0  0  0  0
   -3.4750   14.8540    1.4210 C   0  0  0  0  0  0  0  0  0  0  0  0
   -5.2350   12.6250   -1.6600 N   0  0  0  0  0  0  0  0  0  0  0  0
   -0.3570   11.0790   -7.1510 C   0  0  0  0  0  0  0  0  0  0  0  0
   -1.9170    9.7110   -5.9400 C   0  0  0  0  0  0  0  0  0  0  0  0
   -4.6550   13.8900    1.6330 C   0  0  0  0  0  0  0  0  0  0  0  0
   -6.0550   12.2200    0.4070 C   0  0  0  0  0  0  0  0  0  0  0  0
   -6.1190   11.8780   -0.9200 C   0  0  0  0  0  0  0  0  0  0  0  0
   -1.2490   10.0100   -7.1150 C   0  0  0  0  0  0  0  0  0  0  0  0
   -1.5330    9.0500   -8.5150 Cl  0  0  0  0  0  0  0  0  0  0  0  0
  1  2  2  3
  2  3  1  0
  4  1  1  1
  4  5  1  0
  4  6  1  0
  7  2  1  6
  6  8  2  0
  5  9  1  0
  6 10  1  0
  9 10  1  0
  5 11  1  0
  7 12  1  0
  7 13  1  0
  9 14  2  0
 11 15  2  0
 11 16  1  0
 12 17  1  0
 13 18  1  0
 12 19  2  0
 15 20  1  0
 16 21  2  0
 17 22  1  0
 18 22  1  0
 17 23  1  0
 19 24  1  0
 23 24  2  0
 20 25  2  0
 21 25  1  0
 25 26  1  0
M  END
