x1015_0_A-x0727_0_A
     RDKit          3D

 22 24  0  0  0  0  0  0  0  0999 V2000
   -2.4280   14.4780   -4.2090 C   0  0  0  0  0  0  0  0  0  0  0  0
   -1.0640   13.9280   -3.8820 C   0  0  2  0  0  0  0  0  0  0  0  0
   -0.7120   12.4830   -4.1120 N   0  0  0  0  0  0  0  0  0  0  0  0
   -0.5740   14.1320   -2.4580 C   0  0  0  0  0  0  0  0  0  0  0  0
   -0.1110   15.1270   -1.9250 O   0  0  0  0  0  0  0  0  0  0  0  0
   -0.3380   11.9120   -2.8320 C   0  0  2  0  0  0  0  0  0  0  0  0
   -0.7720   12.9000   -1.9000 N   0  0  0  0  0  0  0  0  0  0  0  0
   -1.0950   11.5590   -5.0870 C   0  0  0  0  0  0  0  0  0  0  0  0
    1.0670   11.8740   -2.6300 N   0  0  0  0  0  0  0  0  0  0  0  0
   -0.2870   11.1890   -6.2010 C   0  0  0  0  0  0  0  0  0  0  0  0
   -2.3380   10.9110   -5.0220 C   0  0  0  0  0  0  0  0  0  0  0  0
    1.0550   11.6230   -6.6000 C   0  0  0  0  0  0  0  0  0  0  0  0
    1.9060   12.4340   -3.4370 C   0  0  0  0  0  0  0  0  0  0  0  0
   -0.7320   10.2520   -7.1490 C   0  0  0  0  0  0  0  0  0  0  0  0
   -2.7710    9.9730   -5.9730 C   0  0  0  0  0  0  0  0  0  0  0  0
    1.9610   12.3240   -5.8770 N   0  0  0  0  0  0  0  0  0  0  0  0
    1.4020   11.2540   -7.7130 O   0  0  0  0  0  0  0  0  0  0  0  0
    1.8730   13.2430   -4.7610 C   0  0  1  0  0  0  0  0  0  0  0  0
    3.1600   12.2770   -3.0130 O   0  0  0  0  0  0  0  0  0  0  0  0
   -1.9570    9.6500   -7.0410 C   0  0  0  0  0  0  0  0  0  0  0  0
   -2.4590    8.5130   -8.2250 Cl  0  0  0  0  0  0  0  0  0  0  0  0
    0.7320   14.2110   -5.0220 C   0  0  0  0  0  0  0  0  0  0  0  0
  2  1  1  1
  2  3  1  0
  2  4  1  0
  4  5  2  0
  3  6  1  0
  4  7  1  0
  6  7  1  1
  3  8  1  0
  6  9  1  0
  8 10  2  0
  8 11  1  0
 10 12  1  0
  9 13  2  0
 10 14  1  0
 11 15  2  0
 12 16  1  0
 12 17  2  0
 13 18  1  0
 16 18  1  0
 13 19  1  0
 14 20  2  0
 15 20  1  0
 20 21  1  0
 18 22  1  6
M  END
