x1015_0_A_α-x0104_0_A_β
     RDKit          3D

 26 28  0  0  0  0  0  0  0  0999 V2000
   -0.6630   14.2730   -4.9890 C   0  0  0  0  0  0  0  0  0  0  0  0
    0.3730   13.6020   -4.0860 C   0  0  2  0  0  0  0  0  0  0  0  0
    0.1150   12.1720   -3.9630 N   0  0  0  0  0  0  0  0  0  0  0  0
    0.0490   13.9940   -2.6720 C   0  0  0  0  0  0  0  0  0  0  0  0
   -0.3650   15.1300   -2.2510 N   0  0  0  0  0  0  0  0  0  0  0  0
    0.2050   11.7750   -2.6160 C   0  0  0  0  0  0  0  0  0  0  0  0
    0.2390   12.9200   -1.8590 N   0  0  0  0  0  0  0  0  0  0  0  0
   -0.3540   11.3930   -5.0510 C   0  0  0  0  0  0  0  0  0  0  0  0
    0.2400   10.6350   -2.1420 O   0  0  0  0  0  0  0  0  0  0  0  0
   -0.7320   15.3600   -0.8600 C   0  0  0  0  0  0  0  0  0  0  0  0
    0.1490   11.5750   -6.3430 C   0  0  0  0  0  0  0  0  0  0  0  0
   -1.3420   10.4090   -4.8660 C   0  0  0  0  0  0  0  0  0  0  0  0
   -2.2710   15.3180   -0.8030 C   0  0  0  0  0  0  0  0  0  0  0  0
   -0.3110   10.8070   -7.4180 C   0  0  0  0  0  0  0  0  0  0  0  0
   -1.8060    9.6370   -5.9370 C   0  0  0  0  0  0  0  0  0  0  0  0
   -2.9480   15.1740   -2.1940 C   0  0  0  0  0  0  0  0  0  0  0  0
   -1.2860    9.8390   -7.2100 C   0  0  0  0  0  0  0  0  0  0  0  0
   -1.8530    8.8910   -8.5260 Cl  0  0  0  0  0  0  0  0  0  0  0  0
   -4.3960   15.1640   -2.2140 O   0  0  0  0  0  0  0  0  0  0  0  0
   -5.0360   15.0290   -1.0020 C   0  0  0  0  0  0  0  0  0  0  0  0
   -4.3290   15.1860    0.1200 N   0  0  0  0  0  0  0  0  0  0  0  0
   -6.3930   14.7350   -1.0160 C   0  0  0  0  0  0  0  0  0  0  0  0
   -4.9850   15.0480    1.2770 C   0  0  0  0  0  0  0  0  0  0  0  0
   -7.0530   14.5960    0.2060 C   0  0  0  0  0  0  0  0  0  0  0  0
   -6.3360   14.7540    1.3930 C   0  0  0  0  0  0  0  0  0  0  0  0
   -6.9320   14.6330    2.6400 N   0  0  0  0  0  0  0  0  0  0  0  0
  2  1  1  6
  2  3  1  0
  2  4  1  0
  4  5  2  3
  3  6  1  0
  4  7  1  0
  6  7  1  0
  3  8  1  0
  6  9  2  0
  5 10  1  0
  8 11  2  0
  8 12  1  0
 10 13  1  0
 11 14  1  0
 12 15  2  0
 13 16  1  0
 14 17  2  0
 15 17  1  0
 17 18  1  0
 16 19  1  0
 19 20  1  0
 20 21  2  0
 20 22  1  0
 21 23  1  0
 22 24  2  0
 23 25  2  0
 24 25  1  0
 25 26  1  0
M  END
