x1018_0_A-x0967_0_A
     RDKit          3D

 10 11  0  0  0  0  0  0  0  0999 V2000
   -8.3700   14.5750    0.8760 Cl  0  0  0  0  0  0  0  0  0  0  0  0
   -6.6930   14.6520    0.4550 C   0  0  0  0  0  0  0  0  0  0  0  0
   -5.6810   14.6170    1.5510 C   0  0  0  0  0  0  0  0  0  0  0  0
   -6.4380   14.7450   -0.8060 N   0  0  0  0  0  0  0  0  0  0  0  0
   -5.1110   14.8050   -1.0540 N   0  0  0  0  0  0  0  0  0  0  0  0
   -4.3860   14.6850    1.2110 C   0  0  0  0  0  0  0  0  0  0  0  0
   -4.6140   14.9020   -2.2950 N   0  0  0  0  0  0  0  0  0  0  0  0
   -4.0620   14.7830   -0.1550 C   0  0  0  0  0  0  0  0  0  0  0  0
   -2.9370   14.8620   -0.8220 N   0  0  0  0  0  0  0  0  0  0  0  0
   -3.2980   14.9370   -2.1500 N   0  0  0  0  0  0  0  0  0  0  0  0
  1  2  1  0
  2  3  1  0
  2  4  2  0
  4  5  1  0
  3  6  2  0
  5  7  1  0
  5  8  1  0
  6  8  1  0
  8  9  2  0
  7 10  2  0
  9 10  1  0
M  END
