x1018_0_A_α-x0900_0_A_α
     RDKit          3D

 10 11  0  0  0  0  0  0  0  0999 V2000
   -8.3650   14.5530    0.8910 Cl  0  0  0  0  0  0  0  0  0  0  0  0
   -6.6920   14.6490    0.4640 C   0  0  0  0  0  0  0  0  0  0  0  0
   -5.6750   14.6150    1.5570 C   0  0  0  0  0  0  0  0  0  0  0  0
   -6.4340   14.7470   -0.7990 N   0  0  0  0  0  0  0  0  0  0  0  0
   -5.1070   14.8100   -1.0450 N   0  0  0  0  0  0  0  0  0  0  0  0
   -4.3810   14.6840    1.2180 C   0  0  0  0  0  0  0  0  0  0  0  0
   -4.6170   14.9110   -2.2870 N   0  0  0  0  0  0  0  0  0  0  0  0
   -4.0600   14.7850   -0.1470 C   0  0  0  0  0  0  0  0  0  0  0  0
   -2.9350   14.8650   -0.8170 N   0  0  0  0  0  0  0  0  0  0  0  0
   -3.3010   14.9430   -2.1420 N   0  0  0  0  0  0  0  0  0  0  0  0
  1  2  1  0
  2  3  1  0
  2  4  2  0
  4  5  1  0
  3  6  2  0
  5  7  1  0
  5  8  1  0
  6  8  1  0
  8  9  2  0
  7 10  2  0
  9 10  1  0
M  END
