x1015_0_A_α-x0685_1_A_α
     RDKit          3D

 20 21  0  0  0  0  0  0  0  0999 V2000
   -3.1610   14.2810   -4.0940 C   0  0  0  0  0  0  0  0  0  0  0  0
   -1.8150   13.7090   -4.4870 C   0  0  2  0  0  0  0  0  0  0  0  0
   -1.6010   12.2480   -4.1650 N   0  0  0  0  0  0  0  0  0  0  0  0
   -0.7670   14.3920   -3.5980 C   0  0  0  0  0  0  0  0  0  0  0  0
   -0.4640   15.5690   -3.5020 O   0  0  0  0  0  0  0  0  0  0  0  0
   -0.4050   12.2500   -3.5890 C   0  0  0  0  0  0  0  0  0  0  0  0
   -0.2200   13.4000   -2.9140 N   0  0  0  0  0  0  0  0  0  0  0  0
   -1.6700   11.3980   -5.2550 C   0  0  0  0  0  0  0  0  0  0  0  0
    0.5900   11.5500   -3.4980 N   0  0  0  0  0  0  0  0  0  0  0  0
   -0.9730   11.7340   -6.4360 C   0  0  0  0  0  0  0  0  0  0  0  0
   -2.3890   10.2070   -5.2250 C   0  0  0  0  0  0  0  0  0  0  0  0
    1.6230   12.3980   -2.8340 S   0  0  0  0  0  0  0  0  0  0  0  0
   -0.9990   10.8980   -7.5470 C   0  0  0  0  0  0  0  0  0  0  0  0
   -2.4200    9.3660   -6.3340 C   0  0  0  0  0  0  0  0  0  0  0  0
    1.9190   13.8410   -3.7550 C   0  0  0  0  0  0  0  0  0  0  0  0
    2.9530   11.5640   -3.0160 O   0  0  0  0  0  0  0  0  0  0  0  0
    1.1010   12.7330   -1.3590 O   0  0  0  0  0  0  0  0  0  0  0  0
   -1.7240    9.7140   -7.4920 C   0  0  0  0  0  0  0  0  0  0  0  0
   -1.7630    8.6700   -8.8510 Cl  0  0  0  0  0  0  0  0  0  0  0  0
    1.2010   13.7760   -5.0980 C   0  0  0  0  0  0  0  0  0  0  0  0
  2  1  1  1
  2  3  1  0
  2  4  1  0
  4  5  2  0
  3  6  1  0
  4  7  1  0
  6  7  1  0
  3  8  1  0
  6  9  2  3
  8 10  2  0
  8 11  1  0
 12  9  1  0
 10 13  1  0
 11 14  2  0
 12 15  1  0
 12 16  1  0
 12 17  1  0
 13 18  2  0
 14 18  1  0
 18 19  1  0
 15 20  1  0
M  END
