x1018_0_A-x0895_0_A
     RDKit          3D

 16 18  0  0  0  0  0  0  0  0999 V2000
   -8.6340   14.8730    1.0280 Cl  0  0  0  0  0  0  0  0  0  0  0  0
   -7.1090   14.1840    0.5970 C   0  0  0  0  0  0  0  0  0  0  0  0
   -6.4420   13.2690    1.5610 C   0  0  0  0  0  0  0  0  0  0  0  0
   -6.6390   14.5060   -0.5760 N   0  0  0  0  0  0  0  0  0  0  0  0
   -5.4340   13.9250   -0.8970 N   0  0  0  0  0  0  0  0  0  0  0  0
   -5.1680   12.9620    1.3060 C   0  0  0  0  0  0  0  0  0  0  0  0
   -4.5370   14.5280   -1.7620 N   0  0  0  0  0  0  0  0  0  0  0  0
   -4.4960   13.5310    0.1270 C   0  0  1  0  0  0  0  0  0  0  0  0
   -3.5870   12.7170   -0.6810 N   0  0  0  0  0  0  0  0  0  0  0  0
   -3.6220   13.4220   -1.9860 N   0  0  0  0  0  0  0  0  0  0  0  0
   -3.8150   15.5270   -1.0040 C   0  0  1  0  0  0  0  0  0  0  0  0
   -4.6350   15.9120    0.1450 N   0  0  0  0  0  0  0  0  0  0  0  0
   -2.6360   14.9520   -0.4060 N   0  0  0  0  0  0  0  0  0  0  0  0
   -3.7470   16.0190    1.3060 C   0  0  0  0  0  0  0  0  0  0  0  0
   -2.5600   15.1530    0.9620 C   0  0  0  0  0  0  0  0  0  0  0  0
   -1.6870   14.7150    1.7100 O   0  0  0  0  0  0  0  0  0  0  0  0
  1  2  1  0
  2  3  1  0
  2  4  2  0
  4  5  1  0
  3  6  2  0
  5  7  1  0
  5  8  1  0
  8  6  1  1
  8  9  1  0
  7 10  1  0
  9 10  1  0
 11  7  1  6
 11 12  1  0
 11 13  1  0
 12 14  1  0
 13 15  1  0
 14 15  1  0
 15 16  2  0
M  END
