x1015_0_A-x0282_0_A
     RDKit          3D

 29 32  0  0  0  0  0  0  0  0999 V2000
   -0.5820   14.2380   -4.9810 C   0  0  0  0  0  0  0  0  0  0  0  0
    0.4510   13.4770   -4.1510 C   0  0  2  0  0  0  0  0  0  0  0  0
    0.2340   12.0290   -4.1190 N   0  0  0  0  0  0  0  0  0  0  0  0
    0.1190   13.7800   -2.7230 C   0  0  0  0  0  0  0  0  0  0  0  0
    0.0260   14.9380   -2.2250 N   0  0  0  0  0  0  0  0  0  0  0  0
    0.1970   11.5680   -2.7950 C   0  0  0  0  0  0  0  0  0  0  0  0
   -0.1060   12.6360   -2.0400 N   0  0  0  0  0  0  0  0  0  0  0  0
   -0.2900   11.3070   -5.2090 C   0  0  0  0  0  0  0  0  0  0  0  0
    0.3850   10.4380   -2.3400 O   0  0  0  0  0  0  0  0  0  0  0  0
    0.1720   11.5090   -6.5100 C   0  0  0  0  0  0  0  0  0  0  0  0
   -1.2990   10.3510   -5.0010 C   0  0  0  0  0  0  0  0  0  0  0  0
   -0.4120   14.8250   -0.9300 C   0  0  0  0  0  0  0  0  0  0  0  0
   -0.3510   10.7780   -7.5780 C   0  0  0  0  0  0  0  0  0  0  0  0
   -1.8260    9.6170   -6.0660 C   0  0  0  0  0  0  0  0  0  0  0  0
   -1.7170   14.6810   -0.8100 N   0  0  0  0  0  0  0  0  0  0  0  0
    0.4380   14.8420    0.0980 C   0  0  0  0  0  0  0  0  0  0  0  0
   -1.3470    9.8340   -7.3500 C   0  0  0  0  0  0  0  0  0  0  0  0
   -0.1460   14.6840    1.3310 C   0  0  0  0  0  0  0  0  0  0  0  0
   -2.2230   14.5450    0.3970 C   0  0  0  0  0  0  0  0  0  0  0  0
   -1.9890    8.9300   -8.6610 Cl  0  0  0  0  0  0  0  0  0  0  0  0
   -3.5790   14.4100    0.4300 N   0  0  0  0  0  0  0  0  0  0  0  0
   -1.4670   14.5380    1.5130 N   0  0  0  0  0  0  0  0  0  0  0  0
   -4.1760   14.0260    1.6750 C   0  0  0  0  0  0  0  0  0  0  0  0
   -4.3410   14.3540   -0.8140 C   0  0  0  0  0  0  0  0  0  0  0  0
   -5.4450   14.8410    1.8570 C   0  0  0  0  0  0  0  0  0  0  0  0
   -5.6780   15.0750   -0.6540 C   0  0  0  0  0  0  0  0  0  0  0  0
   -6.3880   14.6840    0.6540 C   0  0  0  0  0  0  0  0  0  0  0  0
   -7.0850   13.3410    0.5530 C   0  0  0  0  0  0  0  0  0  0  0  0
   -8.4610   13.5850    0.2630 O   0  0  0  0  0  0  0  0  0  0  0  0
  2  1  1  6
  2  3  1  0
  2  4  1  0
  4  5  2  3
  3  6  1  0
  4  7  1  0
  6  7  1  0
  3  8  1  0
  6  9  2  0
  8 10  2  0
  8 11  1  0
  5 12  1  0
 10 13  1  0
 11 14  2  0
 12 15  2  0
 12 16  1  0
 13 17  2  0
 14 17  1  0
 16 18  2  0
 15 19  1  0
 17 20  1  0
 19 21  1  0
 18 22  1  0
 19 22  2  0
 21 23  1  0
 21 24  1  0
 23 25  1  0
 24 26  1  0
 25 27  1  0
 26 27  1  0
 27 28  1  0
 28 29  1  0
M  END
