x1015_0_A_α-x0855_0_A_α
     RDKit          3D

 18 20  0  0  0  0  0  0  0  0999 V2000
   -1.8940   14.6290   -4.1900 C   0  0  0  0  0  0  0  0  0  0  0  0
   -0.6730   13.8020   -3.8150 C   0  0  2  0  0  0  0  0  0  0  0  0
   -0.9680   12.3480   -3.7290 N   0  0  0  0  0  0  0  0  0  0  0  0
   -0.2630   14.1130   -2.3840 C   0  0  0  0  0  0  0  0  0  0  0  0
    0.1870   15.1520   -1.9260 O   0  0  0  0  0  0  0  0  0  0  0  0
   -0.2500   11.9010   -2.5930 C   0  0  2  0  0  0  0  0  0  0  0  0
   -0.5030   12.9510   -1.7010 N   0  0  0  0  0  0  0  0  0  0  0  0
   -1.0330   11.5640   -4.8280 C   0  0  0  0  0  0  0  0  0  0  0  0
    1.1480   12.0330   -2.7040 N   0  0  0  0  0  0  0  0  0  0  0  0
    0.0350   11.5880   -5.6880 C   0  0  0  0  0  0  0  0  0  0  0  0
   -2.1210   10.7350   -5.1280 C   0  0  0  0  0  0  0  0  0  0  0  0
    1.1960   12.4810   -5.2960 C   0  0  0  0  0  0  0  0  0  0  0  0
    1.6850   12.2990   -3.8470 C   0  0  0  0  0  0  0  0  0  0  0  0
    0.0260   10.7950   -6.8730 C   0  0  0  0  0  0  0  0  0  0  0  0
   -2.1510    9.9470   -6.2760 C   0  0  0  0  0  0  0  0  0  0  0  0
    2.9920   12.4540   -3.7050 O   0  0  0  0  0  0  0  0  0  0  0  0
   -1.0810    9.9800   -7.1520 C   0  0  0  0  0  0  0  0  0  0  0  0
   -1.1470    9.0040   -8.5660 Cl  0  0  0  0  0  0  0  0  0  0  0  0
  2  1  1  1
  2  3  1  0
  2  4  1  0
  4  5  2  0
  3  6  1  0
  4  7  1  0
  6  7  1  1
  3  8  1  0
  6  9  1  0
  8 10  2  0
  8 11  1  0
 10 12  1  0
  9 13  2  0
 12 13  1  0
 10 14  1  0
 11 15  2  0
 13 16  1  0
 14 17  2  0
 15 17  1  0
 17 18  1  0
M  END
