x1018_0_A-x1015_0_A
     RDKit          3D

 26 29  0  0  0  0  0  0  0  0999 V2000
   -8.4530   14.6040    0.8190 Cl  0  0  0  0  0  0  0  0  0  0  0  0
   -6.7740   14.6040    0.4160 C   0  0  0  0  0  0  0  0  0  0  0  0
   -5.7690   14.3700    1.4900 C   0  0  0  0  0  0  0  0  0  0  0  0
   -6.4820   14.8180   -0.8320 N   0  0  0  0  0  0  0  0  0  0  0  0
   -5.1420   14.8080   -1.0810 N   0  0  0  0  0  0  0  0  0  0  0  0
   -4.4890   14.6680    1.2020 C   0  0  0  0  0  0  0  0  0  0  0  0
   -4.6750   14.9950   -2.3670 N   0  0  0  0  0  0  0  0  0  0  0  0
   -4.1360   15.2060   -0.1350 C   0  0  1  0  0  0  0  0  0  0  0  0
   -2.9460   14.6950   -0.8060 N   0  0  0  0  0  0  0  0  0  0  0  0
   -3.2370   14.9710   -2.2330 N   0  0  0  0  0  0  0  0  0  0  0  0
   -2.6500   13.8940   -3.0680 C   0  0  0  0  0  0  0  0  0  0  0  0
   -1.5260   14.3550   -4.0260 C   0  0  0  0  0  0  0  0  0  0  0  0
   -0.1460   13.6840   -3.8820 C   0  0  2  0  0  0  0  0  0  0  0  0
   -0.1110   12.2240   -3.9210 N   0  0  0  0  0  0  0  0  0  0  0  0
    0.4730   13.9400   -2.5140 C   0  0  0  0  0  0  0  0  0  0  0  0
    0.6590   15.0300   -1.9930 O   0  0  0  0  0  0  0  0  0  0  0  0
    0.3110   11.7100   -2.6830 C   0  0  0  0  0  0  0  0  0  0  0  0
    0.7960   12.7490   -1.9530 N   0  0  0  0  0  0  0  0  0  0  0  0
   -0.5010   11.4430   -5.0340 C   0  0  0  0  0  0  0  0  0  0  0  0
    0.2800   10.5440   -2.2800 O   0  0  0  0  0  0  0  0  0  0  0  0
    0.0660   11.6440   -6.3020 C   0  0  0  0  0  0  0  0  0  0  0  0
   -1.4670   10.4350   -4.9030 C   0  0  0  0  0  0  0  0  0  0  0  0
   -0.3170   10.8650   -7.3970 C   0  0  0  0  0  0  0  0  0  0  0  0
   -1.8560    9.6530   -5.9920 C   0  0  0  0  0  0  0  0  0  0  0  0
   -1.2790    9.8700   -7.2380 C   0  0  0  0  0  0  0  0  0  0  0  0
   -1.7580    8.9080   -8.5780 Cl  0  0  0  0  0  0  0  0  0  0  0  0
  1  2  1  0
  2  3  1  0
  2  4  2  0
  4  5  1  0
  3  6  2  0
  5  7  1  0
  5  8  1  0
  8  6  1  1
  8  9  1  0
  7 10  1  0
  9 10  1  0
 10 11  1  0
 11 12  1  0
 13 12  1  1
 13 14  1  0
 13 15  1  0
 15 16  2  0
 14 17  1  0
 15 18  1  0
 17 18  1  0
 14 19  1  0
 17 20  2  0
 19 21  2  0
 19 22  1  0
 21 23  1  0
 22 24  2  0
 23 25  2  0
 24 25  1  0
 25 26  1  0
M  END
