x1015_0_A_α-4IQY_0_B_β
     RDKit          3D

 27 28  0  0  0  0  0  0  0  0999 V2000
   -1.6170   13.8350   -3.3160 C   0  0  0  0  0  0  0  0  0  0  0  0
   -0.3040   13.4740   -3.8150 C   0  0  2  0  0  0  0  0  0  0  0  0
   -0.0410   12.0440   -4.0920 N   0  0  0  0  0  0  0  0  0  0  0  0
    0.7870   13.6440   -2.6820 C   0  0  0  0  0  0  0  0  0  0  0  0
    1.0550   14.7450   -2.3580 N   0  0  0  0  0  0  0  0  0  0  0  0
    0.2310   11.4760   -2.7800 C   0  0  0  0  0  0  0  0  0  0  0  0
    1.2420   12.3390   -2.2780 N   0  0  0  0  0  0  0  0  0  0  0  0
   -0.4500   11.2860   -5.1540 C   0  0  0  0  0  0  0  0  0  0  0  0
   -0.3050   10.4770   -2.3040 O   0  0  0  0  0  0  0  0  0  0  0  0
    0.3180   15.8540   -3.0350 C   0  0  0  0  0  0  0  0  0  0  0  0
    0.0450   11.4410   -6.4170 C   0  0  0  0  0  0  0  0  0  0  0  0
   -1.4160   10.2990   -5.0020 C   0  0  0  0  0  0  0  0  0  0  0  0
    1.0400   16.0060   -4.3370 C   0  0  0  0  0  0  0  0  0  0  0  0
   -0.3470   10.6970   -7.5110 C   0  0  0  0  0  0  0  0  0  0  0  0
   -1.8340    9.5330   -6.0780 C   0  0  0  0  0  0  0  0  0  0  0  0
    0.6650   16.9560   -5.3420 C   0  0  0  0  0  0  0  0  0  0  0  0
   -1.2950    9.7310   -7.3550 C   0  0  0  0  0  0  0  0  0  0  0  0
   -1.8410    8.7550   -8.6780 Cl  0  0  0  0  0  0  0  0  0  0  0  0
   -0.6080   16.6710   -5.8190 O   0  0  0  0  0  0  0  0  0  0  0  0
   -1.5960   18.0560   -6.0050 P   0  0  0  0  0  0  0  0  0  0  0  0
   -0.5760   18.9730   -6.5420 O   0  0  0  0  0  0  0  0  0  0  0  0
   -1.8210   18.9710   -4.6430 O   0  0  0  0  0  0  0  0  0  0  0  0
   -2.6560   18.1100   -7.1570 O   0  0  0  0  0  0  0  0  0  0  0  0
   -0.4330   19.6670   -7.9300 P   0  0  0  0  0  0  0  0  0  0  0  0
   -1.9440   20.3550   -7.8330 O   0  0  0  0  0  0  0  0  0  0  0  0
    0.8830   20.5180   -7.3830 O   0  0  0  0  0  0  0  0  0  0  0  0
   -0.2260   18.3910   -8.8050 O   0  0  0  0  0  0  0  0  0  0  0  0
  2  1  1  1
  2  3  1  0
  2  4  1  0
  4  5  2  3
  3  6  1  0
  4  7  1  0
  6  7  1  0
  3  8  1  0
  6  9  2  0
  5 10  1  0
  8 11  2  0
  8 12  1  0
 10 13  1  0
 11 14  1  0
 12 15  2  0
 13 16  1  0
 14 17  2  0
 15 17  1  0
 17 18  1  0
 16 19  1  0
 19 20  1  0
 20 21  1  0
 20 22  1  0
 20 23  1  0
 21 24  1  0
 24 25  1  0
 24 26  1  0
 24 27  1  0
M  CHG  2  22  -1  26  -1
M  END
