x1015_0_A-x0962_3_A
     RDKit          3D

 22 24  0  0  0  0  0  0  0  0999 V2000
   -2.2740   14.3500   -0.6720 C   0  0  0  0  0  0  0  0  0  0  0  0
   -1.5330   13.9420   -1.9400 C   0  0  2  0  0  0  0  0  0  0  0  0
   -1.3360   12.5030   -2.0710 N   0  0  0  0  0  0  0  0  0  0  0  0
   -0.0820   14.3860   -1.8210 C   0  0  0  0  0  0  0  0  0  0  0  0
    0.3790   15.4680   -2.1440 O   0  0  0  0  0  0  0  0  0  0  0  0
   -0.0290   12.1990   -1.6440 C   0  0  0  0  0  0  0  0  0  0  0  0
    0.6120   13.3600   -1.3000 N   0  0  0  0  0  0  0  0  0  0  0  0
   -1.8800   11.7740   -3.1560 C   0  0  0  0  0  0  0  0  0  0  0  0
    0.5060   11.0940   -1.5530 O   0  0  0  0  0  0  0  0  0  0  0  0
   -1.9350   12.3530   -4.4250 C   0  0  0  0  0  0  0  0  0  0  0  0
   -2.3570   10.4620   -3.0180 C   0  0  0  0  0  0  0  0  0  0  0  0
   -2.4250   11.6450   -5.5210 C   0  0  0  0  0  0  0  0  0  0  0  0
   -2.8500    9.7380   -4.1190 C   0  0  0  0  0  0  0  0  0  0  0  0
   -2.8740   10.3250   -5.3840 C   0  0  0  0  0  0  0  0  0  0  0  0
   -3.3180    9.6030   -6.6240 C   0  0  0  0  0  0  0  0  0  0  0  0
   -2.0630    9.7740   -7.3220 N   0  0  0  0  0  0  0  0  0  0  0  0
   -1.5440    9.3230   -8.5110 C   0  0  0  0  0  0  0  0  0  0  0  0
   -1.1280   10.5460   -6.7330 C   0  0  0  0  0  0  0  0  0  0  0  0
   -0.0720   10.5660   -7.5480 C   0  0  0  0  0  0  0  0  0  0  0  0
   -0.3020    9.7990   -8.6830 N   0  0  0  0  0  0  0  0  0  0  0  0
    1.0750   11.3170   -7.1790 C   0  0  0  0  0  0  0  0  0  0  0  0
    1.9160   11.9760   -6.7370 N   0  0  0  0  0  0  0  0  0  0  0  0
  2  1  1  1
  2  3  1  0
  2  4  1  0
  4  5  2  0
  3  6  1  0
  4  7  1  0
  6  7  1  0
  3  8  1  0
  6  9  2  0
  8 10  2  0
  8 11  1  0
 10 12  1  0
 11 13  2  0
 12 14  2  0
 13 14  1  0
 14 15  1  0
 15 16  1  0
 16 17  1  0
 16 18  1  0
 18 19  2  0
 17 20  2  0
 19 20  1  0
 19 21  1  0
 21 22  3  0
M  END
