x1012_0_A-x0104_0_A
     RDKit          3D

 31 33  0  0  0  0  0  0  0  0999 V2000
   -0.1610   18.1730   -4.8370 N   0  0  0  0  0  0  0  0  0  0  0  0
   -1.0520   17.1700   -4.6540 C   0  0  0  0  0  0  0  0  0  0  0  0
   -2.2990   17.2620   -4.5170 N   0  0  0  0  0  0  0  0  0  0  0  0
   -0.4510   15.9150   -4.6060 N   0  0  0  0  0  0  0  0  0  0  0  0
   -2.9470   15.9890   -4.3120 C   0  0  0  0  0  0  0  0  0  0  0  0
   -1.1310   14.6850   -5.0580 C   0  0  0  0  0  0  0  0  0  0  0  0
    0.9940   15.7380   -4.3990 C   0  0  0  0  0  0  0  0  0  0  0  0
   -2.7070   15.5830   -2.8640 C   0  0  0  0  0  0  0  0  0  0  0  0
   -1.0430   13.6400   -3.9580 C   0  0  0  0  0  0  0  0  0  0  0  0
    1.2290   14.6300   -3.3610 C   0  0  0  0  0  0  0  0  0  0  0  0
   -3.5540   14.3850   -2.5060 C   0  0  0  0  0  0  0  0  0  0  0  0
    0.4190   13.3320   -3.6090 C   0  0  0  0  0  0  0  0  0  0  0  0
    0.4770   12.4010   -2.4110 C   0  0  0  0  0  0  0  0  0  0  0  0
   -4.9200   14.7490   -2.4000 O   0  0  0  0  0  0  0  0  0  0  0  0
    0.3920   11.0980   -2.7460 O   0  0  0  0  0  0  0  0  0  0  0  0
    0.5780   12.7260   -1.2350 O   0  0  0  0  0  0  0  0  0  0  0  0
   -5.3590   14.7610   -1.1080 C   0  0  0  0  0  0  0  0  0  0  0  0
   -4.4820   14.9130   -0.0910 N   0  0  0  0  0  0  0  0  0  0  0  0
   -6.7180   14.6070   -0.9480 C   0  0  0  0  0  0  0  0  0  0  0  0
   -5.0160   14.9050    1.1470 C   0  0  0  0  0  0  0  0  0  0  0  0
   -7.2370   14.6020    0.3380 C   0  0  0  0  0  0  0  0  0  0  0  0
   -6.3810   14.7530    1.4180 C   0  0  0  0  0  0  0  0  0  0  0  0
   -6.8080   14.7680    2.7480 N   0  0  0  0  0  0  0  0  0  0  0  0
   -8.0680   15.0980    3.2210 C   0  0  0  0  0  0  0  0  0  0  0  0
   -8.0780   15.1170    4.6110 N   0  0  0  0  0  0  0  0  0  0  0  0
   -9.0350   15.3430    2.4990 O   0  0  0  0  0  0  0  0  0  0  0  0
   -9.2180   15.0910    5.3880 C   0  0  0  0  0  0  0  0  0  0  0  0
   -9.2830   15.2030    6.7590 C   0  0  0  0  0  0  0  0  0  0  0  0
  -10.7620   14.9090    4.6940 S   0  0  0  0  0  0  0  0  0  0  0  0
  -11.5340   14.9770    6.2170 C   0  0  0  0  0  0  0  0  0  0  0  0
  -10.6290   15.1370    7.2410 C   0  0  0  0  0  0  0  0  0  0  0  0
  1  2  1  0
  2  3  2  3
  2  4  1  0
  3  5  1  0
  4  6  1  0
  4  7  1  0
  5  8  1  0
  6  9  1  0
  7 10  1  0
  8 11  1  0
  9 12  1  0
 10 12  1  0
 12 13  1  0
 11 14  1  0
 13 15  1  0
 13 16  2  0
 14 17  1  0
 17 18  2  0
 17 19  1  0
 18 20  1  0
 19 21  2  0
 20 22  2  0
 21 22  1  0
 22 23  1  0
 23 24  1  0
 24 25  1  0
 24 26  2  0
 25 27  1  0
 27 28  2  0
 27 29  1  0
 29 30  1  0
 28 31  1  0
 30 31  2  0
M  END
