x1012_0_A-x0864_0_A
     RDKit          3D

 21 22  0  0  0  0  0  0  0  0999 V2000
   -0.2940   18.3540   -4.7730 N   0  0  0  0  0  0  0  0  0  0  0  0
   -1.2530   17.4080   -4.8280 C   0  0  0  0  0  0  0  0  0  0  0  0
   -2.4130   17.7540   -4.8470 O   0  0  0  0  0  0  0  0  0  0  0  0
   -0.8250   16.1170   -4.8380 N   0  0  0  0  0  0  0  0  0  0  0  0
   -1.8510   15.0810   -4.5830 C   0  0  0  0  0  0  0  0  0  0  0  0
    0.6030   15.7840   -4.7020 C   0  0  0  0  0  0  0  0  0  0  0  0
   -1.5220   14.2490   -3.3500 C   0  0  0  0  0  0  0  0  0  0  0  0
    0.8820   14.9650   -3.4570 C   0  0  0  0  0  0  0  0  0  0  0  0
   -0.0760   13.7790   -3.5010 C   0  0  0  0  0  0  0  0  0  0  0  0
    0.3690   12.5390   -2.7190 C   0  0  0  0  0  0  0  0  0  0  0  0
   -0.5570   12.0630   -1.7570 O   0  0  0  0  0  0  0  0  0  0  0  0
    1.5570   12.8360   -2.0100 O   0  0  0  0  0  0  0  0  0  0  0  0
    0.6600   11.5460   -3.8420 C   0  0  0  0  0  0  0  0  0  0  0  0
   -0.2230   11.5720   -5.0270 N   0  0  0  0  0  0  0  0  0  0  0  0
   -1.5270   11.1480   -4.8440 C   0  0  0  0  0  0  0  0  0  0  0  0
    0.3990   11.3670   -6.2540 C   0  0  0  0  0  0  0  0  0  0  0  0
    1.3360   12.0460   -6.6660 O   0  0  0  0  0  0  0  0  0  0  0  0
   -2.0720   10.2460   -5.6670 C   0  0  0  0  0  0  0  0  0  0  0  0
   -0.1090   10.2390   -7.0660 C   0  0  0  0  0  0  0  0  0  0  0  0
   -1.3020    9.7100   -6.7620 C   0  0  0  0  0  0  0  0  0  0  0  0
   -2.0230    8.2800   -7.7180 Br  0  0  0  0  0  0  0  0  0  0  0  0
  1  2  1  0
  2  3  2  0
  2  4  1  0
  4  5  1  0
  4  6  1  0
  5  7  1  0
  6  8  1  0
  7  9  1  0
  8  9  1  0
  9 10  1  0
 10 11  1  0
 10 12  1  0
 10 13  1  0
 13 14  1  0
 14 15  1  0
 14 16  1  0
 16 17  2  0
 15 18  2  0
 16 19  1  0
 18 20  1  0
 19 20  2  0
 20 21  1  0
M  END
