x1012_0_A_α-x0722_0_A_α
     RDKit          3D

 24 25  0  0  0  0  0  0  0  0999 V2000
   -0.2850   18.1520   -4.7010 N   0  0  0  0  0  0  0  0  0  0  0  0
   -1.2620   17.2210   -4.7230 C   0  0  0  0  0  0  0  0  0  0  0  0
   -2.4070   17.6090   -4.8950 O   0  0  0  0  0  0  0  0  0  0  0  0
   -0.8920   15.9120   -4.5130 N   0  0  0  0  0  0  0  0  0  0  0  0
   -1.9490   14.9680   -4.0850 C   0  0  0  0  0  0  0  0  0  0  0  0
    0.4260   15.3470   -4.8490 C   0  0  0  0  0  0  0  0  0  0  0  0
   -1.4550   13.9890   -2.9900 C   0  0  2  0  0  0  0  0  0  0  0  0
    0.9030   14.3480   -3.7910 C   0  0  0  0  0  0  0  0  0  0  0  0
   -1.1090   14.5980   -1.6020 C   0  0  0  0  0  0  0  0  0  0  0  0
   -0.1730   13.2870   -3.4920 C   0  0  1  0  0  0  0  0  0  0  0  0
    0.3240   12.2860   -2.4710 C   0  0  0  0  0  0  0  0  0  0  0  0
   -2.0890   14.7210   -0.4390 C   0  0  0  0  0  0  0  0  0  0  0  0
    0.3250   11.0220   -2.9290 O   0  0  0  0  0  0  0  0  0  0  0  0
    0.6870   12.5340   -1.3350 O   0  0  0  0  0  0  0  0  0  0  0  0
   -3.4600   14.9890   -0.2680 C   0  0  0  0  0  0  0  0  0  0  0  0
   -1.6120   14.5530    0.8470 N   0  0  0  0  0  0  0  0  0  0  0  0
   -0.2550   14.2610    1.2530 C   0  0  0  0  0  0  0  0  0  0  0  0
   -4.5550   15.2690   -1.2520 C   0  0  0  0  0  0  0  0  0  0  0  0
   -2.5330   14.6850    1.7950 N   0  0  0  0  0  0  0  0  0  0  0  0
   -3.6490   14.9500    1.1400 C   0  0  0  0  0  0  0  0  0  0  0  0
   -4.8990   15.1630    1.8870 C   0  0  0  0  0  0  0  0  0  0  0  0
   -5.9080   14.6950   -0.8300 C   0  0  0  0  0  0  0  0  0  0  0  0
   -6.9580   15.3270   -0.9290 O   0  0  0  0  0  0  0  0  0  0  0  0
   -5.9200   13.4280   -0.3200 N   0  0  0  0  0  0  0  0  0  0  0  0
  1  2  1  0
  2  3  2  0
  2  4  1  0
  4  5  1  0
  4  6  1  0
  5  7  1  0
  6  8  1  0
  7  9  1  1
  7 10  1  0
  8 10  1  0
 10 11  1  1
  9 12  1  0
 11 13  1  0
 11 14  2  0
 12 15  2  0
 12 16  1  0
 16 17  1  0
 15 18  1  0
 16 19  1  0
 15 20  1  0
 19 20  2  0
 20 21  1  0
 18 22  1  0
 22 23  2  0
 22 24  1  0
M  END
