x1015_0_A-x0253_0_A
     RDKit          3D

 26 27  0  0  0  0  0  0  0  0999 V2000
   -2.0850   14.4890   -4.2360 C   0  0  0  0  0  0  0  0  0  0  0  0
   -0.9240   13.7840   -3.5490 C   0  0  2  0  0  0  0  0  0  0  0  0
   -0.8440   12.3080   -3.7600 N   0  0  0  0  0  0  0  0  0  0  0  0
   -0.7740   14.1200   -2.0410 C   0  0  0  0  0  0  0  0  0  0  0  0
   -1.0890   15.1710   -1.5540 O   0  0  0  0  0  0  0  0  0  0  0  0
   -0.1930   13.1230   -1.3440 N   0  0  0  0  0  0  0  0  0  0  0  0
   -1.2360   11.6500   -4.9320 C   0  0  0  0  0  0  0  0  0  0  0  0
    0.8190   12.8290   -2.0770 C   0  0  0  0  0  0  0  0  0  0  0  0
   -1.0030   12.1900   -6.2090 C   0  0  0  0  0  0  0  0  0  0  0  0
   -1.8780   10.4140   -4.8430 C   0  0  0  0  0  0  0  0  0  0  0  0
    0.9790   11.7320   -2.5930 N   0  0  0  0  0  0  0  0  0  0  0  0
   -1.4060   11.5030   -7.3550 C   0  0  0  0  0  0  0  0  0  0  0  0
   -2.2840    9.7270   -5.9810 C   0  0  0  0  0  0  0  0  0  0  0  0
    2.0250   12.1490   -3.3190 C   0  0  0  0  0  0  0  0  0  0  0  0
   -2.0480   10.2720   -7.2420 C   0  0  0  0  0  0  0  0  0  0  0  0
    3.1830   12.1520   -2.9850 O   0  0  0  0  0  0  0  0  0  0  0  0
    1.5760   12.7300   -4.6530 C   0  0  0  0  0  0  0  0  0  0  0  0
    0.7340   11.8410   -5.4350 N   0  0  0  0  0  0  0  0  0  0  0  0
    1.2780   11.5960   -6.6380 C   0  0  0  0  0  0  0  0  0  0  0  0
    2.2770   12.1840   -6.8600 O   0  0  0  0  0  0  0  0  0  0  0  0
    0.6600   10.6080   -7.5940 C   0  0  0  0  0  0  0  0  0  0  0  0
   -0.1070    9.5300   -7.1340 C   0  0  0  0  0  0  0  0  0  0  0  0
    0.8520   10.7590   -8.9750 C   0  0  0  0  0  0  0  0  0  0  0  0
   -0.6750    8.6270   -8.0430 C   0  0  0  0  0  0  0  0  0  0  0  0
    0.2860    9.8600   -9.8760 C   0  0  0  0  0  0  0  0  0  0  0  0
   -0.4780    8.7970   -9.4100 C   0  0  0  0  0  0  0  0  0  0  0  0
  2  1  1  1
  2  3  1  0
  2  4  1  0
  4  5  2  0
  4  6  1  0
  3  7  1  0
  6  8  1  0
  7  9  2  0
  7 10  1  0
  8 11  2  3
  9 12  1  0
 10 13  2  0
 11 14  1  0
 12 15  2  0
 13 15  1  0
 14 16  2  0
 14 17  1  0
 17 18  1  0
 18 19  1  0
 19 20  2  0
 19 21  1  0
 21 22  2  0
 21 23  1  0
 22 24  1  0
 23 25  2  0
 24 26  2  0
 25 26  1  0
M  END
