x1012_0_A_α-x0855_0_A_α
     RDKit          3D

 19 20  0  0  0  0  0  0  0  0999 V2000
   -0.4380   18.1860   -4.7590 N   0  0  0  0  0  0  0  0  0  0  0  0
   -1.3010   17.1470   -4.8180 C   0  0  0  0  0  0  0  0  0  0  0  0
   -2.4960   17.3660   -4.7140 O   0  0  0  0  0  0  0  0  0  0  0  0
   -0.7440   15.8980   -4.9620 N   0  0  0  0  0  0  0  0  0  0  0  0
   -1.6160   14.7510   -4.7470 C   0  0  0  0  0  0  0  0  0  0  0  0
    0.6650   15.6330   -4.7290 C   0  0  0  0  0  0  0  0  0  0  0  0
   -1.5030   14.1980   -3.3240 C   0  0  0  0  0  0  0  0  0  0  0  0
    0.8840   15.1700   -3.2940 C   0  0  0  0  0  0  0  0  0  0  0  0
   -0.0420   14.0150   -2.8200 C   0  0  0  0  0  0  0  0  0  0  0  0
    0.5640   12.6240   -3.1080 C   0  0  0  0  0  0  0  0  0  0  0  0
   -0.1400   11.5800   -2.4470 O   0  0  0  0  0  0  0  0  0  0  0  0
    1.8660   12.5450   -2.5420 O   0  0  0  0  0  0  0  0  0  0  0  0
    0.6800   12.3900   -4.6340 C   0  0  0  0  0  0  0  0  0  0  0  0
   -0.3710   11.5690   -5.1660 N   0  0  0  0  0  0  0  0  0  0  0  0
   -0.2880   10.6530   -6.1750 C   0  0  0  0  0  0  0  0  0  0  0  0
   -1.6070   11.6720   -4.6350 N   0  0  0  0  0  0  0  0  0  0  0  0
   -1.5470   10.1340   -6.2850 C   0  0  0  0  0  0  0  0  0  0  0  0
   -2.3270   10.7860   -5.3270 C   0  0  0  0  0  0  0  0  0  0  0  0
   -2.1450    8.8190   -7.4600 Br  0  0  0  0  0  0  0  0  0  0  0  0
  1  2  1  0
  2  3  2  0
  2  4  1  0
  4  5  1  0
  4  6  1  0
  5  7  1  0
  6  8  1  0
  7  9  1  0
  8  9  1  0
  9 10  1  0
 10 11  1  0
 10 12  1  0
 10 13  1  0
 13 14  1  0
 14 15  1  0
 14 16  1  0
 15 17  2  0
 16 18  2  0
 17 18  1  0
 17 19  1  0
M  END
