x1018_0_A-x0685_1_A
     RDKit          3D

 25 27  0  0  0  0  0  0  0  0999 V2000
   -8.4190   14.6530    0.8460 Cl  0  0  0  0  0  0  0  0  0  0  0  0
   -6.7360   14.6390    0.4360 C   0  0  0  0  0  0  0  0  0  0  0  0
   -5.7320   14.8510    1.5100 C   0  0  0  0  0  0  0  0  0  0  0  0
   -6.4520   14.4470   -0.8140 N   0  0  0  0  0  0  0  0  0  0  0  0
   -5.1200   14.4200   -1.1180 N   0  0  0  0  0  0  0  0  0  0  0  0
   -4.4520   14.6560    1.1970 C   0  0  0  0  0  0  0  0  0  0  0  0
   -4.6820   15.0750   -2.2570 N   0  0  0  0  0  0  0  0  0  0  0  0
   -4.0310   14.2250   -0.1590 C   0  0  2  0  0  0  0  0  0  0  0  0
   -2.9280   14.9940   -0.7260 N   0  0  0  0  0  0  0  0  0  0  0  0
   -3.2620   15.0930   -2.1360 N   0  0  0  0  0  0  0  0  0  0  0  0
   -1.6180   14.3530   -0.5070 C   0  0  0  0  0  0  0  0  0  0  0  0
   -1.3220   13.2740   -1.5460 C   0  0  0  0  0  0  0  0  0  0  0  0
   -0.0040   12.7690   -1.3800 O   0  0  0  0  0  0  0  0  0  0  0  0
    0.6490   11.9910   -2.6210 S   0  0  0  0  0  0  0  0  0  0  0  0
   -0.0620   12.6000   -4.1540 C   0  0  0  0  0  0  0  0  0  0  0  0
    2.2100   12.3230   -2.7900 O   0  0  0  0  0  0  0  0  0  0  0  0
    0.3770   10.4060   -2.5400 O   0  0  0  0  0  0  0  0  0  0  0  0
   -1.4320   11.9980   -4.4510 C   0  0  0  0  0  0  0  0  0  0  0  0
   -1.3330   10.5770   -4.8450 N   0  0  0  0  0  0  0  0  0  0  0  0
   -0.7920   10.3130   -6.1930 C   0  0  0  0  0  0  0  0  0  0  0  0
   -0.5200    8.8190   -6.4540 C   0  0  0  0  0  0  0  0  0  0  0  0
   -1.6120   10.9870   -7.3150 C   0  0  0  0  0  0  0  0  0  0  0  0
    0.1310    8.5920   -7.8100 C   0  0  0  0  0  0  0  0  0  0  0  0
   -1.0030   10.7120   -8.6910 C   0  0  0  0  0  0  0  0  0  0  0  0
   -0.7050    9.2280   -8.9190 C   0  0  0  0  0  0  0  0  0  0  0  0
  1  2  1  0
  2  3  1  0
  2  4  2  0
  4  5  1  0
  3  6  2  0
  5  7  1  0
  5  8  1  0
  8  6  1  1
  8  9  1  0
  7 10  1  0
  9 10  1  0
  9 11  1  0
 11 12  1  0
 12 13  1  0
 14 13  1  0
 14 15  1  0
 14 16  1  0
 14 17  1  0
 15 18  1  0
 18 19  1  0
 19 20  1  0
 20 21  1  0
 20 22  1  0
 21 23  1  0
 22 24  1  0
 23 25  1  0
 24 25  1  0
M  END
