x1015_0_A_α-x0371_0_A_β
     RDKit          3D

 27 30  0  0  0  0  0  0  0  0999 V2000
   -1.4430   14.2670   -4.0100 C   0  0  0  0  0  0  0  0  0  0  0  0
   -0.0640   13.6860   -3.7110 C   0  0  2  0  0  0  0  0  0  0  0  0
   -0.0430   12.2190   -3.8680 N   0  0  0  0  0  0  0  0  0  0  0  0
    0.3510   13.7370   -2.2160 C   0  0  0  0  0  0  0  0  0  0  0  0
    0.1300   14.6080   -1.2690 N   0  0  0  0  0  0  0  0  0  0  0  0
    0.4130   11.6290   -2.6870 C   0  0  0  0  0  0  0  0  0  0  0  0
    1.0490   12.6120   -2.0160 N   0  0  0  0  0  0  0  0  0  0  0  0
   -0.4490   11.4830   -5.0150 C   0  0  0  0  0  0  0  0  0  0  0  0
    0.2980   10.4770   -2.2770 O   0  0  0  0  0  0  0  0  0  0  0  0
   -0.6190   15.8640   -1.2810 C   0  0  0  0  0  0  0  0  0  0  0  0
    0.0930   11.7030   -6.2890 C   0  0  0  0  0  0  0  0  0  0  0  0
   -1.4270   10.4790   -4.8880 C   0  0  0  0  0  0  0  0  0  0  0  0
   -1.8810   15.7190   -2.0930 C   0  0  0  0  0  0  0  0  0  0  0  0
   -0.3250   10.9500   -7.3940 C   0  0  0  0  0  0  0  0  0  0  0  0
   -1.8480    9.7250   -5.9870 C   0  0  0  0  0  0  0  0  0  0  0  0
   -1.2940    9.9620   -7.2380 C   0  0  0  0  0  0  0  0  0  0  0  0
   -3.2140   15.4480   -1.4300 C   0  0  0  0  0  0  0  0  0  0  0  0
   -1.8090    9.0280   -8.5860 Cl  0  0  0  0  0  0  0  0  0  0  0  0
   -3.5060   15.1790   -0.0600 C   0  0  0  0  0  0  0  0  0  0  0  0
   -4.2310   15.4800   -2.3660 C   0  0  0  0  0  0  0  0  0  0  0  0
   -4.8760   14.9500    0.2350 C   0  0  0  0  0  0  0  0  0  0  0  0
   -5.5500   15.2620   -2.0510 C   0  0  0  0  0  0  0  0  0  0  0  0
   -5.5910   14.6530    1.3810 N   0  0  0  0  0  0  0  0  0  0  0  0
   -5.8770   14.9910   -0.7360 C   0  0  0  0  0  0  0  0  0  0  0  0
   -6.9240   14.5390    1.0520 C   0  0  0  0  0  0  0  0  0  0  0  0
   -7.1130   14.7420   -0.2230 N   0  0  0  0  0  0  0  0  0  0  0  0
   -7.9720   14.2280    2.0450 C   0  0  0  0  0  0  0  0  0  0  0  0
  2  1  1  1
  2  3  1  0
  2  4  1  0
  4  5  2  3
  3  6  1  0
  4  7  1  0
  6  7  1  0
  3  8  1  0
  6  9  2  0
  5 10  1  0
  8 11  2  0
  8 12  1  0
 10 13  1  0
 11 14  1  0
 12 15  2  0
 14 16  2  0
 15 16  1  0
 13 17  1  0
 16 18  1  0
 17 19  2  0
 17 20  1  0
 19 21  1  0
 20 22  2  0
 21 23  1  0
 21 24  2  0
 22 24  1  0
 23 25  1  0
 24 26  1  0
 25 26  2  0
 25 27  1  0
M  END
