x1012_0_A-x0626_0_A
     RDKit          3D

 25 26  0  0  0  0  0  0  0  0999 V2000
   -0.3850   18.1920   -4.4330 N   0  0  0  0  0  0  0  0  0  0  0  0
   -1.2640   17.1810   -4.6100 C   0  0  0  0  0  0  0  0  0  0  0  0
   -2.4520   17.4440   -4.6780 O   0  0  0  0  0  0  0  0  0  0  0  0
   -0.7420   15.9130   -4.6980 N   0  0  0  0  0  0  0  0  0  0  0  0
   -1.6910   14.7970   -4.6820 C   0  0  0  0  0  0  0  0  0  0  0  0
    0.6970   15.6040   -4.7260 C   0  0  0  0  0  0  0  0  0  0  0  0
   -1.3300   13.7690   -3.6250 C   0  0  0  0  0  0  0  0  0  0  0  0
    1.1050   14.5130   -3.7360 C   0  0  0  0  0  0  0  0  0  0  0  0
    0.1260   13.3220   -3.7720 C   0  0  0  0  0  0  0  0  0  0  0  0
    0.4160   12.2400   -2.7470 C   0  0  0  0  0  0  0  0  0  0  0  0
    0.3610   10.9830   -3.2120 O   0  0  0  0  0  0  0  0  0  0  0  0
    0.6850   12.4350   -1.5200 N   0  0  0  0  0  0  0  0  0  0  0  0
    0.7310   13.7830   -1.0060 C   0  0  0  0  0  0  0  0  0  0  0  0
    0.0390   13.6540    0.3280 C   0  0  0  0  0  0  0  0  0  0  0  0
   -0.3460   14.9250    0.9790 C   0  0  0  0  0  0  0  0  0  0  0  0
   -1.7180   15.1190    0.5630 C   0  0  0  0  0  0  0  0  0  0  0  0
   -2.6870   14.8830    1.4940 N   0  0  0  0  0  0  0  0  0  0  0  0
   -2.1400   15.5000   -0.6920 C   0  0  0  0  0  0  0  0  0  0  0  0
   -3.8430   15.0780    0.9170 C   0  0  0  0  0  0  0  0  0  0  0  0
   -3.8420   15.5540   -0.7210 S   0  0  0  0  0  0  0  0  0  0  0  0
   -5.0730   14.9450    1.4570 N   0  0  0  0  0  0  0  0  0  0  0  0
   -6.2160   14.6830    0.7720 C   0  0  0  0  0  0  0  0  0  0  0  0
   -6.2110   14.7670   -0.4610 O   0  0  0  0  0  0  0  0  0  0  0  0
   -7.4600   14.3040    1.5480 C   0  0  0  0  0  0  0  0  0  0  0  0
   -8.7310   14.6940    0.8130 C   0  0  0  0  0  0  0  0  0  0  0  0
  1  2  1  0
  2  3  2  0
  2  4  1  0
  4  5  1  0
  4  6  1  0
  5  7  1  0
  6  8  1  0
  7  9  1  0
  8  9  1  0
  9 10  1  0
 10 11  1  0
 10 12  2  3
 12 13  1  0
 13 14  1  0
 14 15  1  0
 15 16  1  0
 16 17  1  0
 16 18  2  0
 17 19  2  0
 18 20  1  0
 19 20  1  0
 19 21  1  0
 21 22  1  0
 22 23  2  0
 22 24  1  0
 24 25  1  0
M  END
