x1018_0_A-x0910_0_A
     RDKit          3D

 15 17  0  0  0  0  0  0  0  0999 V2000
   -8.5020   14.7790    0.9360 Cl  0  0  0  0  0  0  0  0  0  0  0  0
   -6.8310   14.6260    0.5080 C   0  0  0  0  0  0  0  0  0  0  0  0
   -5.8010   14.6710    1.5820 C   0  0  0  0  0  0  0  0  0  0  0  0
   -6.5890   14.4770   -0.7590 N   0  0  0  0  0  0  0  0  0  0  0  0
   -5.2750   14.3300   -1.1060 N   0  0  0  0  0  0  0  0  0  0  0  0
   -4.5460   14.3810    1.2290 C   0  0  0  0  0  0  0  0  0  0  0  0
   -4.8080   15.0130   -2.2440 N   0  0  0  0  0  0  0  0  0  0  0  0
   -4.1850   14.0190   -0.1690 C   0  0  2  0  0  0  0  0  0  0  0  0
   -3.1770   14.8700   -0.7490 N   0  0  0  0  0  0  0  0  0  0  0  0
   -3.3630   14.9650   -2.1570 N   0  0  0  0  0  0  0  0  0  0  0  0
   -1.9270   14.7960   -0.2910 C   0  0  0  0  0  0  0  0  0  0  0  0
   -1.7300   14.7630    1.0510 N   0  0  0  0  0  0  0  0  0  0  0  0
   -0.7730   14.7510   -0.9090 N   0  0  0  0  0  0  0  0  0  0  0  0
   -0.4310   14.6980    1.3490 N   0  0  0  0  0  0  0  0  0  0  0  0
    0.1080   14.6970    0.1290 C   0  0  0  0  0  0  0  0  0  0  0  0
  1  2  1  0
  2  3  1  0
  2  4  2  0
  4  5  1  0
  3  6  2  0
  5  7  1  0
  5  8  1  0
  8  6  1  1
  8  9  1  0
  7 10  1  0
  9 10  1  0
  9 11  1  0
 11 12  1  0
 11 13  2  0
 12 14  1  0
 13 15  1  0
 14 15  2  0
M  END
