x1015_0_A-x0962_1_A
     RDKit          3D

 24 26  0  0  0  0  0  0  0  0999 V2000
   -0.9610   14.2520   -4.7290 C   0  0  0  0  0  0  0  0  0  0  0  0
    0.2270   13.5790   -4.0360 C   0  0  2  0  0  0  0  0  0  0  0  0
    0.0890   12.1230   -4.0000 N   0  0  0  0  0  0  0  0  0  0  0  0
    0.1200   13.8270   -2.5540 C   0  0  0  0  0  0  0  0  0  0  0  0
   -0.2190   14.8590   -1.9100 N   0  0  0  0  0  0  0  0  0  0  0  0
    0.2430   11.6350   -2.6870 C   0  0  0  0  0  0  0  0  0  0  0  0
    0.4430   12.7070   -1.8800 N   0  0  0  0  0  0  0  0  0  0  0  0
   -0.3840   11.3640   -5.0960 C   0  0  0  0  0  0  0  0  0  0  0  0
    0.2170   10.4760   -2.2750 O   0  0  0  0  0  0  0  0  0  0  0  0
   -0.2940   14.8100   -0.4600 C   0  0  0  0  0  0  0  0  0  0  0  0
    0.1290   11.5700   -6.3860 C   0  0  0  0  0  0  0  0  0  0  0  0
   -1.3710   10.3830   -4.9310 C   0  0  0  0  0  0  0  0  0  0  0  0
   -1.3070   15.8710   -0.0640 C   0  0  0  0  0  0  0  0  0  0  0  0
   -0.3290   10.8200   -7.4710 C   0  0  0  0  0  0  0  0  0  0  0  0
   -1.8320    9.6290   -6.0130 C   0  0  0  0  0  0  0  0  0  0  0  0
   -2.7430   15.4920   -0.1690 C   0  0  0  0  0  0  0  0  0  0  0  0
   -1.3080    9.8500   -7.2800 C   0  0  0  0  0  0  0  0  0  0  0  0
   -1.8720    8.9230   -8.6110 Cl  0  0  0  0  0  0  0  0  0  0  0  0
   -3.9180   15.2330   -0.0900 C   0  0  0  0  0  0  0  0  0  0  0  0
   -5.2780   14.9570    0.1980 C   0  0  0  0  0  0  0  0  0  0  0  0
   -5.7210   14.5950    1.4410 N   0  0  0  0  0  0  0  0  0  0  0  0
   -6.4200   14.9720   -0.5790 C   0  0  0  0  0  0  0  0  0  0  0  0
   -7.0610   14.4110    1.3840 C   0  0  0  0  0  0  0  0  0  0  0  0
   -7.5230   14.6300    0.1760 N   0  0  0  0  0  0  0  0  0  0  0  0
  2  1  1  6
  2  3  1  0
  2  4  1  0
  4  5  2  3
  3  6  1  0
  4  7  1  0
  6  7  1  0
  3  8  1  0
  6  9  2  0
  5 10  1  0
  8 11  2  0
  8 12  1  0
 10 13  1  0
 11 14  1  0
 12 15  2  0
 13 16  1  0
 14 17  2  0
 15 17  1  0
 17 18  1  0
 16 19  3  0
 19 20  1  0
 20 21  1  0
 20 22  2  0
 21 23  1  0
 22 24  1  0
 23 24  2  0
M  END
