x1015_0_A-x0591_0_A
     RDKit          3D

 28 30  0  0  0  0  0  0  0  0999 V2000
   -1.7150   14.5490   -4.6310 S   0  0  0  0  0  0  0  0  0  0  0  0
   -0.7100   15.9010   -4.5340 N   0  0  0  0  0  0  0  0  0  0  0  0
   -2.6740   15.4200   -5.3030 O   0  0  0  0  0  0  0  0  0  0  0  0
   -1.8950   13.6850   -5.7980 O   0  0  0  0  0  0  0  0  0  0  0  0
   -0.4940   13.7100   -3.9440 C   0  0  2  0  0  0  0  0  0  0  0  0
   -2.9560   14.5550   -3.2880 C   0  0  0  0  0  0  0  0  0  0  0  0
   -0.4050   12.2660   -3.9690 N   0  0  0  0  0  0  0  0  0  0  0  0
    0.0160   14.0520   -2.5620 C   0  0  0  0  0  0  0  0  0  0  0  0
   -2.7370   14.1930   -2.0200 C   0  0  0  0  0  0  0  0  0  0  0  0
   -4.1880   14.9760   -3.6730 C   0  0  0  0  0  0  0  0  0  0  0  0
    0.1060   15.2080   -2.0350 O   0  0  0  0  0  0  0  0  0  0  0  0
    0.0910   11.7700   -2.6930 C   0  0  0  0  0  0  0  0  0  0  0  0
    0.4430   12.8820   -1.8700 N   0  0  0  0  0  0  0  0  0  0  0  0
   -0.6770   11.3960   -5.0380 C   0  0  0  0  0  0  0  0  0  0  0  0
   -3.7670   14.2500   -1.0920 C   0  0  0  0  0  0  0  0  0  0  0  0
   -5.2170   15.0330   -2.7480 C   0  0  0  0  0  0  0  0  0  0  0  0
    0.2060   10.5530   -2.3420 O   0  0  0  0  0  0  0  0  0  0  0  0
   -0.0560   11.5620   -6.2830 C   0  0  0  0  0  0  0  0  0  0  0  0
   -1.5570   10.3500   -4.9480 C   0  0  0  0  0  0  0  0  0  0  0  0
   -5.0390   14.6750   -1.4370 C   0  0  0  0  0  0  0  0  0  0  0  0
   -6.0950   14.7240   -0.4520 C   0  0  0  0  0  0  0  0  0  0  0  0
   -0.3300   10.7250   -7.3310 C   0  0  0  0  0  0  0  0  0  0  0  0
   -1.8390    9.5110   -5.9770 C   0  0  0  0  0  0  0  0  0  0  0  0
   -5.7790   14.5780    0.9530 N   0  0  0  0  0  0  0  0  0  0  0  0
   -7.3100   14.8800   -0.7120 O   0  0  0  0  0  0  0  0  0  0  0  0
   -1.2250    9.6870   -7.2020 C   0  0  0  0  0  0  0  0  0  0  0  0
   -1.5900    8.6110   -8.5450 Cl  0  0  0  0  0  0  0  0  0  0  0  0
   -6.8100   14.4900    1.9580 C   0  0  0  0  0  0  0  0  0  0  0  0
  1  2  1  0
  1  3  2  0
  1  4  1  0
  5  1  1  1
  1  6  1  0
  5  7  1  0
  5  8  1  0
  6  9  2  0
  6 10  1  0
  8 11  2  0
  7 12  1  0
  8 13  1  0
 12 13  1  0
  7 14  1  0
  9 15  1  0
 10 16  2  0
 12 17  2  0
 14 18  2  0
 14 19  1  0
 15 20  2  0
 16 20  1  0
 20 21  1  0
 18 22  1  0
 19 23  2  0
 21 24  1  0
 21 25  2  0
 22 26  2  0
 23 26  1  0
 26 27  1  0
 24 28  1  0
M  END
