x1018_0_A_α-x0962_0_A_α
     RDKit          3D

 12 13  0  0  0  0  0  0  0  0999 V2000
   -8.0580   14.6220    1.1900 Cl  0  0  0  0  0  0  0  0  0  0  0  0
   -6.5540   14.7120    0.3320 C   0  0  0  0  0  0  0  0  0  0  0  0
   -5.2610   14.8390    1.0830 C   0  0  0  0  0  0  0  0  0  0  0  0
   -6.6640   14.6570   -0.9560 N   0  0  0  0  0  0  0  0  0  0  0  0
   -5.4660   14.7160   -1.5730 N   0  0  0  0  0  0  0  0  0  0  0  0
   -4.1430   14.8690    0.3240 C   0  0  0  0  0  0  0  0  0  0  0  0
   -2.7940   14.9570    0.6650 C   0  0  0  0  0  0  0  0  0  0  0  0
   -5.3020   14.6820   -2.8970 N   0  0  0  0  0  0  0  0  0  0  0  0
   -4.2430   14.8130   -1.0160 C   0  0  0  0  0  0  0  0  0  0  0  0
   -1.6460   14.9930    0.7270 N   0  0  0  0  0  0  0  0  0  0  0  0
   -3.3170   14.8430   -1.9300 N   0  0  0  0  0  0  0  0  0  0  0  0
   -3.9910   14.7630   -3.1070 N   0  0  0  0  0  0  0  0  0  0  0  0
  1  2  1  0
  2  3  1  0
  2  4  2  0
  4  5  1  0
  3  6  2  0
  6  7  1  0
  5  8  1  0
  5  9  1  0
  6  9  1  0
  7 10  3  0
  9 11  2  0
  8 12  2  0
 11 12  1  0
M  END
