x1015_0_A-x0855_0_A
     RDKit          3D

 18 20  0  0  0  0  0  0  0  0999 V2000
   -1.8940   14.6190   -4.1990 C   0  0  0  0  0  0  0  0  0  0  0  0
   -0.6690   13.8100   -3.8130 C   0  0  2  0  0  0  0  0  0  0  0  0
   -0.9550   12.3550   -3.7190 N   0  0  0  0  0  0  0  0  0  0  0  0
   -0.2620   14.1330   -2.3830 C   0  0  0  0  0  0  0  0  0  0  0  0
    0.1620   15.1840   -1.9280 O   0  0  0  0  0  0  0  0  0  0  0  0
   -0.2240   11.9110   -2.5840 C   0  0  2  0  0  0  0  0  0  0  0  0
   -0.4640   12.9710   -1.6950 N   0  0  0  0  0  0  0  0  0  0  0  0
   -1.0260   11.5670   -4.8170 C   0  0  0  0  0  0  0  0  0  0  0  0
    1.1740   12.0430   -2.7070 N   0  0  0  0  0  0  0  0  0  0  0  0
    0.0400   11.5880   -5.6820 C   0  0  0  0  0  0  0  0  0  0  0  0
   -2.1190   10.7380   -5.1130 C   0  0  0  0  0  0  0  0  0  0  0  0
    1.2030   12.4830   -5.2990 C   0  0  0  0  0  0  0  0  0  0  0  0
    1.7030   12.3060   -3.8550 C   0  0  0  0  0  0  0  0  0  0  0  0
    0.0260   10.7950   -6.8640 C   0  0  0  0  0  0  0  0  0  0  0  0
   -2.1510    9.9480   -6.2600 C   0  0  0  0  0  0  0  0  0  0  0  0
    3.0130   12.4560   -3.7210 O   0  0  0  0  0  0  0  0  0  0  0  0
   -1.0820    9.9770   -7.1380 C   0  0  0  0  0  0  0  0  0  0  0  0
   -1.1490    8.9980   -8.5510 Cl  0  0  0  0  0  0  0  0  0  0  0  0
  2  1  1  1
  2  3  1  0
  2  4  1  0
  4  5  2  0
  3  6  1  0
  4  7  1  0
  6  7  1  1
  3  8  1  0
  6  9  1  0
  8 10  2  0
  8 11  1  0
 10 12  1  0
  9 13  2  0
 12 13  1  0
 10 14  1  0
 11 15  2  0
 13 16  1  0
 14 17  2  0
 15 17  1  0
 17 18  1  0
M  END
