x1018_0_A_α-x0104_0_A_β
     RDKit          3D

 13 14  0  0  0  0  0  0  0  0999 V2000
   -8.3910   14.8150    0.1250 Cl  0  0  0  0  0  0  0  0  0  0  0  0
   -6.6650   14.7540    0.1520 C   0  0  0  0  0  0  0  0  0  0  0  0
   -6.0050   14.6940    1.3410 C   0  0  0  0  0  0  0  0  0  0  0  0
   -5.9660   14.7900   -1.0750 N   0  0  0  0  0  0  0  0  0  0  0  0
   -6.6340   14.7020    2.5720 N   0  0  0  0  0  0  0  0  0  0  0  0
   -6.1260   13.8680   -2.1090 O   0  0  0  0  0  0  0  0  0  0  0  0
   -4.7030   15.2390   -0.9630 N   0  0  0  0  0  0  0  0  0  0  0  0
   -4.5270   14.6200    1.2820 C   0  0  0  0  0  0  0  0  0  0  0  0
   -5.0260   14.0580   -3.0160 C   0  0  0  0  0  0  0  0  0  0  0  0
   -3.8970   15.4980   -2.0290 N   0  0  0  0  0  0  0  0  0  0  0  0
   -3.9460   14.8870    0.1040 C   0  0  0  0  0  0  0  0  0  0  0  0
   -2.6830   14.9050   -0.3740 N   0  0  0  0  0  0  0  0  0  0  0  0
   -2.7770   14.9390   -1.7580 N   0  0  0  0  0  0  0  0  0  0  0  0
  1  2  1  0
  2  3  2  0
  2  4  1  0
  3  5  1  0
  4  6  1  0
  4  7  1  0
  3  8  1  0
  6  9  1  0
  7 10  1  0
  7 11  1  0
  8 11  2  0
 11 12  1  0
 10 13  2  0
 12 13  1  0
M  END
