x1012_0_A-x0290_0_A
     RDKit          3D

 25 26  0  0  0  0  0  0  0  0999 V2000
   -0.4280   18.3570   -4.9530 N   0  0  0  0  0  0  0  0  0  0  0  0
   -1.2410   17.2880   -4.8750 C   0  0  0  0  0  0  0  0  0  0  0  0
   -2.4380   17.4690   -4.7220 O   0  0  0  0  0  0  0  0  0  0  0  0
   -0.6510   16.0540   -4.9530 N   0  0  0  0  0  0  0  0  0  0  0  0
   -1.5090   14.9790   -4.4850 C   0  0  0  0  0  0  0  0  0  0  0  0
    0.8300   15.8820   -4.8670 C   0  0  0  0  0  0  0  0  0  0  0  0
   -0.8430   14.3770   -3.2750 C   0  0  1  0  0  0  0  0  0  0  0  0
    1.3930   14.5840   -4.2310 C   0  0  0  0  0  0  0  0  0  0  0  0
   -1.7520   13.5580   -2.3890 C   0  0  0  0  0  0  0  0  0  0  0  0
    0.3240   13.5790   -3.7990 C   0  0  1  0  0  0  0  0  0  0  0  0
    0.7760   12.5890   -2.7420 C   0  0  0  0  0  0  0  0  0  0  0  0
   -1.6960   13.9940   -0.9520 C   0  0  0  0  0  0  0  0  0  0  0  0
    0.2960   11.3380   -2.8930 O   0  0  0  0  0  0  0  0  0  0  0  0
    1.4990   12.8500   -1.8110 O   0  0  0  0  0  0  0  0  0  0  0  0
   -0.5310   14.1570   -0.1980 C   0  0  0  0  0  0  0  0  0  0  0  0
   -2.9140   14.2340   -0.3550 C   0  0  0  0  0  0  0  0  0  0  0  0
   -0.6740   14.5500    1.1230 C   0  0  0  0  0  0  0  0  0  0  0  0
   -2.9820   14.6170    0.9460 C   0  0  0  0  0  0  0  0  0  0  0  0
   -4.2170   14.8440    1.5260 N   0  0  0  0  0  0  0  0  0  0  0  0
   -1.8760   14.7810    1.7130 N   0  0  0  0  0  0  0  0  0  0  0  0
   -5.4410   14.6130    0.9850 C   0  0  0  0  0  0  0  0  0  0  0  0
   -5.5700   14.7230   -0.2400 O   0  0  0  0  0  0  0  0  0  0  0  0
   -6.6520   14.1990    1.8220 C   0  0  0  0  0  0  0  0  0  0  0  0
   -7.7790   13.8580    0.9380 N   0  0  0  0  0  0  0  0  0  0  0  0
   -8.6510   15.0050    0.7310 C   0  0  0  0  0  0  0  0  0  0  0  0
  1  2  1  0
  2  3  2  0
  2  4  1  0
  4  5  1  0
  4  6  1  0
  5  7  1  0
  6  8  1  0
  7  9  1  6
  7 10  1  0
  8 10  1  0
 10 11  1  1
  9 12  1  0
 11 13  1  0
 11 14  2  0
 12 15  2  0
 12 16  1  0
 15 17  1  0
 16 18  2  0
 18 19  1  0
 17 20  2  0
 18 20  1  0
 19 21  1  0
 21 22  2  0
 21 23  1  0
 23 24  1  0
 24 25  1  0
M  END
