x1015_0_A_α-x0128_0_A_α
     RDKit          3D

 34 37  0  0  0  0  0  0  0  0999 V2000
   -1.1400   14.3300   -4.4960 C   0  0  0  0  0  0  0  0  0  0  0  0
    0.1000   13.6510   -3.9200 C   0  0  2  0  0  0  0  0  0  0  0  0
    0.0330   12.1870   -3.9450 N   0  0  0  0  0  0  0  0  0  0  0  0
    0.0970   13.8410   -2.4140 C   0  0  0  0  0  0  0  0  0  0  0  0
   -0.2650   14.9180   -1.8260 N   0  0  0  0  0  0  0  0  0  0  0  0
    0.2660   11.6590   -2.6640 C   0  0  0  0  0  0  0  0  0  0  0  0
    0.5130   12.7010   -1.8300 N   0  0  0  0  0  0  0  0  0  0  0  0
   -0.4110   11.4250   -5.0550 C   0  0  0  0  0  0  0  0  0  0  0  0
    0.2660   10.4870   -2.2890 O   0  0  0  0  0  0  0  0  0  0  0  0
   -0.2870   14.9610   -0.3610 C   0  0  0  0  0  0  0  0  0  0  0  0
    0.1210   11.6320   -6.3400 C   0  0  0  0  0  0  0  0  0  0  0  0
   -1.3920   10.4340   -4.9070 C   0  0  0  0  0  0  0  0  0  0  0  0
   -1.6800   14.5220    0.1130 C   0  0  0  0  0  0  0  0  0  0  0  0
   -0.3140   10.8740   -7.4310 C   0  0  0  0  0  0  0  0  0  0  0  0
   -1.8290    9.6740   -5.9940 C   0  0  0  0  0  0  0  0  0  0  0  0
   -2.6500   15.7020    0.0260 C   0  0  0  0  0  0  0  0  0  0  0  0
   -1.2890    9.8950   -7.2530 C   0  0  0  0  0  0  0  0  0  0  0  0
   -1.8260    8.9580   -8.5890 Cl  0  0  0  0  0  0  0  0  0  0  0  0
   -4.1150   15.3490   -0.0260 C   0  0  0  0  0  0  0  0  0  0  0  0
   -4.8280   15.2680   -1.2300 C   0  0  0  0  0  0  0  0  0  0  0  0
   -4.7900   15.1030    1.1720 C   0  0  0  0  0  0  0  0  0  0  0  0
   -6.1860   14.9450   -1.2170 C   0  0  0  0  0  0  0  0  0  0  0  0
   -6.1510   14.7780    1.1970 C   0  0  0  0  0  0  0  0  0  0  0  0
   -6.7070   14.5560    2.4760 N   0  0  0  0  0  0  0  0  0  0  0  0
   -6.8490   14.6990   -0.0080 C   0  0  0  0  0  0  0  0  0  0  0  0
   -7.8010   15.1730    3.0640 C   0  0  0  0  0  0  0  0  0  0  0  0
   -8.8330   15.4720    2.4740 O   0  0  0  0  0  0  0  0  0  0  0  0
   -7.5750   15.4210    4.4200 N   0  0  0  0  0  0  0  0  0  0  0  0
   -8.4260   16.1650    5.2720 C   0  0  0  0  0  0  0  0  0  0  0  0
   -9.1440   17.2960    4.8900 C   0  0  0  0  0  0  0  0  0  0  0  0
   -8.5700   15.7490    6.6000 C   0  0  0  0  0  0  0  0  0  0  0  0
   -9.9610   18.0030    5.7130 N   0  0  0  0  0  0  0  0  0  0  0  0
   -9.4040   16.4620    7.4680 C   0  0  0  0  0  0  0  0  0  0  0  0
  -10.0700   17.5730    6.9790 C   0  0  0  0  0  0  0  0  0  0  0  0
  2  1  1  6
  2  3  1  0
  2  4  1  0
  4  5  2  3
  3  6  1  0
  4  7  1  0
  6  7  1  0
  3  8  1  0
  6  9  2  0
  5 10  1  0
  8 11  2  0
  8 12  1  0
 10 13  1  0
 11 14  1  0
 12 15  2  0
 13 16  1  0
 14 17  2  0
 15 17  1  0
 17 18  1  0
 16 19  1  0
 19 20  2  0
 19 21  1  0
 20 22  1  0
 21 23  2  0
 23 24  1  0
 22 25  2  0
 23 25  1  0
 24 26  1  0
 26 27  2  0
 26 28  1  0
 28 29  1  0
 29 30  2  0
 29 31  1  0
 30 32  1  0
 31 33  2  0
 32 34  2  0
 33 34  1  0
M  END
