x1012_0_A-x0837_0_A
     RDKit          3D

 20 21  0  0  0  0  0  0  0  0999 V2000
   -0.1600   18.2880   -4.9630 N   0  0  0  0  0  0  0  0  0  0  0  0
   -1.1540   17.2770   -4.8360 C   0  0  0  0  0  0  0  0  0  0  0  0
   -2.3600   17.5900   -4.7190 O   0  0  0  0  0  0  0  0  0  0  0  0
   -0.7260   15.9280   -4.8280 N   0  0  0  0  0  0  0  0  0  0  0  0
   -1.7440   14.9740   -4.4710 C   0  0  0  0  0  0  0  0  0  0  0  0
    0.6950   15.5750   -4.7460 C   0  0  0  0  0  0  0  0  0  0  0  0
   -1.3330   14.3710   -3.1660 C   0  0  1  0  0  0  0  0  0  0  0  0
    1.0140   14.4130   -3.8150 C   0  0  0  0  0  0  0  0  0  0  0  0
   -3.0180   13.5640   -2.2020 I   0  0  0  0  0  0  0  0  0  0  0  0
   -0.1520   13.5230   -3.5170 C   0  0  1  0  0  0  0  0  0  0  0  0
    0.1760   12.5550   -2.4230 C   0  0  0  0  0  0  0  0  0  0  0  0
   -4.0130   15.1350   -1.1040 C   0  0  2  0  0  0  0  0  0  0  0  0
    0.2640   11.2100   -2.7510 O   0  0  0  0  0  0  0  0  0  0  0  0
    0.3840   12.8590   -1.2210 O   0  0  0  0  0  0  0  0  0  0  0  0
   -3.5030   15.2480    0.2680 C   0  0  0  0  0  0  0  0  0  0  0  0
   -5.4930   15.0170   -1.2220 C   0  0  0  0  0  0  0  0  0  0  0  0
   -4.2040   15.1350    1.3620 C   0  0  0  0  0  0  0  0  0  0  0  0
   -6.2200   14.8450    0.0560 C   0  0  0  0  0  0  0  0  0  0  0  0
   -7.4630   14.6740    0.0140 O   0  0  0  0  0  0  0  0  0  0  0  0
   -5.5950   14.8670    1.3300 N   0  0  0  0  0  0  0  0  0  0  0  0
  1  2  1  0
  2  3  2  0
  2  4  1  0
  4  5  1  0
  4  6  1  0
  5  7  1  0
  6  8  1  0
  7  9  1  6
  7 10  1  0
  8 10  1  0
 10 11  1  1
 12  9  1  1
 11 13  1  0
 11 14  2  0
 12 15  1  0
 12 16  1  0
 15 17  2  0
 16 18  1  0
 18 19  2  0
 17 20  1  0
 18 20  1  0
M  END
