x1012_0_A_α-x0421_0_A_α
     RDKit          3D

 23 25  0  0  0  0  0  0  0  0999 V2000
   -0.2010   18.2550   -4.7540 N   0  0  0  0  0  0  0  0  0  0  0  0
   -1.1670   17.3150   -4.7970 C   0  0  0  0  0  0  0  0  0  0  0  0
   -2.3290   17.6970   -4.8560 O   0  0  0  0  0  0  0  0  0  0  0  0
   -0.7740   15.9970   -4.7530 N   0  0  0  0  0  0  0  0  0  0  0  0
   -1.7240   14.8930   -4.6100 C   0  0  0  0  0  0  0  0  0  0  0  0
    0.6470   15.6980   -4.6010 C   0  0  0  0  0  0  0  0  0  0  0  0
   -1.3870   13.8050   -3.5650 C   0  0  2  0  0  0  0  0  0  0  0  0
    0.9470   14.8010   -3.4070 C   0  0  0  0  0  0  0  0  0  0  0  0
   -1.9340   14.0730   -2.2090 N   0  0  0  0  0  0  0  0  0  0  0  0
    0.1250   13.5080   -3.4890 C   0  0  1  0  0  0  0  0  0  0  0  0
    0.3500   12.5080   -2.3720 C   0  0  0  0  0  0  0  0  0  0  0  0
   -3.0380   14.7050   -1.9860 C   0  0  0  0  0  0  0  0  0  0  0  0
    0.3740   11.2180   -2.7560 O   0  0  0  0  0  0  0  0  0  0  0  0
    0.4980   12.7840   -1.1910 O   0  0  0  0  0  0  0  0  0  0  0  0
   -3.8910   15.2890   -2.8790 N   0  0  0  0  0  0  0  0  0  0  0  0
   -3.5270   14.7930   -0.5920 C   0  0  0  0  0  0  0  0  0  0  0  0
   -2.8430   14.9770    0.6080 C   0  0  0  0  0  0  0  0  0  0  0  0
   -4.8800   14.6700   -0.3220 N   0  0  0  0  0  0  0  0  0  0  0  0
   -3.8120   14.9460    1.5860 N   0  0  0  0  0  0  0  0  0  0  0  0
   -5.0090   14.7590    0.9720 C   0  0  0  0  0  0  0  0  0  0  0  0
   -6.3600   14.6560    1.7280 C   0  0  0  0  0  0  0  0  0  0  0  0
   -7.6550   14.6460    0.9590 C   0  0  0  0  0  0  0  0  0  0  0  0
   -7.1450   13.3800    1.5840 C   0  0  0  0  0  0  0  0  0  0  0  0
  1  2  1  0
  2  3  2  0
  2  4  1  0
  4  5  1  0
  4  6  1  0
  5  7  1  0
  6  8  1  0
  7  9  1  1
  7 10  1  0
  8 10  1  0
 10 11  1  1
  9 12  2  3
 11 13  1  0
 11 14  2  0
 12 15  1  0
 12 16  1  0
 16 17  2  0
 16 18  1  0
 17 19  1  0
 18 20  2  0
 19 20  1  0
 20 21  1  0
 21 22  1  0
 21 23  1  0
 22 23  1  0
M  END
