x1012_0_A-x0711_0_A
     RDKit          3D

 25 26  0  0  0  0  0  0  0  0999 V2000
   -0.4890   18.4430   -4.9440 N   0  0  0  0  0  0  0  0  0  0  0  0
   -1.1910   17.2300   -4.8460 C   0  0  0  0  0  0  0  0  0  0  0  0
   -2.4440   17.3320   -4.6730 O   0  0  0  0  0  0  0  0  0  0  0  0
   -0.5680   15.9710   -4.9090 N   0  0  0  0  0  0  0  0  0  0  0  0
   -1.3080   14.7190   -4.8800 C   0  0  0  0  0  0  0  0  0  0  0  0
    0.8530   15.9090   -4.7550 C   0  0  0  0  0  0  0  0  0  0  0  0
   -0.3000   13.5760   -5.0140 C   0  0  0  0  0  0  0  0  0  0  0  0
    1.3010   14.9400   -3.6590 C   0  0  0  0  0  0  0  0  0  0  0  0
    0.8210   13.5540   -4.0060 C   0  0  0  0  0  0  0  0  0  0  0  0
    0.3820   12.7500   -2.7620 C   0  0  0  0  0  0  0  0  0  0  0  0
    0.8360   11.4530   -2.9650 O   0  0  0  0  0  0  0  0  0  0  0  0
    1.1950   13.2300   -1.6870 O   0  0  0  0  0  0  0  0  0  0  0  0
   -1.1400   13.1170   -2.5620 S   0  0  0  0  0  0  0  0  0  0  0  0
   -1.5280   14.7930   -1.9770 N   0  0  0  0  0  0  0  0  0  0  0  0
   -2.3840   12.5340   -3.4810 C   0  0  0  0  0  0  0  0  0  0  0  0
   -0.7670   14.2490   -3.8500 O   0  0  0  0  0  0  0  0  0  0  0  0
   -2.8050   14.8260   -1.5050 C   0  0  0  0  0  0  0  0  0  0  0  0
   -3.9420   15.1690   -2.1890 C   0  0  0  0  0  0  0  0  0  0  0  0
   -2.9590   14.4560   -0.1830 C   0  0  0  0  0  0  0  0  0  0  0  0
   -5.1710   15.1340   -1.5740 C   0  0  0  0  0  0  0  0  0  0  0  0
   -4.1750   14.4160    0.4380 C   0  0  0  0  0  0  0  0  0  0  0  0
   -5.3100   14.7540   -0.2570 C   0  0  0  0  0  0  0  0  0  0  0  0
   -6.6160   14.6950    0.4200 C   0  0  0  0  0  0  0  0  0  0  0  0
   -6.6410   14.6470    1.8600 N   0  0  0  0  0  0  0  0  0  0  0  0
   -7.6750   14.6860   -0.2330 O   0  0  0  0  0  0  0  0  0  0  0  0
  1  2  1  0
  2  3  2  0
  2  4  1  0
  4  5  1  0
  4  6  1  0
  5  7  1  0
  6  8  1  0
  7  9  1  0
  8  9  1  0
  9 10  1  0
 10 11  1  0
 10 12  1  0
 10 13  1  0
 13 14  1  0
 13 15  1  0
 13 16  2  0
 14 17  1  0
 17 18  2  0
 17 19  1  0
 18 20  1  0
 19 21  2  0
 20 22  2  0
 21 22  1  0
 22 23  1  0
 23 24  1  0
 23 25  2  0
M  END
