x1015_0_A-x0676_0_B
     RDKit          3D

 30 33  0  0  0  0  0  0  0  0999 V2000
   -1.3090   14.4340   -4.2560 C   0  0  0  0  0  0  0  0  0  0  0  0
   -0.0150   13.6810   -3.9640 C   0  0  2  0  0  0  0  0  0  0  0  0
   -0.1730   12.2300   -3.9070 N   0  0  0  0  0  0  0  0  0  0  0  0
    0.3900   13.9610   -2.5230 C   0  0  0  0  0  0  0  0  0  0  0  0
    0.4730   15.0550   -1.9890 O   0  0  0  0  0  0  0  0  0  0  0  0
    0.2490   11.7290   -2.6630 C   0  0  0  0  0  0  0  0  0  0  0  0
    0.6560   12.7860   -1.9060 N   0  0  0  0  0  0  0  0  0  0  0  0
   -0.5230   11.4380   -5.0310 C   0  0  0  0  0  0  0  0  0  0  0  0
    0.2770   10.5640   -2.2590 O   0  0  0  0  0  0  0  0  0  0  0  0
    0.0680   11.6570   -6.2850 C   0  0  0  0  0  0  0  0  0  0  0  0
   -1.4690   10.4120   -4.9360 C   0  0  0  0  0  0  0  0  0  0  0  0
   -0.2740   10.8800   -7.3930 C   0  0  0  0  0  0  0  0  0  0  0  0
   -1.8140    9.6320   -6.0440 C   0  0  0  0  0  0  0  0  0  0  0  0
   -1.2200    9.8560   -7.2900 C   0  0  0  0  0  0  0  0  0  0  0  0
   -1.5960    9.0070   -8.4770 C   0  0  0  0  0  0  0  0  0  0  0  0
   -0.6620    9.0780   -9.7020 C   0  0  0  0  0  0  0  0  0  0  0  0
    0.6690    8.3340   -9.5180 C   0  0  0  0  0  0  0  0  0  0  0  0
    1.5460    8.5920  -10.6580 N   0  0  0  0  0  0  0  0  0  0  0  0
    2.7020    8.0460  -10.7410 C   0  0  0  0  0  0  0  0  0  0  0  0
    3.2690    7.1010   -9.7130 C   0  0  0  0  0  0  0  0  0  0  0  0
    3.6920    8.1570  -11.7190 N   0  0  0  0  0  0  0  0  0  0  0  0
    4.9350    7.7250  -11.2370 N   0  0  0  0  0  0  0  0  0  0  0  0
    4.7150    7.1520  -10.0930 C   0  0  0  0  0  0  0  0  0  0  0  0
    3.7650    9.1880  -12.7160 C   0  0  0  0  0  0  0  0  0  0  0  0
    5.7830    6.5900   -9.2200 C   0  0  0  0  0  0  0  0  0  0  0  0
    2.8680   10.2850  -12.7170 C   0  0  0  0  0  0  0  0  0  0  0  0
    4.7220    9.1760  -13.7380 C   0  0  0  0  0  0  0  0  0  0  0  0
    2.9340   11.3040  -13.6790 C   0  0  0  0  0  0  0  0  0  0  0  0
    4.7910   10.1910  -14.7040 C   0  0  0  0  0  0  0  0  0  0  0  0
    3.8990   11.2540  -14.6740 C   0  0  0  0  0  0  0  0  0  0  0  0
  2  1  1  1
  2  3  1  0
  2  4  1  0
  4  5  2  0
  3  6  1  0
  4  7  1  0
  6  7  1  0
  3  8  1  0
  6  9  2  0
  8 10  2  0
  8 11  1  0
 10 12  1  0
 11 13  2  0
 12 14  2  0
 13 14  1  0
 14 15  1  0
 15 16  1  0
 16 17  1  0
 17 18  1  0
 18 19  2  3
 19 20  1  0
 19 21  1  0
 21 22  1  0
 20 23  1  0
 22 23  2  0
 21 24  1  0
 23 25  1  0
 24 26  2  0
 24 27  1  0
 26 28  1  0
 27 29  2  0
 28 30  2  0
 29 30  1  0
M  END
