x1015_0_A-x0685_0_A
     RDKit          3D

 28 30  0  0  0  0  0  0  0  0999 V2000
   -1.3400   13.9580   -4.7210 C   0  0  0  0  0  0  0  0  0  0  0  0
    0.0370   13.5680   -4.1900 C   0  0  2  0  0  0  0  0  0  0  0  0
    0.1200   12.1290   -4.0370 N   0  0  0  0  0  0  0  0  0  0  0  0
    0.2040   14.0100   -2.7550 C   0  0  0  0  0  0  0  0  0  0  0  0
    0.1820   15.1960   -2.2710 N   0  0  0  0  0  0  0  0  0  0  0  0
    0.2450   11.7680   -2.6830 C   0  0  0  0  0  0  0  0  0  0  0  0
    0.4010   12.9260   -1.9630 N   0  0  0  0  0  0  0  0  0  0  0  0
   -0.3590   11.3190   -5.0900 C   0  0  0  0  0  0  0  0  0  0  0  0
    0.2310   10.6430   -2.1740 O   0  0  0  0  0  0  0  0  0  0  0  0
   -0.0240   16.3250   -3.1980 C   0  0  0  0  0  0  0  0  0  0  0  0
    0.1300   11.4940   -6.3870 C   0  0  0  0  0  0  0  0  0  0  0  0
   -1.3320   10.3280   -4.8760 C   0  0  0  0  0  0  0  0  0  0  0  0
   -1.4280   16.2900   -3.8330 C   0  0  0  0  0  0  0  0  0  0  0  0
   -0.3300   10.7100   -7.4480 C   0  0  0  0  0  0  0  0  0  0  0  0
   -1.7960    9.5390   -5.9340 C   0  0  0  0  0  0  0  0  0  0  0  0
   -2.4560   15.7930   -2.9040 C   0  0  0  0  0  0  0  0  0  0  0  0
   -1.2920    9.7360   -7.2150 C   0  0  0  0  0  0  0  0  0  0  0  0
   -1.8610    8.7710   -8.5160 Cl  0  0  0  0  0  0  0  0  0  0  0  0
   -3.2170   15.4920   -2.0370 C   0  0  0  0  0  0  0  0  0  0  0  0
   -4.0230   15.3060   -0.8870 C   0  0  0  0  0  0  0  0  0  0  0  0
   -3.4200   15.3900    0.3570 C   0  0  0  0  0  0  0  0  0  0  0  0
   -5.3810   15.0580   -0.9440 C   0  0  0  0  0  0  0  0  0  0  0  0
   -4.1980   15.2390    1.4910 C   0  0  0  0  0  0  0  0  0  0  0  0
   -6.1580   14.9030    0.1530 N   0  0  0  0  0  0  0  0  0  0  0  0
   -5.5620   15.0050    1.3600 C   0  0  0  0  0  0  0  0  0  0  0  0
   -6.3110   14.8950    2.5330 N   0  0  0  0  0  0  0  0  0  0  0  0
   -7.7480   14.7040    2.4490 C   0  0  0  0  0  0  0  0  0  0  0  0
   -8.1380   13.3420    2.9980 C   0  0  0  0  0  0  0  0  0  0  0  0
  2  1  1  1
  2  3  1  0
  2  4  1  0
  4  5  2  3
  3  6  1  0
  4  7  1  0
  6  7  1  0
  3  8  1  0
  6  9  2  0
  5 10  1  0
  8 11  2  0
  8 12  1  0
 10 13  1  0
 11 14  1  0
 12 15  2  0
 13 16  1  0
 14 17  2  0
 15 17  1  0
 17 18  1  0
 16 19  3  0
 19 20  1  0
 20 21  2  0
 20 22  1  0
 21 23  1  0
 22 24  2  0
 23 25  2  0
 24 25  1  0
 25 26  1  0
 26 27  1  0
 27 28  1  0
M  END
