x1018_0_A-x0104_0_A
     RDKit          3D

 20 23  0  0  0  0  0  0  0  0999 V2000
   -8.0290   14.6700    1.2440 N   0  0  0  0  0  0  0  0  0  0  0  0
   -7.8760   15.0280    2.6810 C   0  0  2  0  0  0  0  0  0  0  0  0
   -6.4440   14.9620    2.8460 N   0  0  0  0  0  0  0  0  0  0  0  0
   -6.7310   14.6700    0.6220 C   0  0  0  0  0  0  0  0  0  0  0  0
   -8.4970   14.2410    3.7170 N   0  0  0  0  0  0  0  0  0  0  0  0
   -6.2220   14.6000   -0.7210 N   0  0  0  0  0  0  0  0  0  0  0  0
   -5.8160   14.8020    1.6200 C   0  0  0  0  0  0  0  0  0  0  0  0
   -6.2290   13.4350   -1.4940 O   0  0  0  0  0  0  0  0  0  0  0  0
   -5.0220   15.2520   -0.8550 N   0  0  0  0  0  0  0  0  0  0  0  0
   -4.3850   14.7850    1.3480 C   0  0  0  0  0  0  0  0  0  0  0  0
   -9.3200   14.6240    4.7570 C   0  0  0  0  0  0  0  0  0  0  0  0
   -5.1060   13.5060   -2.3950 C   0  0  0  0  0  0  0  0  0  0  0  0
   -4.4150   15.4680   -2.0760 N   0  0  0  0  0  0  0  0  0  0  0  0
   -4.0510   15.0010    0.0710 C   0  0  0  0  0  0  0  0  0  0  0  0
   -9.0690   14.9490    6.0890 C   0  0  0  0  0  0  0  0  0  0  0  0
  -11.0090   14.7410    4.4450 S   0  0  0  0  0  0  0  0  0  0  0  0
   -2.8860   15.0330   -0.6110 N   0  0  0  0  0  0  0  0  0  0  0  0
   -3.1740   15.1530   -1.9620 N   0  0  0  0  0  0  0  0  0  0  0  0
  -11.3820   15.2050    6.0410 C   0  0  0  0  0  0  0  0  0  0  0  0
  -10.2540   15.2810    6.8250 C   0  0  0  0  0  0  0  0  0  0  0  0
  1  2  1  0
  2  3  1  0
  1  4  1  0
  2  5  1  1
  4  6  1  0
  3  7  1  0
  4  7  2  0
  6  8  1  0
  6  9  1  0
  7 10  1  0
  5 11  1  0
  8 12  1  0
  9 13  1  0
  9 14  1  0
 10 14  2  0
 11 15  2  0
 11 16  1  0
 14 17  1  0
 13 18  2  0
 17 18  1  0
 16 19  1  0
 15 20  1  0
 19 20  2  0
M  END
