x1018_0_A-x0805_0_A
     RDKit          3D

 20 22  0  0  0  0  0  0  0  0999 V2000
   -7.8070   14.6900   -0.0880 Cl  0  0  0  0  0  0  0  0  0  0  0  0
   -6.0930   14.4710   -0.2720 C   0  0  0  0  0  0  0  0  0  0  0  0
   -5.3090   14.2700    0.9710 C   0  0  0  0  0  0  0  0  0  0  0  0
   -5.5740   14.4830   -1.4930 N   0  0  0  0  0  0  0  0  0  0  0  0
   -4.1960   14.2880   -1.5880 N   0  0  0  0  0  0  0  0  0  0  0  0
   -3.9930   13.9950    0.8340 C   0  0  0  0  0  0  0  0  0  0  0  0
   -3.4330   14.2700   -2.8070 N   0  0  0  0  0  0  0  0  0  0  0  0
   -3.3250   13.8950   -0.5090 C   0  0  2  0  0  0  0  0  0  0  0  0
   -2.1470   14.7010   -0.8790 N   0  0  0  0  0  0  0  0  0  0  0  0
   -1.9640   14.5580   -2.4270 C   0  0  1  0  0  0  0  0  0  0  0  0
   -2.4530   16.0380   -0.3700 O   0  0  0  0  0  0  0  0  0  0  0  0
   -0.6910   13.5900   -2.7770 C   0  0  1  0  0  0  0  0  0  0  0  0
   -1.3450   15.7680   -3.2440 C   0  0  0  0  0  0  0  0  0  0  0  0
   -3.5170   16.0960    0.6080 C   0  0  0  0  0  0  0  0  0  0  0  0
   -0.3490   12.2850   -2.1210 C   0  0  0  0  0  0  0  0  0  0  0  0
   -0.1780   13.5870   -4.2280 C   0  0  0  0  0  0  0  0  0  0  0  0
    0.2070   15.7650   -3.5360 C   0  0  0  0  0  0  0  0  0  0  0  0
   -0.7060   11.1470   -2.7620 O   0  0  0  0  0  0  0  0  0  0  0  0
    0.2640   12.2650   -1.0840 O   0  0  0  0  0  0  0  0  0  0  0  0
    0.6540   14.7150   -4.4040 O   0  0  0  0  0  0  0  0  0  0  0  0
  1  2  1  0
  2  3  1  0
  2  4  2  0
  4  5  1  0
  3  6  2  0
  5  7  1  0
  5  8  1  0
  8  6  1  1
  8  9  1  0
 10  7  1  0
  9 10  1  0
  9 11  1  0
 10 12  1  0
 10 13  1  6
 11 14  1  0
 12 15  1  6
 12 16  1  0
 13 17  1  0
 15 18  1  0
 15 19  2  0
 16 20  1  0
 17 20  1  0
M  END
