x1012_0_A_α-5CMS_0_O_γ
     RDKit          3D

 14 14  0  0  0  0  0  0  0  0999 V2000
   -0.3230   18.2560   -4.7090 N   0  0  0  0  0  0  0  0  0  0  0  0
   -1.2160   17.2490   -4.7410 C   0  0  0  0  0  0  0  0  0  0  0  0
   -2.4010   17.5310   -4.8360 O   0  0  0  0  0  0  0  0  0  0  0  0
   -0.7150   15.9750   -4.6280 N   0  0  0  0  0  0  0  0  0  0  0  0
   -1.6570   14.8690   -4.7530 C   0  0  0  0  0  0  0  0  0  0  0  0
    0.7080   15.6610   -4.7480 C   0  0  0  0  0  0  0  0  0  0  0  0
   -1.2410   13.5940   -3.9960 C   0  0  1  0  0  0  0  0  0  0  0  0
    1.1950   14.5230   -3.8460 C   0  0  2  0  0  0  0  0  0  0  0  0
   -1.6760   12.4790   -4.7830 O   0  0  0  0  0  0  0  0  0  0  0  0
    2.4090   14.0130   -4.3840 O   0  0  0  0  0  0  0  0  0  0  0  0
    0.2570   13.3190   -3.8180 C   0  0  1  0  0  0  0  0  0  0  0  0
    0.4540   12.4940   -2.5610 C   0  0  0  0  0  0  0  0  0  0  0  0
    0.5510   11.1740   -2.8110 O   0  0  0  0  0  0  0  0  0  0  0  0
    0.5220   12.8750   -1.3980 O   0  0  0  0  0  0  0  0  0  0  0  0
  1  2  1  0
  2  3  2  0
  2  4  1  0
  4  5  1  0
  4  6  1  0
  5  7  1  0
  6  8  1  0
  7  9  1  6
  8 10  1  6
  7 11  1  0
  8 11  1  0
 11 12  1  1
 12 13  1  0
 12 14  2  0
M  END
