x1012_0_A_α-x0727_0_A_α
     RDKit          3D

 23 24  0  0  0  0  0  0  0  0999 V2000
   -0.3460   18.2880   -4.8050 N   0  0  0  0  0  0  0  0  0  0  0  0
   -1.2640   17.3000   -4.7820 C   0  0  0  0  0  0  0  0  0  0  0  0
   -2.4370   17.6050   -4.8790 O   0  0  0  0  0  0  0  0  0  0  0  0
   -0.7860   16.0270   -4.6220 N   0  0  0  0  0  0  0  0  0  0  0  0
   -1.7850   14.9550   -4.4280 C   0  0  0  0  0  0  0  0  0  0  0  0
    0.6310   15.7830   -4.2850 C   0  0  0  0  0  0  0  0  0  0  0  0
   -1.5830   14.2190   -3.1040 C   0  0  0  0  0  0  0  0  0  0  0  0
    0.8450   14.9030   -3.0510 C   0  0  0  0  0  0  0  0  0  0  0  0
   -0.1440   13.7360   -3.0530 C   0  0  0  0  0  0  0  0  0  0  0  0
    0.1560   12.6750   -1.9800 C   0  0  0  0  0  0  0  0  0  0  0  0
    0.5510   11.5960   -2.6620 N   0  0  0  0  0  0  0  0  0  0  0  0
    0.0740   12.7980   -0.7750 O   0  0  0  0  0  0  0  0  0  0  0  0
    0.7750   12.2720   -3.7100 C   0  0  0  0  0  0  0  0  0  0  0  0
    1.2470   12.0120   -5.0760 C   0  0  1  0  0  0  0  0  0  0  0  0
    0.1540   11.4290   -5.8140 N   0  0  0  0  0  0  0  0  0  0  0  0
    1.5100   13.3530   -5.6540 C   0  0  0  0  0  0  0  0  0  0  0  0
    0.3680   11.1000   -7.1190 C   0  0  0  0  0  0  0  0  0  0  0  0
    1.3300   11.4860   -7.7280 O   0  0  0  0  0  0  0  0  0  0  0  0
   -0.6450   10.1540   -7.7150 C   0  0  0  0  0  0  0  0  0  0  0  0
   -1.5400   10.5870   -8.8410 C   0  0  0  0  0  0  0  0  0  0  0  0
   -1.7070    9.7340   -6.7060 C   0  0  0  0  0  0  0  0  0  0  0  0
   -2.5770    9.4430   -8.8490 C   0  0  0  0  0  0  0  0  0  0  0  0
   -2.4020    8.6930   -7.5200 C   0  0  0  0  0  0  0  0  0  0  0  0
  1  2  1  0
  2  3  2  0
  2  4  1  0
  4  5  1  0
  4  6  1  0
  5  7  1  0
  6  8  1  0
  7  9  1  0
  8  9  1  0
  9 10  1  0
 10 11  1  0
 10 12  2  0
 11 13  2  3
 13 14  1  0
 14 15  1  0
 14 16  1  6
 15 17  1  0
 17 18  2  0
 17 19  1  0
 19 20  1  0
 19 21  1  0
 20 22  1  0
 21 23  1  0
 22 23  1  0
M  END
