x1012_0_A-x0471_0_A
     RDKit          3D

 30 32  0  0  0  0  0  0  0  0999 V2000
   -0.9870   17.9470   -5.8170 N   0  0  0  0  0  0  0  0  0  0  0  0
   -1.2280   17.0410   -4.8410 C   0  0  0  0  0  0  0  0  0  0  0  0
   -1.9870   17.2040   -3.8590 N   0  0  0  0  0  0  0  0  0  0  0  0
   -0.5630   15.8330   -4.9560 N   0  0  0  0  0  0  0  0  0  0  0  0
   -2.0500   16.1060   -2.9020 C   0  0  0  0  0  0  0  0  0  0  0  0
   -1.3800   14.5910   -5.0970 C   0  0  0  0  0  0  0  0  0  0  0  0
    0.8830   15.6650   -4.7500 C   0  0  0  0  0  0  0  0  0  0  0  0
   -3.3510   15.3750   -2.9850 C   0  0  0  0  0  0  0  0  0  0  0  0
   -1.2220   13.5810   -3.9630 C   0  0  0  0  0  0  0  0  0  0  0  0
    1.1940   14.3440   -4.0290 C   0  0  0  0  0  0  0  0  0  0  0  0
    0.0340   13.8460   -3.1540 C   0  0  0  0  0  0  0  0  0  0  0  0
   -4.0440   15.2290   -1.6680 C   0  0  0  0  0  0  0  0  0  0  0  0
    0.3880   12.6190   -2.3440 C   0  0  0  0  0  0  0  0  0  0  0  0
   -5.4050   15.0010   -1.7470 C   0  0  0  0  0  0  0  0  0  0  0  0
   -3.3830   15.3050   -0.4180 C   0  0  0  0  0  0  0  0  0  0  0  0
    0.4270   11.4730   -3.0620 O   0  0  0  0  0  0  0  0  0  0  0  0
    0.5950   12.6600   -1.1470 O   0  0  0  0  0  0  0  0  0  0  0  0
   -6.0860   14.8400   -0.5710 C   0  0  0  0  0  0  0  0  0  0  0  0
   -4.1080   15.1370    0.7760 C   0  0  0  0  0  0  0  0  0  0  0  0
   -7.4050   14.5990   -0.3390 N   0  0  0  0  0  0  0  0  0  0  0  0
   -5.4930   14.8940    0.6810 C   0  0  0  0  0  0  0  0  0  0  0  0
   -7.5830   14.5100    1.0120 C   0  0  0  0  0  0  0  0  0  0  0  0
   -6.4450   14.6850    1.6540 N   0  0  0  0  0  0  0  0  0  0  0  0
   -8.9310   14.2460    1.5790 C   0  0  0  0  0  0  0  0  0  0  0  0
   -8.8190   14.1120    3.0150 N   0  0  0  0  0  0  0  0  0  0  0  0
   -9.1770   15.1680    3.8170 C   0  0  0  0  0  0  0  0  0  0  0  0
   -9.4380   16.2710    3.3500 O   0  0  0  0  0  0  0  0  0  0  0  0
   -9.2510   14.8570    5.3100 C   0  0  0  0  0  0  0  0  0  0  0  0
   -9.6800   13.4130    5.5620 C   0  0  0  0  0  0  0  0  0  0  0  0
   -7.9310   15.1800    5.9970 C   0  0  0  0  0  0  0  0  0  0  0  0
  1  2  1  0
  2  3  2  3
  2  4  1  0
  3  5  1  0
  4  6  1  0
  4  7  1  0
  5  8  1  0
  6  9  1  0
  7 10  1  0
  9 11  1  0
 10 11  1  0
  8 12  1  0
 11 13  1  0
 12 14  2  0
 12 15  1  0
 13 16  1  0
 13 17  2  0
 14 18  1  0
 15 19  2  0
 18 20  1  0
 18 21  2  0
 19 21  1  0
 20 22  1  0
 21 23  1  0
 22 23  2  0
 22 24  1  0
 24 25  1  0
 25 26  1  0
 26 27  2  0
 26 28  1  0
 28 29  1  0
 28 30  1  0
M  END
