x1015_0_A-x0421_0_A
     RDKit          3D

 27 30  0  0  0  0  0  0  0  0999 V2000
    0.1340   14.1290   -5.2330 C   0  0  0  0  0  0  0  0  0  0  0  0
    0.8460   13.3840   -4.1010 C   0  0  2  0  0  0  0  0  0  0  0  0
    0.3640   12.0070   -4.0030 N   0  0  0  0  0  0  0  0  0  0  0  0
    0.2420   13.9250   -2.8400 C   0  0  0  0  0  0  0  0  0  0  0  0
    0.1530   15.1340   -2.4590 N   0  0  0  0  0  0  0  0  0  0  0  0
    0.1280   11.7210   -2.6630 C   0  0  0  0  0  0  0  0  0  0  0  0
   -0.2890   12.9000   -2.1150 N   0  0  0  0  0  0  0  0  0  0  0  0
   -0.2010   11.2990   -5.0970 C   0  0  0  0  0  0  0  0  0  0  0  0
    0.2590   10.6590   -2.0540 O   0  0  0  0  0  0  0  0  0  0  0  0
   -0.6700   15.4010   -1.3160 C   0  0  0  0  0  0  0  0  0  0  0  0
    0.2620   11.4830   -6.4060 C   0  0  0  0  0  0  0  0  0  0  0  0
   -1.2460   10.3770   -4.8960 C   0  0  0  0  0  0  0  0  0  0  0  0
   -1.8770   15.4150   -2.1220 N   0  0  0  0  0  0  0  0  0  0  0  0
   -0.2910   10.7760   -7.4760 C   0  0  0  0  0  0  0  0  0  0  0  0
   -1.8020    9.6650   -5.9640 C   0  0  0  0  0  0  0  0  0  0  0  0
   -3.0870   15.3130   -1.7680 C   0  0  0  0  0  0  0  0  0  0  0  0
   -1.3180    9.8670   -7.2510 C   0  0  0  0  0  0  0  0  0  0  0  0
   -1.9930    8.9920   -8.5680 Cl  0  0  0  0  0  0  0  0  0  0  0  0
   -4.0330   15.3370   -2.7510 N   0  0  0  0  0  0  0  0  0  0  0  0
   -3.6480   15.1670   -0.4540 C   0  0  0  0  0  0  0  0  0  0  0  0
   -2.9780   15.2060    0.7480 C   0  0  0  0  0  0  0  0  0  0  0  0
   -4.9940   14.9570   -0.2470 N   0  0  0  0  0  0  0  0  0  0  0  0
   -3.9400   15.0170    1.6800 N   0  0  0  0  0  0  0  0  0  0  0  0
   -5.1320   14.8720    1.0430 C   0  0  0  0  0  0  0  0  0  0  0  0
   -6.4780   14.6330    1.7670 C   0  0  0  0  0  0  0  0  0  0  0  0
   -7.7520   14.6470    0.9630 C   0  0  0  0  0  0  0  0  0  0  0  0
   -7.2230   13.3520    1.5130 C   0  0  0  0  0  0  0  0  0  0  0  0
  2  1  1  6
  2  3  1  0
  2  4  1  0
  4  5  2  3
  3  6  1  0
  4  7  1  0
  6  7  1  0
  3  8  1  0
  6  9  2  0
  5 10  1  0
  8 11  2  0
  8 12  1  0
 10 13  1  0
 11 14  1  0
 12 15  2  0
 13 16  2  3
 14 17  2  0
 15 17  1  0
 17 18  1  0
 16 19  1  0
 16 20  1  0
 20 21  2  0
 20 22  1  0
 21 23  1  0
 22 24  2  0
 23 24  1  0
 24 25  1  0
 25 26  1  0
 25 27  1  0
 26 27  1  0
M  END
