x1012_0_A-x0727_0_A
     RDKit          3D

 23 24  0  0  0  0  0  0  0  0999 V2000
   -0.3460   18.2890   -4.8000 N   0  0  0  0  0  0  0  0  0  0  0  0
   -1.2690   17.3010   -4.7750 C   0  0  0  0  0  0  0  0  0  0  0  0
   -2.4400   17.6080   -4.8630 O   0  0  0  0  0  0  0  0  0  0  0  0
   -0.7880   16.0300   -4.6210 N   0  0  0  0  0  0  0  0  0  0  0  0
   -1.7880   14.9560   -4.4270 C   0  0  0  0  0  0  0  0  0  0  0  0
    0.6260   15.7870   -4.2810 C   0  0  0  0  0  0  0  0  0  0  0  0
   -1.5830   14.2190   -3.1050 C   0  0  0  0  0  0  0  0  0  0  0  0
    0.8430   14.9030   -3.0520 C   0  0  0  0  0  0  0  0  0  0  0  0
   -0.1470   13.7340   -3.0580 C   0  0  0  0  0  0  0  0  0  0  0  0
    0.1560   12.6750   -1.9830 C   0  0  0  0  0  0  0  0  0  0  0  0
    0.5520   11.5950   -2.6640 N   0  0  0  0  0  0  0  0  0  0  0  0
    0.0750   12.8000   -0.7790 O   0  0  0  0  0  0  0  0  0  0  0  0
    0.7770   12.2690   -3.7100 C   0  0  0  0  0  0  0  0  0  0  0  0
    1.2480   12.0100   -5.0770 C   0  0  1  0  0  0  0  0  0  0  0  0
    0.1510   11.4290   -5.8110 N   0  0  0  0  0  0  0  0  0  0  0  0
    1.5110   13.3490   -5.6550 C   0  0  0  0  0  0  0  0  0  0  0  0
    0.3620   11.0980   -7.1180 C   0  0  0  0  0  0  0  0  0  0  0  0
    1.3280   11.4810   -7.7220 O   0  0  0  0  0  0  0  0  0  0  0  0
   -0.6490   10.1540   -7.7140 C   0  0  0  0  0  0  0  0  0  0  0  0
   -1.5450   10.5880   -8.8440 C   0  0  0  0  0  0  0  0  0  0  0  0
   -1.7110    9.7320   -6.7070 C   0  0  0  0  0  0  0  0  0  0  0  0
   -2.5810    9.4430   -8.8530 C   0  0  0  0  0  0  0  0  0  0  0  0
   -2.4070    8.6950   -7.5240 C   0  0  0  0  0  0  0  0  0  0  0  0
  1  2  1  0
  2  3  2  0
  2  4  1  0
  4  5  1  0
  4  6  1  0
  5  7  1  0
  6  8  1  0
  7  9  1  0
  8  9  1  0
  9 10  1  0
 10 11  1  0
 10 12  2  0
 11 13  2  3
 13 14  1  0
 14 15  1  0
 14 16  1  6
 15 17  1  0
 17 18  2  0
 17 19  1  0
 19 20  1  0
 19 21  1  0
 20 22  1  0
 21 23  1  0
 22 23  1  0
M  END
