x1018_0_A_α-x0626_0_A_α
     RDKit          3D

 20 22  0  0  0  0  0  0  0  0999 V2000
   -7.3520   13.0600    1.2340 C   0  0  0  0  0  0  0  0  0  0  0  0
   -7.1330   14.3410    2.0240 C   0  0  0  0  0  0  0  0  0  0  0  0
   -5.9410   14.9890    1.3480 C   0  0  0  0  0  0  0  0  0  0  0  0
   -6.2300   13.1670    0.2310 C   0  0  0  0  0  0  0  0  0  0  0  0
   -6.4970   13.4840   -1.0060 N   0  0  0  0  0  0  0  0  0  0  0  0
   -4.8610   12.9560    0.7960 C   0  0  0  0  0  0  0  0  0  0  0  0
   -4.7140   15.2530    1.8810 N   0  0  0  0  0  0  0  0  0  0  0  0
   -6.0550   15.3120    0.1530 O   0  0  0  0  0  0  0  0  0  0  0  0
   -5.3710   13.6420   -1.7510 N   0  0  0  0  0  0  0  0  0  0  0  0
   -3.8210   13.1400   -0.0130 C   0  0  0  0  0  0  0  0  0  0  0  0
   -5.3890   13.9890   -3.0510 N   0  0  0  0  0  0  0  0  0  0  0  0
   -4.0570   13.5020   -1.3490 C   0  0  0  0  0  0  0  0  0  0  0  0
   -3.5020   15.2340    1.2610 C   0  0  0  0  0  0  0  0  0  0  0  0
   -3.2700   13.7550   -2.3690 N   0  0  0  0  0  0  0  0  0  0  0  0
   -4.1090   14.0540   -3.4180 N   0  0  0  0  0  0  0  0  0  0  0  0
   -2.4310   14.7430    1.8400 N   0  0  0  0  0  0  0  0  0  0  0  0
   -3.2730   15.8250   -0.3100 S   0  0  0  0  0  0  0  0  0  0  0  0
   -1.6310   15.4040   -0.2420 C   0  0  0  0  0  0  0  0  0  0  0  0
   -1.3630   14.8340    0.9800 C   0  0  0  0  0  0  0  0  0  0  0  0
   -0.0680   14.3320    1.4210 C   0  0  0  0  0  0  0  0  0  0  0  0
  1  2  1  0
  2  3  1  0
  1  4  1  0
  4  5  2  0
  4  6  1  0
  3  7  1  0
  3  8  2  0
  5  9  1  0
  6 10  2  0
  9 11  1  0
  9 12  1  0
 10 12  1  0
  7 13  1  0
 12 14  2  0
 11 15  2  0
 14 15  1  0
 13 16  2  0
 13 17  1  0
 17 18  1  0
 16 19  1  0
 18 19  2  0
 19 20  1  0
M  END
