x1018_0_A-x0849_0_A
     RDKit          3D

 20 23  0  0  0  0  0  0  0  0999 V2000
   -8.3820   14.6930    1.1350 Cl  0  0  0  0  0  0  0  0  0  0  0  0
   -6.8910   14.3150    0.3460 C   0  0  0  0  0  0  0  0  0  0  0  0
   -5.9480   13.3420    0.9870 C   0  0  0  0  0  0  0  0  0  0  0  0
   -6.6880   14.9050   -0.8020 N   0  0  0  0  0  0  0  0  0  0  0  0
   -5.5150   14.5770   -1.4090 N   0  0  0  0  0  0  0  0  0  0  0  0
   -4.7160   13.2610    0.4610 C   0  0  0  0  0  0  0  0  0  0  0  0
   -4.9240   15.4710   -2.2910 N   0  0  0  0  0  0  0  0  0  0  0  0
   -4.3650   14.1450   -0.6720 C   0  0  1  0  0  0  0  0  0  0  0  0
   -3.5420   13.8270   -1.8400 N   0  0  0  0  0  0  0  0  0  0  0  0
   -3.5540   15.2230   -1.9800 N   0  0  0  0  0  0  0  0  0  0  0  0
   -3.4330   15.2990   -0.5830 C   0  0  0  0  0  0  0  0  0  0  0  0
   -2.2360   14.8250   -0.0090 C   0  0  0  0  0  0  0  0  0  0  0  0
   -4.4550   15.7680    0.2420 C   0  0  0  0  0  0  0  0  0  0  0  0
   -2.1670   14.8220    1.3690 C   0  0  0  0  0  0  0  0  0  0  0  0
   -4.2400   15.7040    1.5920 C   0  0  0  0  0  0  0  0  0  0  0  0
   -1.1170   14.3510   -0.7200 C   0  0  0  0  0  0  0  0  0  0  0  0
   -3.1180   15.2280    2.1280 N   0  0  0  0  0  0  0  0  0  0  0  0
   -1.1420   14.4020    2.0120 N   0  0  0  0  0  0  0  0  0  0  0  0
   -0.0150   13.9030   -0.0180 C   0  0  0  0  0  0  0  0  0  0  0  0
   -0.1120   13.9560    1.3550 C   0  0  0  0  0  0  0  0  0  0  0  0
  1  2  1  0
  2  3  1  0
  2  4  2  0
  4  5  1  0
  3  6  2  0
  5  7  1  0
  5  8  1  0
  8  6  1  1
  8  9  1  0
  7 10  1  0
  9 10  1  0
 10 11  1  0
 11 12  1  0
 11 13  2  0
 12 14  2  0
 13 15  1  0
 12 16  1  0
 14 17  1  0
 15 17  2  0
 14 18  1  0
 16 19  2  0
 18 20  2  0
 19 20  1  0
M  END
