x1015_0_A-x0662_0_A
     RDKit          3D

 33 36  0  0  0  0  0  0  0  0999 V2000
   -1.8160   14.8370   -4.4040 C   0  0  0  0  0  0  0  0  0  0  0  0
   -0.5240   14.0790   -4.1830 C   0  0  2  0  0  0  0  0  0  0  0  0
   -0.4770   12.6360   -4.3100 N   0  0  0  0  0  0  0  0  0  0  0  0
    0.1500   14.2930   -2.8240 C   0  0  0  0  0  0  0  0  0  0  0  0
    0.6640   15.3260   -2.4150 O   0  0  0  0  0  0  0  0  0  0  0  0
   -0.2050   12.0960   -2.9870 C   0  0  0  0  0  0  0  0  0  0  0  0
    0.0770   13.1280   -2.1400 N   0  0  0  0  0  0  0  0  0  0  0  0
   -1.2360   11.8050   -5.2490 C   0  0  0  0  0  0  0  0  0  0  0  0
   -0.2030   10.9160   -2.6260 O   0  0  0  0  0  0  0  0  0  0  0  0
   -2.3350   12.1700   -5.9690 C   0  0  0  0  0  0  0  0  0  0  0  0
   -0.7590   10.5570   -5.3930 C   0  0  0  0  0  0  0  0  0  0  0  0
    0.3200   10.6410   -4.6560 N   0  0  0  0  0  0  0  0  0  0  0  0
   -2.9150   11.2050   -6.8150 C   0  0  0  0  0  0  0  0  0  0  0  0
   -1.2940    9.5590   -6.1730 C   0  0  0  0  0  0  0  0  0  0  0  0
    1.1910   10.7080   -5.5880 C   0  0  0  0  0  0  0  0  0  0  0  0
   -2.3980    9.9040   -6.9080 C   0  0  0  0  0  0  0  0  0  0  0  0
   -3.1330    8.7460   -7.9540 Cl  0  0  0  0  0  0  0  0  0  0  0  0
    2.3870   10.9980   -5.6570 O   0  0  0  0  0  0  0  0  0  0  0  0
    0.7330   10.2330   -6.9730 C   0  0  0  0  0  0  0  0  0  0  0  0
   -0.1310    9.1240   -7.0040 C   0  0  0  0  0  0  0  0  0  0  0  0
    1.1430   10.7670   -8.1820 C   0  0  0  0  0  0  0  0  0  0  0  0
   -0.5540    8.5690   -8.2150 C   0  0  0  0  0  0  0  0  0  0  0  0
    0.7600   10.1950   -9.4100 C   0  0  0  0  0  0  0  0  0  0  0  0
    1.1910   10.5930  -10.6960 N   0  0  0  0  0  0  0  0  0  0  0  0
   -0.1020    9.1000   -9.4080 C   0  0  0  0  0  0  0  0  0  0  0  0
    1.9980    9.6790  -11.4070 C   0  0  0  0  0  0  0  0  0  0  0  0
    2.1080    8.4930  -11.0940 O   0  0  0  0  0  0  0  0  0  0  0  0
    2.7730   10.1840  -12.5730 C   0  0  0  0  0  0  0  0  0  0  0  0
    2.6930   11.4420  -13.2420 C   0  0  0  0  0  0  0  0  0  0  0  0
    3.7200    9.4080  -13.1500 N   0  0  0  0  0  0  0  0  0  0  0  0
    4.2230   10.1500  -14.1430 N   0  0  0  0  0  0  0  0  0  0  0  0
    3.6400   11.3850  -14.2470 C   0  0  0  0  0  0  0  0  0  0  0  0
    5.2790    9.5970  -14.9610 C   0  0  0  0  0  0  0  0  0  0  0  0
  2  1  1  1
  2  3  1  0
  2  4  1  0
  4  5  2  0
  3  6  1  0
  4  7  1  0
  6  7  1  0
  3  8  1  0
  6  9  2  0
  8 10  2  0
  8 11  1  0
 11 12  1  0
 10 13  1  0
 11 14  2  0
 12 15  2  3
 13 16  2  0
 14 16  1  0
 16 17  1  0
 15 18  1  0
 15 19  1  0
 19 20  2  0
 19 21  1  0
 20 22  1  0
 21 23  2  0
 23 24  1  0
 22 25  2  0
 23 25  1  0
 24 26  1  0
 26 27  2  0
 26 28  1  0
 28 29  1  0
 28 30  2  0
 30 31  1  0
 29 32  2  0
 31 32  1  0
 31 33  1  0
M  CHG  1  18  -1
M  END
