x1012_0_A_α-x0104_0_A_β
     RDKit          3D

 23 24  0  0  0  0  0  0  0  0999 V2000
   -0.6060   18.0640   -4.7960 N   0  0  0  0  0  0  0  0  0  0  0  0
   -1.2810   16.8910   -4.8590 C   0  0  0  0  0  0  0  0  0  0  0  0
   -2.5540   16.9590   -4.8650 N   0  0  0  0  0  0  0  0  0  0  0  0
   -0.4770   15.7750   -4.9100 N   0  0  0  0  0  0  0  0  0  0  0  0
   -3.2660   15.6830   -4.9850 C   0  0  0  0  0  0  0  0  0  0  0  0
   -0.9930   14.4490   -5.2930 C   0  0  0  0  0  0  0  0  0  0  0  0
    0.9280   15.8280   -4.4970 C   0  0  0  0  0  0  0  0  0  0  0  0
   -2.9320   14.7700   -3.8070 C   0  0  0  0  0  0  0  0  0  0  0  0
   -0.9640   13.4940   -4.1110 C   0  0  0  0  0  0  0  0  0  0  0  0
    1.3390   14.5550   -3.7540 C   0  0  0  0  0  0  0  0  0  0  0  0
   -3.5570   15.1740   -2.4890 C   0  0  0  0  0  0  0  0  0  0  0  0
    0.1180   13.8820   -3.1140 C   0  0  0  0  0  0  0  0  0  0  0  0
    0.4930   12.6960   -2.2600 C   0  0  0  0  0  0  0  0  0  0  0  0
   -4.8730   14.6480   -2.4100 O   0  0  0  0  0  0  0  0  0  0  0  0
    0.6140   11.5250   -2.9200 O   0  0  0  0  0  0  0  0  0  0  0  0
    0.6520   12.7460   -1.0590 O   0  0  0  0  0  0  0  0  0  0  0  0
   -5.3320   14.6860   -1.1210 C   0  0  0  0  0  0  0  0  0  0  0  0
   -4.4520   14.8010   -0.1080 N   0  0  0  0  0  0  0  0  0  0  0  0
   -6.7000   14.6010   -0.9600 C   0  0  0  0  0  0  0  0  0  0  0  0
   -4.9830   14.8350    1.1300 C   0  0  0  0  0  0  0  0  0  0  0  0
   -7.2150   14.6330    0.3310 C   0  0  0  0  0  0  0  0  0  0  0  0
   -6.3490   14.7530    1.4100 C   0  0  0  0  0  0  0  0  0  0  0  0
   -6.8360   14.7920    2.7140 N   0  0  0  0  0  0  0  0  0  0  0  0
  1  2  1  0
  2  3  2  3
  2  4  1  0
  3  5  1  0
  4  6  1  0
  4  7  1  0
  5  8  1  0
  6  9  1  0
  7 10  1  0
  8 11  1  0
  9 12  1  0
 10 12  1  0
 12 13  1  0
 11 14  1  0
 13 15  1  0
 13 16  2  0
 14 17  1  0
 17 18  2  0
 17 19  1  0
 18 20  1  0
 19 21  2  0
 20 22  2  0
 21 22  1  0
 22 23  1  0
M  END
