x1018_0_A-x0895_0_A
     RDKit          3D

 16 18  0  0  0  0  0  0  0  0999 V2000
   -8.6380   14.8740    1.0200 Cl  0  0  0  0  0  0  0  0  0  0  0  0
   -7.1130   14.1810    0.5990 C   0  0  0  0  0  0  0  0  0  0  0  0
   -6.4450   13.2670    1.5680 C   0  0  0  0  0  0  0  0  0  0  0  0
   -6.6400   14.4980   -0.5730 N   0  0  0  0  0  0  0  0  0  0  0  0
   -5.4330   13.9170   -0.8940 N   0  0  0  0  0  0  0  0  0  0  0  0
   -5.1710   12.9590    1.3140 C   0  0  0  0  0  0  0  0  0  0  0  0
   -4.5390   14.5250   -1.7610 N   0  0  0  0  0  0  0  0  0  0  0  0
   -4.4960   13.5280    0.1310 C   0  0  1  0  0  0  0  0  0  0  0  0
   -3.5860   12.7160   -0.6840 N   0  0  0  0  0  0  0  0  0  0  0  0
   -3.6190   13.4240   -1.9870 N   0  0  0  0  0  0  0  0  0  0  0  0
   -3.8180   15.5250   -1.0030 C   0  0  1  0  0  0  0  0  0  0  0  0
   -4.6400   15.9100    0.1460 N   0  0  0  0  0  0  0  0  0  0  0  0
   -2.6380   14.9530   -0.4040 N   0  0  0  0  0  0  0  0  0  0  0  0
   -3.7490   16.0200    1.3030 C   0  0  0  0  0  0  0  0  0  0  0  0
   -2.5640   15.1540    0.9640 C   0  0  0  0  0  0  0  0  0  0  0  0
   -1.6930   14.7150    1.7110 O   0  0  0  0  0  0  0  0  0  0  0  0
  1  2  1  0
  2  3  1  0
  2  4  2  0
  4  5  1  0
  3  6  2  0
  5  7  1  0
  5  8  1  0
  8  6  1  1
  8  9  1  0
  7 10  1  0
  9 10  1  0
 11  7  1  6
 11 12  1  0
 11 13  1  0
 12 14  1  0
 13 15  1  0
 14 15  1  0
 15 16  2  0
M  END
