x1012_0_A-x0724_0_A
     RDKit          3D

 27 29  0  0  0  0  0  0  0  0999 V2000
   -0.3880   18.2550   -4.7980 N   0  0  0  0  0  0  0  0  0  0  0  0
   -1.2640   17.2270   -4.8630 C   0  0  0  0  0  0  0  0  0  0  0  0
   -2.4560   17.4890   -4.8430 O   0  0  0  0  0  0  0  0  0  0  0  0
   -0.7410   15.9520   -4.9090 N   0  0  0  0  0  0  0  0  0  0  0  0
   -1.6830   14.8700   -4.5660 C   0  0  0  0  0  0  0  0  0  0  0  0
    0.7030   15.6770   -4.8990 C   0  0  0  0  0  0  0  0  0  0  0  0
   -1.2120   13.8770   -3.4740 C   0  0  2  0  0  0  0  0  0  0  0  0
    1.1460   14.6380   -3.8690 C   0  0  0  0  0  0  0  0  0  0  0  0
   -1.2750   14.5070   -2.0630 C   0  0  0  0  0  0  0  0  0  0  0  0
    0.2100   13.4290   -3.8100 C   0  0  1  0  0  0  0  0  0  0  0  0
    0.6350   12.3430   -2.8650 C   0  0  0  0  0  0  0  0  0  0  0  0
   -2.6030   14.5610   -1.3600 C   0  0  0  0  0  0  0  0  0  0  0  0
    0.2320   11.1140   -3.2110 O   0  0  0  0  0  0  0  0  0  0  0  0
    1.2820   12.5220   -1.8510 O   0  0  0  0  0  0  0  0  0  0  0  0
   -2.6170   14.6890    0.0360 C   0  0  0  0  0  0  0  0  0  0  0  0
   -3.8210   14.4850   -2.0480 C   0  0  0  0  0  0  0  0  0  0  0  0
   -3.8170   14.7310    0.7370 C   0  0  0  0  0  0  0  0  0  0  0  0
   -5.0300   14.5260   -1.3490 C   0  0  0  0  0  0  0  0  0  0  0  0
   -5.0290   14.6460    0.0500 C   0  0  0  0  0  0  0  0  0  0  0  0
   -6.2490   14.6820    0.7700 N   0  0  0  0  0  0  0  0  0  0  0  0
   -7.4630   14.5370    0.1740 N   0  0  0  0  0  0  0  0  0  0  0  0
   -6.3810   14.8670    2.1230 C   0  0  0  0  0  0  0  0  0  0  0  0
   -7.7220   14.8580    2.4280 C   0  0  0  0  0  0  0  0  0  0  0  0
   -8.3420   14.6440    1.1780 C   0  0  0  0  0  0  0  0  0  0  0  0
   -8.3450   15.0440    3.7660 C   0  0  0  0  0  0  0  0  0  0  0  0
   -8.7850   13.7560    4.2950 N   0  0  0  0  0  0  0  0  0  0  0  0
   -8.6900   13.7460    5.7470 C   0  0  0  0  0  0  0  0  0  0  0  0
  1  2  1  0
  2  3  2  0
  2  4  1  0
  4  5  1  0
  4  6  1  0
  5  7  1  0
  6  8  1  0
  7  9  1  1
  7 10  1  0
  8 10  1  0
 10 11  1  1
  9 12  1  0
 11 13  1  0
 11 14  2  0
 12 15  2  0
 12 16  1  0
 15 17  1  0
 16 18  2  0
 17 19  2  0
 18 19  1  0
 19 20  1  0
 20 21  1  0
 20 22  1  0
 22 23  2  0
 21 24  2  0
 23 24  1  0
 23 25  1  0
 25 26  1  0
 26 27  1  0
M  END
