x1018_0_A-x0962_0_A
     RDKit          3D

 12 13  0  0  0  0  0  0  0  0999 V2000
   -8.0550   14.6160    1.1930 Cl  0  0  0  0  0  0  0  0  0  0  0  0
   -6.5570   14.7110    0.3360 C   0  0  0  0  0  0  0  0  0  0  0  0
   -5.2600   14.8370    1.0820 C   0  0  0  0  0  0  0  0  0  0  0  0
   -6.6630   14.6610   -0.9540 N   0  0  0  0  0  0  0  0  0  0  0  0
   -5.4670   14.7190   -1.5710 N   0  0  0  0  0  0  0  0  0  0  0  0
   -4.1460   14.8680    0.3280 C   0  0  0  0  0  0  0  0  0  0  0  0
   -2.7960   14.9580    0.6700 C   0  0  0  0  0  0  0  0  0  0  0  0
   -5.3050   14.6900   -2.8950 N   0  0  0  0  0  0  0  0  0  0  0  0
   -4.2390   14.8140   -1.0170 C   0  0  0  0  0  0  0  0  0  0  0  0
   -1.6490   14.9970    0.7330 N   0  0  0  0  0  0  0  0  0  0  0  0
   -3.3160   14.8430   -1.9300 N   0  0  0  0  0  0  0  0  0  0  0  0
   -3.9930   14.7650   -3.1070 N   0  0  0  0  0  0  0  0  0  0  0  0
  1  2  1  0
  2  3  1  0
  2  4  2  0
  4  5  1  0
  3  6  2  0
  6  7  1  0
  5  8  1  0
  5  9  1  0
  6  9  1  0
  7 10  3  0
  9 11  2  0
  8 12  2  0
 11 12  1  0
M  END
