x1018_0_A_α-x0465_0_A_α
     RDKit          3D

 26 28  0  0  0  0  0  0  0  0999 V2000
   -8.3250   14.3570    0.8430 Cl  0  0  0  0  0  0  0  0  0  0  0  0
   -6.6710   14.5370    0.3660 C   0  0  0  0  0  0  0  0  0  0  0  0
   -5.6050   13.8750    1.1420 C   0  0  0  0  0  0  0  0  0  0  0  0
   -6.4700   15.2640   -0.6800 N   0  0  0  0  0  0  0  0  0  0  0  0
   -5.1650   15.4320   -1.0490 N   0  0  0  0  0  0  0  0  0  0  0  0
   -4.3400   14.2470    0.8860 C   0  0  0  0  0  0  0  0  0  0  0  0
   -4.8610   14.9460   -2.3210 N   0  0  0  0  0  0  0  0  0  0  0  0
   -4.0300   15.2880   -0.1270 C   0  0  1  0  0  0  0  0  0  0  0  0
   -2.9120   15.0620   -1.0650 N   0  0  0  0  0  0  0  0  0  0  0  0
   -3.4890   14.5320   -2.2870 N   0  0  0  0  0  0  0  0  0  0  0  0
   -1.7530   14.2660   -0.6350 C   0  0  0  0  0  0  0  0  0  0  0  0
   -0.6680   14.3460   -1.7310 C   0  0  0  0  0  0  0  0  0  0  0  0
    0.6660   13.6980   -1.3820 C   0  0  0  0  0  0  0  0  0  0  0  0
    0.5470   12.2720   -1.6280 N   0  0  0  0  0  0  0  0  0  0  0  0
    0.5600   11.7570   -2.8180 C   0  0  0  0  0  0  0  0  0  0  0  0
    0.6820   12.4080   -4.2280 C   0  0  1  0  0  0  0  0  0  0  0  0
    0.4330   10.4100   -2.7610 O   0  0  0  0  0  0  0  0  0  0  0  0
    2.0090   13.1670   -4.3750 C   0  0  0  0  0  0  0  0  0  0  0  0
    0.6350   11.3880   -5.2520 O   0  0  0  0  0  0  0  0  0  0  0  0
   -0.5750   10.7800   -5.4970 C   0  0  0  0  0  0  0  0  0  0  0  0
   -0.6720    9.8180   -6.5150 C   0  0  0  0  0  0  0  0  0  0  0  0
   -1.7060   11.0990   -4.7510 C   0  0  0  0  0  0  0  0  0  0  0  0
    0.3920    9.4860   -7.2620 F   0  0  0  0  0  0  0  0  0  0  0  0
   -1.8760    9.1800   -6.7800 C   0  0  0  0  0  0  0  0  0  0  0  0
   -2.9200   10.4580   -5.0200 C   0  0  0  0  0  0  0  0  0  0  0  0
   -3.0050    9.5000   -6.0310 C   0  0  0  0  0  0  0  0  0  0  0  0
  1  2  1  0
  2  3  1  0
  2  4  2  0
  4  5  1  0
  3  6  2  0
  5  7  1  0
  5  8  1  0
  8  6  1  1
  8  9  1  0
  7 10  1  0
  9 10  1  0
  9 11  1  0
 11 12  1  0
 12 13  1  0
 13 14  1  0
 14 15  2  3
 15 16  1  0
 15 17  1  0
 16 18  1  1
 16 19  1  0
 19 20  1  0
 20 21  2  0
 20 22  1  0
 21 23  1  0
 21 24  1  0
 22 25  2  0
 24 26  2  0
 25 26  1  0
M  END
