x1015_0_A-x0844_0_A
     RDKit          3D

 25 27  0  0  0  0  0  0  0  0999 V2000
   -0.8440   14.3140   -4.7950 C   0  0  0  0  0  0  0  0  0  0  0  0
    0.2890   13.6090   -4.0430 C   0  0  2  0  0  0  0  0  0  0  0  0
    0.1410   12.1560   -3.9920 N   0  0  0  0  0  0  0  0  0  0  0  0
    0.0980   13.9030   -2.5740 C   0  0  0  0  0  0  0  0  0  0  0  0
   -0.3000   15.0390   -2.1410 N   0  0  0  0  0  0  0  0  0  0  0  0
    0.2420   11.6960   -2.6620 C   0  0  0  0  0  0  0  0  0  0  0  0
    0.3880   12.7920   -1.8690 N   0  0  0  0  0  0  0  0  0  0  0  0
   -0.3450   11.3880   -5.0810 C   0  0  0  0  0  0  0  0  0  0  0  0
    0.2070   10.5400   -2.2340 O   0  0  0  0  0  0  0  0  0  0  0  0
   -0.5410   15.2100   -0.7100 C   0  0  0  0  0  0  0  0  0  0  0  0
    0.1550   11.5850   -6.3790 C   0  0  0  0  0  0  0  0  0  0  0  0
   -1.3320   10.4080   -4.9040 C   0  0  0  0  0  0  0  0  0  0  0  0
   -1.8170   14.4350   -0.3410 C   0  0  0  0  0  0  0  0  0  0  0  0
   -0.3150   10.8280   -7.4580 C   0  0  0  0  0  0  0  0  0  0  0  0
   -1.8050    9.6480   -5.9810 C   0  0  0  0  0  0  0  0  0  0  0  0
   -2.8210   14.6200   -1.3810 O   0  0  0  0  0  0  0  0  0  0  0  0
   -1.2930    9.8630   -7.2530 C   0  0  0  0  0  0  0  0  0  0  0  0
   -1.8710    8.9300   -8.5740 Cl  0  0  0  0  0  0  0  0  0  0  0  0
   -3.9270   15.4250   -0.9460 C   0  0  2  0  0  0  0  0  0  0  0  0
   -3.6820   15.6910    0.5060 C   0  0  0  0  0  0  0  0  0  0  0  0
   -5.2660   14.7420   -1.2590 C   0  0  0  0  0  0  0  0  0  0  0  0
   -4.5500   15.3660    1.4530 C   0  0  0  0  0  0  0  0  0  0  0  0
   -6.2610   14.7730   -0.1170 C   0  0  0  0  0  0  0  0  0  0  0  0
   -7.4800   14.8040   -0.2890 O   0  0  0  0  0  0  0  0  0  0  0  0
   -5.7230   14.7640    1.1370 N   0  0  0  0  0  0  0  0  0  0  0  0
  2  1  1  6
  2  3  1  0
  2  4  1  0
  4  5  2  3
  3  6  1  0
  4  7  1  0
  6  7  1  0
  3  8  1  0
  6  9  2  0
  5 10  1  0
  8 11  2  0
  8 12  1  0
 10 13  1  0
 11 14  1  0
 12 15  2  0
 13 16  1  0
 14 17  2  0
 15 17  1  0
 17 18  1  0
 19 16  1  1
 19 20  1  0
 19 21  1  0
 20 22  2  0
 21 23  1  0
 23 24  2  0
 22 25  1  0
 23 25  1  0
M  END
