x1012_0_A_α-x0969_0_A_α
     RDKit          3D

 24 26  0  0  0  0  0  0  0  0999 V2000
   -0.4770   17.9440   -5.3510 N   0  0  0  0  0  0  0  0  0  0  0  0
   -1.2280   16.9830   -4.7640 C   0  0  0  0  0  0  0  0  0  0  0  0
   -2.3920   17.0940   -4.2770 N   0  0  0  0  0  0  0  0  0  0  0  0
   -0.5890   15.7590   -4.7230 N   0  0  0  0  0  0  0  0  0  0  0  0
   -2.9750   15.8950   -3.6810 C   0  0  0  0  0  0  0  0  0  0  0  0
   -1.2640   14.5080   -5.1350 C   0  0  0  0  0  0  0  0  0  0  0  0
    0.8770   15.6590   -4.6240 C   0  0  0  0  0  0  0  0  0  0  0  0
   -2.4060   15.6010   -2.2860 C   0  0  0  0  0  0  0  0  0  0  0  0
   -1.1340   13.4590   -4.0460 C   0  0  0  0  0  0  0  0  0  0  0  0
    1.2400   14.3370   -3.9460 C   0  0  0  0  0  0  0  0  0  0  0  0
    0.0490   13.7960   -3.1420 C   0  0  0  0  0  0  0  0  0  0  0  0
   -3.4940   15.3930   -1.2710 C   0  0  0  0  0  0  0  0  0  0  0  0
    0.3930   12.6240   -2.2550 C   0  0  0  0  0  0  0  0  0  0  0  0
   -4.7460   15.1120   -1.6770 C   0  0  0  0  0  0  0  0  0  0  0  0
   -3.1710   15.4980    0.1540 C   0  0  0  0  0  0  0  0  0  0  0  0
    0.4770   11.4330   -2.8830 O   0  0  0  0  0  0  0  0  0  0  0  0
    0.5740   12.6950   -1.0610 O   0  0  0  0  0  0  0  0  0  0  0  0
   -5.7700   14.9070   -0.7340 C   0  0  0  0  0  0  0  0  0  0  0  0
   -4.1490   15.3010    1.0590 C   0  0  0  0  0  0  0  0  0  0  0  0
   -7.0440   14.6240   -0.8710 N   0  0  0  0  0  0  0  0  0  0  0  0
   -5.4420   15.0050    0.6050 N   0  0  0  0  0  0  0  0  0  0  0  0
   -6.6390   14.7560    1.2650 C   0  0  0  0  0  0  0  0  0  0  0  0
   -7.5870   14.5290    0.3870 N   0  0  0  0  0  0  0  0  0  0  0  0
   -6.7770   14.7620    2.6020 N   0  0  0  0  0  0  0  0  0  0  0  0
  1  2  1  0
  2  3  2  3
  2  4  1  0
  3  5  1  0
  4  6  1  0
  4  7  1  0
  5  8  1  0
  6  9  1  0
  7 10  1  0
  9 11  1  0
 10 11  1  0
  8 12  1  0
 11 13  1  0
 12 14  2  0
 12 15  1  0
 13 16  1  0
 13 17  2  0
 14 18  1  0
 15 19  2  0
 18 20  2  0
 18 21  1  0
 19 21  1  0
 21 22  1  0
 20 23  1  0
 22 23  2  0
 22 24  1  0
M  END
