x1015_0_A-x0900_1_A
     RDKit          3D

 19 21  0  0  0  0  0  0  0  0999 V2000
   -1.2580   14.5840   -4.1570 C   0  0  0  0  0  0  0  0  0  0  0  0
    0.0370   13.8510   -3.8160 C   0  0  2  0  0  0  0  0  0  0  0  0
   -0.1130   12.4110   -3.7500 N   0  0  0  0  0  0  0  0  0  0  0  0
    0.4050   14.1240   -2.3650 C   0  0  0  0  0  0  0  0  0  0  0  0
    0.4750   15.2180   -1.8360 O   0  0  0  0  0  0  0  0  0  0  0  0
    0.2950   11.8910   -2.5150 C   0  0  0  0  0  0  0  0  0  0  0  0
    0.6460   12.9490   -1.7400 N   0  0  0  0  0  0  0  0  0  0  0  0
   -0.5240   11.6230   -4.8260 C   0  0  0  0  0  0  0  0  0  0  0  0
    0.3450   10.7140   -2.1410 O   0  0  0  0  0  0  0  0  0  0  0  0
   -0.0040   11.8180   -6.1080 C   0  0  0  0  0  0  0  0  0  0  0  0
   -1.4620   10.6190   -4.6180 C   0  0  0  0  0  0  0  0  0  0  0  0
   -0.4160   11.0100   -7.1590 C   0  0  0  0  0  0  0  0  0  0  0  0
   -1.8730    9.8150   -5.6570 C   0  0  0  0  0  0  0  0  0  0  0  0
   -1.3520   10.0030   -6.9230 C   0  0  0  0  0  0  0  0  0  0  0  0
   -1.8080    9.0880   -7.9770 C   0  0  1  0  0  0  0  0  0  0  0  0
   -0.7940    9.0510   -9.0990 C   0  0  0  0  0  0  0  0  0  0  0  0
   -1.6500    7.6860   -7.4370 C   0  0  0  0  0  0  0  0  0  0  0  0
    0.3720    8.4630   -8.4060 N   0  0  0  0  0  0  0  0  0  0  0  0
   -0.1380    7.6820   -7.2540 C   0  0  0  0  0  0  0  0  0  0  0  0
  2  1  1  1
  2  3  1  0
  2  4  1  0
  4  5  2  0
  3  6  1  0
  4  7  1  0
  6  7  1  0
  3  8  1  0
  6  9  2  0
  8 10  2  0
  8 11  1  0
 10 12  1  0
 11 13  2  0
 12 14  2  0
 13 14  1  0
 15 14  1  1
 15 16  1  0
 15 17  1  0
 16 18  1  0
 17 19  1  0
 18 19  1  0
M  END
