x1015_0_A-x0631_0_A
     RDKit          3D

 30 33  0  0  0  0  0  0  0  0999 V2000
   -1.2980   14.6090   -4.1890 C   0  0  0  0  0  0  0  0  0  0  0  0
   -0.0440   13.7930   -3.8820 C   0  0  2  0  0  0  0  0  0  0  0  0
   -0.2920   12.3650   -3.7610 N   0  0  0  0  0  0  0  0  0  0  0  0
    0.4080   14.0830   -2.4600 C   0  0  0  0  0  0  0  0  0  0  0  0
    0.4830   15.1780   -1.9290 O   0  0  0  0  0  0  0  0  0  0  0  0
    0.2520   11.8570   -2.5680 C   0  0  0  0  0  0  0  0  0  0  0  0
    0.7270   12.9140   -1.8590 N   0  0  0  0  0  0  0  0  0  0  0  0
   -0.7320   11.5610   -4.8260 C   0  0  0  0  0  0  0  0  0  0  0  0
    0.3190   10.6890   -2.1700 O   0  0  0  0  0  0  0  0  0  0  0  0
   -0.4860   11.8910   -6.1620 C   0  0  0  0  0  0  0  0  0  0  0  0
   -1.4320   10.3920   -4.5550 C   0  0  0  0  0  0  0  0  0  0  0  0
   -0.9280   11.0580   -7.1960 C   0  0  0  0  0  0  0  0  0  0  0  0
   -1.8680    9.5610   -5.5740 C   0  0  0  0  0  0  0  0  0  0  0  0
   -1.6200    9.8760   -6.8990 C   0  0  0  0  0  0  0  0  0  0  0  0
   -2.0970    8.8930   -7.9220 C   0  0  0  0  0  0  0  0  0  0  0  0
   -1.1740    7.6890   -7.7480 C   0  0  0  0  0  0  0  0  0  0  0  0
    0.1580    8.2870   -7.2620 C   0  0  0  0  0  0  0  0  0  0  0  0
    0.2690    9.6000   -7.9340 N   0  0  0  0  0  0  0  0  0  0  0  0
    1.3810   10.4350   -7.6210 N   0  0  0  0  0  0  0  0  0  0  0  0
    0.3370    9.3790   -9.3460 N   0  0  0  0  0  0  0  0  0  0  0  0
    1.8000   11.0100   -8.8780 N   0  0  0  0  0  0  0  0  0  0  0  0
    0.7200   10.6870   -9.7950 C   0  0  1  0  0  0  0  0  0  0  0  0
    1.0580   10.5440  -11.1780 N   0  0  0  0  0  0  0  0  0  0  0  0
    2.2470    9.8250  -11.5520 C   0  0  1  0  0  0  0  0  0  0  0  0
    2.0680    8.4640  -11.8770 O   0  0  0  0  0  0  0  0  0  0  0  0
    3.0380   10.5950  -12.6440 C   0  0  1  0  0  0  0  0  0  0  0  0
    4.0260    9.7710  -13.2850 O   0  0  0  0  0  0  0  0  0  0  0  0
    2.2500   11.2030  -13.7760 C   0  0  0  0  0  0  0  0  0  0  0  0
    3.4030   11.5940  -14.6720 C   0  0  0  0  0  0  0  0  0  0  0  0
    4.3300   10.4010  -14.5360 C   0  0  0  0  0  0  0  0  0  0  0  0
  2  1  1  1
  2  3  1  0
  2  4  1  0
  4  5  2  0
  3  6  1  0
  4  7  1  0
  6  7  1  0
  3  8  1  0
  6  9  2  0
  8 10  2  0
  8 11  1  0
 10 12  1  0
 11 13  2  0
 12 14  2  0
 13 14  1  0
 14 15  1  0
 15 16  1  0
 16 17  1  0
 17 18  1  0
 18 19  1  0
 18 20  1  0
 19 21  1  0
 20 22  1  0
 21 22  1  0
 22 23  1  6
 23 24  1  0
 24 25  1  6
 24 26  1  0
 26 27  1  0
 26 28  1  6
 28 29  1  0
 27 30  1  0
 29 30  1  0
M  END
