x1015_0_A_α-x0900_1_A_α
     RDKit          3D

 19 21  0  0  0  0  0  0  0  0999 V2000
   -1.2600   14.5950   -4.1600 C   0  0  0  0  0  0  0  0  0  0  0  0
    0.0300   13.8550   -3.8150 C   0  0  2  0  0  0  0  0  0  0  0  0
   -0.1260   12.4160   -3.7490 N   0  0  0  0  0  0  0  0  0  0  0  0
    0.4060   14.1260   -2.3650 C   0  0  0  0  0  0  0  0  0  0  0  0
    0.4820   15.2210   -1.8350 O   0  0  0  0  0  0  0  0  0  0  0  0
    0.2900   11.8950   -2.5190 C   0  0  0  0  0  0  0  0  0  0  0  0
    0.6480   12.9490   -1.7400 N   0  0  0  0  0  0  0  0  0  0  0  0
   -0.5300   11.6300   -4.8280 C   0  0  0  0  0  0  0  0  0  0  0  0
    0.3430   10.7150   -2.1480 O   0  0  0  0  0  0  0  0  0  0  0  0
   -0.0070   11.8240   -6.1090 C   0  0  0  0  0  0  0  0  0  0  0  0
   -1.4660   10.6250   -4.6190 C   0  0  0  0  0  0  0  0  0  0  0  0
   -0.4160   11.0140   -7.1580 C   0  0  0  0  0  0  0  0  0  0  0  0
   -1.8730    9.8190   -5.6580 C   0  0  0  0  0  0  0  0  0  0  0  0
   -1.3490   10.0060   -6.9240 C   0  0  0  0  0  0  0  0  0  0  0  0
   -1.8060    9.0870   -7.9770 C   0  0  1  0  0  0  0  0  0  0  0  0
   -0.7940    9.0490   -9.0990 C   0  0  0  0  0  0  0  0  0  0  0  0
   -1.6470    7.6840   -7.4380 C   0  0  0  0  0  0  0  0  0  0  0  0
    0.3720    8.4630   -8.4080 N   0  0  0  0  0  0  0  0  0  0  0  0
   -0.1360    7.6830   -7.2540 C   0  0  0  0  0  0  0  0  0  0  0  0
  2  1  1  1
  2  3  1  0
  2  4  1  0
  4  5  2  0
  3  6  1  0
  4  7  1  0
  6  7  1  0
  3  8  1  0
  6  9  2  0
  8 10  2  0
  8 11  1  0
 10 12  1  0
 11 13  2  0
 12 14  2  0
 13 14  1  0
 15 14  1  1
 15 16  1  0
 15 17  1  0
 16 18  1  0
 17 19  1  0
 18 19  1  0
M  END
