x1012_0_A-x0587_0_A
     RDKit          3D

 27 28  0  0  0  0  0  0  0  0999 V2000
   -0.4470   18.0330   -4.7680 N   0  0  0  0  0  0  0  0  0  0  0  0
   -1.3150   16.9940   -4.8010 C   0  0  0  0  0  0  0  0  0  0  0  0
   -2.5890   17.0360   -4.8160 N   0  0  0  0  0  0  0  0  0  0  0  0
   -0.6110   15.8060   -4.8090 N   0  0  0  0  0  0  0  0  0  0  0  0
   -3.3140   15.7410   -4.8820 C   0  0  0  0  0  0  0  0  0  0  0  0
   -1.2380   14.5000   -5.0860 C   0  0  0  0  0  0  0  0  0  0  0  0
    0.8460   15.7620   -4.6750 C   0  0  0  0  0  0  0  0  0  0  0  0
   -3.4020   15.0920   -3.4860 C   0  0  0  0  0  0  0  0  0  0  0  0
   -1.0870   13.5560   -3.9080 C   0  0  0  0  0  0  0  0  0  0  0  0
    1.2950   14.6610   -3.7320 C   0  0  0  0  0  0  0  0  0  0  0  0
   -4.5690   15.3100   -2.6830 O   0  0  0  0  0  0  0  0  0  0  0  0
    0.1630   13.8490   -3.0750 C   0  0  0  0  0  0  0  0  0  0  0  0
    0.7600   12.5660   -2.5500 C   0  0  0  0  0  0  0  0  0  0  0  0
   -4.4350   14.5090   -1.4960 C   0  0  0  0  0  0  0  0  0  0  0  0
    0.0610   11.4290   -2.7590 O   0  0  0  0  0  0  0  0  0  0  0  0
    1.8180   12.5570   -1.9610 O   0  0  0  0  0  0  0  0  0  0  0  0
   -3.2030   14.7840   -0.9720 F   0  0  0  0  0  0  0  0  0  0  0  0
   -4.3240   13.2270   -1.9530 F   0  0  0  0  0  0  0  0  0  0  0  0
   -5.5290   14.6050   -0.4230 C   0  0  0  0  0  0  0  0  0  0  0  0
   -6.8400   14.4000   -0.7310 N   0  0  0  0  0  0  0  0  0  0  0  0
   -5.0870   14.8890    0.8210 N   0  0  0  0  0  0  0  0  0  0  0  0
   -7.7250   14.4890    0.2940 C   0  0  0  0  0  0  0  0  0  0  0  0
   -6.0140   14.9640    1.7880 C   0  0  0  0  0  0  0  0  0  0  0  0
   -7.3540   14.7720    1.5920 C   0  0  0  0  0  0  0  0  0  0  0  0
   -8.2490   14.8930    2.7380 C   0  0  0  0  0  0  0  0  0  0  0  0
   -7.6550   14.7640    3.9610 N   0  0  0  0  0  0  0  0  0  0  0  0
   -9.4490   15.1070    2.6130 O   0  0  0  0  0  0  0  0  0  0  0  0
  1  2  1  0
  2  3  2  3
  2  4  1  0
  3  5  1  0
  4  6  1  0
  4  7  1  0
  5  8  1  0
  6  9  1  0
  7 10  1  0
  8 11  1  0
  9 12  1  0
 10 12  1  0
 12 13  1  0
 11 14  1  0
 13 15  1  0
 13 16  2  0
 14 17  1  0
 14 18  1  0
 14 19  1  0
 19 20  2  0
 19 21  1  0
 20 22  1  0
 21 23  2  0
 22 24  2  0
 23 24  1  0
 24 25  1  0
 25 26  1  0
 25 27  2  0
M  END
