x1018_0_A-x0438_0_A
     RDKit          3D

 14 15  0  0  0  0  0  0  0  0999 V2000
   -8.3310   14.2610    0.9860 C   0  0  0  0  0  0  0  0  0  0  0  0
   -9.0970   15.2370    2.2880 S   0  0  0  0  0  0  0  0  0  0  0  0
   -7.9770   15.3860    3.6680 C   0  0  0  0  0  0  0  0  0  0  0  0
   -6.8700   14.5240    0.5950 C   0  0  0  0  0  0  0  0  0  0  0  0
  -10.2500   14.4930    2.7740 O   0  0  0  0  0  0  0  0  0  0  0  0
   -9.3510   16.5450    1.7350 O   0  0  0  0  0  0  0  0  0  0  0  0
   -6.6000   14.6380   -0.6830 N   0  0  0  0  0  0  0  0  0  0  0  0
   -5.8170   14.5970    1.6600 C   0  0  0  0  0  0  0  0  0  0  0  0
   -5.2740   14.8020   -0.9570 N   0  0  0  0  0  0  0  0  0  0  0  0
   -4.5320   14.7620    1.2940 C   0  0  0  0  0  0  0  0  0  0  0  0
   -4.8020   14.9190   -2.2080 N   0  0  0  0  0  0  0  0  0  0  0  0
   -4.2210   14.8660   -0.0720 C   0  0  0  0  0  0  0  0  0  0  0  0
   -3.1100   15.0150   -0.7550 N   0  0  0  0  0  0  0  0  0  0  0  0
   -3.4840   15.0450   -2.0780 N   0  0  0  0  0  0  0  0  0  0  0  0
  2  1  1  0
  2  3  1  0
  1  4  1  0
  2  5  2  0
  2  6  2  0
  4  7  2  0
  4  8  1  0
  7  9  1  0
  8 10  2  0
  9 11  1  0
  9 12  1  0
 10 12  1  0
 12 13  2  0
 11 14  2  0
 13 14  1  0
M  END
