x1012_0_A-x0524_0_A
     RDKit          3D

 32 34  0  0  0  0  0  0  0  0999 V2000
   -0.3470   18.1860   -4.6590 N   0  0  0  0  0  0  0  0  0  0  0  0
   -1.2400   17.1840   -4.7750 C   0  0  0  0  0  0  0  0  0  0  0  0
   -2.4270   17.4710   -4.7770 O   0  0  0  0  0  0  0  0  0  0  0  0
   -0.7350   15.9060   -4.8520 N   0  0  0  0  0  0  0  0  0  0  0  0
   -1.6870   14.7940   -4.8060 C   0  0  0  0  0  0  0  0  0  0  0  0
    0.6910   15.5490   -4.7340 C   0  0  0  0  0  0  0  0  0  0  0  0
   -1.4470   13.9450   -3.5620 C   0  0  0  0  0  0  0  0  0  0  0  0
    0.9580   14.6420   -3.5180 C   0  0  0  0  0  0  0  0  0  0  0  0
   -0.0010   13.4330   -3.5090 C   0  0  0  0  0  0  0  0  0  0  0  0
    0.1890   12.4790   -2.3250 C   0  0  0  0  0  0  0  0  0  0  0  0
   -0.1950   11.2050   -2.6390 O   0  0  0  0  0  0  0  0  0  0  0  0
    0.6050   12.7830   -1.2190 O   0  0  0  0  0  0  0  0  0  0  0  0
   -0.0410   10.8060   -4.0090 C   0  0  0  0  0  0  0  0  0  0  0  0
   -1.3280   11.0350   -4.7860 C   0  0  0  0  0  0  0  0  0  0  0  0
   -1.0850   11.5980   -6.1960 C   0  0  0  0  0  0  0  0  0  0  0  0
   -0.3430   10.6180   -7.0020 N   0  0  0  0  0  0  0  0  0  0  0  0
   -0.8740    9.4700   -7.2720 C   0  0  0  0  0  0  0  0  0  0  0  0
   -0.3480    8.4220   -8.0000 N   0  0  0  0  0  0  0  0  0  0  0  0
   -2.2650    9.2110   -6.7250 C   0  0  0  0  0  0  0  0  0  0  0  0
    0.6160    8.5520   -9.0330 C   0  0  0  0  0  0  0  0  0  0  0  0
    1.7430    7.7300   -8.9860 C   0  0  0  0  0  0  0  0  0  0  0  0
    0.5050    9.4520  -10.1010 C   0  0  0  0  0  0  0  0  0  0  0  0
    2.7290    7.7970   -9.9700 C   0  0  0  0  0  0  0  0  0  0  0  0
    1.4930    9.5160  -11.0870 C   0  0  0  0  0  0  0  0  0  0  0  0
    2.6200    8.6900  -11.0400 C   0  0  0  0  0  0  0  0  0  0  0  0
    3.6350    8.7110  -12.0010 N   0  0  0  0  0  0  0  0  0  0  0  0
    3.9000    9.5580  -13.0930 C   0  0  0  0  0  0  0  0  0  0  0  0
    3.1910   10.7550  -13.2350 C   0  0  0  0  0  0  0  0  0  0  0  0
    4.8600    9.2440  -14.0500 C   0  0  0  0  0  0  0  0  0  0  0  0
    3.4420   11.6130  -14.3060 C   0  0  0  0  0  0  0  0  0  0  0  0
    5.1180   10.1000  -15.1240 C   0  0  0  0  0  0  0  0  0  0  0  0
    4.4060   11.2860  -15.2490 C   0  0  0  0  0  0  0  0  0  0  0  0
  1  2  1  0
  2  3  2  0
  2  4  1  0
  4  5  1  0
  4  6  1  0
  5  7  1  0
  6  8  1  0
  7  9  1  0
  8  9  1  0
  9 10  1  0
 10 11  1  0
 10 12  2  0
 11 13  1  0
 13 14  1  0
 14 15  1  0
 15 16  1  0
 16 17  2  3
 17 18  1  0
 17 19  1  0
 18 20  1  0
 20 21  2  0
 20 22  1  0
 21 23  1  0
 22 24  2  0
 23 25  2  0
 24 25  1  0
 25 26  1  0
 26 27  1  0
 27 28  2  0
 27 29  1  0
 28 30  1  0
 29 31  2  0
 30 32  2  0
 31 32  1  0
M  END
