x1015_0_A-x0849_0_A
     RDKit          3D

 27 30  0  0  0  0  0  0  0  0999 V2000
   -1.4630   13.9200   -5.1240 C   0  0  0  0  0  0  0  0  0  0  0  0
   -0.1540   13.3000   -4.6450 C   0  0  2  0  0  0  0  0  0  0  0  0
   -0.2860   11.9220   -4.2590 N   0  0  0  0  0  0  0  0  0  0  0  0
    0.0980   13.8170   -3.3100 C   0  0  0  0  0  0  0  0  0  0  0  0
   -0.2150   14.9320   -2.8950 N   0  0  0  0  0  0  0  0  0  0  0  0
    0.2670   11.6650   -2.9800 C   0  0  0  0  0  0  0  0  0  0  0  0
    0.7270   12.8760   -2.5550 N   0  0  0  0  0  0  0  0  0  0  0  0
   -0.6620   11.0590   -5.2680 C   0  0  0  0  0  0  0  0  0  0  0  0
    0.3510   10.6200   -2.3190 O   0  0  0  0  0  0  0  0  0  0  0  0
    0.1950   15.1140   -1.5910 C   0  0  0  0  0  0  0  0  0  0  0  0
   -0.0850   11.2460   -6.5280 C   0  0  0  0  0  0  0  0  0  0  0  0
   -1.5860   10.0420   -5.0820 C   0  0  0  0  0  0  0  0  0  0  0  0
   -0.4290   10.4310   -7.5910 C   0  0  0  0  0  0  0  0  0  0  0  0
   -1.9380    9.2170   -6.1460 C   0  0  0  0  0  0  0  0  0  0  0  0
   -0.7260   14.8900   -0.4490 C   0  0  0  0  0  0  0  0  0  0  0  0
   -1.3580    9.4190   -7.3950 C   0  0  0  0  0  0  0  0  0  0  0  0
   -2.1690   14.8860   -0.2220 C   0  0  0  0  0  0  0  0  0  0  0  0
    0.1200   14.6650    0.5380 C   0  0  0  0  0  0  0  0  0  0  0  0
   -1.7940    8.4110   -8.7080 Cl  0  0  0  0  0  0  0  0  0  0  0  0
   -2.4850   14.6550    1.1350 C   0  0  0  0  0  0  0  0  0  0  0  0
   -3.3450   15.0700   -1.0480 C   0  0  0  0  0  0  0  0  0  0  0  0
   -0.3050   14.4280    1.7670 C   0  0  0  0  0  0  0  0  0  0  0  0
   -3.4000   15.3530   -2.9310 Br  0  0  0  0  0  0  0  0  0  0  0  0
   -3.7040   14.6360    1.6230 N   0  0  0  0  0  0  0  0  0  0  0  0
   -4.6290   15.0490   -0.4990 C   0  0  0  0  0  0  0  0  0  0  0  0
   -1.5840   14.4330    2.0640 N   0  0  0  0  0  0  0  0  0  0  0  0
   -4.7490   14.8340    0.8370 C   0  0  0  0  0  0  0  0  0  0  0  0
  2  1  1  1
  2  3  1  0
  2  4  1  0
  4  5  2  3
  3  6  1  0
  4  7  1  0
  6  7  1  0
  3  8  1  0
  6  9  2  0
  5 10  1  0
  8 11  2  0
  8 12  1  0
 11 13  1  0
 12 14  2  0
 10 15  1  0
 13 16  2  0
 14 16  1  0
 15 17  1  0
 15 18  2  0
 16 19  1  0
 17 20  2  0
 17 21  1  0
 18 22  1  0
 21 23  1  0
 20 24  1  0
 21 25  2  0
 20 26  1  0
 22 26  2  0
 24 27  2  0
 25 27  1  0
M  END
