x1012_0_A_α-x0805_0_A_β
     RDKit          3D

 12 12  0  0  0  0  0  0  0  0999 V2000
   -0.4070   18.2120   -4.6700 N   0  0  0  0  0  0  0  0  0  0  0  0
   -1.2660   17.1740   -4.7770 C   0  0  0  0  0  0  0  0  0  0  0  0
   -2.4630   17.4230   -4.7550 O   0  0  0  0  0  0  0  0  0  0  0  0
   -0.7170   15.9130   -4.8680 N   0  0  0  0  0  0  0  0  0  0  0  0
   -1.6420   14.7730   -4.8480 C   0  0  0  0  0  0  0  0  0  0  0  0
    0.7190   15.6310   -4.6850 C   0  0  0  0  0  0  0  0  0  0  0  0
   -1.3880   13.8610   -3.6590 C   0  0  0  0  0  0  0  0  0  0  0  0
    1.0150   14.6480   -3.5490 C   0  0  0  0  0  0  0  0  0  0  0  0
    0.0840   13.4270   -3.5940 C   0  0  0  0  0  0  0  0  0  0  0  0
    0.2760   12.5140   -2.3980 C   0  0  0  0  0  0  0  0  0  0  0  0
    0.0780   11.2220   -2.7180 O   0  0  0  0  0  0  0  0  0  0  0  0
    0.5570   12.8210   -1.2520 O   0  0  0  0  0  0  0  0  0  0  0  0
  1  2  1  0
  2  3  2  0
  2  4  1  0
  4  5  1  0
  4  6  1  0
  5  7  1  0
  6  8  1  0
  7  9  1  0
  8  9  1  0
  9 10  1  0
 10 11  1  0
 10 12  2  0
M  END
