x1012_0_A_α-x0962_1_A_α
     RDKit          3D

 21 22  0  0  0  0  0  0  0  0999 V2000
   -0.5970   18.1520   -5.0090 N   0  0  0  0  0  0  0  0  0  0  0  0
   -1.2250   17.0110   -4.6460 C   0  0  0  0  0  0  0  0  0  0  0  0
   -2.4210   17.1080   -4.2560 N   0  0  0  0  0  0  0  0  0  0  0  0
   -0.4930   15.8530   -4.7290 N   0  0  0  0  0  0  0  0  0  0  0  0
   -3.0220   15.8550   -3.8140 C   0  0  0  0  0  0  0  0  0  0  0  0
   -1.1580   14.5940   -5.1110 C   0  0  0  0  0  0  0  0  0  0  0  0
    0.9190   15.7440   -4.4060 C   0  0  0  0  0  0  0  0  0  0  0  0
   -2.4670   15.5380   -2.4300 C   0  0  0  0  0  0  0  0  0  0  0  0
   -1.0810   13.5530   -4.0070 C   0  0  0  0  0  0  0  0  0  0  0  0
    1.1030   14.6740   -3.3160 C   0  0  0  0  0  0  0  0  0  0  0  0
   -3.5620   15.3330   -1.4910 C   0  0  0  0  0  0  0  0  0  0  0  0
    0.3770   13.3340   -3.5950 C   0  0  0  0  0  0  0  0  0  0  0  0
    0.4090   12.3960   -2.3990 C   0  0  0  0  0  0  0  0  0  0  0  0
   -4.4820   15.1490   -0.7650 C   0  0  0  0  0  0  0  0  0  0  0  0
    0.1420   11.1170   -2.7450 O   0  0  0  0  0  0  0  0  0  0  0  0
    0.6280   12.7190   -1.2420 O   0  0  0  0  0  0  0  0  0  0  0  0
   -5.5900   14.8920    0.0480 C   0  0  0  0  0  0  0  0  0  0  0  0
   -5.5670   14.7560    1.4040 N   0  0  0  0  0  0  0  0  0  0  0  0
   -6.9070   14.7190   -0.3020 C   0  0  0  0  0  0  0  0  0  0  0  0
   -6.8400   14.5110    1.8190 C   0  0  0  0  0  0  0  0  0  0  0  0
   -7.6790   14.4830    0.8060 N   0  0  0  0  0  0  0  0  0  0  0  0
  1  2  1  0
  2  3  2  3
  2  4  1  0
  3  5  1  0
  4  6  1  0
  4  7  1  0
  5  8  1  0
  6  9  1  0
  7 10  1  0
  8 11  1  0
  9 12  1  0
 10 12  1  0
 12 13  1  0
 11 14  3  0
 13 15  1  0
 13 16  2  0
 14 17  1  0
 17 18  1  0
 17 19  2  0
 18 20  1  0
 19 21  1  0
 20 21  2  0
M  END
