x1015_0_A_α-x0628_0_A_α
     RDKit          3D

 20 22  0  0  0  0  0  0  0  0999 V2000
   -1.9890   15.1340   -4.5690 C   0  0  0  0  0  0  0  0  0  0  0  0
   -0.7010   14.5040   -4.0940 C   0  0  2  0  0  0  0  0  0  0  0  0
   -0.8850   13.0640   -3.8680 N   0  0  0  0  0  0  0  0  0  0  0  0
   -0.3570   14.9630   -2.6580 C   0  0  0  0  0  0  0  0  0  0  0  0
    0.1000   16.0180   -2.2750 O   0  0  0  0  0  0  0  0  0  0  0  0
   -0.1920   12.8920   -2.6580 C   0  0  1  0  0  0  0  0  0  0  0  0
   -0.6590   13.9000   -1.8650 N   0  0  0  0  0  0  0  0  0  0  0  0
   -1.0070   12.1040   -4.8650 C   0  0  0  0  0  0  0  0  0  0  0  0
   -0.2790   11.6580   -2.1720 N   0  0  0  0  0  0  0  0  0  0  0  0
    0.0940   11.7500   -5.6230 C   0  0  0  0  0  0  0  0  0  0  0  0
   -2.2130   11.4560   -5.1500 C   0  0  0  0  0  0  0  0  0  0  0  0
   -3.4490   11.7760   -4.3630 C   0  0  0  0  0  0  0  0  0  0  0  0
    1.3540   12.4450   -5.2300 C   0  0  0  0  0  0  0  0  0  0  0  0
    0.7040   11.2970   -2.7720 C   0  0  0  0  0  0  0  0  0  0  0  0
    0.0150   10.7910   -6.6750 C   0  0  0  0  0  0  0  0  0  0  0  0
   -2.3090   10.4880   -6.1830 C   0  0  0  0  0  0  0  0  0  0  0  0
    0.9000   10.0170   -2.5350 O   0  0  0  0  0  0  0  0  0  0  0  0
    1.6310   12.1940   -3.7080 C   0  0  0  0  0  0  0  0  0  0  0  0
   -1.1980   10.1640   -6.9460 C   0  0  0  0  0  0  0  0  0  0  0  0
   -1.3410    8.9940   -8.2040 Cl  0  0  0  0  0  0  0  0  0  0  0  0
  2  1  1  1
  2  3  1  0
  2  4  1  0
  4  5  2  0
  3  6  1  0
  4  7  1  0
  6  7  1  1
  3  8  1  0
  6  9  1  0
  8 10  2  0
  8 11  1  0
 11 12  1  0
 10 13  1  0
  9 14  2  0
 10 15  1  0
 11 16  2  0
 14 17  1  0
 13 18  1  0
 14 18  1  0
 15 19  2  0
 16 19  1  0
 19 20  1  0
M  END
