x1012_0_A-x0592_0_A
     RDKit          3D

 24 25  0  0  0  0  0  0  0  0999 V2000
   -0.2220   18.1670   -4.7820 N   0  0  0  0  0  0  0  0  0  0  0  0
   -1.2450   17.2860   -4.8000 C   0  0  0  0  0  0  0  0  0  0  0  0
   -2.3810   17.7170   -4.8950 O   0  0  0  0  0  0  0  0  0  0  0  0
   -0.9380   15.9500   -4.6820 N   0  0  0  0  0  0  0  0  0  0  0  0
   -1.7700   15.0370   -3.8740 C   0  0  0  0  0  0  0  0  0  0  0  0
    0.4750   15.5820   -4.9900 C   0  0  0  0  0  0  0  0  0  0  0  0
   -0.8580   14.4780   -2.8010 C   0  0  1  0  0  0  0  0  0  0  0  0
    1.1470   14.4910   -4.1420 C   0  0  0  0  0  0  0  0  0  0  0  0
   -1.4650   13.8550   -1.5270 C   0  0  0  0  0  0  0  0  0  0  0  0
    0.1160   13.5580   -3.5150 C   0  0  1  0  0  0  0  0  0  0  0  0
    0.7280   12.5620   -2.5660 C   0  0  0  0  0  0  0  0  0  0  0  0
   -2.8780   14.1480   -1.3610 N   0  0  0  0  0  0  0  0  0  0  0  0
    0.3630   11.2750   -2.7730 O   0  0  0  0  0  0  0  0  0  0  0  0
    1.4840   12.8270   -1.6690 O   0  0  0  0  0  0  0  0  0  0  0  0
   -3.3470   14.5730   -0.2430 C   0  0  0  0  0  0  0  0  0  0  0  0
   -2.7330   14.8620    0.9560 N   0  0  0  0  0  0  0  0  0  0  0  0
   -4.7790   14.7410   -0.2490 C   0  0  0  0  0  0  0  0  0  0  0  0
   -5.5870   15.2400   -1.3000 C   0  0  0  0  0  0  0  0  0  0  0  0
   -5.6860   14.4420    0.7490 C   0  0  0  0  0  0  0  0  0  0  0  0
   -6.8870   15.2500   -0.9960 N   0  0  0  0  0  0  0  0  0  0  0  0
   -6.9160   14.7590    0.2580 N   0  0  0  0  0  0  0  0  0  0  0  0
   -8.1910   14.6150    0.9470 C   0  0  0  0  0  0  0  0  0  0  0  0
   -8.0070   14.0820    2.3650 C   0  0  0  0  0  0  0  0  0  0  0  0
   -7.3100   15.0050    3.1950 O   0  0  0  0  0  0  0  0  0  0  0  0
  1  2  1  0
  2  3  2  0
  2  4  1  0
  4  5  1  0
  4  6  1  0
  5  7  1  0
  6  8  1  0
  7  9  1  1
  7 10  1  0
  8 10  1  0
 10 11  1  1
  9 12  1  0
 11 13  1  0
 11 14  2  0
 12 15  2  3
 15 16  1  0
 15 17  1  0
 17 18  1  0
 17 19  2  0
 18 20  2  0
 19 21  1  0
 20 21  1  0
 21 22  1  0
 22 23  1  0
 23 24  1  0
M  END
