x1018_0_A_α-x0900_1_A_α
     RDKit          3D

 21 23  0  0  0  0  0  0  0  0999 V2000
   -8.3590   14.5030    0.9110 Cl  0  0  0  0  0  0  0  0  0  0  0  0
   -6.7070   14.6860    0.4340 C   0  0  0  0  0  0  0  0  0  0  0  0
   -5.6520   14.8540    1.4780 C   0  0  0  0  0  0  0  0  0  0  0  0
   -6.4720   14.6780   -0.8430 N   0  0  0  0  0  0  0  0  0  0  0  0
   -5.1510   14.8320   -1.1450 N   0  0  0  0  0  0  0  0  0  0  0  0
   -4.3820   14.6650    1.0840 C   0  0  0  0  0  0  0  0  0  0  0  0
   -4.7550   14.7570   -2.4650 N   0  0  0  0  0  0  0  0  0  0  0  0
   -4.0970   14.2980   -0.3250 C   0  0  2  0  0  0  0  0  0  0  0  0
   -2.9210   14.8650   -0.9780 N   0  0  0  0  0  0  0  0  0  0  0  0
   -3.3170   14.9440   -2.4090 N   0  0  0  0  0  0  0  0  0  0  0  0
   -2.6360   13.8700   -3.1730 C   0  0  0  0  0  0  0  0  0  0  0  0
   -3.3400   13.4880   -4.4950 C   0  0  0  0  0  0  0  0  0  0  0  0
   -2.4980   12.6600   -5.4830 C   0  0  0  0  0  0  0  0  0  0  0  0
   -3.2900   11.4560   -6.0280 C   0  0  0  0  0  0  0  0  0  0  0  0
   -2.7170   10.8260   -7.3130 C   0  0  0  0  0  0  0  0  0  0  0  0
   -1.4190   10.0210   -7.1510 C   0  0  2  0  0  0  0  0  0  0  0  0
   -0.8360    9.6030   -8.4830 C   0  0  0  0  0  0  0  0  0  0  0  0
   -1.5450    8.6370   -6.4990 C   0  0  0  0  0  0  0  0  0  0  0  0
   -1.0680   10.0640   -9.5910 O   0  0  0  0  0  0  0  0  0  0  0  0
    0.0330    8.5720   -8.2120 N   0  0  0  0  0  0  0  0  0  0  0  0
   -0.2960    7.9160   -6.9760 C   0  0  0  0  0  0  0  0  0  0  0  0
  1  2  1  0
  2  3  1  0
  2  4  2  0
  4  5  1  0
  3  6  2  0
  5  7  1  0
  5  8  1  0
  8  6  1  1
  8  9  1  0
  7 10  1  0
  9 10  1  0
 10 11  1  0
 11 12  1  0
 12 13  1  0
 13 14  1  0
 14 15  1  0
 16 15  1  6
 16 17  1  0
 16 18  1  0
 17 19  2  0
 17 20  1  0
 18 21  1  0
 20 21  1  0
M  END
