x1015_0_A-x0371_0_A
     RDKit          3D

 35 39  0  0  0  0  0  0  0  0999 V2000
   -1.4330   14.2650   -4.0360 C   0  0  0  0  0  0  0  0  0  0  0  0
   -0.0530   13.6830   -3.7380 C   0  0  2  0  0  0  0  0  0  0  0  0
   -0.0260   12.2100   -3.8950 N   0  0  0  0  0  0  0  0  0  0  0  0
    0.3750   13.7340   -2.2420 C   0  0  0  0  0  0  0  0  0  0  0  0
    0.1830   14.6060   -1.2890 N   0  0  0  0  0  0  0  0  0  0  0  0
    0.4190   11.6200   -2.7110 C   0  0  0  0  0  0  0  0  0  0  0  0
    1.0580   12.5950   -2.0390 N   0  0  0  0  0  0  0  0  0  0  0  0
   -0.4450   11.4660   -5.0260 C   0  0  0  0  0  0  0  0  0  0  0  0
    0.2920   10.4680   -2.2950 O   0  0  0  0  0  0  0  0  0  0  0  0
   -0.5500   15.8660   -1.3370 C   0  0  0  0  0  0  0  0  0  0  0  0
    0.1030   11.6830   -6.2990 C   0  0  0  0  0  0  0  0  0  0  0  0
   -1.4280   10.4690   -4.8960 C   0  0  0  0  0  0  0  0  0  0  0  0
   -1.8630   15.7580   -2.0980 C   0  0  0  0  0  0  0  0  0  0  0  0
   -0.3170   10.9280   -7.4000 C   0  0  0  0  0  0  0  0  0  0  0  0
   -1.8520    9.7130   -5.9910 C   0  0  0  0  0  0  0  0  0  0  0  0
   -1.2930    9.9440   -7.2430 C   0  0  0  0  0  0  0  0  0  0  0  0
   -3.2000   15.4520   -1.4630 C   0  0  0  0  0  0  0  0  0  0  0  0
   -1.8110    9.0120   -8.5890 Cl  0  0  0  0  0  0  0  0  0  0  0  0
   -3.5240   15.1460   -0.1070 C   0  0  0  0  0  0  0  0  0  0  0  0
   -4.1820   15.4930   -2.4290 C   0  0  0  0  0  0  0  0  0  0  0  0
   -4.8990   14.8850    0.1360 C   0  0  0  0  0  0  0  0  0  0  0  0
   -5.5030   15.2460   -2.1600 C   0  0  0  0  0  0  0  0  0  0  0  0
   -5.6480   14.5430    1.2420 N   0  0  0  0  0  0  0  0  0  0  0  0
   -5.8590   14.9370   -0.8700 C   0  0  0  0  0  0  0  0  0  0  0  0
   -6.9670   14.4100    0.8500 C   0  0  0  0  0  0  0  0  0  0  0  0
   -7.1070   14.6520   -0.4190 N   0  0  0  0  0  0  0  0  0  0  0  0
   -8.0840   14.0330    1.7580 C   0  0  0  0  0  0  0  0  0  0  0  0
   -7.8060   14.5640    3.0590 N   0  0  0  0  0  0  0  0  0  0  0  0
   -8.5640   15.4870    3.7330 C   0  0  0  0  0  0  0  0  0  0  0  0
   -9.2550   16.2650    3.0690 O   0  0  0  0  0  0  0  0  0  0  0  0
   -8.5460   15.4980    5.1690 C   0  0  0  0  0  0  0  0  0  0  0  0
   -7.9980   14.4420    5.8400 O   0  0  0  0  0  0  0  0  0  0  0  0
   -9.0080   16.4320    6.0730 C   0  0  0  0  0  0  0  0  0  0  0  0
   -8.7220   15.9150    7.3580 C   0  0  0  0  0  0  0  0  0  0  0  0
   -8.1050   14.7020    7.1600 C   0  0  0  0  0  0  0  0  0  0  0  0
  2  1  1  1
  2  3  1  0
  2  4  1  0
  4  5  2  3
  3  6  1  0
  4  7  1  0
  6  7  1  0
  3  8  1  0
  6  9  2  0
  5 10  1  0
  8 11  2  0
  8 12  1  0
 10 13  1  0
 11 14  1  0
 12 15  2  0
 14 16  2  0
 15 16  1  0
 13 17  1  0
 16 18  1  0
 17 19  2  0
 17 20  1  0
 19 21  1  0
 20 22  2  0
 21 23  1  0
 21 24  2  0
 22 24  1  0
 23 25  1  0
 24 26  1  0
 25 26  2  0
 25 27  1  0
 27 28  1  0
 28 29  1  0
 29 30  2  0
 29 31  1  0
 31 32  1  0
 31 33  2  0
 33 34  1  0
 32 35  1  0
 34 35  2  0
M  END
