x1012_0_A-x0900_1_A
     RDKit          3D

 20 21  0  0  0  0  0  0  0  0999 V2000
   -0.2650   18.1580   -4.7140 N   0  0  0  0  0  0  0  0  0  0  0  0
   -1.2100   17.1930   -4.7800 C   0  0  0  0  0  0  0  0  0  0  0  0
   -2.3820   17.5450   -4.7640 O   0  0  0  0  0  0  0  0  0  0  0  0
   -0.7820   15.8830   -4.8300 N   0  0  0  0  0  0  0  0  0  0  0  0
   -1.7190   14.7540   -4.7590 C   0  0  0  0  0  0  0  0  0  0  0  0
    0.6660   15.5990   -4.7240 C   0  0  0  0  0  0  0  0  0  0  0  0
   -1.3920   13.7870   -3.6370 C   0  0  0  0  0  0  0  0  0  0  0  0
    0.9970   14.5820   -3.6230 C   0  0  0  0  0  0  0  0  0  0  0  0
    0.0720   13.3540   -3.7110 C   0  0  0  0  0  0  0  0  0  0  0  0
    0.3250   12.3000   -2.6390 C   0  0  0  0  0  0  0  0  0  0  0  0
    0.3940   11.0530   -3.2220 O   0  0  0  0  0  0  0  0  0  0  0  0
    0.4490   12.5310   -1.4310 O   0  0  0  0  0  0  0  0  0  0  0  0
   -0.7270   10.6150   -4.0470 C   0  0  0  0  0  0  0  0  0  0  0  0
   -0.4180   10.5860   -5.5600 C   0  0  0  0  0  0  0  0  0  0  0  0
   -0.4590    9.1680   -6.2090 C   0  0  2  0  0  0  0  0  0  0  0  0
    0.0490    9.1570   -7.5640 N   0  0  0  0  0  0  0  0  0  0  0  0
   -1.8780    8.6720   -6.4470 C   0  0  0  0  0  0  0  0  0  0  0  0
   -0.9360    9.4720   -8.4790 C   0  0  0  0  0  0  0  0  0  0  0  0
   -2.2660    9.3050   -7.7830 C   0  0  0  0  0  0  0  0  0  0  0  0
   -0.7510    9.8190   -9.6340 O   0  0  0  0  0  0  0  0  0  0  0  0
  1  2  1  0
  2  3  2  0
  2  4  1  0
  4  5  1  0
  4  6  1  0
  5  7  1  0
  6  8  1  0
  7  9  1  0
  8  9  1  0
  9 10  1  0
 10 11  1  0
 10 12  2  0
 11 13  1  0
 13 14  1  0
 15 14  1  6
 15 16  1  0
 15 17  1  0
 16 18  1  0
 17 19  1  0
 18 19  1  0
 18 20  2  0
M  END
