x1018_0_A_α-x0933_0_A_α
     RDKit          3D

 10 11  0  0  0  0  0  0  0  0999 V2000
   -8.3670   14.5670    0.8850 Cl  0  0  0  0  0  0  0  0  0  0  0  0
   -6.6910   14.6510    0.4630 C   0  0  0  0  0  0  0  0  0  0  0  0
   -5.6760   14.6170    1.5560 C   0  0  0  0  0  0  0  0  0  0  0  0
   -6.4360   14.7470   -0.7990 N   0  0  0  0  0  0  0  0  0  0  0  0
   -5.1100   14.8100   -1.0480 N   0  0  0  0  0  0  0  0  0  0  0  0
   -4.3830   14.6860    1.2160 C   0  0  0  0  0  0  0  0  0  0  0  0
   -4.6150   14.9100   -2.2870 N   0  0  0  0  0  0  0  0  0  0  0  0
   -4.0600   14.7870   -0.1500 C   0  0  0  0  0  0  0  0  0  0  0  0
   -2.9360   14.8650   -0.8190 N   0  0  0  0  0  0  0  0  0  0  0  0
   -3.3000   14.9440   -2.1470 N   0  0  0  0  0  0  0  0  0  0  0  0
  1  2  1  0
  2  3  1  0
  2  4  2  0
  4  5  1  0
  3  6  2  0
  5  7  1  0
  5  8  1  0
  6  8  1  0
  8  9  2  0
  7 10  2  0
  9 10  1  0
M  END
