x1015_0_A-x0900_0_A
     RDKit          3D

 24 26  0  0  0  0  0  0  0  0999 V2000
   -0.6670   14.4210   -4.7340 C   0  0  0  0  0  0  0  0  0  0  0  0
   -0.7260   13.3850   -3.6180 C   0  0  1  0  0  0  0  0  0  0  0  0
   -0.1090   12.1150   -3.9470 N   0  0  0  0  0  0  0  0  0  0  0  0
    0.1970   13.7520   -2.4690 C   0  0  0  0  0  0  0  0  0  0  0  0
    0.3810   14.8550   -1.8820 N   0  0  0  0  0  0  0  0  0  0  0  0
    0.3790   11.5900   -2.7400 C   0  0  0  0  0  0  0  0  0  0  0  0
    0.8800   12.6610   -2.0720 N   0  0  0  0  0  0  0  0  0  0  0  0
   -0.4960   11.3540   -5.0760 C   0  0  0  0  0  0  0  0  0  0  0  0
    0.3690   10.4370   -2.3200 O   0  0  0  0  0  0  0  0  0  0  0  0
   -0.3670   16.0130   -2.2970 C   0  0  0  0  0  0  0  0  0  0  0  0
    0.0620   11.5690   -6.3410 C   0  0  0  0  0  0  0  0  0  0  0  0
   -1.4680   10.3470   -4.9480 C   0  0  0  0  0  0  0  0  0  0  0  0
   -1.8520   15.6710   -2.1350 C   0  0  0  0  0  0  0  0  0  0  0  0
   -0.3320   10.8080   -7.4460 C   0  0  0  0  0  0  0  0  0  0  0  0
   -1.8650    9.5840   -6.0470 C   0  0  0  0  0  0  0  0  0  0  0  0
   -2.3830   15.6450   -0.6950 C   0  0  0  0  0  0  0  0  0  0  0  0
   -1.2980    9.8170   -7.2910 C   0  0  0  0  0  0  0  0  0  0  0  0
   -1.7920    8.8740   -8.6390 Cl  0  0  0  0  0  0  0  0  0  0  0  0
   -3.5950   14.8220   -0.2840 C   0  0  2  0  0  0  0  0  0  0  0  0
   -4.7780   15.0100   -1.0750 N   0  0  0  0  0  0  0  0  0  0  0  0
   -4.0690   15.1180    1.1350 C   0  0  0  0  0  0  0  0  0  0  0  0
   -5.9180   14.9020   -0.3040 C   0  0  0  0  0  0  0  0  0  0  0  0
   -5.5000   14.6000    1.1140 C   0  0  0  0  0  0  0  0  0  0  0  0
   -7.0630   15.0260   -0.7060 O   0  0  0  0  0  0  0  0  0  0  0  0
  2  1  1  6
  2  3  1  0
  2  4  1  0
  4  5  2  3
  3  6  1  0
  4  7  1  0
  6  7  1  0
  3  8  1  0
  6  9  2  0
  5 10  1  0
  8 11  2  0
  8 12  1  0
 10 13  1  0
 11 14  1  0
 12 15  2  0
 13 16  1  0
 14 17  2  0
 15 17  1  0
 17 18  1  0
 19 16  1  6
 19 20  1  0
 19 21  1  0
 20 22  1  0
 21 23  1  0
 22 23  1  0
 22 24  2  0
M  END
