x1015_0_A_α-x0837_0_A_α
     RDKit          3D

 25 27  0  0  0  0  0  0  0  0999 V2000
   -0.4190   14.5010   -4.5080 C   0  0  0  0  0  0  0  0  0  0  0  0
    0.3590   13.3870   -3.9610 C   0  0  2  0  0  0  0  0  0  0  0  0
   -0.0540   12.0590   -4.0580 N   0  0  0  0  0  0  0  0  0  0  0  0
    0.6870   13.4270   -2.5130 C   0  0  0  0  0  0  0  0  0  0  0  0
    0.2750   14.1440   -1.5630 N   0  0  0  0  0  0  0  0  0  0  0  0
    0.5940   11.4520   -2.9200 C   0  0  0  0  0  0  0  0  0  0  0  0
    1.5700   12.3790   -2.4560 N   0  0  0  0  0  0  0  0  0  0  0  0
   -0.4890   11.2870   -5.1440 C   0  0  0  0  0  0  0  0  0  0  0  0
    0.3730   10.3190   -2.3640 O   0  0  0  0  0  0  0  0  0  0  0  0
   -0.7130   15.0430   -1.9330 C   0  0  0  0  0  0  0  0  0  0  0  0
    0.0170   11.4660   -6.4090 C   0  0  0  0  0  0  0  0  0  0  0  0
   -1.4430   10.3040   -5.0240 C   0  0  0  0  0  0  0  0  0  0  0  0
   -1.6040   14.4730   -2.9670 C   0  0  0  0  0  0  0  0  0  0  0  0
   -0.3880   10.7250   -7.4860 C   0  0  0  0  0  0  0  0  0  0  0  0
   -1.8740    9.5400   -6.0820 C   0  0  0  0  0  0  0  0  0  0  0  0
   -3.6190   15.0640   -2.7880 I   0  0  0  0  0  0  0  0  0  0  0  0
   -1.3400    9.7520   -7.3260 C   0  0  0  0  0  0  0  0  0  0  0  0
   -1.9050    8.7650   -8.6580 Cl  0  0  0  0  0  0  0  0  0  0  0  0
   -4.4080   14.5390   -0.8670 C   0  0  1  0  0  0  0  0  0  0  0  0
   -3.6260   15.0750    0.2440 C   0  0  0  0  0  0  0  0  0  0  0  0
   -5.7490   15.2110   -0.8510 C   0  0  0  0  0  0  0  0  0  0  0  0
   -4.2190   15.1880    1.3930 C   0  0  0  0  0  0  0  0  0  0  0  0
   -6.4080   14.7860    0.4190 C   0  0  0  0  0  0  0  0  0  0  0  0
   -7.5980   14.4510    0.4500 O   0  0  0  0  0  0  0  0  0  0  0  0
   -5.5750   14.8120    1.6090 N   0  0  0  0  0  0  0  0  0  0  0  0
  2  1  1  1
  2  3  1  0
  2  4  1  0
  4  5  2  3
  3  6  1  0
  4  7  1  0
  6  7  1  0
  3  8  1  0
  6  9  2  0
  5 10  1  0
  8 11  2  0
  8 12  1  0
 10 13  1  0
 11 14  1  0
 12 15  2  0
 13 16  1  0
 14 17  2  0
 15 17  1  0
 17 18  1  0
 19 16  1  6
 19 20  1  0
 19 21  1  0
 20 22  2  0
 21 23  1  0
 23 24  2  0
 22 25  1  0
 23 25  1  0
M  END
