x1015_0_A-x0742_0_A
     RDKit          3D

 32 36  0  0  0  0  0  0  0  0999 V2000
   -1.2390   14.2230   -4.5270 C   0  0  0  0  0  0  0  0  0  0  0  0
    0.1090   13.5450   -4.2760 C   0  0  2  0  0  0  0  0  0  0  0  0
   -0.0090   12.0920   -4.1580 N   0  0  0  0  0  0  0  0  0  0  0  0
    0.5480   13.8360   -2.8700 C   0  0  0  0  0  0  0  0  0  0  0  0
    1.0580   14.8400   -2.3150 N   0  0  0  0  0  0  0  0  0  0  0  0
    0.1670   11.6520   -2.8340 C   0  0  0  0  0  0  0  0  0  0  0  0
    0.3160   12.7590   -2.0810 N   0  0  0  0  0  0  0  0  0  0  0  0
   -0.4630   11.3020   -5.2210 C   0  0  0  0  0  0  0  0  0  0  0  0
    0.1920   10.5060   -2.3720 O   0  0  0  0  0  0  0  0  0  0  0  0
    1.2440   14.5880   -0.9160 C   0  0  0  0  0  0  0  0  0  0  0  0
    0.0550   11.4930   -6.5070 C   0  0  0  0  0  0  0  0  0  0  0  0
   -1.4310   10.3120   -5.0310 C   0  0  0  0  0  0  0  0  0  0  0  0
   -0.3820   10.7160   -7.5760 C   0  0  0  0  0  0  0  0  0  0  0  0
   -1.8730    9.5300   -6.0970 C   0  0  0  0  0  0  0  0  0  0  0  0
   -0.0780   14.5230   -0.2380 C   0  0  0  0  0  0  0  0  0  0  0  0
   -1.3460    9.7360   -7.3650 C   0  0  0  0  0  0  0  0  0  0  0  0
   -0.2000   14.6190    1.1300 C   0  0  0  0  0  0  0  0  0  0  0  0
   -1.2520   14.3660   -0.9830 C   0  0  0  0  0  0  0  0  0  0  0  0
   -1.8870    8.7750   -8.6790 Cl  0  0  0  0  0  0  0  0  0  0  0  0
   -1.3570   14.5770    1.7730 N   0  0  0  0  0  0  0  0  0  0  0  0
   -2.4820   14.3240   -0.3430 C   0  0  0  0  0  0  0  0  0  0  0  0
   -3.7900   14.1600   -1.0980 C   0  0  1  0  0  0  0  0  0  0  0  0
   -2.4570   14.4440    1.0170 C   0  0  0  0  0  0  0  0  0  0  0  0
   -4.9950   13.5880   -0.2590 C   0  0  1  0  0  0  0  0  0  0  0  0
   -4.2960   15.5380   -1.5490 C   0  0  0  0  0  0  0  0  0  0  0  0
   -3.6990   14.4390    1.7650 C   0  0  0  0  0  0  0  0  0  0  0  0
   -5.4530   12.2040   -0.7390 C   0  0  0  0  0  0  0  0  0  0  0  0
   -4.6920   13.4310    1.2370 C   0  0  0  0  0  0  0  0  0  0  0  0
   -6.1850   14.5400   -0.5170 C   0  0  0  0  0  0  0  0  0  0  0  0
   -5.7940   15.3710   -1.7200 C   0  0  0  0  0  0  0  0  0  0  0  0
   -4.9710   11.6280   -1.7120 O   0  0  0  0  0  0  0  0  0  0  0  0
   -6.5600   11.5590    0.0590 C   0  0  0  0  0  0  0  0  0  0  0  0
  2  1  1  1
  2  3  1  0
  2  4  1  0
  4  5  2  3
  3  6  1  0
  4  7  1  0
  6  7  1  0
  3  8  1  0
  6  9  2  0
  5 10  1  0
  8 11  2  0
  8 12  1  0
 11 13  1  0
 12 14  2  0
 10 15  1  0
 13 16  2  0
 14 16  1  0
 15 17  2  0
 15 18  1  0
 16 19  1  0
 17 20  1  0
 18 21  2  0
 21 22  1  0
 20 23  2  0
 21 23  1  0
 22 24  1  0
 22 25  1  1
 23 26  1  0
 24 27  1  6
 24 28  1  0
 26 28  1  0
 24 29  1  0
 25 30  1  0
 29 30  1  0
 27 31  2  0
 27 32  1  0
M  END
