x1012_0_A-x0681_0_A
     RDKit          3D

 24 26  0  0  0  0  0  0  0  0999 V2000
   -0.2290   18.2700   -4.7500 N   0  0  0  0  0  0  0  0  0  0  0  0
   -1.1960   17.3360   -4.7930 C   0  0  0  0  0  0  0  0  0  0  0  0
   -2.3540   17.7130   -4.8630 O   0  0  0  0  0  0  0  0  0  0  0  0
   -0.7940   16.0280   -4.7340 N   0  0  0  0  0  0  0  0  0  0  0  0
   -1.8440   15.0200   -4.5330 C   0  0  0  0  0  0  0  0  0  0  0  0
    0.5950   15.5860   -4.7110 C   0  0  0  0  0  0  0  0  0  0  0  0
   -1.5110   13.7840   -3.6520 C   0  0  2  0  0  0  0  0  0  0  0  0
    0.8730   14.7370   -3.4870 C   0  0  0  0  0  0  0  0  0  0  0  0
   -2.1100   13.8710   -2.2980 N   0  0  0  0  0  0  0  0  0  0  0  0
    0.0140   13.4730   -3.5400 C   0  0  1  0  0  0  0  0  0  0  0  0
    0.2590   12.4950   -2.4050 C   0  0  0  0  0  0  0  0  0  0  0  0
   -3.1360   14.5520   -1.8720 C   0  0  0  0  0  0  0  0  0  0  0  0
    0.2830   11.2010   -2.7640 O   0  0  0  0  0  0  0  0  0  0  0  0
    0.4340   12.7900   -1.2300 O   0  0  0  0  0  0  0  0  0  0  0  0
   -3.9620   15.4180   -2.5560 N   0  0  0  0  0  0  0  0  0  0  0  0
   -3.4870   14.3120   -0.3800 C   0  0  2  0  0  0  0  0  0  0  0  0
   -4.6360   13.3350   -0.3830 C   0  0  0  0  0  0  0  0  0  0  0  0
   -3.8220   15.5410    0.4840 C   0  0  0  0  0  0  0  0  0  0  0  0
   -5.6500   13.3900    0.5240 N   0  0  0  0  0  0  0  0  0  0  0  0
   -4.4320   15.0990    1.8030 C   0  0  0  0  0  0  0  0  0  0  0  0
   -4.8280   12.3300   -1.2200 N   0  0  0  0  0  0  0  0  0  0  0  0
   -5.7520   14.3690    1.5700 C   0  0  0  0  0  0  0  0  0  0  0  0
   -6.5250   12.3840    0.2720 C   0  0  0  0  0  0  0  0  0  0  0  0
   -5.9970   11.7370   -0.8180 C   0  0  0  0  0  0  0  0  0  0  0  0
  1  2  1  0
  2  3  2  0
  2  4  1  0
  4  5  1  0
  4  6  1  0
  5  7  1  0
  6  8  1  0
  7  9  1  1
  7 10  1  0
  8 10  1  0
 10 11  1  1
  9 12  2  3
 11 13  1  0
 11 14  2  0
 12 15  1  0
 16 12  1  6
 16 17  1  0
 16 18  1  0
 17 19  1  0
 18 20  1  0
 17 21  2  0
 19 22  1  0
 20 22  1  0
 19 23  1  0
 21 24  1  0
 23 24  2  0
M  END
