x1015_0_A-x1018_0_A
     RDKit          3D

 27 30  0  0  0  0  0  0  0  0999 V2000
   -1.4990   14.2390   -3.9760 C   0  0  0  0  0  0  0  0  0  0  0  0
   -0.1040   13.6510   -3.8050 C   0  0  2  0  0  0  0  0  0  0  0  0
   -0.0750   12.1860   -3.9160 N   0  0  0  0  0  0  0  0  0  0  0  0
    0.3910   13.7430   -2.3540 C   0  0  0  0  0  0  0  0  0  0  0  0
    0.1420   14.6340   -1.4550 N   0  0  0  0  0  0  0  0  0  0  0  0
    0.4720   11.6430   -2.7460 C   0  0  0  0  0  0  0  0  0  0  0  0
    1.1560   12.6570   -2.1680 N   0  0  0  0  0  0  0  0  0  0  0  0
   -0.4720   11.4370   -5.0520 C   0  0  0  0  0  0  0  0  0  0  0  0
    0.3900   10.5080   -2.2730 O   0  0  0  0  0  0  0  0  0  0  0  0
   -0.7270   15.8020   -1.5800 C   0  0  0  0  0  0  0  0  0  0  0  0
    0.0790   11.6490   -6.3240 C   0  0  0  0  0  0  0  0  0  0  0  0
   -1.4470   10.4330   -4.9210 C   0  0  0  0  0  0  0  0  0  0  0  0
   -1.9700   15.6100   -0.6750 C   0  0  0  0  0  0  0  0  0  0  0  0
   -0.3290   10.8870   -7.4250 C   0  0  0  0  0  0  0  0  0  0  0  0
   -1.8570    9.6690   -6.0150 C   0  0  0  0  0  0  0  0  0  0  0  0
   -1.2960    9.8970   -7.2640 C   0  0  0  0  0  0  0  0  0  0  0  0
   -3.0220   14.7480   -1.1860 N   0  0  0  0  0  0  0  0  0  0  0  0
   -1.8010    8.9540   -8.6070 Cl  0  0  0  0  0  0  0  0  0  0  0  0
   -3.5840   15.2200   -2.4520 N   0  0  0  0  0  0  0  0  0  0  0  0
   -4.1240   14.2310   -0.3620 C   0  0  2  0  0  0  0  0  0  0  0  0
   -4.9540   14.7950   -2.4670 N   0  0  0  0  0  0  0  0  0  0  0  0
   -5.2630   14.7040   -1.1320 N   0  0  0  0  0  0  0  0  0  0  0  0
   -4.3250   14.7040    1.0330 C   0  0  0  0  0  0  0  0  0  0  0  0
   -6.5530   14.5790   -0.7510 N   0  0  0  0  0  0  0  0  0  0  0  0
   -5.5750   14.9190    1.4870 C   0  0  0  0  0  0  0  0  0  0  0  0
   -6.6980   14.6780    0.5290 C   0  0  0  0  0  0  0  0  0  0  0  0
   -8.3190   14.5360    1.1180 Cl  0  0  0  0  0  0  0  0  0  0  0  0
  2  1  1  1
  2  3  1  0
  2  4  1  0
  4  5  2  3
  3  6  1  0
  4  7  1  0
  6  7  1  0
  3  8  1  0
  6  9  2  0
  5 10  1  0
  8 11  2  0
  8 12  1  0
 10 13  1  0
 11 14  1  0
 12 15  2  0
 14 16  2  0
 15 16  1  0
 13 17  1  0
 16 18  1  0
 17 19  1  0
 17 20  1  0
 19 21  1  0
 20 22  1  0
 21 22  1  0
 20 23  1  1
 22 24  1  0
 23 25  2  0
 24 26  2  0
 25 26  1  0
 26 27  1  0
M  END
