x1018_0_A-x0837_0_A
     RDKit          3D

 11 12  0  0  0  0  0  0  0  0999 V2000
   -8.2680   14.5040    0.5190 Cl  0  0  0  0  0  0  0  0  0  0  0  0
   -6.5550   14.5550    0.2740 C   0  0  0  0  0  0  0  0  0  0  0  0
   -5.7280   14.6700    1.3420 C   0  0  0  0  0  0  0  0  0  0  0  0
   -5.9970   14.4960   -1.0320 N   0  0  0  0  0  0  0  0  0  0  0  0
   -5.2060   12.7960   -1.8070 I   0  0  0  0  0  0  0  0  0  0  0  0
   -4.9020   15.2900   -1.1050 N   0  0  0  0  0  0  0  0  0  0  0  0
   -4.2900   14.6960    1.0750 C   0  0  0  0  0  0  0  0  0  0  0  0
   -4.2690   15.4260   -2.3190 N   0  0  0  0  0  0  0  0  0  0  0  0
   -3.9440   14.9990   -0.1750 C   0  0  0  0  0  0  0  0  0  0  0  0
   -2.7740   15.0900   -0.8290 N   0  0  0  0  0  0  0  0  0  0  0  0
   -3.0690   15.0020   -2.1740 N   0  0  0  0  0  0  0  0  0  0  0  0
  1  2  1  0
  2  3  2  0
  2  4  1  0
  4  5  1  0
  4  6  1  0
  3  7  1  0
  6  8  1  0
  6  9  1  0
  7  9  2  0
  9 10  1  0
  8 11  2  0
 10 11  1  0
M  END
