x1012_0_A-x0631_0_A
     RDKit          3D

 31 33  0  0  0  0  0  0  0  0999 V2000
   -0.3180   18.2870   -4.6910 N   0  0  0  0  0  0  0  0  0  0  0  0
   -1.2060   17.2830   -4.7850 C   0  0  0  0  0  0  0  0  0  0  0  0
   -2.3960   17.5580   -4.7910 O   0  0  0  0  0  0  0  0  0  0  0  0
   -0.7040   16.0060   -4.8330 N   0  0  0  0  0  0  0  0  0  0  0  0
   -1.5490   14.8210   -4.9530 C   0  0  0  0  0  0  0  0  0  0  0  0
    0.7340   15.7880   -4.6180 C   0  0  0  0  0  0  0  0  0  0  0  0
   -1.2530   13.8030   -3.8670 C   0  0  0  0  0  0  0  0  0  0  0  0
    0.9900   14.8220   -3.4530 C   0  0  0  0  0  0  0  0  0  0  0  0
    0.2410   13.5070   -3.7050 C   0  0  0  0  0  0  0  0  0  0  0  0
    0.4390   12.4210   -2.6430 C   0  0  0  0  0  0  0  0  0  0  0  0
    0.2390   11.1850   -3.2080 O   0  0  0  0  0  0  0  0  0  0  0  0
    0.7130   12.6250   -1.4590 O   0  0  0  0  0  0  0  0  0  0  0  0
   -0.1710   11.1630   -4.6070 C   0  0  0  0  0  0  0  0  0  0  0  0
   -1.1300    9.9950   -4.8700 C   0  0  0  0  0  0  0  0  0  0  0  0
   -0.5080    8.7140   -5.3980 C   0  0  0  0  0  0  0  0  0  0  0  0
   -0.2650    8.5830   -6.9230 C   0  0  1  0  0  0  0  0  0  0  0  0
   -1.4240    7.7050   -7.4150 C   0  0  0  0  0  0  0  0  0  0  0  0
   -0.3090    9.8510   -7.6750 N   0  0  0  0  0  0  0  0  0  0  0  0
   -2.6930    8.5090   -7.6900 C   0  0  0  0  0  0  0  0  0  0  0  0
    0.6770   10.8260   -7.3480 N   0  0  0  0  0  0  0  0  0  0  0  0
   -0.1490    9.5710   -9.1070 N   0  0  0  0  0  0  0  0  0  0  0  0
    0.9710   11.3620   -8.6410 N   0  0  0  0  0  0  0  0  0  0  0  0
    1.1230   10.1530   -9.3970 C   0  0  2  0  0  0  0  0  0  0  0  0
    1.3400   10.4750  -10.7660 N   0  0  0  0  0  0  0  0  0  0  0  0
    2.2700    9.6310  -11.4930 C   0  0  1  0  0  0  0  0  0  0  0  0
    1.7050    8.3290  -11.5040 O   0  0  0  0  0  0  0  0  0  0  0  0
    2.6030   10.0370  -12.9610 C   0  0  2  0  0  0  0  0  0  0  0  0
    3.9580    9.6180  -13.2430 O   0  0  0  0  0  0  0  0  0  0  0  0
    2.5980   11.5190  -13.3060 C   0  0  0  0  0  0  0  0  0  0  0  0
    3.5580   11.6160  -14.4750 C   0  0  0  0  0  0  0  0  0  0  0  0
    4.3760   10.3390  -14.4070 C   0  0  0  0  0  0  0  0  0  0  0  0
  1  2  1  0
  2  3  2  0
  2  4  1  0
  4  5  1  0
  4  6  1  0
  5  7  1  0
  6  8  1  0
  7  9  1  0
  8  9  1  0
  9 10  1  0
 10 11  1  0
 10 12  2  0
 11 13  1  0
 13 14  1  0
 14 15  1  0
 16 15  1  1
 16 17  1  0
 16 18  1  0
 17 19  1  0
 18 20  1  0
 18 21  1  0
 20 22  1  0
 21 23  1  0
 22 23  1  0
 23 24  1  6
 24 25  1  0
 25 26  1  6
 25 27  1  0
 27 28  1  0
 27 29  1  1
 29 30  1  0
 28 31  1  0
 30 31  1  0
M  END
