x1012_0_A_α-x0742_0_A_α
     RDKit          3D

 29 32  0  0  0  0  0  0  0  0999 V2000
   -0.3230   18.0740   -4.7070 N   0  0  0  0  0  0  0  0  0  0  0  0
   -1.3030   17.1570   -4.8610 C   0  0  0  0  0  0  0  0  0  0  0  0
   -2.4620   17.5250   -4.7960 O   0  0  0  0  0  0  0  0  0  0  0  0
   -0.9160   15.8550   -5.0640 N   0  0  0  0  0  0  0  0  0  0  0  0
   -1.9000   14.7200   -5.0220 C   0  0  0  0  0  0  0  0  0  0  0  0
    0.5610   15.6620   -5.1510 C   0  0  0  0  0  0  0  0  0  0  0  0
   -1.3170   13.3450   -4.6820 C   0  0  0  0  0  0  0  0  0  0  0  0
    1.0210   14.2070   -5.1940 C   0  0  0  0  0  0  0  0  0  0  0  0
    0.0910   13.5830   -4.2400 C   0  0  0  0  0  0  0  0  0  0  0  0
    0.5000   13.2660   -2.8910 C   0  0  0  0  0  0  0  0  0  0  0  0
    0.4190   11.9710   -2.4780 O   0  0  0  0  0  0  0  0  0  0  0  0
    0.8570   14.2090   -2.1700 N   0  0  0  0  0  0  0  0  0  0  0  0
    1.2030   14.2930   -0.8490 C   0  0  0  0  0  0  0  0  0  0  0  0
   -0.0830   14.3540   -0.1390 C   0  0  0  0  0  0  0  0  0  0  0  0
   -0.2130   14.6040    1.2020 C   0  0  0  0  0  0  0  0  0  0  0  0
   -1.2440   14.1600   -0.8850 C   0  0  0  0  0  0  0  0  0  0  0  0
   -1.3920   14.6830    1.8180 N   0  0  0  0  0  0  0  0  0  0  0  0
   -2.4790   14.2350   -0.2770 C   0  0  0  0  0  0  0  0  0  0  0  0
   -3.7580   14.0300   -1.0450 C   0  0  1  0  0  0  0  0  0  0  0  0
   -2.4860   14.5070    1.0610 C   0  0  0  0  0  0  0  0  0  0  0  0
   -4.9850   13.5450   -0.1980 C   0  0  1  0  0  0  0  0  0  0  0  0
   -4.2430   15.2960   -1.7730 C   0  0  0  0  0  0  0  0  0  0  0  0
   -3.7700   14.6270    1.7460 C   0  0  0  0  0  0  0  0  0  0  0  0
   -5.5190   12.1770   -0.6370 C   0  0  0  0  0  0  0  0  0  0  0  0
   -4.7010   13.5120    1.3180 C   0  0  0  0  0  0  0  0  0  0  0  0
   -6.0920   14.5900   -0.4440 C   0  0  0  0  0  0  0  0  0  0  0  0
   -5.3550   15.8300   -0.8940 C   0  0  0  0  0  0  0  0  0  0  0  0
   -5.0680   11.5780   -1.6150 O   0  0  0  0  0  0  0  0  0  0  0  0
   -6.6370   11.5670    0.1710 C   0  0  0  0  0  0  0  0  0  0  0  0
  1  2  1  0
  2  3  2  0
  2  4  1  0
  4  5  1  0
  4  6  1  0
  5  7  1  0
  6  8  1  0
  7  9  1  0
  8  9  1  0
  9 10  1  0
 10 11  1  0
 10 12  2  3
 12 13  1  0
 13 14  1  0
 14 15  2  0
 14 16  1  0
 15 17  1  0
 16 18  2  0
 18 19  1  0
 17 20  2  0
 18 20  1  0
 19 21  1  0
 19 22  1  1
 20 23  1  0
 21 24  1  6
 21 25  1  0
 23 25  1  0
 21 26  1  0
 22 27  1  0
 26 27  1  0
 24 28  2  0
 24 29  1  0
M  END
