x1012_0_A-x0805_0_A
     RDKit          3D

 19 20  0  0  0  0  0  0  0  0999 V2000
   -0.2700   18.1770   -4.5510 N   0  0  0  0  0  0  0  0  0  0  0  0
   -1.2440   17.2640   -4.7180 C   0  0  0  0  0  0  0  0  0  0  0  0
   -2.4020   17.6410   -4.7200 O   0  0  0  0  0  0  0  0  0  0  0  0
   -0.8660   15.9560   -4.8730 N   0  0  0  0  0  0  0  0  0  0  0  0
   -1.7420   14.8040   -4.6300 C   0  0  0  0  0  0  0  0  0  0  0  0
    0.5680   15.6910   -4.7990 C   0  0  0  0  0  0  0  0  0  0  0  0
   -1.4360   14.1240   -3.2560 C   0  0  2  0  0  0  0  0  0  0  0  0
    0.8750   14.2440   -4.4480 C   0  0  0  0  0  0  0  0  0  0  0  0
    0.1180   13.8660   -3.1720 C   0  0  2  0  0  0  0  0  0  0  0  0
   -2.2280   12.7820   -3.1340 C   0  0  0  0  0  0  0  0  0  0  0  0
   -1.8180   15.1240   -2.1040 C   0  0  0  0  0  0  0  0  0  0  0  0
    0.5880   12.5260   -2.6610 C   0  0  0  0  0  0  0  0  0  0  0  0
   -3.2480   15.1260   -1.5220 C   0  0  2  0  0  0  0  0  0  0  0  0
   -3.6190   12.8740   -2.5680 C   0  0  0  0  0  0  0  0  0  0  0  0
    0.0050   11.4490   -3.2180 O   0  0  0  0  0  0  0  0  0  0  0  0
    1.4290   12.3790   -1.8120 O   0  0  0  0  0  0  0  0  0  0  0  0
   -3.1110   15.2410   -0.1010 O   0  0  0  0  0  0  0  0  0  0  0  0
   -4.0630   13.9110   -1.8550 C   0  0  0  0  0  0  0  0  0  0  0  0
   -4.2880   15.6600    0.5710 C   0  0  0  0  0  0  0  0  0  0  0  0
  1  2  1  0
  2  3  2  0
  2  4  1  0
  4  5  1  0
  4  6  1  0
  7  5  1  6
  6  8  1  0
  7  9  1  0
  8  9  1  0
  7 10  1  0
  7 11  1  0
  9 12  1  6
 11 13  1  0
 10 14  1  0
 12 15  1  0
 12 16  2  0
 13 17  1  1
 13 18  1  0
 14 18  2  0
 17 19  1  0
M  END
