x1015_0_A-x0910_0_A
     RDKit          3D

 23 25  0  0  0  0  0  0  0  0999 V2000
   -0.8830   14.0360   -4.8620 C   0  0  0  0  0  0  0  0  0  0  0  0
    0.3140   13.2560   -4.2990 C   0  0  2  0  0  0  0  0  0  0  0  0
   -0.0540   11.8910   -4.0610 N   0  0  0  0  0  0  0  0  0  0  0  0
    0.6710   13.6000   -2.8760 C   0  0  0  0  0  0  0  0  0  0  0  0
    0.5760   14.6960   -2.2920 N   0  0  0  0  0  0  0  0  0  0  0  0
    0.4360   11.4520   -2.8140 C   0  0  0  0  0  0  0  0  0  0  0  0
    1.1250   12.4930   -2.2720 N   0  0  0  0  0  0  0  0  0  0  0  0
   -0.5130   11.1250   -5.1350 C   0  0  0  0  0  0  0  0  0  0  0  0
    0.3030   10.3650   -2.2680 O   0  0  0  0  0  0  0  0  0  0  0  0
   -0.0140   15.6200   -3.2150 C   0  0  0  0  0  0  0  0  0  0  0  0
    0.0250   11.3560   -6.4100 C   0  0  0  0  0  0  0  0  0  0  0  0
   -1.4880   10.1410   -4.9900 C   0  0  0  0  0  0  0  0  0  0  0  0
   -1.5250   15.2040   -3.2960 C   0  0  0  0  0  0  0  0  0  0  0  0
   -0.4030   10.6200   -7.5110 C   0  0  0  0  0  0  0  0  0  0  0  0
   -1.9210    9.3990   -6.0880 C   0  0  0  0  0  0  0  0  0  0  0  0
   -2.1940   14.7930   -2.0250 N   0  0  0  0  0  0  0  0  0  0  0  0
   -1.3740    9.6450   -7.3430 C   0  0  0  0  0  0  0  0  0  0  0  0
   -1.9080    8.7330   -8.6960 Cl  0  0  0  0  0  0  0  0  0  0  0  0
   -1.5830   14.8140   -0.8060 C   0  0  0  0  0  0  0  0  0  0  0  0
   -2.2970   14.8080    0.3710 N   0  0  0  0  0  0  0  0  0  0  0  0
   -0.3100   14.8500   -0.5090 N   0  0  0  0  0  0  0  0  0  0  0  0
   -1.4820   14.8410    1.4380 N   0  0  0  0  0  0  0  0  0  0  0  0
   -0.2910   14.8690    0.8500 C   0  0  0  0  0  0  0  0  0  0  0  0
  2  1  1  1
  2  3  1  0
  2  4  1  0
  4  5  2  3
  3  6  1  0
  4  7  1  0
  6  7  1  0
  3  8  1  0
  6  9  2  0
  5 10  1  0
  8 11  2  0
  8 12  1  0
 10 13  1  0
 11 14  1  0
 12 15  2  0
 13 16  1  0
 14 17  2  0
 15 17  1  0
 17 18  1  0
 16 19  1  0
 19 20  1  0
 19 21  2  0
 20 22  1  0
 21 23  1  0
 22 23  2  0
M  END
