x1012_0_A-x0421_0_A
     RDKit          3D

 23 25  0  0  0  0  0  0  0  0999 V2000
   -0.1750   18.2310   -4.9890 N   0  0  0  0  0  0  0  0  0  0  0  0
   -1.1580   17.3200   -4.8340 C   0  0  0  0  0  0  0  0  0  0  0  0
   -2.3140   17.7200   -4.8010 O   0  0  0  0  0  0  0  0  0  0  0  0
   -0.7730   16.0060   -4.7140 N   0  0  0  0  0  0  0  0  0  0  0  0
   -1.7190   14.8960   -4.5970 C   0  0  0  0  0  0  0  0  0  0  0  0
    0.6500   15.7120   -4.5700 C   0  0  0  0  0  0  0  0  0  0  0  0
   -1.3820   13.8070   -3.5520 C   0  0  2  0  0  0  0  0  0  0  0  0
    0.9620   14.7940   -3.3960 C   0  0  0  0  0  0  0  0  0  0  0  0
   -1.9250   14.0690   -2.1950 N   0  0  0  0  0  0  0  0  0  0  0  0
    0.1300   13.5080   -3.4800 C   0  0  1  0  0  0  0  0  0  0  0  0
    0.3500   12.5030   -2.3670 C   0  0  0  0  0  0  0  0  0  0  0  0
   -3.0350   14.6840   -1.9740 C   0  0  0  0  0  0  0  0  0  0  0  0
    0.3750   11.2140   -2.7560 O   0  0  0  0  0  0  0  0  0  0  0  0
    0.4920   12.7770   -1.1860 O   0  0  0  0  0  0  0  0  0  0  0  0
   -3.8870   15.2460   -2.8810 N   0  0  0  0  0  0  0  0  0  0  0  0
   -3.5310   14.7760   -0.5880 C   0  0  0  0  0  0  0  0  0  0  0  0
   -2.8460   14.9630    0.6110 C   0  0  0  0  0  0  0  0  0  0  0  0
   -4.8840   14.6570   -0.3180 N   0  0  0  0  0  0  0  0  0  0  0  0
   -3.8150   14.9370    1.5870 N   0  0  0  0  0  0  0  0  0  0  0  0
   -5.0130   14.7490    0.9780 C   0  0  0  0  0  0  0  0  0  0  0  0
   -6.3620   14.6490    1.7310 C   0  0  0  0  0  0  0  0  0  0  0  0
   -7.6590   14.6440    0.9620 C   0  0  0  0  0  0  0  0  0  0  0  0
   -7.1550   13.3780    1.5880 C   0  0  0  0  0  0  0  0  0  0  0  0
  1  2  1  0
  2  3  2  0
  2  4  1  0
  4  5  1  0
  4  6  1  0
  5  7  1  0
  6  8  1  0
  7  9  1  1
  7 10  1  0
  8 10  1  0
 10 11  1  1
  9 12  2  3
 11 13  1  0
 11 14  2  0
 12 15  1  0
 12 16  1  0
 16 17  2  0
 16 18  1  0
 17 19  1  0
 18 20  2  0
 19 20  1  0
 20 21  1  0
 21 22  1  0
 21 23  1  0
 22 23  1  0
M  END
