x1012_0_A_α-x0933_0_A_α
     RDKit          3D

 22 23  0  0  0  0  0  0  0  0999 V2000
   -0.5840   18.0440   -4.6970 N   0  0  0  0  0  0  0  0  0  0  0  0
   -1.3090   16.9010   -4.7960 C   0  0  0  0  0  0  0  0  0  0  0  0
   -2.5770   16.9810   -4.8090 N   0  0  0  0  0  0  0  0  0  0  0  0
   -0.5160   15.7850   -4.8660 N   0  0  0  0  0  0  0  0  0  0  0  0
   -3.3160   15.7170   -4.9380 C   0  0  0  0  0  0  0  0  0  0  0  0
   -1.1300   14.4790   -5.1160 C   0  0  0  0  0  0  0  0  0  0  0  0
    0.8860   15.7940   -4.4320 C   0  0  0  0  0  0  0  0  0  0  0  0
   -3.2050   14.9250   -3.6290 C   0  0  0  0  0  0  0  0  0  0  0  0
   -1.0090   13.5710   -3.9130 C   0  0  0  0  0  0  0  0  0  0  0  0
    1.1410   14.7710   -3.3110 C   0  0  0  0  0  0  0  0  0  0  0  0
   -4.4990   14.8290   -2.8100 C   0  0  0  0  0  0  0  0  0  0  0  0
    0.4540   13.4080   -3.5550 C   0  0  0  0  0  0  0  0  0  0  0  0
    0.5040   12.4510   -2.3850 C   0  0  0  0  0  0  0  0  0  0  0  0
   -4.2880   15.2320   -1.3400 C   0  0  1  0  0  0  0  0  0  0  0  0
    0.4080   11.1540   -2.7300 O   0  0  0  0  0  0  0  0  0  0  0  0
    0.6050   12.7630   -1.2110 O   0  0  0  0  0  0  0  0  0  0  0  0
   -5.4130   14.9080   -0.4510 N   0  0  0  0  0  0  0  0  0  0  0  0
   -2.9340   14.7160   -0.7820 C   0  0  0  0  0  0  0  0  0  0  0  0
   -5.1000   15.0450    0.9280 C   0  0  1  0  0  0  0  0  0  0  0  0
   -2.8030   14.9030    0.7260 C   0  0  0  0  0  0  0  0  0  0  0  0
   -6.1750   14.5340    1.7010 N   0  0  0  0  0  0  0  0  0  0  0  0
   -3.9740   14.2980    1.2980 N   0  0  0  0  0  0  0  0  0  0  0  0
  1  2  1  0
  2  3  2  3
  2  4  1  0
  3  5  1  0
  4  6  1  0
  4  7  1  0
  5  8  1  0
  6  9  1  0
  7 10  1  0
  8 11  1  0
  9 12  1  0
 10 12  1  0
 12 13  1  0
 14 11  1  6
 13 15  1  0
 13 16  2  0
 14 17  1  0
 14 18  1  0
 17 19  1  0
 18 20  1  0
 19 21  1  1
 19 22  1  0
 20 22  1  0
M  END
