x1015_0_A_α-x0910_0_A_α
     RDKit          3D

 23 25  0  0  0  0  0  0  0  0999 V2000
   -0.8850   14.0210   -4.8690 C   0  0  0  0  0  0  0  0  0  0  0  0
    0.3100   13.2440   -4.3040 C   0  0  2  0  0  0  0  0  0  0  0  0
   -0.0600   11.8820   -4.0660 N   0  0  0  0  0  0  0  0  0  0  0  0
    0.6620   13.5840   -2.8800 C   0  0  0  0  0  0  0  0  0  0  0  0
    0.5660   14.6780   -2.2950 N   0  0  0  0  0  0  0  0  0  0  0  0
    0.4360   11.4360   -2.8270 C   0  0  0  0  0  0  0  0  0  0  0  0
    1.1200   12.4790   -2.2750 N   0  0  0  0  0  0  0  0  0  0  0  0
   -0.5180   11.1170   -5.1420 C   0  0  0  0  0  0  0  0  0  0  0  0
    0.3190   10.3450   -2.2910 O   0  0  0  0  0  0  0  0  0  0  0  0
   -0.0200   15.6110   -3.2090 C   0  0  0  0  0  0  0  0  0  0  0  0
    0.0230   11.3530   -6.4160 C   0  0  0  0  0  0  0  0  0  0  0  0
   -1.4910   10.1370   -4.9940 C   0  0  0  0  0  0  0  0  0  0  0  0
   -1.5330   15.2140   -3.2940 C   0  0  0  0  0  0  0  0  0  0  0  0
   -0.4070   10.6150   -7.5160 C   0  0  0  0  0  0  0  0  0  0  0  0
   -1.9260    9.3950   -6.0940 C   0  0  0  0  0  0  0  0  0  0  0  0
   -2.1960   14.7830   -2.0270 N   0  0  0  0  0  0  0  0  0  0  0  0
   -1.3780    9.6420   -7.3490 C   0  0  0  0  0  0  0  0  0  0  0  0
   -1.9130    8.7290   -8.7010 Cl  0  0  0  0  0  0  0  0  0  0  0  0
   -1.5860   14.8060   -0.8110 C   0  0  0  0  0  0  0  0  0  0  0  0
   -2.3000   14.8100    0.3640 N   0  0  0  0  0  0  0  0  0  0  0  0
   -0.3110   14.8320   -0.5080 N   0  0  0  0  0  0  0  0  0  0  0  0
   -1.4870   14.8400    1.4320 N   0  0  0  0  0  0  0  0  0  0  0  0
   -0.2940   14.8530    0.8510 C   0  0  0  0  0  0  0  0  0  0  0  0
  2  1  1  1
  2  3  1  0
  2  4  1  0
  4  5  2  3
  3  6  1  0
  4  7  1  0
  6  7  1  0
  3  8  1  0
  6  9  2  0
  5 10  1  0
  8 11  2  0
  8 12  1  0
 10 13  1  0
 11 14  1  0
 12 15  2  0
 13 16  1  0
 14 17  2  0
 15 17  1  0
 17 18  1  0
 16 19  1  0
 19 20  1  0
 19 21  2  0
 20 22  1  0
 21 23  1  0
 22 23  2  0
M  END
