x1018_0_A-x0465_0_A
     RDKit          3D

 26 28  0  0  0  0  0  0  0  0999 V2000
   -8.3290   14.3560    0.8470 Cl  0  0  0  0  0  0  0  0  0  0  0  0
   -6.6760   14.5280    0.3640 C   0  0  0  0  0  0  0  0  0  0  0  0
   -5.6050   13.8650    1.1400 C   0  0  0  0  0  0  0  0  0  0  0  0
   -6.4760   15.2560   -0.6830 N   0  0  0  0  0  0  0  0  0  0  0  0
   -5.1700   15.4250   -1.0550 N   0  0  0  0  0  0  0  0  0  0  0  0
   -4.3400   14.2430    0.8820 C   0  0  0  0  0  0  0  0  0  0  0  0
   -4.8720   14.9390   -2.3270 N   0  0  0  0  0  0  0  0  0  0  0  0
   -4.0340   15.2850   -0.1340 C   0  0  1  0  0  0  0  0  0  0  0  0
   -2.9160   15.0570   -1.0700 N   0  0  0  0  0  0  0  0  0  0  0  0
   -3.5000   14.5250   -2.2900 N   0  0  0  0  0  0  0  0  0  0  0  0
   -1.7520   14.2750   -0.6340 C   0  0  0  0  0  0  0  0  0  0  0  0
   -0.6660   14.3460   -1.7280 C   0  0  0  0  0  0  0  0  0  0  0  0
    0.6670   13.6940   -1.3790 C   0  0  0  0  0  0  0  0  0  0  0  0
    0.5450   12.2700   -1.6360 N   0  0  0  0  0  0  0  0  0  0  0  0
    0.5540   11.7650   -2.8290 C   0  0  0  0  0  0  0  0  0  0  0  0
    0.6790   12.4110   -4.2410 C   0  0  1  0  0  0  0  0  0  0  0  0
    0.4200   10.4180   -2.7820 O   0  0  0  0  0  0  0  0  0  0  0  0
    2.0080   13.1680   -4.3810 C   0  0  0  0  0  0  0  0  0  0  0  0
    0.6380   11.3790   -5.2580 O   0  0  0  0  0  0  0  0  0  0  0  0
   -0.5700   10.7740   -5.5040 C   0  0  0  0  0  0  0  0  0  0  0  0
   -0.6760    9.8150   -6.5270 C   0  0  0  0  0  0  0  0  0  0  0  0
   -1.6940   11.0930   -4.7530 C   0  0  0  0  0  0  0  0  0  0  0  0
    0.3850    9.4780   -7.2780 F   0  0  0  0  0  0  0  0  0  0  0  0
   -1.8840    9.1820   -6.7910 C   0  0  0  0  0  0  0  0  0  0  0  0
   -2.9110   10.4600   -5.0200 C   0  0  0  0  0  0  0  0  0  0  0  0
   -3.0070    9.5060   -6.0330 C   0  0  0  0  0  0  0  0  0  0  0  0
  1  2  1  0
  2  3  1  0
  2  4  2  0
  4  5  1  0
  3  6  2  0
  5  7  1  0
  5  8  1  0
  8  6  1  1
  8  9  1  0
  7 10  1  0
  9 10  1  0
  9 11  1  0
 11 12  1  0
 12 13  1  0
 13 14  1  0
 14 15  2  3
 15 16  1  0
 15 17  1  0
 16 18  1  1
 16 19  1  0
 19 20  1  0
 20 21  2  0
 20 22  1  0
 21 23  1  0
 21 24  1  0
 22 25  2  0
 24 26  2  0
 25 26  1  0
M  END
