x1015_0_A-x0849_0_A
     RDKit          3D

 27 30  0  0  0  0  0  0  0  0999 V2000
   -1.4630   13.9210   -5.1190 C   0  0  0  0  0  0  0  0  0  0  0  0
   -0.1530   13.3010   -4.6450 C   0  0  2  0  0  0  0  0  0  0  0  0
   -0.2820   11.9230   -4.2600 N   0  0  0  0  0  0  0  0  0  0  0  0
    0.0980   13.8160   -3.3110 C   0  0  0  0  0  0  0  0  0  0  0  0
   -0.2150   14.9300   -2.8950 N   0  0  0  0  0  0  0  0  0  0  0  0
    0.2720   11.6670   -2.9800 C   0  0  0  0  0  0  0  0  0  0  0  0
    0.7280   12.8780   -2.5550 N   0  0  0  0  0  0  0  0  0  0  0  0
   -0.6590   11.0620   -5.2630 C   0  0  0  0  0  0  0  0  0  0  0  0
    0.3590   10.6220   -2.3230 O   0  0  0  0  0  0  0  0  0  0  0  0
    0.1930   15.1140   -1.5900 C   0  0  0  0  0  0  0  0  0  0  0  0
   -0.0840   11.2460   -6.5230 C   0  0  0  0  0  0  0  0  0  0  0  0
   -1.5860   10.0410   -5.0790 C   0  0  0  0  0  0  0  0  0  0  0  0
   -0.4260   10.4330   -7.5880 C   0  0  0  0  0  0  0  0  0  0  0  0
   -1.9360    9.2200   -6.1430 C   0  0  0  0  0  0  0  0  0  0  0  0
   -0.7230   14.8880   -0.4510 C   0  0  0  0  0  0  0  0  0  0  0  0
   -1.3580    9.4200   -7.3910 C   0  0  0  0  0  0  0  0  0  0  0  0
   -2.1670   14.8850   -0.2220 C   0  0  0  0  0  0  0  0  0  0  0  0
    0.1220   14.6600    0.5370 C   0  0  0  0  0  0  0  0  0  0  0  0
   -1.7940    8.4140   -8.7070 Cl  0  0  0  0  0  0  0  0  0  0  0  0
   -2.4780   14.6520    1.1350 C   0  0  0  0  0  0  0  0  0  0  0  0
   -3.3420   15.0730   -1.0460 C   0  0  0  0  0  0  0  0  0  0  0  0
   -0.2980   14.4230    1.7650 C   0  0  0  0  0  0  0  0  0  0  0  0
   -3.3970   15.3610   -2.9290 Br  0  0  0  0  0  0  0  0  0  0  0  0
   -3.6990   14.6330    1.6220 N   0  0  0  0  0  0  0  0  0  0  0  0
   -4.6230   15.0510   -0.4990 C   0  0  0  0  0  0  0  0  0  0  0  0
   -1.5780   14.4300    2.0640 N   0  0  0  0  0  0  0  0  0  0  0  0
   -4.7460   14.8330    0.8390 C   0  0  0  0  0  0  0  0  0  0  0  0
  2  1  1  1
  2  3  1  0
  2  4  1  0
  4  5  2  3
  3  6  1  0
  4  7  1  0
  6  7  1  0
  3  8  1  0
  6  9  2  0
  5 10  1  0
  8 11  2  0
  8 12  1  0
 11 13  1  0
 12 14  2  0
 10 15  1  0
 13 16  2  0
 14 16  1  0
 15 17  1  0
 15 18  2  0
 16 19  1  0
 17 20  2  0
 17 21  1  0
 18 22  1  0
 21 23  1  0
 20 24  1  0
 21 25  2  0
 20 26  1  0
 22 26  2  0
 24 27  2  0
 25 27  1  0
M  END
