x1015_0_A_α-x0662_0_A_β
     RDKit          3D

 25 27  0  0  0  0  0  0  0  0999 V2000
   -1.5230   14.7740   -4.0180 C   0  0  0  0  0  0  0  0  0  0  0  0
   -0.4520   13.7140   -3.8000 C   0  0  2  0  0  0  0  0  0  0  0  0
   -0.9810   12.3640   -3.5270 N   0  0  0  0  0  0  0  0  0  0  0  0
    0.2450   14.0030   -2.4790 C   0  0  0  0  0  0  0  0  0  0  0  0
    0.6870   15.0690   -2.0810 O   0  0  0  0  0  0  0  0  0  0  0  0
   -0.1670   11.8150   -2.5140 C   0  0  0  0  0  0  0  0  0  0  0  0
    0.3230   12.8510   -1.7780 N   0  0  0  0  0  0  0  0  0  0  0  0
   -1.4850   11.5940   -4.6280 C   0  0  0  0  0  0  0  0  0  0  0  0
    0.1290   10.6460   -2.2430 O   0  0  0  0  0  0  0  0  0  0  0  0
   -2.7910   11.2450   -4.8850 C   0  0  0  0  0  0  0  0  0  0  0  0
   -0.6180   11.1560   -5.5330 C   0  0  0  0  0  0  0  0  0  0  0  0
    0.6510   11.4970   -5.3390 N   0  0  0  0  0  0  0  0  0  0  0  0
   -3.1490   10.4780   -6.0190 C   0  0  0  0  0  0  0  0  0  0  0  0
   -0.9360   10.3960   -6.6560 C   0  0  0  0  0  0  0  0  0  0  0  0
    1.3880   11.1050   -6.2400 C   0  0  0  0  0  0  0  0  0  0  0  0
   -2.2120   10.0490   -6.9110 C   0  0  0  0  0  0  0  0  0  0  0  0
   -2.6440    9.1210   -8.2950 Cl  0  0  0  0  0  0  0  0  0  0  0  0
    2.5840   11.3070   -6.3340 O   0  0  0  0  0  0  0  0  0  0  0  0
    0.8670   10.2760   -7.3910 C   0  0  0  0  0  0  0  0  0  0  0  0
    1.0960   10.6850   -8.6900 C   0  0  0  0  0  0  0  0  0  0  0  0
    0.1450    9.0820   -7.1820 C   0  0  0  0  0  0  0  0  0  0  0  0
    0.6600    9.9740   -9.7790 C   0  0  0  0  0  0  0  0  0  0  0  0
   -0.3120    8.3480   -8.2780 C   0  0  0  0  0  0  0  0  0  0  0  0
    0.9540   10.4690  -11.0560 N   0  0  0  0  0  0  0  0  0  0  0  0
   -0.0530    8.7940   -9.5790 C   0  0  0  0  0  0  0  0  0  0  0  0
  2  1  1  1
  2  3  1  0
  2  4  1  0
  4  5  2  0
  3  6  1  0
  4  7  1  0
  6  7  1  0
  3  8  1  0
  6  9  2  0
  8 10  2  0
  8 11  1  0
 11 12  1  0
 10 13  1  0
 11 14  2  0
 12 15  2  3
 13 16  2  0
 14 16  1  0
 16 17  1  0
 15 18  1  0
 15 19  1  0
 19 20  2  0
 19 21  1  0
 20 22  1  0
 21 23  2  0
 22 24  1  0
 22 25  2  0
 23 25  1  0
M  CHG  1  18  -1
M  END
