x1012_0_A-x0950_0_A
     RDKit          3D

 15 15  0  0  0  0  0  0  0  0999 V2000
   -0.4330   18.1910   -4.7480 N   0  0  0  0  0  0  0  0  0  0  0  0
   -1.3130   17.1650   -4.8270 C   0  0  0  0  0  0  0  0  0  0  0  0
   -2.5010   17.4030   -4.7090 O   0  0  0  0  0  0  0  0  0  0  0  0
   -0.7850   15.9100   -5.0150 N   0  0  0  0  0  0  0  0  0  0  0  0
   -1.6040   14.6970   -4.8980 C   0  0  0  0  0  0  0  0  0  0  0  0
    0.6060   15.7180   -4.6530 C   0  0  0  0  0  0  0  0  0  0  0  0
   -1.5710   14.0580   -3.5070 C   0  0  0  0  0  0  0  0  0  0  0  0
    0.7010   15.2290   -3.2080 C   0  0  0  0  0  0  0  0  0  0  0  0
   -0.1830   13.9970   -2.8400 C   0  0  0  0  0  0  0  0  0  0  0  0
    0.6450   12.7060   -3.0400 C   0  0  0  0  0  0  0  0  0  0  0  0
   -0.0850   11.4790   -3.0150 O   0  0  0  0  0  0  0  0  0  0  0  0
    1.5300   12.6410   -1.9390 O   0  0  0  0  0  0  0  0  0  0  0  0
    1.4670   12.7950   -4.3560 C   0  0  1  0  0  0  0  0  0  0  0  0
    2.9660   12.8390   -4.1250 C   0  0  0  0  0  0  0  0  0  0  0  0
    1.0780   11.8100   -5.3140 O   0  0  0  0  0  0  0  0  0  0  0  0
  1  2  1  0
  2  3  2  0
  2  4  1  0
  4  5  1  0
  4  6  1  0
  5  7  1  0
  6  8  1  0
  7  9  1  0
  8  9  1  0
  9 10  1  0
 10 11  1  0
 10 12  1  0
 10 13  1  0
 13 14  1  1
 13 15  1  0
M  END
