x1015_0_A-x0438_0_A
     RDKit          3D

 31 34  0  0  0  0  0  0  0  0999 V2000
   -1.1770   14.2870   -4.6400 C   0  0  0  0  0  0  0  0  0  0  0  0
    0.0110   13.6600   -3.9110 C   0  0  2  0  0  0  0  0  0  0  0  0
   -0.0710   12.2070   -3.9010 N   0  0  0  0  0  0  0  0  0  0  0  0
   -0.1230   13.9390   -2.4220 C   0  0  0  0  0  0  0  0  0  0  0  0
    0.2180   15.0420   -1.8660 N   0  0  0  0  0  0  0  0  0  0  0  0
    0.2500   11.7350   -2.6260 C   0  0  0  0  0  0  0  0  0  0  0  0
    0.4850   12.8480   -1.8660 N   0  0  0  0  0  0  0  0  0  0  0  0
   -0.4630   11.4260   -5.0180 C   0  0  0  0  0  0  0  0  0  0  0  0
    0.3220   10.5760   -2.2140 O   0  0  0  0  0  0  0  0  0  0  0  0
   -0.7710   15.9160   -1.2190 C   0  0  0  0  0  0  0  0  0  0  0  0
    0.0990   11.6210   -6.2910 C   0  0  0  0  0  0  0  0  0  0  0  0
   -1.4360   10.4280   -4.8770 C   0  0  0  0  0  0  0  0  0  0  0  0
   -1.5120   15.3330   -0.0050 C   0  0  0  0  0  0  0  0  0  0  0  0
   -0.2960   10.8410   -7.3820 C   0  0  0  0  0  0  0  0  0  0  0  0
   -1.8360    9.6440   -5.9640 C   0  0  0  0  0  0  0  0  0  0  0  0
   -1.2660    9.8560   -7.2140 C   0  0  0  0  0  0  0  0  0  0  0  0
   -3.0180   15.2280   -0.1730 C   0  0  0  0  0  0  0  0  0  0  0  0
   -1.7620    8.8930   -8.5490 Cl  0  0  0  0  0  0  0  0  0  0  0  0
   -3.6370   15.5410   -1.3970 C   0  0  0  0  0  0  0  0  0  0  0  0
   -3.8160   14.8070    0.9110 C   0  0  0  0  0  0  0  0  0  0  0  0
   -5.2050   14.7030    0.7330 C   0  0  0  0  0  0  0  0  0  0  0  0
   -5.0210   15.4420   -1.5820 C   0  0  0  0  0  0  0  0  0  0  0  0
   -6.1790   14.3160    1.6160 N   0  0  0  0  0  0  0  0  0  0  0  0
   -5.7690   15.0170   -0.4930 C   0  0  0  0  0  0  0  0  0  0  0  0
   -7.1160   14.8030   -0.3230 N   0  0  0  0  0  0  0  0  0  0  0  0
   -7.3200   14.3760    0.9710 C   0  0  0  0  0  0  0  0  0  0  0  0
   -8.6560   14.0310    1.5230 C   0  0  0  0  0  0  0  0  0  0  0  0
   -9.3210   15.3320    2.5490 S   0  0  0  0  0  0  0  0  0  0  0  0
   -8.1290   15.5480    3.8520 C   0  0  0  0  0  0  0  0  0  0  0  0
  -10.5320   14.8140    3.1540 O   0  0  0  0  0  0  0  0  0  0  0  0
   -9.4010   16.5420    1.7560 O   0  0  0  0  0  0  0  0  0  0  0  0
  2  1  1  6
  2  3  1  0
  2  4  1  0
  4  5  2  3
  3  6  1  0
  4  7  1  0
  6  7  1  0
  3  8  1  0
  6  9  2  0
  5 10  1  0
  8 11  2  0
  8 12  1  0
 10 13  1  0
 11 14  1  0
 12 15  2  0
 14 16  2  0
 15 16  1  0
 13 17  1  0
 16 18  1  0
 17 19  2  0
 17 20  1  0
 20 21  2  0
 19 22  1  0
 21 23  1  0
 21 24  1  0
 22 24  2  0
 24 25  1  0
 23 26  2  0
 25 26  1  0
 26 27  1  0
 28 27  1  0
 28 29  1  0
 28 30  2  0
 28 31  2  0
M  END
