x1015_0_A-x0128_0_A
     RDKit          3D

 34 37  0  0  0  0  0  0  0  0999 V2000
   -1.1480   14.3350   -4.4880 C   0  0  0  0  0  0  0  0  0  0  0  0
    0.0970   13.6540   -3.9210 C   0  0  2  0  0  0  0  0  0  0  0  0
    0.0180   12.1910   -3.9480 N   0  0  0  0  0  0  0  0  0  0  0  0
    0.0970   13.8380   -2.4150 C   0  0  0  0  0  0  0  0  0  0  0  0
   -0.2690   14.9120   -1.8200 N   0  0  0  0  0  0  0  0  0  0  0  0
    0.2710   11.6590   -2.6730 C   0  0  0  0  0  0  0  0  0  0  0  0
    0.5240   12.6990   -1.8380 N   0  0  0  0  0  0  0  0  0  0  0  0
   -0.4210   11.4280   -5.0600 C   0  0  0  0  0  0  0  0  0  0  0  0
    0.2830   10.4840   -2.3030 O   0  0  0  0  0  0  0  0  0  0  0  0
   -0.2860   14.9440   -0.3550 C   0  0  0  0  0  0  0  0  0  0  0  0
    0.1140   11.6330   -6.3410 C   0  0  0  0  0  0  0  0  0  0  0  0
   -1.4020   10.4360   -4.9130 C   0  0  0  0  0  0  0  0  0  0  0  0
   -1.6830   14.5170    0.1090 C   0  0  0  0  0  0  0  0  0  0  0  0
   -0.3160   10.8720   -7.4350 C   0  0  0  0  0  0  0  0  0  0  0  0
   -1.8340    9.6720   -6.0000 C   0  0  0  0  0  0  0  0  0  0  0  0
   -2.6480   15.6990    0.0250 C   0  0  0  0  0  0  0  0  0  0  0  0
   -1.2890    9.8920   -7.2570 C   0  0  0  0  0  0  0  0  0  0  0  0
   -1.8210    8.9510   -8.5940 Cl  0  0  0  0  0  0  0  0  0  0  0  0
   -4.1110   15.3410   -0.0260 C   0  0  0  0  0  0  0  0  0  0  0  0
   -4.8240   15.2520   -1.2290 C   0  0  0  0  0  0  0  0  0  0  0  0
   -4.7850   15.0970    1.1700 C   0  0  0  0  0  0  0  0  0  0  0  0
   -6.1820   14.9210   -1.2160 C   0  0  0  0  0  0  0  0  0  0  0  0
   -6.1460   14.7640    1.1950 C   0  0  0  0  0  0  0  0  0  0  0  0
   -6.7060   14.5440    2.4670 N   0  0  0  0  0  0  0  0  0  0  0  0
   -6.8410   14.6760   -0.0070 C   0  0  0  0  0  0  0  0  0  0  0  0
   -7.7950   15.1770    3.0450 C   0  0  0  0  0  0  0  0  0  0  0  0
   -8.8120   15.5070    2.4420 O   0  0  0  0  0  0  0  0  0  0  0  0
   -7.5840   15.4030    4.4050 N   0  0  0  0  0  0  0  0  0  0  0  0
   -8.4310   16.1520    5.2540 C   0  0  0  0  0  0  0  0  0  0  0  0
   -9.1490   17.2860    4.8750 C   0  0  0  0  0  0  0  0  0  0  0  0
   -8.5730   15.7360    6.5800 C   0  0  0  0  0  0  0  0  0  0  0  0
   -9.9600   17.9930    5.7000 N   0  0  0  0  0  0  0  0  0  0  0  0
   -9.4010   16.4480    7.4510 C   0  0  0  0  0  0  0  0  0  0  0  0
  -10.0660   17.5600    6.9660 C   0  0  0  0  0  0  0  0  0  0  0  0
  2  1  1  6
  2  3  1  0
  2  4  1  0
  4  5  2  3
  3  6  1  0
  4  7  1  0
  6  7  1  0
  3  8  1  0
  6  9  2  0
  5 10  1  0
  8 11  2  0
  8 12  1  0
 10 13  1  0
 11 14  1  0
 12 15  2  0
 13 16  1  0
 14 17  2  0
 15 17  1  0
 17 18  1  0
 16 19  1  0
 19 20  2  0
 19 21  1  0
 20 22  1  0
 21 23  2  0
 23 24  1  0
 22 25  2  0
 23 25  1  0
 24 26  1  0
 26 27  2  0
 26 28  1  0
 28 29  1  0
 29 30  2  0
 29 31  1  0
 30 32  1  0
 31 33  2  0
 32 34  2  0
 33 34  1  0
M  END
