x1015_0_A_α-x0962_3_A_α
     RDKit          3D

 22 24  0  0  0  0  0  0  0  0999 V2000
   -2.4950   14.6080   -2.7620 C   0  0  0  0  0  0  0  0  0  0  0  0
   -1.2380   13.8340   -3.1310 C   0  0  2  0  0  0  0  0  0  0  0  0
   -1.3170   12.3980   -2.8510 N   0  0  0  0  0  0  0  0  0  0  0  0
   -0.1090   14.2580   -2.2030 C   0  0  0  0  0  0  0  0  0  0  0  0
    0.3620   15.3810   -2.1090 O   0  0  0  0  0  0  0  0  0  0  0  0
   -0.2510   12.0450   -1.9930 C   0  0  0  0  0  0  0  0  0  0  0  0
    0.2960   13.1860   -1.5020 N   0  0  0  0  0  0  0  0  0  0  0  0
   -1.7480   11.5080   -3.8720 C   0  0  0  0  0  0  0  0  0  0  0  0
    0.1760   10.9320   -1.6820 O   0  0  0  0  0  0  0  0  0  0  0  0
   -1.6390   11.8870   -5.2100 C   0  0  0  0  0  0  0  0  0  0  0  0
   -2.2760   10.2380   -3.6040 C   0  0  0  0  0  0  0  0  0  0  0  0
   -2.0170   11.0300   -6.2380 C   0  0  0  0  0  0  0  0  0  0  0  0
   -2.6580    9.3590   -4.6400 C   0  0  0  0  0  0  0  0  0  0  0  0
   -2.5190    9.7480   -5.9690 C   0  0  0  0  0  0  0  0  0  0  0  0
   -2.8290    8.8810   -7.1620 C   0  0  0  0  0  0  0  0  0  0  0  0
   -1.5660    9.2040   -7.7640 N   0  0  0  0  0  0  0  0  0  0  0  0
   -0.8670    8.8430   -8.8890 C   0  0  0  0  0  0  0  0  0  0  0  0
   -0.8280   10.0950   -7.0920 C   0  0  0  0  0  0  0  0  0  0  0  0
    0.2880   10.2880   -7.7800 C   0  0  0  0  0  0  0  0  0  0  0  0
    0.3030    9.5050   -8.9280 N   0  0  0  0  0  0  0  0  0  0  0  0
    1.2450   11.2090   -7.2840 C   0  0  0  0  0  0  0  0  0  0  0  0
    1.9110   11.9960   -6.7490 N   0  0  0  0  0  0  0  0  0  0  0  0
  2  1  1  1
  2  3  1  0
  2  4  1  0
  4  5  2  0
  3  6  1  0
  4  7  1  0
  6  7  1  0
  3  8  1  0
  6  9  2  0
  8 10  2  0
  8 11  1  0
 10 12  1  0
 11 13  2  0
 12 14  2  0
 13 14  1  0
 14 15  1  0
 15 16  1  0
 16 17  1  0
 16 18  1  0
 18 19  2  0
 17 20  2  0
 19 20  1  0
 19 21  1  0
 21 22  3  0
M  END
