x1012_0_A-x0962_0_A
     RDKit          3D

 19 20  0  0  0  0  0  0  0  0999 V2000
   -0.3110   18.2480   -4.7390 N   0  0  0  0  0  0  0  0  0  0  0  0
   -1.2120   17.2460   -4.7910 C   0  0  0  0  0  0  0  0  0  0  0  0
   -2.4010   17.5210   -4.7620 O   0  0  0  0  0  0  0  0  0  0  0  0
   -0.7100   15.9710   -4.8430 N   0  0  0  0  0  0  0  0  0  0  0  0
   -1.6890   14.8760   -4.8280 C   0  0  0  0  0  0  0  0  0  0  0  0
    0.7080   15.6420   -4.6310 C   0  0  0  0  0  0  0  0  0  0  0  0
   -1.5080   13.9100   -3.6560 C   0  0  2  0  0  0  0  0  0  0  0  0
    0.9140   14.7160   -3.4340 C   0  0  0  0  0  0  0  0  0  0  0  0
   -2.2250   14.3800   -2.4350 C   0  0  0  0  0  0  0  0  0  0  0  0
   -0.0240   13.4970   -3.5080 C   0  0  1  0  0  0  0  0  0  0  0  0
    0.2010   12.5510   -2.3420 C   0  0  0  0  0  0  0  0  0  0  0  0
   -2.8880   14.6710   -1.4670 C   0  0  0  0  0  0  0  0  0  0  0  0
    0.0290   11.2620   -2.6990 O   0  0  0  0  0  0  0  0  0  0  0  0
    0.4930   12.8330   -1.1910 O   0  0  0  0  0  0  0  0  0  0  0  0
   -3.7300   14.8730   -0.3420 C   0  0  0  0  0  0  0  0  0  0  0  0
   -3.3280   15.1910    0.9270 N   0  0  0  0  0  0  0  0  0  0  0  0
   -5.1010   14.7900   -0.2730 C   0  0  0  0  0  0  0  0  0  0  0  0
   -4.4540   15.2800    1.7030 C   0  0  0  0  0  0  0  0  0  0  0  0
   -5.5430   15.0350    0.9960 N   0  0  0  0  0  0  0  0  0  0  0  0
  1  2  1  0
  2  3  2  0
  2  4  1  0
  4  5  1  0
  4  6  1  0
  5  7  1  0
  6  8  1  0
  7  9  1  1
  7 10  1  0
  8 10  1  0
 10 11  1  1
  9 12  3  0
 11 13  1  0
 11 14  2  0
 12 15  1  0
 15 16  1  0
 15 17  2  0
 16 18  1  0
 17 19  1  0
 18 19  2  0
M  END
