x1018_0_A_α-x1012_0_A_α
     RDKit          3D

 24 26  0  0  0  0  0  0  0  0999 V2000
   -8.5070   14.5180    1.0770 Cl  0  0  0  0  0  0  0  0  0  0  0  0
   -6.8570   14.6040    0.5740 C   0  0  0  0  0  0  0  0  0  0  0  0
   -5.7860   14.4630    1.5810 C   0  0  0  0  0  0  0  0  0  0  0  0
   -6.6680   14.7940   -0.6810 N   0  0  0  0  0  0  0  0  0  0  0  0
   -5.3680   14.8720   -1.0550 N   0  0  0  0  0  0  0  0  0  0  0  0
   -4.5340   14.7650    1.2050 C   0  0  0  0  0  0  0  0  0  0  0  0
   -4.9320   13.8870   -1.9190 N   0  0  0  0  0  0  0  0  0  0  0  0
   -4.2560   15.2340   -0.1730 C   0  0  1  0  0  0  0  0  0  0  0  0
   -3.1160   14.6340   -0.8460 N   0  0  0  0  0  0  0  0  0  0  0  0
   -3.6350   14.3860   -2.1840 N   0  0  0  0  0  0  0  0  0  0  0  0
   -3.9200   15.6610   -2.7690 C   0  0  0  0  0  0  0  0  0  0  0  0
   -3.4810   15.8550   -4.2310 C   0  0  0  0  0  0  0  0  0  0  0  0
   -2.1980   15.4540   -4.5910 N   0  0  0  0  0  0  0  0  0  0  0  0
   -1.2520   16.2590   -4.8310 C   0  0  0  0  0  0  0  0  0  0  0  0
   -1.1710   17.6320   -4.8020 N   0  0  0  0  0  0  0  0  0  0  0  0
   -0.1360   15.6180   -5.1880 N   0  0  0  0  0  0  0  0  0  0  0  0
   -0.3830   14.1990   -5.4620 C   0  0  0  0  0  0  0  0  0  0  0  0
    1.1140   15.8380   -4.4780 C   0  0  0  0  0  0  0  0  0  0  0  0
   -0.6930   13.5040   -4.1710 C   0  0  0  0  0  0  0  0  0  0  0  0
    1.5360   14.6120   -3.6680 C   0  0  0  0  0  0  0  0  0  0  0  0
    0.3260   13.8530   -3.1040 C   0  0  0  0  0  0  0  0  0  0  0  0
    0.6090   12.6340   -2.2690 C   0  0  0  0  0  0  0  0  0  0  0  0
    0.6780   11.4430   -2.8900 O   0  0  0  0  0  0  0  0  0  0  0  0
    0.7350   12.7050   -1.0690 O   0  0  0  0  0  0  0  0  0  0  0  0
  1  2  1  0
  2  3  1  0
  2  4  2  0
  4  5  1  0
  3  6  2  0
  5  7  1  0
  5  8  1  0
  8  6  1  1
  8  9  1  0
  7 10  1  0
  9 10  1  0
 10 11  1  0
 11 12  1  0
 12 13  1  0
 13 14  2  3
 14 15  1  0
 14 16  1  0
 16 17  1  0
 16 18  1  0
 17 19  1  0
 18 20  1  0
 19 21  1  0
 20 21  1  0
 21 22  1  0
 22 23  1  0
 22 24  2  0
M  END
