x1015_0_A-x0910_0_A
     RDKit          3D

 23 25  0  0  0  0  0  0  0  0999 V2000
   -0.8830   14.0350   -4.8630 C   0  0  0  0  0  0  0  0  0  0  0  0
    0.3120   13.2560   -4.3000 C   0  0  2  0  0  0  0  0  0  0  0  0
   -0.0550   11.8910   -4.0600 N   0  0  0  0  0  0  0  0  0  0  0  0
    0.6690   13.6000   -2.8740 C   0  0  0  0  0  0  0  0  0  0  0  0
    0.5730   14.6960   -2.2910 N   0  0  0  0  0  0  0  0  0  0  0  0
    0.4350   11.4540   -2.8130 C   0  0  0  0  0  0  0  0  0  0  0  0
    1.1260   12.4950   -2.2730 N   0  0  0  0  0  0  0  0  0  0  0  0
   -0.5110   11.1260   -5.1340 C   0  0  0  0  0  0  0  0  0  0  0  0
    0.3050   10.3670   -2.2650 O   0  0  0  0  0  0  0  0  0  0  0  0
   -0.0160   15.6200   -3.2120 C   0  0  0  0  0  0  0  0  0  0  0  0
    0.0250   11.3560   -6.4090 C   0  0  0  0  0  0  0  0  0  0  0  0
   -1.4870   10.1410   -4.9890 C   0  0  0  0  0  0  0  0  0  0  0  0
   -1.5250   15.2000   -3.2950 C   0  0  0  0  0  0  0  0  0  0  0  0
   -0.4020   10.6220   -7.5110 C   0  0  0  0  0  0  0  0  0  0  0  0
   -1.9190    9.4000   -6.0880 C   0  0  0  0  0  0  0  0  0  0  0  0
   -2.1950   14.7880   -2.0230 N   0  0  0  0  0  0  0  0  0  0  0  0
   -1.3740    9.6460   -7.3420 C   0  0  0  0  0  0  0  0  0  0  0  0
   -1.9100    8.7340   -8.6940 Cl  0  0  0  0  0  0  0  0  0  0  0  0
   -1.5850   14.8090   -0.8070 C   0  0  0  0  0  0  0  0  0  0  0  0
   -2.2960   14.7990    0.3710 N   0  0  0  0  0  0  0  0  0  0  0  0
   -0.3110   14.8470   -0.5100 N   0  0  0  0  0  0  0  0  0  0  0  0
   -1.4810   14.8320    1.4370 N   0  0  0  0  0  0  0  0  0  0  0  0
   -0.2910   14.8650    0.8490 C   0  0  0  0  0  0  0  0  0  0  0  0
  2  1  1  1
  2  3  1  0
  2  4  1  0
  4  5  2  3
  3  6  1  0
  4  7  1  0
  6  7  1  0
  3  8  1  0
  6  9  2  0
  5 10  1  0
  8 11  2  0
  8 12  1  0
 10 13  1  0
 11 14  1  0
 12 15  2  0
 13 16  1  0
 14 17  2  0
 15 17  1  0
 17 18  1  0
 16 19  1  0
 19 20  1  0
 19 21  2  0
 20 22  1  0
 21 23  1  0
 22 23  2  0
M  END
