x1015_0_A_α-x0662_0_A_α
     RDKit          3D

 26 28  0  0  0  0  0  0  0  0999 V2000
   -1.3040   14.4430   -4.2570 C   0  0  0  0  0  0  0  0  0  0  0  0
   -0.0090   13.6930   -3.9460 C   0  0  2  0  0  0  0  0  0  0  0  0
   -0.1560   12.2430   -3.8960 N   0  0  0  0  0  0  0  0  0  0  0  0
    0.3970   13.9650   -2.5050 C   0  0  0  0  0  0  0  0  0  0  0  0
    0.4860   15.0580   -1.9660 O   0  0  0  0  0  0  0  0  0  0  0  0
    0.2580   11.7350   -2.6580 C   0  0  0  0  0  0  0  0  0  0  0  0
    0.6570   12.7870   -1.8910 N   0  0  0  0  0  0  0  0  0  0  0  0
   -0.5120   11.4570   -5.0150 C   0  0  0  0  0  0  0  0  0  0  0  0
    0.2850   10.5630   -2.2690 O   0  0  0  0  0  0  0  0  0  0  0  0
    0.0630   11.6760   -6.2710 C   0  0  0  0  0  0  0  0  0  0  0  0
   -1.4570   10.4300   -4.8910 C   0  0  0  0  0  0  0  0  0  0  0  0
   -0.2940   10.8920   -7.3690 C   0  0  0  0  0  0  0  0  0  0  0  0
   -1.8160    9.6440   -5.9870 C   0  0  0  0  0  0  0  0  0  0  0  0
   -1.2370    9.8690   -7.2370 C   0  0  0  0  0  0  0  0  0  0  0  0
   -1.6220    9.0150   -8.4200 C   0  0  0  0  0  0  0  0  0  0  0  0
   -0.5170    8.0230   -8.7860 C   0  0  0  0  0  0  0  0  0  0  0  0
    0.8350    8.7000   -9.0500 C   0  0  0  0  0  0  0  0  0  0  0  0
    1.8130    7.7070   -9.6760 C   0  0  0  0  0  0  0  0  0  0  0  0
    2.5250    8.2480  -10.8320 N   0  0  0  0  0  0  0  0  0  0  0  0
    2.2440    9.3350  -11.4650 C   0  0  0  0  0  0  0  0  0  0  0  0
    2.9460    9.8890  -12.6170 C   0  0  0  0  0  0  0  0  0  0  0  0
    3.8980    9.2180  -13.2770 N   0  0  0  0  0  0  0  0  0  0  0  0
    2.7500   11.1780  -13.1950 C   0  0  0  0  0  0  0  0  0  0  0  0
    4.3000   10.0530  -14.2440 N   0  0  0  0  0  0  0  0  0  0  0  0
    3.6390   11.2510  -14.2420 C   0  0  0  0  0  0  0  0  0  0  0  0
    5.3420    9.6270  -15.1470 C   0  0  0  0  0  0  0  0  0  0  0  0
  2  1  1  1
  2  3  1  0
  2  4  1  0
  4  5  2  0
  3  6  1  0
  4  7  1  0
  6  7  1  0
  3  8  1  0
  6  9  2  0
  8 10  2  0
  8 11  1  0
 10 12  1  0
 11 13  2  0
 12 14  2  0
 13 14  1  0
 14 15  1  0
 15 16  1  0
 16 17  1  0
 17 18  1  0
 18 19  1  0
 19 20  2  3
 20 21  1  0
 21 22  2  0
 21 23  1  0
 22 24  1  0
 23 25  2  0
 24 25  1  0
 24 26  1  0
M  END
