x1018_0_A-x0689_0_A
     RDKit          3D

 17 19  0  0  0  0  0  0  0  0999 V2000
   -8.6570   14.5190    0.8420 Cl  0  0  0  0  0  0  0  0  0  0  0  0
   -7.0320   14.6560    0.2860 C   0  0  0  0  0  0  0  0  0  0  0  0
   -5.9440   14.7010    1.2890 C   0  0  0  0  0  0  0  0  0  0  0  0
   -6.8770   14.7190   -0.9960 N   0  0  0  0  0  0  0  0  0  0  0  0
   -5.5830   14.8340   -1.3440 N   0  0  0  0  0  0  0  0  0  0  0  0
   -4.6870   14.8230    0.8640 C   0  0  0  0  0  0  0  0  0  0  0  0
   -5.1770   14.9110   -2.6180 N   0  0  0  0  0  0  0  0  0  0  0  0
   -4.4900   14.8930   -0.5310 C   0  0  0  0  0  0  0  0  0  0  0  0
   -3.5730   14.8760    1.6070 N   0  0  0  0  0  0  0  0  0  0  0  0
   -3.4170   15.0070   -1.2820 N   0  0  0  0  0  0  0  0  0  0  0  0
   -3.8570   15.0160   -2.5750 N   0  0  0  0  0  0  0  0  0  0  0  0
   -2.3010   14.6850    1.1520 C   0  0  0  0  0  0  0  0  0  0  0  0
   -2.1380   14.7640   -0.1730 N   0  0  0  0  0  0  0  0  0  0  0  0
   -1.3280   14.4420    1.9800 N   0  0  0  0  0  0  0  0  0  0  0  0
   -0.9130   14.5880   -0.6740 C   0  0  0  0  0  0  0  0  0  0  0  0
   -0.1300   14.2720    1.4580 C   0  0  0  0  0  0  0  0  0  0  0  0
    0.1580   14.3340    0.1130 C   0  0  0  0  0  0  0  0  0  0  0  0
  1  2  1  0
  2  3  1  0
  2  4  2  0
  4  5  1  0
  3  6  2  0
  5  7  1  0
  5  8  1  0
  6  8  1  0
  6  9  1  0
  8 10  2  0
  7 11  2  0
 10 11  1  0
  9 12  1  0
 12 13  2  0
 12 14  1  0
 13 15  1  0
 14 16  2  0
 15 17  2  0
 16 17  1  0
M  END
