x1018_0_A-x0910_1_A
     RDKit          3D

 10 11  0  0  0  0  0  0  0  0999 V2000
   -8.3660   14.5700    0.8790 Cl  0  0  0  0  0  0  0  0  0  0  0  0
   -6.6960   14.6500    0.4570 C   0  0  0  0  0  0  0  0  0  0  0  0
   -5.6780   14.6170    1.5510 C   0  0  0  0  0  0  0  0  0  0  0  0
   -6.4370   14.7450   -0.8050 N   0  0  0  0  0  0  0  0  0  0  0  0
   -5.1100   14.8080   -1.0530 N   0  0  0  0  0  0  0  0  0  0  0  0
   -4.3860   14.6840    1.2130 C   0  0  0  0  0  0  0  0  0  0  0  0
   -4.6170   14.9060   -2.2930 N   0  0  0  0  0  0  0  0  0  0  0  0
   -4.0630   14.7840   -0.1520 C   0  0  0  0  0  0  0  0  0  0  0  0
   -2.9360   14.8640   -0.8210 N   0  0  0  0  0  0  0  0  0  0  0  0
   -3.2970   14.9390   -2.1480 N   0  0  0  0  0  0  0  0  0  0  0  0
  1  2  1  0
  2  3  1  0
  2  4  2  0
  4  5  1  0
  3  6  2  0
  5  7  1  0
  5  8  1  0
  6  8  1  0
  8  9  2  0
  7 10  2  0
  9 10  1  0
M  END
