x1018_0_A_α-x0805_0_A_α
     RDKit          3D

 12 13  0  0  0  0  0  0  0  0999 V2000
   -8.5170   14.7720    0.9370 Cl  0  0  0  0  0  0  0  0  0  0  0  0
   -6.8550   14.5620    0.5050 C   0  0  0  0  0  0  0  0  0  0  0  0
   -5.8440   14.4010    1.5830 C   0  0  0  0  0  0  0  0  0  0  0  0
   -6.6010   14.5510   -0.7620 N   0  0  0  0  0  0  0  0  0  0  0  0
   -5.2970   14.3600   -1.1090 N   0  0  0  0  0  0  0  0  0  0  0  0
   -4.6120   14.0340    1.2030 C   0  0  0  0  0  0  0  0  0  0  0  0
   -4.7670   15.1970   -2.0730 N   0  0  0  0  0  0  0  0  0  0  0  0
   -4.2710   13.8020   -0.2310 C   0  0  2  0  0  0  0  0  0  0  0  0
   -3.0380   14.4530   -0.6810 N   0  0  0  0  0  0  0  0  0  0  0  0
   -3.3430   15.0660   -1.9620 N   0  0  0  0  0  0  0  0  0  0  0  0
   -2.7100   15.4280    0.3430 O   0  0  0  0  0  0  0  0  0  0  0  0
   -3.8880   16.0250    0.8780 C   0  0  0  0  0  0  0  0  0  0  0  0
  1  2  1  0
  2  3  1  0
  2  4  2  0
  4  5  1  0
  3  6  2  0
  5  7  1  0
  5  8  1  0
  8  6  1  1
  8  9  1  0
  7 10  1  0
  9 10  1  0
  9 11  1  0
 11 12  1  0
M  END
