x1018_0_A_α-x1015_0_A_α
     RDKit          3D

 26 29  0  0  0  0  0  0  0  0999 V2000
   -8.3930   14.3960    0.7760 Cl  0  0  0  0  0  0  0  0  0  0  0  0
   -6.7180   14.6200    0.4230 C   0  0  0  0  0  0  0  0  0  0  0  0
   -5.7200   14.2920    1.4650 C   0  0  0  0  0  0  0  0  0  0  0  0
   -6.4440   15.0800   -0.7530 N   0  0  0  0  0  0  0  0  0  0  0  0
   -5.1220   15.2880   -1.0330 N   0  0  0  0  0  0  0  0  0  0  0  0
   -4.4430   14.6040    1.2100 C   0  0  0  0  0  0  0  0  0  0  0  0
   -4.6820   14.8960   -2.2870 N   0  0  0  0  0  0  0  0  0  0  0  0
   -4.0340   15.2590   -0.0590 C   0  0  1  0  0  0  0  0  0  0  0  0
   -2.9510   14.6040   -0.7980 N   0  0  0  0  0  0  0  0  0  0  0  0
   -3.2540   14.9030   -2.2050 N   0  0  0  0  0  0  0  0  0  0  0  0
   -2.6710   13.8520   -3.0690 C   0  0  0  0  0  0  0  0  0  0  0  0
   -1.5480   14.3420   -4.0120 C   0  0  0  0  0  0  0  0  0  0  0  0
   -0.1620   13.6820   -3.8730 C   0  0  2  0  0  0  0  0  0  0  0  0
   -0.1150   12.2240   -3.9160 N   0  0  0  0  0  0  0  0  0  0  0  0
    0.4590   13.9390   -2.5070 C   0  0  0  0  0  0  0  0  0  0  0  0
    0.6420   15.0290   -1.9840 O   0  0  0  0  0  0  0  0  0  0  0  0
    0.3080   11.7080   -2.6800 C   0  0  0  0  0  0  0  0  0  0  0  0
    0.7930   12.7490   -1.9490 N   0  0  0  0  0  0  0  0  0  0  0  0
   -0.5030   11.4390   -5.0310 C   0  0  0  0  0  0  0  0  0  0  0  0
    0.2780   10.5440   -2.2730 O   0  0  0  0  0  0  0  0  0  0  0  0
    0.0660   11.6420   -6.2980 C   0  0  0  0  0  0  0  0  0  0  0  0
   -1.4670   10.4310   -4.8990 C   0  0  0  0  0  0  0  0  0  0  0  0
   -0.3180   10.8630   -7.3950 C   0  0  0  0  0  0  0  0  0  0  0  0
   -1.8540    9.6490   -5.9910 C   0  0  0  0  0  0  0  0  0  0  0  0
   -1.2790    9.8680   -7.2340 C   0  0  0  0  0  0  0  0  0  0  0  0
   -1.7570    8.9050   -8.5760 Cl  0  0  0  0  0  0  0  0  0  0  0  0
  1  2  1  0
  2  3  1  0
  2  4  2  0
  4  5  1  0
  3  6  2  0
  5  7  1  0
  5  8  1  0
  8  6  1  1
  8  9  1  0
  7 10  1  0
  9 10  1  0
 10 11  1  0
 11 12  1  0
 13 12  1  1
 13 14  1  0
 13 15  1  0
 15 16  2  0
 14 17  1  0
 15 18  1  0
 17 18  1  0
 14 19  1  0
 17 20  2  0
 19 21  2  0
 19 22  1  0
 21 23  1  0
 22 24  2  0
 23 25  2  0
 24 25  1  0
 25 26  1  0
M  END
