x1018_0_A-x0371_0_A
     RDKit          3D

 18 20  0  0  0  0  0  0  0  0999 V2000
   -8.1900   14.5900    1.1320 C   0  0  0  0  0  0  0  0  0  0  0  0
   -8.1110   14.5860    2.5980 N   0  0  0  0  0  0  0  0  0  0  0  0
   -8.8200   15.5190    3.3540 C   0  0  0  0  0  0  0  0  0  0  0  0
   -6.7670   14.6930    0.5660 C   0  0  0  0  0  0  0  0  0  0  0  0
   -6.5570   14.6290   -0.7230 N   0  0  0  0  0  0  0  0  0  0  0  0
   -5.6910   14.8740    1.5750 C   0  0  0  0  0  0  0  0  0  0  0  0
   -9.5600   16.3200    2.7880 O   0  0  0  0  0  0  0  0  0  0  0  0
   -5.2330   14.7330   -1.0430 N   0  0  0  0  0  0  0  0  0  0  0  0
   -4.4200   14.9640    1.1740 C   0  0  0  0  0  0  0  0  0  0  0  0
   -8.6410   15.4900    4.8010 C   0  0  0  0  0  0  0  0  0  0  0  0
   -4.7880   14.6920   -2.3090 N   0  0  0  0  0  0  0  0  0  0  0  0
   -4.1500   14.8900   -0.2010 C   0  0  0  0  0  0  0  0  0  0  0  0
   -8.0580   14.3900    5.3680 O   0  0  0  0  0  0  0  0  0  0  0  0
   -8.9550   16.3920    5.8130 C   0  0  0  0  0  0  0  0  0  0  0  0
   -3.0560   14.9390   -0.9200 N   0  0  0  0  0  0  0  0  0  0  0  0
   -3.4680   14.8150   -2.2280 N   0  0  0  0  0  0  0  0  0  0  0  0
   -8.5410   15.8000    7.0350 C   0  0  0  0  0  0  0  0  0  0  0  0
   -7.9990   14.5850    6.7080 C   0  0  0  0  0  0  0  0  0  0  0  0
  1  2  1  0
  2  3  1  0
  1  4  1  0
  4  5  2  0
  4  6  1  0
  3  7  2  0
  5  8  1  0
  6  9  2  0
  3 10  1  0
  8 11  1  0
  8 12  1  0
  9 12  1  0
 10 13  1  0
 10 14  2  0
 12 15  2  0
 11 16  2  0
 15 16  1  0
 14 17  1  0
 13 18  1  0
 17 18  2  0
M  END
