x1012_0_A-x0631_0_A
     RDKit          3D

 31 33  0  0  0  0  0  0  0  0999 V2000
   -0.2290   18.3100   -4.7700 N   0  0  0  0  0  0  0  0  0  0  0  0
   -1.1540   17.3360   -4.8260 C   0  0  0  0  0  0  0  0  0  0  0  0
   -2.3380   17.6390   -4.7730 O   0  0  0  0  0  0  0  0  0  0  0  0
   -0.6950   16.0460   -4.9130 N   0  0  0  0  0  0  0  0  0  0  0  0
   -1.5950   14.9070   -4.8180 C   0  0  0  0  0  0  0  0  0  0  0  0
    0.7520   15.7780   -4.7420 C   0  0  0  0  0  0  0  0  0  0  0  0
   -1.2880   14.1830   -3.5290 C   0  0  0  0  0  0  0  0  0  0  0  0
    1.0730   14.8140   -3.5780 C   0  0  0  0  0  0  0  0  0  0  0  0
    0.1260   13.6120   -3.6200 C   0  0  0  0  0  0  0  0  0  0  0  0
    0.3540   12.5070   -2.5890 C   0  0  0  0  0  0  0  0  0  0  0  0
    0.0700   11.3020   -3.1720 O   0  0  0  0  0  0  0  0  0  0  0  0
    0.7150   12.6710   -1.4220 O   0  0  0  0  0  0  0  0  0  0  0  0
   -0.5630   11.3940   -4.4800 C   0  0  0  0  0  0  0  0  0  0  0  0
   -1.2790   10.0880   -4.8440 C   0  0  0  0  0  0  0  0  0  0  0  0
   -0.2960    9.3120   -5.6540 C   0  0  0  0  0  0  0  0  0  0  0  0
   -0.6480    8.6940   -7.0080 C   0  0  1  0  0  0  0  0  0  0  0  0
   -2.0480    8.0790   -6.9350 C   0  0  0  0  0  0  0  0  0  0  0  0
   -0.5520    9.7760   -8.0110 N   0  0  0  0  0  0  0  0  0  0  0  0
   -3.1220    8.9770   -7.5250 C   0  0  0  0  0  0  0  0  0  0  0  0
    0.2910   10.8550   -7.6020 N   0  0  0  0  0  0  0  0  0  0  0  0
   -0.0510    9.3170   -9.3000 N   0  0  0  0  0  0  0  0  0  0  0  0
    0.7980   11.3400   -8.8430 N   0  0  0  0  0  0  0  0  0  0  0  0
    1.1260   10.1090   -9.5130 C   0  0  2  0  0  0  0  0  0  0  0  0
    1.3740   10.4180  -10.8750 N   0  0  0  0  0  0  0  0  0  0  0  0
    2.3290    9.5880  -11.5720 C   0  0  1  0  0  0  0  0  0  0  0  0
    1.7880    8.2790  -11.5960 O   0  0  0  0  0  0  0  0  0  0  0  0
    2.6660   10.0110  -13.0330 C   0  0  2  0  0  0  0  0  0  0  0  0
    4.0280    9.6130  -13.3070 O   0  0  0  0  0  0  0  0  0  0  0  0
    2.6390   11.4920  -13.3550 C   0  0  0  0  0  0  0  0  0  0  0  0
    3.6000   11.6180  -14.5210 C   0  0  0  0  0  0  0  0  0  0  0  0
    4.4330   10.3490  -14.4640 C   0  0  0  0  0  0  0  0  0  0  0  0
  1  2  1  0
  2  3  2  0
  2  4  1  0
  4  5  1  0
  4  6  1  0
  5  7  1  0
  6  8  1  0
  7  9  1  0
  8  9  1  0
  9 10  1  0
 10 11  1  0
 10 12  2  0
 11 13  1  0
 13 14  1  0
 14 15  1  0
 16 15  1  1
 16 17  1  0
 16 18  1  0
 17 19  1  0
 18 20  1  0
 18 21  1  0
 20 22  1  0
 21 23  1  0
 22 23  1  0
 23 24  1  6
 24 25  1  0
 25 26  1  6
 25 27  1  0
 27 28  1  0
 27 29  1  1
 29 30  1  0
 28 31  1  0
 30 31  1  0
M  END
