x1012_0_A-x0967_0_A
     RDKit          3D

 24 26  0  0  0  0  0  0  0  0999 V2000
   -0.7080   18.0260   -4.9950 N   0  0  0  0  0  0  0  0  0  0  0  0
   -1.4200   16.8950   -4.7430 C   0  0  0  0  0  0  0  0  0  0  0  0
   -2.6590   16.8440   -4.4060 N   0  0  0  0  0  0  0  0  0  0  0  0
   -0.6430   15.7570   -4.8730 N   0  0  0  0  0  0  0  0  0  0  0  0
   -3.3090   15.5410   -4.1290 C   0  0  0  0  0  0  0  0  0  0  0  0
   -1.2450   14.4460   -5.1860 C   0  0  0  0  0  0  0  0  0  0  0  0
    0.7770   15.7330   -4.4760 C   0  0  0  0  0  0  0  0  0  0  0  0
   -2.7860   14.8870   -2.8420 C   0  0  0  0  0  0  0  0  0  0  0  0
   -1.0790   13.4880   -4.0180 C   0  0  0  0  0  0  0  0  0  0  0  0
    0.9950   14.7440   -3.3200 C   0  0  0  0  0  0  0  0  0  0  0  0
    0.3780   13.3600   -3.5890 C   0  0  0  0  0  0  0  0  0  0  0  0
   -3.6810   14.8940   -1.6140 C   0  0  0  0  0  0  0  0  0  0  0  0
    0.4640   12.4230   -2.3940 C   0  0  0  0  0  0  0  0  0  0  0  0
   -5.0210   14.7370   -1.7690 N   0  0  0  0  0  0  0  0  0  0  0  0
   -3.0960   15.0500   -0.3600 C   0  0  0  0  0  0  0  0  0  0  0  0
    0.3960   11.1220   -2.7610 O   0  0  0  0  0  0  0  0  0  0  0  0
    0.5750   12.7550   -1.2270 O   0  0  0  0  0  0  0  0  0  0  0  0
   -5.8080   14.7240   -0.6900 C   0  0  0  0  0  0  0  0  0  0  0  0
   -3.9050   15.0460    0.7610 C   0  0  0  0  0  0  0  0  0  0  0  0
   -7.1190   14.5560   -0.8790 N   0  0  0  0  0  0  0  0  0  0  0  0
   -5.2830   14.8780    0.6030 C   0  0  0  0  0  0  0  0  0  0  0  0
   -6.1610   14.8550    1.6920 C   0  0  0  0  0  0  0  0  0  0  0  0
   -7.9420   14.5320    0.1910 C   0  0  0  0  0  0  0  0  0  0  0  0
   -7.5160   14.6740    1.4900 C   0  0  0  0  0  0  0  0  0  0  0  0
  1  2  1  0
  2  3  2  3
  2  4  1  0
  3  5  1  0
  4  6  1  0
  4  7  1  0
  5  8  1  0
  6  9  1  0
  7 10  1  0
  9 11  1  0
 10 11  1  0
  8 12  1  0
 11 13  1  0
 12 14  2  0
 12 15  1  0
 13 16  1  0
 13 17  2  0
 14 18  1  0
 15 19  2  0
 18 20  2  0
 18 21  1  0
 19 21  1  0
 21 22  2  0
 20 23  1  0
 22 24  1  0
 23 24  2  0
M  END
