x1012_0_A-x0727_0_A
     RDKit          3D

 23 24  0  0  0  0  0  0  0  0999 V2000
   -0.3930   18.3040   -4.7520 N   0  0  0  0  0  0  0  0  0  0  0  0
   -1.2870   17.2920   -4.7740 C   0  0  0  0  0  0  0  0  0  0  0  0
   -2.4610   17.5770   -4.8850 O   0  0  0  0  0  0  0  0  0  0  0  0
   -0.7890   16.0240   -4.6390 N   0  0  0  0  0  0  0  0  0  0  0  0
   -1.7740   14.9340   -4.4480 C   0  0  0  0  0  0  0  0  0  0  0  0
    0.6260   15.7960   -4.2910 C   0  0  0  0  0  0  0  0  0  0  0  0
   -1.5760   14.2090   -3.1190 C   0  0  0  0  0  0  0  0  0  0  0  0
    0.8440   14.9210   -3.0540 C   0  0  0  0  0  0  0  0  0  0  0  0
   -0.1340   13.7420   -3.0560 C   0  0  0  0  0  0  0  0  0  0  0  0
    0.1640   12.6870   -1.9780 C   0  0  0  0  0  0  0  0  0  0  0  0
    0.5500   11.6020   -2.6560 N   0  0  0  0  0  0  0  0  0  0  0  0
    0.0870   12.8150   -0.7740 O   0  0  0  0  0  0  0  0  0  0  0  0
    0.7790   12.2740   -3.7050 C   0  0  0  0  0  0  0  0  0  0  0  0
    1.2490   12.0110   -5.0710 C   0  0  1  0  0  0  0  0  0  0  0  0
    0.1540   11.4280   -5.8110 N   0  0  0  0  0  0  0  0  0  0  0  0
    1.5150   13.3480   -5.6540 C   0  0  0  0  0  0  0  0  0  0  0  0
    0.3690   11.1010   -7.1170 C   0  0  0  0  0  0  0  0  0  0  0  0
    1.3330   11.4830   -7.7250 O   0  0  0  0  0  0  0  0  0  0  0  0
   -0.6430   10.1550   -7.7150 C   0  0  0  0  0  0  0  0  0  0  0  0
   -1.5410   10.5910   -8.8400 C   0  0  0  0  0  0  0  0  0  0  0  0
   -1.7050    9.7370   -6.7090 C   0  0  0  0  0  0  0  0  0  0  0  0
   -2.5780    9.4440   -8.8480 C   0  0  0  0  0  0  0  0  0  0  0  0
   -2.4010    8.6950   -7.5200 C   0  0  0  0  0  0  0  0  0  0  0  0
  1  2  1  0
  2  3  2  0
  2  4  1  0
  4  5  1  0
  4  6  1  0
  5  7  1  0
  6  8  1  0
  7  9  1  0
  8  9  1  0
  9 10  1  0
 10 11  1  0
 10 12  2  0
 11 13  2  3
 13 14  1  0
 14 15  1  0
 14 16  1  6
 15 17  1  0
 17 18  2  0
 17 19  1  0
 19 20  1  0
 19 21  1  0
 20 22  1  0
 21 23  1  0
 22 23  1  0
M  END
