x1018_0_A-x0421_0_A
     RDKit          3D

 15 17  0  0  0  0  0  0  0  0999 V2000
   -8.4680   14.8210    0.5710 Cl  0  0  0  0  0  0  0  0  0  0  0  0
   -6.9130   14.6400   -0.1460 C   0  0  0  0  0  0  0  0  0  0  0  0
   -5.6990   14.6080    0.7410 C   0  0  0  0  0  0  0  0  0  0  0  0
   -6.8650   14.5200   -1.4310 N   0  0  0  0  0  0  0  0  0  0  0  0
   -5.6310   14.3610   -1.9510 N   0  0  0  0  0  0  0  0  0  0  0  0
   -4.4110   14.7750   -0.0610 C   0  0  0  0  0  0  0  0  0  0  0  0
   -5.8500   14.9300    2.1960 C   0  0  0  0  0  0  0  0  0  0  0  0
   -5.7500   13.4930    1.7560 C   0  0  0  0  0  0  0  0  0  0  0  0
   -2.9690   15.0920    0.1000 C   0  0  0  0  0  0  0  0  0  0  0  0
   -5.4090   14.5590   -3.2860 N   0  0  0  0  0  0  0  0  0  0  0  0
   -4.4880   14.6230   -1.3220 C   0  0  0  0  0  0  0  0  0  0  0  0
   -2.5010   15.8910   -0.9050 N   0  0  0  0  0  0  0  0  0  0  0  0
   -2.2170   14.6910    0.9450 O   0  0  0  0  0  0  0  0  0  0  0  0
   -3.5400   14.6840   -2.2690 N   0  0  0  0  0  0  0  0  0  0  0  0
   -4.1690   14.8670   -3.4570 N   0  0  0  0  0  0  0  0  0  0  0  0
  1  2  1  0
  3  2  1  0
  2  4  2  0
  4  5  1  0
  3  6  1  0
  3  7  1  0
  3  8  1  0
  7  8  1  0
  6  9  1  0
  5 10  1  0
  5 11  1  0
  6 11  2  0
  9 12  1  0
  9 13  2  0
 11 14  1  0
 10 15  2  0
 14 15  1  0
M  END
