x1018_0_A_α-x0631_0_A_β
     RDKit          3D

 23 25  0  0  0  0  0  0  0  0999 V2000
   -8.3910   14.4380    0.7530 Cl  0  0  0  0  0  0  0  0  0  0  0  0
   -6.7110   14.6420    0.4120 C   0  0  0  0  0  0  0  0  0  0  0  0
   -5.7290   14.3870    1.4920 C   0  0  0  0  0  0  0  0  0  0  0  0
   -6.4160   15.0200   -0.7890 N   0  0  0  0  0  0  0  0  0  0  0  0
   -5.0880   15.2080   -1.0670 N   0  0  0  0  0  0  0  0  0  0  0  0
   -4.4470   14.6610    1.2310 C   0  0  0  0  0  0  0  0  0  0  0  0
   -4.6500   14.7450   -2.2980 N   0  0  0  0  0  0  0  0  0  0  0  0
   -4.0070   15.2070   -0.0830 C   0  0  1  0  0  0  0  0  0  0  0  0
   -2.9270   14.4630   -0.7340 N   0  0  0  0  0  0  0  0  0  0  0  0
   -3.2420   14.5210   -2.1510 N   0  0  0  0  0  0  0  0  0  0  0  0
   -2.8070   13.3140   -2.8920 C   0  0  0  0  0  0  0  0  0  0  0  0
   -3.3340   11.9200   -2.4830 C   0  0  0  0  0  0  0  0  0  0  0  0
   -2.4750   10.7380   -2.9720 C   0  0  0  0  0  0  0  0  0  0  0  0
   -3.1320   10.0010   -4.1520 C   0  0  0  0  0  0  0  0  0  0  0  0
   -2.2960   10.0990   -5.4420 C   0  0  0  0  0  0  0  0  0  0  0  0
   -2.7390    9.0870   -6.5140 C   0  0  0  0  0  0  0  0  0  0  0  0
   -1.7140    7.9740   -6.7410 C   0  0  0  0  0  0  0  0  0  0  0  0
   -0.2750    8.4540   -6.8440 C   0  0  0  0  0  0  0  0  0  0  0  0
   -0.1740    9.5220   -7.8520 N   0  0  0  0  0  0  0  0  0  0  0  0
    0.7840    9.2430   -8.8810 N   0  0  0  0  0  0  0  0  0  0  0  0
    0.1940   10.7700   -7.2550 N   0  0  0  0  0  0  0  0  0  0  0  0
    1.0190   10.5780   -9.3710 C   0  0  0  0  0  0  0  0  0  0  0  0
    1.1890   11.3110   -8.1310 N   0  0  0  0  0  0  0  0  0  0  0  0
  1  2  1  0
  2  3  1  0
  2  4  2  0
  4  5  1  0
  3  6  2  0
  5  7  1  0
  5  8  1  0
  8  6  1  1
  8  9  1  0
  7 10  1  0
  9 10  1  0
 10 11  1  0
 11 12  1  0
 12 13  1  0
 13 14  1  0
 14 15  1  0
 15 16  1  0
 16 17  1  0
 17 18  1  0
 18 19  1  0
 19 20  1  0
 19 21  1  0
 20 22  1  0
 21 23  1  0
 22 23  1  0
M  END
