x1012_0_A_α-x0910_1_A_α
     RDKit          3D

 21 22  0  0  0  0  0  0  0  0999 V2000
   -0.9060   18.0510   -4.7260 N   0  0  0  0  0  0  0  0  0  0  0  0
   -1.5380   16.8480   -4.6330 C   0  0  0  0  0  0  0  0  0  0  0  0
   -2.7750   16.6850   -4.3020 N   0  0  0  0  0  0  0  0  0  0  0  0
   -0.7110   15.7840   -4.9190 N   0  0  0  0  0  0  0  0  0  0  0  0
   -3.4030   15.3420   -4.2170 C   0  0  0  0  0  0  0  0  0  0  0  0
   -1.2810   14.4620   -5.1970 C   0  0  0  0  0  0  0  0  0  0  0  0
    0.7290   15.8070   -4.6040 C   0  0  0  0  0  0  0  0  0  0  0  0
   -3.6450   14.8620   -2.7620 C   0  0  0  0  0  0  0  0  0  0  0  0
   -1.2010   13.5670   -3.9740 C   0  0  0  0  0  0  0  0  0  0  0  0
    1.1600   14.5470   -3.8510 C   0  0  0  0  0  0  0  0  0  0  0  0
   -4.8270   15.5610   -2.1020 C   0  0  0  0  0  0  0  0  0  0  0  0
   -0.0120   13.9120   -3.0870 C   0  0  0  0  0  0  0  0  0  0  0  0
    0.3770   12.6620   -2.3460 C   0  0  0  0  0  0  0  0  0  0  0  0
   -5.3280   15.1810   -0.8220 N   0  0  0  0  0  0  0  0  0  0  0  0
    0.5100   11.6080   -3.1740 O   0  0  0  0  0  0  0  0  0  0  0  0
    0.5420   12.5810   -1.1460 O   0  0  0  0  0  0  0  0  0  0  0  0
   -6.5520   14.6410   -0.6810 N   0  0  0  0  0  0  0  0  0  0  0  0
   -4.6970   15.3170    0.3640 C   0  0  0  0  0  0  0  0  0  0  0  0
   -6.5950   14.4740    0.6360 C   0  0  0  0  0  0  0  0  0  0  0  0
   -5.4850   14.8720    1.3080 N   0  0  0  0  0  0  0  0  0  0  0  0
   -7.6060   13.9640    1.3330 N   0  0  0  0  0  0  0  0  0  0  0  0
  1  2  1  0
  2  3  2  3
  2  4  1  0
  3  5  1  0
  4  6  1  0
  4  7  1  0
  5  8  1  0
  6  9  1  0
  7 10  1  0
  8 11  1  0
  9 12  1  0
 10 12  1  0
 12 13  1  0
 11 14  1  0
 13 15  1  0
 13 16  2  0
 14 17  1  0
 14 18  1  0
 17 19  2  0
 18 20  2  0
 19 20  1  0
 19 21  1  0
M  END
