x1012_0_A_α-x0724_0_A_α
     RDKit          3D

 27 29  0  0  0  0  0  0  0  0999 V2000
   -0.4280   18.2230   -4.4520 N   0  0  0  0  0  0  0  0  0  0  0  0
   -1.2640   17.1920   -4.6810 C   0  0  0  0  0  0  0  0  0  0  0  0
   -2.4670   17.4070   -4.6790 O   0  0  0  0  0  0  0  0  0  0  0  0
   -0.6960   15.9480   -4.8990 N   0  0  0  0  0  0  0  0  0  0  0  0
   -1.6020   14.8220   -4.6870 C   0  0  0  0  0  0  0  0  0  0  0  0
    0.7480   15.6660   -4.7850 C   0  0  0  0  0  0  0  0  0  0  0  0
   -1.2930   14.0730   -3.3870 C   0  0  2  0  0  0  0  0  0  0  0  0
    1.1360   14.6080   -3.7270 C   0  0  0  0  0  0  0  0  0  0  0  0
   -1.4250   15.0510   -2.1920 C   0  0  0  0  0  0  0  0  0  0  0  0
    0.1070   13.4760   -3.5460 C   0  0  1  0  0  0  0  0  0  0  0  0
    0.3680   12.4600   -2.4510 C   0  0  0  0  0  0  0  0  0  0  0  0
   -2.6990   14.9650   -1.4090 C   0  0  0  0  0  0  0  0  0  0  0  0
    0.1990   11.1810   -2.8150 O   0  0  0  0  0  0  0  0  0  0  0  0
    0.6870   12.7250   -1.3020 O   0  0  0  0  0  0  0  0  0  0  0  0
   -2.6730   15.1420   -0.0220 C   0  0  0  0  0  0  0  0  0  0  0  0
   -3.9160   14.7150   -2.0500 C   0  0  0  0  0  0  0  0  0  0  0  0
   -3.8490   15.0690    0.7210 C   0  0  0  0  0  0  0  0  0  0  0  0
   -5.0950   14.6400   -1.3130 C   0  0  0  0  0  0  0  0  0  0  0  0
   -5.0640   14.8220    0.0740 C   0  0  0  0  0  0  0  0  0  0  0  0
   -6.2630   14.7610    0.8190 N   0  0  0  0  0  0  0  0  0  0  0  0
   -7.4700   14.5250    0.2390 N   0  0  0  0  0  0  0  0  0  0  0  0
   -6.3890   14.9460    2.1730 C   0  0  0  0  0  0  0  0  0  0  0  0
   -7.7220   14.8450    2.4920 C   0  0  0  0  0  0  0  0  0  0  0  0
   -8.3390   14.5760    1.2530 C   0  0  0  0  0  0  0  0  0  0  0  0
   -8.3440   14.9980    3.8330 C   0  0  0  0  0  0  0  0  0  0  0  0
   -8.7710   13.6990    4.3340 N   0  0  0  0  0  0  0  0  0  0  0  0
   -8.6910   13.6710    5.7870 C   0  0  0  0  0  0  0  0  0  0  0  0
  1  2  1  0
  2  3  2  0
  2  4  1  0
  4  5  1  0
  4  6  1  0
  5  7  1  0
  6  8  1  0
  7  9  1  1
  7 10  1  0
  8 10  1  0
 10 11  1  1
  9 12  1  0
 11 13  1  0
 11 14  2  0
 12 15  2  0
 12 16  1  0
 15 17  1  0
 16 18  2  0
 17 19  2  0
 18 19  1  0
 19 20  1  0
 20 21  1  0
 20 22  1  0
 22 23  2  0
 21 24  2  0
 23 24  1  0
 23 25  1  0
 25 26  1  0
 26 27  1  0
M  END
