x1018_0_A-x0969_0_A
     RDKit          3D

 11 12  0  0  0  0  0  0  0  0999 V2000
   -8.3950   14.5940    0.7340 Cl  0  0  0  0  0  0  0  0  0  0  0  0
   -6.7050   14.6970    0.3440 C   0  0  0  0  0  0  0  0  0  0  0  0
   -5.6990   14.8070    1.4810 C   0  0  0  0  0  0  0  0  0  0  0  0
   -6.4330   14.6770   -0.9140 N   0  0  0  0  0  0  0  0  0  0  0  0
   -6.1530   14.8500    2.7630 N   0  0  0  0  0  0  0  0  0  0  0  0
   -5.1020   14.7550   -1.1410 N   0  0  0  0  0  0  0  0  0  0  0  0
   -4.4040   14.8680    1.1290 C   0  0  0  0  0  0  0  0  0  0  0  0
   -4.5920   14.7540   -2.3780 N   0  0  0  0  0  0  0  0  0  0  0  0
   -4.0670   14.8430   -0.2320 C   0  0  0  0  0  0  0  0  0  0  0  0
   -2.9330   14.8880   -0.8890 N   0  0  0  0  0  0  0  0  0  0  0  0
   -3.2810   14.8340   -2.2180 N   0  0  0  0  0  0  0  0  0  0  0  0
  1  2  1  0
  2  3  1  0
  2  4  2  0
  3  5  1  0
  4  6  1  0
  3  7  2  0
  6  8  1  0
  6  9  1  0
  7  9  1  0
  9 10  2  0
  8 11  2  0
 10 11  1  0
M  END
