x1015_0_A-x0290_0_A
     RDKit          3D

 27 29  0  0  0  0  0  0  0  0999 V2000
   -1.5400   14.3910   -2.8160 C   0  0  0  0  0  0  0  0  0  0  0  0
   -0.3420   13.7390   -3.5670 C   0  0  2  0  0  0  0  0  0  0  0  0
   -0.3520   12.2690   -3.6910 N   0  0  0  0  0  0  0  0  0  0  0  0
   -1.5420   14.4590   -1.2640 C   0  0  0  0  0  0  0  0  0  0  0  0
    0.8320   13.8900   -2.6270 C   0  0  0  0  0  0  0  0  0  0  0  0
   -0.3960   14.4570   -0.4370 C   0  0  0  0  0  0  0  0  0  0  0  0
   -2.7810   14.5310   -0.5970 C   0  0  0  0  0  0  0  0  0  0  0  0
    1.4320   14.9260   -2.3990 O   0  0  0  0  0  0  0  0  0  0  0  0
    0.3490   11.7120   -2.6180 C   0  0  0  0  0  0  0  0  0  0  0  0
    1.1210   12.6890   -2.0800 N   0  0  0  0  0  0  0  0  0  0  0  0
   -0.6370   11.5240   -4.8770 C   0  0  0  0  0  0  0  0  0  0  0  0
   -0.5570   14.5150    0.9530 C   0  0  0  0  0  0  0  0  0  0  0  0
   -2.8480   14.5870    0.8030 C   0  0  0  0  0  0  0  0  0  0  0  0
    0.3270   10.5620   -2.1820 O   0  0  0  0  0  0  0  0  0  0  0  0
   -4.1220   14.6560    1.3720 N   0  0  0  0  0  0  0  0  0  0  0  0
   -0.0150   11.7750   -6.1120 C   0  0  0  0  0  0  0  0  0  0  0  0
   -1.5760   10.4790   -4.8260 C   0  0  0  0  0  0  0  0  0  0  0  0
   -1.7520   14.5720    1.5840 N   0  0  0  0  0  0  0  0  0  0  0  0
   -5.3460   14.4250    0.8000 C   0  0  0  0  0  0  0  0  0  0  0  0
   -0.3210   11.0080   -7.2510 C   0  0  0  0  0  0  0  0  0  0  0  0
   -1.8830    9.7150   -5.9540 C   0  0  0  0  0  0  0  0  0  0  0  0
   -5.4180   14.5080   -0.4280 O   0  0  0  0  0  0  0  0  0  0  0  0
   -6.5450   14.0720    1.7000 C   0  0  0  0  0  0  0  0  0  0  0  0
   -1.2580    9.9770   -7.1620 C   0  0  0  0  0  0  0  0  0  0  0  0
   -1.6480    9.0260   -8.5400 Cl  0  0  0  0  0  0  0  0  0  0  0  0
   -7.7840   13.7690    0.9490 N   0  0  0  0  0  0  0  0  0  0  0  0
   -8.5910   14.9540    0.7010 C   0  0  0  0  0  0  0  0  0  0  0  0
  2  1  1  1
  2  3  1  0
  1  4  1  0
  2  5  1  0
  4  6  2  0
  4  7  1  0
  5  8  2  0
  3  9  1  0
  5 10  1  0
  9 10  1  0
  3 11  1  0
  6 12  1  0
  7 13  2  0
  9 14  2  0
 13 15  1  0
 11 16  2  0
 11 17  1  0
 12 18  2  0
 13 18  1  0
 15 19  1  0
 16 20  1  0
 17 21  2  0
 19 22  2  0
 19 23  1  0
 20 24  2  0
 21 24  1  0
 24 25  1  0
 23 26  1  0
 26 27  1  0
M  END
