x1018_0_A_α-x0727_0_A_α
     RDKit          3D

 26 28  0  0  0  0  0  0  0  0999 V2000
   -8.4880   14.6480    0.6630 Cl  0  0  0  0  0  0  0  0  0  0  0  0
   -6.8030   14.6210    0.2700 C   0  0  0  0  0  0  0  0  0  0  0  0
   -5.8260   14.3950    1.3590 C   0  0  0  0  0  0  0  0  0  0  0  0
   -6.4830   14.8050   -0.9720 N   0  0  0  0  0  0  0  0  0  0  0  0
   -5.1330   14.7680   -1.1690 N   0  0  0  0  0  0  0  0  0  0  0  0
   -4.5370   14.7240    1.1070 C   0  0  0  0  0  0  0  0  0  0  0  0
   -4.6470   14.9350   -2.4430 N   0  0  0  0  0  0  0  0  0  0  0  0
   -4.1850   15.2950   -0.2140 C   0  0  1  0  0  0  0  0  0  0  0  0
   -2.8910   14.9830   -0.8590 N   0  0  0  0  0  0  0  0  0  0  0  0
   -3.2260   14.7710   -2.2740 N   0  0  0  0  0  0  0  0  0  0  0  0
   -2.1380   13.8470   -0.3090 C   0  0  0  0  0  0  0  0  0  0  0  0
   -0.6150   13.9170   -0.5830 C   0  0  0  0  0  0  0  0  0  0  0  0
   -0.1890   13.8380   -2.0550 C   0  0  0  0  0  0  0  0  0  0  0  0
    0.8810   12.8880   -2.2590 O   0  0  0  0  0  0  0  0  0  0  0  0
    0.6000   11.8970   -3.1600 C   0  0  0  0  0  0  0  0  0  0  0  0
    0.8800   12.3400   -4.6080 C   0  0  1  0  0  0  0  0  0  0  0  0
    0.1810   10.7820   -2.8500 O   0  0  0  0  0  0  0  0  0  0  0  0
    0.1510   11.4580   -5.5200 N   0  0  0  0  0  0  0  0  0  0  0  0
    0.4920   13.7930   -4.8450 C   0  0  0  0  0  0  0  0  0  0  0  0
    0.7070   11.1260   -6.7250 C   0  0  0  0  0  0  0  0  0  0  0  0
    1.6570   11.7320   -7.1530 O   0  0  0  0  0  0  0  0  0  0  0  0
    0.1120    9.9500   -7.4840 C   0  0  0  0  0  0  0  0  0  0  0  0
   -1.1720   10.3220   -8.2330 C   0  0  0  0  0  0  0  0  0  0  0  0
   -0.2400    8.7470   -6.5900 C   0  0  0  0  0  0  0  0  0  0  0  0
   -2.1070    9.1360   -8.0400 C   0  0  0  0  0  0  0  0  0  0  0  0
   -1.7460    8.5860   -6.6720 C   0  0  0  0  0  0  0  0  0  0  0  0
  1  2  1  0
  2  3  1  0
  2  4  2  0
  4  5  1  0
  3  6  2  0
  5  7  1  0
  5  8  1  0
  8  6  1  1
  8  9  1  0
  7 10  1  0
  9 10  1  0
  9 11  1  0
 11 12  1  0
 12 13  1  0
 13 14  1  0
 14 15  1  0
 15 16  1  0
 15 17  2  0
 16 18  1  0
 16 19  1  1
 18 20  1  0
 20 21  2  0
 20 22  1  0
 22 23  1  0
 22 24  1  0
 23 25  1  0
 24 26  1  0
 25 26  1  0
M  END
