x1012_0_A_α-x0905_0_A_α
     RDKit          3D

 21 22  0  0  0  0  0  0  0  0999 V2000
   -1.3680   17.7780   -4.7490 N   0  0  0  0  0  0  0  0  0  0  0  0
   -1.3930   16.4090   -4.7180 C   0  0  0  0  0  0  0  0  0  0  0  0
   -2.1910   15.5420   -4.2870 N   0  0  0  0  0  0  0  0  0  0  0  0
   -0.3420   15.7320   -5.2060 N   0  0  0  0  0  0  0  0  0  0  0  0
   -3.4140   15.5450   -3.5910 C   0  0  0  0  0  0  0  0  0  0  0  0
   -0.7670   14.3350   -5.4680 C   0  0  0  0  0  0  0  0  0  0  0  0
    0.9600   15.8080   -4.5190 C   0  0  0  0  0  0  0  0  0  0  0  0
   -2.9540   14.7700   -2.3730 C   0  0  0  0  0  0  0  0  0  0  0  0
   -0.8220   13.4970   -4.2050 C   0  0  0  0  0  0  0  0  0  0  0  0
    1.0970   14.8380   -3.3230 C   0  0  0  0  0  0  0  0  0  0  0  0
    0.5690   13.4170   -3.6170 C   0  0  0  0  0  0  0  0  0  0  0  0
   -3.8580   14.9000   -1.2260 C   0  0  0  0  0  0  0  0  0  0  0  0
    0.5310   12.5240   -2.3890 C   0  0  0  0  0  0  0  0  0  0  0  0
   -3.3550   14.9700    0.0690 C   0  0  0  0  0  0  0  0  0  0  0  0
   -5.2210   14.9420   -1.4490 C   0  0  0  0  0  0  0  0  0  0  0  0
    0.2620   11.2430   -2.7170 O   0  0  0  0  0  0  0  0  0  0  0  0
    0.6880   12.8260   -1.2220 O   0  0  0  0  0  0  0  0  0  0  0  0
   -4.2580   15.0640    1.1010 C   0  0  0  0  0  0  0  0  0  0  0  0
   -6.0360   15.0350   -0.3550 C   0  0  0  0  0  0  0  0  0  0  0  0
   -7.3860   15.0760   -0.5130 O   0  0  0  0  0  0  0  0  0  0  0  0
   -5.5930   15.0860    0.9120 N   0  0  0  0  0  0  0  0  0  0  0  0
  1  2  1  0
  2  3  2  3
  2  4  1  0
  3  5  1  0
  4  6  1  0
  4  7  1  0
  5  8  1  0
  6  9  1  0
  7 10  1  0
  9 11  1  0
 10 11  1  0
  8 12  1  0
 11 13  1  0
 12 14  2  0
 12 15  1  0
 13 16  1  0
 13 17  2  0
 14 18  1  0
 15 19  2  0
 19 20  1  0
 18 21  2  0
 19 21  1  0
M  END
