x1015_0_A-x1018_0_A
     RDKit          3D

 27 30  0  0  0  0  0  0  0  0999 V2000
   -1.4850   14.2510   -3.9870 C   0  0  0  0  0  0  0  0  0  0  0  0
   -0.0960   13.6600   -3.8010 C   0  0  2  0  0  0  0  0  0  0  0  0
   -0.0690   12.1920   -3.9120 N   0  0  0  0  0  0  0  0  0  0  0  0
    0.3880   13.7450   -2.3450 C   0  0  0  0  0  0  0  0  0  0  0  0
    0.1340   14.6370   -1.4450 N   0  0  0  0  0  0  0  0  0  0  0  0
    0.4720   11.6450   -2.7430 C   0  0  0  0  0  0  0  0  0  0  0  0
    1.1490   12.6590   -2.1510 N   0  0  0  0  0  0  0  0  0  0  0  0
   -0.4680   11.4400   -5.0470 C   0  0  0  0  0  0  0  0  0  0  0  0
    0.3930   10.5080   -2.2770 O   0  0  0  0  0  0  0  0  0  0  0  0
   -0.7280   15.8060   -1.5750 C   0  0  0  0  0  0  0  0  0  0  0  0
    0.0810   11.6540   -6.3190 C   0  0  0  0  0  0  0  0  0  0  0  0
   -1.4430   10.4360   -4.9130 C   0  0  0  0  0  0  0  0  0  0  0  0
   -1.9770   15.6260   -0.6780 C   0  0  0  0  0  0  0  0  0  0  0  0
   -0.3280   10.8890   -7.4200 C   0  0  0  0  0  0  0  0  0  0  0  0
   -1.8530    9.6710   -6.0100 C   0  0  0  0  0  0  0  0  0  0  0  0
   -1.2930    9.9010   -7.2570 C   0  0  0  0  0  0  0  0  0  0  0  0
   -3.0150   14.7390   -1.1770 N   0  0  0  0  0  0  0  0  0  0  0  0
   -1.7970    8.9540   -8.6000 Cl  0  0  0  0  0  0  0  0  0  0  0  0
   -3.5630   15.1550   -2.4680 N   0  0  0  0  0  0  0  0  0  0  0  0
   -4.1170   14.2340   -0.3540 C   0  0  2  0  0  0  0  0  0  0  0  0
   -4.9510   14.7910   -2.4580 N   0  0  0  0  0  0  0  0  0  0  0  0
   -5.2560   14.7160   -1.1200 N   0  0  0  0  0  0  0  0  0  0  0  0
   -4.3110   14.7100    1.0400 C   0  0  0  0  0  0  0  0  0  0  0  0
   -6.5440   14.5840   -0.7330 N   0  0  0  0  0  0  0  0  0  0  0  0
   -5.5590   14.9270    1.5000 C   0  0  0  0  0  0  0  0  0  0  0  0
   -6.6860   14.6810    0.5470 C   0  0  0  0  0  0  0  0  0  0  0  0
   -8.3040   14.5240    1.1400 Cl  0  0  0  0  0  0  0  0  0  0  0  0
  2  1  1  1
  2  3  1  0
  2  4  1  0
  4  5  2  3
  3  6  1  0
  4  7  1  0
  6  7  1  0
  3  8  1  0
  6  9  2  0
  5 10  1  0
  8 11  2  0
  8 12  1  0
 10 13  1  0
 11 14  1  0
 12 15  2  0
 14 16  2  0
 15 16  1  0
 13 17  1  0
 16 18  1  0
 17 19  1  0
 17 20  1  0
 19 21  1  0
 20 22  1  0
 21 22  1  0
 20 23  1  1
 22 24  1  0
 23 25  2  0
 24 26  2  0
 25 26  1  0
 26 27  1  0
M  END
