x1018_0_A_α-x0742_0_A_α
     RDKit          3D

 17 19  0  0  0  0  0  0  0  0999 V2000
   -7.8000   14.6680    1.1770 Cl  0  0  0  0  0  0  0  0  0  0  0  0
   -6.1340   14.0450    0.9360 C   0  0  2  0  0  0  0  0  0  0  0  0
   -5.0100   14.8470    1.6040 C   0  0  0  0  0  0  0  0  0  0  0  0
   -5.8700   13.8230   -0.4900 N   0  0  0  0  0  0  0  0  0  0  0  0
   -5.7390   12.4760   -0.8680 C   0  0  0  0  0  0  0  0  0  0  0  0
   -5.0150   14.8580   -1.0490 N   0  0  0  0  0  0  0  0  0  0  0  0
   -3.7000   14.2920    1.0150 C   0  0  1  0  0  0  0  0  0  0  0  0
   -5.0220   12.0210   -1.7680 O   0  0  0  0  0  0  0  0  0  0  0  0
   -6.5740   11.5110   -0.0610 C   0  0  0  0  0  0  0  0  0  0  0  0
   -4.6790   14.7760   -2.4480 N   0  0  0  0  0  0  0  0  0  0  0  0
   -3.6730   14.8980   -0.3970 C   0  0  1  0  0  0  0  0  0  0  0  0
   -2.4630   14.5970    1.7860 N   0  0  0  0  0  0  0  0  0  0  0  0
   -2.7890   14.1450   -1.2900 N   0  0  0  0  0  0  0  0  0  0  0  0
   -3.2710   14.5480   -2.5820 N   0  0  0  0  0  0  0  0  0  0  0  0
   -1.1600   14.2760    1.3860 C   0  0  0  0  0  0  0  0  0  0  0  0
   -0.6540   14.1610    0.1620 C   0  0  0  0  0  0  0  0  0  0  0  0
   -1.3270   14.3350   -1.1730 C   0  0  0  0  0  0  0  0  0  0  0  0
  2  1  1  6
  2  3  1  0
  2  4  1  0
  4  5  1  0
  4  6  1  0
  7  3  1  1
  5  8  2  0
  5  9  1  0
  6 10  1  0
 11  6  1  6
  7 11  1  0
  7 12  1  0
 11 13  1  0
 10 14  1  0
 13 14  1  0
 12 15  1  0
 15 16  2  0
 13 17  1  0
 16 17  1  0
M  END
