x1018_0_A_α-x0837_0_A_α
     RDKit          3D

 11 12  0  0  0  0  0  0  0  0999 V2000
   -8.2630   14.5790    0.5200 Cl  0  0  0  0  0  0  0  0  0  0  0  0
   -6.5550   14.5770    0.2810 C   0  0  0  0  0  0  0  0  0  0  0  0
   -5.7320   14.6390    1.3490 C   0  0  0  0  0  0  0  0  0  0  0  0
   -5.9890   14.5280   -1.0260 N   0  0  0  0  0  0  0  0  0  0  0  0
   -5.2420   12.8200   -1.8280 I   0  0  0  0  0  0  0  0  0  0  0  0
   -4.8690   15.2900   -1.0740 N   0  0  0  0  0  0  0  0  0  0  0  0
   -4.2920   14.6190    1.0940 C   0  0  0  0  0  0  0  0  0  0  0  0
   -4.2300   15.4340   -2.2820 N   0  0  0  0  0  0  0  0  0  0  0  0
   -3.9270   14.9400   -0.1490 C   0  0  0  0  0  0  0  0  0  0  0  0
   -2.7510   14.9970   -0.7920 N   0  0  0  0  0  0  0  0  0  0  0  0
   -3.0250   15.0300   -2.1440 N   0  0  0  0  0  0  0  0  0  0  0  0
  1  2  1  0
  2  3  2  0
  2  4  1  0
  4  5  1  0
  4  6  1  0
  3  7  1  0
  6  8  1  0
  6  9  1  0
  7  9  2  0
  9 10  1  0
  8 11  2  0
 10 11  1  0
M  END
