x1015_0_A-x0742_0_A
     RDKit          3D

 32 36  0  0  0  0  0  0  0  0999 V2000
   -1.2320   14.2200   -4.5200 C   0  0  0  0  0  0  0  0  0  0  0  0
    0.1160   13.5420   -4.2670 C   0  0  2  0  0  0  0  0  0  0  0  0
   -0.0040   12.0910   -4.1470 N   0  0  0  0  0  0  0  0  0  0  0  0
    0.5550   13.8370   -2.8640 C   0  0  0  0  0  0  0  0  0  0  0  0
    1.0680   14.8390   -2.3100 N   0  0  0  0  0  0  0  0  0  0  0  0
    0.1720   11.6550   -2.8210 C   0  0  0  0  0  0  0  0  0  0  0  0
    0.3210   12.7650   -2.0710 N   0  0  0  0  0  0  0  0  0  0  0  0
   -0.4600   11.3020   -5.2100 C   0  0  0  0  0  0  0  0  0  0  0  0
    0.1970   10.5100   -2.3550 O   0  0  0  0  0  0  0  0  0  0  0  0
    1.2520   14.5850   -0.9110 C   0  0  0  0  0  0  0  0  0  0  0  0
    0.0570   11.4940   -6.4980 C   0  0  0  0  0  0  0  0  0  0  0  0
   -1.4300   10.3110   -5.0260 C   0  0  0  0  0  0  0  0  0  0  0  0
   -0.3800   10.7210   -7.5680 C   0  0  0  0  0  0  0  0  0  0  0  0
   -1.8730    9.5340   -6.0930 C   0  0  0  0  0  0  0  0  0  0  0  0
   -0.0740   14.5220   -0.2350 C   0  0  0  0  0  0  0  0  0  0  0  0
   -1.3460    9.7410   -7.3630 C   0  0  0  0  0  0  0  0  0  0  0  0
   -0.1970   14.6200    1.1330 C   0  0  0  0  0  0  0  0  0  0  0  0
   -1.2480   14.3650   -0.9780 C   0  0  0  0  0  0  0  0  0  0  0  0
   -1.8880    8.7850   -8.6790 Cl  0  0  0  0  0  0  0  0  0  0  0  0
   -1.3560   14.5780    1.7750 N   0  0  0  0  0  0  0  0  0  0  0  0
   -2.4800   14.3250   -0.3400 C   0  0  0  0  0  0  0  0  0  0  0  0
   -3.7880   14.1690   -1.0910 C   0  0  1  0  0  0  0  0  0  0  0  0
   -2.4550   14.4460    1.0210 C   0  0  0  0  0  0  0  0  0  0  0  0
   -4.9900   13.5890   -0.2500 C   0  0  1  0  0  0  0  0  0  0  0  0
   -4.2960   15.5490   -1.5340 C   0  0  0  0  0  0  0  0  0  0  0  0
   -3.6960   14.4440    1.7730 C   0  0  0  0  0  0  0  0  0  0  0  0
   -5.4500   12.2070   -0.7390 C   0  0  0  0  0  0  0  0  0  0  0  0
   -4.6920   13.4350    1.2450 C   0  0  0  0  0  0  0  0  0  0  0  0
   -6.1850   14.5400   -0.5050 C   0  0  0  0  0  0  0  0  0  0  0  0
   -5.7950   15.3840   -1.6980 C   0  0  0  0  0  0  0  0  0  0  0  0
   -4.9680   11.6380   -1.7160 O   0  0  0  0  0  0  0  0  0  0  0  0
   -6.5560   11.5510    0.0530 C   0  0  0  0  0  0  0  0  0  0  0  0
  2  1  1  1
  2  3  1  0
  2  4  1  0
  4  5  2  3
  3  6  1  0
  4  7  1  0
  6  7  1  0
  3  8  1  0
  6  9  2  0
  5 10  1  0
  8 11  2  0
  8 12  1  0
 11 13  1  0
 12 14  2  0
 10 15  1  0
 13 16  2  0
 14 16  1  0
 15 17  2  0
 15 18  1  0
 16 19  1  0
 17 20  1  0
 18 21  2  0
 21 22  1  0
 20 23  2  0
 21 23  1  0
 22 24  1  0
 22 25  1  1
 23 26  1  0
 24 27  1  6
 24 28  1  0
 26 28  1  0
 24 29  1  0
 25 30  1  0
 29 30  1  0
 27 31  2  0
 27 32  1  0
M  END
