x1018_0_A_α-x0910_0_A_α
     RDKit          3D

 15 17  0  0  0  0  0  0  0  0999 V2000
   -8.4970   14.7430    0.9420 Cl  0  0  0  0  0  0  0  0  0  0  0  0
   -6.8320   14.6080    0.5090 C   0  0  0  0  0  0  0  0  0  0  0  0
   -5.8010   14.6730    1.5800 C   0  0  0  0  0  0  0  0  0  0  0  0
   -6.5880   14.4600   -0.7580 N   0  0  0  0  0  0  0  0  0  0  0  0
   -5.2730   14.3300   -1.1040 N   0  0  0  0  0  0  0  0  0  0  0  0
   -4.5440   14.3930    1.2300 C   0  0  0  0  0  0  0  0  0  0  0  0
   -4.8080   15.0180   -2.2430 N   0  0  0  0  0  0  0  0  0  0  0  0
   -4.1830   14.0200   -0.1670 C   0  0  2  0  0  0  0  0  0  0  0  0
   -3.1730   14.8640   -0.7440 N   0  0  0  0  0  0  0  0  0  0  0  0
   -3.3630   14.9840   -2.1530 N   0  0  0  0  0  0  0  0  0  0  0  0
   -1.9240   14.8000   -0.2780 C   0  0  0  0  0  0  0  0  0  0  0  0
   -1.7290   14.7800    1.0680 N   0  0  0  0  0  0  0  0  0  0  0  0
   -0.7680   14.7570   -0.8890 N   0  0  0  0  0  0  0  0  0  0  0  0
   -0.4320   14.7250    1.3690 N   0  0  0  0  0  0  0  0  0  0  0  0
    0.1110   14.7160    0.1490 C   0  0  0  0  0  0  0  0  0  0  0  0
  1  2  1  0
  2  3  1  0
  2  4  2  0
  4  5  1  0
  3  6  2  0
  5  7  1  0
  5  8  1  0
  8  6  1  1
  8  9  1  0
  7 10  1  0
  9 10  1  0
  9 11  1  0
 11 12  1  0
 11 13  2  0
 12 14  1  0
 13 15  1  0
 14 15  2  0
M  END
