x1018_0_A-x0282_0_A
     RDKit          3D

 16 18  0  0  0  0  0  0  0  0999 V2000
   -7.0360   14.2020    1.6170 C   0  0  0  0  0  0  0  0  0  0  0  0
   -8.3520   14.2420    0.8700 C   0  0  0  0  0  0  0  0  0  0  0  0
   -5.8400   14.0520    0.6630 C   0  0  1  0  0  0  0  0  0  0  0  0
   -5.9660   15.0530   -0.3870 N   0  0  0  0  0  0  0  0  0  0  0  0
   -4.4580   14.1660    1.4120 C   0  0  0  0  0  0  0  0  0  0  0  0
   -4.9200   15.1620   -1.1880 C   0  0  0  0  0  0  0  0  0  0  0  0
   -3.1730   14.4080    0.4820 C   0  0  2  0  0  0  0  0  0  0  0  0
   -4.9270   15.5330   -2.4730 N   0  0  0  0  0  0  0  0  0  0  0  0
   -3.6630   14.8820   -0.7890 C   0  0  0  0  0  0  0  0  0  0  0  0
   -2.5860   13.2170   -0.1300 N   0  0  0  0  0  0  0  0  0  0  0  0
   -2.0700   15.1620    1.1370 N   0  0  0  0  0  0  0  0  0  0  0  0
   -2.9170   15.1100   -1.8790 N   0  0  0  0  0  0  0  0  0  0  0  0
   -3.6730   15.5020   -2.9020 N   0  0  0  0  0  0  0  0  0  0  0  0
   -1.2960   13.4980   -0.8190 C   0  0  0  0  0  0  0  0  0  0  0  0
   -0.7380   14.7180    1.1230 C   0  0  0  0  0  0  0  0  0  0  0  0
   -0.3040   13.9160    0.1780 C   0  0  0  0  0  0  0  0  0  0  0  0
  1  2  1  0
  3  1  1  1
  3  4  1  0
  3  5  1  0
  4  6  1  0
  7  5  1  1
  6  8  1  0
  6  9  2  0
  7  9  1  0
  7 10  1  0
  7 11  1  0
  9 12  1  0
  8 13  2  0
 12 13  1  0
 10 14  1  0
 11 15  1  0
 14 16  1  0
 15 16  2  0
M  END
