x1018_0_A-x0685_0_A
     RDKit          3D

 15 16  0  0  0  0  0  0  0  0999 V2000
   -8.1660   14.7450   -0.0610 Cl  0  0  0  0  0  0  0  0  0  0  0  0
   -6.4490   14.6270    0.0950 C   0  0  0  0  0  0  0  0  0  0  0  0
   -5.7960   14.7010    1.3110 C   0  0  0  0  0  0  0  0  0  0  0  0
   -5.5540   14.4400   -1.0440 N   0  0  0  0  0  0  0  0  0  0  0  0
   -6.4250   14.8870    2.5500 N   0  0  0  0  0  0  0  0  0  0  0  0
   -5.7650   14.5520   -2.3490 C   0  0  0  0  0  0  0  0  0  0  0  0
   -4.3490   15.1460   -0.8810 N   0  0  0  0  0  0  0  0  0  0  0  0
   -4.3190   14.5750    1.3320 C   0  0  0  0  0  0  0  0  0  0  0  0
   -7.8460   14.8850    2.8290 C   0  0  0  0  0  0  0  0  0  0  0  0
   -5.7710   14.6600   -3.5020 N   0  0  0  0  0  0  0  0  0  0  0  0
   -3.5180   15.2460   -1.9650 N   0  0  0  0  0  0  0  0  0  0  0  0
   -3.6620   14.8030    0.1960 C   0  0  0  0  0  0  0  0  0  0  0  0
   -8.2840   13.4480    3.0350 C   0  0  0  0  0  0  0  0  0  0  0  0
   -2.3820   14.7800   -0.2220 N   0  0  0  0  0  0  0  0  0  0  0  0
   -2.4210   14.7100   -1.6090 N   0  0  0  0  0  0  0  0  0  0  0  0
  1  2  1  0
  2  3  2  0
  2  4  1  0
  3  5  1  0
  4  6  1  0
  4  7  1  0
  3  8  1  0
  5  9  1  0
  6 10  3  0
  7 11  1  0
  7 12  1  0
  8 12  2  0
  9 13  1  0
 12 14  1  0
 11 15  2  0
 14 15  1  0
M  END
