x1012_0_A_α-x0849_0_A_α
     RDKit          3D

 24 26  0  0  0  0  0  0  0  0999 V2000
   -0.9510   18.0040   -5.0560 N   0  0  0  0  0  0  0  0  0  0  0  0
   -1.5260   16.8350   -4.6660 C   0  0  0  0  0  0  0  0  0  0  0  0
   -2.7050   16.9260   -4.1700 N   0  0  0  0  0  0  0  0  0  0  0  0
   -0.7590   15.7180   -4.8460 N   0  0  0  0  0  0  0  0  0  0  0  0
   -3.4090   15.7200   -3.6610 C   0  0  0  0  0  0  0  0  0  0  0  0
   -1.4110   14.4300   -5.0870 C   0  0  0  0  0  0  0  0  0  0  0  0
    0.6870   15.6650   -4.5670 C   0  0  0  0  0  0  0  0  0  0  0  0
   -2.7950   15.0410   -2.5660 O   0  0  0  0  0  0  0  0  0  0  0  0
   -1.2050   13.5130   -3.9020 C   0  0  0  0  0  0  0  0  0  0  0  0
    1.0070   14.6500   -3.4590 C   0  0  0  0  0  0  0  0  0  0  0  0
    0.2850   13.2920   -3.6530 C   0  0  0  0  0  0  0  0  0  0  0  0
   -3.2180   15.0960   -1.2410 C   0  0  0  0  0  0  0  0  0  0  0  0
    0.4140   12.3750   -2.4580 C   0  0  0  0  0  0  0  0  0  0  0  0
   -2.1760   14.8420   -0.3380 C   0  0  0  0  0  0  0  0  0  0  0  0
   -4.4810   15.3550   -0.7280 C   0  0  0  0  0  0  0  0  0  0  0  0
    0.1360   11.0950   -2.7600 O   0  0  0  0  0  0  0  0  0  0  0  0
    0.7100   12.6780   -1.3190 O   0  0  0  0  0  0  0  0  0  0  0  0
   -2.4210   14.8420    1.0350 C   0  0  0  0  0  0  0  0  0  0  0  0
   -4.6190   15.3340    0.6510 C   0  0  0  0  0  0  0  0  0  0  0  0
   -0.8740   14.5880   -0.7820 C   0  0  0  0  0  0  0  0  0  0  0  0
   -3.6280   15.0870    1.5170 N   0  0  0  0  0  0  0  0  0  0  0  0
   -1.4560   14.5990    1.9050 N   0  0  0  0  0  0  0  0  0  0  0  0
    0.1260   14.3470    0.1220 C   0  0  0  0  0  0  0  0  0  0  0  0
   -0.2200   14.3620    1.4550 C   0  0  0  0  0  0  0  0  0  0  0  0
  1  2  1  0
  2  3  2  3
  2  4  1  0
  3  5  1  0
  4  6  1  0
  4  7  1  0
  5  8  1  0
  6  9  1  0
  7 10  1  0
  9 11  1  0
 10 11  1  0
  8 12  1  0
 11 13  1  0
 12 14  1  0
 12 15  2  0
 13 16  1  0
 13 17  2  0
 14 18  2  0
 15 19  1  0
 14 20  1  0
 18 21  1  0
 19 21  2  0
 18 22  1  0
 20 23  2  0
 22 24  2  0
 23 24  1  0
M  END
