x1012_0_A_α-x0967_0_A_α
     RDKit          3D

 24 26  0  0  0  0  0  0  0  0999 V2000
   -0.7070   18.0260   -4.9950 N   0  0  0  0  0  0  0  0  0  0  0  0
   -1.4200   16.8940   -4.7430 C   0  0  0  0  0  0  0  0  0  0  0  0
   -2.6590   16.8440   -4.4100 N   0  0  0  0  0  0  0  0  0  0  0  0
   -0.6410   15.7560   -4.8700 N   0  0  0  0  0  0  0  0  0  0  0  0
   -3.3090   15.5420   -4.1310 C   0  0  0  0  0  0  0  0  0  0  0  0
   -1.2420   14.4430   -5.1860 C   0  0  0  0  0  0  0  0  0  0  0  0
    0.7800   15.7300   -4.4780 C   0  0  0  0  0  0  0  0  0  0  0  0
   -2.7890   14.8870   -2.8460 C   0  0  0  0  0  0  0  0  0  0  0  0
   -1.0710   13.4830   -4.0200 C   0  0  0  0  0  0  0  0  0  0  0  0
    1.0050   14.7400   -3.3240 C   0  0  0  0  0  0  0  0  0  0  0  0
    0.3860   13.3560   -3.5920 C   0  0  0  0  0  0  0  0  0  0  0  0
   -3.6810   14.8950   -1.6140 C   0  0  0  0  0  0  0  0  0  0  0  0
    0.4710   12.4220   -2.3930 C   0  0  0  0  0  0  0  0  0  0  0  0
   -5.0230   14.7380   -1.7690 N   0  0  0  0  0  0  0  0  0  0  0  0
   -3.0980   15.0510   -0.3650 C   0  0  0  0  0  0  0  0  0  0  0  0
    0.3950   11.1200   -2.7520 O   0  0  0  0  0  0  0  0  0  0  0  0
    0.5850   12.7580   -1.2260 O   0  0  0  0  0  0  0  0  0  0  0  0
   -5.8090   14.7240   -0.6910 C   0  0  0  0  0  0  0  0  0  0  0  0
   -3.9050   15.0460    0.7610 C   0  0  0  0  0  0  0  0  0  0  0  0
   -7.1190   14.5580   -0.8800 N   0  0  0  0  0  0  0  0  0  0  0  0
   -5.2830   14.8770    0.6020 C   0  0  0  0  0  0  0  0  0  0  0  0
   -6.1640   14.8520    1.6900 C   0  0  0  0  0  0  0  0  0  0  0  0
   -7.9440   14.5310    0.1870 C   0  0  0  0  0  0  0  0  0  0  0  0
   -7.5180   14.6710    1.4890 C   0  0  0  0  0  0  0  0  0  0  0  0
  1  2  1  0
  2  3  2  3
  2  4  1  0
  3  5  1  0
  4  6  1  0
  4  7  1  0
  5  8  1  0
  6  9  1  0
  7 10  1  0
  9 11  1  0
 10 11  1  0
  8 12  1  0
 11 13  1  0
 12 14  2  0
 12 15  1  0
 13 16  1  0
 13 17  2  0
 14 18  1  0
 15 19  2  0
 18 20  2  0
 18 21  1  0
 19 21  1  0
 21 22  2  0
 20 23  1  0
 22 24  1  0
 23 24  2  0
M  END
