x1012_0_A-x0849_0_A
     RDKit          3D

 24 26  0  0  0  0  0  0  0  0999 V2000
   -0.9520   18.0030   -5.0550 N   0  0  0  0  0  0  0  0  0  0  0  0
   -1.5290   16.8380   -4.6630 C   0  0  0  0  0  0  0  0  0  0  0  0
   -2.7070   16.9290   -4.1670 N   0  0  0  0  0  0  0  0  0  0  0  0
   -0.7630   15.7170   -4.8430 N   0  0  0  0  0  0  0  0  0  0  0  0
   -3.4100   15.7230   -3.6590 C   0  0  0  0  0  0  0  0  0  0  0  0
   -1.4130   14.4300   -5.0860 C   0  0  0  0  0  0  0  0  0  0  0  0
    0.6850   15.6690   -4.5640 C   0  0  0  0  0  0  0  0  0  0  0  0
   -2.7950   15.0410   -2.5650 O   0  0  0  0  0  0  0  0  0  0  0  0
   -1.2040   13.5130   -3.9000 C   0  0  0  0  0  0  0  0  0  0  0  0
    1.0070   14.6500   -3.4570 C   0  0  0  0  0  0  0  0  0  0  0  0
    0.2860   13.2950   -3.6530 C   0  0  0  0  0  0  0  0  0  0  0  0
   -3.2170   15.0970   -1.2410 C   0  0  0  0  0  0  0  0  0  0  0  0
    0.4150   12.3760   -2.4570 C   0  0  0  0  0  0  0  0  0  0  0  0
   -2.1760   14.8430   -0.3410 C   0  0  0  0  0  0  0  0  0  0  0  0
   -4.4800   15.3540   -0.7260 C   0  0  0  0  0  0  0  0  0  0  0  0
    0.1380   11.0930   -2.7620 O   0  0  0  0  0  0  0  0  0  0  0  0
    0.7120   12.6780   -1.3190 O   0  0  0  0  0  0  0  0  0  0  0  0
   -2.4220   14.8440    1.0330 C   0  0  0  0  0  0  0  0  0  0  0  0
   -4.6200   15.3350    0.6490 C   0  0  0  0  0  0  0  0  0  0  0  0
   -0.8740   14.5870   -0.7820 C   0  0  0  0  0  0  0  0  0  0  0  0
   -3.6260   15.0870    1.5150 N   0  0  0  0  0  0  0  0  0  0  0  0
   -1.4580   14.6000    1.9030 N   0  0  0  0  0  0  0  0  0  0  0  0
    0.1230   14.3470    0.1210 C   0  0  0  0  0  0  0  0  0  0  0  0
   -0.2200   14.3610    1.4530 C   0  0  0  0  0  0  0  0  0  0  0  0
  1  2  1  0
  2  3  2  3
  2  4  1  0
  3  5  1  0
  4  6  1  0
  4  7  1  0
  5  8  1  0
  6  9  1  0
  7 10  1  0
  9 11  1  0
 10 11  1  0
  8 12  1  0
 11 13  1  0
 12 14  1  0
 12 15  2  0
 13 16  1  0
 13 17  2  0
 14 18  2  0
 15 19  1  0
 14 20  1  0
 18 21  1  0
 19 21  2  0
 18 22  1  0
 20 23  2  0
 22 24  2  0
 23 24  1  0
M  END
