x1012_0_A-x0689_0_A
     RDKit          3D

 21 22  0  0  0  0  0  0  0  0999 V2000
   -0.4570   18.2420   -4.6960 N   0  0  0  0  0  0  0  0  0  0  0  0
   -1.3430   17.2390   -4.8690 C   0  0  0  0  0  0  0  0  0  0  0  0
   -2.5250   17.4840   -4.7560 O   0  0  0  0  0  0  0  0  0  0  0  0
   -0.8380   15.9960   -5.1360 N   0  0  0  0  0  0  0  0  0  0  0  0
   -1.8590   14.8820   -5.1350 C   0  0  0  0  0  0  0  0  0  0  0  0
    0.6500   15.7920   -5.1490 C   0  0  0  0  0  0  0  0  0  0  0  0
   -1.2790   13.4850   -4.9340 C   0  0  0  0  0  0  0  0  0  0  0  0
    1.1120   14.3590   -4.9790 C   0  0  0  0  0  0  0  0  0  0  0  0
   -0.0140   13.7720   -4.2150 C   0  0  0  0  0  0  0  0  0  0  0  0
    0.2980   13.1270   -2.9640 C   0  0  0  0  0  0  0  0  0  0  0  0
    0.2370   11.7830   -2.7960 O   0  0  0  0  0  0  0  0  0  0  0  0
    0.5720   13.9140   -2.0640 N   0  0  0  0  0  0  0  0  0  0  0  0
    0.7830   13.5270   -0.7810 C   0  0  0  0  0  0  0  0  0  0  0  0
   -0.3650   14.0090   -0.0220 C   0  0  0  0  0  0  0  0  0  0  0  0
   -1.4710   14.3990   -0.7190 C   0  0  0  0  0  0  0  0  0  0  0  0
   -0.4580   14.1040    1.3390 C   0  0  0  0  0  0  0  0  0  0  0  0
   -2.5840   14.8390   -0.1550 N   0  0  0  0  0  0  0  0  0  0  0  0
   -1.5660   14.5420    1.9510 N   0  0  0  0  0  0  0  0  0  0  0  0
   -2.5920   14.8930    1.1690 C   0  0  0  0  0  0  0  0  0  0  0  0
   -3.7290   15.3370    1.7930 N   0  0  0  0  0  0  0  0  0  0  0  0
   -4.8240   15.3750    0.8630 C   0  0  0  0  0  0  0  0  0  0  0  0
  1  2  1  0
  2  3  2  0
  2  4  1  0
  4  5  1  0
  4  6  1  0
  5  7  1  0
  6  8  1  0
  7  9  1  0
  8  9  1  0
  9 10  1  0
 10 11  1  0
 10 12  2  3
 12 13  1  0
 13 14  1  0
 14 15  2  0
 14 16  1  0
 15 17  1  0
 16 18  2  0
 17 19  2  0
 18 19  1  0
 19 20  1  0
 20 21  1  0
M  END
