x1015_0_A-x1012_0_A
     RDKit          3D

 26 28  0  0  0  0  0  0  0  0999 V2000
   -2.9570   12.5910   -3.3710 C   0  0  0  0  0  0  0  0  0  0  0  0
   -1.5110   13.0450   -3.3490 C   0  0  2  0  0  0  0  0  0  0  0  0
   -0.5630   11.9730   -3.7000 N   0  0  0  0  0  0  0  0  0  0  0  0
   -1.0690   13.3060   -1.9120 C   0  0  0  0  0  0  0  0  0  0  0  0
   -1.3080   14.2750   -1.2030 O   0  0  0  0  0  0  0  0  0  0  0  0
    0.3570   11.7750   -2.6780 C   0  0  0  0  0  0  0  0  0  0  0  0
   -0.3350   12.2160   -1.5960 N   0  0  0  0  0  0  0  0  0  0  0  0
   -0.6340   11.2650   -4.9010 C   0  0  0  0  0  0  0  0  0  0  0  0
    1.5640   12.1930   -2.7750 N   0  0  0  0  0  0  0  0  0  0  0  0
    0.0060   11.6990   -6.0820 C   0  0  0  0  0  0  0  0  0  0  0  0
   -1.3580   10.0690   -4.9800 C   0  0  0  0  0  0  0  0  0  0  0  0
    1.8670   13.5230   -2.8910 C   0  0  0  0  0  0  0  0  0  0  0  0
   -0.0810   10.9640   -7.2730 C   0  0  0  0  0  0  0  0  0  0  0  0
   -1.4520    9.3270   -6.1610 C   0  0  0  0  0  0  0  0  0  0  0  0
    2.7510   14.1030   -2.2370 O   0  0  0  0  0  0  0  0  0  0  0  0
   -0.8110    9.7820   -7.3030 C   0  0  0  0  0  0  0  0  0  0  0  0
    1.0120   14.2370   -3.9460 C   0  0  0  0  0  0  0  0  0  0  0  0
   -0.9270    8.8710   -8.7570 Cl  0  0  0  0  0  0  0  0  0  0  0  0
   -0.4270   14.5660   -3.5760 C   0  0  0  0  0  0  0  0  0  0  0  0
    1.7030   15.5370   -4.2140 C   0  0  0  0  0  0  0  0  0  0  0  0
   -1.1240   15.1580   -4.7880 C   0  0  0  0  0  0  0  0  0  0  0  0
    0.9780   16.4940   -5.1520 C   0  0  0  0  0  0  0  0  0  0  0  0
   -0.4910   16.4210   -5.1570 N   0  0  0  0  0  0  0  0  0  0  0  0
   -1.2740   17.5450   -5.0710 C   0  0  0  0  0  0  0  0  0  0  0  0
   -0.7390   18.6870   -5.5530 N   0  0  0  0  0  0  0  0  0  0  0  0
   -2.3960   17.5700   -4.6070 O   0  0  0  0  0  0  0  0  0  0  0  0
  2  1  1  1
  2  3  1  0
  2  4  1  0
  4  5  2  0
  3  6  1  0
  4  7  1  0
  6  7  1  0
  3  8  1  0
  6  9  2  3
  8 10  2  0
  8 11  1  0
  9 12  1  0
 10 13  1  0
 11 14  2  0
 12 15  2  0
 13 16  2  0
 14 16  1  0
 12 17  1  0
 16 18  1  0
 17 19  1  0
 17 20  1  0
 19 21  1  0
 20 22  1  0
 21 23  1  0
 22 23  1  0
 23 24  1  0
 24 25  1  0
 24 26  2  0
M  END
