x1012_0_A-x0421_0_A
     RDKit          3D

 23 25  0  0  0  0  0  0  0  0999 V2000
   -0.1990   18.2550   -4.7610 N   0  0  0  0  0  0  0  0  0  0  0  0
   -1.1670   17.3160   -4.7770 C   0  0  0  0  0  0  0  0  0  0  0  0
   -2.3310   17.6970   -4.8100 O   0  0  0  0  0  0  0  0  0  0  0  0
   -0.7760   15.9970   -4.7360 N   0  0  0  0  0  0  0  0  0  0  0  0
   -1.7200   14.8860   -4.6060 C   0  0  0  0  0  0  0  0  0  0  0  0
    0.6480   15.6990   -4.5910 C   0  0  0  0  0  0  0  0  0  0  0  0
   -1.3820   13.7960   -3.5630 C   0  0  2  0  0  0  0  0  0  0  0  0
    0.9510   14.8000   -3.4020 C   0  0  0  0  0  0  0  0  0  0  0  0
   -1.9300   14.0580   -2.2060 N   0  0  0  0  0  0  0  0  0  0  0  0
    0.1310   13.5050   -3.4890 C   0  0  1  0  0  0  0  0  0  0  0  0
    0.3590   12.5050   -2.3740 C   0  0  0  0  0  0  0  0  0  0  0  0
   -3.0360   14.6780   -1.9860 C   0  0  0  0  0  0  0  0  0  0  0  0
    0.3850   11.2150   -2.7550 O   0  0  0  0  0  0  0  0  0  0  0  0
    0.5030   12.7850   -1.1930 O   0  0  0  0  0  0  0  0  0  0  0  0
   -3.8930   15.2500   -2.8830 N   0  0  0  0  0  0  0  0  0  0  0  0
   -3.5320   14.7720   -0.5950 C   0  0  0  0  0  0  0  0  0  0  0  0
   -2.8480   14.9600    0.6070 C   0  0  0  0  0  0  0  0  0  0  0  0
   -4.8850   14.6480   -0.3230 N   0  0  0  0  0  0  0  0  0  0  0  0
   -3.8180   14.9340    1.5830 N   0  0  0  0  0  0  0  0  0  0  0  0
   -5.0140   14.7430    0.9730 C   0  0  0  0  0  0  0  0  0  0  0  0
   -6.3650   14.6410    1.7270 C   0  0  0  0  0  0  0  0  0  0  0  0
   -7.6570   14.6320    0.9610 C   0  0  0  0  0  0  0  0  0  0  0  0
   -7.1500   13.3680    1.5850 C   0  0  0  0  0  0  0  0  0  0  0  0
  1  2  1  0
  2  3  2  0
  2  4  1  0
  4  5  1  0
  4  6  1  0
  5  7  1  0
  6  8  1  0
  7  9  1  1
  7 10  1  0
  8 10  1  0
 10 11  1  1
  9 12  2  3
 11 13  1  0
 11 14  2  0
 12 15  1  0
 12 16  1  0
 16 17  2  0
 16 18  1  0
 17 19  1  0
 18 20  2  0
 19 20  1  0
 20 21  1  0
 21 22  1  0
 21 23  1  0
 22 23  1  0
M  END
