x1012_0_A-x0371_0_A
     RDKit          3D

 32 35  0  0  0  0  0  0  0  0999 V2000
   -1.4440   17.3950   -4.7630 N   0  0  0  0  0  0  0  0  0  0  0  0
   -1.4360   16.0550   -5.0400 C   0  0  0  0  0  0  0  0  0  0  0  0
   -2.3300   15.1390   -5.0440 N   0  0  0  0  0  0  0  0  0  0  0  0
   -0.2410   15.5200   -5.3360 N   0  0  0  0  0  0  0  0  0  0  0  0
   -3.6670   15.2420   -4.6590 C   0  0  0  0  0  0  0  0  0  0  0  0
   -0.3960   14.0540   -5.5070 C   0  0  0  0  0  0  0  0  0  0  0  0
    0.9230   15.7890   -4.4700 C   0  0  0  0  0  0  0  0  0  0  0  0
   -3.2510   15.6560   -3.2650 C   0  0  0  0  0  0  0  0  0  0  0  0
   -0.8280   13.3880   -4.1990 C   0  0  0  0  0  0  0  0  0  0  0  0
    1.3120   14.5660   -3.6050 C   0  0  0  0  0  0  0  0  0  0  0  0
    0.0670   13.8340   -3.0620 C   0  0  0  0  0  0  0  0  0  0  0  0
   -3.9780   15.3320   -1.9930 C   0  0  0  0  0  0  0  0  0  0  0  0
    0.4140   12.6500   -2.2030 C   0  0  0  0  0  0  0  0  0  0  0  0
   -3.1940   15.1570   -0.8300 C   0  0  0  0  0  0  0  0  0  0  0  0
   -5.3610   15.2080   -1.9330 C   0  0  0  0  0  0  0  0  0  0  0  0
    0.5120   11.4700   -2.8400 O   0  0  0  0  0  0  0  0  0  0  0  0
    0.5810   12.7440   -1.0010 O   0  0  0  0  0  0  0  0  0  0  0  0
   -5.9380   14.9050   -0.7050 C   0  0  0  0  0  0  0  0  0  0  0  0
   -3.7490   14.8620    0.4090 C   0  0  0  0  0  0  0  0  0  0  0  0
   -7.2630   14.7280   -0.4030 N   0  0  0  0  0  0  0  0  0  0  0  0
   -5.1300   14.7420    0.4190 C   0  0  0  0  0  0  0  0  0  0  0  0
   -6.0040   14.4580    1.4220 N   0  0  0  0  0  0  0  0  0  0  0  0
   -7.2820   14.4560    0.8830 C   0  0  0  0  0  0  0  0  0  0  0  0
   -8.4880   14.1730    1.7010 C   0  0  0  0  0  0  0  0  0  0  0  0
   -8.2120   14.5060    3.0600 N   0  0  0  0  0  0  0  0  0  0  0  0
   -8.8460   15.5540    3.6760 C   0  0  0  0  0  0  0  0  0  0  0  0
   -9.4870   16.3890    3.0470 O   0  0  0  0  0  0  0  0  0  0  0  0
   -8.6880   15.5550    5.1000 C   0  0  0  0  0  0  0  0  0  0  0  0
   -8.0660   14.4800    5.6690 O   0  0  0  0  0  0  0  0  0  0  0  0
   -9.0510   16.4560    6.0760 C   0  0  0  0  0  0  0  0  0  0  0  0
   -8.6290   15.9060    7.3000 C   0  0  0  0  0  0  0  0  0  0  0  0
   -8.0320   14.7010    6.9950 C   0  0  0  0  0  0  0  0  0  0  0  0
  1  2  1  0
  2  3  2  3
  2  4  1  0
  3  5  1  0
  4  6  1  0
  4  7  1  0
  5  8  1  0
  6  9  1  0
  7 10  1  0
  9 11  1  0
 10 11  1  0
  8 12  1  0
 11 13  1  0
 12 14  2  0
 12 15  1  0
 13 16  1  0
 13 17  2  0
 15 18  2  0
 14 19  1  0
 18 20  1  0
 18 21  1  0
 19 21  2  0
 21 22  1  0
 20 23  2  0
 22 23  1  0
 23 24  1  0
 24 25  1  0
 25 26  1  0
 26 27  2  0
 26 28  1  0
 28 29  1  0
 28 30  2  0
 30 31  1  0
 29 32  1  0
 31 32  2  0
M  END
