x1018_0_A_α-x0766_0_A_α
     RDKit          3D

 17 19  0  0  0  0  0  0  0  0999 V2000
   -7.7350   14.5010    0.0370 Cl  0  0  0  0  0  0  0  0  0  0  0  0
   -6.0120   14.5940   -0.1760 C   0  0  0  0  0  0  0  0  0  0  0  0
   -5.1810   14.7450    1.0490 C   0  0  0  0  0  0  0  0  0  0  0  0
   -5.5170   14.5280   -1.4030 N   0  0  0  0  0  0  0  0  0  0  0  0
   -4.1300   14.6240   -1.4730 N   0  0  0  0  0  0  0  0  0  0  0  0
   -3.8940   15.0920    0.8710 C   0  0  0  0  0  0  0  0  0  0  0  0
   -3.3300   14.2600   -2.6140 N   0  0  0  0  0  0  0  0  0  0  0  0
   -3.3410   15.3290   -0.5000 C   0  0  1  0  0  0  0  0  0  0  0  0
   -2.0050   14.8370   -0.7860 N   0  0  0  0  0  0  0  0  0  0  0  0
   -1.8730   14.6050   -2.2490 C   0  0  1  0  0  0  0  0  0  0  0  0
   -0.6180   13.7110   -2.7070 C   0  0  1  0  0  0  0  0  0  0  0  0
   -1.3100   15.8560   -3.0210 C   0  0  0  0  0  0  0  0  0  0  0  0
   -0.2940   12.3460   -2.1680 C   0  0  0  0  0  0  0  0  0  0  0  0
   -0.4050   13.8950   -4.1960 C   0  0  0  0  0  0  0  0  0  0  0  0
   -0.3480   15.4120   -4.1840 C   0  0  0  0  0  0  0  0  0  0  0  0
    0.4390   12.2260   -1.2160 O   0  0  0  0  0  0  0  0  0  0  0  0
   -0.8200   11.2790   -2.8050 O   0  0  0  0  0  0  0  0  0  0  0  0
  1  2  1  0
  2  3  1  0
  2  4  2  0
  4  5  1  0
  3  6  2  0
  5  7  1  0
  5  8  1  0
  8  6  1  1
  8  9  1  0
 10  7  1  0
  9 10  1  0
 10 11  1  0
 10 12  1  6
 11 13  1  6
 11 14  1  0
 12 15  1  0
 14 15  1  0
 13 16  2  0
 13 17  1  0
M  END
