x1018_0_A-x0969_0_A
     RDKit          3D

 11 12  0  0  0  0  0  0  0  0999 V2000
   -8.5160   14.5800    0.6300 Cl  0  0  0  0  0  0  0  0  0  0  0  0
   -6.8040   14.6690    0.3420 C   0  0  0  0  0  0  0  0  0  0  0  0
   -5.8800   14.7280    1.5480 C   0  0  0  0  0  0  0  0  0  0  0  0
   -6.4560   14.6860   -0.8980 N   0  0  0  0  0  0  0  0  0  0  0  0
   -6.4890   14.7340    2.7880 N   0  0  0  0  0  0  0  0  0  0  0  0
   -5.1200   14.7550   -1.0500 N   0  0  0  0  0  0  0  0  0  0  0  0
   -4.5610   14.7840    1.2750 C   0  0  0  0  0  0  0  0  0  0  0  0
   -4.5410   14.7900   -2.2580 N   0  0  0  0  0  0  0  0  0  0  0  0
   -4.1460   14.8010   -0.0750 C   0  0  0  0  0  0  0  0  0  0  0  0
   -2.9750   14.8570   -0.6730 N   0  0  0  0  0  0  0  0  0  0  0  0
   -3.2420   14.8500   -2.0220 N   0  0  0  0  0  0  0  0  0  0  0  0
  1  2  1  0
  2  3  1  0
  2  4  2  0
  3  5  1  0
  4  6  1  0
  3  7  2  0
  6  8  1  0
  6  9  1  0
  7  9  1  0
  9 10  2  0
  8 11  2  0
 10 11  1  0
M  END
