x1015_0_A_α-x0805_0_A_β
     RDKit          3D

 17 18  0  0  0  0  0  0  0  0999 V2000
   -1.6040   14.4020   -4.4880 C   0  0  0  0  0  0  0  0  0  0  0  0
   -0.2240   13.7560   -4.4660 C   0  0  2  0  0  0  0  0  0  0  0  0
   -0.2470   12.3240   -4.2520 N   0  0  0  0  0  0  0  0  0  0  0  0
    0.4780   14.2100   -3.2210 C   0  0  0  0  0  0  0  0  0  0  0  0
    0.6300   15.3790   -2.8810 O   0  0  0  0  0  0  0  0  0  0  0  0
    0.3820   11.9740   -3.0490 C   0  0  0  0  0  0  0  0  0  0  0  0
    0.9030   13.1360   -2.5360 N   0  0  0  0  0  0  0  0  0  0  0  0
   -0.5700   11.4400   -5.2910 C   0  0  0  0  0  0  0  0  0  0  0  0
    0.4580   10.8600   -2.5410 O   0  0  0  0  0  0  0  0  0  0  0  0
    1.0530   13.3620   -1.2510 C   0  0  0  0  0  0  0  0  0  0  0  0
   -0.2080   11.7160   -6.6060 C   0  0  0  0  0  0  0  0  0  0  0  0
   -1.2660   10.2600   -5.0240 C   0  0  0  0  0  0  0  0  0  0  0  0
    0.3290   12.9910   -0.3780 O   0  0  0  0  0  0  0  0  0  0  0  0
   -0.5420   10.8380   -7.6380 C   0  0  0  0  0  0  0  0  0  0  0  0
   -1.6050    9.3780   -6.0450 C   0  0  0  0  0  0  0  0  0  0  0  0
   -1.2420    9.6740   -7.3520 C   0  0  0  0  0  0  0  0  0  0  0  0
   -1.6600    8.5980   -8.6200 Cl  0  0  0  0  0  0  0  0  0  0  0  0
  2  1  1  1
  2  3  1  0
  2  4  1  0
  4  5  2  0
  3  6  1  0
  4  7  1  0
  6  7  1  0
  3  8  1  0
  6  9  2  0
  7 10  1  0
  8 11  2  0
  8 12  1  0
 10 13  2  0
 11 14  1  0
 12 15  2  0
 14 16  2  0
 15 16  1  0
 16 17  1  0
M  END
