x1018_0_A_α-x0910_2_B_α
     RDKit          3D

 22 24  0  0  0  0  0  0  0  0999 V2000
   -8.5740   14.4550    0.9980 Cl  0  0  0  0  0  0  0  0  0  0  0  0
   -6.9340   14.6600    0.5250 C   0  0  0  0  0  0  0  0  0  0  0  0
   -5.9750   14.6790    1.4700 C   0  0  0  0  0  0  0  0  0  0  0  0
   -6.6420   14.8090   -0.8420 N   0  0  0  0  0  0  0  0  0  0  0  0
   -7.5070   15.5620   -1.7850 C   0  0  0  0  0  0  0  0  0  0  0  0
   -5.2710   14.7400   -1.1500 N   0  0  0  0  0  0  0  0  0  0  0  0
   -4.5690   14.8420    1.1040 C   0  0  0  0  0  0  0  0  0  0  0  0
   -8.4650   16.5750   -1.0990 C   0  0  0  0  0  0  0  0  0  0  0  0
   -4.7210   14.9770   -2.3870 N   0  0  0  0  0  0  0  0  0  0  0  0
   -4.2840   14.8590   -0.2040 C   0  0  0  0  0  0  0  0  0  0  0  0
   -9.9290   16.6220   -1.5540 C   0  0  0  0  0  0  0  0  0  0  0  0
   -3.1330   14.9740   -0.9040 N   0  0  0  0  0  0  0  0  0  0  0  0
   -3.4410   14.9590   -2.2550 N   0  0  0  0  0  0  0  0  0  0  0  0
  -10.2890   17.9210   -2.2890 C   0  0  0  0  0  0  0  0  0  0  0  0
  -11.3080   18.8500   -1.6060 C   0  0  0  0  0  0  0  0  0  0  0  0
  -12.2270   19.5970   -2.5940 C   0  0  0  0  0  0  0  0  0  0  0  0
  -11.7980   20.9750   -2.8590 N   0  0  0  0  0  0  0  0  0  0  0  0
  -12.2160   22.0650   -2.1650 C   0  0  0  0  0  0  0  0  0  0  0  0
  -11.7290   23.3320   -2.3520 N   0  0  0  0  0  0  0  0  0  0  0  0
  -13.1340   22.1070   -1.2210 N   0  0  0  0  0  0  0  0  0  0  0  0
  -12.3220   24.2090   -1.5300 N   0  0  0  0  0  0  0  0  0  0  0  0
  -13.1640   23.4210   -0.8630 C   0  0  0  0  0  0  0  0  0  0  0  0
  1  2  1  0
  2  3  2  0
  2  4  1  0
  4  5  1  0
  4  6  1  0
  3  7  1  0
  5  8  1  0
  6  9  1  0
  6 10  1  0
  7 10  2  0
  8 11  1  0
 10 12  1  0
  9 13  2  0
 12 13  1  0
 11 14  1  0
 14 15  1  0
 15 16  1  0
 16 17  1  0
 17 18  1  0
 18 19  1  0
 18 20  2  0
 19 21  1  0
 20 22  1  0
 21 22  2  0
M  END
