x1012_0_A-x0628_0_A
     RDKit          3D

 21 22  0  0  0  0  0  0  0  0999 V2000
   -0.2890   18.3520   -4.9220 N   0  0  0  0  0  0  0  0  0  0  0  0
   -1.3170   17.4840   -4.8670 C   0  0  0  0  0  0  0  0  0  0  0  0
   -2.4410   17.8990   -4.9090 O   0  0  0  0  0  0  0  0  0  0  0  0
   -1.0030   16.1700   -4.7480 N   0  0  0  0  0  0  0  0  0  0  0  0
   -1.9630   15.2150   -4.1380 C   0  0  0  0  0  0  0  0  0  0  0  0
    0.4200   15.8630   -4.8430 C   0  0  0  0  0  0  0  0  0  0  0  0
   -1.4080   14.3960   -2.9610 C   0  0  0  0  0  0  0  0  0  0  0  0
    0.8590   15.1050   -3.6270 C   0  0  0  0  0  0  0  0  0  0  0  0
   -0.0620   13.9030   -3.4490 C   0  0  0  0  0  0  0  0  0  0  0  0
    0.7110   12.7400   -2.8300 C   0  0  0  0  0  0  0  0  0  0  0  0
    0.0410   11.5150   -2.6170 O   0  0  0  0  0  0  0  0  0  0  0  0
    1.3100   13.1260   -1.6110 O   0  0  0  0  0  0  0  0  0  0  0  0
    1.7290   12.6660   -3.9620 C   0  0  0  0  0  0  0  0  0  0  0  0
    1.0560   12.7080   -5.3640 C   0  0  0  0  0  0  0  0  0  0  0  0
    0.0090   11.7170   -5.6570 N   0  0  0  0  0  0  0  0  0  0  0  0
    0.3010   10.8180   -6.6110 N   0  0  0  0  0  0  0  0  0  0  0  0
   -1.2750   11.4740   -5.1620 C   0  0  0  0  0  0  0  0  0  0  0  0
   -2.0130   12.2110   -4.1200 C   0  0  0  0  0  0  0  0  0  0  0  0
   -1.7780   10.4320   -5.7890 N   0  0  0  0  0  0  0  0  0  0  0  0
   -0.7950   10.0660   -6.6510 C   0  0  0  0  0  0  0  0  0  0  0  0
   -0.9280    8.9180   -7.5630 C   0  0  0  0  0  0  0  0  0  0  0  0
  1  2  1  0
  2  3  2  0
  2  4  1  0
  4  5  1  0
  4  6  1  0
  5  7  1  0
  6  8  1  0
  7  9  1  0
  8  9  1  0
  9 10  1  0
 10 11  1  0
 10 12  1  0
 10 13  1  0
 13 14  1  0
 14 15  1  0
 15 16  1  0
 15 17  1  0
 17 18  1  0
 17 19  2  0
 16 20  2  0
 19 20  1  0
 20 21  1  0
M  END
