x1012_0_A-x0290_0_A
     RDKit          3D

 25 26  0  0  0  0  0  0  0  0999 V2000
   -0.4250   18.3410   -4.9680 N   0  0  0  0  0  0  0  0  0  0  0  0
   -1.2410   17.2760   -4.8800 C   0  0  0  0  0  0  0  0  0  0  0  0
   -2.4390   17.4590   -4.7140 O   0  0  0  0  0  0  0  0  0  0  0  0
   -0.6540   16.0410   -4.9600 N   0  0  0  0  0  0  0  0  0  0  0  0
   -1.5120   14.9720   -4.4790 C   0  0  0  0  0  0  0  0  0  0  0  0
    0.8230   15.8750   -4.8380 C   0  0  0  0  0  0  0  0  0  0  0  0
   -0.8360   14.3680   -3.2780 C   0  0  1  0  0  0  0  0  0  0  0  0
    1.3810   14.5280   -4.3030 C   0  0  0  0  0  0  0  0  0  0  0  0
   -1.7470   13.5620   -2.3880 C   0  0  0  0  0  0  0  0  0  0  0  0
    0.3140   13.5490   -3.8110 C   0  0  1  0  0  0  0  0  0  0  0  0
    0.7790   12.5860   -2.7370 C   0  0  0  0  0  0  0  0  0  0  0  0
   -1.6980   13.9970   -0.9530 C   0  0  0  0  0  0  0  0  0  0  0  0
    0.3860   11.3090   -2.9090 O   0  0  0  0  0  0  0  0  0  0  0  0
    1.4440   12.8890   -1.7740 O   0  0  0  0  0  0  0  0  0  0  0  0
   -0.5310   14.1560   -0.1990 C   0  0  0  0  0  0  0  0  0  0  0  0
   -2.9170   14.2400   -0.3610 C   0  0  0  0  0  0  0  0  0  0  0  0
   -0.6800   14.5460    1.1240 C   0  0  0  0  0  0  0  0  0  0  0  0
   -2.9870   14.6230    0.9440 C   0  0  0  0  0  0  0  0  0  0  0  0
   -4.2190   14.8520    1.5210 N   0  0  0  0  0  0  0  0  0  0  0  0
   -1.8800   14.7810    1.7100 N   0  0  0  0  0  0  0  0  0  0  0  0
   -5.4450   14.6140    0.9850 C   0  0  0  0  0  0  0  0  0  0  0  0
   -5.5750   14.7200   -0.2430 O   0  0  0  0  0  0  0  0  0  0  0  0
   -6.6510   14.1940    1.8190 C   0  0  0  0  0  0  0  0  0  0  0  0
   -7.7860   13.8630    0.9350 N   0  0  0  0  0  0  0  0  0  0  0  0
   -8.6700   15.0050    0.7580 C   0  0  0  0  0  0  0  0  0  0  0  0
  1  2  1  0
  2  3  2  0
  2  4  1  0
  4  5  1  0
  4  6  1  0
  5  7  1  0
  6  8  1  0
  7  9  1  6
  7 10  1  0
  8 10  1  0
 10 11  1  1
  9 12  1  0
 11 13  1  0
 11 14  2  0
 12 15  2  0
 12 16  1  0
 15 17  1  0
 16 18  2  0
 18 19  1  0
 17 20  2  0
 18 20  1  0
 19 21  1  0
 21 22  2  0
 21 23  1  0
 23 24  1  0
 24 25  1  0
M  END
