x1015_0_A-x0685_1_A
     RDKit          3D

 20 21  0  0  0  0  0  0  0  0999 V2000
   -3.2090   14.3970   -4.2300 C   0  0  0  0  0  0  0  0  0  0  0  0
   -1.8570   13.8150   -4.5990 C   0  0  2  0  0  0  0  0  0  0  0  0
   -1.6470   12.3690   -4.2120 N   0  0  0  0  0  0  0  0  0  0  0  0
   -0.8190   14.5340   -3.7360 C   0  0  0  0  0  0  0  0  0  0  0  0
   -0.4470   15.6970   -3.7530 O   0  0  0  0  0  0  0  0  0  0  0  0
   -0.5160   12.3990   -3.5080 C   0  0  0  0  0  0  0  0  0  0  0  0
   -0.3760   13.5970   -2.9180 N   0  0  0  0  0  0  0  0  0  0  0  0
   -1.6630   11.4840   -5.2820 C   0  0  0  0  0  0  0  0  0  0  0  0
    0.4470   11.7140   -3.2270 N   0  0  0  0  0  0  0  0  0  0  0  0
   -0.9250   11.7900   -6.4410 C   0  0  0  0  0  0  0  0  0  0  0  0
   -2.3770   10.2870   -5.2460 C   0  0  0  0  0  0  0  0  0  0  0  0
    1.4210   12.6160   -2.5220 S   0  0  0  0  0  0  0  0  0  0  0  0
   -0.9050   10.9260   -7.5340 C   0  0  0  0  0  0  0  0  0  0  0  0
   -2.3630    9.4150   -6.3360 C   0  0  0  0  0  0  0  0  0  0  0  0
    1.7610   14.0670   -3.4130 C   0  0  0  0  0  0  0  0  0  0  0  0
    2.7350   11.7840   -2.7310 O   0  0  0  0  0  0  0  0  0  0  0  0
    0.8870   12.9070   -1.0310 O   0  0  0  0  0  0  0  0  0  0  0  0
   -1.6290    9.7380   -7.4720 C   0  0  0  0  0  0  0  0  0  0  0  0
   -1.6090    8.6640   -8.8110 Cl  0  0  0  0  0  0  0  0  0  0  0  0
    1.3170   13.9060   -4.8630 C   0  0  0  0  0  0  0  0  0  0  0  0
  2  1  1  1
  2  3  1  0
  2  4  1  0
  4  5  2  0
  3  6  1  0
  4  7  1  0
  6  7  1  0
  3  8  1  0
  6  9  2  3
  8 10  2  0
  8 11  1  0
 12  9  1  0
 10 13  1  0
 11 14  2  0
 12 15  1  0
 12 16  1  0
 12 17  1  0
 13 18  2  0
 14 18  1  0
 18 19  1  0
 15 20  1  0
M  END
