x1018_0_A_α-x0628_0_A_α
     RDKit          3D

 23 25  0  0  0  0  0  0  0  0999 V2000
   -8.2630   14.5820    0.9450 Cl  0  0  0  0  0  0  0  0  0  0  0  0
   -6.6270   14.7180    0.3910 C   0  0  0  0  0  0  0  0  0  0  0  0
   -5.5180   14.8450    1.3820 C   0  0  0  0  0  0  0  0  0  0  0  0
   -6.4540   14.7090   -0.8960 N   0  0  0  0  0  0  0  0  0  0  0  0
   -5.1380   14.8130   -1.2430 N   0  0  0  0  0  0  0  0  0  0  0  0
   -4.2790   14.5580    0.9300 C   0  0  0  0  0  0  0  0  0  0  0  0
   -4.7950   14.8310   -2.5900 N   0  0  0  0  0  0  0  0  0  0  0  0
   -4.1150   14.1380   -0.4860 C   0  0  2  0  0  0  0  0  0  0  0  0
   -2.8990   14.4780   -1.2280 N   0  0  0  0  0  0  0  0  0  0  0  0
   -3.3680   14.5420   -2.6360 N   0  0  0  0  0  0  0  0  0  0  0  0
   -3.2120   13.2620   -3.4390 C   0  0  0  0  0  0  0  0  0  0  0  0
   -1.8140   12.5740   -3.4280 C   0  0  0  0  0  0  0  0  0  0  0  0
   -1.3770   11.7740   -4.6550 C   0  0  0  0  0  0  0  0  0  0  0  0
   -1.9200   10.6780   -5.1890 N   0  0  0  0  0  0  0  0  0  0  0  0
   -0.2720   12.0990   -5.4140 N   0  0  0  0  0  0  0  0  0  0  0  0
    0.6590   13.1980   -5.2530 C   0  0  0  0  0  0  0  0  0  0  0  0
   -1.0990   10.3840   -6.2590 C   0  0  0  0  0  0  0  0  0  0  0  0
   -0.0870   11.2330   -6.4280 N   0  0  0  0  0  0  0  0  0  0  0  0
   -1.3080    9.2240   -7.1500 C   0  0  0  0  0  0  0  0  0  0  0  0
    1.7240   12.9530   -4.1940 C   0  0  0  0  0  0  0  0  0  0  0  0
    1.1460   12.2640   -2.9890 C   0  0  0  0  0  0  0  0  0  0  0  0
    0.6100   11.1670   -2.9600 O   0  0  0  0  0  0  0  0  0  0  0  0
    1.2790   12.9940   -1.8730 O   0  0  0  0  0  0  0  0  0  0  0  0
  1  2  1  0
  2  3  1  0
  2  4  2  0
  4  5  1  0
  3  6  2  0
  5  7  1  0
  5  8  1  0
  8  6  1  1
  8  9  1  0
  7 10  1  0
  9 10  1  0
 10 11  1  0
 11 12  1  0
 12 13  1  0
 13 14  2  0
 13 15  1  0
 15 16  1  0
 14 17  1  0
 15 18  1  0
 17 18  2  0
 17 19  1  0
 16 20  1  0
 20 21  1  0
 21 22  2  0
 21 23  1  0
M  END
