x1018_0_A-x0962_1_A
     RDKit          3D

 12 13  0  0  0  0  0  0  0  0999 V2000
   -8.3170   14.5390    1.0500 Cl  0  0  0  0  0  0  0  0  0  0  0  0
   -6.7720   14.6670    0.2930 C   0  0  0  0  0  0  0  0  0  0  0  0
   -5.5530   14.8150    1.1350 C   0  0  0  0  0  0  0  0  0  0  0  0
   -6.7820   14.6300   -1.0030 N   0  0  0  0  0  0  0  0  0  0  0  0
   -5.5480   14.7300   -1.5380 N   0  0  0  0  0  0  0  0  0  0  0  0
   -4.3980   14.9010    0.4600 C   0  0  0  0  0  0  0  0  0  0  0  0
   -3.1220   15.0370    0.9310 C   0  0  0  0  0  0  0  0  0  0  0  0
   -5.2880   14.7150   -2.8480 N   0  0  0  0  0  0  0  0  0  0  0  0
   -4.3730   14.8590   -0.8920 C   0  0  0  0  0  0  0  0  0  0  0  0
   -2.0070   15.1330    1.1120 N   0  0  0  0  0  0  0  0  0  0  0  0
   -3.3790   14.9230   -1.7370 N   0  0  0  0  0  0  0  0  0  0  0  0
   -3.9660   14.8340   -2.9650 N   0  0  0  0  0  0  0  0  0  0  0  0
  1  2  1  0
  2  3  1  0
  2  4  2  0
  4  5  1  0
  3  6  2  0
  6  7  1  0
  5  8  1  0
  5  9  1  0
  6  9  1  0
  7 10  3  0
  9 11  2  0
  8 12  2  0
 11 12  1  0
M  END
