x1018_0_A_α-x0662_0_A_β
     RDKit          3D

 23 25  0  0  0  0  0  0  0  0999 V2000
   -8.3170   14.5560    0.8370 Cl  0  0  0  0  0  0  0  0  0  0  0  0
   -6.6550   14.7060    0.3800 C   0  0  0  0  0  0  0  0  0  0  0  0
   -5.6100   14.8250    1.4430 C   0  0  0  0  0  0  0  0  0  0  0  0
   -6.3980   14.7140   -0.8910 N   0  0  0  0  0  0  0  0  0  0  0  0
   -5.0650   14.8310   -1.1570 N   0  0  0  0  0  0  0  0  0  0  0  0
   -4.3450   14.5730    1.0700 C   0  0  0  0  0  0  0  0  0  0  0  0
   -4.6200   14.8990   -2.4710 N   0  0  0  0  0  0  0  0  0  0  0  0
   -4.0610   14.1940   -0.3350 C   0  0  2  0  0  0  0  0  0  0  0  0
   -2.8290   14.6540   -0.9570 N   0  0  0  0  0  0  0  0  0  0  0  0
   -3.1860   14.6690   -2.3910 N   0  0  0  0  0  0  0  0  0  0  0  0
   -2.8780   13.4090   -3.1270 C   0  0  0  0  0  0  0  0  0  0  0  0
   -1.6770   12.5610   -2.6460 C   0  0  0  0  0  0  0  0  0  0  0  0
   -0.5010   12.5040   -3.6420 C   0  0  0  0  0  0  0  0  0  0  0  0
   -0.7990   11.6080   -4.7740 N   0  0  0  0  0  0  0  0  0  0  0  0
    0.0870   11.5110   -5.7190 C   0  0  0  0  0  0  0  0  0  0  0  0
    1.1860   12.0910   -5.7970 O   0  0  0  0  0  0  0  0  0  0  0  0
   -0.0340   10.6610   -6.9600 C   0  0  0  0  0  0  0  0  0  0  0  0
    0.7970   10.9260   -8.0480 C   0  0  0  0  0  0  0  0  0  0  0  0
   -0.9630    9.6200   -7.0420 C   0  0  0  0  0  0  0  0  0  0  0  0
    0.7140   10.1780   -9.2230 C   0  0  0  0  0  0  0  0  0  0  0  0
   -1.0490    8.8600   -8.2130 C   0  0  0  0  0  0  0  0  0  0  0  0
    1.5500   10.4560  -10.3270 N   0  0  0  0  0  0  0  0  0  0  0  0
   -0.2140    9.1410   -9.2980 C   0  0  0  0  0  0  0  0  0  0  0  0
  1  2  1  0
  2  3  1  0
  2  4  2  0
  4  5  1  0
  3  6  2  0
  5  7  1  0
  5  8  1  0
  8  6  1  1
  8  9  1  0
  7 10  1  0
  9 10  1  0
 10 11  1  0
 11 12  1  0
 12 13  1  0
 13 14  1  0
 14 15  2  3
 15 16  1  0
 15 17  1  0
 17 18  2  0
 17 19  1  0
 18 20  1  0
 19 21  2  0
 20 22  1  0
 20 23  2  0
 21 23  1  0
M  CHG  1  16  -1
M  END
