x1012_0_A-x0371_0_A
     RDKit          3D

 32 35  0  0  0  0  0  0  0  0999 V2000
   -0.9970   17.4910   -4.4060 N   0  0  0  0  0  0  0  0  0  0  0  0
   -1.1900   16.1910   -4.7880 C   0  0  0  0  0  0  0  0  0  0  0  0
   -2.1920   15.4490   -4.6970 N   0  0  0  0  0  0  0  0  0  0  0  0
   -0.1490   15.5420   -5.3000 N   0  0  0  0  0  0  0  0  0  0  0  0
   -3.2900   15.9130   -4.0510 C   0  0  0  0  0  0  0  0  0  0  0  0
   -0.5060   14.1070   -5.5060 C   0  0  0  0  0  0  0  0  0  0  0  0
    1.1210   15.6490   -4.5610 C   0  0  0  0  0  0  0  0  0  0  0  0
   -2.7210   15.7960   -2.6550 C   0  0  0  0  0  0  0  0  0  0  0  0
   -0.8380   13.4150   -4.1840 C   0  0  0  0  0  0  0  0  0  0  0  0
    1.4480   14.3730   -3.7540 C   0  0  0  0  0  0  0  0  0  0  0  0
    0.1720   13.7940   -3.1150 C   0  0  0  0  0  0  0  0  0  0  0  0
   -3.6130   15.4940   -1.5160 C   0  0  0  0  0  0  0  0  0  0  0  0
    0.4350   12.6120   -2.2280 C   0  0  0  0  0  0  0  0  0  0  0  0
   -2.9950   15.4340   -0.2610 C   0  0  0  0  0  0  0  0  0  0  0  0
   -4.9880   15.2720   -1.6720 C   0  0  0  0  0  0  0  0  0  0  0  0
    0.5000   11.4220   -2.8450 O   0  0  0  0  0  0  0  0  0  0  0  0
    0.5640   12.7240   -1.0210 O   0  0  0  0  0  0  0  0  0  0  0  0
   -5.7270   14.9780   -0.5320 C   0  0  0  0  0  0  0  0  0  0  0  0
   -3.7100   15.1460    0.8810 C   0  0  0  0  0  0  0  0  0  0  0  0
   -7.0720   14.7130   -0.3930 N   0  0  0  0  0  0  0  0  0  0  0  0
   -5.0680   14.9220    0.6950 C   0  0  0  0  0  0  0  0  0  0  0  0
   -6.0400   14.6120    1.5810 N   0  0  0  0  0  0  0  0  0  0  0  0
   -7.2360   14.4940    0.8990 C   0  0  0  0  0  0  0  0  0  0  0  0
   -8.4980   14.1580    1.6060 C   0  0  0  0  0  0  0  0  0  0  0  0
   -8.3060   14.4110    3.0050 N   0  0  0  0  0  0  0  0  0  0  0  0
   -8.8770   15.5020    3.6150 C   0  0  0  0  0  0  0  0  0  0  0  0
   -9.4780   16.3620    2.9820 O   0  0  0  0  0  0  0  0  0  0  0  0
   -8.7040   15.5190    5.0420 C   0  0  0  0  0  0  0  0  0  0  0  0
   -8.0850   14.4470    5.6180 O   0  0  0  0  0  0  0  0  0  0  0  0
   -9.0520   16.4350    6.0110 C   0  0  0  0  0  0  0  0  0  0  0  0
   -8.6220   15.8940    7.2390 C   0  0  0  0  0  0  0  0  0  0  0  0
   -8.0380   14.6830    6.9440 C   0  0  0  0  0  0  0  0  0  0  0  0
  1  2  1  0
  2  3  2  3
  2  4  1  0
  3  5  1  0
  4  6  1  0
  4  7  1  0
  5  8  1  0
  6  9  1  0
  7 10  1  0
  9 11  1  0
 10 11  1  0
  8 12  1  0
 11 13  1  0
 12 14  2  0
 12 15  1  0
 13 16  1  0
 13 17  2  0
 15 18  2  0
 14 19  1  0
 18 20  1  0
 18 21  1  0
 19 21  2  0
 21 22  1  0
 20 23  2  0
 22 23  1  0
 23 24  1  0
 24 25  1  0
 25 26  1  0
 26 27  2  0
 26 28  1  0
 28 29  1  0
 28 30  2  0
 30 31  1  0
 29 32  1  0
 31 32  2  0
M  END
