x1012_0_A_α-x0628_0_A_α
     RDKit          3D

 21 22  0  0  0  0  0  0  0  0999 V2000
   -0.2780   18.3440   -4.7860 N   0  0  0  0  0  0  0  0  0  0  0  0
   -1.3150   17.4910   -4.8390 C   0  0  0  0  0  0  0  0  0  0  0  0
   -2.4290   17.9320   -4.9290 O   0  0  0  0  0  0  0  0  0  0  0  0
   -1.0250   16.1680   -4.7650 N   0  0  0  0  0  0  0  0  0  0  0  0
   -1.9810   15.2140   -4.1500 C   0  0  0  0  0  0  0  0  0  0  0  0
    0.3960   15.8390   -4.8830 C   0  0  0  0  0  0  0  0  0  0  0  0
   -1.4180   14.4020   -2.9690 C   0  0  0  0  0  0  0  0  0  0  0  0
    0.8510   15.1050   -3.6560 C   0  0  0  0  0  0  0  0  0  0  0  0
   -0.0710   13.9070   -3.4570 C   0  0  0  0  0  0  0  0  0  0  0  0
    0.7070   12.7500   -2.8290 C   0  0  0  0  0  0  0  0  0  0  0  0
    0.0350   11.5250   -2.6180 O   0  0  0  0  0  0  0  0  0  0  0  0
    1.3020   13.1370   -1.6090 O   0  0  0  0  0  0  0  0  0  0  0  0
    1.7300   12.6680   -3.9530 C   0  0  0  0  0  0  0  0  0  0  0  0
    1.0610   12.7090   -5.3550 C   0  0  0  0  0  0  0  0  0  0  0  0
    0.0140   11.7150   -5.6530 N   0  0  0  0  0  0  0  0  0  0  0  0
    0.3010   10.8230   -6.6130 N   0  0  0  0  0  0  0  0  0  0  0  0
   -1.2690   11.4710   -5.1550 C   0  0  0  0  0  0  0  0  0  0  0  0
   -2.0020   12.2030   -4.1070 C   0  0  0  0  0  0  0  0  0  0  0  0
   -1.7740   10.4310   -5.7870 N   0  0  0  0  0  0  0  0  0  0  0  0
   -0.7940   10.0700   -6.6550 C   0  0  0  0  0  0  0  0  0  0  0  0
   -0.9320    8.9290   -7.5720 C   0  0  0  0  0  0  0  0  0  0  0  0
  1  2  1  0
  2  3  2  0
  2  4  1  0
  4  5  1  0
  4  6  1  0
  5  7  1  0
  6  8  1  0
  7  9  1  0
  8  9  1  0
  9 10  1  0
 10 11  1  0
 10 12  1  0
 10 13  1  0
 13 14  1  0
 14 15  1  0
 15 16  1  0
 15 17  1  0
 17 18  1  0
 17 19  2  0
 16 20  2  0
 19 20  1  0
 20 21  1  0
M  END
