x1015_0_A_α-x0722_0_A_α
     RDKit          3D

 28 30  0  0  0  0  0  0  0  0999 V2000
   -1.1840   14.2880   -4.0860 C   0  0  0  0  0  0  0  0  0  0  0  0
    0.0690   13.4190   -3.9770 C   0  0  2  0  0  0  0  0  0  0  0  0
   -0.2040   11.9830   -3.9780 N   0  0  0  0  0  0  0  0  0  0  0  0
    0.7650   13.3790   -2.6100 C   0  0  0  0  0  0  0  0  0  0  0  0
    0.6980   14.1310   -1.6170 N   0  0  0  0  0  0  0  0  0  0  0  0
    0.5140   11.3980   -2.9280 C   0  0  0  0  0  0  0  0  0  0  0  0
    1.4800   12.2880   -2.6380 N   0  0  0  0  0  0  0  0  0  0  0  0
   -0.5860   11.2700   -5.1210 C   0  0  0  0  0  0  0  0  0  0  0  0
    0.3640   10.3440   -2.3280 O   0  0  0  0  0  0  0  0  0  0  0  0
   -0.2040   15.2040   -1.6890 C   0  0  0  0  0  0  0  0  0  0  0  0
   -0.0040   11.5290   -6.3690 C   0  0  0  0  0  0  0  0  0  0  0  0
   -1.5560   10.2710   -5.0320 C   0  0  0  0  0  0  0  0  0  0  0  0
   -1.6180   14.5820   -1.6680 C   0  0  0  0  0  0  0  0  0  0  0  0
   -0.3850   10.8040   -7.4980 C   0  0  0  0  0  0  0  0  0  0  0  0
   -1.9430    9.5430   -6.1530 C   0  0  0  0  0  0  0  0  0  0  0  0
   -1.3570    9.8090   -7.3840 C   0  0  0  0  0  0  0  0  0  0  0  0
   -2.2570   14.8030   -0.3510 C   0  0  0  0  0  0  0  0  0  0  0  0
   -1.8430    8.9060   -8.7600 Cl  0  0  0  0  0  0  0  0  0  0  0  0
   -3.5370   15.2160   -0.0100 C   0  0  0  0  0  0  0  0  0  0  0  0
   -1.5820   14.6210    0.8320 N   0  0  0  0  0  0  0  0  0  0  0  0
   -0.2260   14.2030    1.0750 C   0  0  0  0  0  0  0  0  0  0  0  0
   -4.7170   15.5610   -0.8740 C   0  0  0  0  0  0  0  0  0  0  0  0
   -2.3180   14.8880    1.8830 N   0  0  0  0  0  0  0  0  0  0  0  0
   -3.4800   15.2600    1.3940 C   0  0  0  0  0  0  0  0  0  0  0  0
   -4.4950   15.6660    2.3350 C   0  0  0  0  0  0  0  0  0  0  0  0
   -5.9740   14.7260   -0.6490 C   0  0  0  0  0  0  0  0  0  0  0  0
   -7.0970   15.1670   -0.8740 O   0  0  0  0  0  0  0  0  0  0  0  0
   -5.8510   13.4500   -0.1770 N   0  0  0  0  0  0  0  0  0  0  0  0
  2  1  1  1
  2  3  1  0
  2  4  1  0
  4  5  2  3
  3  6  1  0
  4  7  1  0
  6  7  1  0
  3  8  1  0
  6  9  2  0
  5 10  1  0
  8 11  2  0
  8 12  1  0
 10 13  1  0
 11 14  1  0
 12 15  2  0
 14 16  2  0
 15 16  1  0
 13 17  1  0
 16 18  1  0
 17 19  2  0
 17 20  1  0
 20 21  1  0
 19 22  1  0
 20 23  1  0
 19 24  1  0
 23 24  2  0
 24 25  1  0
 22 26  1  0
 26 27  2  0
 26 28  1  0
M  END
