x1012_0_A-x0591_0_A
     RDKit          3D

 25 26  0  0  0  0  0  0  0  0999 V2000
   -0.6700   17.1770   -5.9640 N   0  0  0  0  0  0  0  0  0  0  0  0
   -1.4550   16.5880   -4.9010 C   0  0  1  0  0  0  0  0  0  0  0  0
   -2.2070   17.7340   -4.5190 O   0  0  0  0  0  0  0  0  0  0  0  0
   -2.7370   15.0500   -5.3730 S   0  0  0  0  0  0  0  0  0  0  0  0
   -0.5320   16.0640   -3.9150 N   0  0  0  0  0  0  0  0  0  0  0  0
   -2.0110   13.8060   -5.5680 O   0  0  0  0  0  0  0  0  0  0  0  0
   -3.6390   15.4830   -6.4180 O   0  0  0  0  0  0  0  0  0  0  0  0
   -1.1670   14.9420   -3.2450 C   0  0  0  0  0  0  0  0  0  0  0  0
    0.7880   15.6360   -4.4150 C   0  0  0  0  0  0  0  0  0  0  0  0
   -3.7160   14.9000   -3.8620 C   0  0  0  0  0  0  0  0  0  0  0  0
   -0.8280   13.6450   -3.9660 C   0  0  0  0  0  0  0  0  0  0  0  0
    1.4330   14.5030   -3.5800 C   0  0  0  0  0  0  0  0  0  0  0  0
   -3.1460   14.8680   -2.5700 C   0  0  0  0  0  0  0  0  0  0  0  0
   -5.0900   14.8250   -3.9950 C   0  0  0  0  0  0  0  0  0  0  0  0
    0.5930   13.2240   -3.6550 C   0  0  0  0  0  0  0  0  0  0  0  0
   -3.9680   14.7800   -1.4330 C   0  0  0  0  0  0  0  0  0  0  0  0
   -5.9040   14.7440   -2.8670 C   0  0  0  0  0  0  0  0  0  0  0  0
    0.5540   12.3700   -2.4010 C   0  0  0  0  0  0  0  0  0  0  0  0
   -5.3600   14.7260   -1.5860 C   0  0  0  0  0  0  0  0  0  0  0  0
    0.2590   11.0860   -2.6490 O   0  0  0  0  0  0  0  0  0  0  0  0
    0.7320   12.7310   -1.2540 O   0  0  0  0  0  0  0  0  0  0  0  0
   -6.3180   14.6490   -0.4430 C   0  0  0  0  0  0  0  0  0  0  0  0
   -5.7980   14.5100    0.8200 N   0  0  0  0  0  0  0  0  0  0  0  0
   -7.5210   14.7170   -0.6620 O   0  0  0  0  0  0  0  0  0  0  0  0
   -6.6880   14.4950    1.9560 C   0  0  0  0  0  0  0  0  0  0  0  0
  2  1  1  6
  2  3  1  0
  2  4  1  0
  2  5  1  0
  4  6  2  0
  4  7  2  0
  5  8  1  0
  5  9  1  0
  4 10  1  0
  8 11  1  0
  9 12  1  0
 10 13  2  0
 10 14  1  0
 11 15  1  0
 12 15  1  0
 13 16  1  0
 14 17  2  0
 15 18  1  0
 16 19  2  0
 17 19  1  0
 18 20  1  0
 18 21  2  0
 19 22  1  0
 22 23  1  0
 22 24  2  0
 23 25  1  0
M  END
