x1018_0_A_α-x0685_0_A_α
     RDKit          3D

 15 16  0  0  0  0  0  0  0  0999 V2000
   -8.1670   14.7450   -0.0530 Cl  0  0  0  0  0  0  0  0  0  0  0  0
   -6.4480   14.6290    0.0990 C   0  0  0  0  0  0  0  0  0  0  0  0
   -5.7940   14.7020    1.3150 C   0  0  0  0  0  0  0  0  0  0  0  0
   -5.5560   14.4420   -1.0400 N   0  0  0  0  0  0  0  0  0  0  0  0
   -6.4210   14.8870    2.5560 N   0  0  0  0  0  0  0  0  0  0  0  0
   -5.7610   14.5520   -2.3470 C   0  0  0  0  0  0  0  0  0  0  0  0
   -4.3510   15.1470   -0.8800 N   0  0  0  0  0  0  0  0  0  0  0  0
   -4.3180   14.5760    1.3330 C   0  0  0  0  0  0  0  0  0  0  0  0
   -7.8440   14.8800    2.8310 C   0  0  0  0  0  0  0  0  0  0  0  0
   -5.7580   14.6570   -3.4990 N   0  0  0  0  0  0  0  0  0  0  0  0
   -3.5210   15.2380   -1.9670 N   0  0  0  0  0  0  0  0  0  0  0  0
   -3.6630   14.8040    0.1970 C   0  0  0  0  0  0  0  0  0  0  0  0
   -8.2820   13.4450    3.0370 C   0  0  0  0  0  0  0  0  0  0  0  0
   -2.3830   14.7790   -0.2230 N   0  0  0  0  0  0  0  0  0  0  0  0
   -2.4220   14.7050   -1.6080 N   0  0  0  0  0  0  0  0  0  0  0  0
  1  2  1  0
  2  3  2  0
  2  4  1  0
  3  5  1  0
  4  6  1  0
  4  7  1  0
  3  8  1  0
  5  9  1  0
  6 10  3  0
  7 11  1  0
  7 12  1  0
  8 12  2  0
  9 13  1  0
 12 14  1  0
 11 15  2  0
 14 15  1  0
M  END
