x1018_0_A_α-x0282_0_A_α
     RDKit          3D

 16 18  0  0  0  0  0  0  0  0999 V2000
   -7.0340   14.2070    1.6170 C   0  0  0  0  0  0  0  0  0  0  0  0
   -8.3480   14.2520    0.8700 C   0  0  0  0  0  0  0  0  0  0  0  0
   -5.8390   14.0530    0.6630 C   0  0  1  0  0  0  0  0  0  0  0  0
   -5.9650   15.0530   -0.3870 N   0  0  0  0  0  0  0  0  0  0  0  0
   -4.4590   14.1670    1.4130 C   0  0  0  0  0  0  0  0  0  0  0  0
   -4.9210   15.1620   -1.1890 C   0  0  0  0  0  0  0  0  0  0  0  0
   -3.1730   14.4070    0.4820 C   0  0  2  0  0  0  0  0  0  0  0  0
   -4.9240   15.5350   -2.4740 N   0  0  0  0  0  0  0  0  0  0  0  0
   -3.6610   14.8810   -0.7880 C   0  0  0  0  0  0  0  0  0  0  0  0
   -2.5880   13.2130   -0.1280 N   0  0  0  0  0  0  0  0  0  0  0  0
   -2.0680   15.1550    1.1380 N   0  0  0  0  0  0  0  0  0  0  0  0
   -2.9160   15.1100   -1.8750 N   0  0  0  0  0  0  0  0  0  0  0  0
   -3.6660   15.5040   -2.9010 N   0  0  0  0  0  0  0  0  0  0  0  0
   -1.2980   13.4880   -0.8210 C   0  0  0  0  0  0  0  0  0  0  0  0
   -0.7350   14.7100    1.1160 C   0  0  0  0  0  0  0  0  0  0  0  0
   -0.3050   13.9110    0.1750 C   0  0  0  0  0  0  0  0  0  0  0  0
  1  2  1  0
  3  1  1  1
  3  4  1  0
  3  5  1  0
  4  6  1  0
  7  5  1  1
  6  8  1  0
  6  9  2  0
  7  9  1  0
  7 10  1  0
  7 11  1  0
  9 12  1  0
  8 13  2  0
 12 13  1  0
 10 14  1  0
 11 15  1  0
 14 16  1  0
 15 16  2  0
M  END
