x1012_0_A_α-x0837_0_A_α
     RDKit          3D

 20 21  0  0  0  0  0  0  0  0999 V2000
   -0.1860   18.2900   -4.7830 N   0  0  0  0  0  0  0  0  0  0  0  0
   -1.1750   17.2690   -4.8120 C   0  0  0  0  0  0  0  0  0  0  0  0
   -2.3840   17.5690   -4.7740 O   0  0  0  0  0  0  0  0  0  0  0  0
   -0.7410   15.9240   -4.8540 N   0  0  0  0  0  0  0  0  0  0  0  0
   -1.7490   14.9690   -4.4760 C   0  0  0  0  0  0  0  0  0  0  0  0
    0.6840   15.5800   -4.7690 C   0  0  0  0  0  0  0  0  0  0  0  0
   -1.3330   14.3920   -3.1620 C   0  0  1  0  0  0  0  0  0  0  0  0
    1.0060   14.4310   -3.8250 C   0  0  0  0  0  0  0  0  0  0  0  0
   -3.0090   13.5850   -2.1730 I   0  0  0  0  0  0  0  0  0  0  0  0
   -0.1560   13.5410   -3.5160 C   0  0  1  0  0  0  0  0  0  0  0  0
    0.1730   12.5720   -2.4240 C   0  0  0  0  0  0  0  0  0  0  0  0
   -3.9990   15.1640   -1.0780 C   0  0  2  0  0  0  0  0  0  0  0  0
    0.2600   11.2280   -2.7550 O   0  0  0  0  0  0  0  0  0  0  0  0
    0.3840   12.8700   -1.2220 O   0  0  0  0  0  0  0  0  0  0  0  0
   -3.5040   15.2760    0.2990 C   0  0  0  0  0  0  0  0  0  0  0  0
   -5.4830   15.0620   -1.2040 C   0  0  0  0  0  0  0  0  0  0  0  0
   -4.2090   15.1580    1.3840 C   0  0  0  0  0  0  0  0  0  0  0  0
   -6.2150   14.8720    0.0680 C   0  0  0  0  0  0  0  0  0  0  0  0
   -7.4570   14.6990    0.0150 O   0  0  0  0  0  0  0  0  0  0  0  0
   -5.6000   14.8840    1.3430 N   0  0  0  0  0  0  0  0  0  0  0  0
  1  2  1  0
  2  3  2  0
  2  4  1  0
  4  5  1  0
  4  6  1  0
  5  7  1  0
  6  8  1  0
  7  9  1  6
  7 10  1  0
  8 10  1  0
 10 11  1  1
 12  9  1  1
 11 13  1  0
 11 14  2  0
 12 15  1  0
 12 16  1  0
 15 17  2  0
 16 18  1  0
 18 19  2  0
 17 20  1  0
 18 20  1  0
M  END
