x1018_0_A_α-x0371_0_A_α
     RDKit          3D

 19 21  0  0  0  0  0  0  0  0999 V2000
   -8.6700   14.5130    0.2370 Cl  0  0  0  0  0  0  0  0  0  0  0  0
   -6.9480   14.6430    0.1230 C   0  0  0  0  0  0  0  0  0  0  0  0
   -6.1090   14.6730    1.3670 C   0  0  0  0  0  0  0  0  0  0  0  0
   -6.5190   14.7100   -1.0920 N   0  0  0  0  0  0  0  0  0  0  0  0
   -6.8570   14.5860    2.6790 C   0  0  0  0  0  0  0  0  0  0  0  0
   -5.1800   14.8070   -1.1740 N   0  0  0  0  0  0  0  0  0  0  0  0
   -4.7660   14.7840    1.1630 C   0  0  0  0  0  0  0  0  0  0  0  0
   -8.2650   14.8920    2.6400 N   0  0  0  0  0  0  0  0  0  0  0  0
   -4.5410   14.8780   -2.3470 N   0  0  0  0  0  0  0  0  0  0  0  0
   -4.2640   14.8480   -0.1530 C   0  0  0  0  0  0  0  0  0  0  0  0
   -8.9480   15.6650    3.5460 C   0  0  0  0  0  0  0  0  0  0  0  0
   -3.0610   14.9400   -0.6770 N   0  0  0  0  0  0  0  0  0  0  0  0
   -3.2530   14.9580   -2.0410 N   0  0  0  0  0  0  0  0  0  0  0  0
   -9.7660   16.4530    3.0770 O   0  0  0  0  0  0  0  0  0  0  0  0
   -8.7080   15.5510    4.9730 C   0  0  0  0  0  0  0  0  0  0  0  0
   -8.0930   14.4570    5.5180 O   0  0  0  0  0  0  0  0  0  0  0  0
   -9.0210   16.4370    5.9880 C   0  0  0  0  0  0  0  0  0  0  0  0
   -8.0140   14.6480    6.8580 C   0  0  0  0  0  0  0  0  0  0  0  0
   -8.5750   15.8520    7.1990 C   0  0  0  0  0  0  0  0  0  0  0  0
  1  2  1  0
  2  3  1  0
  2  4  2  0
  3  5  1  0
  4  6  1  0
  3  7  2  0
  5  8  1  0
  6  9  1  0
  6 10  1  0
  7 10  1  0
  8 11  1  0
 10 12  2  0
  9 13  2  0
 12 13  1  0
 11 14  2  0
 11 15  1  0
 15 16  1  0
 15 17  2  0
 16 18  1  0
 17 19  1  0
 18 19  2  0
M  END
