x1012_0_A_α-x0962_2_B_α
     RDKit          3D

 26 27  0  0  0  0  0  0  0  0999 V2000
   -1.4250   17.9270   -5.0970 N   0  0  0  0  0  0  0  0  0  0  0  0
   -1.6820   16.7700   -4.4340 C   0  0  0  0  0  0  0  0  0  0  0  0
   -2.6130   16.8190   -3.5580 N   0  0  0  0  0  0  0  0  0  0  0  0
   -0.9010   15.7130   -4.7970 N   0  0  0  0  0  0  0  0  0  0  0  0
   -2.9540   15.6650   -2.6750 C   0  0  0  0  0  0  0  0  0  0  0  0
   -1.5300   14.4170   -5.0090 C   0  0  0  0  0  0  0  0  0  0  0  0
    0.5620   15.7230   -4.6580 C   0  0  0  0  0  0  0  0  0  0  0  0
   -4.2720   14.9080   -2.9970 C   0  0  0  0  0  0  0  0  0  0  0  0
   -1.1770   13.4850   -3.8670 C   0  0  0  0  0  0  0  0  0  0  0  0
    1.0040   14.7290   -3.5820 C   0  0  0  0  0  0  0  0  0  0  0  0
   -5.2940   14.7410   -1.8250 C   0  0  0  0  0  0  0  0  0  0  0  0
    0.3360   13.3500   -3.7540 C   0  0  0  0  0  0  0  0  0  0  0  0
    0.6400   12.4530   -2.5790 C   0  0  0  0  0  0  0  0  0  0  0  0
   -6.3760   15.8230   -1.6200 C   0  0  0  0  0  0  0  0  0  0  0  0
    0.2640   11.1690   -2.7770 O   0  0  0  0  0  0  0  0  0  0  0  0
    1.1560   12.8230   -1.5500 O   0  0  0  0  0  0  0  0  0  0  0  0
   -7.7900   15.4700   -1.1100 C   0  0  0  0  0  0  0  0  0  0  0  0
   -8.8500   16.4850   -1.6230 C   0  0  0  0  0  0  0  0  0  0  0  0
  -10.0690   16.7680   -0.7200 C   0  0  0  0  0  0  0  0  0  0  0  0
   -9.8500   16.3690    0.6650 C   0  0  0  0  0  0  0  0  0  0  0  0
   -9.5410   16.0230    1.7580 C   0  0  0  0  0  0  0  0  0  0  0  0
   -9.0070   15.5940    2.9820 C   0  0  0  0  0  0  0  0  0  0  0  0
   -8.8920   16.3380    4.1210 N   0  0  0  0  0  0  0  0  0  0  0  0
   -8.4870   14.3620    3.2940 C   0  0  0  0  0  0  0  0  0  0  0  0
   -8.3090   15.5400    5.0630 C   0  0  0  0  0  0  0  0  0  0  0  0
   -8.0610   14.3340    4.5920 N   0  0  0  0  0  0  0  0  0  0  0  0
  1  2  1  0
  2  3  2  3
  2  4  1  0
  3  5  1  0
  4  6  1  0
  4  7  1  0
  5  8  1  0
  6  9  1  0
  7 10  1  0
  8 11  1  0
  9 12  1  0
 10 12  1  0
 12 13  1  0
 11 14  1  0
 13 15  1  0
 13 16  2  0
 14 17  1  0
 17 18  1  0
 18 19  1  0
 19 20  1  0
 20 21  3  0
 21 22  1  0
 22 23  1  0
 22 24  2  0
 23 25  1  0
 24 26  1  0
 25 26  2  0
M  END
