x1015_0_A_α-x0711_0_A_α
     RDKit          3D

 27 29  0  0  0  0  0  0  0  0999 V2000
   -1.1790   14.3780   -3.9040 C   0  0  1  0  0  0  0  0  0  0  0  0
   -1.5730   14.9430   -2.5960 N   0  0  0  0  0  0  0  0  0  0  0  0
   -2.7490   14.8540   -1.8410 C   0  0  0  0  0  0  0  0  0  0  0  0
   -2.3180   13.4930   -4.4340 C   0  0  0  0  0  0  0  0  0  0  0  0
   -1.0240   15.4720   -4.7730 O   0  0  0  0  0  0  0  0  0  0  0  0
    0.1620   13.6100   -3.8420 C   0  0  2  0  0  0  0  0  0  0  0  0
    0.0460   12.1470   -3.8690 N   0  0  0  0  0  0  0  0  0  0  0  0
    0.7010   13.8110   -2.4390 C   0  0  0  0  0  0  0  0  0  0  0  0
    1.1090   14.8570   -1.9610 O   0  0  0  0  0  0  0  0  0  0  0  0
    0.3310   11.6080   -2.6110 C   0  0  0  0  0  0  0  0  0  0  0  0
    0.6500   12.6330   -1.7740 N   0  0  0  0  0  0  0  0  0  0  0  0
   -0.3960   11.3920   -4.9860 C   0  0  0  0  0  0  0  0  0  0  0  0
   -3.9800   15.1260   -2.4640 C   0  0  0  0  0  0  0  0  0  0  0  0
   -2.7900   14.5120   -0.4800 C   0  0  0  0  0  0  0  0  0  0  0  0
    0.3180   10.4310   -2.2660 O   0  0  0  0  0  0  0  0  0  0  0  0
    0.1380   11.6060   -6.2640 C   0  0  0  0  0  0  0  0  0  0  0  0
   -1.3830   10.4030   -4.8450 C   0  0  0  0  0  0  0  0  0  0  0  0
   -5.1950   15.0590   -1.7650 C   0  0  0  0  0  0  0  0  0  0  0  0
   -3.9980   14.4410    0.2290 C   0  0  0  0  0  0  0  0  0  0  0  0
   -0.2970   10.8580   -7.3650 C   0  0  0  0  0  0  0  0  0  0  0  0
   -1.8210    9.6530   -5.9410 C   0  0  0  0  0  0  0  0  0  0  0  0
   -5.2090   14.7110   -0.4100 C   0  0  0  0  0  0  0  0  0  0  0  0
   -6.4740   14.6210    0.3760 C   0  0  0  0  0  0  0  0  0  0  0  0
   -1.2750    9.8840   -7.1980 C   0  0  0  0  0  0  0  0  0  0  0  0
   -1.8110    8.9620   -8.5470 Cl  0  0  0  0  0  0  0  0  0  0  0  0
   -6.4270   14.7050    1.7450 N   0  0  0  0  0  0  0  0  0  0  0  0
   -7.5550   14.4750   -0.1850 O   0  0  0  0  0  0  0  0  0  0  0  0
  1  2  1  0
  2  3  1  0
  1  4  1  6
  1  5  1  0
  1  6  1  0
  6  7  1  0
  6  8  1  1
  8  9  2  0
  7 10  1  0
  8 11  1  0
 10 11  1  0
  7 12  1  0
  3 13  2  0
  3 14  1  0
 10 15  2  0
 12 16  2  0
 12 17  1  0
 13 18  1  0
 14 19  2  0
 16 20  1  0
 17 21  2  0
 18 22  2  0
 19 22  1  0
 22 23  1  0
 20 24  2  0
 21 24  1  0
 24 25  1  0
 23 26  1  0
 23 27  2  0
M  END
