x1012_0_A-x0742_0_A
     RDKit          3D

 29 32  0  0  0  0  0  0  0  0999 V2000
   -0.3260   18.0750   -4.7090 N   0  0  0  0  0  0  0  0  0  0  0  0
   -1.3020   17.1580   -4.8630 C   0  0  0  0  0  0  0  0  0  0  0  0
   -2.4620   17.5260   -4.7990 O   0  0  0  0  0  0  0  0  0  0  0  0
   -0.9170   15.8560   -5.0620 N   0  0  0  0  0  0  0  0  0  0  0  0
   -1.8990   14.7210   -5.0260 C   0  0  0  0  0  0  0  0  0  0  0  0
    0.5630   15.6610   -5.1460 C   0  0  0  0  0  0  0  0  0  0  0  0
   -1.3170   13.3480   -4.6850 C   0  0  0  0  0  0  0  0  0  0  0  0
    1.0210   14.2070   -5.1970 C   0  0  0  0  0  0  0  0  0  0  0  0
    0.0920   13.5860   -4.2410 C   0  0  0  0  0  0  0  0  0  0  0  0
    0.5010   13.2690   -2.8930 C   0  0  0  0  0  0  0  0  0  0  0  0
    0.4250   11.9730   -2.4810 O   0  0  0  0  0  0  0  0  0  0  0  0
    0.8560   14.2100   -2.1680 N   0  0  0  0  0  0  0  0  0  0  0  0
    1.2010   14.2930   -0.8460 C   0  0  0  0  0  0  0  0  0  0  0  0
   -0.0850   14.3570   -0.1380 C   0  0  0  0  0  0  0  0  0  0  0  0
   -0.2160   14.6090    1.2030 C   0  0  0  0  0  0  0  0  0  0  0  0
   -1.2460   14.1620   -0.8830 C   0  0  0  0  0  0  0  0  0  0  0  0
   -1.3930   14.6880    1.8180 N   0  0  0  0  0  0  0  0  0  0  0  0
   -2.4800   14.2370   -0.2770 C   0  0  0  0  0  0  0  0  0  0  0  0
   -3.7600   14.0330   -1.0460 C   0  0  1  0  0  0  0  0  0  0  0  0
   -2.4880   14.5100    1.0610 C   0  0  0  0  0  0  0  0  0  0  0  0
   -4.9850   13.5460   -0.2030 C   0  0  1  0  0  0  0  0  0  0  0  0
   -4.2480   15.2950   -1.7790 C   0  0  0  0  0  0  0  0  0  0  0  0
   -3.7730   14.6290    1.7430 C   0  0  0  0  0  0  0  0  0  0  0  0
   -5.5160   12.1790   -0.6370 C   0  0  0  0  0  0  0  0  0  0  0  0
   -4.7020   13.5110    1.3160 C   0  0  0  0  0  0  0  0  0  0  0  0
   -6.0970   14.5890   -0.4490 C   0  0  0  0  0  0  0  0  0  0  0  0
   -5.3600   15.8270   -0.9000 C   0  0  0  0  0  0  0  0  0  0  0  0
   -5.0630   11.5770   -1.6150 O   0  0  0  0  0  0  0  0  0  0  0  0
   -6.6310   11.5720    0.1730 C   0  0  0  0  0  0  0  0  0  0  0  0
  1  2  1  0
  2  3  2  0
  2  4  1  0
  4  5  1  0
  4  6  1  0
  5  7  1  0
  6  8  1  0
  7  9  1  0
  8  9  1  0
  9 10  1  0
 10 11  1  0
 10 12  2  3
 12 13  1  0
 13 14  1  0
 14 15  2  0
 14 16  1  0
 15 17  1  0
 16 18  2  0
 18 19  1  0
 17 20  2  0
 18 20  1  0
 19 21  1  0
 19 22  1  1
 20 23  1  0
 21 24  1  6
 21 25  1  0
 23 25  1  0
 21 26  1  0
 22 27  1  0
 26 27  1  0
 24 28  2  0
 24 29  1  0
M  END
