x1012_0_A-x0104_0_A
     RDKit          3D

 31 33  0  0  0  0  0  0  0  0999 V2000
   -0.1590   18.1760   -4.8330 N   0  0  0  0  0  0  0  0  0  0  0  0
   -1.0500   17.1740   -4.6500 C   0  0  0  0  0  0  0  0  0  0  0  0
   -2.2950   17.2710   -4.5130 N   0  0  0  0  0  0  0  0  0  0  0  0
   -0.4480   15.9160   -4.6110 N   0  0  0  0  0  0  0  0  0  0  0  0
   -2.9440   16.0020   -4.3090 C   0  0  0  0  0  0  0  0  0  0  0  0
   -1.1300   14.6840   -5.0610 C   0  0  0  0  0  0  0  0  0  0  0  0
    0.9930   15.7400   -4.4030 C   0  0  0  0  0  0  0  0  0  0  0  0
   -2.7050   15.5900   -2.8630 C   0  0  0  0  0  0  0  0  0  0  0  0
   -1.0380   13.6380   -3.9580 C   0  0  0  0  0  0  0  0  0  0  0  0
    1.2300   14.6320   -3.3630 C   0  0  0  0  0  0  0  0  0  0  0  0
   -3.5520   14.3900   -2.5080 C   0  0  0  0  0  0  0  0  0  0  0  0
    0.4210   13.3330   -3.6130 C   0  0  0  0  0  0  0  0  0  0  0  0
    0.4810   12.4000   -2.4130 C   0  0  0  0  0  0  0  0  0  0  0  0
   -4.9220   14.7460   -2.4000 O   0  0  0  0  0  0  0  0  0  0  0  0
    0.3850   11.0960   -2.7490 O   0  0  0  0  0  0  0  0  0  0  0  0
    0.5870   12.7240   -1.2390 O   0  0  0  0  0  0  0  0  0  0  0  0
   -5.3620   14.7560   -1.1050 C   0  0  0  0  0  0  0  0  0  0  0  0
   -4.4830   14.9030   -0.0900 N   0  0  0  0  0  0  0  0  0  0  0  0
   -6.7230   14.6060   -0.9430 C   0  0  0  0  0  0  0  0  0  0  0  0
   -5.0170   14.8940    1.1500 C   0  0  0  0  0  0  0  0  0  0  0  0
   -7.2390   14.6000    0.3470 C   0  0  0  0  0  0  0  0  0  0  0  0
   -6.3800   14.7470    1.4230 C   0  0  0  0  0  0  0  0  0  0  0  0
   -6.8070   14.7630    2.7540 N   0  0  0  0  0  0  0  0  0  0  0  0
   -8.0660   15.0930    3.2260 C   0  0  0  0  0  0  0  0  0  0  0  0
   -8.0750   15.1180    4.6160 N   0  0  0  0  0  0  0  0  0  0  0  0
   -9.0340   15.3310    2.5040 O   0  0  0  0  0  0  0  0  0  0  0  0
   -9.2180   15.0920    5.3900 C   0  0  0  0  0  0  0  0  0  0  0  0
   -9.2830   15.2030    6.7620 C   0  0  0  0  0  0  0  0  0  0  0  0
  -10.7580   14.9090    4.6940 S   0  0  0  0  0  0  0  0  0  0  0  0
  -11.5320   14.9770    6.2160 C   0  0  0  0  0  0  0  0  0  0  0  0
  -10.6300   15.1360    7.2400 C   0  0  0  0  0  0  0  0  0  0  0  0
  1  2  1  0
  2  3  2  3
  2  4  1  0
  3  5  1  0
  4  6  1  0
  4  7  1  0
  5  8  1  0
  6  9  1  0
  7 10  1  0
  8 11  1  0
  9 12  1  0
 10 12  1  0
 12 13  1  0
 11 14  1  0
 13 15  1  0
 13 16  2  0
 14 17  1  0
 17 18  2  0
 17 19  1  0
 18 20  1  0
 19 21  2  0
 20 22  2  0
 21 22  1  0
 22 23  1  0
 23 24  1  0
 24 25  1  0
 24 26  2  0
 25 27  1  0
 27 28  2  0
 27 29  1  0
 29 30  1  0
 28 31  1  0
 30 31  2  0
M  END
