x1015_0_A_α-x0900_0_A_α
     RDKit          3D

 24 26  0  0  0  0  0  0  0  0999 V2000
   -0.6680   14.4230   -4.7380 C   0  0  0  0  0  0  0  0  0  0  0  0
   -0.7300   13.3900   -3.6190 C   0  0  1  0  0  0  0  0  0  0  0  0
   -0.1110   12.1200   -3.9480 N   0  0  0  0  0  0  0  0  0  0  0  0
    0.1900   13.7560   -2.4690 C   0  0  0  0  0  0  0  0  0  0  0  0
    0.3750   14.8600   -1.8780 N   0  0  0  0  0  0  0  0  0  0  0  0
    0.3660   11.5950   -2.7400 C   0  0  0  0  0  0  0  0  0  0  0  0
    0.8740   12.6590   -2.0720 N   0  0  0  0  0  0  0  0  0  0  0  0
   -0.4970   11.3620   -5.0730 C   0  0  0  0  0  0  0  0  0  0  0  0
    0.3480   10.4380   -2.3240 O   0  0  0  0  0  0  0  0  0  0  0  0
   -0.3710   16.0220   -2.2910 C   0  0  0  0  0  0  0  0  0  0  0  0
    0.0630   11.5760   -6.3380 C   0  0  0  0  0  0  0  0  0  0  0  0
   -1.4660   10.3550   -4.9420 C   0  0  0  0  0  0  0  0  0  0  0  0
   -1.8580   15.6810   -2.1340 C   0  0  0  0  0  0  0  0  0  0  0  0
   -0.3310   10.8110   -7.4400 C   0  0  0  0  0  0  0  0  0  0  0  0
   -1.8640    9.5880   -6.0390 C   0  0  0  0  0  0  0  0  0  0  0  0
   -2.3910   15.6550   -0.6970 C   0  0  0  0  0  0  0  0  0  0  0  0
   -1.2940    9.8200   -7.2830 C   0  0  0  0  0  0  0  0  0  0  0  0
   -1.7850    8.8720   -8.6290 Cl  0  0  0  0  0  0  0  0  0  0  0  0
   -3.5900   14.8140   -0.2770 C   0  0  2  0  0  0  0  0  0  0  0  0
   -4.7720   14.9590   -1.0710 N   0  0  0  0  0  0  0  0  0  0  0  0
   -4.0670   15.1290    1.1360 C   0  0  0  0  0  0  0  0  0  0  0  0
   -5.9170   14.8990   -0.3010 C   0  0  0  0  0  0  0  0  0  0  0  0
   -5.4980   14.6130    1.1210 C   0  0  0  0  0  0  0  0  0  0  0  0
   -7.0570   15.0450   -0.7040 O   0  0  0  0  0  0  0  0  0  0  0  0
  2  1  1  6
  2  3  1  0
  2  4  1  0
  4  5  2  3
  3  6  1  0
  4  7  1  0
  6  7  1  0
  3  8  1  0
  6  9  2  0
  5 10  1  0
  8 11  2  0
  8 12  1  0
 10 13  1  0
 11 14  1  0
 12 15  2  0
 13 16  1  0
 14 17  2  0
 15 17  1  0
 17 18  1  0
 19 16  1  6
 19 20  1  0
 19 21  1  0
 20 22  1  0
 21 23  1  0
 22 23  1  0
 22 24  2  0
M  END
