x1015_0_A-x0592_0_A
     RDKit          3D

 28 30  0  0  0  0  0  0  0  0999 V2000
   -1.3970   14.2070   -4.1140 C   0  0  0  0  0  0  0  0  0  0  0  0
   -0.0140   13.6430   -3.7880 C   0  0  2  0  0  0  0  0  0  0  0  0
    0.0190   12.1750   -3.9210 N   0  0  0  0  0  0  0  0  0  0  0  0
    0.3570   13.7280   -2.2890 C   0  0  0  0  0  0  0  0  0  0  0  0
    0.1210   14.6300   -1.3840 N   0  0  0  0  0  0  0  0  0  0  0  0
    0.4300   11.6040   -2.7100 C   0  0  0  0  0  0  0  0  0  0  0  0
    1.0280   12.6020   -2.0270 N   0  0  0  0  0  0  0  0  0  0  0  0
   -0.4130   11.4380   -5.0520 C   0  0  0  0  0  0  0  0  0  0  0  0
    0.3060   10.4510   -2.2950 O   0  0  0  0  0  0  0  0  0  0  0  0
   -0.6250   15.8820   -1.5420 C   0  0  0  0  0  0  0  0  0  0  0  0
    0.1110   11.6500   -6.3330 C   0  0  0  0  0  0  0  0  0  0  0  0
   -1.3960   10.4440   -4.9060 C   0  0  0  0  0  0  0  0  0  0  0  0
   -1.8600   15.7030   -2.4030 C   0  0  0  0  0  0  0  0  0  0  0  0
   -0.3280   10.8980   -7.4290 C   0  0  0  0  0  0  0  0  0  0  0  0
   -1.8380    9.6900   -5.9960 C   0  0  0  0  0  0  0  0  0  0  0  0
   -3.1140   15.4450   -1.6830 N   0  0  0  0  0  0  0  0  0  0  0  0
   -1.3020    9.9190   -7.2540 C   0  0  0  0  0  0  0  0  0  0  0  0
   -1.8430    8.9900   -8.5930 Cl  0  0  0  0  0  0  0  0  0  0  0  0
   -3.3700   15.2130   -0.4390 C   0  0  0  0  0  0  0  0  0  0  0  0
   -2.6210   15.1080    0.7080 N   0  0  0  0  0  0  0  0  0  0  0  0
   -4.8000   15.0420   -0.3100 C   0  0  0  0  0  0  0  0  0  0  0  0
   -5.7330   15.1990   -1.3590 C   0  0  0  0  0  0  0  0  0  0  0  0
   -5.5950   14.7070    0.7800 C   0  0  0  0  0  0  0  0  0  0  0  0
   -6.9880   14.9920   -0.9930 N   0  0  0  0  0  0  0  0  0  0  0  0
   -6.8900   14.6970    0.3070 N   0  0  0  0  0  0  0  0  0  0  0  0
   -8.1210   14.4180    1.0280 C   0  0  0  0  0  0  0  0  0  0  0  0
   -7.8880   13.9520    2.4490 C   0  0  0  0  0  0  0  0  0  0  0  0
   -7.2290   14.9460    3.2210 O   0  0  0  0  0  0  0  0  0  0  0  0
  2  1  1  1
  2  3  1  0
  2  4  1  0
  4  5  2  3
  3  6  1  0
  4  7  1  0
  6  7  1  0
  3  8  1  0
  6  9  2  0
  5 10  1  0
  8 11  2  0
  8 12  1  0
 10 13  1  0
 11 14  1  0
 12 15  2  0
 13 16  1  0
 14 17  2  0
 15 17  1  0
 17 18  1  0
 16 19  2  3
 19 20  1  0
 19 21  1  0
 21 22  1  0
 21 23  2  0
 22 24  2  0
 23 25  1  0
 24 25  1  0
 25 26  1  0
 26 27  1  0
 27 28  1  0
M  END
