x1015_0_A_α-x0905_0_A_α
     RDKit          3D

 24 26  0  0  0  0  0  0  0  0999 V2000
   -1.5830   14.2840   -3.9700 C   0  0  0  0  0  0  0  0  0  0  0  0
   -0.1940   13.6690   -3.8240 C   0  0  2  0  0  0  0  0  0  0  0  0
   -0.2210   12.1970   -3.8700 N   0  0  0  0  0  0  0  0  0  0  0  0
    0.3410   13.7780   -2.3990 C   0  0  0  0  0  0  0  0  0  0  0  0
    0.1840   14.5600   -1.3960 N   0  0  0  0  0  0  0  0  0  0  0  0
    0.4440   11.6880   -2.7390 C   0  0  0  0  0  0  0  0  0  0  0  0
    1.1560   12.7300   -2.2400 N   0  0  0  0  0  0  0  0  0  0  0  0
   -0.5730   11.4330   -5.0100 C   0  0  0  0  0  0  0  0  0  0  0  0
    0.4310   10.5630   -2.2390 O   0  0  0  0  0  0  0  0  0  0  0  0
   -0.7050   15.7110   -1.3400 C   0  0  0  0  0  0  0  0  0  0  0  0
    0.0220   11.6610   -6.2660 C   0  0  0  0  0  0  0  0  0  0  0  0
   -1.5280   10.4140   -4.9170 C   0  0  0  0  0  0  0  0  0  0  0  0
   -1.5190   15.5890   -0.0340 C   0  0  0  0  0  0  0  0  0  0  0  0
   -0.3320   10.8920   -7.3810 C   0  0  0  0  0  0  0  0  0  0  0  0
   -1.8840    9.6440   -6.0260 C   0  0  0  0  0  0  0  0  0  0  0  0
   -1.2850    9.8850   -7.2560 C   0  0  0  0  0  0  0  0  0  0  0  0
   -3.0100   15.4540   -0.2560 C   0  0  0  0  0  0  0  0  0  0  0  0
   -1.7300    8.9340   -8.6140 Cl  0  0  0  0  0  0  0  0  0  0  0  0
   -3.8980   15.2540    0.8030 C   0  0  0  0  0  0  0  0  0  0  0  0
   -3.5640   15.5190   -1.5400 C   0  0  0  0  0  0  0  0  0  0  0  0
   -5.2360   15.1240    0.6510 N   0  0  0  0  0  0  0  0  0  0  0  0
   -4.9370   15.3860   -1.7140 C   0  0  0  0  0  0  0  0  0  0  0  0
   -5.7190   15.1930   -0.6010 C   0  0  0  0  0  0  0  0  0  0  0  0
   -7.0700   15.0560   -0.7110 O   0  0  0  0  0  0  0  0  0  0  0  0
  2  1  1  1
  2  3  1  0
  2  4  1  0
  4  5  2  3
  3  6  1  0
  4  7  1  0
  6  7  1  0
  3  8  1  0
  6  9  2  0
  5 10  1  0
  8 11  2  0
  8 12  1  0
 10 13  1  0
 11 14  1  0
 12 15  2  0
 14 16  2  0
 15 16  1  0
 13 17  1  0
 16 18  1  0
 17 19  2  0
 17 20  1  0
 19 21  1  0
 20 22  2  0
 21 23  2  0
 22 23  1  0
 23 24  1  0
M  END
