x1018_0_A_α-x0855_0_A_α
     RDKit          3D

 23 25  0  0  0  0  0  0  0  0999 V2000
   -8.3300   14.6640    0.8330 Cl  0  0  0  0  0  0  0  0  0  0  0  0
   -6.6490   14.6370    0.4220 C   0  0  0  0  0  0  0  0  0  0  0  0
   -5.6360   14.8750    1.4830 C   0  0  0  0  0  0  0  0  0  0  0  0
   -6.3710   14.4050   -0.8220 N   0  0  0  0  0  0  0  0  0  0  0  0
   -5.0400   14.3610   -1.1430 N   0  0  0  0  0  0  0  0  0  0  0  0
   -4.3580   14.6360    1.1690 C   0  0  0  0  0  0  0  0  0  0  0  0
   -4.6110   15.1920   -2.1560 N   0  0  0  0  0  0  0  0  0  0  0  0
   -3.9660   14.1340   -0.1750 C   0  0  2  0  0  0  0  0  0  0  0  0
   -2.7720   14.7770   -0.7580 N   0  0  0  0  0  0  0  0  0  0  0  0
   -3.1870   15.0430   -2.1400 N   0  0  0  0  0  0  0  0  0  0  0  0
   -1.6400   13.8140   -0.7260 C   0  0  0  0  0  0  0  0  0  0  0  0
   -0.2230   14.4100   -0.8810 C   0  0  0  0  0  0  0  0  0  0  0  0
    0.3420   14.3030   -2.3020 C   0  0  0  0  0  0  0  0  0  0  0  0
    1.2680   13.2010   -2.3930 O   0  0  0  0  0  0  0  0  0  0  0  0
    0.8500   12.1550   -3.1650 C   0  0  0  0  0  0  0  0  0  0  0  0
    0.6650   11.0220   -2.7290 O   0  0  0  0  0  0  0  0  0  0  0  0
    0.6340   12.5420   -4.6050 C   0  0  0  0  0  0  0  0  0  0  0  0
   -0.4070   11.6900   -5.1450 N   0  0  0  0  0  0  0  0  0  0  0  0
   -0.2860   10.7570   -6.1320 C   0  0  0  0  0  0  0  0  0  0  0  0
   -1.6570   11.7860   -4.6460 N   0  0  0  0  0  0  0  0  0  0  0  0
   -1.5330   10.2090   -6.2640 C   0  0  0  0  0  0  0  0  0  0  0  0
   -2.3450   10.8730   -5.3360 C   0  0  0  0  0  0  0  0  0  0  0  0
   -2.0840    8.8610   -7.4220 Br  0  0  0  0  0  0  0  0  0  0  0  0
  1  2  1  0
  2  3  1  0
  2  4  2  0
  4  5  1  0
  3  6  2  0
  5  7  1  0
  5  8  1  0
  8  6  1  1
  8  9  1  0
  7 10  1  0
  9 10  1  0
  9 11  1  0
 11 12  1  0
 12 13  1  0
 13 14  1  0
 14 15  1  0
 15 16  2  0
 15 17  1  0
 17 18  1  0
 18 19  1  0
 18 20  1  0
 19 21  2  0
 20 22  2  0
 21 22  1  0
 21 23  1  0
M  END
