x1018_0_A-x0626_0_A
     RDKit          3D

 20 22  0  0  0  0  0  0  0  0999 V2000
   -7.3530   13.0630    1.2310 C   0  0  0  0  0  0  0  0  0  0  0  0
   -7.1360   14.3390    2.0190 C   0  0  0  0  0  0  0  0  0  0  0  0
   -5.9400   14.9910    1.3470 C   0  0  0  0  0  0  0  0  0  0  0  0
   -6.2280   13.1680    0.2310 C   0  0  0  0  0  0  0  0  0  0  0  0
   -6.4960   13.4880   -1.0050 N   0  0  0  0  0  0  0  0  0  0  0  0
   -4.8600   12.9570    0.7960 C   0  0  0  0  0  0  0  0  0  0  0  0
   -4.7160   15.2550    1.8820 N   0  0  0  0  0  0  0  0  0  0  0  0
   -6.0510   15.3120    0.1520 O   0  0  0  0  0  0  0  0  0  0  0  0
   -5.3680   13.6450   -1.7490 N   0  0  0  0  0  0  0  0  0  0  0  0
   -3.8210   13.1400   -0.0150 C   0  0  0  0  0  0  0  0  0  0  0  0
   -5.3870   13.9920   -3.0470 N   0  0  0  0  0  0  0  0  0  0  0  0
   -4.0570   13.5020   -1.3510 C   0  0  0  0  0  0  0  0  0  0  0  0
   -3.5050   15.2360    1.2610 C   0  0  0  0  0  0  0  0  0  0  0  0
   -3.2690   13.7540   -2.3700 N   0  0  0  0  0  0  0  0  0  0  0  0
   -4.1110   14.0560   -3.4160 N   0  0  0  0  0  0  0  0  0  0  0  0
   -2.4310   14.7480    1.8390 N   0  0  0  0  0  0  0  0  0  0  0  0
   -3.2790   15.8240   -0.3130 S   0  0  0  0  0  0  0  0  0  0  0  0
   -1.6350   15.4070   -0.2480 C   0  0  0  0  0  0  0  0  0  0  0  0
   -1.3650   14.8400    0.9760 C   0  0  0  0  0  0  0  0  0  0  0  0
   -0.0710   14.3380    1.4190 C   0  0  0  0  0  0  0  0  0  0  0  0
  1  2  1  0
  2  3  1  0
  1  4  1  0
  4  5  2  0
  4  6  1  0
  3  7  1  0
  3  8  2  0
  5  9  1  0
  6 10  2  0
  9 11  1  0
  9 12  1  0
 10 12  1  0
  7 13  1  0
 12 14  2  0
 11 15  2  0
 14 15  1  0
 13 16  2  0
 13 17  1  0
 17 18  1  0
 16 19  1  0
 18 19  2  0
 19 20  1  0
M  END
