x1015_0_A-x0681_0_A
     RDKit          3D

 26 29  0  0  0  0  0  0  0  0999 V2000
   -2.0490   14.4520   -3.4150 C   0  0  0  0  0  0  0  0  0  0  0  0
   -3.1290   14.7130   -2.5330 C   0  0  0  0  0  0  0  0  0  0  0  0
   -4.1630   15.4130   -3.1320 N   0  0  0  0  0  0  0  0  0  0  0  0
   -0.6570   13.7800   -3.4510 C   0  0  2  0  0  0  0  0  0  0  0  0
   -0.6150   12.3040   -3.5690 N   0  0  0  0  0  0  0  0  0  0  0  0
    0.1530   13.9990   -2.1830 C   0  0  0  0  0  0  0  0  0  0  0  0
   -3.5870   14.4740   -1.0400 C   0  0  1  0  0  0  0  0  0  0  0  0
    0.3230   15.0490   -1.5880 O   0  0  0  0  0  0  0  0  0  0  0  0
    0.1400   11.7850   -2.5050 C   0  0  0  0  0  0  0  0  0  0  0  0
    0.6980   12.8180   -1.8210 N   0  0  0  0  0  0  0  0  0  0  0  0
   -0.7980   11.5650   -4.7910 C   0  0  0  0  0  0  0  0  0  0  0  0
   -4.6440   13.4230   -0.8050 C   0  0  0  0  0  0  0  0  0  0  0  0
   -2.6350   14.5010    0.1570 C   0  0  0  0  0  0  0  0  0  0  0  0
    0.3230   10.6120   -2.1770 O   0  0  0  0  0  0  0  0  0  0  0  0
   -0.1310   11.8490   -6.0030 C   0  0  0  0  0  0  0  0  0  0  0  0
   -1.6880   10.4790   -4.7960 C   0  0  0  0  0  0  0  0  0  0  0  0
   -5.1140   13.1940    0.4490 N   0  0  0  0  0  0  0  0  0  0  0  0
   -3.4720   14.8460    1.4140 C   0  0  0  0  0  0  0  0  0  0  0  0
   -5.2430   12.6320   -1.6710 N   0  0  0  0  0  0  0  0  0  0  0  0
   -0.3540   11.0740   -7.1580 C   0  0  0  0  0  0  0  0  0  0  0  0
   -1.9130    9.7090   -5.9400 C   0  0  0  0  0  0  0  0  0  0  0  0
   -4.6580   13.8860    1.6250 C   0  0  0  0  0  0  0  0  0  0  0  0
   -6.0620   12.2170    0.3930 C   0  0  0  0  0  0  0  0  0  0  0  0
   -6.1260   11.8790   -0.9370 C   0  0  0  0  0  0  0  0  0  0  0  0
   -1.2480   10.0060   -7.1180 C   0  0  0  0  0  0  0  0  0  0  0  0
   -1.5410    9.0480   -8.5170 Cl  0  0  0  0  0  0  0  0  0  0  0  0
  1  2  2  3
  2  3  1  0
  4  1  1  1
  4  5  1  0
  4  6  1  0
  7  2  1  6
  6  8  2  0
  5  9  1  0
  6 10  1  0
  9 10  1  0
  5 11  1  0
  7 12  1  0
  7 13  1  0
  9 14  2  0
 11 15  2  0
 11 16  1  0
 12 17  1  0
 13 18  1  0
 12 19  2  0
 15 20  1  0
 16 21  2  0
 17 22  1  0
 18 22  1  0
 17 23  1  0
 19 24  1  0
 23 24  2  0
 20 25  2  0
 21 25  1  0
 25 26  1  0
M  END
