x1018_0_A-x0766_0_A
     RDKit          3D

 17 19  0  0  0  0  0  0  0  0999 V2000
   -7.7370   14.4990    0.0260 Cl  0  0  0  0  0  0  0  0  0  0  0  0
   -6.0140   14.5980   -0.1800 C   0  0  0  0  0  0  0  0  0  0  0  0
   -5.1860   14.7420    1.0440 C   0  0  0  0  0  0  0  0  0  0  0  0
   -5.5150   14.5360   -1.4080 N   0  0  0  0  0  0  0  0  0  0  0  0
   -4.1290   14.6320   -1.4750 N   0  0  0  0  0  0  0  0  0  0  0  0
   -3.8990   15.0860    0.8730 C   0  0  0  0  0  0  0  0  0  0  0  0
   -3.3230   14.2710   -2.6160 N   0  0  0  0  0  0  0  0  0  0  0  0
   -3.3390   15.3300   -0.4950 C   0  0  1  0  0  0  0  0  0  0  0  0
   -2.0030   14.8260   -0.7800 N   0  0  0  0  0  0  0  0  0  0  0  0
   -1.8680   14.6050   -2.2430 C   0  0  1  0  0  0  0  0  0  0  0  0
   -0.6150   13.7090   -2.7020 C   0  0  1  0  0  0  0  0  0  0  0  0
   -1.2950   15.8620   -3.0020 C   0  0  0  0  0  0  0  0  0  0  0  0
   -0.3150   12.3270   -2.1920 C   0  0  0  0  0  0  0  0  0  0  0  0
   -0.3860   13.9080   -4.1900 C   0  0  0  0  0  0  0  0  0  0  0  0
   -0.3330   15.4240   -4.1600 C   0  0  0  0  0  0  0  0  0  0  0  0
    0.4670   12.1630   -1.2840 O   0  0  0  0  0  0  0  0  0  0  0  0
   -0.9280   11.2960   -2.8100 O   0  0  0  0  0  0  0  0  0  0  0  0
  1  2  1  0
  2  3  1  0
  2  4  2  0
  4  5  1  0
  3  6  2  0
  5  7  1  0
  5  8  1  0
  8  6  1  1
  8  9  1  0
 10  7  1  0
  9 10  1  0
 10 11  1  0
 10 12  1  6
 11 13  1  6
 11 14  1  0
 12 15  1  0
 14 15  1  0
 13 16  2  0
 13 17  1  0
M  END
