x1015_0_A_α-x0926_0_A_α
     RDKit          3D

 24 26  0  0  0  0  0  0  0  0999 V2000
   -1.5270   14.2850   -3.9680 C   0  0  0  0  0  0  0  0  0  0  0  0
   -0.1530   13.6260   -3.8820 C   0  0  2  0  0  0  0  0  0  0  0  0
   -0.2250   12.1530   -3.9040 N   0  0  0  0  0  0  0  0  0  0  0  0
    0.4570   13.7270   -2.4880 C   0  0  0  0  0  0  0  0  0  0  0  0
    0.3640   14.5110   -1.4820 N   0  0  0  0  0  0  0  0  0  0  0  0
    0.4700   11.6410   -2.7900 C   0  0  0  0  0  0  0  0  0  0  0  0
    1.2470   12.6650   -2.3680 N   0  0  0  0  0  0  0  0  0  0  0  0
   -0.5830   11.3920   -5.0430 C   0  0  0  0  0  0  0  0  0  0  0  0
    0.4260   10.5360   -2.2500 O   0  0  0  0  0  0  0  0  0  0  0  0
   -0.5220   15.6540   -1.4320 C   0  0  0  0  0  0  0  0  0  0  0  0
    0.0110   11.6230   -6.2970 C   0  0  0  0  0  0  0  0  0  0  0  0
   -1.5400   10.3760   -4.9510 C   0  0  0  0  0  0  0  0  0  0  0  0
   -1.2300   15.5720   -0.0730 C   0  0  0  0  0  0  0  0  0  0  0  0
   -0.3450   10.8610   -7.4130 C   0  0  0  0  0  0  0  0  0  0  0  0
   -1.8990    9.6120   -6.0610 C   0  0  0  0  0  0  0  0  0  0  0  0
   -1.3010    9.8560   -7.2900 C   0  0  0  0  0  0  0  0  0  0  0  0
   -2.7590   15.6840   -0.1690 C   0  0  1  0  0  0  0  0  0  0  0  0
   -1.7490    8.9130   -8.6530 Cl  0  0  0  0  0  0  0  0  0  0  0  0
   -3.2950   14.9910   -1.3560 N   0  0  0  0  0  0  0  0  0  0  0  0
   -3.5530   15.3170    1.0470 C   0  0  0  0  0  0  0  0  0  0  0  0
   -4.8640   15.0480    0.9570 C   0  0  0  0  0  0  0  0  0  0  0  0
   -4.6980   15.1870   -1.4650 N   0  0  0  0  0  0  0  0  0  0  0  0
   -5.5310   15.1050   -0.3690 C   0  0  0  0  0  0  0  0  0  0  0  0
   -6.7540   15.0650   -0.4680 O   0  0  0  0  0  0  0  0  0  0  0  0
  2  1  1  1
  2  3  1  0
  2  4  1  0
  4  5  2  3
  3  6  1  0
  4  7  1  0
  6  7  1  0
  3  8  1  0
  6  9  2  0
  5 10  1  0
  8 11  2  0
  8 12  1  0
 10 13  1  0
 11 14  1  0
 12 15  2  0
 14 16  2  0
 15 16  1  0
 17 13  1  1
 16 18  1  0
 17 19  1  0
 17 20  1  0
 20 21  2  0
 19 22  1  0
 21 23  1  0
 22 23  1  0
 23 24  2  0
M  END
