x1018_0_A-x0628_0_A
     RDKit          3D

 23 25  0  0  0  0  0  0  0  0999 V2000
   -8.2690   14.5900    0.9310 Cl  0  0  0  0  0  0  0  0  0  0  0  0
   -6.6340   14.7160    0.3850 C   0  0  0  0  0  0  0  0  0  0  0  0
   -5.5220   14.8420    1.3750 C   0  0  0  0  0  0  0  0  0  0  0  0
   -6.4560   14.6980   -0.9010 N   0  0  0  0  0  0  0  0  0  0  0  0
   -5.1440   14.7930   -1.2490 N   0  0  0  0  0  0  0  0  0  0  0  0
   -4.2850   14.5570    0.9270 C   0  0  0  0  0  0  0  0  0  0  0  0
   -4.7980   14.8320   -2.5960 N   0  0  0  0  0  0  0  0  0  0  0  0
   -4.1070   14.1370   -0.4920 C   0  0  2  0  0  0  0  0  0  0  0  0
   -2.9010   14.5040   -1.2350 N   0  0  0  0  0  0  0  0  0  0  0  0
   -3.3710   14.5460   -2.6430 N   0  0  0  0  0  0  0  0  0  0  0  0
   -3.2140   13.2610   -3.4380 C   0  0  0  0  0  0  0  0  0  0  0  0
   -1.8190   12.5680   -3.4210 C   0  0  0  0  0  0  0  0  0  0  0  0
   -1.3770   11.7770   -4.6500 C   0  0  0  0  0  0  0  0  0  0  0  0
   -1.9160   10.6770   -5.1870 N   0  0  0  0  0  0  0  0  0  0  0  0
   -0.2760   12.1070   -5.4170 N   0  0  0  0  0  0  0  0  0  0  0  0
    0.6550   13.2080   -5.2670 C   0  0  0  0  0  0  0  0  0  0  0  0
   -1.0990   10.3890   -6.2600 C   0  0  0  0  0  0  0  0  0  0  0  0
   -0.0920   11.2430   -6.4330 N   0  0  0  0  0  0  0  0  0  0  0  0
   -1.3040    9.2310   -7.1530 C   0  0  0  0  0  0  0  0  0  0  0  0
    1.7160   12.9780   -4.2010 C   0  0  0  0  0  0  0  0  0  0  0  0
    1.1490   12.2720   -3.0010 C   0  0  0  0  0  0  0  0  0  0  0  0
    0.6300   11.1660   -2.9790 O   0  0  0  0  0  0  0  0  0  0  0  0
    1.2670   12.9990   -1.8790 O   0  0  0  0  0  0  0  0  0  0  0  0
  1  2  1  0
  2  3  1  0
  2  4  2  0
  4  5  1  0
  3  6  2  0
  5  7  1  0
  5  8  1  0
  8  6  1  1
  8  9  1  0
  7 10  1  0
  9 10  1  0
 10 11  1  0
 11 12  1  0
 12 13  1  0
 13 14  2  0
 13 15  1  0
 15 16  1  0
 14 17  1  0
 15 18  1  0
 17 18  2  0
 17 19  1  0
 16 20  1  0
 20 21  1  0
 21 22  2  0
 21 23  1  0
M  END
