x1018_0_A-x0371_0_A
     RDKit          3D

 18 20  0  0  0  0  0  0  0  0999 V2000
   -8.0040   14.5220    1.2760 C   0  0  0  0  0  0  0  0  0  0  0  0
   -7.8910   14.5830    2.7320 N   0  0  0  0  0  0  0  0  0  0  0  0
   -8.6790   15.4860    3.4420 C   0  0  0  0  0  0  0  0  0  0  0  0
   -6.6070   14.6570    0.6650 C   0  0  0  0  0  0  0  0  0  0  0  0
   -6.4610   14.5930   -0.6310 N   0  0  0  0  0  0  0  0  0  0  0  0
   -5.4890   14.8670    1.6330 C   0  0  0  0  0  0  0  0  0  0  0  0
   -9.4350   16.2440    2.8330 O   0  0  0  0  0  0  0  0  0  0  0  0
   -5.1590   14.7140   -1.0110 N   0  0  0  0  0  0  0  0  0  0  0  0
   -4.2420   14.9670    1.1660 C   0  0  0  0  0  0  0  0  0  0  0  0
   -8.5690   15.4790    4.8890 C   0  0  0  0  0  0  0  0  0  0  0  0
   -4.7740   14.6720   -2.2950 N   0  0  0  0  0  0  0  0  0  0  0  0
   -4.0430   14.8870   -0.2170 C   0  0  0  0  0  0  0  0  0  0  0  0
   -8.0160   14.3850    5.4930 O   0  0  0  0  0  0  0  0  0  0  0  0
   -8.9210   16.3940    5.8690 C   0  0  0  0  0  0  0  0  0  0  0  0
   -2.9830   14.9440   -0.9870 N   0  0  0  0  0  0  0  0  0  0  0  0
   -3.4520   14.8110   -2.2740 N   0  0  0  0  0  0  0  0  0  0  0  0
   -8.5630   15.8200    7.1170 C   0  0  0  0  0  0  0  0  0  0  0  0
   -8.0160   14.5960    6.8290 C   0  0  0  0  0  0  0  0  0  0  0  0
  1  2  1  0
  2  3  1  0
  1  4  1  0
  4  5  2  0
  4  6  1  0
  3  7  2  0
  5  8  1  0
  6  9  2  0
  3 10  1  0
  8 11  1  0
  8 12  1  0
  9 12  1  0
 10 13  1  0
 10 14  2  0
 12 15  2  0
 11 16  2  0
 15 16  1  0
 14 17  1  0
 13 18  1  0
 17 18  2  0
M  END
