x1012_0_A-x0926_0_A
     RDKit          3D

 21 22  0  0  0  0  0  0  0  0999 V2000
   -1.3940   17.7070   -4.7740 N   0  0  0  0  0  0  0  0  0  0  0  0
   -1.4520   16.3410   -4.7260 C   0  0  0  0  0  0  0  0  0  0  0  0
   -2.2930   15.4760   -4.3280 N   0  0  0  0  0  0  0  0  0  0  0  0
   -0.3760   15.6750   -5.1880 N   0  0  0  0  0  0  0  0  0  0  0  0
   -3.5800   15.4810   -3.7150 C   0  0  0  0  0  0  0  0  0  0  0  0
   -0.6850   14.2560   -5.4910 C   0  0  0  0  0  0  0  0  0  0  0  0
    0.8880   15.8430   -4.4590 C   0  0  0  0  0  0  0  0  0  0  0  0
   -3.5110   14.4740   -2.5680 C   0  0  0  0  0  0  0  0  0  0  0  0
   -0.9130   13.4050   -4.2580 C   0  0  0  0  0  0  0  0  0  0  0  0
    1.2580   14.5770   -3.6700 C   0  0  0  0  0  0  0  0  0  0  0  0
    0.0220   13.8190   -3.1440 C   0  0  0  0  0  0  0  0  0  0  0  0
   -3.7140   15.1770   -1.3140 N   0  0  0  0  0  0  0  0  0  0  0  0
    0.3970   12.6570   -2.2520 C   0  0  0  0  0  0  0  0  0  0  0  0
   -2.9490   15.0410   -0.1810 C   0  0  0  0  0  0  0  0  0  0  0  0
   -5.0320   15.6000   -1.1950 N   0  0  0  0  0  0  0  0  0  0  0  0
    0.4490   11.4430   -2.8340 O   0  0  0  0  0  0  0  0  0  0  0  0
    0.6170   12.7630   -1.0650 O   0  0  0  0  0  0  0  0  0  0  0  0
   -3.4960   14.9140    1.0250 C   0  0  0  0  0  0  0  0  0  0  0  0
   -5.7490   15.1560   -0.1320 C   0  0  0  0  0  0  0  0  0  0  0  0
   -6.9610   14.9550   -0.2270 O   0  0  0  0  0  0  0  0  0  0  0  0
   -4.9800   14.9050    1.1660 C   0  0  0  0  0  0  0  0  0  0  0  0
  1  2  1  0
  2  3  2  3
  2  4  1  0
  3  5  1  0
  4  6  1  0
  4  7  1  0
  5  8  1  0
  6  9  1  0
  7 10  1  0
  9 11  1  0
 10 11  1  0
  8 12  1  0
 11 13  1  0
 12 14  1  0
 12 15  1  0
 13 16  1  0
 13 17  2  0
 14 18  2  0
 15 19  1  0
 19 20  2  0
 18 21  1  0
 19 21  1  0
M  END
