x1012_0_A-x0933_0_A
     RDKit          3D

 22 23  0  0  0  0  0  0  0  0999 V2000
   -0.5850   18.0440   -4.6970 N   0  0  0  0  0  0  0  0  0  0  0  0
   -1.3100   16.8990   -4.7960 C   0  0  0  0  0  0  0  0  0  0  0  0
   -2.5780   16.9800   -4.8100 N   0  0  0  0  0  0  0  0  0  0  0  0
   -0.5150   15.7850   -4.8670 N   0  0  0  0  0  0  0  0  0  0  0  0
   -3.3170   15.7150   -4.9380 C   0  0  0  0  0  0  0  0  0  0  0  0
   -1.1320   14.4780   -5.1150 C   0  0  0  0  0  0  0  0  0  0  0  0
    0.8850   15.7930   -4.4340 C   0  0  0  0  0  0  0  0  0  0  0  0
   -3.2030   14.9230   -3.6300 C   0  0  0  0  0  0  0  0  0  0  0  0
   -1.0100   13.5700   -3.9130 C   0  0  0  0  0  0  0  0  0  0  0  0
    1.1410   14.7710   -3.3120 C   0  0  0  0  0  0  0  0  0  0  0  0
   -4.4970   14.8280   -2.8130 C   0  0  0  0  0  0  0  0  0  0  0  0
    0.4510   13.4060   -3.5540 C   0  0  0  0  0  0  0  0  0  0  0  0
    0.5030   12.4530   -2.3820 C   0  0  0  0  0  0  0  0  0  0  0  0
   -4.2860   15.2320   -1.3400 C   0  0  1  0  0  0  0  0  0  0  0  0
    0.4090   11.1560   -2.7280 O   0  0  0  0  0  0  0  0  0  0  0  0
    0.6020   12.7640   -1.2080 O   0  0  0  0  0  0  0  0  0  0  0  0
   -5.4120   14.9070   -0.4530 N   0  0  0  0  0  0  0  0  0  0  0  0
   -2.9330   14.7190   -0.7830 C   0  0  0  0  0  0  0  0  0  0  0  0
   -5.0990   15.0440    0.9280 C   0  0  1  0  0  0  0  0  0  0  0  0
   -2.8040   14.9000    0.7280 C   0  0  0  0  0  0  0  0  0  0  0  0
   -6.1720   14.5310    1.7000 N   0  0  0  0  0  0  0  0  0  0  0  0
   -3.9750   14.2980    1.2970 N   0  0  0  0  0  0  0  0  0  0  0  0
  1  2  1  0
  2  3  2  3
  2  4  1  0
  3  5  1  0
  4  6  1  0
  4  7  1  0
  5  8  1  0
  6  9  1  0
  7 10  1  0
  8 11  1  0
  9 12  1  0
 10 12  1  0
 12 13  1  0
 14 11  1  6
 13 15  1  0
 13 16  2  0
 14 17  1  0
 14 18  1  0
 17 19  1  0
 18 20  1  0
 19 21  1  1
 19 22  1  0
 20 22  1  0
M  END
