x1015_0_A-x0471_0_A
     RDKit          3D

 33 36  0  0  0  0  0  0  0  0999 V2000
   -0.7490   14.2840   -4.6540 C   0  0  0  0  0  0  0  0  0  0  0  0
    0.3570   13.5350   -3.9090 C   0  0  2  0  0  0  0  0  0  0  0  0
    0.2210   12.0800   -4.0020 N   0  0  0  0  0  0  0  0  0  0  0  0
    0.0610   13.5950   -2.4260 C   0  0  0  0  0  0  0  0  0  0  0  0
    0.0370   14.5780   -1.6440 N   0  0  0  0  0  0  0  0  0  0  0  0
    0.4770   11.5410   -2.7380 C   0  0  0  0  0  0  0  0  0  0  0  0
    0.8470   12.6020   -1.9950 N   0  0  0  0  0  0  0  0  0  0  0  0
   -0.3020   11.3620   -5.1050 C   0  0  0  0  0  0  0  0  0  0  0  0
    0.3960   10.3890   -2.3270 O   0  0  0  0  0  0  0  0  0  0  0  0
   -1.3440   14.6560   -1.2450 C   0  0  0  0  0  0  0  0  0  0  0  0
    0.1780   11.5810   -6.4020 C   0  0  0  0  0  0  0  0  0  0  0  0
   -1.3120   10.4030   -4.9280 C   0  0  0  0  0  0  0  0  0  0  0  0
   -1.7120   14.8010    0.2240 C   0  0  0  0  0  0  0  0  0  0  0  0
   -0.3300   10.8610   -7.4860 C   0  0  0  0  0  0  0  0  0  0  0  0
   -1.8230    9.6810   -6.0080 C   0  0  0  0  0  0  0  0  0  0  0  0
   -1.3280    9.9120   -7.2840 C   0  0  0  0  0  0  0  0  0  0  0  0
   -3.2080   14.8920    0.0820 C   0  0  0  0  0  0  0  0  0  0  0  0
   -1.9510    9.0230   -8.6170 Cl  0  0  0  0  0  0  0  0  0  0  0  0
   -3.7210   15.3060   -1.1690 C   0  0  0  0  0  0  0  0  0  0  0  0
   -4.0800   14.5620    1.1170 C   0  0  0  0  0  0  0  0  0  0  0  0
   -5.4550   14.6400    0.8630 C   0  0  0  0  0  0  0  0  0  0  0  0
   -5.0830   15.3930   -1.4280 C   0  0  0  0  0  0  0  0  0  0  0  0
   -6.5000   14.3610    1.6930 N   0  0  0  0  0  0  0  0  0  0  0  0
   -5.9210   15.0420   -0.3860 C   0  0  0  0  0  0  0  0  0  0  0  0
   -7.2860   14.9880   -0.2790 N   0  0  0  0  0  0  0  0  0  0  0  0
   -7.5910   14.5700    0.9920 C   0  0  0  0  0  0  0  0  0  0  0  0
   -8.9820   14.3900    1.4770 C   0  0  0  0  0  0  0  0  0  0  0  0
   -8.9060   14.1750    2.9020 N   0  0  0  0  0  0  0  0  0  0  0  0
   -9.2300   15.1930    3.7600 C   0  0  0  0  0  0  0  0  0  0  0  0
   -9.5020   16.3170    3.3530 O   0  0  0  0  0  0  0  0  0  0  0  0
   -9.2760   14.8610    5.2490 C   0  0  0  0  0  0  0  0  0  0  0  0
   -9.6180   13.3960    5.5050 C   0  0  0  0  0  0  0  0  0  0  0  0
   -8.0010   15.2970    5.9590 C   0  0  0  0  0  0  0  0  0  0  0  0
  2  1  1  6
  2  3  1  0
  2  4  1  0
  4  5  2  3
  3  6  1  0
  4  7  1  0
  6  7  1  0
  3  8  1  0
  6  9  2  0
  5 10  1  0
  8 11  2  0
  8 12  1  0
 10 13  1  0
 11 14  1  0
 12 15  2  0
 14 16  2  0
 15 16  1  0
 13 17  1  0
 16 18  1  0
 17 19  2  0
 17 20  1  0
 20 21  2  0
 19 22  1  0
 21 23  1  0
 21 24  1  0
 22 24  2  0
 24 25  1  0
 23 26  2  0
 25 26  1  0
 26 27  1  0
 27 28  1  0
 28 29  1  0
 29 30  2  0
 29 31  1  0
 31 32  1  0
 31 33  1  0
M  END
