x1015_0_A_α-x0933_0_A_α
     RDKit          3D

 24 26  0  0  0  0  0  0  0  0999 V2000
   -0.8900   14.3130   -4.6740 C   0  0  0  0  0  0  0  0  0  0  0  0
    0.2830   13.5610   -4.0460 C   0  0  2  0  0  0  0  0  0  0  0  0
    0.0920   12.1150   -4.0030 N   0  0  0  0  0  0  0  0  0  0  0  0
    0.2690   13.8240   -2.5590 C   0  0  0  0  0  0  0  0  0  0  0  0
    0.1040   14.9710   -2.0500 N   0  0  0  0  0  0  0  0  0  0  0  0
    0.2380   11.6180   -2.7010 C   0  0  0  0  0  0  0  0  0  0  0  0
    0.4360   12.6760   -1.8760 N   0  0  0  0  0  0  0  0  0  0  0  0
   -0.3820   11.3630   -5.1000 C   0  0  0  0  0  0  0  0  0  0  0  0
    0.2090   10.4580   -2.2950 O   0  0  0  0  0  0  0  0  0  0  0  0
    0.0360   15.0270   -0.6080 C   0  0  0  0  0  0  0  0  0  0  0  0
    0.1300   11.5730   -6.3900 C   0  0  0  0  0  0  0  0  0  0  0  0
   -1.3690   10.3840   -4.9360 C   0  0  0  0  0  0  0  0  0  0  0  0
   -1.3190   15.6580   -0.3040 C   0  0  0  0  0  0  0  0  0  0  0  0
   -0.3300   10.8270   -7.4760 C   0  0  0  0  0  0  0  0  0  0  0  0
   -1.8340    9.6330   -6.0180 C   0  0  0  0  0  0  0  0  0  0  0  0
   -1.3110    9.8570   -7.2860 C   0  0  0  0  0  0  0  0  0  0  0  0
   -2.4400   14.6010   -0.2570 C   0  0  2  0  0  0  0  0  0  0  0  0
   -1.8770    8.9320   -8.6170 Cl  0  0  0  0  0  0  0  0  0  0  0  0
   -3.7180   14.9180   -1.0690 C   0  0  0  0  0  0  0  0  0  0  0  0
   -2.8680   14.3050    1.1690 C   0  0  0  0  0  0  0  0  0  0  0  0
   -4.9210   14.4900   -0.3620 N   0  0  0  0  0  0  0  0  0  0  0  0
   -3.9220   15.1580    1.6600 N   0  0  0  0  0  0  0  0  0  0  0  0
   -5.0240   15.2890    0.7880 C   0  0  2  0  0  0  0  0  0  0  0  0
   -6.0890   14.7310    1.5510 N   0  0  0  0  0  0  0  0  0  0  0  0
  2  1  1  6
  2  3  1  0
  2  4  1  0
  4  5  2  3
  3  6  1  0
  4  7  1  0
  6  7  1  0
  3  8  1  0
  6  9  2  0
  5 10  1  0
  8 11  2  0
  8 12  1  0
 10 13  1  0
 11 14  1  0
 12 15  2  0
 14 16  2  0
 15 16  1  0
 17 13  1  1
 16 18  1  0
 17 19  1  0
 17 20  1  0
 19 21  1  0
 20 22  1  0
 21 23  1  0
 22 23  1  0
 23 24  1  1
M  END
