x1015_0_A-x0471_0_A
     RDKit          3D

 33 36  0  0  0  0  0  0  0  0999 V2000
   -0.7330   14.2890   -4.6630 C   0  0  0  0  0  0  0  0  0  0  0  0
    0.3630   13.5330   -3.9090 C   0  0  2  0  0  0  0  0  0  0  0  0
    0.2200   12.0790   -4.0000 N   0  0  0  0  0  0  0  0  0  0  0  0
    0.0600   13.5940   -2.4290 C   0  0  0  0  0  0  0  0  0  0  0  0
    0.0360   14.5780   -1.6510 N   0  0  0  0  0  0  0  0  0  0  0  0
    0.4760   11.5390   -2.7360 C   0  0  0  0  0  0  0  0  0  0  0  0
    0.8420   12.6000   -1.9920 N   0  0  0  0  0  0  0  0  0  0  0  0
   -0.3040   11.3600   -5.1030 C   0  0  0  0  0  0  0  0  0  0  0  0
    0.4010   10.3860   -2.3260 O   0  0  0  0  0  0  0  0  0  0  0  0
   -1.3440   14.6680   -1.2570 C   0  0  0  0  0  0  0  0  0  0  0  0
    0.1790   11.5810   -6.3990 C   0  0  0  0  0  0  0  0  0  0  0  0
   -1.3120   10.4020   -4.9280 C   0  0  0  0  0  0  0  0  0  0  0  0
   -1.7150   14.8200    0.2120 C   0  0  0  0  0  0  0  0  0  0  0  0
   -0.3290   10.8610   -7.4850 C   0  0  0  0  0  0  0  0  0  0  0  0
   -1.8230    9.6800   -6.0090 C   0  0  0  0  0  0  0  0  0  0  0  0
   -1.3270    9.9120   -7.2830 C   0  0  0  0  0  0  0  0  0  0  0  0
   -3.2110   14.9030    0.0750 C   0  0  0  0  0  0  0  0  0  0  0  0
   -1.9480    9.0230   -8.6180 Cl  0  0  0  0  0  0  0  0  0  0  0  0
   -3.7270   15.3130   -1.1750 C   0  0  0  0  0  0  0  0  0  0  0  0
   -4.0800   14.5720    1.1110 C   0  0  0  0  0  0  0  0  0  0  0  0
   -5.4570   14.6440    0.8610 C   0  0  0  0  0  0  0  0  0  0  0  0
   -5.0910   15.3950   -1.4330 C   0  0  0  0  0  0  0  0  0  0  0  0
   -6.4990   14.3640    1.6930 N   0  0  0  0  0  0  0  0  0  0  0  0
   -5.9230   15.0430   -0.3900 C   0  0  0  0  0  0  0  0  0  0  0  0
   -7.2900   14.9860   -0.2810 N   0  0  0  0  0  0  0  0  0  0  0  0
   -7.5910   14.5680    0.9910 C   0  0  0  0  0  0  0  0  0  0  0  0
   -8.9780   14.3840    1.4790 C   0  0  0  0  0  0  0  0  0  0  0  0
   -8.8970   14.1750    2.9050 N   0  0  0  0  0  0  0  0  0  0  0  0
   -9.2260   15.1940    3.7610 C   0  0  0  0  0  0  0  0  0  0  0  0
   -9.4980   16.3160    3.3510 O   0  0  0  0  0  0  0  0  0  0  0  0
   -9.2810   14.8610    5.2500 C   0  0  0  0  0  0  0  0  0  0  0  0
   -9.5940   13.3910    5.5060 C   0  0  0  0  0  0  0  0  0  0  0  0
   -8.0260   15.3310    5.9750 C   0  0  0  0  0  0  0  0  0  0  0  0
  2  1  1  6
  2  3  1  0
  2  4  1  0
  4  5  2  3
  3  6  1  0
  4  7  1  0
  6  7  1  0
  3  8  1  0
  6  9  2  0
  5 10  1  0
  8 11  2  0
  8 12  1  0
 10 13  1  0
 11 14  1  0
 12 15  2  0
 14 16  2  0
 15 16  1  0
 13 17  1  0
 16 18  1  0
 17 19  2  0
 17 20  1  0
 20 21  2  0
 19 22  1  0
 21 23  1  0
 21 24  1  0
 22 24  2  0
 24 25  1  0
 23 26  2  0
 25 26  1  0
 26 27  1  0
 27 28  1  0
 28 29  1  0
 29 30  2  0
 29 31  1  0
 31 32  1  0
 31 33  1  0
M  END
