x1018_0_A-x0681_0_A
     RDKit          3D

 17 19  0  0  0  0  0  0  0  0999 V2000
   -8.2490   14.0060    0.9060 Cl  0  0  0  0  0  0  0  0  0  0  0  0
   -6.6000   14.6260    0.6250 C   0  0  1  0  0  0  0  0  0  0  0  0
   -5.4240   13.6470    0.4540 C   0  0  1  0  0  0  0  0  0  0  0  0
   -6.6710   15.3590   -0.6280 N   0  0  0  0  0  0  0  0  0  0  0  0
   -5.5870   15.3060   -1.4070 C   0  0  0  0  0  0  0  0  0  0  0  0
   -4.1020   14.4780    0.3560 C   0  0  1  0  0  0  0  0  0  0  0  0
   -5.4330   12.4490    1.3940 C   0  0  0  0  0  0  0  0  0  0  0  0
   -5.6090   12.9250   -0.8990 C   0  0  0  0  0  0  0  0  0  0  0  0
   -2.8290   13.9910   -0.3240 C   0  0  0  0  0  0  0  0  0  0  0  0
   -5.4340   15.5720   -2.6930 N   0  0  0  0  0  0  0  0  0  0  0  0
   -4.4060   14.9160   -0.9390 C   0  0  0  0  0  0  0  0  0  0  0  0
   -6.0690   11.4110    0.5780 N   0  0  0  0  0  0  0  0  0  0  0  0
   -5.9730   11.6820   -0.7330 C   0  0  0  0  0  0  0  0  0  0  0  0
   -1.8110   14.8560   -0.4100 N   0  0  0  0  0  0  0  0  0  0  0  0
   -2.7070   12.9140   -0.8810 O   0  0  0  0  0  0  0  0  0  0  0  0
   -3.5280   14.9770   -1.9560 N   0  0  0  0  0  0  0  0  0  0  0  0
   -4.1550   15.3790   -3.0410 N   0  0  0  0  0  0  0  0  0  0  0  0
  2  1  1  6
  2  3  1  0
  2  4  1  0
  4  5  1  0
  3  6  1  0
  3  7  1  1
  3  8  1  0
  6  9  1  6
  5 10  1  0
  5 11  2  0
  6 11  1  0
  7 12  1  0
  8 13  2  0
 12 13  1  0
  9 14  1  0
  9 15  2  0
 11 16  1  0
 10 17  2  0
 16 17  1  0
M  END
