x1015_0_A-x0626_0_A
     RDKit          3D

 28 30  0  0  0  0  0  0  0  0999 V2000
   -1.2170   14.3840   -4.3000 C   0  0  0  0  0  0  0  0  0  0  0  0
    0.0320   13.5220   -4.1550 C   0  0  2  0  0  0  0  0  0  0  0  0
   -0.2530   12.0910   -4.0580 N   0  0  0  0  0  0  0  0  0  0  0  0
    0.6310   13.7120   -2.7860 C   0  0  0  0  0  0  0  0  0  0  0  0
    0.8930   14.8070   -2.2380 N   0  0  0  0  0  0  0  0  0  0  0  0
    0.2170   11.5500   -2.8540 C   0  0  0  0  0  0  0  0  0  0  0  0
    0.8670   12.5230   -2.2000 N   0  0  0  0  0  0  0  0  0  0  0  0
   -0.6160   11.3200   -5.1710 C   0  0  0  0  0  0  0  0  0  0  0  0
    0.1070   10.4090   -2.4100 O   0  0  0  0  0  0  0  0  0  0  0  0
    1.4330   14.5440   -0.9300 C   0  0  0  0  0  0  0  0  0  0  0  0
   -0.0250   11.5420   -6.4230 C   0  0  0  0  0  0  0  0  0  0  0  0
   -1.5710   10.3070   -5.0570 C   0  0  0  0  0  0  0  0  0  0  0  0
    0.3550   13.8660   -0.1080 C   0  0  0  0  0  0  0  0  0  0  0  0
   -0.3850   10.7700   -7.5260 C   0  0  0  0  0  0  0  0  0  0  0  0
   -1.9340    9.5320   -6.1560 C   0  0  0  0  0  0  0  0  0  0  0  0
   -0.2980   14.7160    0.9360 C   0  0  0  0  0  0  0  0  0  0  0  0
   -1.3390    9.7660   -7.3860 C   0  0  0  0  0  0  0  0  0  0  0  0
   -1.7810    8.8100   -8.7390 Cl  0  0  0  0  0  0  0  0  0  0  0  0
   -1.7110   14.7860    0.5770 C   0  0  0  0  0  0  0  0  0  0  0  0
   -2.6690   14.7790    1.5480 N   0  0  0  0  0  0  0  0  0  0  0  0
   -2.1580   14.8500   -0.7270 C   0  0  0  0  0  0  0  0  0  0  0  0
   -3.8380   14.8540    0.9510 C   0  0  0  0  0  0  0  0  0  0  0  0
   -3.8570   14.9280   -0.7560 S   0  0  0  0  0  0  0  0  0  0  0  0
   -5.0750   14.8800    1.4870 N   0  0  0  0  0  0  0  0  0  0  0  0
   -6.1920   14.6990    0.7090 C   0  0  0  0  0  0  0  0  0  0  0  0
   -6.2870   14.7960   -0.5090 O   0  0  0  0  0  0  0  0  0  0  0  0
   -7.3790   14.3440    1.5790 C   0  0  0  0  0  0  0  0  0  0  0  0
   -8.7000   14.6700    0.9030 C   0  0  0  0  0  0  0  0  0  0  0  0
  2  1  1  1
  2  3  1  0
  2  4  1  0
  4  5  2  3
  3  6  1  0
  4  7  1  0
  6  7  1  0
  3  8  1  0
  6  9  2  0
  5 10  1  0
  8 11  2  0
  8 12  1  0
 10 13  1  0
 11 14  1  0
 12 15  2  0
 13 16  1  0
 14 17  2  0
 15 17  1  0
 17 18  1  0
 16 19  1  0
 19 20  1  0
 19 21  2  0
 20 22  2  0
 21 23  1  0
 22 23  1  0
 22 24  1  0
 24 25  1  0
 25 26  2  0
 25 27  1  0
 27 28  1  0
M  END
