x1018_0_A_α-x0128_0_A_α
     RDKit          3D

 19 22  0  0  0  0  0  0  0  0999 V2000
   -7.9480   14.3820    1.5580 N   0  0  0  0  0  0  0  0  0  0  0  0
   -7.7520   15.1670    2.7720 C   0  0  2  0  0  0  0  0  0  0  0  0
   -6.3100   15.1070    2.8800 N   0  0  0  0  0  0  0  0  0  0  0  0
   -6.7940   14.5390    0.7540 C   0  0  0  0  0  0  0  0  0  0  0  0
   -8.1420   14.6620    4.0440 N   0  0  0  0  0  0  0  0  0  0  0  0
   -6.6420   14.3670   -0.5260 N   0  0  0  0  0  0  0  0  0  0  0  0
   -5.6960   14.9640    1.6790 C   0  0  0  0  0  0  0  0  0  0  0  0
   -5.3340   14.5810   -0.9200 N   0  0  0  0  0  0  0  0  0  0  0  0
   -4.4530   15.1280    1.2300 C   0  0  0  0  0  0  0  0  0  0  0  0
   -8.6640   15.5880    4.9970 C   0  0  0  0  0  0  0  0  0  0  0  0
   -4.9160   14.4620   -2.1930 N   0  0  0  0  0  0  0  0  0  0  0  0
   -4.2390   14.9320   -0.1430 C   0  0  0  0  0  0  0  0  0  0  0  0
   -9.2130   16.8240    4.5950 C   0  0  0  0  0  0  0  0  0  0  0  0
   -8.6920   15.3740    6.3840 C   0  0  0  0  0  0  0  0  0  0  0  0
   -3.1760   15.0160   -0.9100 N   0  0  0  0  0  0  0  0  0  0  0  0
   -3.6110   14.7270   -2.1790 N   0  0  0  0  0  0  0  0  0  0  0  0
   -9.7420   17.7710    5.4140 N   0  0  0  0  0  0  0  0  0  0  0  0
   -9.2310   16.3310    7.2560 C   0  0  0  0  0  0  0  0  0  0  0  0
   -9.7400   17.5050    6.7290 C   0  0  0  0  0  0  0  0  0  0  0  0
  1  2  1  0
  2  3  1  0
  1  4  1  0
  2  5  1  1
  4  6  2  0
  3  7  1  0
  4  7  1  0
  6  8  1  0
  7  9  2  0
  5 10  1  0
  8 11  1  0
  8 12  1  0
  9 12  1  0
 10 13  2  0
 10 14  1  0
 12 15  2  0
 11 16  2  0
 15 16  1  0
 13 17  1  0
 14 18  2  0
 17 19  2  0
 18 19  1  0
M  END
