x1012_0_A-x0662_0_A
     RDKit          3D

 31 33  0  0  0  0  0  0  0  0999 V2000
   -0.2990   18.1920   -4.7410 N   0  0  0  0  0  0  0  0  0  0  0  0
   -1.2220   17.2050   -4.7960 C   0  0  0  0  0  0  0  0  0  0  0  0
   -2.4060   17.5000   -4.7300 O   0  0  0  0  0  0  0  0  0  0  0  0
   -0.7370   15.9230   -4.8980 N   0  0  0  0  0  0  0  0  0  0  0  0
   -1.6050   14.7460   -4.9760 C   0  0  0  0  0  0  0  0  0  0  0  0
    0.6910   15.6880   -4.6590 C   0  0  0  0  0  0  0  0  0  0  0  0
   -1.5960   13.9310   -3.6950 C   0  0  0  0  0  0  0  0  0  0  0  0
    0.9290   14.4630   -3.7780 C   0  0  0  0  0  0  0  0  0  0  0  0
   -0.2950   14.1110   -2.9050 C   0  0  0  0  0  0  0  0  0  0  0  0
   -0.0620   12.8760   -2.0540 C   0  0  0  0  0  0  0  0  0  0  0  0
   -0.6610   11.8240   -2.6340 O   0  0  0  0  0  0  0  0  0  0  0  0
    0.5580   12.8460   -1.0100 O   0  0  0  0  0  0  0  0  0  0  0  0
    0.2240   11.1430   -3.4790 C   0  0  0  0  0  0  0  0  0  0  0  0
   -0.1990   10.6360   -4.7700 N   0  0  0  0  0  0  0  0  0  0  0  0
    0.2230   11.1690   -5.8610 C   0  0  0  0  0  0  0  0  0  0  0  0
    0.9430   12.1730   -6.0250 O   0  0  0  0  0  0  0  0  0  0  0  0
   -0.0540   10.5420   -7.1870 C   0  0  0  0  0  0  0  0  0  0  0  0
   -1.1250    9.6660   -7.3400 C   0  0  0  0  0  0  0  0  0  0  0  0
    0.7870   10.8190   -8.2660 C   0  0  0  0  0  0  0  0  0  0  0  0
   -1.3460    9.0680   -8.5750 C   0  0  0  0  0  0  0  0  0  0  0  0
    0.5820   10.2240   -9.5160 C   0  0  0  0  0  0  0  0  0  0  0  0
    1.3820   10.4330  -10.6620 N   0  0  0  0  0  0  0  0  0  0  0  0
   -0.4990    9.3420   -9.6520 C   0  0  0  0  0  0  0  0  0  0  0  0
    2.1820    9.5560  -11.3830 C   0  0  0  0  0  0  0  0  0  0  0  0
    2.2790    8.3890  -10.9900 O   0  0  0  0  0  0  0  0  0  0  0  0
    2.9080   10.0180  -12.5730 C   0  0  0  0  0  0  0  0  0  0  0  0
    2.7700   11.2670  -13.2360 C   0  0  0  0  0  0  0  0  0  0  0  0
    3.8390    9.2570  -13.1790 N   0  0  0  0  0  0  0  0  0  0  0  0
    4.2820   10.0110  -14.2010 N   0  0  0  0  0  0  0  0  0  0  0  0
    3.6680   11.2310  -14.2790 C   0  0  0  0  0  0  0  0  0  0  0  0
    5.3110    9.4920  -15.0730 C   0  0  0  0  0  0  0  0  0  0  0  0
  1  2  1  0
  2  3  2  0
  2  4  1  0
  4  5  1  0
  4  6  1  0
  5  7  1  0
  6  8  1  0
  7  9  1  0
  8  9  1  0
  9 10  1  0
 10 11  1  0
 10 12  2  0
 11 13  1  0
 13 14  1  0
 14 15  2  3
 15 16  1  0
 15 17  1  0
 17 18  2  0
 17 19  1  0
 18 20  1  0
 19 21  2  0
 21 22  1  0
 20 23  2  0
 21 23  1  0
 22 24  1  0
 24 25  2  0
 24 26  1  0
 26 27  1  0
 26 28  2  0
 28 29  1  0
 27 30  2  0
 29 30  1  0
 29 31  1  0
M  CHG  1  16  -1
M  END
