x1012_0_A_α-x0159_0_B_β
     RDKit          3D

 27 29  0  0  0  0  0  0  0  0999 V2000
   -0.3370   18.2740   -4.7810 N   0  0  0  0  0  0  0  0  0  0  0  0
   -1.2280   17.2650   -4.8110 C   0  0  0  0  0  0  0  0  0  0  0  0
   -2.4170   17.5360   -4.7380 O   0  0  0  0  0  0  0  0  0  0  0  0
   -0.7290   15.9970   -4.8940 N   0  0  0  0  0  0  0  0  0  0  0  0
   -1.7100   14.9210   -4.7240 C   0  0  0  0  0  0  0  0  0  0  0  0
    0.7050   15.6570   -4.8420 C   0  0  0  0  0  0  0  0  0  0  0  0
   -1.3920   13.9950   -3.5670 C   0  0  0  0  0  0  0  0  0  0  0  0
    1.0230   14.6760   -3.7160 C   0  0  0  0  0  0  0  0  0  0  0  0
    0.0360   13.4990   -3.7240 C   0  0  0  0  0  0  0  0  0  0  0  0
    0.2900   12.3990   -2.7240 C   0  0  0  0  0  0  0  0  0  0  0  0
   -0.3940   11.2470   -3.0160 O   0  0  0  0  0  0  0  0  0  0  0  0
    1.0270   12.5450   -1.7560 O   0  0  0  0  0  0  0  0  0  0  0  0
   -1.1030   11.2200   -4.2930 C   0  0  0  0  0  0  0  0  0  0  0  0
   -0.1520   10.6560   -5.3370 C   0  0  0  0  0  0  0  0  0  0  0  0
   -0.3740   10.8790   -6.8480 C   0  0  0  0  0  0  0  0  0  0  0  0
    0.7550   10.2960   -7.7370 C   0  0  0  0  0  0  0  0  0  0  0  0
    0.6000   10.3660   -9.2680 C   0  0  0  0  0  0  0  0  0  0  0  0
    1.2910    9.2450   -9.9400 N   0  0  0  0  0  0  0  0  0  0  0  0
    2.0760    9.4480  -11.0330 C   0  0  0  0  0  0  0  0  0  0  0  0
    1.9210   10.5940  -11.7640 N   0  0  0  0  0  0  0  0  0  0  0  0
    3.0280    8.6910  -11.5510 N   0  0  0  0  0  0  0  0  0  0  0  0
    2.8200   10.5860  -12.8020 C   0  0  0  0  0  0  0  0  0  0  0  0
    3.5030    9.3860  -12.6480 C   0  0  0  0  0  0  0  0  0  0  0  0
    3.0800   11.5040  -13.8180 C   0  0  0  0  0  0  0  0  0  0  0  0
    4.5190    9.0650  -13.5680 C   0  0  0  0  0  0  0  0  0  0  0  0
    4.0960   11.1680  -14.7210 C   0  0  0  0  0  0  0  0  0  0  0  0
    4.8040    9.9720  -14.6010 C   0  0  0  0  0  0  0  0  0  0  0  0
  1  2  1  0
  2  3  2  0
  2  4  1  0
  4  5  1  0
  4  6  1  0
  5  7  1  0
  6  8  1  0
  7  9  1  0
  8  9  1  0
  9 10  1  0
 10 11  1  0
 10 12  2  0
 11 13  1  0
 13 14  1  0
 14 15  1  0
 15 16  1  0
 16 17  1  0
 17 18  1  0
 18 19  1  0
 19 20  1  0
 19 21  2  0
 20 22  1  0
 21 23  1  0
 22 23  2  0
 22 24  1  0
 23 25  1  0
 24 26  2  0
 25 27  2  0
 26 27  1  0
M  END
