x1015_0_A_α-x0950_0_A_α
     RDKit          3D

 20 21  0  0  0  0  0  0  0  0999 V2000
   -1.7940   14.5350   -4.7090 C   0  0  0  0  0  0  0  0  0  0  0  0
   -0.5450   13.8790   -4.1590 C   0  0  2  0  0  0  0  0  0  0  0  0
   -0.6610   12.4000   -4.1230 N   0  0  0  0  0  0  0  0  0  0  0  0
   -0.4470   14.1820   -2.6790 C   0  0  0  0  0  0  0  0  0  0  0  0
    0.1000   15.1210   -2.1170 O   0  0  0  0  0  0  0  0  0  0  0  0
   -0.6880   11.9610   -2.7330 C   0  0  2  0  0  0  0  0  0  0  0  0
   -1.1190   13.1420   -2.1060 N   0  0  0  0  0  0  0  0  0  0  0  0
   -0.9570   11.5750   -5.1870 C   0  0  0  0  0  0  0  0  0  0  0  0
    0.5730   11.9210   -2.1450 N   0  0  0  0  0  0  0  0  0  0  0  0
   -0.4540   11.8020   -6.4860 C   0  0  0  0  0  0  0  0  0  0  0  0
   -1.7830   10.4500   -5.0290 C   0  0  0  0  0  0  0  0  0  0  0  0
    1.5420   12.3090   -2.8520 C   0  0  0  0  0  0  0  0  0  0  0  0
   -0.7520   10.9570   -7.5590 C   0  0  0  0  0  0  0  0  0  0  0  0
   -2.0920    9.5990   -6.0950 C   0  0  0  0  0  0  0  0  0  0  0  0
    1.7700   12.7620   -4.2780 C   0  0  1  0  0  0  0  0  0  0  0  0
    2.6700   12.3750   -2.1970 O   0  0  0  0  0  0  0  0  0  0  0  0
   -1.5730    9.8570   -7.3570 C   0  0  0  0  0  0  0  0  0  0  0  0
   -1.9420    8.8100   -8.6640 Cl  0  0  0  0  0  0  0  0  0  0  0  0
    3.2270   12.5330   -4.5250 C   0  0  0  0  0  0  0  0  0  0  0  0
    1.0600   12.0700   -5.2760 O   0  0  0  0  0  0  0  0  0  0  0  0
  2  1  1  1
  2  3  1  0
  2  4  1  0
  4  5  2  0
  3  6  1  0
  4  7  1  0
  6  7  1  0
  3  8  1  0
  6  9  1  1
  8 10  2  0
  8 11  1  0
  9 12  2  3
 10 13  1  0
 11 14  2  0
 12 15  1  0
 12 16  1  0
 13 17  2  0
 14 17  1  0
 17 18  1  0
 15 19  1  6
 15 20  1  0
M  END
