x1018_0_A_α-x0290_0_A_α
     RDKit          3D

 22 24  0  0  0  0  0  0  0  0999 V2000
   -7.8650   14.3180    0.8650 C   0  0  0  0  0  0  0  0  0  0  0  0
   -7.5510   13.1680    1.7100 N   0  0  0  0  0  0  0  0  0  0  0  0
   -6.2010   13.2310    2.3300 C   0  0  0  0  0  0  0  0  0  0  0  0
   -6.6020   14.6920    0.1160 C   0  0  0  0  0  0  0  0  0  0  0  0
   -6.5690   14.5280   -1.1680 N   0  0  0  0  0  0  0  0  0  0  0  0
   -5.4690   15.2190    0.9510 C   0  0  0  0  0  0  0  0  0  0  0  0
   -4.9890   13.2510    1.3720 C   0  0  0  0  0  0  0  0  0  0  0  0
   -5.3730   14.8650   -1.6920 N   0  0  0  0  0  0  0  0  0  0  0  0
   -4.3390   15.5470    0.3360 C   0  0  0  0  0  0  0  0  0  0  0  0
   -5.0660   12.7980    0.2240 O   0  0  0  0  0  0  0  0  0  0  0  0
   -3.7760   13.7840    1.7440 N   0  0  0  0  0  0  0  0  0  0  0  0
   -5.1030   14.7460   -2.9970 N   0  0  0  0  0  0  0  0  0  0  0  0
   -4.2610   15.3540   -1.0470 C   0  0  0  0  0  0  0  0  0  0  0  0
   -3.3200   15.5320   -1.9350 N   0  0  0  0  0  0  0  0  0  0  0  0
   -3.8500   15.1540   -3.1400 N   0  0  0  0  0  0  0  0  0  0  0  0
   -2.5780   14.0380    1.0550 C   0  0  0  0  0  0  0  0  0  0  0  0
   -1.5420   14.3280    1.8640 N   0  0  0  0  0  0  0  0  0  0  0  0
   -2.4280   14.0000   -0.3210 C   0  0  0  0  0  0  0  0  0  0  0  0
   -0.3450   14.5800    1.2910 C   0  0  0  0  0  0  0  0  0  0  0  0
   -1.1800   14.2720   -0.8990 C   0  0  0  0  0  0  0  0  0  0  0  0
   -0.9960   14.2440   -2.3880 C   0  0  0  0  0  0  0  0  0  0  0  0
   -0.1160   14.5680   -0.0620 C   0  0  0  0  0  0  0  0  0  0  0  0
  1  2  1  0
  2  3  1  0
  1  4  1  0
  4  5  2  0
  4  6  1  0
  3  7  1  0
  5  8  1  0
  6  9  2  0
  7 10  2  0
  7 11  1  0
  8 12  1  0
  8 13  1  0
  9 13  1  0
 13 14  2  0
 12 15  2  0
 14 15  1  0
 11 16  1  0
 16 17  2  0
 16 18  1  0
 17 19  1  0
 18 20  2  0
 20 21  1  0
 19 22  2  0
 20 22  1  0
M  END
