x1018_0_A-x0290_0_A
     RDKit          3D

 22 24  0  0  0  0  0  0  0  0999 V2000
   -7.8680   14.3260    0.8690 C   0  0  0  0  0  0  0  0  0  0  0  0
   -7.5530   13.1790    1.7170 N   0  0  0  0  0  0  0  0  0  0  0  0
   -6.1980   13.2410    2.3270 C   0  0  0  0  0  0  0  0  0  0  0  0
   -6.6020   14.6980    0.1220 C   0  0  0  0  0  0  0  0  0  0  0  0
   -6.5720   14.5330   -1.1620 N   0  0  0  0  0  0  0  0  0  0  0  0
   -5.4720   15.2220    0.9590 C   0  0  0  0  0  0  0  0  0  0  0  0
   -4.9900   13.2480    1.3670 C   0  0  0  0  0  0  0  0  0  0  0  0
   -5.3740   14.8670   -1.6860 N   0  0  0  0  0  0  0  0  0  0  0  0
   -4.3380   15.5510    0.3470 C   0  0  0  0  0  0  0  0  0  0  0  0
   -5.0670   12.7940    0.2210 O   0  0  0  0  0  0  0  0  0  0  0  0
   -3.7730   13.7740    1.7400 N   0  0  0  0  0  0  0  0  0  0  0  0
   -5.1050   14.7440   -2.9890 N   0  0  0  0  0  0  0  0  0  0  0  0
   -4.2620   15.3550   -1.0390 C   0  0  0  0  0  0  0  0  0  0  0  0
   -3.3210   15.5290   -1.9250 N   0  0  0  0  0  0  0  0  0  0  0  0
   -3.8520   15.1500   -3.1300 N   0  0  0  0  0  0  0  0  0  0  0  0
   -2.5790   14.0310    1.0540 C   0  0  0  0  0  0  0  0  0  0  0  0
   -1.5440   14.3200    1.8640 N   0  0  0  0  0  0  0  0  0  0  0  0
   -2.4240   13.9980   -0.3230 C   0  0  0  0  0  0  0  0  0  0  0  0
   -0.3490   14.5770    1.2990 C   0  0  0  0  0  0  0  0  0  0  0  0
   -1.1790   14.2760   -0.8930 C   0  0  0  0  0  0  0  0  0  0  0  0
   -0.9960   14.2500   -2.3800 C   0  0  0  0  0  0  0  0  0  0  0  0
   -0.1150   14.5730   -0.0550 C   0  0  0  0  0  0  0  0  0  0  0  0
  1  2  1  0
  2  3  1  0
  1  4  1  0
  4  5  2  0
  4  6  1  0
  3  7  1  0
  5  8  1  0
  6  9  2  0
  7 10  2  0
  7 11  1  0
  8 12  1  0
  8 13  1  0
  9 13  1  0
 13 14  2  0
 12 15  2  0
 14 15  1  0
 11 16  1  0
 16 17  2  0
 16 18  1  0
 17 19  1  0
 18 20  2  0
 20 21  1  0
 19 22  2  0
 20 22  1  0
M  END
