x1018_0_A-x0950_0_A
     RDKit          3D

 19 20  0  0  0  0  0  0  0  0999 V2000
   -8.4360   14.4020    0.9300 Cl  0  0  0  0  0  0  0  0  0  0  0  0
   -6.7630   14.6220    0.5590 C   0  0  0  0  0  0  0  0  0  0  0  0
   -5.7800   14.7310    1.6770 C   0  0  0  0  0  0  0  0  0  0  0  0
   -6.4700   14.6920   -0.7060 N   0  0  0  0  0  0  0  0  0  0  0  0
   -5.1380   14.8810   -0.9540 N   0  0  0  0  0  0  0  0  0  0  0  0
   -4.4870   14.6330    1.3500 C   0  0  0  0  0  0  0  0  0  0  0  0
   -4.6680   14.7680   -2.2560 N   0  0  0  0  0  0  0  0  0  0  0  0
   -4.0960   14.4200   -0.0620 C   0  0  2  0  0  0  0  0  0  0  0  0
   -2.9430   15.0790   -0.6660 N   0  0  0  0  0  0  0  0  0  0  0  0
   -3.2280   14.8280   -2.0930 N   0  0  0  0  0  0  0  0  0  0  0  0
   -1.6440   14.5510   -0.2050 C   0  0  0  0  0  0  0  0  0  0  0  0
   -0.6080   14.4310   -1.3280 C   0  0  0  0  0  0  0  0  0  0  0  0
    0.1740   13.1470   -1.1330 C   0  0  0  0  0  0  0  0  0  0  0  0
    1.2400   12.9780   -2.0750 O   0  0  0  0  0  0  0  0  0  0  0  0
    1.0200   12.1060   -3.0910 C   0  0  0  0  0  0  0  0  0  0  0  0
    1.5860   12.6630   -4.3980 C   0  0  1  0  0  0  0  0  0  0  0  0
    0.4620   11.0180   -2.9940 O   0  0  0  0  0  0  0  0  0  0  0  0
    3.0680   12.3630   -4.5090 C   0  0  0  0  0  0  0  0  0  0  0  0
    0.9240   12.1050   -5.5320 O   0  0  0  0  0  0  0  0  0  0  0  0
  1  2  1  0
  2  3  1  0
  2  4  2  0
  4  5  1  0
  3  6  2  0
  5  7  1  0
  5  8  1  0
  8  6  1  1
  8  9  1  0
  7 10  1  0
  9 10  1  0
  9 11  1  0
 11 12  1  0
 12 13  1  0
 13 14  1  0
 14 15  1  0
 15 16  1  0
 15 17  2  0
 16 18  1  6
 16 19  1  0
M  END
