x1018_0_A-x0681_0_A
     RDKit          3D

 17 19  0  0  0  0  0  0  0  0999 V2000
   -8.2500   14.0040    0.8990 Cl  0  0  0  0  0  0  0  0  0  0  0  0
   -6.6020   14.6260    0.6220 C   0  0  1  0  0  0  0  0  0  0  0  0
   -5.4240   13.6440    0.4510 C   0  0  1  0  0  0  0  0  0  0  0  0
   -6.6710   15.3590   -0.6320 N   0  0  0  0  0  0  0  0  0  0  0  0
   -5.5880   15.3060   -1.4080 C   0  0  0  0  0  0  0  0  0  0  0  0
   -4.1030   14.4790    0.3530 C   0  0  1  0  0  0  0  0  0  0  0  0
   -5.4330   12.4500    1.3910 C   0  0  0  0  0  0  0  0  0  0  0  0
   -5.6110   12.9250   -0.9030 C   0  0  0  0  0  0  0  0  0  0  0  0
   -2.8310   13.9910   -0.3270 C   0  0  0  0  0  0  0  0  0  0  0  0
   -5.4350   15.5710   -2.6940 N   0  0  0  0  0  0  0  0  0  0  0  0
   -4.4070   14.9180   -0.9410 C   0  0  0  0  0  0  0  0  0  0  0  0
   -6.0750   11.4140    0.5760 N   0  0  0  0  0  0  0  0  0  0  0  0
   -5.9780   11.6820   -0.7320 C   0  0  0  0  0  0  0  0  0  0  0  0
   -1.8090   14.8540   -0.4050 N   0  0  0  0  0  0  0  0  0  0  0  0
   -2.7100   12.9160   -0.8930 O   0  0  0  0  0  0  0  0  0  0  0  0
   -3.5300   14.9790   -1.9570 N   0  0  0  0  0  0  0  0  0  0  0  0
   -4.1570   15.3820   -3.0420 N   0  0  0  0  0  0  0  0  0  0  0  0
  2  1  1  6
  2  3  1  0
  2  4  1  0
  4  5  1  0
  3  6  1  0
  3  7  1  1
  3  8  1  0
  6  9  1  6
  5 10  1  0
  5 11  2  0
  6 11  1  0
  7 12  1  0
  8 13  2  0
 12 13  1  0
  9 14  1  0
  9 15  2  0
 11 16  1  0
 10 17  2  0
 16 17  1  0
M  END
