x1018_0_A-x0592_0_A
     RDKit          3D

 15 16  0  0  0  0  0  0  0  0999 V2000
   -8.0240   14.6090    1.0090 C   0  0  0  0  0  0  0  0  0  0  0  0
   -7.8210   14.1150    2.4330 C   0  0  0  0  0  0  0  0  0  0  0  0
   -7.1620   15.0930    3.2210 O   0  0  0  0  0  0  0  0  0  0  0  0
   -6.7030   14.6900    0.2450 C   0  0  0  0  0  0  0  0  0  0  0  0
   -6.7540   14.7320   -1.0550 N   0  0  0  0  0  0  0  0  0  0  0  0
   -5.4200   14.7100    1.0250 C   0  0  0  0  0  0  0  0  0  0  0  0
   -5.5340   14.7860   -1.6410 N   0  0  0  0  0  0  0  0  0  0  0  0
   -4.2800   14.7570    0.2970 C   0  0  0  0  0  0  0  0  0  0  0  0
   -2.9060   14.7630    0.7630 C   0  0  0  0  0  0  0  0  0  0  0  0
   -5.3350   14.8310   -2.9610 N   0  0  0  0  0  0  0  0  0  0  0  0
   -4.3230   14.8000   -1.0490 C   0  0  0  0  0  0  0  0  0  0  0  0
   -2.6440   14.5080    2.0270 N   0  0  0  0  0  0  0  0  0  0  0  0
   -2.0120   14.9440   -0.0550 O   0  0  0  0  0  0  0  0  0  0  0  0
   -3.3660   14.8550   -1.9360 N   0  0  0  0  0  0  0  0  0  0  0  0
   -4.0140   14.8740   -3.1310 N   0  0  0  0  0  0  0  0  0  0  0  0
  1  2  1  0
  2  3  1  0
  1  4  1  0
  4  5  2  0
  4  6  1  0
  5  7  1  0
  6  8  2  0
  8  9  1  0
  7 10  1  0
  7 11  1  0
  8 11  1  0
  9 12  1  0
  9 13  2  0
 11 14  2  0
 10 15  2  0
 14 15  1  0
M  END
