x1018_0_A_α-x0967_0_A_α
     RDKit          3D

 10 11  0  0  0  0  0  0  0  0999 V2000
   -8.3510   14.6060    0.9280 Cl  0  0  0  0  0  0  0  0  0  0  0  0
   -6.6790   14.6830    0.4940 C   0  0  0  0  0  0  0  0  0  0  0  0
   -5.6560   14.6470    1.5800 C   0  0  0  0  0  0  0  0  0  0  0  0
   -6.4340   14.7740   -0.7720 N   0  0  0  0  0  0  0  0  0  0  0  0
   -5.1080   14.8270   -1.0320 N   0  0  0  0  0  0  0  0  0  0  0  0
   -4.3630   14.7060    1.2280 C   0  0  0  0  0  0  0  0  0  0  0  0
   -4.6240   14.9210   -2.2760 N   0  0  0  0  0  0  0  0  0  0  0  0
   -4.0530   14.8030   -0.1410 C   0  0  0  0  0  0  0  0  0  0  0  0
   -2.9340   14.8710   -0.8190 N   0  0  0  0  0  0  0  0  0  0  0  0
   -3.3050   14.9460   -2.1420 N   0  0  0  0  0  0  0  0  0  0  0  0
  1  2  1  0
  2  3  1  0
  2  4  2  0
  4  5  1  0
  3  6  2  0
  5  7  1  0
  5  8  1  0
  6  8  1  0
  8  9  2  0
  7 10  2  0
  9 10  1  0
M  END
