x1015_0_A_α-x0574_0_A_α
     RDKit          3D

 29 32  0  0  0  0  0  0  0  0999 V2000
   -0.7780   14.2830   -4.9610 C   0  0  0  0  0  0  0  0  0  0  0  0
    0.3350   13.5990   -4.1680 C   0  0  2  0  0  0  0  0  0  0  0  0
    0.0880   12.1730   -4.0010 N   0  0  0  0  0  0  0  0  0  0  0  0
    0.1850   14.0440   -2.7410 C   0  0  0  0  0  0  0  0  0  0  0  0
   -0.0410   15.2420   -2.3260 N   0  0  0  0  0  0  0  0  0  0  0  0
    0.2110   11.8000   -2.6500 C   0  0  0  0  0  0  0  0  0  0  0  0
    0.3060   12.9610   -1.9220 N   0  0  0  0  0  0  0  0  0  0  0  0
   -0.3830   11.3730   -5.0730 C   0  0  0  0  0  0  0  0  0  0  0  0
    0.2340   10.6700   -2.1490 O   0  0  0  0  0  0  0  0  0  0  0  0
   -0.2470   15.6000   -0.9230 C   0  0  0  0  0  0  0  0  0  0  0  0
    0.1210   11.5490   -6.3670 C   0  0  0  0  0  0  0  0  0  0  0  0
   -1.3630   10.3850   -4.8800 C   0  0  0  0  0  0  0  0  0  0  0  0
    0.7300   14.8550   -0.0010 C   0  0  0  0  0  0  0  0  0  0  0  0
   -0.3300   10.7690   -7.4360 C   0  0  0  0  0  0  0  0  0  0  0  0
   -1.8190    9.6010   -5.9470 C   0  0  0  0  0  0  0  0  0  0  0  0
    0.0500   14.2840    1.1540 N   0  0  0  0  0  0  0  0  0  0  0  0
   -1.2990    9.7990   -7.2190 C   0  0  0  0  0  0  0  0  0  0  0  0
   -1.8570    8.8390   -8.5310 Cl  0  0  0  0  0  0  0  0  0  0  0  0
   -1.2140   14.3990    0.9230 C   0  0  0  0  0  0  0  0  0  0  0  0
   -2.1660   14.4750    1.7960 N   0  0  0  0  0  0  0  0  0  0  0  0
   -1.6380   14.4700   -0.7220 S   0  0  0  0  0  0  0  0  0  0  0  0
   -3.3500   14.6070    1.0820 C   0  0  0  0  0  0  0  0  0  0  0  0
   -3.2450   14.6320   -0.3040 C   0  0  0  0  0  0  0  0  0  0  0  0
   -4.6300   14.7160    1.6070 C   0  0  0  0  0  0  0  0  0  0  0  0
   -4.3150   14.7670   -1.1740 C   0  0  0  0  0  0  0  0  0  0  0  0
   -5.7240   14.8360    0.7650 C   0  0  0  0  0  0  0  0  0  0  0  0
   -5.5700   14.8680   -0.6100 C   0  0  0  0  0  0  0  0  0  0  0  0
   -7.0120   14.9300    1.1920 O   0  0  0  0  0  0  0  0  0  0  0  0
   -7.2110   14.6550    2.5740 C   0  0  0  0  0  0  0  0  0  0  0  0
  2  1  1  6
  2  3  1  0
  2  4  1  0
  4  5  2  3
  3  6  1  0
  4  7  1  0
  6  7  1  0
  3  8  1  0
  6  9  2  0
  5 10  1  0
  8 11  2  0
  8 12  1  0
 10 13  1  0
 11 14  1  0
 12 15  2  0
 13 16  1  0
 14 17  2  0
 15 17  1  0
 17 18  1  0
 16 19  1  0
 19 20  2  0
 19 21  1  0
 20 22  1  0
 21 23  1  0
 22 23  2  0
 22 24  1  0
 23 25  1  0
 24 26  2  0
 25 27  2  0
 26 27  1  0
 26 28  1  0
 28 29  1  0
M  END
