x1015_0_A-x0724_0_A
     RDKit          3D

 31 34  0  0  0  0  0  0  0  0999 V2000
   -0.7020   14.1970   -4.8340 C   0  0  0  0  0  0  0  0  0  0  0  0
    0.4160   13.3740   -4.1880 C   0  0  2  0  0  0  0  0  0  0  0  0
    0.1240   11.9560   -4.1050 N   0  0  0  0  0  0  0  0  0  0  0  0
    0.3820   13.6630   -2.7220 C   0  0  0  0  0  0  0  0  0  0  0  0
    0.2890   14.8070   -2.2740 N   0  0  0  0  0  0  0  0  0  0  0  0
    0.2480   11.4800   -2.7910 C   0  0  0  0  0  0  0  0  0  0  0  0
    0.4410   12.5420   -1.9890 N   0  0  0  0  0  0  0  0  0  0  0  0
   -0.3840   11.2290   -5.1860 C   0  0  0  0  0  0  0  0  0  0  0  0
    0.2100   10.3330   -2.3620 O   0  0  0  0  0  0  0  0  0  0  0  0
    0.1750   14.8770   -0.8500 C   0  0  0  0  0  0  0  0  0  0  0  0
    0.1070   11.4550   -6.4780 C   0  0  0  0  0  0  0  0  0  0  0  0
   -1.3820   10.2640   -5.0130 C   0  0  0  0  0  0  0  0  0  0  0  0
   -0.8680   15.9440   -0.7350 C   0  0  0  0  0  0  0  0  0  0  0  0
   -0.3830   10.7370   -7.5640 C   0  0  0  0  0  0  0  0  0  0  0  0
   -1.8770    9.5410   -6.0960 C   0  0  0  0  0  0  0  0  0  0  0  0
   -1.3730    9.7810   -7.3690 C   0  0  0  0  0  0  0  0  0  0  0  0
   -2.3160   15.5510   -0.5200 C   0  0  0  0  0  0  0  0  0  0  0  0
   -1.9780    8.8890   -8.7040 Cl  0  0  0  0  0  0  0  0  0  0  0  0
   -2.6720   15.4320    0.8000 C   0  0  0  0  0  0  0  0  0  0  0  0
   -3.3000   15.3320   -1.5210 C   0  0  0  0  0  0  0  0  0  0  0  0
   -3.9570   15.1400    1.1700 C   0  0  0  0  0  0  0  0  0  0  0  0
   -4.6310   15.0270   -1.1490 C   0  0  0  0  0  0  0  0  0  0  0  0
   -4.9510   14.9490    0.2200 C   0  0  0  0  0  0  0  0  0  0  0  0
   -6.2430   14.7190    0.7580 N   0  0  0  0  0  0  0  0  0  0  0  0
   -7.3420   14.3890    0.0340 N   0  0  0  0  0  0  0  0  0  0  0  0
   -6.5460   14.8420    2.0950 C   0  0  0  0  0  0  0  0  0  0  0  0
   -7.8840   14.6150    2.2570 C   0  0  0  0  0  0  0  0  0  0  0  0
   -8.3220   14.3320    0.9470 C   0  0  0  0  0  0  0  0  0  0  0  0
   -8.6710   14.6700    3.5180 C   0  0  0  0  0  0  0  0  0  0  0  0
   -8.2550   13.6000    4.4090 N   0  0  0  0  0  0  0  0  0  0  0  0
   -8.6340   13.9000    5.7820 C   0  0  0  0  0  0  0  0  0  0  0  0
  2  1  1  6
  2  3  1  0
  2  4  1  0
  4  5  2  3
  3  6  1  0
  4  7  1  0
  6  7  1  0
  3  8  1  0
  6  9  2  0
  5 10  1  0
  8 11  2  0
  8 12  1  0
 10 13  1  0
 11 14  1  0
 12 15  2  0
 14 16  2  0
 15 16  1  0
 13 17  1  0
 16 18  1  0
 17 19  2  0
 17 20  1  0
 19 21  1  0
 20 22  2  0
 21 23  2  0
 22 23  1  0
 23 24  1  0
 24 25  1  0
 24 26  1  0
 26 27  2  0
 25 28  2  0
 27 28  1  0
 27 29  1  0
 29 30  1  0
 30 31  1  0
M  END
