x1012_0_A_α-x0900_0_A_α
     RDKit          3D

 21 22  0  0  0  0  0  0  0  0999 V2000
   -0.6180   18.0670   -4.8700 N   0  0  0  0  0  0  0  0  0  0  0  0
   -1.3800   16.9470   -4.7600 C   0  0  0  0  0  0  0  0  0  0  0  0
   -2.6440   16.8990   -4.5900 N   0  0  0  0  0  0  0  0  0  0  0  0
   -0.6250   15.7920   -4.8360 N   0  0  0  0  0  0  0  0  0  0  0  0
   -3.3340   15.6070   -4.4710 C   0  0  0  0  0  0  0  0  0  0  0  0
   -1.1970   14.4890   -5.2040 C   0  0  0  0  0  0  0  0  0  0  0  0
    0.8120   15.7670   -4.5260 C   0  0  0  0  0  0  0  0  0  0  0  0
   -3.4290   15.1590   -3.0060 C   0  0  0  0  0  0  0  0  0  0  0  0
   -1.1540   13.5230   -4.0310 C   0  0  0  0  0  0  0  0  0  0  0  0
    1.2040   14.4600   -3.8230 C   0  0  0  0  0  0  0  0  0  0  0  0
   -4.8300   14.8890   -2.4830 C   0  0  0  0  0  0  0  0  0  0  0  0
   -0.0040   13.8550   -3.0830 C   0  0  0  0  0  0  0  0  0  0  0  0
    0.3380   12.6380   -2.2550 C   0  0  0  0  0  0  0  0  0  0  0  0
   -4.8280   15.0710   -1.0380 N   0  0  0  0  0  0  0  0  0  0  0  0
    0.3060   11.4740   -2.9470 O   0  0  0  0  0  0  0  0  0  0  0  0
    0.5900   12.7010   -1.0730 O   0  0  0  0  0  0  0  0  0  0  0  0
   -5.9500   14.9470   -0.2370 C   0  0  0  0  0  0  0  0  0  0  0  0
   -3.6230   14.8970   -0.2680 C   0  0  0  0  0  0  0  0  0  0  0  0
   -7.1160   15.0150   -0.5910 O   0  0  0  0  0  0  0  0  0  0  0  0
   -5.4560   14.7080    1.1740 C   0  0  0  0  0  0  0  0  0  0  0  0
   -4.0590   15.3040    1.1210 C   0  0  0  0  0  0  0  0  0  0  0  0
  1  2  1  0
  2  3  2  3
  2  4  1  0
  3  5  1  0
  4  6  1  0
  4  7  1  0
  5  8  1  0
  6  9  1  0
  7 10  1  0
  8 11  1  0
  9 12  1  0
 10 12  1  0
 12 13  1  0
 11 14  1  0
 13 15  1  0
 13 16  2  0
 14 17  1  0
 14 18  1  0
 17 19  2  0
 17 20  1  0
 18 21  1  0
 20 21  1  0
M  END
