x1018_0_A_α-x0962_2_B_α
     RDKit          3D

 19 21  0  0  0  0  0  0  0  0999 V2000
   -8.5240   14.4950   -0.7810 Cl  0  0  0  0  0  0  0  0  0  0  0  0
   -6.8200   14.6140   -0.5440 C   0  0  0  0  0  0  0  0  0  0  0  0
   -6.2550   14.6310    0.8280 C   0  0  0  0  0  0  0  0  0  0  0  0
   -6.1740   14.6820   -1.6330 N   0  0  0  0  0  0  0  0  0  0  0  0
   -7.2970   14.5450    1.8850 C   0  0  0  0  0  0  0  0  0  0  0  0
   -4.8610   14.7640   -1.4350 N   0  0  0  0  0  0  0  0  0  0  0  0
   -4.9060   14.7280    0.9390 C   0  0  0  0  0  0  0  0  0  0  0  0
   -8.7070   14.8800    1.2830 C   0  0  0  0  0  0  0  0  0  0  0  0
   -4.0150   14.8300   -2.4620 N   0  0  0  0  0  0  0  0  0  0  0  0
   -4.1580   14.7910   -0.2520 C   0  0  0  0  0  0  0  0  0  0  0  0
   -9.5670   15.8420    2.0870 C   0  0  1  0  0  0  0  0  0  0  0  0
   -2.8790   14.8730   -0.5410 N   0  0  0  0  0  0  0  0  0  0  0  0
   -2.8150   14.8960   -1.9160 N   0  0  0  0  0  0  0  0  0  0  0  0
  -10.9980   15.6680    1.9090 N   0  0  0  0  0  0  0  0  0  0  0  0
   -9.0660   15.5720    3.4240 C   0  0  0  0  0  0  0  0  0  0  0  0
   -8.9070   16.4990    4.4130 N   0  0  0  0  0  0  0  0  0  0  0  0
   -8.6450   14.3870    3.9670 C   0  0  0  0  0  0  0  0  0  0  0  0
   -8.3950   15.8350    5.4890 C   0  0  0  0  0  0  0  0  0  0  0  0
   -8.2320   14.5580    5.2440 N   0  0  0  0  0  0  0  0  0  0  0  0
  1  2  1  0
  2  3  1  0
  2  4  2  0
  3  5  1  0
  4  6  1  0
  3  7  2  0
  5  8  1  0
  6  9  1  0
  6 10  1  0
  7 10  1  0
  8 11  1  0
 10 12  2  0
  9 13  2  0
 12 13  1  0
 11 14  1  1
 11 15  1  0
 15 16  1  0
 15 17  2  0
 16 18  1  0
 17 19  1  0
 18 19  2  0
M  END
