x1092_0_B-x0469_0_B
     RDKit          3D

 23 26  0  0  0  0  0  0  0  0999 V2000
  -10.0650   35.0320    6.4030 C   0  0  0  0  0  0  0  0  0  0  0  0
   -9.3830   36.1020    7.1150 N   0  0  0  0  0  0  0  0  0  0  0  0
   -8.2640   35.9040    7.9030 C   0  0  0  0  0  0  0  0  0  0  0  0
   -9.2910   37.4700    6.5540 C   0  0  1  0  0  0  0  0  0  0  0  0
  -10.2340   38.4310    6.9840 O   0  0  0  0  0  0  0  0  0  0  0  0
   -7.2980   36.8110    7.7140 C   0  0  0  0  0  0  0  0  0  0  0  0
   -7.7190   37.8950    6.7400 C   0  0  2  0  0  0  0  0  0  0  0  0
   -8.0880   34.8380    8.9110 C   0  0  2  0  0  0  0  0  0  0  0  0
   -9.7720   37.5150    5.1800 C   0  0  0  0  0  0  0  0  0  0  0  0
  -10.6970   39.2840    5.9280 C   0  0  0  0  0  0  0  0  0  0  0  0
   -7.4230   39.3350    7.2730 C   0  0  0  0  0  0  0  0  0  0  0  0
   -8.6750   34.9870   10.3160 C   0  0  1  0  0  0  0  0  0  0  0  0
   -6.6220   34.3450    9.1220 C   0  0  2  0  0  0  0  0  0  0  0  0
   -6.0050   36.7660    8.4300 C   0  0  0  0  0  0  0  0  0  0  0  0
   -6.9750   38.0040    5.4740 C   0  0  0  0  0  0  0  0  0  0  0  0
   -9.0100   37.7710    4.1820 C   0  0  0  0  0  0  0  0  0  0  0  0
   -9.3880   33.8380   10.7600 O   0  0  0  0  0  0  0  0  0  0  0  0
   -6.2810   40.0550    6.6320 N   0  0  0  0  0  0  0  0  0  0  0  0
   -6.5010   34.1520   10.5900 N   0  0  0  0  0  0  0  0  0  0  0  0
   -7.4030   35.1750   11.1420 C   0  0  0  0  0  0  0  0  0  0  0  0
   -5.5410   35.3170    8.5900 C   0  0  0  0  0  0  0  0  0  0  0  0
   -7.5820   37.9780    4.3390 C   0  0  0  0  0  0  0  0  0  0  0  0
   -6.4510   33.0060    8.4080 C   0  0  0  0  0  0  0  0  0  0  0  0
  1  2  1  0
  2  3  1  0
  2  4  1  0
  4  5  1  1
  3  6  2  0
  4  7  1  0
  6  7  1  0
  8  3  1  1
  4  9  1  0
  5 10  1  0
  7 11  1  1
  8 12  1  0
  8 13  1  0
  6 14  1  0
  7 15  1  0
  9 16  2  0
 12 17  1  1
 11 18  1  0
 13 19  1  0
 12 20  1  0
 19 20  1  0
 13 21  1  0
 14 21  1  0
 15 22  2  0
 16 22  1  0
 13 23  1  6
M  END
