x1092_0_B_α-x0469_0_B_α
     RDKit          3D

 23 26  0  0  0  0  0  0  0  0999 V2000
  -10.0550   35.0320    6.3970 C   0  0  0  0  0  0  0  0  0  0  0  0
   -9.3850   36.1040    7.1190 N   0  0  0  0  0  0  0  0  0  0  0  0
   -8.2660   35.9060    7.9070 C   0  0  0  0  0  0  0  0  0  0  0  0
   -9.2940   37.4720    6.5570 C   0  0  1  0  0  0  0  0  0  0  0  0
  -10.2380   38.4320    6.9860 O   0  0  0  0  0  0  0  0  0  0  0  0
   -7.3000   36.8140    7.7180 C   0  0  0  0  0  0  0  0  0  0  0  0
   -7.7230   37.8960    6.7470 C   0  0  2  0  0  0  0  0  0  0  0  0
   -8.0920   34.8410    8.9160 C   0  0  2  0  0  0  0  0  0  0  0  0
   -9.7760   37.5190    5.1810 C   0  0  0  0  0  0  0  0  0  0  0  0
  -10.7000   39.2890    5.9310 C   0  0  0  0  0  0  0  0  0  0  0  0
   -7.4210   39.3320    7.2780 C   0  0  0  0  0  0  0  0  0  0  0  0
   -8.6740   34.9860   10.3200 C   0  0  1  0  0  0  0  0  0  0  0  0
   -6.6240   34.3460    9.1220 C   0  0  2  0  0  0  0  0  0  0  0  0
   -6.0090   36.7680    8.4360 C   0  0  0  0  0  0  0  0  0  0  0  0
   -6.9790   38.0010    5.4800 C   0  0  0  0  0  0  0  0  0  0  0  0
   -9.0100   37.7740    4.1840 C   0  0  0  0  0  0  0  0  0  0  0  0
   -9.3910   33.8400   10.7630 O   0  0  0  0  0  0  0  0  0  0  0  0
   -6.2800   40.0560    6.6400 N   0  0  0  0  0  0  0  0  0  0  0  0
   -6.5040   34.1460   10.5890 N   0  0  0  0  0  0  0  0  0  0  0  0
   -7.4000   35.1720   11.1450 C   0  0  0  0  0  0  0  0  0  0  0  0
   -5.5400   35.3200    8.5930 C   0  0  0  0  0  0  0  0  0  0  0  0
   -7.5820   37.9770    4.3420 C   0  0  0  0  0  0  0  0  0  0  0  0
   -6.4490   33.0050    8.4100 C   0  0  0  0  0  0  0  0  0  0  0  0
  1  2  1  0
  2  3  1  0
  2  4  1  0
  4  5  1  1
  3  6  2  0
  4  7  1  0
  6  7  1  0
  8  3  1  1
  4  9  1  0
  5 10  1  0
  7 11  1  1
  8 12  1  0
  8 13  1  0
  6 14  1  0
  7 15  1  0
  9 16  2  0
 12 17  1  1
 11 18  1  0
 13 19  1  0
 12 20  1  0
 19 20  1  0
 13 21  1  0
 14 21  1  0
 15 22  2  0
 16 22  1  0
 13 23  1  6
M  END
