x1092_0_B-x0600_0_A
     RDKit          3D

 34 38  0  0  0  0  0  0  0  0999 V2000
  -10.6120   34.8570    6.9210 C   0  0  0  0  0  0  0  0  0  0  0  0
   -9.3750   35.6100    6.9080 N   0  0  0  0  0  0  0  0  0  0  0  0
   -8.3290   35.4000    7.7410 C   0  0  0  0  0  0  0  0  0  0  0  0
   -9.0770   36.6520    6.0680 C   0  0  0  0  0  0  0  0  0  0  0  0
   -7.3150   36.2890    7.4060 C   0  0  0  0  0  0  0  0  0  0  0  0
   -7.7840   37.0900    6.3530 C   0  0  0  0  0  0  0  0  0  0  0  0
   -8.3110   34.3850    8.8440 C   0  0  0  0  0  0  0  0  0  0  0  0
   -9.8400   37.2510    5.0860 C   0  0  0  0  0  0  0  0  0  0  0  0
   -7.0340   34.5780    9.6670 C   0  0  2  0  0  0  0  0  0  0  0  0
   -6.0280   36.2900    8.1460 C   0  0  0  0  0  0  0  0  0  0  0  0
   -7.2440   38.1460    5.6230 C   0  0  0  0  0  0  0  0  0  0  0  0
   -9.2970   38.3010    4.3670 C   0  0  0  0  0  0  0  0  0  0  0  0
   -7.1960   34.3880   11.1660 C   0  0  2  0  0  0  0  0  0  0  0  0
   -6.5750   36.0380    9.5430 C   0  0  2  0  0  0  0  0  0  0  0  0
   -8.0100   38.7410    4.6370 C   0  0  0  0  0  0  0  0  0  0  0  0
   -8.5840   34.2020   11.4590 O   0  0  0  0  0  0  0  0  0  0  0  0
   -5.7750   36.2720   10.7270 N   0  0  0  0  0  0  0  0  0  0  0  0
   -6.7060   35.7350   11.7340 C   0  0  0  0  0  0  0  0  0  0  0  0
   -8.9020   32.8610   11.8280 C   0  0  0  0  0  0  0  0  0  0  0  0
   -9.6110   32.0990   10.7050 C   0  0  0  0  0  0  0  0  0  0  0  0
   -9.1320   30.7220   10.5780 N   0  0  0  0  0  0  0  0  0  0  0  0
  -10.0340   29.8210   10.5620 C   0  0  0  0  0  0  0  0  0  0  0  0
  -11.3420   30.1300   10.6690 O   0  0  0  0  0  0  0  0  0  0  0  0
   -9.7750   28.3350   10.4180 C   0  0  0  0  0  0  0  0  0  0  0  0
  -10.8310   27.4880   10.8080 O   0  0  0  0  0  0  0  0  0  0  0  0
  -10.9070   27.2520   12.1390 C   0  0  0  0  0  0  0  0  0  0  0  0
  -11.9410   26.4100   12.5420 C   0  0  0  0  0  0  0  0  0  0  0  0
  -10.0410   27.7820   13.0860 C   0  0  0  0  0  0  0  0  0  0  0  0
  -12.1080   26.0960   13.8950 C   0  0  0  0  0  0  0  0  0  0  0  0
  -10.2000   27.4710   14.4350 C   0  0  0  0  0  0  0  0  0  0  0  0
  -11.2320   26.6260   14.8490 C   0  0  0  0  0  0  0  0  0  0  0  0
  -11.3480   26.3290   16.3050 C   0  0  0  0  0  0  0  0  0  0  0  0
  -12.5750   25.6180   16.8080 C   0  0  0  0  0  0  0  0  0  0  0  0
  -10.4470   26.6650   17.0710 O   0  0  0  0  0  0  0  0  0  0  0  0
  1  2  1  0
  2  3  1  0
  2  4  1  0
  3  5  2  0
  4  6  2  0
  5  6  1  0
  3  7  1  0
  4  8  1  0
  9  7  1  6
  5 10  1  0
  6 11  1  0
  8 12  2  0
  9 13  1  0
  9 14  1  0
 14 10  1  6
 11 15  2  0
 12 15  1  0
 13 16  1  6
 14 17  1  0
 13 18  1  0
 17 18  1  0
 16 19  1  0
 19 20  1  0
 20 21  1  0
 21 22  2  3
 22 23  1  0
 22 24  1  0
 24 25  1  0
 25 26  1  0
 26 27  2  0
 26 28  1  0
 27 29  1  0
 28 30  2  0
 29 31  2  0
 30 31  1  0
 31 32  1  0
 32 33  1  0
 32 34  2  0
M  END
