
     RDKit          3D

 36 39  0  0  0  0  0  0  0  0999 V2000
   -1.7060   18.0300   -6.4800 P   0  0  0  0  0  0  0  0  0  0  0  0
   -0.3150   19.7450   -8.2640 P   0  0  0  0  0  0  0  0  0  0  0  0
    0.3100   17.2420   -5.0260 C   0  0  0  0  0  0  0  0  0  0  0  0
   -0.4010   17.1060   -6.2570 O   0  0  0  0  0  0  0  0  0  0  0  0
    0.6200   15.9150   -4.3880 C   0  0  1  0  0  0  0  0  0  0  0  0
   -0.0900   15.9400   -3.1570 O   0  0  0  0  0  0  0  0  0  0  0  0
    0.1740   14.6140   -5.0870 C   0  0  1  0  0  0  0  0  0  0  0  0
    1.1740   13.5850   -4.9070 O   0  0  0  0  0  0  0  0  0  0  0  0
   -1.0340   14.1870   -4.3060 C   0  0  1  0  0  0  0  0  0  0  0  0
   -1.1160   12.7840   -4.2330 O   0  0  0  0  0  0  0  0  0  0  0  0
   -0.6100   14.6290   -2.9490 C   0  0  2  0  0  0  0  0  0  0  0  0
   -5.1020   21.5860   -7.4380 C   0  0  1  0  0  0  0  0  0  0  0  0
   -1.3900   15.4990    1.8720 N   0  0  0  0  0  0  0  0  0  0  0  0
   -2.6460   17.4290   -7.5090 O   0  0  0  0  0  0  0  0  0  0  0  0
    0.8990   20.5440   -7.8980 O   0  0  0  0  0  0  0  0  0  0  0  0
   -4.9890   20.7190   -6.2830 O   0  0  0  0  0  0  0  0  0  0  0  0
   -0.2470   15.3180    1.1920 C   0  0  0  0  0  0  0  0  0  0  0  0
   -4.3870   22.9370   -7.3510 C   0  0  2  0  0  0  0  0  0  0  0  0
   -2.3230   18.3040   -5.1220 O   0  0  0  0  0  0  0  0  0  0  0  0
    0.0260   18.4920   -9.0360 O   0  0  0  0  0  0  0  0  0  0  0  0
   -5.2610   24.0380   -7.0630 O   0  0  0  0  0  0  0  0  0  0  0  0
   -3.7940   23.1450   -8.7320 C   0  0  2  0  0  0  0  0  0  0  0  0
   -0.2510   15.0780   -0.1150 N   0  0  0  0  0  0  0  0  0  0  0  0
   -1.1590   19.4700   -6.9510 O   0  0  0  0  0  0  0  0  0  0  0  0
   -4.7750   23.5640   -9.6740 O   0  0  0  0  0  0  0  0  0  0  0  0
   -1.4090   15.0270   -0.7700 C   0  0  0  0  0  0  0  0  0  0  0  0
   -3.4040   21.7620   -9.0900 C   0  0  2  0  0  0  0  0  0  0  0  0
   -4.4220   20.9200   -8.5150 O   0  0  0  0  0  0  0  0  0  0  0  0
   -2.6800   15.2050   -0.0920 C   0  0  0  0  0  0  0  0  0  0  0  0
   -2.0870   21.5350   -8.4170 C   0  0  0  0  0  0  0  0  0  0  0  0
   -1.3130   20.6370   -9.1650 O   0  0  0  0  0  0  0  0  0  0  0  0
   -2.6030   15.4650    1.3190 C   0  0  0  0  0  0  0  0  0  0  0  0
   -3.6730   15.6560    2.0840 N   0  0  0  0  0  0  0  0  0  0  0  0
   -3.6450   15.0870   -1.0200 N   0  0  0  0  0  0  0  0  0  0  0  0
   -3.0150   14.8450   -2.2130 C   0  0  0  0  0  0  0  0  0  0  0  0
   -1.6770   14.8070   -2.0200 N   0  0  0  0  0  0  0  0  0  0  0  0
  1  4  1  0
  1 14  2  0
  1 19  1  0
  1 24  1  0
  4  3  1  0
 24  2  1  0
  2 15  2  0
  2 20  1  0
  2 31  1  0
 31 30  1  0
  5  3  1  6
  5  6  1  0
  5  7  1  0
  6 11  1  0
  7  8  1  1
  7  9  1  0
 11  9  1  0
 11 36  1  1
  9 10  1  1
 36 26  1  0
 36 35  1  0
 12 16  1  1
 12 18  1  0
 12 28  1  0
 18 21  1  6
 18 22  1  0
 28 27  1  0
 13 17  2  0
 13 32  1  0
 17 23  1  0
 32 29  2  0
 32 33  1  0
 23 26  2  0
 22 25  1  6
 22 27  1  0
 27 30  1  1
 26 29  1  0
 29 34  1  0
 34 35  2  0
M  END
