
     RDKit          3D

 15 16  0  0  0  0  0  0  0  0999 V2000
   -8.0970   29.8750  -14.6600 C   0  0  0  0  0  0  0  0  0  0  0  0
   -8.1160   26.4610  -14.9230 O   0  0  0  0  0  0  0  0  0  0  0  0
   -6.8130   29.4930  -13.9680 C   0  0  0  0  0  0  0  0  0  0  0  0
   -6.4570   25.5960  -13.7060 O   0  0  0  0  0  0  0  0  0  0  0  0
   -5.5980   29.9690  -14.4690 C   0  0  0  0  0  0  0  0  0  0  0  0
   -7.7560   26.7640  -10.3330 O   0  0  0  0  0  0  0  0  0  0  0  0
   -4.4040   29.7240  -13.8150 C   0  0  0  0  0  0  0  0  0  0  0  0
   -4.3980   28.9930  -12.6540 C   0  0  0  0  0  0  0  0  0  0  0  0
   -5.5850   28.4910  -12.1450 C   0  0  0  0  0  0  0  0  0  0  0  0
   -6.7980   28.7210  -12.7920 C   0  0  0  0  0  0  0  0  0  0  0  0
   -8.0780   28.1130  -12.2460 C   0  0  1  0  0  0  0  0  0  0  0  0
   -8.3350   26.6300  -12.6150 C   0  0  1  0  0  0  0  0  0  0  0  0
   -7.5310   26.1660  -13.8020 C   0  0  0  0  0  0  0  0  0  0  0  0
   -7.9910   25.8180  -11.3660 C   0  0  0  0  0  0  0  0  0  0  0  0
   -8.1510   28.0810  -10.7200 C   0  0  0  0  0  0  0  0  0  0  0  0
  1  3  1  0
  3  5  2  0
  3 10  1  0
  2 13  1  0
 13  4  2  0
 12 13  1  6
  5  7  1  0
 10  9  2  0
 11 10  1  1
  7  8  2  0
  6 14  1  0
  6 15  1  0
 14 12  1  0
 15 11  1  0
  8  9  1  0
 11 12  1  0
M  END
