mArh-x0967_0_A-mArh-5fud_B_0_B
     RDKit          3D

 27 29  0  0  0  0  0  0  0  0999 V2000
   -0.7640   19.0350   -6.4260 N   0  0  0  0  0  0  0  0  0  0  0  0
   -0.3780   19.7640   -7.9100 S   0  0  1  0  0  0  0  0  0  0  0  0
    0.6580   20.7460   -7.6910 O   0  0  0  0  0  0  0  0  0  0  0  0
    0.3000   18.2380   -5.7660 C   0  0  0  0  0  0  0  0  0  0  0  0
   -0.1740   18.6710   -8.8610 O   0  0  0  0  0  0  0  0  0  0  0  0
   -1.9070   20.6300   -8.2690 C   0  0  0  0  0  0  0  0  0  0  0  0
   -0.1370   17.7160   -4.3830 C   0  0  0  0  0  0  0  0  0  0  0  0
   -2.1190   22.0400   -7.7750 C   0  0  0  0  0  0  0  0  0  0  0  0
   -1.3850   16.8060   -4.3660 C   0  0  0  0  0  0  0  0  0  0  0  0
   -1.5720   15.9010   -3.1190 C   0  0  0  0  0  0  0  0  0  0  0  0
   -3.5800   22.3650   -7.8390 N   0  0  0  0  0  0  0  0  0  0  0  0
   -2.9940   15.3170   -3.0520 C   0  0  0  0  0  0  0  0  0  0  0  0
   -4.0800   22.6060   -9.0630 C   0  0  0  0  0  0  0  0  0  0  0  0
   -3.8930   23.5600   -7.0400 C   0  0  0  0  0  0  0  0  0  0  0  0
   -3.6540   15.2220   -1.7180 C   0  0  0  0  0  0  0  0  0  0  0  0
   -5.6190   22.7770   -9.0930 C   0  0  0  0  0  0  0  0  0  0  0  0
   -5.3940   23.7890   -6.9390 C   0  0  0  0  0  0  0  0  0  0  0  0
   -4.9890   14.9620   -1.7620 N   0  0  0  0  0  0  0  0  0  0  0  0
   -2.9440   15.3870   -0.5210 C   0  0  0  0  0  0  0  0  0  0  0  0
   -6.0530   23.8320   -8.2260 O   0  0  0  0  0  0  0  0  0  0  0  0
   -5.6930   14.8470   -0.6410 C   0  0  0  0  0  0  0  0  0  0  0  0
   -3.6320   15.2770    0.6910 C   0  0  0  0  0  0  0  0  0  0  0  0
   -7.0080   14.5890   -0.7260 N   0  0  0  0  0  0  0  0  0  0  0  0
   -5.0050   15.0070    0.6750 C   0  0  0  0  0  0  0  0  0  0  0  0
   -5.7730   14.8770    1.8340 C   0  0  0  0  0  0  0  0  0  0  0  0
   -7.7490   14.4640    0.4050 C   0  0  0  0  0  0  0  0  0  0  0  0
   -7.2500   14.5830    1.6920 C   0  0  0  0  0  0  0  0  0  0  0  0
  1  2  2  0
  2  3  2  0
  1  4  1  0
  2  5  1  6
  2  6  1  0
  4  7  1  0
  6  8  1  0
  7  9  1  0
  9 10  1  0
  8 11  1  0
 10 12  1  0
 11 13  1  0
 11 14  1  0
 12 15  1  0
 13 16  1  0
 14 17  1  0
 15 18  2  0
 15 19  1  0
 16 20  1  0
 17 20  1  0
 18 21  1  0
 19 22  2  0
 21 23  2  0
 21 24  1  0
 22 24  1  0
 24 25  2  0
 23 26  1  0
 25 27  1  0
 26 27  2  0
M  CHG  1   5  -1
M  END
