mArh-5fud_B_0_B-mArh-x0685_0_A
     RDKit          3D

 28 29  0  0  0  0  0  0  0  0999 V2000
   -0.8780   20.1620   -6.3080 O   0  0  0  0  0  0  0  0  0  0  0  0
   -0.7130   20.2030   -7.7270 S   0  0  0  0  0  0  0  0  0  0  0  0
    0.4720   20.7010   -8.3510 O   0  0  0  0  0  0  0  0  0  0  0  0
   -1.0010   18.6820   -8.1280 O   0  0  0  0  0  0  0  0  0  0  0  0
   -2.1580   20.9660   -8.3540 C   0  0  0  0  0  0  0  0  0  0  0  0
   -2.3230   22.3630   -7.9060 C   0  0  0  0  0  0  0  0  0  0  0  0
   -1.3800   18.1150   -6.8660 C   0  0  0  0  0  0  0  0  0  0  0  0
   -0.1280   17.8850   -6.0260 C   0  0  0  0  0  0  0  0  0  0  0  0
   -3.7370   22.6500   -7.8770 N   0  0  0  0  0  0  0  0  0  0  0  0
   -0.4550   17.4230   -4.6140 C   0  0  0  0  0  0  0  0  0  0  0  0
   -4.3480   22.7930   -9.2100 C   0  0  0  0  0  0  0  0  0  0  0  0
   -4.0100   23.8090   -7.0840 C   0  0  0  0  0  0  0  0  0  0  0  0
   -0.7060   15.9110   -4.5030 C   0  0  0  0  0  0  0  0  0  0  0  0
   -5.8690   22.9620   -9.1460 C   0  0  0  0  0  0  0  0  0  0  0  0
   -5.5030   23.8760   -6.9380 C   0  0  0  0  0  0  0  0  0  0  0  0
   -2.1800   15.5010   -4.6670 C   0  0  0  0  0  0  0  0  0  0  0  0
   -6.2590   23.9230   -8.1610 O   0  0  0  0  0  0  0  0  0  0  0  0
   -2.8760   15.2780   -3.3900 C   0  0  0  0  0  0  0  0  0  0  0  0
   -3.4420   15.1600   -2.3370 C   0  0  0  0  0  0  0  0  0  0  0  0
   -4.1180   15.0990   -1.0850 C   0  0  0  0  0  0  0  0  0  0  0  0
   -3.4220   15.1570    0.1160 C   0  0  0  0  0  0  0  0  0  0  0  0
   -5.4960   14.9860   -1.0290 C   0  0  0  0  0  0  0  0  0  0  0  0
   -4.1340   15.1090    1.3090 C   0  0  0  0  0  0  0  0  0  0  0  0
   -6.2080   14.9320    0.1180 N   0  0  0  0  0  0  0  0  0  0  0  0
   -5.5230   14.9990    1.2690 C   0  0  0  0  0  0  0  0  0  0  0  0
   -6.2870   14.9570    2.4360 N   0  0  0  0  0  0  0  0  0  0  0  0
   -7.7290   14.8030    2.3930 C   0  0  0  0  0  0  0  0  0  0  0  0
   -8.1120   13.4880    3.0530 C   0  0  0  0  0  0  0  0  0  0  0  0
  1  2  2  0
  2  3  2  0
  2  4  1  0
  2  5  1  0
  5  6  1  0
  4  7  1  0
  7  8  1  0
  6  9  1  0
  8 10  1  0
  9 11  1  0
  9 12  1  0
 10 13  1  0
 11 14  1  0
 12 15  1  0
 13 16  1  0
 14 17  1  0
 15 17  1  0
 16 18  1  0
 18 19  3  0
 19 20  1  0
 20 21  2  0
 20 22  1  0
 21 23  1  0
 22 24  2  0
 23 25  2  0
 24 25  1  0
 25 26  1  0
 26 27  1  0
 27 28  1  0
M  END
