mArh-x0685_1_A-mArh-x0592_0_A
     RDKit          3D

 26 27  0  0  0  0  0  0  0  0999 V2000
   -0.9190   10.8170   -4.9040 N   0  0  0  0  0  0  0  0  0  0  0  0
   -0.9740   12.2840   -4.8660 C   0  0  0  0  0  0  0  0  0  0  0  0
   -0.3580   13.0090   -3.6760 C   0  0  0  0  0  0  0  0  0  0  0  0
   -0.5420   10.3700   -6.2540 C   0  0  0  0  0  0  0  0  0  0  0  0
   -0.5480    8.8490   -6.3930 C   0  0  0  0  0  0  0  0  0  0  0  0
   -1.4850   10.9490   -7.3190 C   0  0  0  0  0  0  0  0  0  0  0  0
    0.7460   12.0370   -2.6460 S   0  0  0  0  0  0  0  0  0  0  0  0
   -0.0270    8.4480   -7.7720 C   0  0  0  0  0  0  0  0  0  0  0  0
   -1.0870   10.5650   -8.7460 C   0  0  0  0  0  0  0  0  0  0  0  0
    2.1120   12.3150   -3.0400 O   0  0  0  0  0  0  0  0  0  0  0  0
    0.2580   10.6700   -2.4860 O   0  0  0  0  0  0  0  0  0  0  0  0
    0.4610   12.8070   -1.2360 O   0  0  0  0  0  0  0  0  0  0  0  0
   -0.8430    9.0640   -8.9180 C   0  0  0  0  0  0  0  0  0  0  0  0
    0.2550   14.2180   -1.2080 C   0  0  0  0  0  0  0  0  0  0  0  0
   -0.7370   14.5680   -0.0870 C   0  0  0  0  0  0  0  0  0  0  0  0
   -2.1180   14.6170   -0.5930 N   0  0  0  0  0  0  0  0  0  0  0  0
   -3.1370   14.7400    0.1800 C   0  0  0  0  0  0  0  0  0  0  0  0
   -2.8920   14.8360    1.5240 N   0  0  0  0  0  0  0  0  0  0  0  0
   -4.5650   14.7970   -0.0910 C   0  0  0  0  0  0  0  0  0  0  0  0
   -5.2710   15.1040   -1.2920 C   0  0  0  0  0  0  0  0  0  0  0  0
   -5.5800   14.5570    0.7980 C   0  0  0  0  0  0  0  0  0  0  0  0
   -6.6090   15.0530   -1.1460 N   0  0  0  0  0  0  0  0  0  0  0  0
   -6.7590   14.7150    0.1500 N   0  0  0  0  0  0  0  0  0  0  0  0
   -8.0720   14.5510    0.7520 C   0  0  0  0  0  0  0  0  0  0  0  0
   -7.9620   14.1240    2.2170 C   0  0  0  0  0  0  0  0  0  0  0  0
   -7.1860   15.0480    2.9850 O   0  0  0  0  0  0  0  0  0  0  0  0
  1  2  1  0
  2  3  1  0
  1  4  1  0
  4  5  1  0
  4  6  1  0
  3  7  1  0
  5  8  1  0
  6  9  1  0
  7 10  2  0
  7 11  2  0
  7 12  1  0
  8 13  1  0
  9 13  1  0
 12 14  1  0
 14 15  1  0
 15 16  1  0
 16 17  2  3
 17 18  1  0
 17 19  1  0
 19 20  1  0
 19 21  2  0
 20 22  2  0
 21 23  1  0
 22 23  1  0
 23 24  1  0
 24 25  1  0
 25 26  1  0
M  END
