
     RDKit          3D

 13 14  0  0  0  0  0  0  0  0999 V2000
    5.1030    7.8480  -11.0100 N   0  0  0  0  0  0  0  0  0  0  0  0
    5.9020    6.4320   -9.2140 C   0  0  0  0  0  0  0  0  0  0  0  0
    1.7010    8.4220  -10.7970 O   0  0  0  0  0  0  0  0  0  0  0  0
    4.8320    7.1230   -9.9940 C   0  0  0  0  0  0  0  0  0  0  0  0
    3.9200    8.4240  -11.4420 N   0  0  0  0  0  0  0  0  0  0  0  0
    2.8570    8.0400  -10.6670 C   0  0  0  0  0  0  0  0  0  0  0  0
    3.3890    7.0860   -9.6290 C   0  0  0  0  0  0  0  0  0  0  0  0
    3.9480    9.3250  -12.5540 C   0  0  0  0  0  0  0  0  0  0  0  0
    3.0420   10.3850  -12.6210 C   0  0  0  0  0  0  0  0  0  0  0  0
    3.1270   11.2940  -13.6640 C   0  0  0  0  0  0  0  0  0  0  0  0
    4.0900   11.1480  -14.6430 C   0  0  0  0  0  0  0  0  0  0  0  0
    4.9790   10.0920  -14.5830 C   0  0  0  0  0  0  0  0  0  0  0  0
    4.9190    9.1800  -13.5410 C   0  0  0  0  0  0  0  0  0  0  0  0
  1  4  2  0
  1  5  1  0
  4  2  1  0
  4  7  1  0
  5  6  1  0
  5  8  1  0
  3  6  2  0
  6  7  1  0
  8  9  2  0
  8 13  1  0
  9 10  1  0
 13 12  2  0
 10 11  2  0
 11 12  1  0
M  END
