
     RDKit          3D

  7  7  0  0  0  0  0  0  0  0999 V2000
   -3.3150   15.2830   -1.4000 N   0  0  0  0  0  0  0  0  0  0  0  0
   -5.5330   15.2040   -0.4150 C   0  0  0  0  0  0  0  0  0  0  0  0
   -6.7390   14.9750   -0.5930 O   0  0  0  0  0  0  0  0  0  0  0  0
   -4.9070   15.4010    0.8580 C   0  0  0  0  0  0  0  0  0  0  0  0
   -4.6740   15.1750   -1.4640 N   0  0  0  0  0  0  0  0  0  0  0  0
   -3.5640   15.5160    0.9630 C   0  0  0  0  0  0  0  0  0  0  0  0
   -2.7990   15.4350   -0.2120 C   0  0  0  0  0  0  0  0  0  0  0  0
  1  5  1  0
  1  7  2  0
  5  2  1  0
  7  6  1  0
  2  3  2  0
  2  4  1  0
  4  6  2  0
M  END
