mArh-5cb5_Q_0_Q-mArh-6woj_D_0_D
     RDKit          3D

 37 40  0  0  0  0  0  0  0  0999 V2000
   -1.5530   18.5790   -5.9400 P   0  0  1  0  0  0  0  0  0  0  0  0
   -0.0360   18.0850   -5.5190 N   0  0  0  0  0  0  0  0  0  0  0  0
    0.3300   16.8300   -5.8650 C   0  0  0  0  0  0  0  0  0  0  0  0
   -2.5040   17.6450   -6.6480 O   0  0  0  0  0  0  0  0  0  0  0  0
   -2.2580   19.2940   -4.6990 O   0  0  0  0  0  0  0  0  0  0  0  0
   -1.3260   19.8530   -6.7770 O   0  0  0  0  0  0  0  0  0  0  0  0
   -0.4630   20.1390   -8.0290 P   0  0  1  0  0  0  0  0  0  0  0  0
    0.3310   18.1840   -3.9430 P   0  0  0  0  0  0  0  0  0  0  0  0
    0.6640   21.0970   -7.8570 O   0  0  0  0  0  0  0  0  0  0  0  0
   -0.0920   18.7460   -8.7410 O   0  0  0  0  0  0  0  0  0  0  0  0
   -1.6290   20.5700   -9.0070 O   0  0  0  0  0  0  0  0  0  0  0  0
   -0.3110   15.6490   -5.1200 C   0  0  2  0  0  0  0  0  0  0  0  0
   -2.2050   21.8620   -8.9270 C   0  0  0  0  0  0  0  0  0  0  0  0
   -0.1280   15.8890   -3.7100 O   0  0  0  0  0  0  0  0  0  0  0  0
    0.2490   14.2500   -5.3390 C   0  0  1  0  0  0  0  0  0  0  0  0
    1.6630   14.1490   -5.1480 O   0  0  0  0  0  0  0  0  0  0  0  0
   -0.3770   13.5450   -4.1580 C   0  0  1  0  0  0  0  0  0  0  0  0
   -0.3320   14.6190   -3.0600 C   0  0  2  0  0  0  0  0  0  0  0  0
   -3.2430   22.0740   -7.8990 C   0  0  1  0  0  0  0  0  0  0  0  0
   -1.6300   12.9640   -4.4480 O   0  0  0  0  0  0  0  0  0  0  0  0
   -3.7870   23.4880   -7.9440 C   0  0  1  0  0  0  0  0  0  0  0  0
   -4.4200   21.3220   -8.1520 O   0  0  0  0  0  0  0  0  0  0  0  0
   -1.4140   14.7580   -2.1030 N   0  0  0  0  0  0  0  0  0  0  0  0
   -4.4060   23.8960   -9.1670 O   0  0  0  0  0  0  0  0  0  0  0  0
   -5.3970   21.9430   -7.3080 C   0  0  2  0  0  0  0  0  0  0  0  0
   -4.7940   23.2690   -6.8580 C   0  0  2  0  0  0  0  0  0  0  0  0
   -1.2810   14.7470   -0.7590 C   0  0  0  0  0  0  0  0  0  0  0  0
   -2.7570   14.9430   -2.3860 C   0  0  0  0  0  0  0  0  0  0  0  0
   -5.6250   21.1760   -6.1390 O   0  0  0  0  0  0  0  0  0  0  0  0
   -5.7830   24.2740   -6.7730 O   0  0  0  0  0  0  0  0  0  0  0  0
   -2.5580   14.9400   -0.2650 C   0  0  0  0  0  0  0  0  0  0  0  0
   -0.1480   14.5920   -0.0680 N   0  0  0  0  0  0  0  0  0  0  0  0
   -3.4800   15.0590   -1.2870 N   0  0  0  0  0  0  0  0  0  0  0  0
   -2.6800   14.9840    1.1230 C   0  0  0  0  0  0  0  0  0  0  0  0
   -0.3960   14.6350    1.2470 C   0  0  0  0  0  0  0  0  0  0  0  0
   -3.8930   15.2030    1.7460 N   0  0  0  0  0  0  0  0  0  0  0  0
   -1.5720   14.8120    1.8720 N   0  0  0  0  0  0  0  0  0  0  0  0
  1  2  1  0
  2  3  1  0
  1  4  2  0
  1  5  1  1
  1  6  1  0
  6  7  1  0
  2  8  1  0
  7  9  2  0
  7 10  1  6
  7 11  1  0
 12  3  1  6
 11 13  1  0
 12 14  1  0
 12 15  1  0
 15 16  1  1
 15 17  1  0
 14 18  1  0
 17 18  1  0
 19 13  1  6
 17 20  1  6
 19 21  1  0
 19 22  1  0
 18 23  1  6
 21 24  1  6
 22 25  1  0
 21 26  1  0
 25 26  1  0
 23 27  1  0
 23 28  1  0
 25 29  1  1
 26 30  1  6
 27 31  2  0
 27 32  1  0
 28 33  2  0
 31 33  1  0
 31 34  1  0
 32 35  2  0
 34 36  1  0
 34 37  2  0
 35 37  1  0
M  END
