mArh-x0905_1_B-mArh-x0814_0_B
     RDKit          3D

 24 25  0  0  0  0  0  0  0  0999 V2000
   14.1210   19.3990   11.8420 O   0  0  0  0  0  0  0  0  0  0  0  0
   13.1610   20.1290   12.5650 C   0  0  1  0  0  0  0  0  0  0  0  0
   12.9300   19.4940   13.8790 N   0  0  0  0  0  0  0  0  0  0  0  0
   13.6770   21.5760   12.6490 C   0  0  0  0  0  0  0  0  0  0  0  0
   13.1500   18.0110   14.0240 C   0  0  0  0  0  0  0  0  0  0  0  0
   12.0590   20.2140   14.6470 C   0  0  0  0  0  0  0  0  0  0  0  0
   13.1040   22.2980   13.6550 C   0  0  0  0  0  0  0  0  0  0  0  0
   14.5270   17.4390   13.6110 C   0  0  0  0  0  0  0  0  0  0  0  0
   12.1180   21.7370   14.5510 C   0  0  0  0  0  0  0  0  0  0  0  0
   14.6560   15.9180   13.3700 C   0  0  0  0  0  0  0  0  0  0  0  0
   15.7960   15.6550   12.4760 N   0  0  0  0  0  0  0  0  0  0  0  0
   16.1940   14.5250   11.9340 C   0  0  0  0  0  0  0  0  0  0  0  0
   17.3120   14.5200   11.1460 N   0  0  0  0  0  0  0  0  0  0  0  0
   15.4650   13.1460   12.1580 C   0  0  2  0  0  0  0  0  0  0  0  0
   15.3210   12.2740   11.0880 C   0  0  0  0  0  0  0  0  0  0  0  0
   14.1880   13.2290   13.0190 C   0  0  2  0  0  0  0  0  0  0  0  0
   14.6230   13.4080   14.4710 C   0  0  0  0  0  0  0  0  0  0  0  0
   13.2600   12.0370   12.8960 N   0  0  0  0  0  0  0  0  0  0  0  0
   14.0310   11.9590   10.6640 C   0  0  0  0  0  0  0  0  0  0  0  0
   11.6740   12.3930   13.2380 S   0  0  0  0  0  0  0  0  0  0  0  0
   13.3890   11.1490   11.7360 C   0  0  0  0  0  0  0  0  0  0  0  0
   11.5760   13.8070   12.9510 O   0  0  0  0  0  0  0  0  0  0  0  0
   10.7800   11.4220   12.6110 O   0  0  0  0  0  0  0  0  0  0  0  0
   11.6920   12.0910   14.9960 C   0  0  0  0  0  0  0  0  0  0  0  0
  2  1  1  1
  2  3  1  0
  2  4  1  0
  3  5  1  0
  3  6  1  0
  4  7  2  0
  5  8  1  0
  6  9  2  0
  7  9  1  0
  8 10  1  0
 10 11  1  0
 11 12  2  3
 12 13  1  0
 14 12  1  6
 14 15  1  0
 14 16  1  0
 16 17  1  1
 16 18  1  0
 15 19  1  0
 18 20  1  0
 18 21  1  0
 19 21  1  0
 20 22  2  0
 20 23  2  0
 20 24  1  0
M  END
