mArh-4iqy_A_0_A-mArh-x0852_0_B
     RDKit          3D

 49 53  0  0  0  0  0  0  0  0999 V2000
   -1.4400   18.0640   -5.9440 P   0  0  2  0  0  0  0  0  0  0  0  0
   -0.0620   17.3280   -6.2870 O   0  0  0  0  0  0  0  0  0  0  0  0
    0.7190   16.7390   -5.2550 C   0  0  0  0  0  0  0  0  0  0  0  0
   -1.8900   18.0690   -4.5450 O   0  0  0  0  0  0  0  0  0  0  0  0
   -2.5280   17.3630   -6.8760 O   0  0  0  0  0  0  0  0  0  0  0  0
   -1.2840   19.4930   -6.5550 O   0  0  0  0  0  0  0  0  0  0  0  0
   -0.4170   19.8480   -7.8350 P   0  0  1  0  0  0  0  0  0  0  0  0
    0.8500   20.5740   -7.5720 O   0  0  0  0  0  0  0  0  0  0  0  0
   -0.2280   18.5170   -8.7000 O   0  0  0  0  0  0  0  0  0  0  0  0
   -1.4780   20.6400   -8.7000 O   0  0  0  0  0  0  0  0  0  0  0  0
   -0.1050   15.6130   -4.6540 C   0  0  2  0  0  0  0  0  0  0  0  0
   -2.1660   21.6560   -7.9960 C   0  0  0  0  0  0  0  0  0  0  0  0
   -0.2750   15.6900   -3.2470 O   0  0  0  0  0  0  0  0  0  0  0  0
    0.2650   14.1440   -4.8510 C   0  0  1  0  0  0  0  0  0  0  0  0
    1.5670   13.8280   -4.3140 O   0  0  0  0  0  0  0  0  0  0  0  0
   -0.7870   13.4840   -3.9360 C   0  0  2  0  0  0  0  0  0  0  0  0
   -1.3330   14.7280   -3.2100 C   0  0  1  0  0  0  0  0  0  0  0  0
   -3.5900   21.8330   -8.5090 C   0  0  2  0  0  0  0  0  0  0  0  0
   -0.1890   12.5020   -3.0970 O   0  0  0  0  0  0  0  0  0  0  0  0
   -4.1210   23.2560   -8.3240 C   0  0  1  0  0  0  0  0  0  0  0  0
   -4.4510   20.9080   -7.8140 O   0  0  0  0  0  0  0  0  0  0  0  0
   -2.1140   14.8180   -1.9910 N   0  0  0  0  0  0  0  0  0  0  0  0
   -4.4330   23.9540   -9.5200 O   0  0  0  0  0  0  0  0  0  0  0  0
   -5.5720   21.6040   -7.2720 C   0  0  1  0  0  0  0  0  0  0  0  0
   -5.4210   23.1050   -7.5480 C   0  0  1  0  0  0  0  0  0  0  0  0
   -1.8510   14.7630   -0.6460 C   0  0  0  0  0  0  0  0  0  0  0  0
   -3.4650   15.0280   -2.1300 C   0  0  0  0  0  0  0  0  0  0  0  0
   -6.7200   21.0830   -7.9470 O   0  0  0  0  0  0  0  0  0  0  0  0
   -5.5080   23.9570   -6.4090 O   0  0  0  0  0  0  0  0  0  0  0  0
   -3.1170   14.9580   -0.0620 C   0  0  0  0  0  0  0  0  0  0  0  0
   -0.6900   14.5810   -0.0020 N   0  0  0  0  0  0  0  0  0  0  0  0
   -4.0920   15.1180   -0.9970 N   0  0  0  0  0  0  0  0  0  0  0  0
   -3.2320   14.9700    1.3190 C   0  0  0  0  0  0  0  0  0  0  0  0
   -0.8830   14.5940    1.3250 C   0  0  0  0  0  0  0  0  0  0  0  0
   -4.4970   15.1940    1.9750 N   0  0  0  0  0  0  0  0  0  0  0  0
   -2.0550   14.7670    1.9960 N   0  0  0  0  0  0  0  0  0  0  0  0
   -5.8890   14.7070    1.5900 C   0  0  0  0  0  0  0  0  0  0  0  0
   -6.4500   13.2850    2.0460 C   0  0  0  0  0  0  0  0  0  0  0  0
   -7.2030   13.0280    3.4670 C   0  0  0  0  0  0  0  0  0  0  0  0
   -7.5080   14.1290    4.4200 O   0  0  0  0  0  0  0  0  0  0  0  0
   -8.3100   14.9920    3.8160 C   0  0  0  0  0  0  0  0  0  0  0  0
   -8.4510   14.7050    2.4890 C   0  0  0  0  0  0  0  0  0  0  0  0
   -8.9880   16.1060    4.3920 C   0  0  0  0  0  0  0  0  0  0  0  0
   -8.9830   16.5440    5.7750 C   0  0  0  0  0  0  0  0  0  0  0  0
   -9.2180   15.4460    1.6650 C   0  0  0  0  0  0  0  0  0  0  0  0
   -9.7680   16.8740    3.5240 C   0  0  0  0  0  0  0  0  0  0  0  0
   -9.1280   16.9060    6.8760 N   0  0  0  0  0  0  0  0  0  0  0  0
   -9.8750   16.5230    2.1570 C   0  0  0  0  0  0  0  0  0  0  0  0
  -10.8900   17.4370    0.8530 Br  0  0  0  0  0  0  0  0  0  0  0  0
  1  2  1  0
  2  3  1  0
  1  4  2  0
  1  5  1  6
  1  6  1  0
  6  7  1  0
  7  8  2  0
  7  9  1  6
  7 10  1  0
 11  3  1  1
 10 12  1  0
 11 13  1  0
 11 14  1  0
 14 15  1  1
 14 16  1  0
 13 17  1  0
 16 17  1  0
 18 12  1  1
 16 19  1  1
 18 20  1  0
 18 21  1  0
 17 22  1  1
 20 23  1  6
 21 24  1  0
 20 25  1  0
 24 25  1  0
 22 26  1  0
 22 27  1  0
 24 28  1  6
 25 29  1  1
 26 30  2  0
 26 31  1  0
 27 32  2  0
 30 32  1  0
 30 33  1  0
 31 34  2  0
 33 35  1  0
 33 36  2  0
 34 36  1  0
 35 37  1  0
 37 38  1  0
 38 39  1  0
 39 40  1  0
 40 41  1  0
 41 42  2  0
 41 43  1  0
 43 44  1  0
 42 45  1  0
 43 46  2  0
 44 47  3  0
 45 48  2  0
 46 48  1  0
 48 49  1  0
M  END
