mArh-3q6z_0_A-mArh-2bfq_0_A
     RDKit          3D

 42 46  0  0  0  0  0  0  0  0999 V2000
   -1.3760   18.2380   -5.7340 P   0  0  2  0  0  0  0  0  0  0  0  0
   -0.7780   16.8030   -5.4040 O   0  0  0  0  0  0  0  0  0  0  0  0
    0.4920   16.7560   -4.7720 C   0  0  0  0  0  0  0  0  0  0  0  0
   -2.0240   18.9830   -4.6380 O   0  0  0  0  0  0  0  0  0  0  0  0
   -2.3860   17.9110   -6.9390 O   0  0  0  0  0  0  0  0  0  0  0  0
   -0.1700   19.0000   -6.3940 O   0  0  0  0  0  0  0  0  0  0  0  0
   -0.1740   19.6040   -7.8330 P   0  0  2  0  0  0  0  0  0  0  0  0
    0.1750   18.6100   -8.8640 O   0  0  0  0  0  0  0  0  0  0  0  0
    0.7510   20.8970   -7.6970 O   0  0  0  0  0  0  0  0  0  0  0  0
   -1.6490   20.1730   -7.9700 O   0  0  0  0  0  0  0  0  0  0  0  0
    0.5800   15.5280   -3.8730 C   0  0  1  0  0  0  0  0  0  0  0  0
   -1.9310   21.5420   -7.7940 C   0  0  0  0  0  0  0  0  0  0  0  0
   -0.5790   15.5460   -2.9970 O   0  0  0  0  0  0  0  0  0  0  0  0
    0.5520   14.1820   -4.6160 C   0  0  1  0  0  0  0  0  0  0  0  0
    1.3950   13.2040   -3.9780 O   0  0  0  0  0  0  0  0  0  0  0  0
   -0.8950   13.7340   -4.4620 C   0  0  2  0  0  0  0  0  0  0  0  0
   -1.2510   14.2690   -3.0560 C   0  0  2  0  0  0  0  0  0  0  0  0
   -3.3030   21.9090   -8.3250 C   0  0  2  0  0  0  0  0  0  0  0  0
   -0.9430   12.3050   -4.5310 O   0  0  0  0  0  0  0  0  0  0  0  0
   -3.8310   23.2930   -7.9520 C   0  0  1  0  0  0  0  0  0  0  0  0
   -4.2410   20.9390   -7.8400 O   0  0  0  0  0  0  0  0  0  0  0  0
   -2.7220   14.2590   -2.7490 N   0  0  0  0  0  0  0  0  0  0  0  0
   -4.7220   23.8590   -8.9150 O   0  0  0  0  0  0  0  0  0  0  0  0
   -5.1360   21.6010   -6.9510 C   0  0  1  0  0  0  0  0  0  0  0  0
   -4.5280   22.9730   -6.6360 C   0  0  2  0  0  0  0  0  0  0  0  0
   -3.2980   14.9670   -1.5450 C   0  0  1  0  0  0  0  0  0  0  0  0
   -3.5750   14.7170   -3.8250 C   0  0  0  0  0  0  0  0  0  0  0  0
   -6.3790   21.6590   -7.6160 O   0  0  0  0  0  0  0  0  0  0  0  0
   -5.5270   23.9810   -6.3960 O   0  0  0  0  0  0  0  0  0  0  0  0
   -4.8220   14.9640   -1.8510 C   0  0  1  0  0  0  0  0  0  0  0  0
   -2.8260   14.2900   -0.1830 C   0  0  2  0  0  0  0  0  0  0  0  0
   -4.9110   14.5350   -3.2710 N   0  0  0  0  0  0  0  0  0  0  0  0
   -5.7020   14.1510   -0.8730 C   0  0  2  0  0  0  0  0  0  0  0  0
   -3.8810   13.2720    0.2840 C   0  0  0  0  0  0  0  0  0  0  0  0
   -2.6810   15.1350    1.1110 C   0  0  2  0  0  0  0  0  0  0  0  0
   -1.4400   13.6910   -0.4710 C   0  0  0  0  0  0  0  0  0  0  0  0
   -6.9560   14.7900   -0.5640 N   0  0  0  0  0  0  0  0  0  0  0  0
   -3.6860   16.1580    1.3540 N   0  0  0  0  0  0  0  0  0  0  0  0
   -5.1390   13.9930    0.4350 N   0  0  0  0  0  0  0  0  0  0  0  0
   -1.3740   15.7080    1.1950 N   0  0  0  0  0  0  0  0  0  0  0  0
   -0.6100   13.5550    0.7060 N   0  0  0  0  0  0  0  0  0  0  0  0
   -0.2440   14.8170    1.2300 C   0  0  0  0  0  0  0  0  0  0  0  0
  1  2  1  0
  2  3  1  0
  1  4  2  0
  1  5  1  6
  1  6  1  0
  6  7  1  0
  7  8  2  0
  7  9  1  1
  7 10  1  0
 11  3  1  6
 10 12  1  0
 11 13  1  0
 11 14  1  0
 14 15  1  1
 14 16  1  0
 13 17  1  0
 16 17  1  0
 18 12  1  1
 16 19  1  1
 18 20  1  0
 18 21  1  0
 17 22  1  6
 20 23  1  6
 21 24  1  0
 20 25  1  0
 24 25  1  0
 26 22  1  6
 22 27  1  0
 24 28  1  6
 25 29  1  6
 26 30  1  0
 26 31  1  0
 27 32  1  0
 30 32  1  6
 30 33  1  0
 31 34  1  1
 31 35  1  0
 31 36  1  0
 33 37  1  1
 35 38  1  6
 33 39  1  0
 34 39  1  0
 35 40  1  0
 36 41  1  0
 40 42  1  0
 41 42  1  0
M  END
