mArh-5cb5_D_0_D-mArh-x0524_0_A
     RDKit          3D

 55 60  0  0  0  0  0  0  0  0999 V2000
   -1.6470   18.3800   -6.2440 P   0  0  1  0  0  0  0  0  0  0  0  0
   -0.2590   17.6420   -6.4730 O   0  0  0  0  0  0  0  0  0  0  0  0
    0.4980   17.1650   -5.3790 C   0  0  0  0  0  0  0  0  0  0  0  0
   -2.8240   17.7310   -6.8530 O   0  0  0  0  0  0  0  0  0  0  0  0
   -1.7700   18.6000   -4.6650 O   0  0  0  0  0  0  0  0  0  0  0  0
   -1.2980   19.8140   -6.7080 O   0  0  0  0  0  0  0  0  0  0  0  0
   -0.3720   20.1100   -7.9330 P   0  0  1  0  0  0  0  0  0  0  0  0
    0.9600   20.7060   -7.6620 O   0  0  0  0  0  0  0  0  0  0  0  0
   -0.2690   18.7300   -8.7460 O   0  0  0  0  0  0  0  0  0  0  0  0
   -1.3780   20.9770   -8.7940 O   0  0  0  0  0  0  0  0  0  0  0  0
   -0.1710   15.9460   -4.7730 C   0  0  2  0  0  0  0  0  0  0  0  0
   -2.0370   22.0400   -8.1010 C   0  0  0  0  0  0  0  0  0  0  0  0
    0.1230   15.8730   -3.3740 O   0  0  0  0  0  0  0  0  0  0  0  0
    0.1700   14.5390   -5.2460 C   0  0  1  0  0  0  0  0  0  0  0  0
    1.5340   14.1630   -5.3660 O   0  0  0  0  0  0  0  0  0  0  0  0
   -0.6120   13.7390   -4.2120 C   0  0  2  0  0  0  0  0  0  0  0  0
   -0.3610   14.5540   -2.9590 C   0  0  2  0  0  0  0  0  0  0  0  0
   -3.4170   22.2710   -8.7130 C   0  0  2  0  0  0  0  0  0  0  0  0
   -0.0140   12.4510   -4.0700 O   0  0  0  0  0  0  0  0  0  0  0  0
   -3.9350   23.4610   -8.3730 C   0  0  1  0  0  0  0  0  0  0  0  0
   -4.3180   21.2540   -8.2190 O   0  0  0  0  0  0  0  0  0  0  0  0
   -1.5110   14.7450   -2.1080 N   0  0  0  0  0  0  0  0  0  0  0  0
   -4.7170   23.9940   -9.4380 O   0  0  0  0  0  0  0  0  0  0  0  0
    0.2930   11.7260   -5.2540 C   0  0  0  0  0  0  0  0  0  0  0  0
   -5.2760   21.9360   -7.4160 C   0  0  2  0  0  0  0  0  0  0  0  0
   -4.7110   23.1200   -7.2620 C   0  0  2  0  0  0  0  0  0  0  0  0
   -1.4140   14.7700   -0.7670 C   0  0  0  0  0  0  0  0  0  0  0  0
   -2.8340   14.9290   -2.4390 C   0  0  0  0  0  0  0  0  0  0  0  0
   -5.4700   21.2990   -6.1610 O   0  0  0  0  0  0  0  0  0  0  0  0
   -5.7230   24.0830   -6.9920 O   0  0  0  0  0  0  0  0  0  0  0  0
   -0.7390   11.7820   -6.3700 C   0  0  0  0  0  0  0  0  0  0  0  0
   -2.6980   14.9790   -0.3080 C   0  0  0  0  0  0  0  0  0  0  0  0
   -0.2890   14.6240   -0.0680 N   0  0  0  0  0  0  0  0  0  0  0  0
   -3.5880   15.0770   -1.3640 N   0  0  0  0  0  0  0  0  0  0  0  0
   -0.4110   10.7430   -7.3390 N   0  0  0  0  0  0  0  0  0  0  0  0
   -2.8500   15.0540    1.0780 C   0  0  0  0  0  0  0  0  0  0  0  0
   -0.5550   14.6960    1.2420 C   0  0  0  0  0  0  0  0  0  0  0  0
   -4.1050   15.2940    1.6640 N   0  0  0  0  0  0  0  0  0  0  0  0
   -0.8220    9.5310   -7.2590 C   0  0  0  0  0  0  0  0  0  0  0  0
   -1.7450   14.8930    1.8440 N   0  0  0  0  0  0  0  0  0  0  0  0
   -0.4780    8.5640   -8.1770 N   0  0  0  0  0  0  0  0  0  0  0  0
   -1.7300    9.0510   -6.1390 C   0  0  0  0  0  0  0  0  0  0  0  0
    0.6030    8.5410   -9.0810 C   0  0  0  0  0  0  0  0  0  0  0  0
    1.7530    7.7660   -8.9050 C   0  0  0  0  0  0  0  0  0  0  0  0
    0.5360    9.3390  -10.2380 C   0  0  0  0  0  0  0  0  0  0  0  0
    2.7960    7.7770   -9.8400 C   0  0  0  0  0  0  0  0  0  0  0  0
    1.5740    9.3570  -11.1820 C   0  0  0  0  0  0  0  0  0  0  0  0
    2.7140    8.5710  -10.9870 C   0  0  0  0  0  0  0  0  0  0  0  0
    3.7630    8.5880  -11.9500 N   0  0  0  0  0  0  0  0  0  0  0  0
    3.9740    9.5170  -13.0040 C   0  0  0  0  0  0  0  0  0  0  0  0
    3.1850   10.6620  -13.2010 C   0  0  0  0  0  0  0  0  0  0  0  0
    5.0300    9.2720  -13.8870 C   0  0  0  0  0  0  0  0  0  0  0  0
    3.4590   11.5290  -14.2600 C   0  0  0  0  0  0  0  0  0  0  0  0
    5.3030   10.1330  -14.9420 C   0  0  0  0  0  0  0  0  0  0  0  0
    4.5140   11.2680  -15.1310 C   0  0  0  0  0  0  0  0  0  0  0  0
  1  2  1  0
  2  3  1  0
  1  4  2  0
  1  5  1  1
  1  6  1  0
  6  7  1  0
  7  8  2  0
  7  9  1  6
  7 10  1  0
 11  3  1  6
 10 12  1  0
 11 13  1  0
 11 14  1  0
 14 15  1  1
 14 16  1  0
 13 17  1  0
 16 17  1  0
 18 12  1  1
 16 19  1  1
 18 20  1  0
 18 21  1  0
 17 22  1  6
 20 23  1  6
 19 24  1  0
 21 25  1  0
 20 26  1  0
 25 26  1  0
 22 27  1  0
 22 28  1  0
 25 29  1  1
 26 30  1  6
 24 31  1  0
 27 32  2  0
 27 33  1  0
 28 34  2  0
 32 34  1  0
 31 35  1  0
 32 36  1  0
 33 37  2  0
 36 38  1  0
 35 39  2  3
 36 40  2  0
 37 40  1  0
 39 41  1  0
 39 42  1  0
 41 43  1  0
 43 44  2  0
 43 45  1  0
 44 46  1  0
 45 47  2  0
 46 48  2  0
 47 48  1  0
 48 49  1  0
 49 50  1  0
 50 51  2  0
 50 52  1  0
 51 53  1  0
 52 54  2  0
 53 55  2  0
 54 55  1  0
M  END
