mArh-x0900_1_A-mArh-5cms_B_1_B
     RDKit          3D

 44 48  0  0  0  0  0  0  0  0999 V2000
   -0.4430    9.7470   -9.6180 O   0  0  0  0  0  0  0  0  0  0  0  0
   -0.7840    9.3780   -8.5050 C   0  0  0  0  0  0  0  0  0  0  0  0
   -0.0980    9.5240   -7.3170 N   0  0  0  0  0  0  0  0  0  0  0  0
   -2.0730    8.6650   -8.1580 C   0  0  0  0  0  0  0  0  0  0  0  0
   -1.9550    8.5000   -6.6440 C   0  0  0  0  0  0  0  0  0  0  0  0
   -1.1060    9.7040   -6.2960 C   0  0  1  0  0  0  0  0  0  0  0  0
   -0.6660    9.7760   -4.8250 C   0  0  0  0  0  0  0  0  0  0  0  0
   -0.0260   11.0980   -4.3800 C   0  0  0  0  0  0  0  0  0  0  0  0
   -0.8760   12.1970   -4.0080 O   0  0  0  0  0  0  0  0  0  0  0  0
   -0.1260   13.4070   -3.9840 C   0  0  1  0  0  0  0  0  0  0  0  0
   -0.3340   14.3840   -5.1440 C   0  0  2  0  0  0  0  0  0  0  0  0
   -0.2200   14.3260   -2.7450 C   0  0  1  0  0  0  0  0  0  0  0  0
    0.7480   14.1420   -6.0390 O   0  0  0  0  0  0  0  0  0  0  0  0
    0.2750   15.5880   -3.2170 O   0  0  0  0  0  0  0  0  0  0  0  0
   -0.3510   15.7880   -4.5000 C   0  0  1  0  0  0  0  0  0  0  0  0
   -1.4020   14.6000   -1.9270 N   0  0  0  0  0  0  0  0  0  0  0  0
    0.4250   16.9280   -5.2060 C   0  0  0  0  0  0  0  0  0  0  0  0
   -1.4030   14.6390   -0.5740 C   0  0  0  0  0  0  0  0  0  0  0  0
   -2.6880   14.8820   -2.3400 C   0  0  0  0  0  0  0  0  0  0  0  0
   -0.2890   17.5770   -6.2720 O   0  0  0  0  0  0  0  0  0  0  0  0
   -2.6960   14.9610   -0.2020 C   0  0  0  0  0  0  0  0  0  0  0  0
   -0.3510   14.4160    0.2170 N   0  0  0  0  0  0  0  0  0  0  0  0
   -3.5000   15.1080   -1.3160 N   0  0  0  0  0  0  0  0  0  0  0  0
   -1.7810   18.1660   -6.1120 P   0  0  1  0  0  0  0  0  0  0  0  0
   -2.9300   15.0760    1.1760 C   0  0  0  0  0  0  0  0  0  0  0  0
   -0.6870   14.5280    1.4960 C   0  0  0  0  0  0  0  0  0  0  0  0
   -2.7700   17.3150   -6.7840 O   0  0  0  0  0  0  0  0  0  0  0  0
   -1.9680   18.1760   -4.5440 O   0  0  0  0  0  0  0  0  0  0  0  0
   -1.7680   19.7110   -6.5360 O   0  0  0  0  0  0  0  0  0  0  0  0
   -4.1600   15.4220    1.7260 N   0  0  0  0  0  0  0  0  0  0  0  0
   -1.8950   14.8350    2.0110 N   0  0  0  0  0  0  0  0  0  0  0  0
   -1.1770   20.2990   -7.8900 P   0  0  1  0  0  0  0  0  0  0  0  0
    0.1020   21.0520   -7.7340 O   0  0  0  0  0  0  0  0  0  0  0  0
   -0.8000   18.9400   -8.6740 O   0  0  0  0  0  0  0  0  0  0  0  0
   -2.4420   20.9860   -8.7550 O   0  0  0  0  0  0  0  0  0  0  0  0
   -3.4160   22.0330   -8.3730 C   0  0  0  0  0  0  0  0  0  0  0  0
   -4.5240   22.6710   -9.4460 C   0  0  2  0  0  0  0  0  0  0  0  0
   -4.7600   22.3090  -10.9850 C   0  0  1  0  0  0  0  0  0  0  0  0
   -4.2330   24.1240   -9.5530 O   0  0  0  0  0  0  0  0  0  0  0  0
   -6.0680   21.8860  -11.3100 O   0  0  0  0  0  0  0  0  0  0  0  0
   -4.3990   24.6470  -10.9260 C   0  0  2  0  0  0  0  0  0  0  0  0
   -4.5560   23.5150  -11.9100 C   0  0  2  0  0  0  0  0  0  0  0  0
   -3.2120   25.2820  -11.3970 O   0  0  0  0  0  0  0  0  0  0  0  0
   -5.5510   23.7050  -12.8810 O   0  0  0  0  0  0  0  0  0  0  0  0
  1  2  2  0
  2  3  1  0
  2  4  1  0
  4  5  1  0
  3  6  1  0
  5  6  1  0
  6  7  1  1
  7  8  1  0
  8  9  1  0
 10  9  1  1
 10 11  1  0
 10 12  1  0
 11 13  1  6
 12 14  1  0
 11 15  1  0
 14 15  1  0
 12 16  1  6
 15 17  1  6
 16 18  1  0
 16 19  1  0
 17 20  1  0
 18 21  2  0
 18 22  1  0
 19 23  2  0
 21 23  1  0
 20 24  1  0
 21 25  1  0
 22 26  2  0
 24 27  2  0
 24 28  1  1
 24 29  1  0
 25 30  1  0
 25 31  2  0
 26 31  1  0
 29 32  1  0
 32 33  2  0
 32 34  1  6
 32 35  1  0
 35 36  1  0
 37 36  1  6
 37 38  1  0
 37 39  1  0
 38 40  1  1
 39 41  1  0
 38 42  1  0
 41 42  1  0
 41 43  1  6
 42 44  1  6
M  END
