mArh-3ew5_A_0_A-mArh-mac-194_0_A
     RDKit          3D

 29 30  0  0  0  0  0  0  0  0999 V2000
   -0.0120   19.5040   -7.5470 P   0  0  0  0  0  0  0  0  0  0  0  0
   -1.5060   19.9960   -7.7080 O   0  0  0  0  0  0  0  0  0  0  0  0
   -1.6470   21.2060   -8.4240 C   0  0  0  0  0  0  0  0  0  0  0  0
    1.0430   20.5590   -7.4480 O   0  0  0  0  0  0  0  0  0  0  0  0
    0.1790   18.5620   -8.8050 O   0  0  0  0  0  0  0  0  0  0  0  0
   -0.0070   18.4480   -6.3480 O   0  0  0  0  0  0  0  0  0  0  0  0
   -2.2670   22.2100   -7.4920 C   0  0  2  0  0  0  0  0  0  0  0  0
   -3.7030   22.5190   -7.8440 C   0  0  0  0  0  0  0  0  0  0  0  0
   -1.5080   23.4040   -7.4660 O   0  0  0  0  0  0  0  0  0  0  0  0
   -4.4810   21.4640   -7.3060 O   0  0  0  0  0  0  0  0  0  0  0  0
   -4.5090   21.4340   -5.8820 C   0  0  0  0  0  0  0  0  0  0  0  0
   -5.9770   21.6020   -5.5840 C   0  0  0  0  0  0  0  0  0  0  0  0
   -6.6520   21.1800   -4.1000 C   0  0  0  0  0  0  0  0  0  0  0  0
   -8.1360   19.5160   -2.9040 C   0  0  0  0  0  0  0  0  0  0  0  0
   -8.4960   18.0950   -2.0000 C   0  0  0  0  0  0  0  0  0  0  0  0
   -7.7700   16.7190   -1.8640 C   0  0  0  0  0  0  0  0  0  0  0  0
   -8.7200   15.5560   -2.1350 C   0  0  0  0  0  0  0  0  0  0  0  0
   -8.9140   14.8640   -0.8850 N   0  0  0  0  0  0  0  0  0  0  0  0
   -7.9010   14.5080   -0.1870 C   0  0  0  0  0  0  0  0  0  0  0  0
   -7.8970   13.8990    1.0230 N   0  0  0  0  0  0  0  0  0  0  0  0
   -6.4950   14.7740   -0.6560 C   0  0  0  0  0  0  0  0  0  0  0  0
   -7.0850   14.3820    1.9870 C   0  0  0  0  0  0  0  0  0  0  0  0
   -5.5530   14.9630    0.3730 C   0  0  0  0  0  0  0  0  0  0  0  0
   -6.1080   14.8370   -2.0000 C   0  0  0  0  0  0  0  0  0  0  0  0
   -7.5790   14.2950    3.2400 N   0  0  0  0  0  0  0  0  0  0  0  0
   -5.9200   14.9060    1.7380 N   0  0  0  0  0  0  0  0  0  0  0  0
   -4.2230   15.2200    0.0370 C   0  0  0  0  0  0  0  0  0  0  0  0
   -4.7740   15.0940   -2.3180 C   0  0  0  0  0  0  0  0  0  0  0  0
   -3.8360   15.2840   -1.3040 C   0  0  0  0  0  0  0  0  0  0  0  0
  1  2  1  0
  2  3  1  0
  1  4  2  0
  1  5  1  0
  1  6  1  0
  3  7  1  0
  7  8  1  0
  7  9  1  6
  8 10  1  0
 10 11  1  0
 11 12  1  0
 12 13  1  0
 13 14  1  0
 14 15  1  0
 15 16  1  0
 16 17  1  0
 17 18  1  0
 18 19  2  3
 19 20  1  0
 19 21  1  0
 20 22  1  0
 21 23  2  0
 21 24  1  0
 22 25  1  0
 22 26  2  0
 23 26  1  0
 23 27  1  0
 24 28  2  0
 27 29  2  0
 28 29  1  0
M  END
