mArh-5cms_P_15_P-mArh-x0685_1_A
     RDKit          3D

 47 51  0  0  0  0  0  0  0  0999 V2000
   -1.6420   17.9720   -6.0940 P   0  0  1  0  0  0  0  0  0  0  0  0
   -0.3030   17.0710   -6.2420 O   0  0  0  0  0  0  0  0  0  0  0  0
    0.5690   16.5320   -5.2330 C   0  0  0  0  0  0  0  0  0  0  0  0
   -2.8550   17.3330   -6.6600 O   0  0  0  0  0  0  0  0  0  0  0  0
   -1.7320   18.3460   -4.5570 O   0  0  0  0  0  0  0  0  0  0  0  0
   -1.3710   19.3740   -6.7530 O   0  0  0  0  0  0  0  0  0  0  0  0
   -0.2290   19.6360   -7.7960 P   0  0  1  0  0  0  0  0  0  0  0  0
    1.0680   20.1560   -7.3030 O   0  0  0  0  0  0  0  0  0  0  0  0
   -0.0490   18.2780   -8.5960 O   0  0  0  0  0  0  0  0  0  0  0  0
   -0.9000   20.3600   -9.0270 O   0  0  0  0  0  0  0  0  0  0  0  0
   -0.0710   15.7160   -4.0670 C   0  0  1  0  0  0  0  0  0  0  0  0
   -1.7760   21.4420   -8.8660 C   0  0  0  0  0  0  0  0  0  0  0  0
   -1.4920   15.7930   -4.0800 O   0  0  0  0  0  0  0  0  0  0  0  0
    0.1900   14.2090   -3.8140 C   0  0  2  0  0  0  0  0  0  0  0  0
    1.2740   13.4640   -4.2610 O   0  0  0  0  0  0  0  0  0  0  0  0
   -1.1110   13.4420   -3.8680 C   0  0  1  0  0  0  0  0  0  0  0  0
   -2.0640   14.5640   -3.5470 C   0  0  1  0  0  0  0  0  0  0  0  0
   -1.9420   22.0900  -10.2370 C   0  0  2  0  0  0  0  0  0  0  0  0
   -1.3980   12.7480   -5.1020 O   0  0  0  0  0  0  0  0  0  0  0  0
    1.7260   12.4030   -3.1360 S   0  0  0  0  0  0  0  0  0  0  0  0
   -1.2640   23.4410  -10.4120 C   0  0  1  0  0  0  0  0  0  0  0  0
   -3.3350   22.2690  -10.5090 O   0  0  0  0  0  0  0  0  0  0  0  0
   -2.5050   14.7750   -2.1630 N   0  0  0  0  0  0  0  0  0  0  0  0
    0.0700   23.3890  -10.9100 O   0  0  0  0  0  0  0  0  0  0  0  0
   -1.3420   11.2750   -4.9540 N   0  0  0  0  0  0  0  0  0  0  0  0
    3.1550   12.2760   -3.1950 O   0  0  0  0  0  0  0  0  0  0  0  0
    0.8130   11.2760   -3.0660 O   0  0  0  0  0  0  0  0  0  0  0  0
    1.4310   13.2310   -1.7860 O   0  0  0  0  0  0  0  0  0  0  0  0
   -3.4330   23.2790  -11.4980 C   0  0  2  0  0  0  0  0  0  0  0  0
   -2.2210   24.1920  -11.3340 C   0  0  2  0  0  0  0  0  0  0  0  0
   -1.9190   14.6750   -0.8870 C   0  0  0  0  0  0  0  0  0  0  0  0
   -3.7960   15.1680   -1.9730 C   0  0  0  0  0  0  0  0  0  0  0  0
   -4.6010   24.0510  -11.2420 O   0  0  0  0  0  0  0  0  0  0  0  0
   -1.6510   24.7020  -12.5120 O   0  0  0  0  0  0  0  0  0  0  0  0
   -2.9640   15.0320   -0.0450 C   0  0  0  0  0  0  0  0  0  0  0  0
   -0.6760   14.3360   -0.4550 N   0  0  0  0  0  0  0  0  0  0  0  0
   -4.1020   15.3300   -0.7290 N   0  0  0  0  0  0  0  0  0  0  0  0
   -0.7680   10.7370   -6.2130 C   0  0  0  0  0  0  0  0  0  0  0  0
   -2.7580   15.0510    1.3140 C   0  0  0  0  0  0  0  0  0  0  0  0
   -0.5870   14.3860    0.9050 C   0  0  0  0  0  0  0  0  0  0  0  0
   -0.6880    9.1970   -6.1940 C   0  0  0  0  0  0  0  0  0  0  0  0
   -1.5960   11.2200   -7.4110 C   0  0  0  0  0  0  0  0  0  0  0  0
   -3.8080   15.4170    2.1410 N   0  0  0  0  0  0  0  0  0  0  0  0
   -1.5440   14.7160    1.8080 N   0  0  0  0  0  0  0  0  0  0  0  0
   -0.0860    8.6580   -7.4980 C   0  0  0  0  0  0  0  0  0  0  0  0
   -1.0250   10.7050   -8.7340 C   0  0  0  0  0  0  0  0  0  0  0  0
   -0.8450    9.1870   -8.7220 C   0  0  0  0  0  0  0  0  0  0  0  0
  1  2  1  0
  2  3  1  0
  1  4  2  0
  1  5  1  1
  1  6  1  0
  6  7  1  0
  7  8  2  0
  7  9  1  6
  7 10  1  0
 11  3  1  6
 10 12  1  0
 11 13  1  0
 11 14  1  0
 14 15  1  6
 14 16  1  0
 13 17  1  0
 16 17  1  0
 18 12  1  1
 16 19  1  6
 20 15  1  0
 18 21  1  0
 18 22  1  0
 17 23  1  1
 21 24  1  6
 19 25  1  0
 20 26  2  0
 20 27  2  0
 20 28  1  0
 22 29  1  0
 21 30  1  0
 29 30  1  0
 23 31  1  0
 23 32  1  0
 29 33  1  1
 30 34  1  6
 31 35  2  0
 31 36  1  0
 32 37  2  0
 35 37  1  0
 25 38  1  0
 35 39  1  0
 36 40  2  0
 38 41  1  0
 38 42  1  0
 39 43  1  0
 39 44  2  0
 40 44  1  0
 41 45  1  0
 42 46  1  0
 45 47  1  0
 46 47  1  0
M  END
