mArh-x1018_0_A-mArh-5cb5_I_0_I
     RDKit          3D

 41 45  0  0  0  0  0  0  0  0999 V2000
   -8.1740   14.8270    0.3860 Cl  0  0  0  0  0  0  0  0  0  0  0  0
   -6.5480   14.2850   -0.0940 C   0  0  2  0  0  0  0  0  0  0  0  0
   -5.6340   14.1350    1.0580 C   0  0  0  0  0  0  0  0  0  0  0  0
   -5.9410   15.0860   -1.1700 N   0  0  0  0  0  0  0  0  0  0  0  0
   -4.6290   14.6070   -1.5940 N   0  0  0  0  0  0  0  0  0  0  0  0
   -4.3300   13.9260    0.8280 C   0  0  0  0  0  0  0  0  0  0  0  0
   -3.8210   15.5010   -2.3890 N   0  0  0  0  0  0  0  0  0  0  0  0
   -3.7900   13.8500   -0.6080 C   0  0  2  0  0  0  0  0  0  0  0  0
   -2.3690   14.4690   -0.8030 C   0  0  1  0  0  0  0  0  0  0  0  0
   -2.3960   15.0470   -2.3100 C   0  0  2  0  0  0  0  0  0  0  0  0
   -1.4080   16.1040   -2.6060 O   0  0  0  0  0  0  0  0  0  0  0  0
   -2.0740   14.0080   -3.5200 C   0  0  2  0  0  0  0  0  0  0  0  0
   -2.2890   15.3240    0.5420 C   0  0  2  0  0  0  0  0  0  0  0  0
   -1.1720   13.5540   -0.6450 C   0  0  0  0  0  0  0  0  0  0  0  0
   -1.4570   12.7620   -3.1710 O   0  0  0  0  0  0  0  0  0  0  0  0
   -3.3780   16.2080    0.9420 N   0  0  0  0  0  0  0  0  0  0  0  0
   -1.1650   16.1480   -4.0460 C   0  0  2  0  0  0  0  0  0  0  0  0
   -1.1250   14.7040   -4.5200 C   0  0  1  0  0  0  0  0  0  0  0  0
   -1.1290   15.9840    0.7570 N   0  0  0  0  0  0  0  0  0  0  0  0
   -0.4190   13.8040    0.5770 N   0  0  0  0  0  0  0  0  0  0  0  0
   -0.0400   17.0830   -4.5290 C   0  0  0  0  0  0  0  0  0  0  0  0
    0.1760   14.1250   -4.6820 O   0  0  0  0  0  0  0  0  0  0  0  0
    0.0340   15.1630    0.6100 C   0  0  0  0  0  0  0  0  0  0  0  0
   -0.2230   17.4430   -5.9040 O   0  0  0  0  0  0  0  0  0  0  0  0
   -1.6060   18.2090   -6.1920 P   0  0  1  0  0  0  0  0  0  0  0  0
   -2.6450   17.4670   -6.9490 O   0  0  0  0  0  0  0  0  0  0  0  0
   -2.0490   18.5140   -4.7010 O   0  0  0  0  0  0  0  0  0  0  0  0
   -1.2460   19.6400   -6.6910 O   0  0  0  0  0  0  0  0  0  0  0  0
   -0.2430   19.9300   -7.8660 P   0  0  1  0  0  0  0  0  0  0  0  0
    1.0720   20.5020   -7.5100 O   0  0  0  0  0  0  0  0  0  0  0  0
   -0.1760   18.5600   -8.7030 O   0  0  0  0  0  0  0  0  0  0  0  0
   -1.1930   20.8300   -8.7550 O   0  0  0  0  0  0  0  0  0  0  0  0
   -1.9060   21.8920   -8.1430 C   0  0  0  0  0  0  0  0  0  0  0  0
   -3.2870   21.9920   -8.7770 C   0  0  2  0  0  0  0  0  0  0  0  0
   -3.9470   23.3460   -8.6070 C   0  0  1  0  0  0  0  0  0  0  0  0
   -4.1990   21.0750   -8.1920 O   0  0  0  0  0  0  0  0  0  0  0  0
   -4.8560   23.6870   -9.6520 O   0  0  0  0  0  0  0  0  0  0  0  0
   -5.1600   21.7820   -7.3960 C   0  0  2  0  0  0  0  0  0  0  0  0
   -4.6240   23.1860   -7.2530 C   0  0  2  0  0  0  0  0  0  0  0  0
   -5.2540   21.1860   -6.1060 O   0  0  0  0  0  0  0  0  0  0  0  0
   -5.6780   24.1170   -7.0330 O   0  0  0  0  0  0  0  0  0  0  0  0
  2  1  1  1
  2  3  1  0
  2  4  1  0
  4  5  1  0
  3  6  2  0
  5  7  1  0
  5  8  1  0
  8  6  1  1
  8  9  1  0
 10  7  1  6
  9 10  1  0
 10 11  1  0
 10 12  1  0
  9 13  1  0
  9 14  1  6
 12 15  1  1
 13 16  1  6
 11 17  1  0
 12 18  1  0
 17 18  1  0
 13 19  1  0
 14 20  1  0
 17 21  1  1
 18 22  1  1
 19 23  1  0
 20 23  1  0
 21 24  1  0
 24 25  1  0
 25 26  2  0
 25 27  1  1
 25 28  1  0
 28 29  1  0
 29 30  2  0
 29 31  1  6
 29 32  1  0
 32 33  1  0
 34 33  1  1
 34 35  1  0
 34 36  1  0
 35 37  1  6
 36 38  1  0
 35 39  1  0
 38 39  1  0
 38 40  1  1
 39 41  1  6
M  END
