
     RDKit          3D

 13 13  0  0  0  0  0  0  0  0999 V2000
    4.7120   40.8130   -0.9700 N   0  0  0  0  0  0  0  0  0  0  0  0
    2.0310   42.2280    0.1210 C   0  0  0  0  0  0  0  0  0  0  0  0
    4.7810   36.3820    1.3760 O   0  0  0  0  0  0  0  0  0  0  0  0
    5.6290   36.9780   -1.4860 Cl  0  0  0  0  0  0  0  0  0  0  0  0
    3.4130   42.0200    0.7180 C   0  0  2  0  0  0  0  0  0  0  0  0
    3.7510   39.6250    0.8680 N   0  0  0  0  0  0  0  0  0  0  0  0
    4.3020   43.2380    0.4670 C   0  0  0  0  0  0  0  0  0  0  0  0
    2.6850   37.1890    1.7190 N   0  0  0  0  0  0  0  0  0  0  0  0
    4.0160   40.7420    0.1780 C   0  0  0  0  0  0  0  0  0  0  0  0
    5.1780   39.6500   -1.4510 C   0  0  0  0  0  0  0  0  0  0  0  0
    4.9670   38.4390   -0.8110 C   0  0  0  0  0  0  0  0  0  0  0  0
    4.2270   38.4700    0.3700 C   0  0  0  0  0  0  0  0  0  0  0  0
    3.9170   37.2490    1.1960 C   0  0  0  0  0  0  0  0  0  0  0  0
  1  9  2  0
  1 10  1  0
  9  5  1  0
  9  6  1  0
 10 11  2  0
  5  2  1  6
  5  7  1  0
  3 13  2  0
 13  8  1  0
 13 12  1  0
  4 11  1  0
 11 12  1  0
  6 12  2  0
M  END
