
     RDKit          3D

 12 12  0  0  0  0  0  0  0  0999 V2000
   -5.5330   24.3850   -8.2150 O   0  0  0  0  0  0  0  0  0  0  0  0
    0.2130   19.2350   -8.7160 O   0  0  0  0  0  0  0  0  0  0  0  0
   -5.2680   23.8760   -6.9200 C   0  0  0  0  0  0  0  0  0  0  0  0
   -0.6850   19.6260   -6.4820 O   0  0  0  0  0  0  0  0  0  0  0  0
   -3.7850   23.5730   -6.7360 C   0  0  0  0  0  0  0  0  0  0  0  0
    0.9470   21.1360   -7.4490 O   0  0  0  0  0  0  0  0  0  0  0  0
   -3.3370   22.5920   -7.7570 N   0  0  0  0  0  0  0  0  0  0  0  0
   -3.6590   23.1750   -9.0920 C   0  0  0  0  0  0  0  0  0  0  0  0
   -5.1340   23.4780   -9.2520 C   0  0  0  0  0  0  0  0  0  0  0  0
   -1.8870   22.3380   -7.6210 C   0  0  0  0  0  0  0  0  0  0  0  0
   -1.4930   21.1610   -8.4940 C   0  0  0  0  0  0  0  0  0  0  0  0
   -0.1470   20.2160   -7.7160 S   0  0  1  0  0  0  0  0  0  0  0  0
  1  3  1  0
  1  9  1  0
  3  5  1  0
  9  8  1  0
  2 12  2  0
 12  4  2  0
 12  6  1  1
 12 11  1  0
  5  7  1  0
  7  8  1  0
  7 10  1  0
 10 11  1  0
M  CHG  2   6  -1   7   1
M  END
