mArh-x0727_0_A-mArh-x0685_0_A
     RDKit          3D

 27 28  0  0  0  0  0  0  0  0999 V2000
    0.2150   11.5670   -5.4690 N   0  0  0  0  0  0  0  0  0  0  0  0
    1.0160   12.3650   -4.5280 C   0  0  1  0  0  0  0  0  0  0  0  0
    0.8490   13.8800   -4.6050 C   0  0  0  0  0  0  0  0  0  0  0  0
    0.7530   11.2070   -6.6880 C   0  0  0  0  0  0  0  0  0  0  0  0
    1.7050   11.7860   -7.1340 O   0  0  0  0  0  0  0  0  0  0  0  0
    0.8220   11.8530   -3.1050 C   0  0  0  0  0  0  0  0  0  0  0  0
    0.0890   10.0270   -7.3990 C   0  0  0  0  0  0  0  0  0  0  0  0
    0.2710   10.8100   -2.7970 O   0  0  0  0  0  0  0  0  0  0  0  0
    1.3320   12.6720   -2.1670 O   0  0  0  0  0  0  0  0  0  0  0  0
   -0.2820   14.3180   -5.5000 C   0  0  0  0  0  0  0  0  0  0  0  0
   -1.2210   10.3960   -8.1000 C   0  0  0  0  0  0  0  0  0  0  0  0
   -0.2590    8.8850   -6.4240 C   0  0  0  0  0  0  0  0  0  0  0  0
   -1.6780   13.9870   -4.9740 C   0  0  0  0  0  0  0  0  0  0  0  0
   -2.1050    9.1660   -7.9360 C   0  0  0  0  0  0  0  0  0  0  0  0
   -1.7560    8.6570   -6.5470 C   0  0  0  0  0  0  0  0  0  0  0  0
   -2.5090   15.2410   -4.7060 C   0  0  0  0  0  0  0  0  0  0  0  0
   -3.0460   15.1880   -3.3470 C   0  0  0  0  0  0  0  0  0  0  0  0
   -3.5230   15.0900   -2.2630 C   0  0  0  0  0  0  0  0  0  0  0  0
   -4.1700   15.0670   -1.0080 C   0  0  0  0  0  0  0  0  0  0  0  0
   -3.4790   15.1910    0.1840 C   0  0  0  0  0  0  0  0  0  0  0  0
   -5.5410   14.9240   -0.9610 C   0  0  0  0  0  0  0  0  0  0  0  0
   -4.1970   15.1780    1.3720 C   0  0  0  0  0  0  0  0  0  0  0  0
   -6.2570   14.9030    0.1760 N   0  0  0  0  0  0  0  0  0  0  0  0
   -5.5920   15.0370    1.3310 C   0  0  0  0  0  0  0  0  0  0  0  0
   -6.2980   15.0510    2.5420 N   0  0  0  0  0  0  0  0  0  0  0  0
   -7.7160   14.7360    2.5380 C   0  0  0  0  0  0  0  0  0  0  0  0
   -7.9450   13.3560    3.1240 C   0  0  0  0  0  0  0  0  0  0  0  0
  1  2  1  0
  2  3  1  1
  1  4  1  0
  4  5  2  0
  2  6  1  0
  4  7  1  0
  6  8  2  0
  6  9  1  0
  3 10  1  0
  7 11  1  0
  7 12  1  0
 10 13  1  0
 11 14  1  0
 12 15  1  0
 14 15  1  0
 13 16  1  0
 16 17  1  0
 17 18  3  0
 18 19  1  0
 19 20  2  0
 19 21  1  0
 20 22  1  0
 21 23  2  0
 22 24  2  0
 23 24  1  0
 24 25  1  0
 25 26  1  0
 26 27  1  0
M  END
