mArh-5cb5_G_0_G-mArh-5cb5_N_0_N
     RDKit          3D

 36 39  0  0  0  0  0  0  0  0999 V2000
   -1.5510   18.5800   -5.8890 P   0  0  1  0  0  0  0  0  0  0  0  0
   -0.4270   17.9330   -4.9480 O   0  0  0  0  0  0  0  0  0  0  0  0
    0.3950   16.8550   -5.3650 C   0  0  0  0  0  0  0  0  0  0  0  0
   -2.4190   17.7020   -6.7500 O   0  0  0  0  0  0  0  0  0  0  0  0
   -2.4050   19.4180   -4.8370 O   0  0  0  0  0  0  0  0  0  0  0  0
   -0.8300   19.7950   -6.5490 O   0  0  0  0  0  0  0  0  0  0  0  0
   -0.4470   19.8470   -8.0570 P   0  0  2  0  0  0  0  0  0  0  0  0
    0.0020   18.6330   -8.7380 O   0  0  0  0  0  0  0  0  0  0  0  0
    0.6970   20.9110   -8.0490 O   0  0  0  0  0  0  0  0  0  0  0  0
   -1.6440   20.6640   -8.7070 O   0  0  0  0  0  0  0  0  0  0  0  0
   -0.3530   15.6140   -4.9360 C   0  0  2  0  0  0  0  0  0  0  0  0
   -1.8320   21.9320   -8.1220 C   0  0  0  0  0  0  0  0  0  0  0  0
   -0.4190   15.6420   -3.5320 O   0  0  0  0  0  0  0  0  0  0  0  0
   -0.0370   14.1310   -5.2170 C   0  0  1  0  0  0  0  0  0  0  0  0
    1.2990   13.7650   -4.8620 O   0  0  0  0  0  0  0  0  0  0  0  0
   -1.0120   13.4640   -4.2030 C   0  0  2  0  0  0  0  0  0  0  0  0
   -1.4800   14.7270   -3.4610 C   0  0  1  0  0  0  0  0  0  0  0  0
   -3.2810   22.2620   -7.8060 C   0  0  1  0  0  0  0  0  0  0  0  0
   -0.3730   12.4880   -3.4080 O   0  0  0  0  0  0  0  0  0  0  0  0
   -3.8150   23.5480   -8.3970 C   0  0  1  0  0  0  0  0  0  0  0  0
   -4.2950   21.3580   -8.2250 O   0  0  0  0  0  0  0  0  0  0  0  0
   -2.1650   14.8530   -2.2060 N   0  0  0  0  0  0  0  0  0  0  0  0
   -3.9920   23.5780   -9.8050 O   0  0  0  0  0  0  0  0  0  0  0  0
   -5.4810   22.0130   -7.7220 C   0  0  2  0  0  0  0  0  0  0  0  0
   -5.1540   23.5220   -7.6880 C   0  0  2  0  0  0  0  0  0  0  0  0
   -1.7410   14.8090   -0.9000 C   0  0  0  0  0  0  0  0  0  0  0  0
   -3.5090   15.1000   -2.2040 C   0  0  0  0  0  0  0  0  0  0  0  0
   -5.7490   21.5850   -6.3840 O   0  0  0  0  0  0  0  0  0  0  0  0
   -6.0780   24.3040   -8.4720 O   0  0  0  0  0  0  0  0  0  0  0  0
   -2.9070   15.0650   -0.1820 C   0  0  0  0  0  0  0  0  0  0  0  0
   -0.5160   14.5980   -0.3780 N   0  0  0  0  0  0  0  0  0  0  0  0
   -3.9920   15.2330   -1.0050 N   0  0  0  0  0  0  0  0  0  0  0  0
   -2.8050   15.1250    1.2000 C   0  0  0  0  0  0  0  0  0  0  0  0
   -0.5520   14.6620    0.9700 C   0  0  0  0  0  0  0  0  0  0  0  0
   -3.9030   15.4190    1.9840 N   0  0  0  0  0  0  0  0  0  0  0  0
   -1.6050   14.9040    1.7790 N   0  0  0  0  0  0  0  0  0  0  0  0
  1  2  1  0
  2  3  1  0
  1  4  2  0
  1  5  1  1
  1  6  1  0
  6  7  1  0
  7  8  2  0
  7  9  1  1
  7 10  1  0
 11  3  1  1
 10 12  1  0
 11 13  1  0
 11 14  1  0
 14 15  1  1
 14 16  1  0
 13 17  1  0
 16 17  1  0
 18 12  1  6
 16 19  1  1
 18 20  1  0
 18 21  1  0
 17 22  1  1
 20 23  1  6
 21 24  1  0
 20 25  1  0
 24 25  1  0
 22 26  1  0
 22 27  1  0
 24 28  1  1
 25 29  1  6
 26 30  2  0
 26 31  1  0
 27 32  2  0
 30 32  1  0
 30 33  1  0
 31 34  2  0
 33 35  1  0
 33 36  2  0
 34 36  1  0
M  END
