
     RDKit          3D

  7  7  0  0  0  0  0  0  0  0999 V2000
   15.2250    6.4090    8.5820 N   0  0  0  0  0  0  0  0  0  0  0  0
   15.0920    5.1300    9.0850 C   0  0  0  0  0  0  0  0  0  0  0  0
   15.1870    4.8750   10.4540 C   0  0  0  0  0  0  0  0  0  0  0  0
   14.9520    2.5150   10.0950 N   0  0  0  0  0  0  0  0  0  0  0  0
   15.1170    3.5710   10.9070 C   0  0  0  0  0  0  0  0  0  0  0  0
   14.8390    2.7670    8.7810 C   0  0  0  0  0  0  0  0  0  0  0  0
   14.9040    4.0390    8.2410 C   0  0  0  0  0  0  0  0  0  0  0  0
  1  2  1  0
  2  3  2  0
  2  7  1  0
  3  5  1  0
  7  6  2  0
  5  4  2  0
  4  6  1  0
M  END
