
     RDKit          3D

 15 15  0  0  0  0  0  0  0  0999 V2000
   15.6620   16.1250   11.7120 N   0  0  0  0  0  0  0  0  0  0  0  0
   16.6350   17.1760   11.9420 C   0  0  0  0  0  0  0  0  0  0  0  0
   17.1750   14.4590   11.6230 O   0  0  0  0  0  0  0  0  0  0  0  0
   16.0080   14.8440   11.6110 C   0  0  0  0  0  0  0  0  0  0  0  0
   13.0230   12.6900   12.5920 N   0  0  0  0  0  0  0  0  0  0  0  0
   11.3620   14.1960   13.5840 O   0  0  0  0  0  0  0  0  0  0  0  0
   14.8620   13.8630   11.4620 C   0  0  1  0  0  0  0  0  0  0  0  0
   11.7750   11.9830   14.5840 O   0  0  0  0  0  0  0  0  0  0  0  0
   15.3610   12.4980   10.9540 C   0  0  0  0  0  0  0  0  0  0  0  0
   14.2260   11.4830   10.8000 C   0  0  0  0  0  0  0  0  0  0  0  0
   13.4420   11.3510   12.0990 C   0  0  0  0  0  0  0  0  0  0  0  0
   14.0900   13.6960   12.7860 C   0  0  2  0  0  0  0  0  0  0  0  0
   14.9870   13.3620   13.9680 C   0  0  0  0  0  0  0  0  0  0  0  0
   10.4080   12.1020   12.3950 C   0  0  0  0  0  0  0  0  0  0  0  0
   11.6350   12.8030   13.4190 S   0  0  2  0  0  0  0  0  0  0  0  0
  1  2  1  0
  1  4  1  0
  4  3  2  0
  7  4  1  1
  7  9  1  0
  7 12  1  0
  5 11  1  0
  5 12  1  0
  5 15  1  0
 11 10  1  0
 12 13  1  1
 15  6  2  0
 15  8  2  0
 15 14  1  6
  9 10  1  0
M  END
