
     RDKit          3D

 36 39  0  0  0  0  0  0  0  0999 V2000
   -2.0570   17.6640   -6.3410 P   0  0  0  0  0  0  0  0  0  0  0  0
   -0.5110   19.3050   -8.1760 P   0  0  0  0  0  0  0  0  0  0  0  0
    0.1750   16.8040   -5.3520 C   0  0  0  0  0  0  0  0  0  0  0  0
   -1.0200   16.5240   -6.0460 O   0  0  0  0  0  0  0  0  0  0  0  0
    0.4940   15.7470   -4.3020 C   0  0  1  0  0  0  0  0  0  0  0  0
   -0.2520   15.9990   -3.1310 O   0  0  0  0  0  0  0  0  0  0  0  0
    0.2210   14.3360   -4.7460 C   0  0  1  0  0  0  0  0  0  0  0  0
    1.3260   13.5360   -4.4700 O   0  0  0  0  0  0  0  0  0  0  0  0
   -0.9220   13.9610   -3.8990 C   0  0  1  0  0  0  0  0  0  0  0  0
   -1.0200   12.5990   -3.6990 O   0  0  0  0  0  0  0  0  0  0  0  0
   -0.5780   14.7180   -2.6670 C   0  0  2  0  0  0  0  0  0  0  0  0
   -5.1440   21.4780   -7.1480 C   0  0  2  0  0  0  0  0  0  0  0  0
   -1.4540   15.5310    2.2800 N   0  0  0  0  0  0  0  0  0  0  0  0
   -2.8060   18.0600   -5.1050 O   0  0  0  0  0  0  0  0  0  0  0  0
    0.5720   20.2730   -7.8340 O   0  0  0  0  0  0  0  0  0  0  0  0
   -6.4390   21.4020   -7.6460 O   0  0  0  0  0  0  0  0  0  0  0  0
   -0.2840   15.3870    1.6030 C   0  0  0  0  0  0  0  0  0  0  0  0
   -4.6320   22.8780   -7.1600 C   0  0  2  0  0  0  0  0  0  0  0  0
   -2.9690   17.1480   -7.4120 O   0  0  0  0  0  0  0  0  0  0  0  0
   -0.1360   18.1230   -8.9860 O   0  0  0  0  0  0  0  0  0  0  0  0
   -5.6160   23.8440   -6.9510 O   0  0  0  0  0  0  0  0  0  0  0  0
   -3.9650   22.9680   -8.4740 C   0  0  2  0  0  0  0  0  0  0  0  0
   -0.1730   15.1670    0.2750 N   0  0  0  0  0  0  0  0  0  0  0  0
   -1.2230   18.9290   -6.8020 O   0  0  0  0  0  0  0  0  0  0  0  0
   -4.8580   23.4570   -9.4160 O   0  0  0  0  0  0  0  0  0  0  0  0
   -1.3430   15.1080   -0.3630 C   0  0  0  0  0  0  0  0  0  0  0  0
   -3.5470   21.5630   -8.7790 C   0  0  2  0  0  0  0  0  0  0  0  0
   -4.2760   20.7140   -7.9320 O   0  0  0  0  0  0  0  0  0  0  0  0
   -2.5680   15.2450    0.2910 C   0  0  0  0  0  0  0  0  0  0  0  0
   -2.0600   21.3790   -8.5260 C   0  0  0  0  0  0  0  0  0  0  0  0
   -1.6550   20.0930   -8.9470 O   0  0  0  0  0  0  0  0  0  0  0  0
   -2.6530   15.4660    1.6540 C   0  0  0  0  0  0  0  0  0  0  0  0
   -3.8700   15.6270    2.3790 N   0  0  0  0  0  0  0  0  0  0  0  0
   -3.6170   15.1170   -0.6720 N   0  0  0  0  0  0  0  0  0  0  0  0
   -2.9790   14.9070   -1.8510 C   0  0  0  0  0  0  0  0  0  0  0  0
   -1.6280   14.8820   -1.6850 N   0  0  0  0  0  0  0  0  0  0  0  0
  1  4  1  0
  1 14  2  0
  1 19  1  0
  1 24  1  0
  4  3  1  0
 24  2  1  0
  2 15  2  0
  2 20  1  0
  2 31  1  0
 31 30  1  0
  5  3  1  6
  5  6  1  0
  5  7  1  0
  6 11  1  0
  7  8  1  1
  7  9  1  0
 11  9  1  0
 11 36  1  1
  9 10  1  1
 36 26  1  0
 36 35  1  0
 12 16  1  6
 12 18  1  0
 12 28  1  0
 18 21  1  6
 18 22  1  0
 28 27  1  0
 13 17  2  0
 13 32  1  0
 17 23  1  0
 32 29  2  0
 32 33  1  0
 23 26  2  0
 22 25  1  6
 22 27  1  0
 27 30  1  1
 26 29  1  0
 29 34  1  0
 34 35  2  0
M  END
