
     RDKit          3D

 18 19  0  0  0  0  0  0  0  0999 V2000
   15.2610   17.7430  -15.9280 N   0  0  0  0  0  0  0  0  0  0  0  0
   15.0840   16.4080  -15.7910 C   0  0  0  0  0  0  0  0  0  0  0  0
   15.9940   15.6920  -15.3930 O   0  0  0  0  0  0  0  0  0  0  0  0
   16.5300   18.3910  -15.6250 C   0  0  0  0  0  0  0  0  0  0  0  0
   17.3710   19.8710   -8.9550 N   0  0  0  0  0  0  0  0  0  0  0  0
   11.2900   14.7690  -16.5050 O   0  0  0  0  0  0  0  0  0  0  0  0
   16.7150   18.7290  -14.1630 C   0  0  0  0  0  0  0  0  0  0  0  0
   13.8530   15.8970  -16.1070 N   0  0  0  0  0  0  0  0  0  0  0  0
   15.8250   19.5700  -13.5110 C   0  0  0  0  0  0  0  0  0  0  0  0
   16.0030   19.9060  -12.1790 C   0  0  0  0  0  0  0  0  0  0  0  0
   17.0910   19.3970  -11.4730 C   0  0  0  0  0  0  0  0  0  0  0  0
   17.2390   19.6780  -10.0690 C   0  0  0  0  0  0  0  0  0  0  0  0
   18.0000   18.5690  -12.1250 C   0  0  0  0  0  0  0  0  0  0  0  0
   17.8020   18.2370  -13.4520 C   0  0  0  0  0  0  0  0  0  0  0  0
   12.6580   16.7520  -16.1950 C   0  0  0  0  0  0  0  0  0  0  0  0
   11.5830   16.0720  -17.0090 C   0  0  0  0  0  0  0  0  0  0  0  0
   12.4580   13.9500  -16.5530 C   0  0  0  0  0  0  0  0  0  0  0  0
   13.5580   14.5140  -15.6970 C   0  0  0  0  0  0  0  0  0  0  0  0
  1  2  1  0
  1  4  1  0
  2  3  2  0
  2  8  1  0
  4  7  1  0
  8 15  1  0
  8 18  1  0
  7  9  2  0
  7 14  1  0
  5 12  3  0
 12 11  1  0
  6 16  1  0
  6 17  1  0
 16 15  1  0
 17 18  1  0
  9 10  1  0
 14 13  2  0
 10 11  2  0
 11 13  1  0
M  END
