
     RDKit          3D

  7  7  0  0  0  0  0  0  0  0999 V2000
   -3.4870   29.6580  -14.7620 N   0  0  0  0  0  0  0  0  0  0  0  0
   -4.5160   29.4470  -13.8970 C   0  0  0  0  0  0  0  0  0  0  0  0
   -4.2890   28.9480  -12.6140 C   0  0  0  0  0  0  0  0  0  0  0  0
   -6.6420   28.9190  -12.1410 N   0  0  0  0  0  0  0  0  0  0  0  0
   -5.3660   28.6950  -11.7850 C   0  0  0  0  0  0  0  0  0  0  0  0
   -6.8560   29.4180  -13.3690 C   0  0  0  0  0  0  0  0  0  0  0  0
   -5.8380   29.6850  -14.2690 C   0  0  0  0  0  0  0  0  0  0  0  0
  1  2  1  0
  2  3  2  0
  2  7  1  0
  3  5  1  0
  7  6  2  0
  5  4  2  0
  4  6  1  0
M  END
