mArh-5cb5_A_0_A-mArh-5cb5_M_1_M
     RDKit          3D

 39 42  0  0  0  0  0  0  0  0999 V2000
   -1.5410   18.2960   -6.1400 P   0  0  1  0  0  0  0  0  0  0  0  0
   -0.1860   17.4770   -6.3690 O   0  0  0  0  0  0  0  0  0  0  0  0
    0.5140   16.8960   -5.2800 C   0  0  0  0  0  0  0  0  0  0  0  0
   -2.7350   17.7590   -6.8260 O   0  0  0  0  0  0  0  0  0  0  0  0
   -1.6790   18.4630   -4.5720 O   0  0  0  0  0  0  0  0  0  0  0  0
   -1.0590   19.7150   -6.5660 O   0  0  0  0  0  0  0  0  0  0  0  0
   -0.3360   19.9830   -7.9380 P   0  0  1  0  0  0  0  0  0  0  0  0
    0.9230   20.7550   -7.7630 O   0  0  0  0  0  0  0  0  0  0  0  0
   -0.1960   18.6050   -8.7390 O   0  0  0  0  0  0  0  0  0  0  0  0
   -1.5090   20.7280   -8.7000 O   0  0  0  0  0  0  0  0  0  0  0  0
   -0.3300   15.7440   -4.7870 C   0  0  2  0  0  0  0  0  0  0  0  0
   -1.7940   21.9400   -8.0410 C   0  0  0  0  0  0  0  0  0  0  0  0
   -0.4710   15.7040   -3.3760 O   0  0  0  0  0  0  0  0  0  0  0  0
    0.0510   14.3020   -5.1020 C   0  0  1  0  0  0  0  0  0  0  0  0
    1.3780   13.9770   -4.7060 O   0  0  0  0  0  0  0  0  0  0  0  0
   -0.9810   13.5910   -4.2070 C   0  0  2  0  0  0  0  0  0  0  0  0
   -1.5390   14.7530   -3.3670 C   0  0  1  0  0  0  0  0  0  0  0  0
   -3.2360   22.1820   -7.6520 C   0  0  1  0  0  0  0  0  0  0  0  0
   -0.4780   12.4110   -3.6390 O   0  0  0  0  0  0  0  0  0  0  0  0
   -3.8860   23.4020   -8.2690 C   0  0  1  0  0  0  0  0  0  0  0  0
   -4.2140   21.1760   -7.8900 O   0  0  0  0  0  0  0  0  0  0  0  0
   -2.1980   14.8800   -2.0950 N   0  0  0  0  0  0  0  0  0  0  0  0
   -4.0430   23.3500   -9.6880 O   0  0  0  0  0  0  0  0  0  0  0  0
   -5.2160   21.8170   -7.0950 C   0  0  1  0  0  0  0  0  0  0  0  0
   -5.2450   23.2990   -7.5870 C   0  0  2  0  0  0  0  0  0  0  0  0
   -1.8020   14.8310   -0.7850 C   0  0  0  0  0  0  0  0  0  0  0  0
   -3.5480   15.1470   -2.1010 C   0  0  0  0  0  0  0  0  0  0  0  0
   -6.4110   21.0760   -7.0880 O   0  0  0  0  0  0  0  0  0  0  0  0
   -6.3670   23.6960   -8.5200 C   0  0  0  0  0  0  0  0  0  0  0  0
   -5.3190   24.1880   -6.4390 O   0  0  0  0  0  0  0  0  0  0  0  0
   -2.9690   15.1100   -0.0820 C   0  0  0  0  0  0  0  0  0  0  0  0
   -0.5970   14.6010   -0.2470 N   0  0  0  0  0  0  0  0  0  0  0  0
   -4.0420   15.2890   -0.9060 N   0  0  0  0  0  0  0  0  0  0  0  0
   -7.2210   22.8630   -8.8100 O   0  0  0  0  0  0  0  0  0  0  0  0
   -6.4250   25.0930   -9.0830 C   0  0  0  0  0  0  0  0  0  0  0  0
   -2.8820   15.1790    1.2930 C   0  0  0  0  0  0  0  0  0  0  0  0
   -0.6380   14.6680    1.0950 C   0  0  0  0  0  0  0  0  0  0  0  0
   -3.9950   15.5100    2.0680 N   0  0  0  0  0  0  0  0  0  0  0  0
   -1.6960   14.9370    1.8840 N   0  0  0  0  0  0  0  0  0  0  0  0
  1  2  1  0
  2  3  1  0
  1  4  2  0
  1  5  1  1
  1  6  1  0
  6  7  1  0
  7  8  2  0
  7  9  1  6
  7 10  1  0
 11  3  1  1
 10 12  1  0
 11 13  1  0
 11 14  1  0
 14 15  1  1
 14 16  1  0
 13 17  1  0
 16 17  1  0
 18 12  1  6
 16 19  1  1
 18 20  1  0
 18 21  1  0
 17 22  1  1
 20 23  1  6
 21 24  1  0
 20 25  1  0
 24 25  1  0
 22 26  1  0
 22 27  1  0
 24 28  1  6
 25 29  1  0
 25 30  1  1
 26 31  2  0
 26 32  1  0
 27 33  2  0
 31 33  1  0
 29 34  2  0
 29 35  1  0
 31 36  1  0
 32 37  2  0
 36 38  1  0
 36 39  2  0
 37 39  1  0
M  END
