
     RDKit          3D

 36 39  0  0  0  0  0  0  0  0999 V2000
   -2.1090   17.8890   -6.2380 P   0  0  0  0  0  0  0  0  0  0  0  0
   -0.6400   19.2010   -8.3840 P   0  0  0  0  0  0  0  0  0  0  0  0
    0.1500   16.5570   -5.5880 C   0  0  0  0  0  0  0  0  0  0  0  0
   -1.1190   17.1070   -5.2230 O   0  0  0  0  0  0  0  0  0  0  0  0
    0.5160   15.3860   -4.6800 C   0  0  1  0  0  0  0  0  0  0  0  0
   -0.0350   15.5400   -3.3710 O   0  0  0  0  0  0  0  0  0  0  0  0
   -0.0390   14.0620   -5.1820 C   0  0  1  0  0  0  0  0  0  0  0  0
    0.9200   13.0420   -4.9320 O   0  0  0  0  0  0  0  0  0  0  0  0
   -1.2670   13.8020   -4.3420 C   0  0  1  0  0  0  0  0  0  0  0  0
   -1.6030   12.4060   -4.3540 O   0  0  0  0  0  0  0  0  0  0  0  0
   -0.8100   14.3810   -3.0000 C   0  0  2  0  0  0  0  0  0  0  0  0
   -2.5800   22.5660  -10.9530 C   0  0  1  0  0  0  0  0  0  0  0  0
   -1.7380   15.5010    2.0440 N   0  0  0  0  0  0  0  0  0  0  0  0
   -3.2540   17.0120   -6.7090 O   0  0  0  0  0  0  0  0  0  0  0  0
    0.8180   19.4920   -8.1720 O   0  0  0  0  0  0  0  0  0  0  0  0
   -3.9430   22.6110  -11.3790 O   0  0  0  0  0  0  0  0  0  0  0  0
   -0.5670   15.1650    1.4470 C   0  0  0  0  0  0  0  0  0  0  0  0
   -1.9450   23.8890  -10.5240 C   0  0  2  0  0  0  0  0  0  0  0  0
   -2.5010   19.2230   -5.5520 O   0  0  0  0  0  0  0  0  0  0  0  0
   -1.2000   18.9400   -9.7510 O   0  0  0  0  0  0  0  0  0  0  0  0
   -1.6580   24.7600  -11.6140 O   0  0  0  0  0  0  0  0  0  0  0  0
   -0.6970   23.4530   -9.7480 C   0  0  2  0  0  0  0  0  0  0  0  0
   -0.4960   14.9000    0.1250 N   0  0  0  0  0  0  0  0  0  0  0  0
   -1.1220   17.9330   -7.5220 O   0  0  0  0  0  0  0  0  0  0  0  0
    0.5510   23.4190  -10.4680 O   0  0  0  0  0  0  0  0  0  0  0  0
   -1.6150   14.9620   -0.6840 C   0  0  0  0  0  0  0  0  0  0  0  0
   -1.0620   22.0320   -9.3710 C   0  0  2  0  0  0  0  0  0  0  0  0
   -2.4310   21.8030   -9.7580 O   0  0  0  0  0  0  0  0  0  0  0  0
   -2.9270   15.3240   -0.0840 C   0  0  0  0  0  0  0  0  0  0  0  0
   -0.8500   21.7260   -7.9080 C   0  0  0  0  0  0  0  0  0  0  0  0
   -1.4170   20.4360   -7.7480 O   0  0  0  0  0  0  0  0  0  0  0  0
   -2.9210   15.6010    1.3770 C   0  0  0  0  0  0  0  0  0  0  0  0
   -4.0650   15.9500    1.9920 N   0  0  0  0  0  0  0  0  0  0  0  0
   -3.8510   15.3200   -1.0770 N   0  0  0  0  0  0  0  0  0  0  0  0
   -3.1960   14.9780   -2.2240 C   0  0  0  0  0  0  0  0  0  0  0  0
   -1.8680   14.7660   -1.9990 N   0  0  0  0  0  0  0  0  0  0  0  0
  1  4  1  0
  1 14  2  0
  1 19  1  0
  1 24  1  0
  4  3  1  0
 24  2  1  0
  2 15  2  0
  2 20  1  0
  2 31  1  0
 31 30  1  0
  5  3  1  6
  5  6  1  0
  5  7  1  0
  6 11  1  0
  7  8  1  1
  7  9  1  0
 11  9  1  0
 11 36  1  1
  9 10  1  1
 36 26  1  0
 36 35  1  0
 12 16  1  1
 12 18  1  0
 12 28  1  0
 18 21  1  6
 18 22  1  0
 28 27  1  0
 13 17  2  0
 13 32  1  0
 17 23  1  0
 32 29  2  0
 32 33  1  0
 23 26  2  0
 22 25  1  6
 22 27  1  0
 27 30  1  1
 26 29  1  0
 29 34  1  0
 34 35  2  0
M  END
