
     RDKit          3D

 12 12  0  0  0  0  0  0  0  0999 V2000
   -1.8870   10.4740   -5.5040 N   0  0  0  0  0  0  0  0  0  0  0  0
   -0.9190    9.0610   -7.3290 C   0  0  0  0  0  0  0  0  0  0  0  0
    0.5930   10.9870   -2.9210 O   0  0  0  0  0  0  0  0  0  0  0  0
   -0.8930   10.2400   -6.4240 C   0  0  0  0  0  0  0  0  0  0  0  0
   -0.3480   12.0240   -5.5160 N   0  0  0  0  0  0  0  0  0  0  0  0
    1.2250   12.8620   -1.9470 O   0  0  0  0  0  0  0  0  0  0  0  0
   -1.5030   11.6120   -4.9770 C   0  0  0  0  0  0  0  0  0  0  0  0
    0.0660   11.1410   -6.4760 N   0  0  0  0  0  0  0  0  0  0  0  0
   -2.2500   12.3760   -3.9440 C   0  0  0  0  0  0  0  0  0  0  0  0
    0.5210   13.1450   -5.1620 C   0  0  0  0  0  0  0  0  0  0  0  0
    1.6410   12.7130   -4.2310 C   0  0  0  0  0  0  0  0  0  0  0  0
    1.1100   12.0860   -2.9760 C   0  0  0  0  0  0  0  0  0  0  0  0
  1  4  1  0
  1  7  2  0
  4  2  1  0
  4  8  2  0
  7  5  1  0
  7  9  1  0
  3 12  2  0
 12  6  1  0
 12 11  1  0
  8  5  1  0
  5 10  1  0
 10 11  1  0
M  END
