mArh-x0895_1_A-mArh-x0910_1_A
     RDKit          3D

 13 14  0  0  0  0  0  0  0  0999 V2000
   -2.2340   15.0180    1.6240 O   0  0  0  0  0  0  0  0  0  0  0  0
   -3.3170   15.0480    1.0200 C   0  0  0  0  0  0  0  0  0  0  0  0
   -3.5690   15.1820   -0.4980 C   0  0  1  0  0  0  0  0  0  0  0  0
   -4.5400   14.9600    1.5840 N   0  0  0  0  0  0  0  0  0  0  0  0
   -2.5690   14.5460   -1.3080 N   0  0  0  0  0  0  0  0  0  0  0  0
   -4.8260   14.5630   -0.5980 N   0  0  0  0  0  0  0  0  0  0  0  0
   -5.4520   14.7130    0.6180 C   0  0  0  0  0  0  0  0  0  0  0  0
   -6.6500   14.6330    0.7930 O   0  0  0  0  0  0  0  0  0  0  0  0
   -1.3890   14.6360   -0.7110 C   0  0  0  0  0  0  0  0  0  0  0  0
   -1.2840   14.3280    0.6070 N   0  0  0  0  0  0  0  0  0  0  0  0
   -0.2320   15.0000   -1.1630 N   0  0  0  0  0  0  0  0  0  0  0  0
   -0.0530   14.5000    1.0620 N   0  0  0  0  0  0  0  0  0  0  0  0
    0.5460   14.9110   -0.0590 C   0  0  0  0  0  0  0  0  0  0  0  0
  1  2  2  0
  2  3  1  0
  2  4  1  0
  3  5  1  6
  3  6  1  0
  4  7  1  0
  6  7  1  0
  7  8  2  0
  5  9  1  0
  9 10  1  0
  9 11  2  0
 10 12  1  0
 11 13  1  0
 12 13  2  0
M  END
