mArh-x0837_0_A-mArh-x0592_0_A
     RDKit          3D

 11 11  0  0  0  0  0  0  0  0999 V2000
   -7.5110   14.3620    0.7190 N   0  0  0  0  0  0  0  0  0  0  0  0
   -8.0160   14.2880    2.0880 C   0  0  0  0  0  0  0  0  0  0  0  0
   -7.3370   15.1180    3.0280 O   0  0  0  0  0  0  0  0  0  0  0  0
   -6.2640   14.6390    0.6080 C   0  0  0  0  0  0  0  0  0  0  0  0
   -5.4390   14.8720    1.6650 N   0  0  0  0  0  0  0  0  0  0  0  0
   -5.6640   14.7040   -0.7930 C   0  0  0  0  0  0  0  0  0  0  0  0
   -4.0500   14.5690    1.5500 C   0  0  0  0  0  0  0  0  0  0  0  0
   -4.2860   15.3760   -0.8590 C   0  0  2  0  0  0  0  0  0  0  0  0
   -3.1590   14.5910   -2.5400 I   0  0  0  0  0  0  0  0  0  0  0  0
   -3.4150   15.3770    0.4370 C   0  0  2  0  0  0  0  0  0  0  0  0
   -2.0580   14.8460    0.2630 N   0  0  0  0  0  0  0  0  0  0  0  0
  1  2  1  0
  2  3  1  0
  1  4  2  3
  4  5  1  0
  4  6  1  0
  5  7  1  0
  6  8  1  0
  8  9  1  6
  7 10  1  0
  8 10  1  0
 10 11  1  6
M  END
