
     RDKit          3D

  7  7  0  0  0  0  0  0  0  0999 V2000
   -3.5060   15.2120   -1.5980 N   0  0  0  0  0  0  0  0  0  0  0  0
   -4.3210   15.1000   -0.8040 C   0  0  0  0  0  0  0  0  0  0  0  0
   -5.3830   14.9400    0.1490 C   0  0  0  0  0  0  0  0  0  0  0  0
   -5.2690   15.0370    1.4250 N   0  0  0  0  0  0  0  0  0  0  0  0
   -6.6540   14.7780    1.9260 C   0  0  0  0  0  0  0  0  0  0  0  0
   -7.5030   14.5500    0.7190 N   0  0  0  0  0  0  0  0  0  0  0  0
   -6.6880   14.6520   -0.2780 C   0  0  0  0  0  0  0  0  0  0  0  0
  1  2  3  0
  2  3  1  0
  3  4  1  0
  3  7  2  0
  4  5  2  0
  7  6  1  0
  5  6  1  0
M  END
