mArh-mac-242_0_A-mArh-x0910_0_A
     RDKit          3D

 16 18  0  0  0  0  0  0  0  0999 V2000
   -3.8530   14.6780    2.0860 N   0  0  0  0  0  0  0  0  0  0  0  0
   -2.7010   14.5290    1.3360 C   0  0  0  0  0  0  0  0  0  0  0  0
   -1.5750   14.4160    2.0310 N   0  0  0  0  0  0  0  0  0  0  0  0
   -2.7630   14.5100   -0.0310 C   0  0  0  0  0  0  0  0  0  0  0  0
   -1.5240   14.3880   -0.6890 C   0  0  0  0  0  0  0  0  0  0  0  0
   -0.3920   14.2840    1.4280 C   0  0  0  0  0  0  0  0  0  0  0  0
   -4.1110   14.6070   -0.7740 C   0  0  2  0  0  0  0  0  0  0  0  0
   -0.1920   14.2560    0.0660 C   0  0  0  0  0  0  0  0  0  0  0  0
   -1.4850   14.3900   -2.1290 C   0  0  0  0  0  0  0  0  0  0  0  0
   -4.1070   14.0760   -2.2130 C   0  0  0  0  0  0  0  0  0  0  0  0
   -4.7690   15.9330   -0.7990 N   0  0  0  0  0  0  0  0  0  0  0  0
   -5.1230   13.8180    0.0040 N   0  0  0  0  0  0  0  0  0  0  0  0
   -2.7780   14.2510   -2.9260 C   0  0  0  0  0  0  0  0  0  0  0  0
   -6.1760   14.6900    0.4090 C   0  0  1  0  0  0  0  0  0  0  0  0
   -6.1900   15.6230   -0.6710 N   0  0  0  0  0  0  0  0  0  0  0  0
   -7.4230   13.9960    0.4660 N   0  0  0  0  0  0  0  0  0  0  0  0
  1  2  1  0
  2  3  2  0
  2  4  1  0
  4  5  2  0
  3  6  1  0
  4  7  1  0
  5  8  1  0
  6  8  2  0
  5  9  1  0
  7 10  1  6
  7 11  1  0
  7 12  1  0
  9 13  2  0
 10 13  1  0
 12 14  1  0
 11 15  1  0
 14 15  1  0
 14 16  1  6
M  END
