
     RDKit          3D

  7  7  0  0  0  0  0  0  0  0999 V2000
   19.8860   12.5370   -5.3330 N   0  0  0  0  0  0  0  0  0  0  0  0
   20.4730   12.8550   -4.2370 C   0  0  0  0  0  0  0  0  0  0  0  0
   21.1550   12.0410   -1.9710 C   0  0  0  0  0  0  0  0  0  0  0  0
   20.4750   11.9250   -3.2620 N   0  0  0  0  0  0  0  0  0  0  0  0
   21.4130   13.5030   -1.6270 C   0  0  0  0  0  0  0  0  0  0  0  0
   21.1100   14.0190   -4.0180 N   0  0  0  0  0  0  0  0  0  0  0  0
   21.8340   14.3830   -2.7960 C   0  0  0  0  0  0  0  0  0  0  0  0
  1  2  1  0
  2  4  1  0
  2  6  1  0
  4  3  1  0
  6  7  1  0
  3  5  1  0
  5  7  1  0
M  END
