
     RDKit          3D

  8  8  0  0  0  0  0  0  0  0999 V2000
   -5.7550   14.9110    1.1710 N   0  0  0  0  0  0  0  0  0  0  0  0
   -6.3710   14.9320   -0.0520 C   0  0  0  0  0  0  0  0  0  0  0  0
   -7.6070   14.9070   -0.1080 O   0  0  0  0  0  0  0  0  0  0  0  0
   -5.5140   15.0150   -1.1670 C   0  0  0  0  0  0  0  0  0  0  0  0
   -4.1750   15.0430   -1.0010 C   0  0  0  0  0  0  0  0  0  0  0  0
   -3.5810   15.0490    0.2870 C   0  0  0  0  0  0  0  0  0  0  0  0
   -4.4110   14.9850    1.3420 C   0  0  0  0  0  0  0  0  0  0  0  0
   -3.0620   14.9580   -2.5190 Br  0  0  0  0  0  0  0  0  0  0  0  0
  1  2  1  0
  1  7  1  0
  2  3  2  0
  2  4  1  0
  7  6  2  0
  4  5  2  0
  5  6  1  0
  5  8  1  0
M  END
