mArh-x0918_0_B-mArh-5cb5_M_1_M
     RDKit          3D

 48 52  0  0  0  0  0  0  0  0999 V2000
   -2.8770   23.4470  -12.8920 N   0  0  0  0  0  0  0  0  0  0  0  0
   -3.6010   24.5360  -13.2940 C   0  0  0  0  0  0  0  0  0  0  0  0
   -3.3710   24.9980  -14.5710 C   0  0  0  0  0  0  0  0  0  0  0  0
   -4.5220   25.1560  -12.4850 C   0  0  0  0  0  0  0  0  0  0  0  0
   -5.1820   26.2400  -13.0460 C   0  0  0  0  0  0  0  0  0  0  0  0
   -4.0620   26.0760  -15.0370 C   0  0  0  0  0  0  0  0  0  0  0  0
   -4.7960   24.6980  -11.0850 C   0  0  0  0  0  0  0  0  0  0  0  0
   -4.9750   26.7130  -14.2990 N   0  0  0  0  0  0  0  0  0  0  0  0
   -5.2600   23.2580  -10.9080 C   0  0  0  0  0  0  0  0  0  0  0  0
   -5.4350   22.9480   -9.5080 O   0  0  0  0  0  0  0  0  0  0  0  0
   -4.3460   22.9720   -8.5520 C   0  0  1  0  0  0  0  0  0  0  0  0
   -4.8290   23.0730   -7.1340 C   0  0  1  0  0  0  0  0  0  0  0  0
   -3.7320   21.5750   -8.4210 C   0  0  1  0  0  0  0  0  0  0  0  0
   -5.8700   24.0380   -7.0640 O   0  0  0  0  0  0  0  0  0  0  0  0
   -2.4190   21.4080   -7.6490 C   0  0  0  0  0  0  0  0  0  0  0  0
   -5.5010   21.7120   -7.0470 C   0  0  1  0  0  0  0  0  0  0  0  0
   -4.7220   20.7870   -7.7780 O   0  0  0  0  0  0  0  0  0  0  0  0
   -1.5810   20.5680   -8.4250 O   0  0  0  0  0  0  0  0  0  0  0  0
   -6.5340   24.0450   -8.2510 C   0  0  0  0  0  0  0  0  0  0  0  0
   -5.6430   21.3100   -5.7160 O   0  0  0  0  0  0  0  0  0  0  0  0
   -0.3330   19.8460   -7.7890 P   0  0  2  0  0  0  0  0  0  0  0  0
   -6.3450   25.3120   -8.9660 C   0  0  0  0  0  0  0  0  0  0  0  0
   -7.1730   23.1290   -8.7120 O   0  0  0  0  0  0  0  0  0  0  0  0
    0.0650   18.6510   -8.5870 O   0  0  0  0  0  0  0  0  0  0  0  0
   -0.9290   19.6910   -6.3670 O   0  0  0  0  0  0  0  0  0  0  0  0
    0.7850   20.9570   -7.6540 O   0  0  0  0  0  0  0  0  0  0  0  0
   -1.5240   18.3130   -6.0790 P   0  0  2  0  0  0  0  0  0  0  0  0
   -0.2570   17.4140   -6.3940 O   0  0  0  0  0  0  0  0  0  0  0  0
   -2.7520   17.9440   -6.8080 O   0  0  0  0  0  0  0  0  0  0  0  0
   -1.7280   18.3290   -4.4990 O   0  0  0  0  0  0  0  0  0  0  0  0
    0.5590   16.9040   -5.3690 C   0  0  0  0  0  0  0  0  0  0  0  0
   -0.2370   15.7910   -4.7750 C   0  0  2  0  0  0  0  0  0  0  0  0
   -0.3910   15.8960   -3.3570 O   0  0  0  0  0  0  0  0  0  0  0  0
    0.0270   14.3100   -5.0960 C   0  0  1  0  0  0  0  0  0  0  0  0
    1.3320   13.8290   -4.8110 O   0  0  0  0  0  0  0  0  0  0  0  0
   -0.9810   13.7420   -4.1010 C   0  0  2  0  0  0  0  0  0  0  0  0
   -1.5020   15.0150   -3.2980 C   0  0  1  0  0  0  0  0  0  0  0  0
   -0.3130   12.7590   -3.3020 O   0  0  0  0  0  0  0  0  0  0  0  0
   -2.1780   15.0350   -2.0310 N   0  0  0  0  0  0  0  0  0  0  0  0
   -1.6540   14.9600   -0.7620 C   0  0  0  0  0  0  0  0  0  0  0  0
   -3.5300   15.1470   -1.9180 C   0  0  0  0  0  0  0  0  0  0  0  0
   -2.7770   15.0270    0.0540 C   0  0  0  0  0  0  0  0  0  0  0  0
   -0.3710   14.8460   -0.3640 N   0  0  0  0  0  0  0  0  0  0  0  0
   -3.9300   15.1470   -0.6780 N   0  0  0  0  0  0  0  0  0  0  0  0
   -2.5760   14.9630    1.4250 C   0  0  0  0  0  0  0  0  0  0  0  0
   -0.3040   14.7900    0.9840 C   0  0  0  0  0  0  0  0  0  0  0  0
   -3.6800   15.0270    2.3920 N   0  0  0  0  0  0  0  0  0  0  0  0
   -1.3110   14.8340    1.8770 N   0  0  0  0  0  0  0  0  0  0  0  0
  1  2  1  0
  2  3  2  0
  2  4  1  0
  4  5  2  0
  3  6  1  0
  4  7  1  0
  5  8  1  0
  6  8  2  0
  7  9  1  0
  9 10  1  0
 11 10  1  6
 11 12  1  0
 11 13  1  0
 12 14  1  6
 13 15  1  1
 12 16  1  0
 13 17  1  0
 16 17  1  0
 15 18  1  0
 14 19  1  0
 16 20  1  1
 18 21  1  0
 19 22  1  0
 19 23  2  0
 21 24  2  0
 21 25  1  0
 21 26  1  1
 25 27  1  0
 27 28  1  0
 27 29  2  0
 27 30  1  1
 28 31  1  0
 32 31  1  1
 32 33  1  0
 32 34  1  0
 34 35  1  1
 34 36  1  0
 33 37  1  0
 36 37  1  0
 36 38  1  1
 37 39  1  1
 39 40  1  0
 39 41  1  0
 40 42  2  0
 40 43  1  0
 41 44  2  0
 42 44  1  0
 42 45  1  0
 43 46  2  0
 45 47  1  0
 45 48  2  0
 46 48  1  0
M  END
