mArh-5cms_K_10_K-mArh-5cms_L_11_L
     RDKit          3D

 38 41  0  0  0  0  0  0  0  0999 V2000
   -1.5910   18.2780   -5.9730 P   0  0  1  0  0  0  0  0  0  0  0  0
   -0.9130   17.3590   -4.8830 O   0  0  0  0  0  0  0  0  0  0  0  0
    0.2560   16.6200   -5.2180 C   0  0  0  0  0  0  0  0  0  0  0  0
   -2.4890   17.5490   -6.9130 O   0  0  0  0  0  0  0  0  0  0  0  0
   -2.3670   19.3110   -5.0350 O   0  0  0  0  0  0  0  0  0  0  0  0
   -0.3570   19.0570   -6.5290 O   0  0  0  0  0  0  0  0  0  0  0  0
   -0.2320   19.7960   -7.8840 P   0  0  1  0  0  0  0  0  0  0  0  0
    0.7860   20.8800   -7.9070 O   0  0  0  0  0  0  0  0  0  0  0  0
    0.0740   18.6220   -8.9140 O   0  0  0  0  0  0  0  0  0  0  0  0
   -1.6880   20.3010   -8.2730 O   0  0  0  0  0  0  0  0  0  0  0  0
   -0.1100   15.2780   -4.6450 C   0  0  2  0  0  0  0  0  0  0  0  0
   -1.7680   21.6860   -8.5010 C   0  0  0  0  0  0  0  0  0  0  0  0
    0.0910   15.3770   -3.2390 O   0  0  0  0  0  0  0  0  0  0  0  0
    0.4310   13.8960   -5.0210 C   0  0  0  0  0  0  0  0  0  0  0  0
    1.8060   13.6520   -4.8760 O   0  0  0  0  0  0  0  0  0  0  0  0
    0.1320   13.4750   -6.3420 O   0  0  0  0  0  0  0  0  0  0  0  0
   -0.3750   13.1220   -3.9640 C   0  0  1  0  0  0  0  0  0  0  0  0
   -0.4140   14.1250   -2.7840 C   0  0  2  0  0  0  0  0  0  0  0  0
   -3.1870   22.2290   -8.5910 C   0  0  1  0  0  0  0  0  0  0  0  0
   -1.6360   12.6340   -4.4520 O   0  0  0  0  0  0  0  0  0  0  0  0
   -3.2560   23.7100   -8.8640 C   0  0  1  0  0  0  0  0  0  0  0  0
   -4.1830   21.6720   -9.5110 N   0  0  0  0  0  0  0  0  0  0  0  0
   -1.6000   14.4550   -2.0120 N   0  0  0  0  0  0  0  0  0  0  0  0
   -1.9630   24.2570   -8.8820 O   0  0  0  0  0  0  0  0  0  0  0  0
   -5.4170   21.9340   -8.8030 O   0  0  0  0  0  0  0  0  0  0  0  0
   -4.3090   22.4880  -10.7110 C   0  0  2  0  0  0  0  0  0  0  0  0
   -4.1750   23.8910  -10.1240 C   0  0  2  0  0  0  0  0  0  0  0  0
   -1.5700   14.5560   -0.6720 C   0  0  0  0  0  0  0  0  0  0  0  0
   -2.8860   14.7240   -2.4240 C   0  0  0  0  0  0  0  0  0  0  0  0
   -5.5910   22.3680  -11.2810 O   0  0  0  0  0  0  0  0  0  0  0  0
   -3.7570   24.8830  -11.1010 O   0  0  0  0  0  0  0  0  0  0  0  0
   -2.8540   14.8910   -0.2800 C   0  0  0  0  0  0  0  0  0  0  0  0
   -0.4830   14.3620    0.0780 N   0  0  0  0  0  0  0  0  0  0  0  0
   -3.6810   14.9960   -1.3890 N   0  0  0  0  0  0  0  0  0  0  0  0
   -3.0440   15.0500    1.1030 C   0  0  0  0  0  0  0  0  0  0  0  0
   -0.7740   14.5250    1.3720 C   0  0  0  0  0  0  0  0  0  0  0  0
   -4.2610   15.3980    1.6780 N   0  0  0  0  0  0  0  0  0  0  0  0
   -1.9700   14.8470    1.9160 N   0  0  0  0  0  0  0  0  0  0  0  0
  1  2  1  0
  2  3  1  0
  1  4  2  0
  1  5  1  1
  1  6  1  0
  6  7  1  0
  7  8  2  0
  7  9  1  6
  7 10  1  0
 11  3  1  6
 10 12  1  0
 11 13  1  0
 11 14  1  0
 14 15  1  0
 14 16  1  0
 14 17  1  0
 13 18  1  0
 17 18  1  0
 19 12  1  6
 17 20  1  6
 19 21  1  0
 19 22  1  0
 18 23  1  6
 21 24  1  6
 22 25  1  0
 22 26  1  0
 21 27  1  0
 26 27  1  0
 23 28  1  0
 23 29  1  0
 26 30  1  1
 27 31  1  6
 28 32  2  0
 28 33  1  0
 29 34  2  0
 32 34  1  0
 32 35  1  0
 33 36  2  0
 35 37  1  0
 35 38  2  0
 36 38  1  0
M  END
