mArh-x0926_0_A-mArh-5cb3_0_A
     RDKit          3D

 38 41  0  0  0  0  0  0  0  0999 V2000
   -5.9670   15.8350   -1.0370 O   0  0  0  0  0  0  0  0  0  0  0  0
   -4.9280   15.2050   -1.2090 C   0  0  0  0  0  0  0  0  0  0  0  0
   -4.7610   13.9310   -0.5130 C   0  0  0  0  0  0  0  0  0  0  0  0
   -3.8680   15.5840   -2.0480 N   0  0  0  0  0  0  0  0  0  0  0  0
   -2.4650   15.0350   -2.0020 C   0  0  2  0  0  0  0  0  0  0  0  0
   -3.5420   13.5350   -0.2160 C   0  0  0  0  0  0  0  0  0  0  0  0
   -2.3570   14.4160   -0.5570 C   0  0  2  0  0  0  0  0  0  0  0  0
   -1.4900   16.1260   -2.2610 O   0  0  0  0  0  0  0  0  0  0  0  0
   -2.1460   14.0680   -3.2830 C   0  0  2  0  0  0  0  0  0  0  0  0
   -1.9660   12.6680   -3.0250 O   0  0  0  0  0  0  0  0  0  0  0  0
   -0.4540   15.7590   -3.2470 C   0  0  1  0  0  0  0  0  0  0  0  0
   -0.9950   14.5390   -3.9370 C   0  0  1  0  0  0  0  0  0  0  0  0
   -2.5330   15.1890    0.7880 C   0  0  2  0  0  0  0  0  0  0  0  0
   -0.9940   13.6930   -0.3740 C   0  0  0  0  0  0  0  0  0  0  0  0
   -0.0610   16.9020   -4.1950 C   0  0  0  0  0  0  0  0  0  0  0  0
    0.0190   13.5150   -4.0650 O   0  0  0  0  0  0  0  0  0  0  0  0
   -3.4340   16.3030    0.9140 N   0  0  0  0  0  0  0  0  0  0  0  0
   -1.2800   15.4210    1.4180 N   0  0  0  0  0  0  0  0  0  0  0  0
    0.1400   14.6170   -0.2470 N   0  0  0  0  0  0  0  0  0  0  0  0
   -0.7380   16.7870   -5.4450 O   0  0  0  0  0  0  0  0  0  0  0  0
   -0.2170   15.7430    0.5200 C   0  0  0  0  0  0  0  0  0  0  0  0
   -1.4880   18.0740   -6.0030 P   0  0  1  0  0  0  0  0  0  0  0  0
   -2.5540   17.7620   -6.9490 O   0  0  0  0  0  0  0  0  0  0  0  0
   -1.9390   18.7530   -4.6570 O   0  0  0  0  0  0  0  0  0  0  0  0
   -0.3350   19.0090   -6.4970 O   0  0  0  0  0  0  0  0  0  0  0  0
   -0.1990   19.7900   -7.8470 P   0  0  1  0  0  0  0  0  0  0  0  0
    0.8710   20.9730   -7.8630 O   0  0  0  0  0  0  0  0  0  0  0  0
    0.0360   18.6850   -8.8260 O   0  0  0  0  0  0  0  0  0  0  0  0
   -1.6750   20.2260   -8.2490 O   0  0  0  0  0  0  0  0  0  0  0  0
   -2.0550   21.5870   -8.1000 C   0  0  0  0  0  0  0  0  0  0  0  0
   -3.4370   21.8970   -8.6930 C   0  0  2  0  0  0  0  0  0  0  0  0
   -3.8500   23.3380   -8.3860 C   0  0  1  0  0  0  0  0  0  0  0  0
   -4.4420   21.0400   -8.0870 O   0  0  0  0  0  0  0  0  0  0  0  0
   -4.7050   23.9120   -9.3610 O   0  0  0  0  0  0  0  0  0  0  0  0
   -5.2830   21.8590   -7.2650 C   0  0  2  0  0  0  0  0  0  0  0  0
   -4.5270   23.1610   -7.0400 C   0  0  2  0  0  0  0  0  0  0  0  0
   -5.4920   21.2820   -5.9870 O   0  0  0  0  0  0  0  0  0  0  0  0
   -5.4720   24.2140   -6.7750 O   0  0  0  0  0  0  0  0  0  0  0  0
  1  2  2  0
  2  3  1  0
  2  4  1  0
  5  4  1  6
  3  6  2  0
  5  7  1  0
  7  6  1  6
  5  8  1  0
  5  9  1  0
  9 10  1  1
  8 11  1  0
  9 12  1  0
 11 12  1  0
  7 13  1  0
  7 14  1  0
 11 15  1  6
 12 16  1  1
 13 17  1  6
 13 18  1  0
 14 19  1  0
 15 20  1  0
 18 21  1  0
 19 21  1  0
 20 22  1  0
 22 23  2  0
 22 24  1  1
 22 25  1  0
 25 26  1  0
 26 27  2  0
 26 28  1  6
 26 29  1  0
 29 30  1  0
 31 30  1  1
 31 32  1  0
 31 33  1  0
 32 34  1  6
 33 35  1  0
 32 36  1  0
 35 36  1  0
 35 37  1  1
 36 38  1  6
M  END
