mArh-5cb5_R_0_R-mArh-3ew5_C_0_C
     RDKit          3D

 38 42  0  0  0  0  0  0  0  0999 V2000
   -1.4470   18.0580   -6.0640 P   0  0  1  0  0  0  0  0  0  0  0  0
   -0.4890   16.8060   -5.8290 O   0  0  0  0  0  0  0  0  0  0  0  0
    0.6620   16.8870   -5.0020 C   0  0  0  0  0  0  0  0  0  0  0  0
   -2.6180   17.7930   -6.9380 O   0  0  0  0  0  0  0  0  0  0  0  0
   -1.8970   18.4120   -4.5920 O   0  0  0  0  0  0  0  0  0  0  0  0
   -0.5560   19.2920   -6.4100 O   0  0  0  0  0  0  0  0  0  0  0  0
   -0.0390   19.8600   -7.7690 P   0  0  1  0  0  0  0  0  0  0  0  0
    1.1450   20.7630   -7.6550 O   0  0  0  0  0  0  0  0  0  0  0  0
    0.1560   18.6090   -8.7550 O   0  0  0  0  0  0  0  0  0  0  0  0
   -1.2850   20.6080   -8.3770 O   0  0  0  0  0  0  0  0  0  0  0  0
    0.9630   15.5530   -4.3020 C   0  0  1  0  0  0  0  0  0  0  0  0
   -1.9340   21.3920   -7.4150 C   0  0  1  0  0  0  0  0  0  0  0  0
    0.2900   15.5180   -3.0220 O   0  0  0  0  0  0  0  0  0  0  0  0
    0.4180   14.2850   -5.0170 C   0  0  1  0  0  0  0  0  0  0  0  0
    1.3100   13.1800   -4.8900 O   0  0  0  0  0  0  0  0  0  0  0  0
   -2.4930   22.5790   -8.0720 C   0  0  0  0  0  0  0  0  0  0  0  0
   -0.7880   14.0470   -4.3160 C   0  0  2  0  0  0  0  0  0  0  0  0
   -1.0180   15.0210   -3.3600 C   0  0  1  0  0  0  0  0  0  0  0  0
   -3.0620   20.6560   -6.7290 C   0  0  0  0  0  0  0  0  0  0  0  0
   -0.7010   12.7330   -3.7630 O   0  0  0  0  0  0  0  0  0  0  0  0
   -3.7670   22.1860   -8.7550 C   0  0  2  0  0  0  0  0  0  0  0  0
   -4.2870   21.3880   -6.5460 O   0  0  0  0  0  0  0  0  0  0  0  0
   -1.9200   14.9590   -2.2250 N   0  0  0  0  0  0  0  0  0  0  0  0
   -4.1420   23.2140   -9.8240 C   0  0  0  0  0  0  0  0  0  0  0  0
   -4.8020   22.0750   -7.6830 C   0  0  1  0  0  0  0  0  0  0  0  0
   -1.5700   14.8790   -0.8900 C   0  0  0  0  0  0  0  0  0  0  0  0
   -3.2860   15.0160   -2.2850 C   0  0  0  0  0  0  0  0  0  0  0  0
   -5.3300   23.9850   -9.7050 O   0  0  0  0  0  0  0  0  0  0  0  0
   -5.0650   23.5340   -7.4030 C   0  0  2  0  0  0  0  0  0  0  0  0
   -2.7900   14.9370   -0.2160 C   0  0  0  0  0  0  0  0  0  0  0  0
   -0.3460   14.7940   -0.3390 N   0  0  0  0  0  0  0  0  0  0  0  0
   -3.8400   15.0060   -1.0950 N   0  0  0  0  0  0  0  0  0  0  0  0
   -5.5870   23.8960   -6.1440 O   0  0  0  0  0  0  0  0  0  0  0  0
   -6.0230   23.8400   -8.5000 C   0  0  0  0  0  0  0  0  0  0  0  0
   -2.7460   14.9330    1.1770 C   0  0  0  0  0  0  0  0  0  0  0  0
   -0.4410   14.7740    1.0130 C   0  0  0  0  0  0  0  0  0  0  0  0
   -3.8990   15.0420    1.9300 N   0  0  0  0  0  0  0  0  0  0  0  0
   -1.5440   14.8350    1.7870 N   0  0  0  0  0  0  0  0  0  0  0  0
  1  2  1  0
  2  3  1  0
  1  4  2  0
  1  5  1  1
  1  6  1  0
  6  7  1  0
  7  8  2  0
  7  9  1  6
  7 10  1  0
 11  3  1  6
 12 10  1  6
 11 13  1  0
 11 14  1  0
 14 15  1  1
 12 16  1  0
 14 17  1  0
 13 18  1  0
 17 18  1  0
 12 19  1  0
 17 20  1  1
 21 16  1  1
 19 22  1  0
 18 23  1  1
 21 24  1  0
 21 25  1  0
 25 22  1  1
 23 26  1  0
 23 27  1  0
 24 28  1  0
 25 29  1  0
 26 30  2  0
 26 31  1  0
 27 32  2  0
 30 32  1  0
 29 33  1  1
 28 34  1  0
 29 34  1  0
 30 35  1  0
 31 36  2  0
 35 37  1  0
 35 38  2  0
 36 38  1  0
M  END
