
     RDKit          3D

  7  7  0  0  0  0  0  0  0  0999 V2000
   17.7080   33.2590    7.4710 N   0  0  0  0  0  0  0  0  0  0  0  0
   17.2670   32.0360    7.4960 C   0  0  0  0  0  0  0  0  0  0  0  0
   15.8270   30.3230    6.3670 C   0  0  0  0  0  0  0  0  0  0  0  0
   16.4570   31.6380    6.4900 N   0  0  0  0  0  0  0  0  0  0  0  0
   16.5480   29.3020    7.1870 C   0  0  0  0  0  0  0  0  0  0  0  0
   17.5230   31.1520    8.4780 N   0  0  0  0  0  0  0  0  0  0  0  0
   16.9310   29.8180    8.5620 C   0  0  0  0  0  0  0  0  0  0  0  0
  1  2  1  0
  2  4  1  0
  2  6  1  0
  4  3  1  0
  6  7  1  0
  3  5  1  0
  5  7  1  0
M  END
