mArh-x0962_2_B-mArh-x0371_0_A
     RDKit          3D

 24 27  0  0  0  0  0  0  0  0999 V2000
  -11.4220   16.0920    2.9330 N   0  0  0  0  0  0  0  0  0  0  0  0
  -10.0320   15.6820    2.6750 C   0  0  1  0  0  0  0  0  0  0  0  0
   -8.8510   16.2940    3.4850 C   0  0  2  0  0  0  0  0  0  0  0  0
   -9.5910   14.4490    3.2590 C   0  0  0  0  0  0  0  0  0  0  0  0
   -7.7180   15.4120    3.0260 N   0  0  0  0  0  0  0  0  0  0  0  0
   -8.8730   14.6230    4.3960 N   0  0  0  0  0  0  0  0  0  0  0  0
   -9.6300   13.1150    3.0440 C   0  0  0  0  0  0  0  0  0  0  0  0
   -8.8600   16.1620    5.0040 C   0  0  0  0  0  0  0  0  0  0  0  0
   -7.9710   14.5920    1.8160 C   0  0  0  0  0  0  0  0  0  0  0  0
   -8.4870   13.4190    4.8390 C   0  0  0  0  0  0  0  0  0  0  0  0
   -8.9280   12.4750    4.0460 N   0  0  0  0  0  0  0  0  0  0  0  0
   -7.8700   15.3550    5.5390 O   0  0  0  0  0  0  0  0  0  0  0  0
   -9.6220   16.6600    6.0330 C   0  0  0  0  0  0  0  0  0  0  0  0
   -6.8310   14.7130    0.8740 C   0  0  0  0  0  0  0  0  0  0  0  0
   -9.0180   16.0790    7.3090 C   0  0  0  0  0  0  0  0  0  0  0  0
   -7.9700   15.3080    6.8890 C   0  0  0  0  0  0  0  0  0  0  0  0
   -5.5590   14.6190    1.3880 N   0  0  0  0  0  0  0  0  0  0  0  0
   -6.8540   14.9190   -0.4440 N   0  0  0  0  0  0  0  0  0  0  0  0
   -5.5340   14.9720   -0.8140 C   0  0  0  0  0  0  0  0  0  0  0  0
   -4.6690   14.7740    0.3890 C   0  0  0  0  0  0  0  0  0  0  0  0
   -3.2960   14.7740    0.3350 C   0  0  0  0  0  0  0  0  0  0  0  0
   -4.9100   15.1660   -2.0420 C   0  0  0  0  0  0  0  0  0  0  0  0
   -2.7440   14.9700   -0.9320 C   0  0  0  0  0  0  0  0  0  0  0  0
   -3.5190   15.1640   -2.0940 C   0  0  0  0  0  0  0  0  0  0  0  0
  2  1  1  1
  2  3  1  0
  2  4  1  0
  3  5  1  6
  4  6  1  0
  4  7  2  0
  3  8  1  0
  5  9  1  0
  6 10  1  0
  7 11  1  0
 10 11  2  0
  8 12  1  0
  8 13  2  0
  9 14  1  0
 13 15  1  0
 12 16  1  0
 15 16  2  0
 14 17  1  0
 14 18  2  0
 18 19  1  0
 17 20  1  0
 19 20  2  0
 20 21  1  0
 19 22  1  0
 21 23  2  0
 22 24  2  0
 23 24  1  0
M  END
