
     RDKit          3D

 36 39  0  0  0  0  0  0  0  0999 V2000
   -1.4200   18.1510   -5.8130 P   0  0  0  0  0  0  0  0  0  0  0  0
    0.0220   19.7650   -7.7710 P   0  0  0  0  0  0  0  0  0  0  0  0
    0.8140   17.0110   -5.0230 C   0  0  0  0  0  0  0  0  0  0  0  0
   -0.4020   16.9050   -5.8060 O   0  0  0  0  0  0  0  0  0  0  0  0
    1.1400   15.6820   -4.3820 C   0  0  1  0  0  0  0  0  0  0  0  0
    0.4570   15.5700   -3.1060 O   0  0  0  0  0  0  0  0  0  0  0  0
    0.7200   14.4340   -5.1720 C   0  0  1  0  0  0  0  0  0  0  0  0
    1.6460   13.3910   -4.9460 O   0  0  0  0  0  0  0  0  0  0  0  0
   -0.6090   14.0600   -4.5170 C   0  0  1  0  0  0  0  0  0  0  0  0
   -0.9310   12.7040   -4.7220 O   0  0  0  0  0  0  0  0  0  0  0  0
   -0.2750   14.3640   -3.0650 C   0  0  2  0  0  0  0  0  0  0  0  0
   -4.8400   21.9660   -6.8060 C   0  0  1  0  0  0  0  0  0  0  0  0
   -1.6550   14.5130    1.8280 N   0  0  0  0  0  0  0  0  0  0  0  0
   -1.7950   18.4840   -4.4030 O   0  0  0  0  0  0  0  0  0  0  0  0
    1.1160   20.7620   -7.6000 O   0  0  0  0  0  0  0  0  0  0  0  0
   -5.1890   21.3410   -5.6190 O   0  0  0  0  0  0  0  0  0  0  0  0
   -0.5110   14.2070    1.2160 C   0  0  0  0  0  0  0  0  0  0  0  0
   -4.2390   23.3530   -6.5750 C   0  0  2  0  0  0  0  0  0  0  0  0
   -2.4790   17.8530   -6.8170 O   0  0  0  0  0  0  0  0  0  0  0  0
    0.2490   18.4850   -8.4980 O   0  0  0  0  0  0  0  0  0  0  0  0
   -5.2110   24.3560   -6.4000 O   0  0  0  0  0  0  0  0  0  0  0  0
   -3.4600   23.5710   -7.8610 C   0  0  2  0  0  0  0  0  0  0  0  0
   -0.2340   14.1770   -0.0830 N   0  0  0  0  0  0  0  0  0  0  0  0
   -0.5110   19.3650   -6.3210 O   0  0  0  0  0  0  0  0  0  0  0  0
   -4.3330   24.0200   -8.8890 O   0  0  0  0  0  0  0  0  0  0  0  0
   -1.3130   14.5020   -0.8050 C   0  0  0  0  0  0  0  0  0  0  0  0
   -2.9770   22.1530   -8.1890 C   0  0  2  0  0  0  0  0  0  0  0  0
   -3.8190   21.2500   -7.4430 O   0  0  0  0  0  0  0  0  0  0  0  0
   -2.5610   14.8280   -0.3320 C   0  0  0  0  0  0  0  0  0  0  0  0
   -1.5490   21.8220   -7.8430 C   0  0  0  0  0  0  0  0  0  0  0  0
   -1.2360   20.5210   -8.4020 O   0  0  0  0  0  0  0  0  0  0  0  0
   -2.7330   14.8160    1.0630 C   0  0  0  0  0  0  0  0  0  0  0  0
   -3.8710   15.1290    1.6680 N   0  0  0  0  0  0  0  0  0  0  0  0
   -3.4200   15.1060   -1.3900 N   0  0  0  0  0  0  0  0  0  0  0  0
   -2.6860   14.9550   -2.4660 C   0  0  0  0  0  0  0  0  0  0  0  0
   -1.3870   14.5730   -2.1670 N   0  0  0  0  0  0  0  0  0  0  0  0
  1  4  1  0
  1 14  2  0
  1 19  1  0
  1 24  1  0
  4  3  1  0
 24  2  1  0
  2 15  2  0
  2 20  1  0
  2 31  1  0
 31 30  1  0
  5  3  1  6
  5  6  1  0
  5  7  1  0
  6 11  1  0
  7  8  1  1
  7  9  1  0
 11  9  1  0
 11 36  1  1
  9 10  1  1
 36 26  1  0
 36 35  1  0
 12 16  1  1
 12 18  1  0
 12 28  1  0
 18 21  1  6
 18 22  1  0
 28 27  1  0
 13 17  2  0
 13 32  1  0
 17 23  1  0
 32 29  2  0
 32 33  1  0
 23 26  2  0
 22 25  1  6
 22 27  1  0
 27 30  1  1
 26 29  1  0
 29 34  1  0
 34 35  2  0
M  END
