mArh-5cb5_E_0_E-mArh-5cb5_B_0_B
     RDKit          3D

 36 39  0  0  0  0  0  0  0  0999 V2000
   -1.6010   18.3170   -6.2470 P   0  0  1  0  0  0  0  0  0  0  0  0
   -0.1800   17.5940   -6.3960 O   0  0  0  0  0  0  0  0  0  0  0  0
    0.4620   16.9530   -5.3060 C   0  0  0  0  0  0  0  0  0  0  0  0
   -2.7390   17.6010   -6.8780 O   0  0  0  0  0  0  0  0  0  0  0  0
   -1.7790   18.5540   -4.6790 O   0  0  0  0  0  0  0  0  0  0  0  0
   -1.3500   19.7700   -6.7770 O   0  0  0  0  0  0  0  0  0  0  0  0
   -0.3430   20.0070   -7.9750 P   0  0  1  0  0  0  0  0  0  0  0  0
    0.9210   20.7180   -7.6660 O   0  0  0  0  0  0  0  0  0  0  0  0
   -0.1520   18.5890   -8.6940 O   0  0  0  0  0  0  0  0  0  0  0  0
   -1.2830   20.7330   -9.0260 O   0  0  0  0  0  0  0  0  0  0  0  0
   -0.3820   15.8060   -4.7590 C   0  0  2  0  0  0  0  0  0  0  0  0
   -1.7990   21.9720   -8.6050 C   0  0  0  0  0  0  0  0  0  0  0  0
   -0.2380   15.6960   -3.3470 O   0  0  0  0  0  0  0  0  0  0  0  0
   -0.1590   14.3600   -5.2040 C   0  0  1  0  0  0  0  0  0  0  0  0
    1.1240   13.8650   -4.8010 O   0  0  0  0  0  0  0  0  0  0  0  0
   -1.2010   13.7020   -4.3230 C   0  0  2  0  0  0  0  0  0  0  0  0
   -0.8610   14.4380   -3.0210 C   0  0  2  0  0  0  0  0  0  0  0  0
   -3.2720   22.0890   -8.9660 C   0  0  2  0  0  0  0  0  0  0  0  0
   -1.0050   12.2980   -4.2560 O   0  0  0  0  0  0  0  0  0  0  0  0
   -3.7750   23.5040   -8.7200 C   0  0  1  0  0  0  0  0  0  0  0  0
   -4.0780   21.2160   -8.1490 O   0  0  0  0  0  0  0  0  0  0  0  0
   -1.8770   14.7000   -2.0480 N   0  0  0  0  0  0  0  0  0  0  0  0
   -4.4080   24.1370   -9.8100 O   0  0  0  0  0  0  0  0  0  0  0  0
   -5.2190   21.9370   -7.6800 C   0  0  2  0  0  0  0  0  0  0  0  0
   -4.7720   23.3830   -7.5850 C   0  0  2  0  0  0  0  0  0  0  0  0
   -1.6420   14.7370   -0.7290 C   0  0  0  0  0  0  0  0  0  0  0  0
   -3.2120   14.9660   -2.2540 C   0  0  0  0  0  0  0  0  0  0  0  0
   -5.6090   21.4960   -6.3780 O   0  0  0  0  0  0  0  0  0  0  0  0
   -5.8650   24.2550   -7.9280 O   0  0  0  0  0  0  0  0  0  0  0  0
   -2.8620   15.0410   -0.1560 C   0  0  0  0  0  0  0  0  0  0  0  0
   -0.4660   14.5300   -0.1240 N   0  0  0  0  0  0  0  0  0  0  0  0
   -3.8480   15.1810   -1.1180 N   0  0  0  0  0  0  0  0  0  0  0  0
   -2.8670   15.1540    1.2320 C   0  0  0  0  0  0  0  0  0  0  0  0
   -0.5960   14.6490    1.1940 C   0  0  0  0  0  0  0  0  0  0  0  0
   -4.0010   15.4800    1.9540 N   0  0  0  0  0  0  0  0  0  0  0  0
   -1.7070   14.9420    1.8960 N   0  0  0  0  0  0  0  0  0  0  0  0
  1  2  1  0
  2  3  1  0
  1  4  2  0
  1  5  1  1
  1  6  1  0
  6  7  1  0
  7  8  2  0
  7  9  1  6
  7 10  1  0
 11  3  1  6
 10 12  1  0
 11 13  1  0
 11 14  1  0
 14 15  1  1
 14 16  1  0
 13 17  1  0
 16 17  1  0
 18 12  1  1
 16 19  1  1
 18 20  1  0
 18 21  1  0
 17 22  1  6
 20 23  1  6
 21 24  1  0
 20 25  1  0
 24 25  1  0
 22 26  1  0
 22 27  1  0
 24 28  1  1
 25 29  1  6
 26 30  2  0
 26 31  1  0
 27 32  2  0
 30 32  1  0
 30 33  1  0
 31 34  2  0
 33 35  1  0
 33 36  2  0
 34 36  1  0
M  END
