
     RDKit          3D

  7  7  0  0  0  0  0  0  0  0999 V2000
   14.8660    5.5250   11.0340 N   0  0  0  0  0  0  0  0  0  0  0  0
   14.9110    4.7000    9.9300 C   0  0  0  0  0  0  0  0  0  0  0  0
   14.8010    3.3200   10.0570 C   0  0  0  0  0  0  0  0  0  0  0  0
   14.9190    3.0240    7.6790 N   0  0  0  0  0  0  0  0  0  0  0  0
   14.8130    2.5310    8.9220 C   0  0  0  0  0  0  0  0  0  0  0  0
   15.0280    4.3570    7.5610 C   0  0  0  0  0  0  0  0  0  0  0  0
   15.0340    5.2190    8.6420 C   0  0  0  0  0  0  0  0  0  0  0  0
  1  2  1  0
  2  3  2  0
  2  7  1  0
  3  5  1  0
  7  6  2  0
  5  4  2  0
  4  6  1  0
M  END
