mArh-x0662_0_A-mArh-x0864_0_A
     RDKit          3D

 28 30  0  0  0  0  0  0  0  0999 V2000
    5.4860    9.5830  -15.1920 C   0  0  0  0  0  0  0  0  0  0  0  0
    4.4430   10.0160  -14.2970 N   0  0  0  0  0  0  0  0  0  0  0  0
    3.7970   11.2230  -14.3070 C   0  0  0  0  0  0  0  0  0  0  0  0
    4.0140    9.1600  -13.3020 N   0  0  0  0  0  0  0  0  0  0  0  0
    2.9110   11.1090  -13.2460 C   0  0  0  0  0  0  0  0  0  0  0  0
    3.0580    9.8570  -12.6530 C   0  0  0  0  0  0  0  0  0  0  0  0
    2.3430    9.3000  -11.5040 C   0  0  0  0  0  0  0  0  0  0  0  0
    2.6540    8.2280  -10.9960 O   0  0  0  0  0  0  0  0  0  0  0  0
    1.3320   10.1270  -11.1100 N   0  0  0  0  0  0  0  0  0  0  0  0
    0.7630   10.1880   -9.8520 C   0  0  0  0  0  0  0  0  0  0  0  0
   -0.4620    9.5670   -9.7470 C   0  0  0  0  0  0  0  0  0  0  0  0
    1.4190   10.8260   -8.8550 C   0  0  0  0  0  0  0  0  0  0  0  0
   -1.1770    9.5710   -8.4460 C   0  0  0  0  0  0  0  0  0  0  0  0
    0.8250   10.9110   -7.4720 C   0  0  0  0  0  0  0  0  0  0  0  0
    1.6270   11.6400   -6.4000 C   0  0  0  0  0  0  0  0  0  0  0  0
   -0.4390   10.2880   -7.3270 C   0  0  0  0  0  0  0  0  0  0  0  0
    0.8860   11.8530   -5.1900 N   0  0  0  0  0  0  0  0  0  0  0  0
   -0.2940   11.2020   -5.3510 C   0  0  0  0  0  0  0  0  0  0  0  0
    1.5730   11.3660   -3.9610 C   0  0  0  0  0  0  0  0  0  0  0  0
   -1.4660   11.8890   -4.9170 N   0  0  0  0  0  0  0  0  0  0  0  0
   -0.3370    9.7970   -5.9760 C   0  0  0  0  0  0  0  0  0  0  0  0
    0.9620   11.7990   -2.7770 C   0  0  0  0  0  0  0  0  0  0  0  0
   -2.6200   11.2570   -5.0750 C   0  0  0  0  0  0  0  0  0  0  0  0
   -1.6320    9.3020   -6.0620 C   0  0  0  0  0  0  0  0  0  0  0  0
    0.1260   10.8450   -2.2610 O   0  0  0  0  0  0  0  0  0  0  0  0
    1.1440   12.8880   -2.2500 O   0  0  0  0  0  0  0  0  0  0  0  0
   -1.9070    7.5860   -6.8120 Br  0  0  0  0  0  0  0  0  0  0  0  0
   -2.7560   10.0310   -5.6130 C   0  0  0  0  0  0  0  0  0  0  0  0
  1  2  1  0
  2  3  1  0
  2  4  1  0
  3  5  2  0
  4  6  2  0
  5  6  1  0
  6  7  1  0
  7  8  2  0
  7  9  1  0
  9 10  1  0
 10 11  2  0
 10 12  1  0
 11 13  1  0
 12 14  2  0
 14 15  1  0
 13 16  2  0
 14 16  1  0
 15 17  1  0
 17 18  1  0
 17 19  1  0
 18 20  2  0
 18 21  1  0
 19 22  1  0
 20 23  1  0
 21 24  2  0
 22 25  1  0
 22 26  2  0
 24 27  1  0
 23 28  2  0
 24 28  1  0
M  END
