mArh-x0797_0_B-mArh-5cb5_M_1_M
     RDKit          3D

 55 60  0  0  0  0  0  0  0  0999 V2000
   -8.1350   30.0740  -14.7930 C   0  0  0  0  0  0  0  0  0  0  0  0
   -6.8240   29.7060  -14.1510 C   0  0  0  0  0  0  0  0  0  0  0  0
   -5.6820   30.3590  -14.6310 C   0  0  0  0  0  0  0  0  0  0  0  0
   -6.6680   28.7600  -13.1210 C   0  0  0  0  0  0  0  0  0  0  0  0
   -5.3850   28.5180  -12.6130 C   0  0  0  0  0  0  0  0  0  0  0  0
   -4.4170   30.0950  -14.1170 C   0  0  0  0  0  0  0  0  0  0  0  0
   -7.7310   27.9260  -12.4750 C   0  0  1  0  0  0  0  0  0  0  0  0
   -4.2790   29.1740  -13.1060 C   0  0  0  0  0  0  0  0  0  0  0  0
   -7.5270   26.4400  -12.6140 C   0  0  2  0  0  0  0  0  0  0  0  0
   -7.8070   28.0670  -10.9590 C   0  0  0  0  0  0  0  0  0  0  0  0
   -7.6230   25.8510  -13.9840 C   0  0  0  0  0  0  0  0  0  0  0  0
   -8.1450   26.7200  -10.4350 N   0  0  0  0  0  0  0  0  0  0  0  0
   -8.5190   25.9280  -11.6080 C   0  0  0  0  0  0  0  0  0  0  0  0
   -8.5800   26.3450  -14.7890 O   0  0  0  0  0  0  0  0  0  0  0  0
   -6.8720   24.9750  -14.3840 O   0  0  0  0  0  0  0  0  0  0  0  0
   -7.0480   26.0530   -9.7100 C   0  0  0  0  0  0  0  0  0  0  0  0
   -7.6600   24.8940   -8.9390 C   0  0  0  0  0  0  0  0  0  0  0  0
   -6.6720   23.8990   -8.4050 C   0  0  0  0  0  0  0  0  0  0  0  0
   -6.8020   22.7180   -8.6400 O   0  0  0  0  0  0  0  0  0  0  0  0
   -5.6690   24.3960   -7.6310 O   0  0  0  0  0  0  0  0  0  0  0  0
   -4.6270   23.4410   -7.3900 C   0  0  1  0  0  0  0  0  0  0  0  0
   -5.1760   21.9980   -7.4050 C   0  0  2  0  0  0  0  0  0  0  0  0
   -3.7050   23.4820   -8.6030 C   0  0  2  0  0  0  0  0  0  0  0  0
   -5.3480   21.4590   -6.0960 O   0  0  0  0  0  0  0  0  0  0  0  0
   -4.4820   23.8910   -9.7580 O   0  0  0  0  0  0  0  0  0  0  0  0
   -4.2310   21.2020   -8.1150 O   0  0  0  0  0  0  0  0  0  0  0  0
   -3.2650   22.0300   -8.7590 C   0  0  2  0  0  0  0  0  0  0  0  0
   -1.9240   21.6970   -8.1070 C   0  0  0  0  0  0  0  0  0  0  0  0
   -1.4970   20.4570   -8.6110 O   0  0  0  0  0  0  0  0  0  0  0  0
   -0.2540   19.7090   -7.9720 P   0  0  2  0  0  0  0  0  0  0  0  0
    0.2290   18.6180   -8.8340 O   0  0  0  0  0  0  0  0  0  0  0  0
   -0.5520   19.2910   -6.4890 O   0  0  0  0  0  0  0  0  0  0  0  0
    0.8420   20.8680   -7.7870 O   0  0  0  0  0  0  0  0  0  0  0  0
   -1.7990   18.4290   -6.0600 P   0  0  2  0  0  0  0  0  0  0  0  0
   -1.1620   17.1350   -5.3640 O   0  0  0  0  0  0  0  0  0  0  0  0
   -2.7870   18.1050   -7.1050 O   0  0  0  0  0  0  0  0  0  0  0  0
   -2.3120   19.3330   -4.8450 O   0  0  0  0  0  0  0  0  0  0  0  0
    0.2480   16.9680   -5.2670 C   0  0  0  0  0  0  0  0  0  0  0  0
    0.6210   15.6930   -4.4930 C   0  0  1  0  0  0  0  0  0  0  0  0
   -0.0310   15.7220   -3.2130 O   0  0  0  0  0  0  0  0  0  0  0  0
    0.2050   14.3500   -5.1320 C   0  0  1  0  0  0  0  0  0  0  0  0
    1.2990   13.4750   -5.3490 O   0  0  0  0  0  0  0  0  0  0  0  0
   -0.7720   13.7150   -4.1280 C   0  0  2  0  0  0  0  0  0  0  0  0
   -1.2310   14.9710   -3.4170 C   0  0  1  0  0  0  0  0  0  0  0  0
   -0.1030   12.7280   -3.3580 O   0  0  0  0  0  0  0  0  0  0  0  0
   -2.0310   15.0020   -2.1980 N   0  0  0  0  0  0  0  0  0  0  0  0
   -1.6200   14.9100   -0.8790 C   0  0  0  0  0  0  0  0  0  0  0  0
   -3.3890   15.1840   -2.1930 C   0  0  0  0  0  0  0  0  0  0  0  0
   -2.8000   15.0870   -0.1620 C   0  0  0  0  0  0  0  0  0  0  0  0
   -0.3920   14.7250   -0.3560 N   0  0  0  0  0  0  0  0  0  0  0  0
   -3.8860   15.2400   -0.9870 N   0  0  0  0  0  0  0  0  0  0  0  0
   -2.7020   15.1000    1.2220 C   0  0  0  0  0  0  0  0  0  0  0  0
   -0.4360   14.7290    0.9940 C   0  0  0  0  0  0  0  0  0  0  0  0
   -3.8050   15.3340    2.0060 N   0  0  0  0  0  0  0  0  0  0  0  0
   -1.5020   14.9000    1.7970 N   0  0  0  0  0  0  0  0  0  0  0  0
  1  2  1  0
  2  3  2  0
  2  4  1  0
  4  5  2  0
  3  6  1  0
  7  4  1  1
  5  8  1  0
  6  8  2  0
  7  9  1  0
  7 10  1  0
  9 11  1  6
 10 12  1  0
  9 13  1  0
 12 13  1  0
 11 14  1  0
 11 15  2  0
 12 16  1  0
 16 17  1  0
 17 18  1  0
 18 19  2  0
 18 20  1  0
 21 20  1  6
 21 22  1  0
 21 23  1  0
 22 24  1  1
 23 25  1  6
 22 26  1  0
 23 27  1  0
 26 27  1  0
 27 28  1  1
 28 29  1  0
 29 30  1  0
 30 31  2  0
 30 32  1  0
 30 33  1  1
 32 34  1  0
 34 35  1  0
 34 36  2  0
 34 37  1  1
 35 38  1  0
 39 38  1  6
 39 40  1  0
 39 41  1  0
 41 42  1  1
 41 43  1  0
 40 44  1  0
 43 44  1  0
 43 45  1  1
 44 46  1  1
 46 47  1  0
 46 48  1  0
 47 49  2  0
 47 50  1  0
 48 51  2  0
 49 51  1  0
 49 52  1  0
 50 53  2  0
 52 54  1  0
 52 55  2  0
 53 55  1  0
M  END
