
     RDKit          3D

 17 18  0  0  0  0  0  0  0  0999 V2000
   -4.3290   15.5300    0.5820 C   0  0  0  0  0  0  0  0  0  0  0  0
   -3.1680   15.5550   -0.2470 O   0  0  0  0  0  0  0  0  0  0  0  0
   -3.0980   14.7030   -1.3240 C   0  0  0  0  0  0  0  0  0  0  0  0
    2.4660   14.1750   -4.2000 O   0  0  0  0  0  0  0  0  0  0  0  0
   -1.9270   14.8340   -2.0570 C   0  0  0  0  0  0  0  0  0  0  0  0
    0.2930   10.9340   -2.7740 O   0  0  0  0  0  0  0  0  0  0  0  0
   -1.6990   14.0240   -3.1690 C   0  0  0  0  0  0  0  0  0  0  0  0
    1.0010   12.7700   -1.7980 O   0  0  0  0  0  0  0  0  0  0  0  0
   -2.6510   13.0780   -3.5160 C   0  0  0  0  0  0  0  0  0  0  0  0
   -3.8170   12.9460   -2.7800 C   0  0  0  0  0  0  0  0  0  0  0  0
   -4.0550   13.7670   -1.6840 C   0  0  0  0  0  0  0  0  0  0  0  0
   -0.4320   14.1800   -3.9900 C   0  0  1  0  0  0  0  0  0  0  0  0
    0.4540   15.3310   -3.4930 C   0  0  0  0  0  0  0  0  0  0  0  0
    1.7350   15.4040   -4.2830 C   0  0  0  0  0  0  0  0  0  0  0  0
    1.7010   13.0890   -4.7780 C   0  0  0  0  0  0  0  0  0  0  0  0
    0.3570   12.8490   -4.1040 C   0  0  1  0  0  0  0  0  0  0  0  0
    0.5840   12.1890   -2.7690 C   0  0  0  0  0  0  0  0  0  0  0  0
  1  2  1  0
  2  3  1  0
  3  5  2  0
  3 11  1  0
  5  7  1  0
 11 10  2  0
  4 14  1  0
  4 15  1  0
 14 13  1  0
 15 16  1  0
  7  9  2  0
 12  7  1  1
  6 17  1  0
 17  8  2  0
 16 17  1  1
  9 10  1  0
 12 13  1  0
 12 16  1  0
M  END
