
     RDKit          3D

 18 20  0  0  0  0  0  0  0  0999 V2000
    1.8320    9.1050   -9.8140 N   0  0  0  0  0  0  0  0  0  0  0  0
    2.1260    7.9260   -9.0110 C   0  0  0  0  0  0  0  0  0  0  0  0
    1.1450    6.7970   -9.2800 C   0  0  0  0  0  0  0  0  0  0  0  0
    2.1960   10.5210  -11.6360 N   0  0  0  0  0  0  0  0  0  0  0  0
    1.3750    5.5900   -8.4040 C   0  0  0  0  0  0  0  0  0  0  0  0
    3.3670    8.6240  -11.5650 N   0  0  0  0  0  0  0  0  0  0  0  0
    2.2400    4.5760   -8.8000 C   0  0  0  0  0  0  0  0  0  0  0  0
    2.4580    3.4720   -7.9890 C   0  0  0  0  0  0  0  0  0  0  0  0
    1.8130    3.3680   -6.7740 C   0  0  0  0  0  0  0  0  0  0  0  0
    0.9540    4.3720   -6.3650 C   0  0  0  0  0  0  0  0  0  0  0  0
    0.7330    5.4720   -7.1780 C   0  0  0  0  0  0  0  0  0  0  0  0
    2.4240    9.3980  -10.9770 C   0  0  0  0  0  0  0  0  0  0  0  0
    3.0630   10.4820  -12.7270 C   0  0  0  0  0  0  0  0  0  0  0  0
    3.2870   11.4080  -13.7450 C   0  0  0  0  0  0  0  0  0  0  0  0
    4.2650   11.1380  -14.6930 C   0  0  0  0  0  0  0  0  0  0  0  0
    5.0070    9.9610  -14.6370 C   0  0  0  0  0  0  0  0  0  0  0  0
    4.7870    9.0270  -13.6330 C   0  0  0  0  0  0  0  0  0  0  0  0
    3.8050    9.3040  -12.6890 C   0  0  0  0  0  0  0  0  0  0  0  0
  1  2  1  0
  1 12  1  0
  2  3  1  0
 12  4  2  0
 12  6  1  0
  3  5  1  0
  5  7  2  0
  5 11  1  0
  4 13  1  0
 13 14  2  0
 13 18  1  0
  7  8  1  0
 11 10  2  0
  6 18  1  0
 18 17  2  0
  8  9  2  0
  9 10  1  0
 14 15  1  0
 15 16  2  0
 16 17  1  0
M  END
