
     RDKit          3D

 14 15  0  0  0  0  0  0  0  0999 V2000
   -8.2620   13.8360    4.4030 N   0  0  0  0  0  0  0  0  0  0  0  0
   -8.9890   13.9630    5.6700 C   0  0  0  0  0  0  0  0  0  0  0  0
   -8.2170   15.1070    3.6770 C   0  0  0  0  0  0  0  0  0  0  0  0
   -7.3980   14.6580    0.0800 N   0  0  0  0  0  0  0  0  0  0  0  0
   -7.6260   14.9150    2.3270 C   0  0  0  0  0  0  0  0  0  0  0  0
   -6.1770   14.7520    0.6840 N   0  0  0  0  0  0  0  0  0  0  0  0
   -8.2630   14.7550    1.0760 C   0  0  0  0  0  0  0  0  0  0  0  0
   -6.2860   14.9000    2.0220 C   0  0  0  0  0  0  0  0  0  0  0  0
   -4.9870   14.7120   -0.1000 C   0  0  0  0  0  0  0  0  0  0  0  0
   -3.7560   14.7370    0.5210 C   0  0  0  0  0  0  0  0  0  0  0  0
   -2.6080   14.8350   -0.2490 C   0  0  0  0  0  0  0  0  0  0  0  0
   -2.6910   14.8900   -1.6280 C   0  0  0  0  0  0  0  0  0  0  0  0
   -3.9200   14.8680   -2.2410 C   0  0  0  0  0  0  0  0  0  0  0  0
   -5.0720   14.7670   -1.4840 C   0  0  0  0  0  0  0  0  0  0  0  0
  1  2  1  0
  1  3  1  0
  3  5  1  0
  5  7  1  0
  5  8  2  0
  4  6  1  0
  4  7  2  0
  6  8  1  0
  6  9  1  0
  9 10  2  0
  9 14  1  0
 10 11  1  0
 14 13  2  0
 11 12  2  0
 12 13  1  0
M  END
