mArh-x0253_0_A-mArh-6mea_B_0_B
     RDKit          3D

 49 53  0  0  0  0  0  0  0  0999 V2000
    0.4600   11.4410   -5.3770 N   0  0  0  0  0  0  0  0  0  0  0  0
    1.0960   11.5660   -6.5770 C   0  0  0  0  0  0  0  0  0  0  0  0
    2.0650   12.2740   -6.7420 O   0  0  0  0  0  0  0  0  0  0  0  0
    0.2880   12.5050   -4.4030 C   0  0  1  0  0  0  0  0  0  0  0  0
    1.1050   12.2280   -3.1530 C   0  0  0  0  0  0  0  0  0  0  0  0
    0.5040   10.6980   -7.6290 C   0  0  0  0  0  0  0  0  0  0  0  0
    0.0700   13.9160   -4.9520 C   0  0  2  0  0  0  0  0  0  0  0  0
    2.0980   12.8130   -2.7550 O   0  0  0  0  0  0  0  0  0  0  0  0
    0.5690   11.2010   -2.4650 O   0  0  0  0  0  0  0  0  0  0  0  0
   -0.4700    9.7730   -7.2480 C   0  0  0  0  0  0  0  0  0  0  0  0
    0.8890   10.7770   -8.9730 C   0  0  0  0  0  0  0  0  0  0  0  0
    0.8380   15.1440   -4.3920 C   0  0  1  0  0  0  0  0  0  0  0  0
   -1.3640   14.2670   -4.5850 C   0  0  1  0  0  0  0  0  0  0  0  0
    0.5450   16.5380   -5.0190 C   0  0  0  0  0  0  0  0  0  0  0  0
   -2.0900   13.0420   -4.4700 O   0  0  0  0  0  0  0  0  0  0  0  0
   -1.0600    8.9310   -8.1900 C   0  0  0  0  0  0  0  0  0  0  0  0
    0.3060    9.9390   -9.9190 C   0  0  0  0  0  0  0  0  0  0  0  0
    0.3220   15.1330   -3.0430 O   0  0  0  0  0  0  0  0  0  0  0  0
   -1.0890   15.0240   -3.2690 C   0  0  2  0  0  0  0  0  0  0  0  0
   -2.1070    7.9430   -7.7720 C   0  0  0  0  0  0  0  0  0  0  0  0
   -0.8320   16.6490   -5.3940 O   0  0  0  0  0  0  0  0  0  0  0  0
   -0.6650    9.0200   -9.5300 C   0  0  0  0  0  0  0  0  0  0  0  0
   -1.8550   14.9670   -2.0400 N   0  0  0  0  0  0  0  0  0  0  0  0
   -1.4660   18.0480   -5.8650 P   0  0  1  0  0  0  0  0  0  0  0  0
   -1.4770   14.7730   -0.7240 C   0  0  0  0  0  0  0  0  0  0  0  0
   -3.2120   15.1640   -2.0490 C   0  0  0  0  0  0  0  0  0  0  0  0
   -2.6080   17.8910   -6.8070 O   0  0  0  0  0  0  0  0  0  0  0  0
   -1.8400   18.7670   -4.5060 O   0  0  0  0  0  0  0  0  0  0  0  0
   -0.2650   18.9310   -6.3590 O   0  0  0  0  0  0  0  0  0  0  0  0
   -2.6630   14.9130   -0.0240 C   0  0  0  0  0  0  0  0  0  0  0  0
   -0.2630   14.5310   -0.1880 N   0  0  0  0  0  0  0  0  0  0  0  0
   -3.7280   15.1370   -0.8530 N   0  0  0  0  0  0  0  0  0  0  0  0
   -0.2110   19.7800   -7.6840 P   0  0  1  0  0  0  0  0  0  0  0  0
   -2.6100   14.8270    1.3540 C   0  0  0  0  0  0  0  0  0  0  0  0
   -0.3620   14.4470    1.1640 C   0  0  0  0  0  0  0  0  0  0  0  0
    0.7790   20.8910   -7.7040 O   0  0  0  0  0  0  0  0  0  0  0  0
    0.0790   18.6420   -8.7750 O   0  0  0  0  0  0  0  0  0  0  0  0
   -1.7270   20.2060   -8.0010 O   0  0  0  0  0  0  0  0  0  0  0  0
   -3.7280   15.0100    2.1190 N   0  0  0  0  0  0  0  0  0  0  0  0
   -1.4360   14.5820    1.9400 N   0  0  0  0  0  0  0  0  0  0  0  0
   -2.0440   21.5250   -8.4480 C   0  0  0  0  0  0  0  0  0  0  0  0
   -3.0780   22.1170   -7.5160 C   0  0  1  0  0  0  0  0  0  0  0  0
   -3.5790   23.5500   -7.7510 C   0  0  1  0  0  0  0  0  0  0  0  0
   -4.2780   21.3470   -7.5780 O   0  0  0  0  0  0  0  0  0  0  0  0
   -4.2710   23.7830   -8.9900 O   0  0  0  0  0  0  0  0  0  0  0  0
   -5.2380   22.1260   -6.8760 C   0  0  2  0  0  0  0  0  0  0  0  0
   -4.5760   23.4880   -6.6090 C   0  0  2  0  0  0  0  0  0  0  0  0
   -5.6060   21.5190   -5.6530 O   0  0  0  0  0  0  0  0  0  0  0  0
   -5.6110   24.4720   -6.6220 O   0  0  0  0  0  0  0  0  0  0  0  0
  1  2  1  0
  2  3  2  0
  4  1  1  6
  4  5  1  0
  2  6  1  0
  7  4  1  1
  5  8  2  0
  5  9  1  0
  6 10  2  0
  6 11  1  0
  7 12  1  0
  7 13  1  0
 12 14  1  6
 13 15  1  1
 10 16  1  0
 11 17  2  0
 12 18  1  0
 13 19  1  0
 18 19  1  0
 16 20  1  0
 14 21  1  0
 16 22  2  0
 17 22  1  0
 19 23  1  1
 21 24  1  0
 23 25  1  0
 23 26  1  0
 24 27  2  0
 24 28  1  1
 24 29  1  0
 25 30  2  0
 25 31  1  0
 26 32  2  0
 30 32  1  0
 29 33  1  0
 30 34  1  0
 31 35  2  0
 33 36  2  0
 33 37  1  6
 33 38  1  0
 34 39  1  0
 34 40  2  0
 35 40  1  0
 38 41  1  0
 42 41  1  6
 42 43  1  0
 42 44  1  0
 43 45  1  6
 44 46  1  0
 43 47  1  0
 46 47  1  0
 46 48  1  1
 47 49  1  6
M  END
