
     RDKit          3D

  7  7  0  0  0  0  0  0  0  0999 V2000
    4.6990   20.8900   17.4300 N   0  0  0  0  0  0  0  0  0  0  0  0
    5.3300   21.9740   17.1410 C   0  0  0  0  0  0  0  0  0  0  0  0
    7.2370   23.4730   17.6950 C   0  0  0  0  0  0  0  0  0  0  0  0
    6.3880   22.2960   17.9160 N   0  0  0  0  0  0  0  0  0  0  0  0
    7.1530   23.9090   16.2540 C   0  0  0  0  0  0  0  0  0  0  0  0
    4.9940   22.7830   16.1230 N   0  0  0  0  0  0  0  0  0  0  0  0
    5.6990   24.0330   15.8300 C   0  0  0  0  0  0  0  0  0  0  0  0
  1  2  1  0
  2  4  1  0
  2  6  1  0
  4  3  1  0
  6  7  1  0
  3  5  1  0
  5  7  1  0
M  END
