mArh-3gqe_A_0_A-mArh-x0797_0_B
     RDKit          3D

 30 31  0  0  0  0  0  0  0  0999 V2000
   -2.1780   18.5730   -6.5750 C   0  0  0  0  0  0  0  0  0  0  0  0
   -2.0090   20.0340   -6.3620 N   0  0  0  0  0  0  0  0  0  0  0  0
   -3.2200   20.7720   -6.7810 C   0  0  0  0  0  0  0  0  0  0  0  0
   -2.2890   17.7470   -5.3150 C   0  0  0  0  0  0  0  0  0  0  0  0
   -0.7930   20.4760   -7.0480 C   0  0  0  0  0  0  0  0  0  0  0  0
   -2.8240   16.6570   -5.1620 O   0  0  0  0  0  0  0  0  0  0  0  0
   -1.7410   18.4200   -4.3030 O   0  0  0  0  0  0  0  0  0  0  0  0
   -3.1850   22.2400   -7.2070 C   0  0  0  0  0  0  0  0  0  0  0  0
   -0.7540   20.1270   -8.5090 C   0  0  0  0  0  0  0  0  0  0  0  0
   -4.2290   22.3380   -8.2070 O   0  0  0  0  0  0  0  0  0  0  0  0
   -0.5980   18.7280   -8.7070 O   0  0  0  0  0  0  0  0  0  0  0  0
   -4.6920   23.6500   -8.5040 C   0  0  0  0  0  0  0  0  0  0  0  0
   -6.2200   23.7370   -8.7040 C   0  0  0  0  0  0  0  0  0  0  0  0
   -6.7730   24.5730   -9.8960 C   0  0  0  0  0  0  0  0  0  0  0  0
   -7.8210   25.6470   -9.5200 C   0  0  0  0  0  0  0  0  0  0  0  0
   -8.5440   26.3270  -10.6030 N   0  0  0  0  0  0  0  0  0  0  0  0
   -8.6120   25.5920  -11.8630 C   0  0  0  0  0  0  0  0  0  0  0  0
   -8.0170   27.6910  -10.8890 C   0  0  0  0  0  0  0  0  0  0  0  0
   -7.4970   26.2610  -12.6240 C   0  0  2  0  0  0  0  0  0  0  0  0
   -7.7800   27.7310  -12.3900 C   0  0  2  0  0  0  0  0  0  0  0  0
   -7.4460   25.8840  -14.0700 C   0  0  0  0  0  0  0  0  0  0  0  0
   -6.6510   28.5680  -12.9450 C   0  0  0  0  0  0  0  0  0  0  0  0
   -8.4490   26.3780  -14.8330 O   0  0  0  0  0  0  0  0  0  0  0  0
   -6.5620   25.1810  -14.5290 O   0  0  0  0  0  0  0  0  0  0  0  0
   -6.7700   29.5500  -13.9830 C   0  0  0  0  0  0  0  0  0  0  0  0
   -5.3940   28.2760  -12.3340 C   0  0  0  0  0  0  0  0  0  0  0  0
   -8.0680   29.9030  -14.6590 C   0  0  0  0  0  0  0  0  0  0  0  0
   -4.2240   28.9080  -12.7100 C   0  0  0  0  0  0  0  0  0  0  0  0
   -5.6270   30.2430  -14.4290 C   0  0  0  0  0  0  0  0  0  0  0  0
   -4.2900   29.9480  -13.8070 C   0  0  0  0  0  0  0  0  0  0  0  0
  1  2  1  0
  2  3  1  0
  1  4  1  0
  2  5  1  0
  4  6  2  0
  4  7  1  0
  3  8  1  0
  5  9  1  0
  8 10  1  0
  9 11  1  0
 10 12  1  0
 12 13  1  0
 13 14  1  0
 14 15  1  0
 15 16  1  0
 16 17  1  0
 16 18  1  0
 17 19  1  0
 18 20  1  0
 19 20  1  0
 19 21  1  6
 20 22  1  1
 21 23  1  0
 21 24  2  0
 22 25  2  0
 22 26  1  0
 25 27  1  0
 26 28  2  0
 25 29  1  0
 28 30  1  0
 29 30  2  0
M  END
