mArh-5cms_I_8_I-mArh-x0253_0_A
     RDKit          3D

 49 53  0  0  0  0  0  0  0  0999 V2000
   -1.5600   17.9750   -6.1370 P   0  0  1  0  0  0  0  0  0  0  0  0
   -0.0920   17.2890   -6.2850 O   0  0  0  0  0  0  0  0  0  0  0  0
    0.6360   16.5610   -5.2850 C   0  0  0  0  0  0  0  0  0  0  0  0
   -2.7030   17.2130   -6.7000 O   0  0  0  0  0  0  0  0  0  0  0  0
   -1.7350   18.2820   -4.5860 O   0  0  0  0  0  0  0  0  0  0  0  0
   -1.3940   19.3960   -6.7500 O   0  0  0  0  0  0  0  0  0  0  0  0
   -0.1760   19.6390   -7.7120 P   0  0  1  0  0  0  0  0  0  0  0  0
    1.1540   19.6830   -7.0700 O   0  0  0  0  0  0  0  0  0  0  0  0
   -0.2770   18.4960   -8.8020 O   0  0  0  0  0  0  0  0  0  0  0  0
   -0.6560   20.9340   -8.4760 O   0  0  0  0  0  0  0  0  0  0  0  0
   -0.2590   15.5060   -4.6430 C   0  0  2  0  0  0  0  0  0  0  0  0
   -1.7700   21.6020   -7.9010 C   0  0  0  0  0  0  0  0  0  0  0  0
   -0.2690   15.4640   -3.2370 O   0  0  0  0  0  0  0  0  0  0  0  0
   -0.2790   13.9970   -5.0190 C   0  0  1  0  0  0  0  0  0  0  0  0
    0.7710   12.9990   -4.7280 N   0  0  0  0  0  0  0  0  0  0  0  0
   -1.3990   13.5610   -4.0620 C   0  0  1  0  0  0  0  0  0  0  0  0
   -1.5610   14.8400   -3.2530 C   0  0  1  0  0  0  0  0  0  0  0  0
   -2.8000   21.8610   -8.9830 C   0  0  2  0  0  0  0  0  0  0  0  0
   -2.5240   13.0610   -4.7790 O   0  0  0  0  0  0  0  0  0  0  0  0
    0.4360   11.8800   -5.5230 N   0  0  0  0  0  0  0  0  0  0  0  0
    1.0100   12.5440   -3.4200 C   0  0  0  0  0  0  0  0  0  0  0  0
   -3.1580   23.2930   -9.0290 C   0  0  1  0  0  0  0  0  0  0  0  0
   -4.1340   21.3610   -8.7390 O   0  0  0  0  0  0  0  0  0  0  0  0
   -2.2440   14.9360   -2.0110 N   0  0  0  0  0  0  0  0  0  0  0  0
   -2.0540   24.1200   -9.0570 O   0  0  0  0  0  0  0  0  0  0  0  0
    1.2140   11.6490   -6.6180 C   0  0  0  0  0  0  0  0  0  0  0  0
    1.6900   13.1170   -2.5800 O   0  0  0  0  0  0  0  0  0  0  0  0
    0.4020   11.3720   -3.1270 O   0  0  0  0  0  0  0  0  0  0  0  0
   -5.0330   22.3330   -9.3500 C   0  0  2  0  0  0  0  0  0  0  0  0
   -4.1590   23.2450  -10.1720 C   0  0  2  0  0  0  0  0  0  0  0  0
   -1.7840   14.8520   -0.7220 C   0  0  0  0  0  0  0  0  0  0  0  0
   -3.5820   15.1800   -1.9700 C   0  0  0  0  0  0  0  0  0  0  0  0
   -5.7040   23.0750   -8.3790 O   0  0  0  0  0  0  0  0  0  0  0  0
   -3.8920   22.4430  -11.3350 O   0  0  0  0  0  0  0  0  0  0  0  0
    2.3250   12.1220   -6.6840 O   0  0  0  0  0  0  0  0  0  0  0  0
   -2.9250   15.0910    0.0220 C   0  0  0  0  0  0  0  0  0  0  0  0
   -0.5410   14.6220   -0.2500 N   0  0  0  0  0  0  0  0  0  0  0  0
   -4.0280   15.2790   -0.7610 N   0  0  0  0  0  0  0  0  0  0  0  0
    0.5980   10.7550   -7.6490 C   0  0  0  0  0  0  0  0  0  0  0  0
   -2.7910   15.1180    1.3850 C   0  0  0  0  0  0  0  0  0  0  0  0
   -0.5480   14.6500    1.1010 C   0  0  0  0  0  0  0  0  0  0  0  0
   -0.3610    9.8450   -7.1940 C   0  0  0  0  0  0  0  0  0  0  0  0
    0.9270   10.7870   -9.0130 C   0  0  0  0  0  0  0  0  0  0  0  0
   -3.8800   15.4070    2.1780 N   0  0  0  0  0  0  0  0  0  0  0  0
   -1.5830   14.8780    1.9290 N   0  0  0  0  0  0  0  0  0  0  0  0
   -0.9920    8.9700   -8.0830 C   0  0  0  0  0  0  0  0  0  0  0  0
    0.3010    9.9150   -9.9020 C   0  0  0  0  0  0  0  0  0  0  0  0
   -2.0220    7.9990   -7.5890 C   0  0  0  0  0  0  0  0  0  0  0  0
   -0.6540    9.0120   -9.4410 C   0  0  0  0  0  0  0  0  0  0  0  0
  1  2  1  0
  2  3  1  0
  1  4  2  0
  1  5  1  1
  1  6  1  0
  6  7  1  0
  7  8  2  0
  7  9  1  6
  7 10  1  0
 11  3  1  1
 10 12  1  0
 11 13  1  0
 11 14  1  0
 14 15  1  1
 14 16  1  0
 13 17  1  0
 16 17  1  0
 18 12  1  1
 16 19  1  6
 15 20  1  0
 15 21  1  0
 18 22  1  0
 18 23  1  0
 17 24  1  1
 22 25  1  6
 20 26  1  0
 21 27  2  0
 21 28  1  0
 23 29  1  0
 22 30  1  0
 29 30  1  0
 24 31  1  0
 24 32  1  0
 29 33  1  1
 30 34  1  6
 26 35  2  0
 31 36  2  0
 31 37  1  0
 32 38  2  0
 36 38  1  0
 26 39  1  0
 36 40  1  0
 37 41  2  0
 39 42  2  0
 39 43  1  0
 40 44  1  0
 40 45  2  0
 41 45  1  0
 42 46  1  0
 43 47  2  0
 46 48  1  0
 46 49  2  0
 47 49  1  0
M  END
