mArh-x0910_2_B-mArh-x0681_0_A
     RDKit          3D

 25 27  0  0  0  0  0  0  0  0999 V2000
  -13.3770   21.8470   -3.7350 N   0  0  0  0  0  0  0  0  0  0  0  0
  -12.9950   22.2090   -2.5080 C   0  0  0  0  0  0  0  0  0  0  0  0
  -12.2480   21.4130   -1.7120 N   0  0  0  0  0  0  0  0  0  0  0  0
  -13.2780   23.4240   -1.8160 N   0  0  0  0  0  0  0  0  0  0  0  0
  -11.7860   20.0600   -2.0880 C   0  0  0  0  0  0  0  0  0  0  0  0
  -11.9950   22.0300   -0.5230 N   0  0  0  0  0  0  0  0  0  0  0  0
  -12.6280   23.2090   -0.6320 C   0  0  0  0  0  0  0  0  0  0  0  0
  -12.1030   18.8840   -1.1240 C   0  0  0  0  0  0  0  0  0  0  0  0
  -10.8720   18.1140   -0.5660 C   0  0  0  0  0  0  0  0  0  0  0  0
  -10.0800   17.1660   -1.5190 C   0  0  0  0  0  0  0  0  0  0  0  0
   -8.7410   16.6800   -0.8930 C   0  0  0  0  0  0  0  0  0  0  0  0
   -7.9590   15.4550   -1.4600 C   0  0  0  0  0  0  0  0  0  0  0  0
   -6.4940   15.8640   -1.7520 C   0  0  0  0  0  0  0  0  0  0  0  0
   -5.5100   14.8740   -2.2100 N   0  0  0  0  0  0  0  0  0  0  0  0
   -4.1440   14.9170   -1.8830 C   0  0  0  0  0  0  0  0  0  0  0  0
   -3.2520   15.3570   -2.6130 O   0  0  0  0  0  0  0  0  0  0  0  0
   -3.8130   14.3120   -0.5360 C   0  0  2  0  0  0  0  0  0  0  0  0
   -4.7560   13.3080   -0.3500 C   0  0  0  0  0  0  0  0  0  0  0  0
   -3.7920   15.4180    0.5470 C   0  0  0  0  0  0  0  0  0  0  0  0
   -5.6830   13.3570    0.6720 N   0  0  0  0  0  0  0  0  0  0  0  0
   -4.3480   15.0520    1.7640 C   0  0  0  0  0  0  0  0  0  0  0  0
   -4.9060   12.2220   -1.1000 N   0  0  0  0  0  0  0  0  0  0  0  0
   -5.7270   14.4310    1.6070 C   0  0  0  0  0  0  0  0  0  0  0  0
   -6.4870   12.2730    0.6190 C   0  0  0  0  0  0  0  0  0  0  0  0
   -5.9590   11.5300   -0.5680 C   0  0  0  0  0  0  0  0  0  0  0  0
  1  2  1  0
  2  3  1  0
  2  4  2  0
  3  5  1  0
  3  6  1  0
  4  7  1  0
  6  7  2  0
  5  8  1  0
  8  9  1  0
  9 10  1  0
 10 11  1  0
 11 12  1  0
 12 13  1  0
 13 14  1  0
 14 15  1  0
 15 16  2  0
 17 15  1  6
 17 18  1  0
 17 19  1  0
 18 20  1  0
 19 21  1  0
 18 22  2  0
 20 23  1  0
 21 23  1  0
 20 24  1  0
 22 25  1  0
 24 25  2  0
M  END
