mArh-x0962_3_A-mArh-5cb5_J_2_J
     RDKit          3D

 45 49  0  0  0  0  0  0  0  0999 V2000
    0.9770   11.3330   -8.9190 N   0  0  0  0  0  0  0  0  0  0  0  0
    0.9670   10.9550   -7.5230 C   0  0  1  0  0  0  0  0  0  0  0  0
    0.4970   12.0660   -6.5540 C   0  0  0  0  0  0  0  0  0  0  0  0
    0.0270    9.8340   -7.4880 C   0  0  0  0  0  0  0  0  0  0  0  0
    1.5690   12.6040   -5.6020 C   0  0  0  0  0  0  0  0  0  0  0  0
    0.2600    8.6260   -8.0990 N   0  0  0  0  0  0  0  0  0  0  0  0
   -1.2040    9.7080   -6.9010 C   0  0  0  0  0  0  0  0  0  0  0  0
    1.2990   13.9540   -5.1670 O   0  0  0  0  0  0  0  0  0  0  0  0
   -0.8240    7.8420   -7.8560 C   0  0  0  0  0  0  0  0  0  0  0  0
   -1.7270    8.4700   -7.1340 N   0  0  0  0  0  0  0  0  0  0  0  0
   -0.0760   14.3530   -5.1500 C   0  0  2  0  0  0  0  0  0  0  0  0
   -0.3030   15.7790   -4.6290 C   0  0  2  0  0  0  0  0  0  0  0  0
   -0.9330   13.6120   -4.1270 C   0  0  1  0  0  0  0  0  0  0  0  0
    0.5690   16.8620   -5.2430 C   0  0  0  0  0  0  0  0  0  0  0  0
   -0.4840   12.2600   -4.0030 O   0  0  0  0  0  0  0  0  0  0  0  0
   -0.0610   15.6730   -3.2370 O   0  0  0  0  0  0  0  0  0  0  0  0
   -0.6440   14.4180   -2.8570 C   0  0  1  0  0  0  0  0  0  0  0  0
   -0.0840   17.4510   -6.3450 O   0  0  0  0  0  0  0  0  0  0  0  0
   -1.7560   14.6800   -1.9910 N   0  0  0  0  0  0  0  0  0  0  0  0
   -1.4560   18.2580   -6.1470 P   0  0  1  0  0  0  0  0  0  0  0  0
   -1.5840   14.7300   -0.6640 C   0  0  0  0  0  0  0  0  0  0  0  0
   -3.0770   14.9220   -2.2670 C   0  0  0  0  0  0  0  0  0  0  0  0
   -2.6350   17.6500   -6.8070 O   0  0  0  0  0  0  0  0  0  0  0  0
   -1.6050   18.4900   -4.5840 O   0  0  0  0  0  0  0  0  0  0  0  0
   -1.0120   19.6580   -6.6520 O   0  0  0  0  0  0  0  0  0  0  0  0
   -2.8330   15.0180   -0.1450 C   0  0  0  0  0  0  0  0  0  0  0  0
   -0.4260   14.5430   -0.0260 N   0  0  0  0  0  0  0  0  0  0  0  0
   -3.7690   15.1350   -1.1570 N   0  0  0  0  0  0  0  0  0  0  0  0
   -0.2650   19.9890   -7.9760 P   0  0  1  0  0  0  0  0  0  0  0  0
   -2.8930   15.1350    1.2410 C   0  0  0  0  0  0  0  0  0  0  0  0
   -0.6070   14.6620    1.2880 C   0  0  0  0  0  0  0  0  0  0  0  0
    0.9520   20.8240   -7.8030 O   0  0  0  0  0  0  0  0  0  0  0  0
    0.0010   18.6440   -8.7970 O   0  0  0  0  0  0  0  0  0  0  0  0
   -1.4270   20.6560   -8.8000 O   0  0  0  0  0  0  0  0  0  0  0  0
   -4.0600   15.4480    1.9220 N   0  0  0  0  0  0  0  0  0  0  0  0
   -1.7520   14.9390    1.9450 N   0  0  0  0  0  0  0  0  0  0  0  0
   -2.0550   21.7400   -8.1820 C   0  0  0  0  0  0  0  0  0  0  0  0
   -3.4200   22.0100   -8.8030 C   0  0  2  0  0  0  0  0  0  0  0  0
   -3.9640   23.4060   -8.5330 C   0  0  1  0  0  0  0  0  0  0  0  0
   -4.3700   21.0770   -8.2570 O   0  0  0  0  0  0  0  0  0  0  0  0
   -4.7310   24.0000   -9.5690 O   0  0  0  0  0  0  0  0  0  0  0  0
   -5.3100   21.7840   -7.4560 C   0  0  2  0  0  0  0  0  0  0  0  0
   -4.7890   23.2060   -7.2660 C   0  0  2  0  0  0  0  0  0  0  0  0
   -5.3490   21.1710   -6.1760 O   0  0  0  0  0  0  0  0  0  0  0  0
   -5.8540   24.1640   -7.1310 O   0  0  0  0  0  0  0  0  0  0  0  0
  2  1  1  6
  2  3  1  0
  2  4  1  0
  3  5  1  0
  4  6  1  0
  4  7  2  0
  5  8  1  0
  6  9  1  0
  7 10  1  0
  9 10  2  0
 11  8  1  1
 11 12  1  0
 11 13  1  0
 12 14  1  6
 13 15  1  1
 12 16  1  0
 13 17  1  0
 16 17  1  0
 14 18  1  0
 17 19  1  6
 18 20  1  0
 19 21  1  0
 19 22  1  0
 20 23  2  0
 20 24  1  1
 20 25  1  0
 21 26  2  0
 21 27  1  0
 22 28  2  0
 26 28  1  0
 25 29  1  0
 26 30  1  0
 27 31  2  0
 29 32  2  0
 29 33  1  6
 29 34  1  0
 30 35  1  0
 30 36  2  0
 31 36  1  0
 34 37  1  0
 38 37  1  1
 38 39  1  0
 38 40  1  0
 39 41  1  6
 40 42  1  0
 39 43  1  0
 42 43  1  0
 42 44  1  1
 43 45  1  6
M  END
