
     RDKit          3D

 16 17  0  0  0  0  0  0  0  0999 V2000
   13.9780    8.3580   12.4330 N   0  0  0  0  0  0  0  0  0  0  0  0
   15.8620    8.7620   16.6350 C   0  0  0  0  0  0  0  0  0  0  0  0
   16.0590    8.7330   13.2050 O   0  0  0  0  0  0  0  0  0  0  0  0
   15.1940    7.7660   15.7610 C   0  0  0  0  0  0  0  0  0  0  0  0
   14.5320    5.9180   11.2320 N   0  0  0  0  0  0  0  0  0  0  0  0
   14.3060    8.4530   14.8120 C   0  0  0  0  0  0  0  0  0  0  0  0
   14.7680    6.7540    9.1790 N   0  0  0  0  0  0  0  0  0  0  0  0
   14.8680    8.5110   13.4130 C   0  0  0  0  0  0  0  0  0  0  0  0
   14.3700    8.4060   11.0400 C   0  0  0  0  0  0  0  0  0  0  0  0
   14.5480    7.0110   10.4870 C   0  0  0  0  0  0  0  0  0  0  0  0
   14.7650    4.8750   10.3430 C   0  0  0  0  0  0  0  0  0  0  0  0
   14.8900    3.5090   10.5640 C   0  0  0  0  0  0  0  0  0  0  0  0
   15.1510    2.6860    9.4790 C   0  0  0  0  0  0  0  0  0  0  0  0
   15.2750    3.2080    8.1960 C   0  0  0  0  0  0  0  0  0  0  0  0
   15.1470    4.5680    7.9640 C   0  0  0  0  0  0  0  0  0  0  0  0
   14.9040    5.3860    9.0520 C   0  0  0  0  0  0  0  0  0  0  0  0
  1  8  1  0
  1  9  1  0
  8  3  2  0
  8  6  1  0
  9 10  1  0
  2  4  1  0
  4  6  1  0
  5 10  2  0
  5 11  1  0
 10  7  1  0
 11 12  2  0
 11 16  1  0
  7 16  1  0
 16 15  2  0
 12 13  1  0
 13 14  2  0
 14 15  1  0
M  END
