mArh-x0855_0_A-mArh-5cb5_K_0_K
     RDKit          3D

 44 48  0  0  0  0  0  0  0  0999 V2000
    2.1490   13.1150   -3.4210 O   0  0  0  0  0  0  0  0  0  0  0  0
    1.0950   12.2950   -3.4920 C   0  0  0  0  0  0  0  0  0  0  0  0
   -0.0870   12.7960   -4.2830 C   0  0  2  0  0  0  0  0  0  0  0  0
    1.1080   11.2300   -2.9060 O   0  0  0  0  0  0  0  0  0  0  0  0
   -0.7370   11.7290   -5.0160 N   0  0  0  0  0  0  0  0  0  0  0  0
   -0.1180   14.1760   -4.9970 C   0  0  2  0  0  0  0  0  0  0  0  0
   -0.2830   10.8940   -6.0120 C   0  0  0  0  0  0  0  0  0  0  0  0
   -2.0210   11.5190   -4.6470 N   0  0  0  0  0  0  0  0  0  0  0  0
    0.6610   15.3770   -4.3810 C   0  0  1  0  0  0  0  0  0  0  0  0
   -1.4870   14.6150   -4.5390 C   0  0  0  0  0  0  0  0  0  0  0  0
    0.5770   16.6850   -5.2000 C   0  0  0  0  0  0  0  0  0  0  0  0
   -1.3450   10.0780   -6.3050 C   0  0  0  0  0  0  0  0  0  0  0  0
   -2.4340   10.5210   -5.4060 C   0  0  0  0  0  0  0  0  0  0  0  0
   -0.0260   15.6150   -3.1260 O   0  0  0  0  0  0  0  0  0  0  0  0
   -1.0660   14.6250   -3.0890 C   0  0  1  0  0  0  0  0  0  0  0  0
   -1.4820    8.6940   -7.5390 Br  0  0  0  0  0  0  0  0  0  0  0  0
   -0.7180   16.7810   -5.7770 O   0  0  0  0  0  0  0  0  0  0  0  0
   -2.0370   14.8510   -2.0610 N   0  0  0  0  0  0  0  0  0  0  0  0
   -1.3810   18.1950   -6.1000 P   0  0  1  0  0  0  0  0  0  0  0  0
   -1.6870   14.8150   -0.7490 C   0  0  0  0  0  0  0  0  0  0  0  0
   -3.3740   15.1230   -2.1440 C   0  0  0  0  0  0  0  0  0  0  0  0
   -2.5770   18.1350   -7.0550 O   0  0  0  0  0  0  0  0  0  0  0  0
   -1.7790   18.7570   -4.6600 O   0  0  0  0  0  0  0  0  0  0  0  0
   -0.2180   19.1650   -6.4870 O   0  0  0  0  0  0  0  0  0  0  0  0
   -2.8530   15.0880   -0.0730 C   0  0  0  0  0  0  0  0  0  0  0  0
   -0.4670   14.5780   -0.2400 N   0  0  0  0  0  0  0  0  0  0  0  0
   -3.9050   15.2740   -0.9490 N   0  0  0  0  0  0  0  0  0  0  0  0
   -0.1830   19.9520   -7.8410 P   0  0  1  0  0  0  0  0  0  0  0  0
   -2.7600   15.1340    1.3110 C   0  0  0  0  0  0  0  0  0  0  0  0
   -0.5080   14.6310    1.0980 C   0  0  0  0  0  0  0  0  0  0  0  0
    0.9180   21.1120   -7.9010 O   0  0  0  0  0  0  0  0  0  0  0  0
    0.1010   18.7660   -8.8830 O   0  0  0  0  0  0  0  0  0  0  0  0
   -1.6740   20.3780   -8.2140 O   0  0  0  0  0  0  0  0  0  0  0  0
   -3.8450   15.4350    2.1040 N   0  0  0  0  0  0  0  0  0  0  0  0
   -1.5630   14.8860    1.8890 N   0  0  0  0  0  0  0  0  0  0  0  0
   -1.9900   21.7520   -8.0210 C   0  0  0  0  0  0  0  0  0  0  0  0
   -3.3090   22.1280   -8.6940 C   0  0  2  0  0  0  0  0  0  0  0  0
   -3.7610   23.5370   -8.3780 C   0  0  1  0  0  0  0  0  0  0  0  0
   -4.3630   21.2950   -8.2480 O   0  0  0  0  0  0  0  0  0  0  0  0
   -4.5360   24.0920   -9.4170 O   0  0  0  0  0  0  0  0  0  0  0  0
   -5.1670   21.9750   -7.2870 C   0  0  2  0  0  0  0  0  0  0  0  0
   -4.5550   23.3440   -7.0890 C   0  0  2  0  0  0  0  0  0  0  0  0
   -5.1860   21.2710   -6.0540 O   0  0  0  0  0  0  0  0  0  0  0  0
   -5.5620   24.3340   -6.8850 O   0  0  0  0  0  0  0  0  0  0  0  0
  1  2  1  0
  3  2  1  6
  2  4  2  0
  3  5  1  0
  3  6  1  0
  5  7  1  0
  5  8  1  0
  6  9  1  0
  6 10  1  1
  9 11  1  6
  7 12  2  0
  8 13  2  0
 12 13  1  0
  9 14  1  0
 10 15  1  0
 14 15  1  0
 12 16  1  0
 11 17  1  0
 15 18  1  1
 17 19  1  0
 18 20  1  0
 18 21  1  0
 19 22  2  0
 19 23  1  1
 19 24  1  0
 20 25  2  0
 20 26  1  0
 21 27  2  0
 25 27  1  0
 24 28  1  0
 25 29  1  0
 26 30  2  0
 28 31  2  0
 28 32  1  6
 28 33  1  0
 29 34  1  0
 29 35  2  0
 30 35  1  0
 33 36  1  0
 37 36  1  1
 37 38  1  0
 37 39  1  0
 38 40  1  6
 39 41  1  0
 38 42  1  0
 41 42  1  0
 41 43  1  1
 42 44  1  6
M  END
