mArh-3gqe_A_0_A-mArh-x0371_0_A
     RDKit          3D

 31 33  0  0  0  0  0  0  0  0999 V2000
   -2.4020   18.5660   -6.5600 C   0  0  0  0  0  0  0  0  0  0  0  0
   -2.2250   20.0120   -6.3640 N   0  0  0  0  0  0  0  0  0  0  0  0
   -3.3510   20.8620   -6.8180 C   0  0  0  0  0  0  0  0  0  0  0  0
   -2.1550   17.8570   -5.2610 C   0  0  0  0  0  0  0  0  0  0  0  0
   -0.9350   20.3900   -6.9390 C   0  0  0  0  0  0  0  0  0  0  0  0
   -2.3160   16.6220   -5.0780 N   0  0  0  0  0  0  0  0  0  0  0  0
   -1.7570   18.6740   -4.2960 O   0  0  0  0  0  0  0  0  0  0  0  0
   -3.2510   22.3840   -6.9860 C   0  0  0  0  0  0  0  0  0  0  0  0
   -0.7800   20.0800   -8.4120 C   0  0  0  0  0  0  0  0  0  0  0  0
   -2.0290   16.0440   -3.7810 C   0  0  0  0  0  0  0  0  0  0  0  0
   -4.1570   22.8280   -7.9950 O   0  0  0  0  0  0  0  0  0  0  0  0
   -0.5330   18.7000   -8.6460 O   0  0  0  0  0  0  0  0  0  0  0  0
   -3.2100   15.1690   -3.4420 C   0  0  0  0  0  0  0  0  0  0  0  0
   -3.7900   15.1030   -2.0500 C   0  0  0  0  0  0  0  0  0  0  0  0
   -2.9940   15.2480   -0.8860 C   0  0  0  0  0  0  0  0  0  0  0  0
   -5.1500   14.8750   -1.9210 C   0  0  0  0  0  0  0  0  0  0  0  0
   -5.7180   14.7620   -0.6660 C   0  0  0  0  0  0  0  0  0  0  0  0
   -3.5530   15.1420    0.4090 C   0  0  0  0  0  0  0  0  0  0  0  0
   -7.0230   14.5230   -0.3580 N   0  0  0  0  0  0  0  0  0  0  0  0
   -4.9270   14.8860    0.4650 C   0  0  0  0  0  0  0  0  0  0  0  0
   -5.8100   14.6930    1.4990 N   0  0  0  0  0  0  0  0  0  0  0  0
   -7.0580   14.4760    0.9520 C   0  0  0  0  0  0  0  0  0  0  0  0
   -8.2600   14.2200    1.7620 C   0  0  0  0  0  0  0  0  0  0  0  0
   -7.9540   14.5820    3.1080 N   0  0  0  0  0  0  0  0  0  0  0  0
   -8.6760   15.5790    3.7110 C   0  0  0  0  0  0  0  0  0  0  0  0
   -9.3510   16.3830    3.0690 O   0  0  0  0  0  0  0  0  0  0  0  0
   -8.5820   15.5880    5.1460 C   0  0  0  0  0  0  0  0  0  0  0  0
   -7.9910   14.5220    5.7670 O   0  0  0  0  0  0  0  0  0  0  0  0
   -8.9970   16.5110    6.0880 C   0  0  0  0  0  0  0  0  0  0  0  0
   -8.6350   15.9740    7.3510 C   0  0  0  0  0  0  0  0  0  0  0  0
   -8.0260   14.7670    7.0970 C   0  0  0  0  0  0  0  0  0  0  0  0
  1  2  1  0
  2  3  1  0
  1  4  1  0
  2  5  1  0
  4  6  2  3
  4  7  1  0
  3  8  1  0
  5  9  1  0
  6 10  1  0
  8 11  1  0
  9 12  1  0
 10 13  1  0
 13 14  1  0
 14 15  2  0
 14 16  1  0
 16 17  2  0
 15 18  1  0
 17 19  1  0
 17 20  1  0
 18 20  2  0
 20 21  1  0
 19 22  2  0
 21 22  1  0
 22 23  1  0
 23 24  1  0
 24 25  1  0
 25 26  2  0
 25 27  1  0
 27 28  1  0
 27 29  2  0
 29 30  1  0
 28 31  1  0
 30 31  2  0
M  END
