mArh-5cb5_L_0_L-mArh-x0895_1_A
     RDKit          3D

 42 46  0  0  0  0  0  0  0  0999 V2000
   -1.5120   18.1910   -6.0480 P   0  0  1  0  0  0  0  0  0  0  0  0
   -0.7940   16.7670   -5.6460 O   0  0  0  0  0  0  0  0  0  0  0  0
    0.5210   16.8810   -5.3410 C   0  0  0  0  0  0  0  0  0  0  0  0
   -2.6420   18.0340   -7.0000 O   0  0  0  0  0  0  0  0  0  0  0  0
   -1.9550   18.8740   -4.6840 O   0  0  0  0  0  0  0  0  0  0  0  0
   -0.3460   19.1160   -6.5030 O   0  0  0  0  0  0  0  0  0  0  0  0
   -0.1880   19.8520   -7.8530 P   0  0  1  0  0  0  0  0  0  0  0  0
    0.7960   20.9780   -7.8400 O   0  0  0  0  0  0  0  0  0  0  0  0
    0.1570   18.6940   -8.8900 O   0  0  0  0  0  0  0  0  0  0  0  0
   -1.6640   20.2740   -8.2000 O   0  0  0  0  0  0  0  0  0  0  0  0
    0.8810   15.6380   -4.5280 C   0  0  1  0  0  0  0  0  0  0  0  0
   -2.0040   21.5190   -8.7110 C   0  0  0  0  0  0  0  0  0  0  0  0
    0.0820   15.6800   -3.3330 O   0  0  0  0  0  0  0  0  0  0  0  0
    0.5970   14.2990   -5.2410 C   0  0  1  0  0  0  0  0  0  0  0  0
    1.6980   13.3940   -5.2330 O   0  0  0  0  0  0  0  0  0  0  0  0
   -0.5610   13.7060   -4.4770 C   0  0  2  0  0  0  0  0  0  0  0  0
   -0.2600   14.3270   -3.0500 C   0  0  2  0  0  0  0  0  0  0  0  0
   -3.1750   22.1030   -7.9760 C   0  0  1  0  0  0  0  0  0  0  0  0
   -0.4430   12.2720   -4.4190 O   0  0  0  0  0  0  0  0  0  0  0  0
   -3.6790   23.4750   -8.3640 C   0  0  1  0  0  0  0  0  0  0  0  0
   -4.3280   21.3330   -8.2750 O   0  0  0  0  0  0  0  0  0  0  0  0
   -1.3360   14.1940   -2.1030 N   0  0  0  0  0  0  0  0  0  0  0  0
   -3.8900   23.7180   -9.7530 O   0  0  0  0  0  0  0  0  0  0  0  0
   -5.3670   22.0380   -7.6250 C   0  0  2  0  0  0  0  0  0  0  0  0
   -5.0140   23.4110   -7.6420 C   0  0  2  0  0  0  0  0  0  0  0  0
   -1.0160   14.7020   -0.7860 C   0  0  1  0  0  0  0  0  0  0  0  0
   -2.5710   14.8610   -2.4820 C   0  0  0  0  0  0  0  0  0  0  0  0
   -5.5000   21.5740   -6.2840 O   0  0  0  0  0  0  0  0  0  0  0  0
   -5.9550   24.1760   -8.3700 O   0  0  0  0  0  0  0  0  0  0  0  0
   -2.3760   14.9410   -0.3360 C   0  0  2  0  0  0  0  0  0  0  0  0
   -0.3630   13.7650    0.0920 N   0  0  0  0  0  0  0  0  0  0  0  0
   -3.1980   15.4670   -1.3770 N   0  0  0  0  0  0  0  0  0  0  0  0
   -2.2400   15.5690    0.9050 C   0  0  1  0  0  0  0  0  0  0  0  0
   -0.6810   13.9930    1.5150 C   0  0  0  0  0  0  0  0  0  0  0  0
   -3.4360   16.3480    1.2020 N   0  0  0  0  0  0  0  0  0  0  0  0
   -2.0570   14.4970    1.7440 N   0  0  0  0  0  0  0  0  0  0  0  0
   -3.2640   13.7380    1.4580 C   0  0  2  0  0  0  0  0  0  0  0  0
   -3.5970   13.3930    0.1130 C   0  0  0  0  0  0  0  0  0  0  0  0
   -4.3320   14.6260    1.8180 N   0  0  0  0  0  0  0  0  0  0  0  0
   -4.7500   14.2550   -0.2600 N   0  0  0  0  0  0  0  0  0  0  0  0
   -5.3540   14.5640    0.9100 C   0  0  0  0  0  0  0  0  0  0  0  0
   -6.5380   14.7380    1.1080 O   0  0  0  0  0  0  0  0  0  0  0  0
  1  2  1  0
  2  3  1  0
  1  4  2  0
  1  5  1  1
  1  6  1  0
  6  7  1  0
  7  8  2  0
  7  9  1  6
  7 10  1  0
 11  3  1  6
 10 12  1  0
 11 13  1  0
 11 14  1  0
 14 15  1  1
 14 16  1  0
 13 17  1  0
 16 17  1  0
 18 12  1  6
 16 19  1  1
 18 20  1  0
 18 21  1  0
 17 22  1  1
 20 23  1  6
 21 24  1  0
 20 25  1  0
 24 25  1  0
 22 26  1  0
 22 27  1  0
 24 28  1  1
 25 29  1  6
 26 30  1  0
 26 31  1  1
 27 32  1  0
 30 32  1  6
 30 33  1  0
 31 34  1  0
 33 35  1  1
 33 36  1  0
 34 36  1  0
 37 36  1  6
 37 38  1  0
 37 39  1  0
 38 40  1  0
 39 41  1  0
 40 41  1  0
 41 42  2  0
M  END
