
     RDKit          3D

 13 13  0  0  0  0  0  0  0  0999 V2000
  -15.9420   24.9190    2.5930 N   0  0  0  0  0  0  0  0  0  0  0  0
  -13.7820   24.5310    1.4220 C   0  0  0  0  0  0  0  0  0  0  0  0
  -16.3010   25.8490    4.8310 O   0  0  0  0  0  0  0  0  0  0  0  0
  -15.1470   23.9720    1.7640 C   0  0  2  0  0  0  0  0  0  0  0  0
  -14.4990   21.8660   -0.8910 N   0  0  0  0  0  0  0  0  0  0  0  0
  -14.7910   23.9320    4.5180 O   0  0  0  0  0  0  0  0  0  0  0  0
  -17.3410   23.5130    4.4490 C   0  0  0  0  0  0  0  0  0  0  0  0
  -17.1030   25.5870    1.9350 C   0  0  0  0  0  0  0  0  0  0  0  0
  -16.7970   25.9140    0.4760 C   0  0  0  0  0  0  0  0  0  0  0  0
  -16.4770   24.6640   -0.3530 C   0  0  0  0  0  0  0  0  0  0  0  0
  -15.9320   23.5200    0.5170 C   0  0  1  0  0  0  0  0  0  0  0  0
  -15.1170   22.6070   -0.2860 C   0  0  0  0  0  0  0  0  0  0  0  0
  -16.0020   24.6120    4.1830 S   0  0  2  0  0  0  0  0  0  0  0  0
  1  4  1  0
  1  8  1  0
  1 13  1  0
  4  2  1  6
  4 11  1  0
  8  9  1  0
 13  3  2  0
 13  6  2  0
 13  7  1  6
 11 10  1  0
 11 12  1  6
  5 12  3  0
  9 10  1  0
M  END
