mArh-x0905_0_A-mArh-5cb5_L_0_L
     RDKit          3D

 43 47  0  0  0  0  0  0  0  0999 V2000
   -7.8640   14.7000   -0.3510 O   0  0  0  0  0  0  0  0  0  0  0  0
   -6.5490   14.9690   -0.4710 C   0  0  0  0  0  0  0  0  0  0  0  0
   -5.9050   14.8560    0.6940 N   0  0  0  0  0  0  0  0  0  0  0  0
   -6.0300   15.3110   -1.7000 C   0  0  0  0  0  0  0  0  0  0  0  0
   -4.6050   15.1090    0.6320 C   0  0  0  0  0  0  0  0  0  0  0  0
   -4.6900   15.5770   -1.7870 C   0  0  0  0  0  0  0  0  0  0  0  0
   -3.7070   15.0550    1.6540 N   0  0  0  0  0  0  0  0  0  0  0  0
   -3.9210   15.4940   -0.6520 C   0  0  0  0  0  0  0  0  0  0  0  0
   -2.4240   14.8670    1.2000 C   0  0  0  0  0  0  0  0  0  0  0  0
   -1.3070   14.7280    1.9700 N   0  0  0  0  0  0  0  0  0  0  0  0
   -2.2370   14.8190   -0.1980 C   0  0  0  0  0  0  0  0  0  0  0  0
   -0.9560   14.6670   -0.6640 C   0  0  0  0  0  0  0  0  0  0  0  0
   -0.1390   14.5880    1.3700 C   0  0  0  0  0  0  0  0  0  0  0  0
   -3.1210   14.9000   -1.2600 N   0  0  0  0  0  0  0  0  0  0  0  0
    0.1560   14.5500    0.0520 N   0  0  0  0  0  0  0  0  0  0  0  0
   -1.0550   14.6650   -2.0170 N   0  0  0  0  0  0  0  0  0  0  0  0
   -2.3770   14.8030   -2.3430 C   0  0  0  0  0  0  0  0  0  0  0  0
    0.0380   14.5480   -2.9300 C   0  0  2  0  0  0  0  0  0  0  0  0
    0.2920   15.8490   -3.4480 O   0  0  0  0  0  0  0  0  0  0  0  0
   -0.0230   13.5660   -4.1010 C   0  0  1  0  0  0  0  0  0  0  0  0
   -1.2520   12.9430   -4.3800 O   0  0  0  0  0  0  0  0  0  0  0  0
    0.9610   15.6950   -4.6980 C   0  0  1  0  0  0  0  0  0  0  0  0
    0.5230   14.3310   -5.2880 C   0  0  1  0  0  0  0  0  0  0  0  0
    0.6310   16.9550   -5.4850 C   0  0  0  0  0  0  0  0  0  0  0  0
    1.5520   13.5010   -5.8370 O   0  0  0  0  0  0  0  0  0  0  0  0
   -0.7280   16.8750   -5.8730 O   0  0  0  0  0  0  0  0  0  0  0  0
   -1.5320   18.2330   -6.1090 P   0  0  1  0  0  0  0  0  0  0  0  0
   -2.6670   18.0810   -7.0470 O   0  0  0  0  0  0  0  0  0  0  0  0
   -1.8700   18.6470   -4.6160 O   0  0  0  0  0  0  0  0  0  0  0  0
   -0.4130   19.2690   -6.4780 O   0  0  0  0  0  0  0  0  0  0  0  0
   -0.1590   19.9280   -7.8800 P   0  0  1  0  0  0  0  0  0  0  0  0
    0.9120   20.9620   -7.8560 O   0  0  0  0  0  0  0  0  0  0  0  0
    0.1180   18.6900   -8.8570 O   0  0  0  0  0  0  0  0  0  0  0  0
   -1.5480   20.4530   -8.4340 O   0  0  0  0  0  0  0  0  0  0  0  0
   -1.9970   21.7250   -8.0250 C   0  0  0  0  0  0  0  0  0  0  0  0
   -3.2690   22.0650   -8.7780 C   0  0  2  0  0  0  0  0  0  0  0  0
   -3.6960   23.5000   -8.5650 C   0  0  1  0  0  0  0  0  0  0  0  0
   -4.3290   21.2110   -8.3270 O   0  0  0  0  0  0  0  0  0  0  0  0
   -4.2370   24.1040   -9.7310 O   0  0  0  0  0  0  0  0  0  0  0  0
   -5.2650   21.9570   -7.5540 C   0  0  2  0  0  0  0  0  0  0  0  0
   -4.8060   23.4120   -7.5440 C   0  0  2  0  0  0  0  0  0  0  0  0
   -5.3030   21.4310   -6.2310 O   0  0  0  0  0  0  0  0  0  0  0  0
   -5.8600   24.2140   -8.0610 O   0  0  0  0  0  0  0  0  0  0  0  0
  1  2  1  0
  2  3  2  0
  2  4  1  0
  3  5  1  0
  4  6  2  0
  5  7  1  0
  5  8  2  0
  6  8  1  0
  7  9  1  0
  9 10  2  0
  9 11  1  0
 11 12  2  0
 10 13  1  0
 11 14  1  0
 12 15  1  0
 13 15  2  0
 12 16  1  0
 14 17  2  0
 16 17  1  0
 18 16  1  6
 18 19  1  0
 18 20  1  0
 20 21  1  6
 19 22  1  0
 20 23  1  0
 22 23  1  0
 22 24  1  6
 23 25  1  1
 24 26  1  0
 26 27  1  0
 27 28  2  0
 27 29  1  1
 27 30  1  0
 30 31  1  0
 31 32  2  0
 31 33  1  6
 31 34  1  0
 34 35  1  0
 36 35  1  1
 36 37  1  0
 36 38  1  0
 37 39  1  6
 38 40  1  0
 37 41  1  0
 40 41  1  0
 40 42  1  1
 41 43  1  6
M  END
