
     RDKit          3D

  8  8  0  0  0  0  0  0  0  0999 V2000
   -3.4140   15.0340    1.6910 N   0  0  0  0  0  0  0  0  0  0  0  0
   -4.6990   15.2420    1.0590 C   0  0  0  0  0  0  0  0  0  0  0  0
   -2.2600   14.8250    1.0430 C   0  0  0  0  0  0  0  0  0  0  0  0
   -1.1630   14.6480    1.8110 N   0  0  0  0  0  0  0  0  0  0  0  0
   -0.0040   14.5360    1.1430 C   0  0  0  0  0  0  0  0  0  0  0  0
   -2.2960   14.8510   -0.3080 N   0  0  0  0  0  0  0  0  0  0  0  0
    0.0880   14.5630   -0.2400 C   0  0  0  0  0  0  0  0  0  0  0  0
   -1.1070   14.7110   -0.9220 C   0  0  0  0  0  0  0  0  0  0  0  0
  1  2  1  0
  1  3  1  0
  3  4  2  0
  3  6  1  0
  4  5  1  0
  6  8  2  0
  5  7  2  0
  7  8  1  0
M  END
