mArh-5cms_R_17_R-mArh-x0962_1_A
     RDKit          3D

 42 46  0  0  0  0  0  0  0  0999 V2000
   -1.5660   17.9790   -5.9760 P   0  0  1  0  0  0  0  0  0  0  0  0
   -0.8310   16.6490   -5.5590 O   0  0  0  0  0  0  0  0  0  0  0  0
    0.5700   16.8050   -5.3730 C   0  0  0  0  0  0  0  0  0  0  0  0
   -2.6820   17.8430   -6.9350 O   0  0  0  0  0  0  0  0  0  0  0  0
   -1.9840   18.6600   -4.6030 O   0  0  0  0  0  0  0  0  0  0  0  0
   -0.3490   18.8610   -6.3830 O   0  0  0  0  0  0  0  0  0  0  0  0
   -0.0500   19.5760   -7.7230 P   0  0  1  0  0  0  0  0  0  0  0  0
    1.0240   20.6130   -7.6310 O   0  0  0  0  0  0  0  0  0  0  0  0
    0.2580   18.4160   -8.7650 O   0  0  0  0  0  0  0  0  0  0  0  0
   -1.4220   20.0450   -8.2870 O   0  0  0  0  0  0  0  0  0  0  0  0
    1.1150   15.5830   -4.6730 C   0  0  1  0  0  0  0  0  0  0  0  0
   -1.8880   21.2490   -7.7930 C   0  0  0  0  0  0  0  0  0  0  0  0
    0.5740   15.6940   -3.3560 O   0  0  0  0  0  0  0  0  0  0  0  0
    0.6870   14.2420   -5.2810 C   0  0  1  0  0  0  0  0  0  0  0  0
    1.8120   13.3540   -5.3950 O   0  0  0  0  0  0  0  0  0  0  0  0
   -0.3210   13.6560   -4.3050 C   0  0  2  0  0  0  0  0  0  0  0  0
   -0.0860   14.4770   -3.0180 C   0  0  2  0  0  0  0  0  0  0  0  0
   -1.9510   22.1440   -8.9640 C   0  0  2  0  0  0  0  0  0  0  0  0
   -0.0680   12.2580   -4.1520 O   0  0  0  0  0  0  0  0  0  0  0  0
   -2.4350   23.5290   -8.6190 C   0  0  1  0  0  0  0  0  0  0  0  0
   -2.8400   21.5970   -9.9420 O   0  0  0  0  0  0  0  0  0  0  0  0
   -1.1660   14.7760   -2.1050 N   0  0  0  0  0  0  0  0  0  0  0  0
   -1.4820   24.5210   -8.8640 O   0  0  0  0  0  0  0  0  0  0  0  0
   -4.0710   22.2520   -9.7190 C   0  0  2  0  0  0  0  0  0  0  0  0
   -3.7240   23.6830   -9.4420 C   0  0  2  0  0  0  0  0  0  0  0  0
   -1.0220   14.0460   -0.8890 C   0  0  2  0  0  0  0  0  0  0  0  0
   -2.5650   14.7210   -2.5200 C   0  0  0  0  0  0  0  0  0  0  0  0
   -4.6700   21.7390   -8.5480 O   0  0  0  0  0  0  0  0  0  0  0  0
   -3.6780   24.4330  -10.6580 O   0  0  0  0  0  0  0  0  0  0  0  0
   -2.4510   13.9450   -0.2790 C   0  0  2  0  0  0  0  0  0  0  0  0
    0.0410   14.6350   -0.0990 N   0  0  0  0  0  0  0  0  0  0  0  0
   -3.3480   14.5420   -1.2880 N   0  0  0  0  0  0  0  0  0  0  0  0
   -2.5260   14.5300    1.1720 C   0  0  2  0  0  0  0  0  0  0  0  0
   -0.2420   14.5580    1.2880 C   0  0  0  0  0  0  0  0  0  0  0  0
   -4.3130   15.5540   -0.8710 C   0  0  0  0  0  0  0  0  0  0  0  0
   -3.6590   15.3690    1.4720 N   0  0  0  0  0  0  0  0  0  0  0  0
   -1.4120   15.3630    1.4580 N   0  0  0  0  0  0  0  0  0  0  0  0
   -5.5110   15.0810   -0.1140 C   0  0  0  0  0  0  0  0  0  0  0  0
   -5.5150   14.7910    1.2330 N   0  0  0  0  0  0  0  0  0  0  0  0
   -6.8130   14.8340   -0.5070 C   0  0  0  0  0  0  0  0  0  0  0  0
   -6.7720   14.3980    1.5840 C   0  0  0  0  0  0  0  0  0  0  0  0
   -7.5820   14.4130    0.5500 N   0  0  0  0  0  0  0  0  0  0  0  0
  1  2  1  0
  2  3  1  0
  1  4  2  0
  1  5  1  1
  1  6  1  0
  6  7  1  0
  7  8  2  0
  7  9  1  6
  7 10  1  0
 11  3  1  6
 10 12  1  0
 11 13  1  0
 11 14  1  0
 14 15  1  1
 14 16  1  0
 13 17  1  0
 16 17  1  0
 18 12  1  1
 16 19  1  1
 18 20  1  0
 18 21  1  0
 17 22  1  6
 20 23  1  6
 21 24  1  0
 20 25  1  0
 24 25  1  0
 22 26  1  0
 22 27  1  0
 24 28  1  1
 25 29  1  6
 26 30  1  0
 26 31  1  1
 27 32  1  0
 30 32  1  6
 30 33  1  0
 31 34  1  0
 32 35  1  0
 33 36  1  6
 33 37  1  0
 34 37  1  0
 35 38  1  0
 38 39  1  0
 38 40  2  0
 39 41  1  0
 40 42  1  0
 41 42  2  0
M  END
