mArh-x0766_1_B-mArh-5cms_H_7_H
     RDKit          3D

 52 57  0  0  0  0  0  0  0  0999 V2000
   -6.8970   26.6090  -13.4820 C   0  0  0  0  0  0  0  0  0  0  0  0
   -5.7620   26.0250  -13.9370 O   0  0  0  0  0  0  0  0  0  0  0  0
   -5.7870   24.5900  -13.9470 C   0  0  0  0  0  0  0  0  0  0  0  0
   -7.9040   26.7940  -14.1580 O   0  0  0  0  0  0  0  0  0  0  0  0
   -6.7780   27.0080  -12.0210 C   0  0  2  0  0  0  0  0  0  0  0  0
   -7.9420   26.6410  -11.1100 C   0  0  0  0  0  0  0  0  0  0  0  0
   -6.6480   28.5180  -11.8250 C   0  0  2  0  0  0  0  0  0  0  0  0
   -4.6950   24.0500  -13.0330 C   0  0  0  0  0  0  0  0  0  0  0  0
   -8.8880   27.8300  -11.2200 C   0  0  0  0  0  0  0  0  0  0  0  0
   -8.0900   29.0060  -11.7950 C   0  0  0  0  0  0  0  0  0  0  0  0
   -5.8330   29.1790  -12.9160 C   0  0  0  0  0  0  0  0  0  0  0  0
   -5.0300   24.0500  -11.5490 C   0  0  0  0  0  0  0  0  0  0  0  0
   -4.4510   29.1670  -12.9450 C   0  0  0  0  0  0  0  0  0  0  0  0
   -6.3450   29.8920  -14.0570 C   0  0  0  0  0  0  0  0  0  0  0  0
   -3.8750   24.4490  -10.8130 O   0  0  0  0  0  0  0  0  0  0  0  0
   -5.3520   30.3730  -14.8770 C   0  0  0  0  0  0  0  0  0  0  0  0
   -3.7980   29.9820  -14.2970 S   0  0  0  0  0  0  0  0  0  0  0  0
   -2.7300   23.6590  -11.1350 C   0  0  1  0  0  0  0  0  0  0  0  0
   -1.4030   24.2850  -10.6340 C   0  0  2  0  0  0  0  0  0  0  0  0
   -2.9170   22.4220  -10.4510 O   0  0  0  0  0  0  0  0  0  0  0  0
   -0.6200   24.8470  -11.6770 O   0  0  0  0  0  0  0  0  0  0  0  0
   -0.6690   23.1880   -9.9400 C   0  0  1  0  0  0  0  0  0  0  0  0
   -1.6540   22.0080   -9.9520 C   0  0  1  0  0  0  0  0  0  0  0  0
    0.6010   23.0130  -10.5520 O   0  0  0  0  0  0  0  0  0  0  0  0
   -1.7590   21.4680   -8.5480 C   0  0  0  0  0  0  0  0  0  0  0  0
   -0.4870   20.9160   -8.2750 O   0  0  0  0  0  0  0  0  0  0  0  0
   -0.3620   19.4440   -7.6750 P   0  0  2  0  0  0  0  0  0  0  0  0
    0.6890   19.2710   -6.6470 O   0  0  0  0  0  0  0  0  0  0  0  0
    0.0120   18.5560   -8.9320 O   0  0  0  0  0  0  0  0  0  0  0  0
   -1.8150   18.9340   -7.3200 O   0  0  0  0  0  0  0  0  0  0  0  0
   -1.8660   17.8690   -6.1780 P   0  0  2  0  0  0  0  0  0  0  0  0
   -0.3540   17.3210   -6.3350 O   0  0  0  0  0  0  0  0  0  0  0  0
   -2.9700   16.8660   -6.3100 O   0  0  0  0  0  0  0  0  0  0  0  0
   -1.8840   18.7640   -4.8530 O   0  0  0  0  0  0  0  0  0  0  0  0
    0.4960   16.8490   -5.2870 C   0  0  0  0  0  0  0  0  0  0  0  0
   -0.1990   15.6640   -4.6740 C   0  0  2  0  0  0  0  0  0  0  0  0
   -0.0390   15.5520   -3.2750 O   0  0  0  0  0  0  0  0  0  0  0  0
   -0.0040   14.2080   -5.1420 C   0  0  1  0  0  0  0  0  0  0  0  0
    1.3100   13.7010   -4.9230 O   0  0  0  0  0  0  0  0  0  0  0  0
   -1.0000   13.5660   -4.1600 C   0  0  2  0  0  0  0  0  0  0  0  0
   -1.2250   14.7900   -3.2630 C   0  0  1  0  0  0  0  0  0  0  0  0
   -0.4010   12.4510   -3.5180 O   0  0  0  0  0  0  0  0  0  0  0  0
   -1.9930   14.8570   -2.0590 N   0  0  0  0  0  0  0  0  0  0  0  0
   -1.5760   14.7970   -0.7520 C   0  0  0  0  0  0  0  0  0  0  0  0
   -3.3410   15.0400   -2.0720 C   0  0  0  0  0  0  0  0  0  0  0  0
   -2.7590   14.9820   -0.0550 C   0  0  0  0  0  0  0  0  0  0  0  0
   -0.3470   14.6270   -0.2300 N   0  0  0  0  0  0  0  0  0  0  0  0
   -3.8390   15.1200   -0.8790 N   0  0  0  0  0  0  0  0  0  0  0  0
   -2.6880   15.0130    1.3090 C   0  0  0  0  0  0  0  0  0  0  0  0
   -0.4200   14.6540    1.1220 C   0  0  0  0  0  0  0  0  0  0  0  0
   -3.8280   15.2430    2.0390 N   0  0  0  0  0  0  0  0  0  0  0  0
   -1.4980   14.8290    1.9090 N   0  0  0  0  0  0  0  0  0  0  0  0
  1  2  1  0
  2  3  1  0
  1  4  2  0
  5  1  1  6
  5  6  1  0
  5  7  1  0
  3  8  1  0
  6  9  1  0
  7 10  1  0
  9 10  1  0
  7 11  1  6
  8 12  1  0
 11 13  2  0
 11 14  1  0
 12 15  1  0
 14 16  2  0
 13 17  1  0
 16 17  1  0
 18 15  1  1
 18 19  1  0
 18 20  1  0
 19 21  1  6
 19 22  1  0
 20 23  1  0
 22 23  1  0
 22 24  1  6
 23 25  1  1
 25 26  1  0
 26 27  1  0
 27 28  2  0
 27 29  1  6
 27 30  1  0
 30 31  1  0
 31 32  1  0
 31 33  2  0
 31 34  1  1
 32 35  1  0
 36 35  1  6
 36 37  1  0
 36 38  1  0
 38 39  1  1
 38 40  1  0
 37 41  1  0
 40 41  1  0
 40 42  1  1
 41 43  1  1
 43 44  1  0
 43 45  1  0
 44 46  2  0
 44 47  1  0
 45 48  2  0
 46 48  1  0
 46 49  1  0
 47 50  2  0
 49 51  1  0
 49 52  2  0
 50 52  1  0
M  END
