
     RDKit          3D

 15 16  0  0  0  0  0  0  0  0999 V2000
    2.8650   24.7740   17.2520 N   0  0  0  0  0  0  0  0  0  0  0  0
    3.7530   25.8930   17.5910 C   0  0  1  0  0  0  0  0  0  0  0  0
    5.7380   24.7970   16.6960 O   0  0  0  0  0  0  0  0  0  0  0  0
    5.1140   25.2790   17.8960 C   0  0  0  0  0  0  0  0  0  0  0  0
   -0.4770   26.2240   14.3670 O   0  0  0  0  0  0  0  0  0  0  0  0
    5.9790   25.8800   15.7930 C   0  0  0  0  0  0  0  0  0  0  0  0
    4.6840   26.4890   15.3020 C   0  0  0  0  0  0  0  0  0  0  0  0
    3.8160   26.9700   16.4760 C   0  0  1  0  0  0  0  0  0  0  0  0
    2.4670   27.5060   16.0300 C   0  0  0  0  0  0  0  0  0  0  0  0
    2.0230   28.7440   16.4750 C   0  0  0  0  0  0  0  0  0  0  0  0
    0.7410   29.1850   16.1810 C   0  0  0  0  0  0  0  0  0  0  0  0
   -0.1270   28.3810   15.4590 C   0  0  0  0  0  0  0  0  0  0  0  0
    0.3140   27.1440   15.0110 C   0  0  0  0  0  0  0  0  0  0  0  0
   -1.8550   26.5350   14.1470 C   0  0  0  0  0  0  0  0  0  0  0  0
    1.6150   26.7260   15.2540 C   0  0  0  0  0  0  0  0  0  0  0  0
  2  1  1  6
  2  4  1  0
  2  8  1  0
  4  3  1  0
  8  7  1  0
  8  9  1  6
  3  6  1  0
  6  7  1  0
  5 13  1  0
  5 14  1  0
 13 12  1  0
 13 15  2  0
  9 10  2  0
  9 15  1  0
 10 11  1  0
 11 12  2  0
M  END
