
     RDKit          3D

 13 13  0  0  0  0  0  0  0  0999 V2000
   20.2850   27.4080    7.3080 N   0  0  0  0  0  0  0  0  0  0  0  0
   20.1440   25.6850    5.5070 C   0  0  0  0  0  0  0  0  0  0  0  0
   18.0450   26.8690    8.1390 O   0  0  0  0  0  0  0  0  0  0  0  0
   19.7640   27.0890    5.9510 C   0  0  2  0  0  0  0  0  0  0  0  0
   20.6130   27.3890    2.5280 N   0  0  0  0  0  0  0  0  0  0  0  0
   19.4590   28.4700    9.3570 O   0  0  0  0  0  0  0  0  0  0  0  0
   19.9880   25.9490    9.5820 C   0  0  0  0  0  0  0  0  0  0  0  0
   21.7620   27.5610    7.4500 C   0  0  0  0  0  0  0  0  0  0  0  0
   22.4040   28.1830    6.2100 C   0  0  0  0  0  0  0  0  0  0  0  0
   21.4120   29.0260    5.4100 C   0  0  0  0  0  0  0  0  0  0  0  0
   20.2000   28.1940    4.9620 C   0  0  1  0  0  0  0  0  0  0  0  0
   20.4160   27.7190    3.5970 C   0  0  0  0  0  0  0  0  0  0  0  0
   19.3340   27.2570    8.6140 S   0  0  2  0  0  0  0  0  0  0  0  0
  1  4  1  0
  1  8  1  0
  1 13  1  0
  4  2  1  6
  4 11  1  0
  8  9  1  0
 13  3  2  0
 13  6  2  0
 13  7  1  1
 11 10  1  0
 11 12  1  6
  5 12  3  0
  9 10  1  0
M  END
