mArh-5cms_K_10_K-mArh-x0918_1_B
     RDKit          3D

 45 49  0  0  0  0  0  0  0  0999 V2000
   -1.6040   18.3670   -5.9810 P   0  0  1  0  0  0  0  0  0  0  0  0
   -0.8930   17.5100   -4.8600 O   0  0  0  0  0  0  0  0  0  0  0  0
    0.2250   16.7220   -5.2110 C   0  0  0  0  0  0  0  0  0  0  0  0
   -2.4590   17.5840   -6.9140 O   0  0  0  0  0  0  0  0  0  0  0  0
   -2.4230   19.4200   -5.1220 O   0  0  0  0  0  0  0  0  0  0  0  0
   -0.3890   19.1680   -6.5220 O   0  0  0  0  0  0  0  0  0  0  0  0
   -0.1770   19.8230   -7.8970 P   0  0  1  0  0  0  0  0  0  0  0  0
    0.7970   20.9410   -7.9160 O   0  0  0  0  0  0  0  0  0  0  0  0
    0.2370   18.5920   -8.8310 O   0  0  0  0  0  0  0  0  0  0  0  0
   -1.6050   20.1410   -8.5140 O   0  0  0  0  0  0  0  0  0  0  0  0
   -0.2040   15.3990   -4.6500 C   0  0  2  0  0  0  0  0  0  0  0  0
   -2.3970   21.2540   -8.1400 C   0  0  0  0  0  0  0  0  0  0  0  0
    0.1000   15.3720   -3.2770 O   0  0  0  0  0  0  0  0  0  0  0  0
    0.2940   14.0670   -5.1590 C   0  0  1  0  0  0  0  0  0  0  0  0
    1.6810   13.8070   -4.9180 O   0  0  0  0  0  0  0  0  0  0  0  0
   -0.5000   13.2390   -4.1590 C   0  0  1  0  0  0  0  0  0  0  0  0
   -0.4780   14.1350   -2.8790 C   0  0  2  0  0  0  0  0  0  0  0  0
   -2.6030   22.1220   -9.3630 C   0  0  2  0  0  0  0  0  0  0  0  0
   -1.7460   12.8320   -4.6840 O   0  0  0  0  0  0  0  0  0  0  0  0
   -3.1210   23.5060   -9.1110 C   0  0  1  0  0  0  0  0  0  0  0  0
   -3.4470   21.5570  -10.3790 O   0  0  0  0  0  0  0  0  0  0  0  0
   -1.6510   14.4830   -2.1000 N   0  0  0  0  0  0  0  0  0  0  0  0
   -1.9370   24.2570   -8.8850 O   0  0  0  0  0  0  0  0  0  0  0  0
   -4.1580   22.5830  -11.0940 C   0  0  2  0  0  0  0  0  0  0  0  0
   -3.9910   23.9150  -10.3510 C   0  0  2  0  0  0  0  0  0  0  0  0
   -1.5820   14.5720   -0.7470 C   0  0  0  0  0  0  0  0  0  0  0  0
   -2.9460   14.7750   -2.4580 C   0  0  0  0  0  0  0  0  0  0  0  0
   -5.5350   22.2610  -11.1310 O   0  0  0  0  0  0  0  0  0  0  0  0
   -3.4350   24.9540  -11.2050 O   0  0  0  0  0  0  0  0  0  0  0  0
   -2.8510   14.9130   -0.3210 C   0  0  0  0  0  0  0  0  0  0  0  0
   -0.4830   14.3620   -0.0120 N   0  0  0  0  0  0  0  0  0  0  0  0
   -3.7060   15.0450   -1.4040 N   0  0  0  0  0  0  0  0  0  0  0  0
   -4.3960   25.6670  -12.0020 C   0  0  0  0  0  0  0  0  0  0  0  0
   -3.0150   15.0540    1.0640 C   0  0  0  0  0  0  0  0  0  0  0  0
   -0.7520   14.5110    1.2880 C   0  0  0  0  0  0  0  0  0  0  0  0
   -4.2140   15.4070    1.6710 N   0  0  0  0  0  0  0  0  0  0  0  0
   -3.7430   26.8190  -12.8110 C   0  0  0  0  0  0  0  0  0  0  0  0
   -1.9300   14.8300    1.8590 N   0  0  0  0  0  0  0  0  0  0  0  0
   -4.7030   27.9880  -12.9810 C   0  0  0  0  0  0  0  0  0  0  0  0
   -4.5570   29.0250  -13.9210 C   0  0  0  0  0  0  0  0  0  0  0  0
   -5.8280   28.0360  -12.1550 C   0  0  0  0  0  0  0  0  0  0  0  0
   -3.4720   29.1210  -14.8070 N   0  0  0  0  0  0  0  0  0  0  0  0
   -5.5430   30.0060  -13.9830 C   0  0  0  0  0  0  0  0  0  0  0  0
   -6.7860   28.9830  -12.2020 N   0  0  0  0  0  0  0  0  0  0  0  0
   -6.6220   29.9430  -13.1190 C   0  0  0  0  0  0  0  0  0  0  0  0
  1  2  1  0
  2  3  1  0
  1  4  2  0
  1  5  1  1
  1  6  1  0
  6  7  1  0
  7  8  2  0
  7  9  1  6
  7 10  1  0
 11  3  1  6
 10 12  1  0
 11 13  1  0
 11 14  1  0
 14 15  1  1
 14 16  1  0
 13 17  1  0
 16 17  1  0
 18 12  1  1
 16 19  1  6
 18 20  1  0
 18 21  1  0
 17 22  1  6
 20 23  1  6
 21 24  1  0
 20 25  1  0
 24 25  1  0
 22 26  1  0
 22 27  1  0
 24 28  1  1
 25 29  1  6
 26 30  2  0
 26 31  1  0
 27 32  2  0
 30 32  1  0
 29 33  1  0
 30 34  1  0
 31 35  2  0
 34 36  1  0
 33 37  1  0
 34 38  2  0
 35 38  1  0
 37 39  1  0
 39 40  2  0
 39 41  1  0
 40 42  1  0
 40 43  1  0
 41 44  2  0
 43 45  2  0
 44 45  1  0
M  END
