mArh-5cb5_D_0_D-mArh-5cb5_F_1_F
     RDKit          3D

 39 42  0  0  0  0  0  0  0  0999 V2000
   -1.7310   18.4530   -6.0740 P   0  0  1  0  0  0  0  0  0  0  0  0
   -1.1000   17.1900   -5.3630 O   0  0  0  0  0  0  0  0  0  0  0  0
    0.3170   17.1350   -5.3340 C   0  0  0  0  0  0  0  0  0  0  0  0
   -2.7150   18.1240   -7.1270 O   0  0  0  0  0  0  0  0  0  0  0  0
   -2.3680   19.3570   -4.9170 O   0  0  0  0  0  0  0  0  0  0  0  0
   -0.4950   19.3380   -6.4340 O   0  0  0  0  0  0  0  0  0  0  0  0
   -0.0930   19.9080   -7.8330 P   0  0  1  0  0  0  0  0  0  0  0  0
    1.0990   20.7990   -7.7720 O   0  0  0  0  0  0  0  0  0  0  0  0
    0.0940   18.5980   -8.7660 O   0  0  0  0  0  0  0  0  0  0  0  0
   -1.3860   20.5480   -8.4740 O   0  0  0  0  0  0  0  0  0  0  0  0
    0.7340   15.8550   -4.6430 C   0  0  1  0  0  0  0  0  0  0  0  0
   -1.6260   21.8760   -8.0910 C   0  0  0  0  0  0  0  0  0  0  0  0
    0.2280   15.9030   -3.3010 O   0  0  0  0  0  0  0  0  0  0  0  0
    0.2530   14.5420   -5.2770 C   0  0  1  0  0  0  0  0  0  0  0  0
    1.2130   13.9110   -6.0970 O   0  0  0  0  0  0  0  0  0  0  0  0
   -0.0160   13.6360   -4.1040 C   0  0  1  0  0  0  0  0  0  0  0  0
   -0.1760   14.5780   -2.9130 C   0  0  2  0  0  0  0  0  0  0  0  0
   -3.0870   22.1950   -7.9170 C   0  0  1  0  0  0  0  0  0  0  0  0
   -0.9730   12.6320   -4.3270 O   0  0  0  0  0  0  0  0  0  0  0  0
   -3.6420   23.4570   -8.5360 C   0  0  1  0  0  0  0  0  0  0  0  0
   -4.0050   21.2050   -8.3680 O   0  0  0  0  0  0  0  0  0  0  0  0
   -1.3480   14.7160   -2.0880 N   0  0  0  0  0  0  0  0  0  0  0  0
   -3.8050   23.5030   -9.9390 O   0  0  0  0  0  0  0  0  0  0  0  0
   -5.2630   21.7970   -8.0350 C   0  0  2  0  0  0  0  0  0  0  0  0
   -5.0410   23.2740   -8.0860 C   0  0  1  0  0  0  0  0  0  0  0  0
   -1.3210   14.7280   -0.7480 C   0  0  0  0  0  0  0  0  0  0  0  0
   -2.6700   14.8710   -2.4790 C   0  0  0  0  0  0  0  0  0  0  0  0
   -5.6620   21.3980   -6.7120 O   0  0  0  0  0  0  0  0  0  0  0  0
   -5.4720   23.9310   -6.8610 C   0  0  0  0  0  0  0  0  0  0  0  0
   -2.6340   14.9040   -0.3430 C   0  0  0  0  0  0  0  0  0  0  0  0
   -0.2220   14.6010    0.0010 N   0  0  0  0  0  0  0  0  0  0  0  0
   -3.4800   14.9900   -1.4360 N   0  0  0  0  0  0  0  0  0  0  0  0
   -5.8240   22.9260   -5.9540 O   0  0  0  0  0  0  0  0  0  0  0  0
   -4.5140   24.9330   -6.2200 C   0  0  0  0  0  0  0  0  0  0  0  0
   -6.6750   24.4700   -7.2240 O   0  0  0  0  0  0  0  0  0  0  0  0
   -2.8400   14.9650    1.0430 C   0  0  0  0  0  0  0  0  0  0  0  0
   -0.5400   14.6530    1.2980 C   0  0  0  0  0  0  0  0  0  0  0  0
   -4.0840   15.1680    1.6110 N   0  0  0  0  0  0  0  0  0  0  0  0
   -1.7620   14.8180    1.8530 N   0  0  0  0  0  0  0  0  0  0  0  0
  1  2  1  0
  2  3  1  0
  1  4  2  0
  1  5  1  1
  1  6  1  0
  6  7  1  0
  7  8  2  0
  7  9  1  6
  7 10  1  0
 11  3  1  6
 10 12  1  0
 11 13  1  0
 11 14  1  0
 14 15  1  6
 14 16  1  0
 13 17  1  0
 16 17  1  0
 18 12  1  6
 16 19  1  6
 18 20  1  0
 18 21  1  0
 17 22  1  6
 20 23  1  6
 21 24  1  0
 20 25  1  0
 24 25  1  0
 22 26  1  0
 22 27  1  0
 24 28  1  1
 25 29  1  1
 26 30  2  0
 26 31  1  0
 27 32  2  0
 30 32  1  0
 29 33  1  0
 29 34  1  0
 29 35  1  0
 30 36  1  0
 31 37  2  0
 36 38  1  0
 36 39  2  0
 37 39  1  0
M  END
