mArh-x0465_0_A-mArh-x0681_0_A
     RDKit          3D

 27 29  0  0  0  0  0  0  0  0999 V2000
    2.1920   13.1770   -4.7500 C   0  0  0  0  0  0  0  0  0  0  0  0
    0.8070   12.5800   -4.5210 C   0  0  1  0  0  0  0  0  0  0  0  0
    0.6360   11.5180   -5.4630 O   0  0  0  0  0  0  0  0  0  0  0  0
    0.6740   12.0130   -3.0990 C   0  0  0  0  0  0  0  0  0  0  0  0
    0.5270   12.6110   -1.9820 N   0  0  0  0  0  0  0  0  0  0  0  0
    0.6980   10.6800   -2.9650 O   0  0  0  0  0  0  0  0  0  0  0  0
   -0.5580   10.8700   -5.5840 C   0  0  0  0  0  0  0  0  0  0  0  0
    0.4240   14.0600   -1.8570 C   0  0  0  0  0  0  0  0  0  0  0  0
   -0.5950    9.7370   -6.6050 C   0  0  0  0  0  0  0  0  0  0  0  0
   -1.7200   11.1570   -4.8620 C   0  0  0  0  0  0  0  0  0  0  0  0
    0.4840    9.4120   -7.3370 F   0  0  0  0  0  0  0  0  0  0  0  0
   -0.9100   14.4150   -1.1930 C   0  0  0  0  0  0  0  0  0  0  0  0
   -1.8740    8.9480   -6.8120 C   0  0  0  0  0  0  0  0  0  0  0  0
   -2.8860   10.4450   -5.0480 C   0  0  0  0  0  0  0  0  0  0  0  0
   -1.9250   14.8410   -2.1740 N   0  0  0  0  0  0  0  0  0  0  0  0
   -2.9830    9.2920   -6.0570 C   0  0  0  0  0  0  0  0  0  0  0  0
   -3.1700   14.8660   -1.8430 C   0  0  0  0  0  0  0  0  0  0  0  0
   -4.2290   15.2570   -2.6310 N   0  0  0  0  0  0  0  0  0  0  0  0
   -3.5380   14.4210   -0.4230 C   0  0  2  0  0  0  0  0  0  0  0  0
   -4.6520   13.4370   -0.5260 C   0  0  0  0  0  0  0  0  0  0  0  0
   -3.9770   15.5400    0.5110 C   0  0  0  0  0  0  0  0  0  0  0  0
   -5.4190   13.1940    0.5880 N   0  0  0  0  0  0  0  0  0  0  0  0
   -4.4200   15.0060    1.8630 C   0  0  0  0  0  0  0  0  0  0  0  0
   -5.0330   12.7310   -1.5800 N   0  0  0  0  0  0  0  0  0  0  0  0
   -5.1990   13.8300    1.8490 C   0  0  0  0  0  0  0  0  0  0  0  0
   -6.3760   12.2800    0.2940 C   0  0  0  0  0  0  0  0  0  0  0  0
   -6.1010   11.9790   -1.1620 C   0  0  0  0  0  0  0  0  0  0  0  0
  2  1  1  1
  2  3  1  0
  2  4  1  0
  4  5  2  3
  4  6  1  0
  3  7  1  0
  5  8  1  0
  7  9  2  0
  7 10  1  0
  9 11  1  0
  8 12  1  0
  9 13  1  0
 10 14  2  0
 12 15  1  0
 13 16  2  0
 14 16  1  0
 15 17  2  3
 17 18  1  0
 19 17  1  6
 19 20  1  0
 19 21  1  0
 20 22  1  0
 21 23  1  0
 20 24  2  0
 22 25  1  0
 23 25  1  0
 22 26  1  0
 24 27  1  0
 26 27  2  0
M  END
