mArh-5cb5_I_0_I-mArh-5cms_O_14_O
     RDKit          3D

 44 48  0  0  0  0  0  0  0  0999 V2000
   -1.5170   18.0840   -6.1700 P   0  0  1  0  0  0  0  0  0  0  0  0
   -0.1890   17.1920   -6.0470 O   0  0  0  0  0  0  0  0  0  0  0  0
    0.4510   17.1080   -4.7670 C   0  0  0  0  0  0  0  0  0  0  0  0
   -2.6380   17.4760   -6.8910 O   0  0  0  0  0  0  0  0  0  0  0  0
   -1.8820   18.3360   -4.6420 O   0  0  0  0  0  0  0  0  0  0  0  0
   -1.1210   19.5360   -6.6180 O   0  0  0  0  0  0  0  0  0  0  0  0
   -0.2720   19.9250   -7.8850 P   0  0  1  0  0  0  0  0  0  0  0  0
    0.9900   20.6670   -7.6430 O   0  0  0  0  0  0  0  0  0  0  0  0
   -0.0560   18.5660   -8.7020 O   0  0  0  0  0  0  0  0  0  0  0  0
   -1.3020   20.5860   -8.9000 O   0  0  0  0  0  0  0  0  0  0  0  0
    0.8100   15.6630   -4.3080 C   0  0  1  0  0  0  0  0  0  0  0  0
   -1.6740   21.9600   -8.8590 C   0  0  0  0  0  0  0  0  0  0  0  0
    0.2640   15.4500   -2.9950 O   0  0  0  0  0  0  0  0  0  0  0  0
    0.2520   14.4770   -5.1460 C   0  0  1  0  0  0  0  0  0  0  0  0
    1.2330   13.4850   -5.4360 O   0  0  0  0  0  0  0  0  0  0  0  0
   -0.8830   13.8520   -4.3120 C   0  0  2  0  0  0  0  0  0  0  0  0
   -1.0500   14.9790   -3.3210 C   0  0  1  0  0  0  0  0  0  0  0  0
   -3.2210   22.0070   -8.8020 C   0  0  2  0  0  0  0  0  0  0  0  0
   -1.0560   22.6150  -10.1330 C   0  0  2  0  0  0  0  0  0  0  0  0
   -0.4500   12.6000   -3.7830 O   0  0  0  0  0  0  0  0  0  0  0  0
   -3.8940   23.3320   -8.3640 C   0  0  1  0  0  0  0  0  0  0  0  0
   -3.8580   20.9760   -8.0100 O   0  0  0  0  0  0  0  0  0  0  0  0
   -1.9100   14.9660   -2.1700 N   0  0  0  0  0  0  0  0  0  0  0  0
   -1.3440   24.0950  -10.3380 C   0  0  1  0  0  0  0  0  0  0  0  0
   -1.6470   21.9730  -11.2660 O   0  0  0  0  0  0  0  0  0  0  0  0
   -4.7850   23.8970   -9.3240 O   0  0  0  0  0  0  0  0  0  0  0  0
   -0.3920   24.7390  -11.2040 O   0  0  0  0  0  0  0  0  0  0  0  0
   -5.0910   21.5300   -7.5900 C   0  0  2  0  0  0  0  0  0  0  0  0
   -4.6800   22.9210   -7.1350 C   0  0  2  0  0  0  0  0  0  0  0  0
   -1.5500   14.8670   -0.8460 C   0  0  0  0  0  0  0  0  0  0  0  0
   -3.2700   15.1030   -2.2320 C   0  0  0  0  0  0  0  0  0  0  0  0
   -2.8980   22.6090  -11.4330 C   0  0  2  0  0  0  0  0  0  0  0  0
   -2.6980   24.0780  -11.0610 C   0  0  2  0  0  0  0  0  0  0  0  0
   -5.6310   20.7770   -6.5270 O   0  0  0  0  0  0  0  0  0  0  0  0
   -5.8050   23.8120   -6.9930 O   0  0  0  0  0  0  0  0  0  0  0  0
   -3.8210   22.0260  -10.5530 O   0  0  0  0  0  0  0  0  0  0  0  0
   -2.6500   24.9360  -12.2130 O   0  0  0  0  0  0  0  0  0  0  0  0
   -2.7600   14.9980   -0.1820 C   0  0  0  0  0  0  0  0  0  0  0  0
   -0.3290   14.7100   -0.2860 N   0  0  0  0  0  0  0  0  0  0  0  0
   -3.8190   15.1280   -1.0460 N   0  0  0  0  0  0  0  0  0  0  0  0
   -2.7130   14.9940    1.2030 C   0  0  0  0  0  0  0  0  0  0  0  0
   -0.4330   14.6960    1.0600 C   0  0  0  0  0  0  0  0  0  0  0  0
   -3.8540   15.1760    1.9440 N   0  0  0  0  0  0  0  0  0  0  0  0
   -1.5280   14.8240    1.8260 N   0  0  0  0  0  0  0  0  0  0  0  0
  1  2  1  0
  2  3  1  0
  1  4  2  0
  1  5  1  1
  1  6  1  0
  6  7  1  0
  7  8  2  0
  7  9  1  6
  7 10  1  0
 11  3  1  6
 10 12  1  0
 11 13  1  0
 11 14  1  0
 14 15  1  1
 14 16  1  0
 13 17  1  0
 16 17  1  0
 18 12  1  1
 19 12  1  1
 16 20  1  1
 18 21  1  0
 18 22  1  0
 17 23  1  1
 19 24  1  0
 19 25  1  0
 21 26  1  6
 24 27  1  6
 22 28  1  0
 21 29  1  0
 28 29  1  0
 23 30  1  0
 23 31  1  0
 25 32  1  0
 24 33  1  0
 32 33  1  0
 28 34  1  1
 29 35  1  6
 32 36  1  1
 33 37  1  6
 30 38  2  0
 30 39  1  0
 31 40  2  0
 38 40  1  0
 38 41  1  0
 39 42  2  0
 41 43  1  0
 41 44  2  0
 42 44  1  0
M  END
