mArh-x0727_0_A-mArh-x0159_0_B
     RDKit          3D

 32 35  0  0  0  0  0  0  0  0999 V2000
    0.0980   11.4620   -5.6460 N   0  0  0  0  0  0  0  0  0  0  0  0
    0.9170   12.3560   -4.8180 C   0  0  1  0  0  0  0  0  0  0  0  0
    0.4930   13.8000   -5.0080 C   0  0  0  0  0  0  0  0  0  0  0  0
    0.6630   10.9930   -6.8080 C   0  0  0  0  0  0  0  0  0  0  0  0
    1.4740   11.6560   -7.3930 O   0  0  0  0  0  0  0  0  0  0  0  0
    0.7840   11.9370   -3.3510 C   0  0  0  0  0  0  0  0  0  0  0  0
    0.2910    9.5850   -7.2830 C   0  0  2  0  0  0  0  0  0  0  0  0
    0.2170   10.7220   -2.8780 O   0  0  0  0  0  0  0  0  0  0  0  0
    1.2820   12.8490   -2.4910 O   0  0  0  0  0  0  0  0  0  0  0  0
   -0.4700    9.5070   -8.5870 C   0  0  2  0  0  0  0  0  0  0  0  0
   -0.6120    8.8300   -6.3140 C   0  0  0  0  0  0  0  0  0  0  0  0
    0.2590   10.2630   -9.7130 C   0  0  0  0  0  0  0  0  0  0  0  0
   -1.8490    9.8710   -8.0690 C   0  0  0  0  0  0  0  0  0  0  0  0
   -1.9350    9.0010   -6.8000 C   0  0  0  0  0  0  0  0  0  0  0  0
    1.3270    9.3530  -10.2200 N   0  0  0  0  0  0  0  0  0  0  0  0
    1.8600    8.3070   -9.3560 C   0  0  0  0  0  0  0  0  0  0  0  0
    2.1120    9.6100  -11.2920 C   0  0  0  0  0  0  0  0  0  0  0  0
    1.2710    6.9960   -9.7680 C   0  0  0  0  0  0  0  0  0  0  0  0
    1.9730   10.7200  -12.0280 N   0  0  0  0  0  0  0  0  0  0  0  0
    3.0900    8.8450  -11.7470 N   0  0  0  0  0  0  0  0  0  0  0  0
    3.6020    9.5120  -12.8230 C   0  0  0  0  0  0  0  0  0  0  0  0
    2.9140   10.6980  -13.0230 C   0  0  0  0  0  0  0  0  0  0  0  0
    1.1460    6.0400   -8.6600 C   0  0  0  0  0  0  0  0  0  0  0  0
    2.0960    5.0510   -8.5280 C   0  0  0  0  0  0  0  0  0  0  0  0
    0.0710    6.1640   -7.7770 C   0  0  0  0  0  0  0  0  0  0  0  0
    3.2090   11.5900  -14.0420 C   0  0  0  0  0  0  0  0  0  0  0  0
    4.6550    9.1710  -13.6810 C   0  0  0  0  0  0  0  0  0  0  0  0
    1.9540    4.0670   -7.3940 C   0  0  0  0  0  0  0  0  0  0  0  0
   -0.0870    5.2880   -6.7350 C   0  0  0  0  0  0  0  0  0  0  0  0
    4.2610   11.2440  -14.8910 C   0  0  0  0  0  0  0  0  0  0  0  0
    4.9740   10.0560  -14.7180 C   0  0  0  0  0  0  0  0  0  0  0  0
    0.9190    4.1990   -6.5730 C   0  0  0  0  0  0  0  0  0  0  0  0
  1  2  1  0
  2  3  1  1
  1  4  1  0
  4  5  2  0
  2  6  1  0
  7  4  1  1
  6  8  2  0
  6  9  1  0
  7 10  1  0
  7 11  1  0
 10 12  1  6
 10 13  1  0
 11 14  1  0
 13 14  1  0
 12 15  1  0
 15 16  1  0
 15 17  1  0
 16 18  1  0
 17 19  1  0
 17 20  2  0
 20 21  1  0
 19 22  1  0
 21 22  2  0
 18 23  1  0
 23 24  2  0
 23 25  1  0
 22 26  1  0
 21 27  1  0
 24 28  1  0
 25 29  2  0
 26 30  2  0
 27 31  2  0
 30 31  1  0
 28 32  2  0
 29 32  1  0
M  END
