
     RDKit          3D

 13 13  0  0  0  0  0  0  0  0999 V2000
   -1.3050   10.7060   -4.9440 N   0  0  0  0  0  0  0  0  0  0  0  0
   -0.0660   12.7810   -4.3240 C   0  0  0  0  0  0  0  0  0  0  0  0
    2.1910   12.3790   -3.1000 O   0  0  0  0  0  0  0  0  0  0  0  0
   -1.4210   12.1040   -4.5060 C   0  0  0  0  0  0  0  0  0  0  0  0
    0.3080   10.9730   -2.5370 O   0  0  0  0  0  0  0  0  0  0  0  0
   -0.7190   10.4290   -6.2720 C   0  0  2  0  0  0  0  0  0  0  0  0
    0.4030   13.3260   -1.8150 O   0  0  0  0  0  0  0  0  0  0  0  0
   -1.7190   10.8950   -7.3140 C   0  0  0  0  0  0  0  0  0  0  0  0
   -1.2340   10.5780   -8.7290 C   0  0  0  0  0  0  0  0  0  0  0  0
   -0.9590    9.1000   -8.9020 C   0  0  0  0  0  0  0  0  0  0  0  0
    0.0330    8.6160   -7.8530 C   0  0  0  0  0  0  0  0  0  0  0  0
   -0.4410    8.9390   -6.4380 C   0  0  0  0  0  0  0  0  0  0  0  0
    0.7350   12.3170   -2.8120 S   0  0  2  0  0  0  0  0  0  0  0  0
  1  4  1  0
  6  1  1  1
  4  2  1  0
  6  8  1  0
  6 12  1  0
  2 13  1  0
 13  3  2  0
 13  5  2  0
 13  7  1  1
  8  9  1  0
 12 11  1  0
  9 10  1  0
 10 11  1  0
M  END
