mArh-x0574_0_A-mArh-x0910_0_A
     RDKit          3D

 17 19  0  0  0  0  0  0  0  0999 V2000
    0.2600   14.0110    2.3580 N   0  0  0  0  0  0  0  0  0  0  0  0
   -0.6960   14.2430    1.5240 C   0  0  0  0  0  0  0  0  0  0  0  0
   -1.8790   14.3310    1.9650 N   0  0  0  0  0  0  0  0  0  0  0  0
   -0.4380   14.4390   -0.1510 S   0  0  0  0  0  0  0  0  0  0  0  0
   -2.7110   14.5500    0.9410 C   0  0  0  0  0  0  0  0  0  0  0  0
   -2.1240   14.6460   -0.3170 C   0  0  0  0  0  0  0  0  0  0  0  0
   -4.0610   14.6710    1.0840 C   0  0  0  0  0  0  0  0  0  0  0  0
   -2.8730   14.8730   -1.4660 C   0  0  0  0  0  0  0  0  0  0  0  0
   -4.7920   14.8840   -0.0500 C   0  0  0  0  0  0  0  0  0  0  0  0
   -4.2300   14.9910   -1.3000 C   0  0  0  0  0  0  0  0  0  0  0  0
   -6.1620   15.0040   -0.0010 C   0  0  0  0  0  0  0  0  0  0  0  0
   -6.8300   15.5690   -0.9630 N   0  0  0  0  0  0  0  0  0  0  0  0
   -6.9650   14.5840    0.9830 N   0  0  0  0  0  0  0  0  0  0  0  0
   -8.1200   15.5330   -0.6090 N   0  0  0  0  0  0  0  0  0  0  0  0
   -8.1830   14.9400    0.5590 C   0  0  0  0  0  0  0  0  0  0  0  0
   -6.6680   13.9050    2.2270 C   0  0  0  0  0  0  0  0  0  0  0  0
   -6.4300   14.8550    3.3770 C   0  0  0  0  0  0  0  0  0  0  0  0
  1  2  1  0
  2  3  2  0
  2  4  1  0
  3  5  1  0
  4  6  1  0
  5  6  2  0
  5  7  1  0
  6  8  1  0
  7  9  2  0
  8 10  2  0
  9 10  1  0
  9 11  1  0
 11 12  2  0
 11 13  1  0
 12 14  1  0
 13 15  1  0
 14 15  2  0
 13 16  1  0
 16 17  1  0
M  END
