mArh-5cms_Q_16_Q-mArh-x0926_0_A
     RDKit          3D

 37 40  0  0  0  0  0  0  0  0999 V2000
   -1.6950   17.8290   -5.8500 P   0  0  1  0  0  0  0  0  0  0  0  0
   -0.1160   17.6870   -5.4650 O   0  0  0  0  0  0  0  0  0  0  0  0
    0.6060   16.4690   -5.2430 C   0  0  0  0  0  0  0  0  0  0  0  0
   -2.6240   16.6650   -5.7620 O   0  0  0  0  0  0  0  0  0  0  0  0
   -2.1630   19.1130   -5.0150 O   0  0  0  0  0  0  0  0  0  0  0  0
   -1.7080   18.3970   -7.3110 O   0  0  0  0  0  0  0  0  0  0  0  0
   -0.6470   19.4680   -7.7710 P   0  0  1  0  0  0  0  0  0  0  0  0
    0.7480   18.9640   -7.7000 O   0  0  0  0  0  0  0  0  0  0  0  0
   -1.0990   19.8170   -9.2190 O   0  0  0  0  0  0  0  0  0  0  0  0
   -0.9900   20.8350   -7.0230 O   0  0  0  0  0  0  0  0  0  0  0  0
   -0.3080   15.3240   -4.8790 C   0  0  2  0  0  0  0  0  0  0  0  0
   -1.1750   22.1000   -7.6830 C   0  0  0  0  0  0  0  0  0  0  0  0
   -0.6120   15.4990   -3.5120 O   0  0  0  0  0  0  0  0  0  0  0  0
    0.0720   13.8240   -4.9650 C   0  0  1  0  0  0  0  0  0  0  0  0
    1.4560   13.5550   -4.6980 O   0  0  0  0  0  0  0  0  0  0  0  0
   -0.7440   13.2300   -3.7870 C   0  0  1  0  0  0  0  0  0  0  0  0
   -1.5670   14.4590   -3.4140 C   0  0  1  0  0  0  0  0  0  0  0  0
   -1.0050   22.1090   -9.2060 C   0  0  2  0  0  0  0  0  0  0  0  0
   -1.5470   12.1260   -4.2040 O   0  0  0  0  0  0  0  0  0  0  0  0
   -0.7240   23.4980   -9.8070 C   0  0  1  0  0  0  0  0  0  0  0  0
   -2.1990   21.5930   -9.8660 O   0  0  0  0  0  0  0  0  0  0  0  0
   -2.3560   14.6990   -2.2190 N   0  0  0  0  0  0  0  0  0  0  0  0
    0.3900   23.4680  -10.7010 O   0  0  0  0  0  0  0  0  0  0  0  0
   -2.4160   22.3940  -11.0180 C   0  0  2  0  0  0  0  0  0  0  0  0
   -1.9920   23.7850  -10.5910 C   0  0  2  0  0  0  0  0  0  0  0  0
   -1.9830   14.7730   -0.8680 C   0  0  0  0  0  0  0  0  0  0  0  0
   -3.6990   14.9340   -2.2200 C   0  0  0  0  0  0  0  0  0  0  0  0
   -3.7960   22.4250  -11.3530 O   0  0  0  0  0  0  0  0  0  0  0  0
   -1.7220   24.6480  -11.7070 O   0  0  0  0  0  0  0  0  0  0  0  0
   -3.1080   15.0790   -0.0750 C   0  0  0  0  0  0  0  0  0  0  0  0
   -0.7420   14.6010   -0.3500 N   0  0  0  0  0  0  0  0  0  0  0  0
   -4.1650   15.1680   -0.8890 N   0  0  0  0  0  0  0  0  0  0  0  0
   -5.3980   15.4070   -0.7020 O   0  0  0  0  0  0  0  0  0  0  0  0
   -2.9890   15.2360    1.2740 C   0  0  0  0  0  0  0  0  0  0  0  0
   -0.7260   14.7550    0.9930 C   0  0  0  0  0  0  0  0  0  0  0  0
   -4.0490   15.5710    2.0800 N   0  0  0  0  0  0  0  0  0  0  0  0
   -1.7630   15.0560    1.8090 N   0  0  0  0  0  0  0  0  0  0  0  0
  1  2  1  0
  2  3  1  0
  1  4  2  0
  1  5  1  1
  1  6  1  0
  6  7  1  0
  7  8  2  0
  7  9  1  6
  7 10  1  0
 11  3  1  1
 10 12  1  0
 11 13  1  0
 11 14  1  0
 14 15  1  1
 14 16  1  0
 13 17  1  0
 16 17  1  0
 18 12  1  1
 16 19  1  6
 18 20  1  0
 18 21  1  0
 17 22  1  1
 20 23  1  6
 21 24  1  0
 20 25  1  0
 24 25  1  0
 22 26  1  0
 22 27  1  0
 24 28  1  1
 25 29  1  6
 26 30  2  0
 26 31  1  0
 27 32  2  0
 30 32  1  0
 32 33  1  0
 30 34  1  0
 31 35  2  0
 34 36  1  0
 34 37  2  0
 35 37  1  0
M  CHG  2  32   1  33  -1
M  END
