
     RDKit          3D

 36 39  0  0  0  0  0  0  0  0999 V2000
   -3.7990   16.2150   -4.1690 P   0  0  0  0  0  0  0  0  0  0  0  0
   -3.7350   19.0260   -4.3390 P   0  0  0  0  0  0  0  0  0  0  0  0
   -2.5590   13.8960   -4.4850 C   0  0  0  0  0  0  0  0  0  0  0  0
   -2.4990   15.3380   -4.4950 O   0  0  0  0  0  0  0  0  0  0  0  0
   -1.1590   13.3470   -4.1350 C   0  0  1  0  0  0  0  0  0  0  0  0
   -0.7380   13.9210   -2.8760 O   0  0  0  0  0  0  0  0  0  0  0  0
   -1.1720   11.8180   -3.9060 C   0  0  1  0  0  0  0  0  0  0  0  0
    0.0370   11.2030   -4.4050 O   0  0  0  0  0  0  0  0  0  0  0  0
   -1.2560   11.6300   -2.3750 C   0  0  1  0  0  0  0  0  0  0  0  0
   -0.3090   10.6220   -1.9670 O   0  0  0  0  0  0  0  0  0  0  0  0
   -0.9260   13.0190   -1.7740 C   0  0  2  0  0  0  0  0  0  0  0  0
   -7.2120   17.0390   -7.2460 C   0  0  1  0  0  0  0  0  0  0  0  0
   -1.5520   14.9710    2.9230 N   0  0  0  0  0  0  0  0  0  0  0  0
   -4.3840   15.8480   -2.8590 O   0  0  0  0  0  0  0  0  0  0  0  0
   -4.9270   19.2400   -3.4800 O   0  0  0  0  0  0  0  0  0  0  0  0
   -7.2470   16.8560   -5.8450 O   0  0  0  0  0  0  0  0  0  0  0  0
   -0.4450   14.5980    2.2520 C   0  0  0  0  0  0  0  0  0  0  0  0
   -8.1090   18.2080   -7.7280 C   0  0  2  0  0  0  0  0  0  0  0  0
   -4.8340   16.0520   -5.2060 O   0  0  0  0  0  0  0  0  0  0  0  0
   -2.8190   20.1170   -3.9570 O   0  0  0  0  0  0  0  0  0  0  0  0
   -8.9440   17.8700   -8.8370 O   0  0  0  0  0  0  0  0  0  0  0  0
   -7.1240   19.3080   -8.2000 C   0  0  2  0  0  0  0  0  0  0  0  0
   -0.4050   14.0700    1.0130 N   0  0  0  0  0  0  0  0  0  0  0  0
   -3.0640   17.6120   -4.1430 O   0  0  0  0  0  0  0  0  0  0  0  0
   -7.1740   19.4870   -9.6440 O   0  0  0  0  0  0  0  0  0  0  0  0
   -1.5940   13.9450    0.3960 C   0  0  0  0  0  0  0  0  0  0  0  0
   -5.7180   18.8280   -7.7450 C   0  0  2  0  0  0  0  0  0  0  0  0
   -5.8620   17.4040   -7.5740 O   0  0  0  0  0  0  0  0  0  0  0  0
   -2.7780   14.2670    0.9910 C   0  0  0  0  0  0  0  0  0  0  0  0
   -5.3060   19.4380   -6.3910 C   0  0  0  0  0  0  0  0  0  0  0  0
   -4.0230   18.9710   -5.9200 O   0  0  0  0  0  0  0  0  0  0  0  0
   -2.7020   14.8190    2.2680 C   0  0  0  0  0  0  0  0  0  0  0  0
   -3.7700   15.3270    2.9050 N   0  0  0  0  0  0  0  0  0  0  0  0
   -3.8640   14.0210    0.2280 N   0  0  0  0  0  0  0  0  0  0  0  0
   -3.2830   13.6070   -0.9310 C   0  0  0  0  0  0  0  0  0  0  0  0
   -1.9040   13.5180   -0.8260 N   0  0  0  0  0  0  0  0  0  0  0  0
  1  4  1  0
  1 14  2  0
  1 19  1  0
  1 24  1  0
  4  3  1  0
 24  2  1  0
  2 15  2  0
  2 20  1  0
  2 31  1  0
 31 30  1  0
  5  3  1  1
  5  6  1  0
  5  7  1  0
  6 11  1  0
  7  8  1  1
  7  9  1  0
 11  9  1  0
 11 36  1  1
  9 10  1  1
 36 26  1  0
 36 35  1  0
 12 16  1  1
 12 18  1  0
 12 28  1  0
 18 21  1  6
 18 22  1  0
 28 27  1  0
 13 17  2  0
 13 32  1  0
 17 23  1  0
 32 29  2  0
 32 33  1  0
 23 26  2  0
 22 25  1  6
 22 27  1  0
 27 30  1  1
 26 29  1  0
 29 34  1  0
 34 35  2  0
M  END
