mArh-5cms_C_2_C-mArh-5cb5_L_0_L
     RDKit          3D

 43 48  0  0  0  0  0  0  0  0999 V2000
   -1.7290   18.1810   -6.1440 P   0  0  1  0  0  0  0  0  0  0  0  0
   -1.0080   16.8320   -5.6090 O   0  0  0  0  0  0  0  0  0  0  0  0
    0.3720   16.6980   -5.2690 C   0  0  0  0  0  0  0  0  0  0  0  0
   -2.8700   17.8460   -6.9940 O   0  0  0  0  0  0  0  0  0  0  0  0
   -2.1330   18.9050   -4.7830 O   0  0  0  0  0  0  0  0  0  0  0  0
   -0.7310   19.2860   -6.6890 O   0  0  0  0  0  0  0  0  0  0  0  0
   -0.5270   20.0410   -8.0920 P   0  0  1  0  0  0  0  0  0  0  0  0
    0.6790   21.0740   -7.9730 O   0  0  0  0  0  0  0  0  0  0  0  0
   -0.0700   18.7630   -8.9340 O   0  0  0  0  0  0  0  0  0  0  0  0
   -1.8610   20.5830   -8.9570 O   0  0  0  0  0  0  0  0  0  0  0  0
    0.6730   15.3380   -4.5740 C   0  0  1  0  0  0  0  0  0  0  0  0
   -2.4120   21.9470   -9.2110 C   0  0  1  0  0  0  0  0  0  0  0  0
    0.1170   15.3870   -3.2270 O   0  0  0  0  0  0  0  0  0  0  0  0
    0.0180   14.1930   -5.0940 C   0  0  1  0  0  0  0  0  0  0  0  0
    0.9750   13.1270   -5.2040 O   0  0  0  0  0  0  0  0  0  0  0  0
   -0.9970   13.7420   -4.2480 C   0  0  2  0  0  0  0  0  0  0  0  0
   -1.1910   14.8130   -3.3870 C   0  0  1  0  0  0  0  0  0  0  0  0
   -3.6100   22.3660  -10.2200 C   0  0  1  0  0  0  0  0  0  0  0  0
   -3.1490   22.2950   -7.9280 C   0  0  1  0  0  0  0  0  0  0  0  0
   -0.5710   12.5180   -3.6530 O   0  0  0  0  0  0  0  0  0  0  0  0
   -3.4700   23.8440  -10.0410 C   0  0  2  0  0  0  0  0  0  0  0  0
   -3.9420   22.2930  -11.6510 C   0  0  1  0  0  0  0  0  0  0  0  0
   -1.9720   14.8660   -2.1700 N   0  0  0  0  0  0  0  0  0  0  0  0
   -3.7050   23.6270   -7.7930 C   0  0  1  0  0  0  0  0  0  0  0  0
   -4.2530   21.3810   -7.8900 O   0  0  0  0  0  0  0  0  0  0  0  0
   -4.2290   24.2260   -8.9740 O   0  0  0  0  0  0  0  0  0  0  0  0
   -5.2100   21.7860  -11.8830 O   0  0  0  0  0  0  0  0  0  0  0  0
   -3.8840   24.6490  -11.2730 C   0  0  1  0  0  0  0  0  0  0  0  0
   -1.6040   14.8250   -0.8500 C   0  0  0  0  0  0  0  0  0  0  0  0
   -3.3250   15.0200   -2.2240 C   0  0  0  0  0  0  0  0  0  0  0  0
   -5.2920   21.9520   -7.1280 C   0  0  2  0  0  0  0  0  0  0  0  0
   -4.9860   23.4330   -7.0010 C   0  0  2  0  0  0  0  0  0  0  0  0
   -4.3800   23.6350  -12.2330 C   0  0  0  0  0  0  0  0  0  0  0  0
   -4.8520   25.5810  -11.0010 O   0  0  0  0  0  0  0  0  0  0  0  0
   -5.3500   21.3360   -5.8530 O   0  0  0  0  0  0  0  0  0  0  0  0
   -6.1350   24.0860   -7.6000 O   0  0  0  0  0  0  0  0  0  0  0  0
   -2.7850   14.9950   -0.1230 C   0  0  0  0  0  0  0  0  0  0  0  0
   -0.2950   14.6720   -0.2730 N   0  0  0  0  0  0  0  0  0  0  0  0
   -3.8850   15.1100   -0.9230 N   0  0  0  0  0  0  0  0  0  0  0  0
   -2.6910   15.0380    1.2110 C   0  0  0  0  0  0  0  0  0  0  0  0
   -0.3990   14.7150    1.0690 C   0  0  0  0  0  0  0  0  0  0  0  0
   -3.8040   15.2540    1.9840 N   0  0  0  0  0  0  0  0  0  0  0  0
   -1.4990   14.8820    1.8160 N   0  0  0  0  0  0  0  0  0  0  0  0
  1  2  1  0
  2  3  1  0
  1  4  2  0
  1  5  1  1
  1  6  1  0
  6  7  1  0
  7  8  2  0
  7  9  1  6
  7 10  1  0
 11  3  1  6
 12 10  1  1
 11 13  1  0
 11 14  1  0
 14 15  1  1
 14 16  1  0
 13 17  1  0
 16 17  1  0
 12 18  1  0
 12 19  1  0
 16 20  1  1
 18 21  1  0
 18 22  1  6
 17 23  1  1
 19 24  1  0
 19 25  1  6
 21 26  1  1
 24 26  1  6
 22 27  1  1
 21 28  1  0
 23 29  1  0
 23 30  1  0
 25 31  1  0
 24 32  1  0
 31 32  1  0
 22 33  1  0
 28 33  1  0
 28 34  1  1
 31 35  1  1
 32 36  1  6
 29 37  2  0
 29 38  1  0
 30 39  2  0
 37 39  1  0
 37 40  1  0
 38 41  2  0
 40 42  1  0
 40 43  2  0
 41 43  1  0
M  END
