
     RDKit          3D

 14 15  0  0  0  0  0  0  0  0999 V2000
   14.1240   26.4360   14.7030 N   0  0  0  0  0  0  0  0  0  0  0  0
   13.0300   26.9770   15.5090 C   0  0  0  0  0  0  0  0  0  0  0  0
   14.4500   25.0310   15.0080 C   0  0  2  0  0  0  0  0  0  0  0  0
   13.9440   23.1630   13.4720 N   0  0  0  0  0  0  0  0  0  0  0  0
   15.8300   24.6440   14.4780 C   0  0  0  0  0  0  0  0  0  0  0  0
   13.6070   19.8100   12.3370 N   0  0  0  0  0  0  0  0  0  0  0  0
   15.8560   24.6200   12.9480 C   0  0  0  0  0  0  0  0  0  0  0  0
   14.0430   21.0780   12.4920 N   0  0  0  0  0  0  0  0  0  0  0  0
   14.7050   23.8010   12.3890 C   0  0  0  0  0  0  0  0  0  0  0  0
   13.3710   24.1190   14.4220 C   0  0  0  0  0  0  0  0  0  0  0  0
   13.4310   21.8880   13.3590 C   0  0  0  0  0  0  0  0  0  0  0  0
   12.3390   21.4700   14.1280 C   0  0  0  0  0  0  0  0  0  0  0  0
   11.9080   20.1690   13.9560 C   0  0  0  0  0  0  0  0  0  0  0  0
   12.5740   19.3780   13.0490 C   0  0  0  0  0  0  0  0  0  0  0  0
  1  2  1  0
  3  1  1  6
  3  5  1  0
  3 10  1  0
  5  7  1  0
 10  4  1  0
  4  9  1  0
  4 11  1  0
  9  7  1  0
 11  8  1  0
 11 12  2  0
  6  8  2  0
  6 14  1  0
 14 13  2  0
 12 13  1  0
M  END
