mArh-3ew5_A_0_A-mArh-6fx_7_0A
     RDKit          3D

 39 42  0  0  0  0  0  0  0  0999 V2000
   -0.2590   20.1600   -7.9680 P   0  0  2  0  0  0  0  0  0  0  0  0
   -1.6330   20.6470   -8.6750 O   0  0  0  0  0  0  0  0  0  0  0  0
   -2.7640   21.2400   -8.0400 C   0  0  1  0  0  0  0  0  0  0  0  0
    0.8000   21.2130   -7.9160 O   0  0  0  0  0  0  0  0  0  0  0  0
    0.1190   18.9110   -8.8850 O   0  0  0  0  0  0  0  0  0  0  0  0
   -0.4410   19.4650   -6.5680 O   0  0  0  0  0  0  0  0  0  0  0  0
   -1.5730   18.5440   -5.9750 P   0  0  1  0  0  0  0  0  0  0  0  0
   -2.3580   21.9390   -6.8230 C   0  0  0  0  0  0  0  0  0  0  0  0
   -0.9590   17.0700   -5.7810 O   0  0  0  0  0  0  0  0  0  0  0  0
   -2.2140   19.1390   -4.7820 O   0  0  0  0  0  0  0  0  0  0  0  0
   -2.6300   18.2970   -7.1260 O   0  0  0  0  0  0  0  0  0  0  0  0
   -3.5960   22.2170   -8.8810 C   0  0  2  0  0  0  0  0  0  0  0  0
   -3.0950   23.1570   -6.6430 O   0  0  0  0  0  0  0  0  0  0  0  0
    0.3750   16.9160   -5.2870 C   0  0  0  0  0  0  0  0  0  0  0  0
   -5.0000   22.4700   -8.3310 C   0  0  1  0  0  0  0  0  0  0  0  0
   -3.7410   21.9260  -10.2710 O   0  0  0  0  0  0  0  0  0  0  0  0
    0.5410   15.6360   -4.4430 C   0  0  1  0  0  0  0  0  0  0  0  0
   -4.9310   22.5500  -10.7670 C   0  0  1  0  0  0  0  0  0  0  0  0
   -5.8140   22.8380   -9.5650 C   0  0  2  0  0  0  0  0  0  0  0  0
   -5.6320   21.2590   -7.6570 C   0  0  0  0  0  0  0  0  0  0  0  0
   -4.6490   23.7710  -11.4220 O   0  0  0  0  0  0  0  0  0  0  0  0
   -6.0910   24.2370   -9.5270 O   0  0  0  0  0  0  0  0  0  0  0  0
   -0.2190   15.7830   -3.2340 O   0  0  0  0  0  0  0  0  0  0  0  0
    0.0330   14.3190   -5.0750 C   0  0  1  0  0  0  0  0  0  0  0  0
   -6.0480   21.6030   -6.3430 O   0  0  0  0  0  0  0  0  0  0  0  0
    1.0720   13.4210   -5.4360 O   0  0  0  0  0  0  0  0  0  0  0  0
   -0.8230   13.6860   -3.9720 C   0  0  1  0  0  0  0  0  0  0  0  0
   -1.3860   14.9600   -3.4070 C   0  0  1  0  0  0  0  0  0  0  0  0
   -1.7890   12.7960   -4.5200 O   0  0  0  0  0  0  0  0  0  0  0  0
   -2.1730   15.0030   -2.1880 N   0  0  0  0  0  0  0  0  0  0  0  0
   -1.7630   14.8860   -0.8730 C   0  0  0  0  0  0  0  0  0  0  0  0
   -3.5260   15.2220   -2.1760 C   0  0  0  0  0  0  0  0  0  0  0  0
   -2.9320   15.0890   -0.1450 C   0  0  0  0  0  0  0  0  0  0  0  0
   -0.5350   14.6620   -0.3690 N   0  0  0  0  0  0  0  0  0  0  0  0
   -4.0130   15.2770   -0.9690 N   0  0  0  0  0  0  0  0  0  0  0  0
   -2.8240   15.0840    1.2380 C   0  0  0  0  0  0  0  0  0  0  0  0
   -0.5670   14.6560    0.9830 C   0  0  0  0  0  0  0  0  0  0  0  0
   -3.9220   15.3330    2.0370 N   0  0  0  0  0  0  0  0  0  0  0  0
   -1.6200   14.8490    1.8060 N   0  0  0  0  0  0  0  0  0  0  0  0
  1  2  1  0
  2  3  1  0
  1  4  2  0
  1  5  1  6
  1  6  1  0
  6  7  1  0
  3  8  1  1
  7  9  1  0
  7 10  2  0
  7 11  1  6
  3 12  1  0
  8 13  1  0
  9 14  1  0
 12 15  1  0
 12 16  1  6
 17 14  1  6
 16 18  1  0
 15 19  1  0
 18 19  1  0
 15 20  1  6
 18 21  1  1
 19 22  1  1
 17 23  1  0
 17 24  1  0
 20 25  1  0
 24 26  1  1
 24 27  1  0
 23 28  1  0
 27 28  1  0
 27 29  1  6
 28 30  1  1
 30 31  1  0
 30 32  1  0
 31 33  2  0
 31 34  1  0
 32 35  2  0
 33 35  1  0
 33 36  1  0
 34 37  2  0
 36 38  1  0
 36 39  2  0
 37 39  1  0
M  END
