
     RDKit          3D

 36 39  0  0  0  0  0  0  0  0999 V2000
   -1.8290   18.2300   -6.4550 P   0  0  0  0  0  0  0  0  0  0  0  0
   -0.2740   19.5070   -8.4530 P   0  0  0  0  0  0  0  0  0  0  0  0
    0.1550   17.0880   -5.4620 C   0  0  0  0  0  0  0  0  0  0  0  0
   -1.2320   17.1200   -5.5300 O   0  0  0  0  0  0  0  0  0  0  0  0
    0.4230   15.8970   -4.5960 C   0  0  1  0  0  0  0  0  0  0  0  0
   -0.3640   16.0890   -3.4110 O   0  0  0  0  0  0  0  0  0  0  0  0
   -0.0500   14.5770   -5.2050 C   0  0  1  0  0  0  0  0  0  0  0  0
    1.1260   13.7770   -5.3970 O   0  0  0  0  0  0  0  0  0  0  0  0
   -0.9970   13.9780   -4.1570 C   0  0  1  0  0  0  0  0  0  0  0  0
   -0.6800   12.6190   -3.8710 O   0  0  0  0  0  0  0  0  0  0  0  0
   -0.6640   14.7980   -2.9350 C   0  0  2  0  0  0  0  0  0  0  0  0
   -5.1580   21.6720   -7.7950 C   0  0  1  0  0  0  0  0  0  0  0  0
   -1.5160   15.4700    1.9530 N   0  0  0  0  0  0  0  0  0  0  0  0
   -2.5990   17.5100   -7.5460 O   0  0  0  0  0  0  0  0  0  0  0  0
    0.9420   20.4550   -8.3860 O   0  0  0  0  0  0  0  0  0  0  0  0
   -5.3150   20.9510   -6.5680 O   0  0  0  0  0  0  0  0  0  0  0  0
   -0.3660   15.3770    1.2680 C   0  0  0  0  0  0  0  0  0  0  0  0
   -4.6900   23.0740   -7.5520 C   0  0  2  0  0  0  0  0  0  0  0  0
   -2.5540   19.1580   -5.4830 O   0  0  0  0  0  0  0  0  0  0  0  0
    0.0620   18.2430   -9.2360 O   0  0  0  0  0  0  0  0  0  0  0  0
   -5.7490   24.0550   -7.6150 O   0  0  0  0  0  0  0  0  0  0  0  0
   -3.7340   23.2870   -8.7020 C   0  0  2  0  0  0  0  0  0  0  0  0
   -0.3410   15.2320   -0.0450 N   0  0  0  0  0  0  0  0  0  0  0  0
   -0.5980   19.1320   -6.9260 O   0  0  0  0  0  0  0  0  0  0  0  0
   -4.5150   23.7660   -9.7680 O   0  0  0  0  0  0  0  0  0  0  0  0
   -1.5060   15.1200   -0.7230 C   0  0  0  0  0  0  0  0  0  0  0  0
   -3.2580   21.9580   -9.1670 C   0  0  2  0  0  0  0  0  0  0  0  0
   -4.0780   21.0550   -8.4610 O   0  0  0  0  0  0  0  0  0  0  0  0
   -2.8120   15.2160   -0.0700 C   0  0  0  0  0  0  0  0  0  0  0  0
   -1.8270   21.6390   -8.7470 C   0  0  0  0  0  0  0  0  0  0  0  0
   -1.6430   20.2310   -8.9900 O   0  0  0  0  0  0  0  0  0  0  0  0
   -2.7370   15.4340    1.3810 C   0  0  0  0  0  0  0  0  0  0  0  0
   -3.8260   15.5830    2.1770 N   0  0  0  0  0  0  0  0  0  0  0  0
   -3.7570   15.1290   -1.0370 N   0  0  0  0  0  0  0  0  0  0  0  0
   -3.1050   14.9590   -2.2360 C   0  0  0  0  0  0  0  0  0  0  0  0
   -1.7650   14.9420   -2.0090 N   0  0  0  0  0  0  0  0  0  0  0  0
  1  4  1  0
  1 14  2  0
  1 19  1  0
  1 24  1  0
  4  3  1  0
 24  2  1  0
  2 15  2  0
  2 20  1  0
  2 31  1  0
 31 30  1  0
  5  3  1  6
  5  6  1  0
  5  7  1  0
  6 11  1  0
  7  8  1  1
  7  9  1  0
 11  9  1  0
 11 36  1  1
  9 10  1  1
 36 26  1  0
 36 35  1  0
 12 16  1  1
 12 18  1  0
 12 28  1  0
 18 21  1  6
 18 22  1  0
 28 27  1  0
 13 17  2  0
 13 32  1  0
 17 23  1  0
 32 29  2  0
 32 33  1  0
 23 26  2  0
 22 25  1  6
 22 27  1  0
 27 30  1  1
 26 29  1  0
 29 34  1  0
 34 35  2  0
M  END
