mArh-x0910_0_A-mArh-6fx_7_0A
     RDKit          3D

 42 46  0  0  0  0  0  0  0  0999 V2000
   -6.9390   13.9070    1.9540 N   0  0  0  0  0  0  0  0  0  0  0  0
   -6.4890   14.6040    0.8910 C   0  0  0  0  0  0  0  0  0  0  0  0
   -7.1110   14.8400   -0.2490 N   0  0  0  0  0  0  0  0  0  0  0  0
   -5.2330   15.2000    0.8490 N   0  0  0  0  0  0  0  0  0  0  0  0
   -4.1790   15.2550    1.7610 N   0  0  0  0  0  0  0  0  0  0  0  0
   -6.2800   15.5920   -1.0450 N   0  0  0  0  0  0  0  0  0  0  0  0
   -5.1800   15.7940   -0.3760 C   0  0  0  0  0  0  0  0  0  0  0  0
   -2.9310   15.0090    1.1770 C   0  0  0  0  0  0  0  0  0  0  0  0
   -1.8080   14.8050    1.9170 N   0  0  0  0  0  0  0  0  0  0  0  0
   -2.8070   14.9660   -0.2080 C   0  0  0  0  0  0  0  0  0  0  0  0
   -1.5530   14.7420   -0.7310 C   0  0  0  0  0  0  0  0  0  0  0  0
   -0.6320   14.5960    1.2670 C   0  0  0  0  0  0  0  0  0  0  0  0
   -3.7350   15.1140   -1.2110 N   0  0  0  0  0  0  0  0  0  0  0  0
   -0.4110   14.5520   -0.0630 N   0  0  0  0  0  0  0  0  0  0  0  0
   -1.7410   14.7660   -2.0860 N   0  0  0  0  0  0  0  0  0  0  0  0
   -3.0650   14.9880   -2.3240 C   0  0  0  0  0  0  0  0  0  0  0  0
   -0.6870   14.5890   -3.0470 C   0  0  2  0  0  0  0  0  0  0  0  0
    0.0430   15.8270   -3.2120 O   0  0  0  0  0  0  0  0  0  0  0  0
   -1.1370   14.2220   -4.4560 C   0  0  2  0  0  0  0  0  0  0  0  0
   -1.5220   12.8400   -4.5810 O   0  0  0  0  0  0  0  0  0  0  0  0
    0.6660   15.7770   -4.5160 C   0  0  1  0  0  0  0  0  0  0  0  0
    0.1700   14.4790   -5.1850 C   0  0  1  0  0  0  0  0  0  0  0  0
    0.4230   17.0790   -5.2740 C   0  0  0  0  0  0  0  0  0  0  0  0
    1.0640   13.4000   -4.9650 O   0  0  0  0  0  0  0  0  0  0  0  0
   -0.8900   17.1110   -5.8140 O   0  0  0  0  0  0  0  0  0  0  0  0
   -1.6000   18.5430   -5.9290 P   0  0  2  0  0  0  0  0  0  0  0  0
   -2.2000   19.0650   -4.6920 O   0  0  0  0  0  0  0  0  0  0  0  0
   -2.5960   18.2810   -7.1220 O   0  0  0  0  0  0  0  0  0  0  0  0
   -0.5160   19.5110   -6.5010 O   0  0  0  0  0  0  0  0  0  0  0  0
   -0.3870   19.9290   -7.9990 P   0  0  2  0  0  0  0  0  0  0  0  0
   -0.0250   18.7890   -8.8880 O   0  0  0  0  0  0  0  0  0  0  0  0
    0.7630   21.0340   -7.8910 O   0  0  0  0  0  0  0  0  0  0  0  0
   -1.6790   20.8030   -8.4490 O   0  0  0  0  0  0  0  0  0  0  0  0
   -1.8940   22.1080   -7.9110 C   0  0  0  0  0  0  0  0  0  0  0  0
   -3.2900   22.7410   -8.1630 C   0  0  2  0  0  0  0  0  0  0  0  0
   -4.5360   21.8380   -8.0370 C   0  0  1  0  0  0  0  0  0  0  0  0
   -3.3860   23.3250   -9.4820 O   0  0  0  0  0  0  0  0  0  0  0  0
   -5.2570   21.9360   -6.8290 O   0  0  0  0  0  0  0  0  0  0  0  0
   -4.3090   22.5270  -10.2270 C   0  0  1  0  0  0  0  0  0  0  0  0
   -5.4050   22.2470   -9.2230 C   0  0  2  0  0  0  0  0  0  0  0  0
   -4.7690   23.2580  -11.3560 O   0  0  0  0  0  0  0  0  0  0  0  0
   -6.1350   23.4470   -8.9060 O   0  0  0  0  0  0  0  0  0  0  0  0
  1  2  1  0
  2  3  2  0
  2  4  1  0
  4  5  1  0
  3  6  1  0
  4  7  1  0
  6  7  2  0
  5  8  1  0
  8  9  2  0
  8 10  1  0
 10 11  2  0
  9 12  1  0
 10 13  1  0
 11 14  1  0
 12 14  2  0
 11 15  1  0
 13 16  2  0
 15 16  1  0
 17 15  1  1
 17 18  1  0
 17 19  1  0
 19 20  1  1
 18 21  1  0
 19 22  1  0
 21 22  1  0
 21 23  1  6
 22 24  1  1
 23 25  1  0
 25 26  1  0
 26 27  2  0
 26 28  1  6
 26 29  1  0
 29 30  1  0
 30 31  2  0
 30 32  1  1
 30 33  1  0
 33 34  1  0
 35 34  1  6
 35 36  1  0
 35 37  1  0
 36 38  1  1
 37 39  1  0
 36 40  1  0
 39 40  1  0
 39 41  1  6
 40 42  1  1
M  END
