
     RDKit          3D

 36 39  0  0  0  0  0  0  0  0999 V2000
   -2.1490   17.7820   -6.4050 P   0  0  0  0  0  0  0  0  0  0  0  0
   -0.4840   19.3060   -8.2420 P   0  0  0  0  0  0  0  0  0  0  0  0
   -0.0270   16.5370   -5.5080 C   0  0  0  0  0  0  0  0  0  0  0  0
   -1.3850   16.5050   -5.9000 O   0  0  0  0  0  0  0  0  0  0  0  0
    0.3090   15.3090   -4.7100 C   0  0  1  0  0  0  0  0  0  0  0  0
   -0.1880   15.5250   -3.4200 O   0  0  0  0  0  0  0  0  0  0  0  0
   -0.3800   14.0740   -5.1990 C   0  0  1  0  0  0  0  0  0  0  0  0
    0.5420   13.0050   -5.1960 O   0  0  0  0  0  0  0  0  0  0  0  0
   -1.2840   13.6270   -4.1240 C   0  0  1  0  0  0  0  0  0  0  0  0
   -0.9130   12.2660   -4.1350 O   0  0  0  0  0  0  0  0  0  0  0  0
   -0.7380   14.3330   -2.9090 C   0  0  2  0  0  0  0  0  0  0  0  0
   -3.2170   24.0910  -10.3560 C   0  0  1  0  0  0  0  0  0  0  0  0
   -1.3520   15.5950    2.0730 N   0  0  0  0  0  0  0  0  0  0  0  0
   -3.0050   17.2970   -7.4730 O   0  0  0  0  0  0  0  0  0  0  0  0
    0.6420   20.1830   -7.9690 O   0  0  0  0  0  0  0  0  0  0  0  0
   -3.2690   25.3050   -9.6040 O   0  0  0  0  0  0  0  0  0  0  0  0
   -0.2460   15.2820    1.4260 C   0  0  0  0  0  0  0  0  0  0  0  0
   -1.8510   23.8590  -10.9370 C   0  0  2  0  0  0  0  0  0  0  0  0
   -2.7970   18.4510   -5.2710 O   0  0  0  0  0  0  0  0  0  0  0  0
   -0.3280   18.2160   -9.1820 O   0  0  0  0  0  0  0  0  0  0  0  0
   -1.5580   24.7170  -12.0400 O   0  0  0  0  0  0  0  0  0  0  0  0
   -2.0240   22.4150  -11.3070 C   0  0  2  0  0  0  0  0  0  0  0  0
   -0.2490   14.9720    0.1460 N   0  0  0  0  0  0  0  0  0  0  0  0
   -0.9300   18.6920   -6.8640 O   0  0  0  0  0  0  0  0  0  0  0  0
   -3.0130   22.2570  -12.3290 O   0  0  0  0  0  0  0  0  0  0  0  0
   -1.3800   14.9550   -0.5850 C   0  0  0  0  0  0  0  0  0  0  0  0
   -2.6080   21.8700  -10.0270 C   0  0  2  0  0  0  0  0  0  0  0  0
   -3.4070   22.9350   -9.5410 O   0  0  0  0  0  0  0  0  0  0  0  0
   -2.6130   15.2910    0.0770 C   0  0  0  0  0  0  0  0  0  0  0  0
   -1.5240   21.5280   -9.0160 C   0  0  0  0  0  0  0  0  0  0  0  0
   -1.6920   20.1800   -8.6450 O   0  0  0  0  0  0  0  0  0  0  0  0
   -2.5390   15.6120    1.4860 C   0  0  0  0  0  0  0  0  0  0  0  0
   -3.6370   15.9250    2.1780 N   0  0  0  0  0  0  0  0  0  0  0  0
   -3.5700   15.2110   -0.8170 N   0  0  0  0  0  0  0  0  0  0  0  0
   -2.9970   14.8610   -1.9760 C   0  0  0  0  0  0  0  0  0  0  0  0
   -1.6960   14.7010   -1.8460 N   0  0  0  0  0  0  0  0  0  0  0  0
  1  4  1  0
  1 14  2  0
  1 19  1  0
  1 24  1  0
  4  3  1  0
 24  2  1  0
  2 15  2  0
  2 20  1  0
  2 31  1  0
 31 30  1  0
  5  3  1  6
  5  6  1  0
  5  7  1  0
  6 11  1  0
  7  8  1  1
  7  9  1  0
 11  9  1  0
 11 36  1  1
  9 10  1  1
 36 26  1  0
 36 35  1  0
 12 16  1  1
 12 18  1  0
 12 28  1  0
 18 21  1  6
 18 22  1  0
 28 27  1  0
 13 17  2  0
 13 32  1  0
 17 23  1  0
 32 29  2  0
 32 33  1  0
 23 26  2  0
 22 25  1  6
 22 27  1  0
 27 30  1  1
 26 29  1  0
 29 34  1  0
 34 35  2  0
M  END
