mArh-3vfq_B_0_A-mArh-6ywk_E_2_E
     RDKit          3D

 49 54  0  0  0  0  0  0  0  0999 V2000
   -4.4110   16.3070   -6.9650 P   0  0  2  0  0  0  0  0  0  0  0  0
   -4.1730   15.3000   -5.7400 O   0  0  0  0  0  0  0  0  0  0  0  0
   -3.2260   14.2620   -5.9540 C   0  0  0  0  0  0  0  0  0  0  0  0
   -5.7680   16.8860   -7.1160 O   0  0  0  0  0  0  0  0  0  0  0  0
   -4.0730   15.2940   -8.1560 O   0  0  0  0  0  0  0  0  0  0  0  0
   -3.1230   17.2900   -6.9800 O   0  0  0  0  0  0  0  0  0  0  0  0
   -2.7360   18.8430   -6.6200 P   0  0  1  0  0  0  0  0  0  0  0  0
   -2.2330   19.1060   -5.2250 O   0  0  0  0  0  0  0  0  0  0  0  0
   -1.4960   18.6850   -7.5900 O   0  0  0  0  0  0  0  0  0  0  0  0
   -3.7290   20.0800   -7.2500 O   0  0  0  0  0  0  0  0  0  0  0  0
   -3.7180   13.0630   -5.1550 C   0  0  1  0  0  0  0  0  0  0  0  0
   -5.1810   20.4660   -7.1740 C   0  0  0  0  0  0  0  0  0  0  0  0
   -4.0790   13.5180   -3.8310 O   0  0  0  0  0  0  0  0  0  0  0  0
   -4.9200   12.3060   -5.7200 C   0  0  1  0  0  0  0  0  0  0  0  0
   -4.7460   10.8970   -5.7790 O   0  0  0  0  0  0  0  0  0  0  0  0
   -6.0600   12.5900   -4.7150 C   0  0  2  0  0  0  0  0  0  0  0  0
   -5.4980   13.6970   -3.8350 C   0  0  1  0  0  0  0  0  0  0  0  0
   -5.7140   21.3530   -8.4170 C   0  0  1  0  0  0  0  0  0  0  0  0
   -6.3900   11.4030   -3.9920 O   0  0  0  0  0  0  0  0  0  0  0  0
   -6.8280   22.0420   -8.6500 C   0  0  1  0  0  0  0  0  0  0  0  0
   -4.8200   22.3580   -8.9910 O   0  0  0  0  0  0  0  0  0  0  0  0
   -6.0100   13.7220   -2.4780 N   0  0  0  0  0  0  0  0  0  0  0  0
   -6.6570   23.3670   -8.0870 N   0  0  0  0  0  0  0  0  0  0  0  0
   -5.4490   22.8100  -10.2110 C   0  0  2  0  0  0  0  0  0  0  0  0
   -6.9120   22.4470   -9.9980 C   0  0  2  0  0  0  0  0  0  0  0  0
   -5.4250   14.3000   -1.3830 C   0  0  0  0  0  0  0  0  0  0  0  0
   -7.1900   13.1630   -2.0570 C   0  0  0  0  0  0  0  0  0  0  0  0
   -4.8520   22.2140  -11.3540 O   0  0  0  0  0  0  0  0  0  0  0  0
   -7.7610   23.5970  -10.0430 O   0  0  0  0  0  0  0  0  0  0  0  0
   -7.1500   24.3780   -9.0080 C   0  0  0  0  0  0  0  0  0  0  0  0
   -6.3030   14.0630   -0.3380 C   0  0  0  0  0  0  0  0  0  0  0  0
   -4.2580   14.9590   -1.3210 N   0  0  0  0  0  0  0  0  0  0  0  0
   -7.4030   13.3490   -0.7690 N   0  0  0  0  0  0  0  0  0  0  0  0
   -5.4920   23.4280   -7.3070 N   0  0  0  0  0  0  0  0  0  0  0  0
   -5.9310   14.5730    0.9130 C   0  0  0  0  0  0  0  0  0  0  0  0
   -4.0170   15.3890   -0.0780 C   0  0  0  0  0  0  0  0  0  0  0  0
   -4.7900   24.6220   -7.1240 C   0  0  0  0  0  0  0  0  0  0  0  0
   -4.4990   22.4210   -7.6860 C   0  0  0  0  0  0  0  0  0  0  0  0
   -6.6650   14.4390    2.0350 N   0  0  0  0  0  0  0  0  0  0  0  0
   -4.7670   15.2450    1.0210 N   0  0  0  0  0  0  0  0  0  0  0  0
   -3.3840   24.1410   -6.7390 C   0  0  0  0  0  0  0  0  0  0  0  0
   -3.4410   23.0300   -8.6700 C   0  0  0  0  0  0  0  0  0  0  0  0
   -2.5070   23.7050   -7.8560 N   0  0  0  0  0  0  0  0  0  0  0  0
   -1.2850   22.8680   -7.6520 C   0  0  0  0  0  0  0  0  0  0  0  0
   -1.3820   21.3950   -7.2360 C   0  0  0  0  0  0  0  0  0  0  0  0
    0.1260   20.4150   -7.4810 S   0  0  0  0  0  0  0  0  0  0  0  0
    1.3390   21.2190   -7.5880 O   0  0  0  0  0  0  0  0  0  0  0  0
    0.1180   19.3270   -6.5280 O   0  0  0  0  0  0  0  0  0  0  0  0
   -0.1320   19.7220   -8.9000 O   0  0  0  0  0  0  0  0  0  0  0  0
  1  2  1  0
  2  3  1  0
  1  4  2  0
  1  5  1  6
  1  6  1  0
  6  7  1  0
  7  8  2  0
  7  9  1  6
  7 10  1  0
 11  3  1  6
 10 12  1  0
 11 13  1  0
 11 14  1  0
 14 15  1  1
 14 16  1  0
 13 17  1  0
 16 17  1  0
 18 12  1  1
 16 19  1  1
 18 20  1  0
 18 21  1  0
 17 22  1  1
 20 23  1  1
 21 24  1  0
 20 25  1  0
 24 25  1  0
 22 26  1  0
 22 27  1  0
 24 28  1  6
 25 29  1  1
 23 30  1  0
 29 30  1  0
 26 31  2  0
 26 32  1  0
 27 33  2  0
 31 33  1  0
 23 34  1  0
 31 35  1  0
 32 36  2  0
 34 37  1  0
 34 38  1  0
 35 39  1  0
 35 40  2  0
 36 40  1  0
 37 41  1  0
 38 42  1  0
 41 43  1  0
 42 43  1  0
 43 44  1  0
 44 45  1  0
 45 46  1  0
 46 47  2  0
 46 48  2  0
 46 49  1  0
M  END
