
     RDKit          3D

 14 14  0  0  0  0  0  0  0  0999 V2000
   -5.5510   40.4310    6.1110 N   0  0  0  0  0  0  0  0  0  0  0  0
  -10.3320   38.8420    4.3590 C   0  0  0  0  0  0  0  0  0  0  0  0
  -10.0270   37.6020    4.9910 O   0  0  0  0  0  0  0  0  0  0  0  0
   -8.7700   37.4430    5.5040 C   0  0  0  0  0  0  0  0  0  0  0  0
   -7.3530   35.1600    7.9370 O   0  0  0  0  0  0  0  0  0  0  0  0
   -7.6970   38.2790    5.2330 C   0  0  0  0  0  0  0  0  0  0  0  0
   -9.7370   35.6650    6.7980 O   0  0  0  0  0  0  0  0  0  0  0  0
   -6.4990   38.1360    5.9210 C   0  0  0  0  0  0  0  0  0  0  0  0
   -5.3310   39.0620    5.6380 C   0  0  0  0  0  0  0  0  0  0  0  0
   -6.3740   37.1210    6.8630 C   0  0  0  0  0  0  0  0  0  0  0  0
   -7.4210   36.2470    7.1070 C   0  0  0  0  0  0  0  0  0  0  0  0
   -6.0870   34.8420    8.5190 C   0  0  0  0  0  0  0  0  0  0  0  0
   -8.6380   36.4210    6.4440 C   0  0  0  0  0  0  0  0  0  0  0  0
   -9.8460   34.3830    6.1860 C   0  0  0  0  0  0  0  0  0  0  0  0
  1  9  1  0
  9  8  1  0
  2  3  1  0
  3  4  1  0
  4  6  2  0
  4 13  1  0
  6  8  1  0
 13  7  1  0
 13 11  2  0
  5 11  1  0
  5 12  1  0
 11 10  1  0
  8 10  2  0
  7 14  1  0
M  END
