mArh-x0724_0_A-mArh-4jca_0_A
     RDKit          3D

 30 31  0  0  0  0  0  0  0  0999 V2000
   -8.2590   13.7940    4.4720 N   0  0  0  0  0  0  0  0  0  0  0  0
   -8.6570   13.9510    5.8610 C   0  0  0  0  0  0  0  0  0  0  0  0
   -8.4490   15.0310    3.7340 C   0  0  0  0  0  0  0  0  0  0  0  0
   -7.7930   14.8870    2.4120 C   0  0  0  0  0  0  0  0  0  0  0  0
   -6.4420   14.8800    2.1300 C   0  0  0  0  0  0  0  0  0  0  0  0
   -8.3960   14.7310    1.1510 C   0  0  0  0  0  0  0  0  0  0  0  0
   -7.5130   14.6410    0.1580 N   0  0  0  0  0  0  0  0  0  0  0  0
   -6.3030   14.7390    0.7750 N   0  0  0  0  0  0  0  0  0  0  0  0
   -5.1070   14.6900    0.0350 C   0  0  0  0  0  0  0  0  0  0  0  0
   -3.8600   14.4910    0.6520 C   0  0  0  0  0  0  0  0  0  0  0  0
   -5.1580   14.8390   -1.3520 C   0  0  0  0  0  0  0  0  0  0  0  0
   -2.6970   14.4240   -0.1110 C   0  0  0  0  0  0  0  0  0  0  0  0
   -4.0010   14.7720   -2.1110 C   0  0  0  0  0  0  0  0  0  0  0  0
   -2.7830   14.5560   -1.4890 C   0  0  0  0  0  0  0  0  0  0  0  0
   -1.5720   14.4490   -2.3490 C   0  0  0  0  0  0  0  0  0  0  0  0
   -1.9390   13.4440   -3.4310 C   0  0  0  0  0  0  0  0  0  0  0  0
   -2.2530   12.0480   -2.8600 C   0  0  0  0  0  0  0  0  0  0  0  0
   -1.4100   11.2140   -3.6710 N   0  0  0  0  0  0  0  0  0  0  0  0
   -0.3570   10.6730   -3.2610 C   0  0  0  0  0  0  0  0  0  0  0  0
    0.5330    9.9560   -4.2470 C   0  0  0  0  0  0  0  0  0  0  0  0
    0.1610   10.6970   -2.0040 O   0  0  0  0  0  0  0  0  0  0  0  0
   -0.0190    9.0630   -5.3860 C   0  0  0  0  0  0  0  0  0  0  0  0
    1.3350   11.0080   -4.9710 C   0  0  0  0  0  0  0  0  0  0  0  0
    1.4230    9.3160   -3.4080 O   0  0  0  0  0  0  0  0  0  0  0  0
   -0.8030    7.8310   -5.2500 C   0  0  0  0  0  0  0  0  0  0  0  0
    1.4140   10.5010   -6.4020 C   0  0  0  0  0  0  0  0  0  0  0  0
   -0.4540    6.7070   -5.5870 O   0  0  0  0  0  0  0  0  0  0  0  0
   -2.0040    8.0510   -4.6990 O   0  0  0  0  0  0  0  0  0  0  0  0
    1.1400    9.1190   -6.6270 O   0  0  0  0  0  0  0  0  0  0  0  0
    1.7360   11.3340   -7.3640 O   0  0  0  0  0  0  0  0  0  0  0  0
  1  2  1  0
  1  3  1  0
  3  4  1  0
  4  5  2  0
  4  6  1  0
  6  7  2  0
  5  8  1  0
  7  8  1  0
  8  9  1  0
  9 10  2  0
  9 11  1  0
 10 12  1  0
 11 13  2  0
 12 14  2  0
 13 14  1  0
 14 15  1  0
 15 16  1  0
 16 17  1  0
 17 18  1  0
 18 19  2  3
 19 20  1  0
 19 21  1  0
 20 22  1  0
 20 23  1  0
 20 24  1  0
 22 25  1  0
 23 26  1  0
 25 27  2  0
 25 28  1  0
 26 29  2  0
 26 30  1  0
M  END
