mArh-x0900_0_A-mArh-5cms_N_13_N
     RDKit          3D

 41 45  0  0  0  0  0  0  0  0999 V2000
   -6.9360   15.3620   -0.8260 O   0  0  0  0  0  0  0  0  0  0  0  0
   -5.8260   15.0040   -0.4680 C   0  0  0  0  0  0  0  0  0  0  0  0
   -5.3770   13.7430   -0.3710 N   0  0  0  0  0  0  0  0  0  0  0  0
   -4.6500   15.8170   -0.0280 C   0  0  0  0  0  0  0  0  0  0  0  0
   -3.9560   14.9440    1.0290 C   0  0  1  0  0  0  0  0  0  0  0  0
   -4.7030   13.6350    0.8830 C   0  0  0  0  0  0  0  0  0  0  0  0
   -2.5300   14.8460    0.6290 C   0  0  0  0  0  0  0  0  0  0  0  0
   -1.5450   14.7570    1.5860 N   0  0  0  0  0  0  0  0  0  0  0  0
   -2.1680   14.8310   -0.6990 C   0  0  0  0  0  0  0  0  0  0  0  0
   -0.8310   14.7350   -0.9750 C   0  0  0  0  0  0  0  0  0  0  0  0
   -0.2660   14.6780    1.1550 C   0  0  0  0  0  0  0  0  0  0  0  0
   -2.9190   14.8940   -1.8500 N   0  0  0  0  0  0  0  0  0  0  0  0
    0.1850   14.6590   -0.1160 N   0  0  0  0  0  0  0  0  0  0  0  0
   -0.7740   14.7300   -2.3170 N   0  0  0  0  0  0  0  0  0  0  0  0
   -2.0450   14.8280   -2.8120 C   0  0  0  0  0  0  0  0  0  0  0  0
    0.3830   14.6310   -3.1050 C   0  0  2  0  0  0  0  0  0  0  0  0
    0.7060   15.9450   -3.5890 O   0  0  0  0  0  0  0  0  0  0  0  0
    0.2610   13.6470   -4.2580 C   0  0  2  0  0  0  0  0  0  0  0  0
    1.3910   12.7990   -4.4830 O   0  0  0  0  0  0  0  0  0  0  0  0
    0.9660   15.8300   -4.9860 C   0  0  1  0  0  0  0  0  0  0  0  0
    0.1360   14.5870   -5.4180 C   0  0  1  0  0  0  0  0  0  0  0  0
    0.6490   17.2450   -5.5420 C   0  0  0  0  0  0  0  0  0  0  0  0
    0.7200   13.8050   -6.4460 O   0  0  0  0  0  0  0  0  0  0  0  0
   -0.4390   17.2680   -6.4510 O   0  0  0  0  0  0  0  0  0  0  0  0
   -1.7500   18.1600   -6.1930 P   0  0  1  0  0  0  0  0  0  0  0  0
   -2.9240   17.5530   -6.8370 O   0  0  0  0  0  0  0  0  0  0  0  0
   -1.7590   18.2620   -4.6130 O   0  0  0  0  0  0  0  0  0  0  0  0
   -1.3500   19.5930   -6.6950 O   0  0  0  0  0  0  0  0  0  0  0  0
   -0.4610   19.9350   -7.9520 P   0  0  1  0  0  0  0  0  0  0  0  0
    0.8180   20.6410   -7.7160 O   0  0  0  0  0  0  0  0  0  0  0  0
   -0.3070   18.5530   -8.7420 O   0  0  0  0  0  0  0  0  0  0  0  0
   -1.5260   20.7340   -8.8740 O   0  0  0  0  0  0  0  0  0  0  0  0
   -1.8490   22.0600   -8.4800 C   0  0  0  0  0  0  0  0  0  0  0  0
   -3.2230   22.6350   -8.9170 C   0  0  1  0  0  0  0  0  0  0  0  0
   -3.5560   23.1420  -10.3140 C   0  0  1  0  0  0  0  0  0  0  0  0
   -4.3680   21.8320   -8.6920 O   0  0  0  0  0  0  0  0  0  0  0  0
   -3.5160   22.1760  -11.3770 O   0  0  0  0  0  0  0  0  0  0  0  0
   -5.4220   22.7730   -9.0240 C   0  0  2  0  0  0  0  0  0  0  0  0
   -4.9850   23.5040  -10.2790 C   0  0  2  0  0  0  0  0  0  0  0  0
   -5.4930   23.7590   -8.0190 O   0  0  0  0  0  0  0  0  0  0  0  0
   -5.5460   23.0260  -11.5160 O   0  0  0  0  0  0  0  0  0  0  0  0
  1  2  2  0
  2  3  1  0
  2  4  1  0
  4  5  1  0
  3  6  1  0
  5  6  1  0
  5  7  1  6
  7  8  2  0
  7  9  1  0
  9 10  2  0
  8 11  1  0
  9 12  1  0
 10 13  1  0
 11 13  2  0
 10 14  1  0
 12 15  2  0
 14 15  1  0
 16 14  1  6
 16 17  1  0
 16 18  1  0
 18 19  1  6
 17 20  1  0
 18 21  1  0
 20 21  1  0
 20 22  1  6
 21 23  1  6
 22 24  1  0
 24 25  1  0
 25 26  2  0
 25 27  1  1
 25 28  1  0
 28 29  1  0
 29 30  2  0
 29 31  1  6
 29 32  1  0
 32 33  1  0
 34 33  1  6
 34 35  1  0
 34 36  1  0
 35 37  1  6
 36 38  1  0
 35 39  1  0
 38 39  1  0
 38 40  1  1
 39 41  1  6
M  END
