mArh-x0228_0_B-mArh-5cms_M_12_M
     RDKit          3D

 53 58  0  0  0  0  0  0  0  0999 V2000
   -6.1420   26.2980  -14.0030 N   0  0  0  0  0  0  0  0  0  0  0  0
   -7.3420   25.6740  -14.3220 C   0  0  0  0  0  0  0  0  0  0  0  0
   -8.1500   26.1520  -15.3110 N   0  0  0  0  0  0  0  0  0  0  0  0
   -5.6450   25.7090  -12.8570 C   0  0  0  0  0  0  0  0  0  0  0  0
   -7.7760   24.6740  -13.7430 O   0  0  0  0  0  0  0  0  0  0  0  0
   -4.3230   25.1900  -12.6950 C   0  0  0  0  0  0  0  0  0  0  0  0
   -6.5970   25.6140  -11.8410 C   0  0  0  0  0  0  0  0  0  0  0  0
   -3.3660   25.3030  -13.7240 O   0  0  0  0  0  0  0  0  0  0  0  0
   -4.1930   24.5280  -11.4150 C   0  0  0  0  0  0  0  0  0  0  0  0
   -6.3260   25.0050  -10.6670 C   0  0  0  0  0  0  0  0  0  0  0  0
   -9.4260   25.6900  -15.3270 N   0  0  0  0  0  0  0  0  0  0  0  0
   -3.1160   26.6470  -14.1870 C   0  0  0  0  0  0  0  0  0  0  0  0
   -7.2600   24.8480   -9.5310 C   0  0  0  0  0  0  0  0  0  0  0  0
   -5.1590   24.4930  -10.5240 C   0  0  0  0  0  0  0  0  0  0  0  0
   -9.8400   24.5130  -15.8640 C   0  0  0  0  0  0  0  0  0  0  0  0
  -10.5210   26.3060  -14.8130 C   0  0  0  0  0  0  0  0  0  0  0  0
   -3.3590   23.7180  -10.5360 C   0  0  2  0  0  0  0  0  0  0  0  0
  -11.1420   24.4060  -15.6930 N   0  0  0  0  0  0  0  0  0  0  0  0
  -11.5730   25.5420  -15.0260 N   0  0  0  0  0  0  0  0  0  0  0  0
   -3.7410   22.2790  -10.7840 C   0  0  1  0  0  0  0  0  0  0  0  0
   -2.6900   23.6640   -9.1540 C   0  0  2  0  0  0  0  0  0  0  0  0
   -4.0330   22.0280  -12.1510 O   0  0  0  0  0  0  0  0  0  0  0  0
   -1.4550   24.3430   -9.0050 O   0  0  0  0  0  0  0  0  0  0  0  0
   -2.5770   22.1440   -9.0000 C   0  0  1  0  0  0  0  0  0  0  0  0
   -2.6700   21.5290  -10.2820 O   0  0  0  0  0  0  0  0  0  0  0  0
   -1.4000   21.7060   -8.2150 C   0  0  0  0  0  0  0  0  0  0  0  0
   -1.4690   20.3170   -8.0940 O   0  0  0  0  0  0  0  0  0  0  0  0
   -0.0720   19.6790   -7.7450 P   0  0  2  0  0  0  0  0  0  0  0  0
    1.0340   20.6910   -7.6530 O   0  0  0  0  0  0  0  0  0  0  0  0
    0.0860   18.5800   -8.8870 O   0  0  0  0  0  0  0  0  0  0  0  0
   -0.2730   18.7940   -6.4680 O   0  0  0  0  0  0  0  0  0  0  0  0
   -1.6460   18.1640   -6.0370 P   0  0  2  0  0  0  0  0  0  0  0  0
   -1.1760   16.8320   -5.3210 O   0  0  0  0  0  0  0  0  0  0  0  0
   -2.6490   17.9870   -7.0990 O   0  0  0  0  0  0  0  0  0  0  0  0
   -2.1770   19.1670   -4.9160 O   0  0  0  0  0  0  0  0  0  0  0  0
    0.2390   16.6930   -5.1880 C   0  0  0  0  0  0  0  0  0  0  0  0
    0.6560   15.3790   -4.5520 C   0  0  1  0  0  0  0  0  0  0  0  0
    0.1830   15.3680   -3.2040 O   0  0  0  0  0  0  0  0  0  0  0  0
    0.2610   14.0450   -5.2170 C   0  0  1  0  0  0  0  0  0  0  0  0
    1.3180   13.0860   -5.3050 O   0  0  0  0  0  0  0  0  0  0  0  0
   -0.7600   13.4170   -4.2690 C   0  0  1  0  0  0  0  0  0  0  0  0
   -0.5380   14.1570   -2.9410 C   0  0  2  0  0  0  0  0  0  0  0  0
   -2.0710   13.3400   -4.7860 O   0  0  0  0  0  0  0  0  0  0  0  0
   -1.6310   14.4830   -2.0500 N   0  0  0  0  0  0  0  0  0  0  0  0
   -1.4900   14.6070   -0.7230 C   0  0  0  0  0  0  0  0  0  0  0  0
   -2.9570   14.7300   -2.3550 C   0  0  0  0  0  0  0  0  0  0  0  0
   -2.7410   14.9370   -0.2360 C   0  0  0  0  0  0  0  0  0  0  0  0
   -0.3540   14.4440   -0.0440 N   0  0  0  0  0  0  0  0  0  0  0  0
   -3.6580   15.0100   -1.2660 N   0  0  0  0  0  0  0  0  0  0  0  0
   -2.8210   15.1290    1.1520 C   0  0  0  0  0  0  0  0  0  0  0  0
   -0.5470   14.6390    1.2560 C   0  0  0  0  0  0  0  0  0  0  0  0
   -3.9910   15.4820    1.8110 N   0  0  0  0  0  0  0  0  0  0  0  0
   -1.6960   14.9670    1.8780 N   0  0  0  0  0  0  0  0  0  0  0  0
  1  2  1  0
  2  3  1  0
  1  4  1  0
  2  5  2  0
  4  6  2  0
  4  7  1  0
  6  8  1  0
  6  9  1  0
  7 10  2  0
  3 11  1  0
  8 12  1  0
 10 13  1  0
  9 14  2  0
 10 14  1  0
 11 15  1  0
 11 16  1  0
 17  9  1  1
 15 18  2  0
 16 19  2  0
 18 19  1  0
 17 20  1  0
 17 21  1  0
 20 22  1  6
 21 23  1  6
 21 24  1  0
 20 25  1  0
 24 25  1  0
 24 26  1  6
 26 27  1  0
 27 28  1  0
 28 29  2  0
 28 30  1  6
 28 31  1  0
 31 32  1  0
 32 33  1  0
 32 34  2  0
 32 35  1  1
 33 36  1  0
 37 36  1  6
 37 38  1  0
 37 39  1  0
 39 40  1  1
 39 41  1  0
 38 42  1  0
 41 42  1  0
 41 43  1  6
 42 44  1  6
 44 45  1  0
 44 46  1  0
 45 47  2  0
 45 48  1  0
 46 49  2  0
 47 49  1  0
 47 50  1  0
 48 51  2  0
 50 52  1  0
 50 53  2  0
 51 53  1  0
M  END
