
     RDKit          3D

 36 39  0  0  0  0  0  0  0  0999 V2000
   -2.1600   17.8220   -6.5380 P   0  0  0  0  0  0  0  0  0  0  0  0
   -0.4510   19.2550   -8.2010 P   0  0  0  0  0  0  0  0  0  0  0  0
    0.0600   17.0540   -5.3110 C   0  0  0  0  0  0  0  0  0  0  0  0
   -0.9110   16.8570   -6.3390 O   0  0  0  0  0  0  0  0  0  0  0  0
    0.5460   15.7290   -4.7060 C   0  0  1  0  0  0  0  0  0  0  0  0
    0.2580   15.6310   -3.2760 O   0  0  0  0  0  0  0  0  0  0  0  0
   -0.0780   14.4980   -5.3490 C   0  0  1  0  0  0  0  0  0  0  0  0
    0.9210   13.4880   -5.3430 O   0  0  0  0  0  0  0  0  0  0  0  0
   -1.2320   14.2150   -4.3940 C   0  0  1  0  0  0  0  0  0  0  0  0
   -1.8060   12.9040   -4.4390 O   0  0  0  0  0  0  0  0  0  0  0  0
   -0.5980   14.5140   -3.0340 C   0  0  2  0  0  0  0  0  0  0  0  0
   -3.9850   22.2820  -10.3080 C   0  0  1  0  0  0  0  0  0  0  0  0
   -1.4070   15.4480    2.0790 N   0  0  0  0  0  0  0  0  0  0  0  0
   -3.0570   17.3210   -7.6670 O   0  0  0  0  0  0  0  0  0  0  0  0
    0.8530   19.0210   -7.4970 O   0  0  0  0  0  0  0  0  0  0  0  0
   -5.1700   22.9400   -9.8600 O   0  0  0  0  0  0  0  0  0  0  0  0
   -0.2480   15.2570    1.3950 C   0  0  0  0  0  0  0  0  0  0  0  0
   -3.0460   23.2400  -11.0550 C   0  0  2  0  0  0  0  0  0  0  0  0
   -2.7520   18.0880   -5.1780 O   0  0  0  0  0  0  0  0  0  0  0  0
   -0.9710   18.3860   -9.3080 O   0  0  0  0  0  0  0  0  0  0  0  0
   -2.9200   22.8040  -12.4090 O   0  0  0  0  0  0  0  0  0  0  0  0
   -1.7170   23.1480  -10.3160 C   0  0  2  0  0  0  0  0  0  0  0  0
   -0.1760   15.0320    0.0470 N   0  0  0  0  0  0  0  0  0  0  0  0
   -1.5130   19.2290   -7.0200 O   0  0  0  0  0  0  0  0  0  0  0  0
   -0.5470   23.0810  -11.1500 O   0  0  0  0  0  0  0  0  0  0  0  0
   -1.3260   14.9740   -0.6900 C   0  0  0  0  0  0  0  0  0  0  0  0
   -1.8850   21.8500   -9.5330 C   0  0  2  0  0  0  0  0  0  0  0  0
   -3.2590   21.7360   -9.1890 O   0  0  0  0  0  0  0  0  0  0  0  0
   -2.6330   15.1510   -0.0010 C   0  0  0  0  0  0  0  0  0  0  0  0
   -1.0190   21.7780   -8.3040 C   0  0  0  0  0  0  0  0  0  0  0  0
   -0.1410   20.7450   -8.6610 O   0  0  0  0  0  0  0  0  0  0  0  0
   -2.6270   15.4070    1.4470 C   0  0  0  0  0  0  0  0  0  0  0  0
   -3.8070   15.5850    2.0860 N   0  0  0  0  0  0  0  0  0  0  0  0
   -3.5830   15.0410   -0.9250 N   0  0  0  0  0  0  0  0  0  0  0  0
   -2.9670   14.8230   -2.1230 C   0  0  0  0  0  0  0  0  0  0  0  0
   -1.6110   14.7830   -1.9820 N   0  0  0  0  0  0  0  0  0  0  0  0
  1  4  1  0
  1 14  2  0
  1 19  1  0
  1 24  1  0
  4  3  1  0
 24  2  1  0
  2 15  2  0
  2 20  1  0
  2 31  1  0
 31 30  1  0
  5  3  1  6
  5  6  1  0
  5  7  1  0
  6 11  1  0
  7  8  1  1
  7  9  1  0
 11  9  1  0
 11 36  1  1
  9 10  1  1
 36 26  1  0
 36 35  1  0
 12 16  1  1
 12 18  1  0
 12 28  1  0
 18 21  1  6
 18 22  1  0
 28 27  1  0
 13 17  2  0
 13 32  1  0
 17 23  1  0
 32 29  2  0
 32 33  1  0
 23 26  2  0
 22 25  1  6
 22 27  1  0
 27 30  1  1
 26 29  1  0
 29 34  1  0
 34 35  2  0
M  END
