mArh-x0689_0_A-mArh-5fud_B_0_B
     RDKit          3D

 25 26  0  0  0  0  0  0  0  0999 V2000
   -3.7140   14.5200    1.3230 N   0  0  0  0  0  0  0  0  0  0  0  0
   -4.3960   15.7680    1.2600 C   0  0  0  0  0  0  0  0  0  0  0  0
   -2.4190   14.5650    0.8580 C   0  0  0  0  0  0  0  0  0  0  0  0
   -2.1900   14.6610   -0.4620 N   0  0  0  0  0  0  0  0  0  0  0  0
   -1.4630   14.5070    1.7790 N   0  0  0  0  0  0  0  0  0  0  0  0
   -0.9050   14.6980   -0.8770 C   0  0  0  0  0  0  0  0  0  0  0  0
   -0.2050   14.5440    1.3320 C   0  0  0  0  0  0  0  0  0  0  0  0
   -0.6490   14.8050   -2.3570 C   0  0  0  0  0  0  0  0  0  0  0  0
    0.1400   14.6410    0.0080 C   0  0  0  0  0  0  0  0  0  0  0  0
   -0.5210   16.2550   -2.8170 C   0  0  0  0  0  0  0  0  0  0  0  0
    0.3530   16.5530   -4.0370 C   0  0  0  0  0  0  0  0  0  0  0  0
    0.4000   18.0210   -4.4670 C   0  0  0  0  0  0  0  0  0  0  0  0
    0.4700   18.2460   -5.9750 C   0  0  0  0  0  0  0  0  0  0  0  0
   -0.6670   19.0620   -6.4670 N   0  0  0  0  0  0  0  0  0  0  0  0
   -0.3460   19.7950   -7.9620 S   0  0  1  0  0  0  0  0  0  0  0  0
    0.6980   20.7720   -7.7750 O   0  0  0  0  0  0  0  0  0  0  0  0
   -0.1690   18.6730   -8.8820 O   0  0  0  0  0  0  0  0  0  0  0  0
   -1.8840   20.6470   -8.2960 C   0  0  0  0  0  0  0  0  0  0  0  0
   -2.1030   22.0400   -7.7720 C   0  0  0  0  0  0  0  0  0  0  0  0
   -3.5580   22.3470   -7.8010 N   0  0  0  0  0  0  0  0  0  0  0  0
   -4.0460   22.6390   -9.1750 C   0  0  0  0  0  0  0  0  0  0  0  0
   -3.9170   23.4680   -6.9200 C   0  0  0  0  0  0  0  0  0  0  0  0
   -5.5480   22.9550   -9.2150 C   0  0  0  0  0  0  0  0  0  0  0  0
   -5.4010   23.7810   -7.0080 C   0  0  0  0  0  0  0  0  0  0  0  0
   -5.8530   24.0420   -8.3380 O   0  0  0  0  0  0  0  0  0  0  0  0
  1  2  1  0
  1  3  1  0
  3  4  2  0
  3  5  1  0
  4  6  1  0
  5  7  2  0
  6  8  1  0
  6  9  2  0
  7  9  1  0
  8 10  1  0
 10 11  1  0
 11 12  1  0
 12 13  1  0
 13 14  1  0
 14 15  2  0
 15 16  2  0
 15 17  1  6
 15 18  1  0
 18 19  1  0
 19 20  1  0
 20 21  1  0
 20 22  1  0
 21 23  1  0
 22 24  1  0
 23 25  1  0
 24 25  1  0
M  CHG  1  17  -1
M  END
