
     RDKit          3D

  7  7  0  0  0  0  0  0  0  0999 V2000
   -4.4900   15.3300    0.6370 N   0  0  0  0  0  0  0  0  0  0  0  0
   -2.3550   14.7230    1.2570 C   0  0  0  0  0  0  0  0  0  0  0  0
   -1.3160   14.4140    1.8400 O   0  0  0  0  0  0  0  0  0  0  0  0
   -3.6970   15.1600    1.8320 C   0  0  0  0  0  0  0  0  0  0  0  0
   -2.5170   14.7200   -0.0980 N   0  0  0  0  0  0  0  0  0  0  0  0
   -4.2070   15.1960   -1.6200 O   0  0  0  0  0  0  0  0  0  0  0  0
   -3.7920   15.0830   -0.4750 C   0  0  0  0  0  0  0  0  0  0  0  0
  1  4  1  0
  1  7  1  0
  4  2  1  0
  7  5  1  0
  7  6  2  0
  2  3  2  0
  2  5  1  0
M  END
