mArh-2bfq_0_A-mArh-5cb3_0_A
     RDKit          3D

 37 40  0  0  0  0  0  0  0  0999 V2000
   -1.4240   18.5200   -5.9580 P   0  0  2  0  0  0  0  0  0  0  0  0
   -0.2180   17.5060   -6.1660 O   0  0  0  0  0  0  0  0  0  0  0  0
    0.5860   17.0470   -5.0840 C   0  0  0  0  0  0  0  0  0  0  0  0
   -1.9190   18.5980   -4.5640 O   0  0  0  0  0  0  0  0  0  0  0  0
   -2.6000   18.0350   -6.9200 O   0  0  0  0  0  0  0  0  0  0  0  0
   -0.9350   19.8990   -6.5000 O   0  0  0  0  0  0  0  0  0  0  0  0
   -0.1910   20.1030   -7.8680 P   0  0  2  0  0  0  0  0  0  0  0  0
    0.0480   18.8630   -8.6820 O   0  0  0  0  0  0  0  0  0  0  0  0
    1.1350   20.9430   -7.4960 O   0  0  0  0  0  0  0  0  0  0  0  0
   -1.0370   21.3110   -8.5660 N   0  0  0  0  0  0  0  0  0  0  0  0
   -0.2470   15.9300   -4.4800 C   0  0  2  0  0  0  0  0  0  0  0  0
   -1.4060   22.4500   -7.7510 C   0  0  0  0  0  0  0  0  0  0  0  0
   -2.2830   20.9420   -9.1530 O   0  0  0  0  0  0  0  0  0  0  0  0
   -0.0570   15.7520   -3.0750 O   0  0  0  0  0  0  0  0  0  0  0  0
   -0.0490   14.5180   -4.9790 C   0  0  1  0  0  0  0  0  0  0  0  0
    1.2320   13.9280   -4.7970 O   0  0  0  0  0  0  0  0  0  0  0  0
   -1.0950   13.8640   -4.1180 C   0  0  2  0  0  0  0  0  0  0  0  0
   -0.7540   14.5050   -2.7700 C   0  0  2  0  0  0  0  0  0  0  0  0
   -2.8910   22.5730   -7.3540 C   0  0  1  0  0  0  0  0  0  0  0  0
   -0.8700   12.4550   -4.1350 O   0  0  0  0  0  0  0  0  0  0  0  0
   -3.6390   23.8610   -7.5620 C   0  0  1  0  0  0  0  0  0  0  0  0
   -3.8660   21.6100   -7.7710 O   0  0  0  0  0  0  0  0  0  0  0  0
   -1.8480   14.8040   -1.8770 N   0  0  0  0  0  0  0  0  0  0  0  0
   -4.3210   24.0800   -8.7980 O   0  0  0  0  0  0  0  0  0  0  0  0
   -4.9320   22.0400   -6.8890 C   0  0  1  0  0  0  0  0  0  0  0  0
   -4.5710   23.4870   -6.4640 C   0  0  2  0  0  0  0  0  0  0  0  0
   -1.7130   14.7630   -0.5440 C   0  0  0  0  0  0  0  0  0  0  0  0
   -3.1490   15.1700   -2.1560 C   0  0  0  0  0  0  0  0  0  0  0  0
   -6.1710   22.0260   -7.5650 O   0  0  0  0  0  0  0  0  0  0  0  0
   -5.7030   24.3580   -6.4250 O   0  0  0  0  0  0  0  0  0  0  0  0
   -2.9460   15.1180   -0.0390 C   0  0  0  0  0  0  0  0  0  0  0  0
   -0.5930   14.4440    0.1060 N   0  0  0  0  0  0  0  0  0  0  0  0
   -3.8460   15.3720   -1.0540 N   0  0  0  0  0  0  0  0  0  0  0  0
   -3.0350   15.1560    1.3400 C   0  0  0  0  0  0  0  0  0  0  0  0
   -0.7930   14.4910    1.4170 C   0  0  0  0  0  0  0  0  0  0  0  0
   -4.1920   15.5300    1.9930 N   0  0  0  0  0  0  0  0  0  0  0  0
   -1.9330   14.8140    2.0530 N   0  0  0  0  0  0  0  0  0  0  0  0
  1  2  1  0
  2  3  1  0
  1  4  2  0
  1  5  1  6
  1  6  1  0
  6  7  1  0
  7  8  2  0
  7  9  1  1
  7 10  1  0
 11  3  1  6
 10 12  1  0
 10 13  1  0
 11 14  1  0
 11 15  1  0
 15 16  1  1
 15 17  1  0
 14 18  1  0
 17 18  1  0
 19 12  1  6
 17 20  1  1
 19 21  1  0
 19 22  1  0
 18 23  1  6
 21 24  1  6
 22 25  1  0
 21 26  1  0
 25 26  1  0
 23 27  1  0
 23 28  1  0
 25 29  1  6
 26 30  1  6
 27 31  2  0
 27 32  1  0
 28 33  2  0
 31 33  1  0
 31 34  1  0
 32 35  2  0
 34 36  1  0
 34 37  2  0
 35 37  1  0
M  END
