mArh-x0724_0_A-mArh-x0471_0_A
     RDKit          3D

 17 18  0  0  0  0  0  0  0  0999 V2000
   -8.1590   14.0550    4.4980 N   0  0  0  0  0  0  0  0  0  0  0  0
   -8.6840   14.1090    5.8510 C   0  0  0  0  0  0  0  0  0  0  0  0
  -10.1420   13.6840    5.9710 C   0  0  0  0  0  0  0  0  0  0  0  0
   -8.4020   14.9230    3.4750 C   0  0  0  0  0  0  0  0  0  0  0  0
   -9.2360   15.8180    3.6560 O   0  0  0  0  0  0  0  0  0  0  0  0
   -8.4050   15.4650    6.5010 C   0  0  0  0  0  0  0  0  0  0  0  0
   -7.7090   14.8110    2.2280 C   0  0  0  0  0  0  0  0  0  0  0  0
   -6.3530   14.8500    1.9870 C   0  0  0  0  0  0  0  0  0  0  0  0
   -8.2790   14.6450    0.9560 C   0  0  0  0  0  0  0  0  0  0  0  0
   -7.3690   14.5930   -0.0130 N   0  0  0  0  0  0  0  0  0  0  0  0
   -6.1810   14.7290    0.6280 N   0  0  0  0  0  0  0  0  0  0  0  0
   -4.9570   14.7470   -0.0920 C   0  0  0  0  0  0  0  0  0  0  0  0
   -3.7290   14.5860    0.5590 C   0  0  0  0  0  0  0  0  0  0  0  0
   -4.9960   14.9360   -1.4810 C   0  0  0  0  0  0  0  0  0  0  0  0
   -2.5480   14.6140   -0.1860 C   0  0  0  0  0  0  0  0  0  0  0  0
   -3.8160   14.9630   -2.2150 C   0  0  0  0  0  0  0  0  0  0  0  0
   -2.5910   14.8000   -1.5690 C   0  0  0  0  0  0  0  0  0  0  0  0
  1  2  1  0
  2  3  1  0
  1  4  1  0
  4  5  2  0
  2  6  1  0
  4  7  1  0
  7  8  2  0
  7  9  1  0
  9 10  2  0
  8 11  1  0
 10 11  1  0
 11 12  1  0
 12 13  2  0
 12 14  1  0
 13 15  1  0
 14 16  2  0
 15 17  2  0
 16 17  1  0
M  END
