mArh-x0926_0_A-mArh-x0910_0_A
     RDKit          3D

  8  8  0  0  0  0  0  0  0  0999 V2000
   -6.8420   15.2880   -0.8840 O   0  0  0  0  0  0  0  0  0  0  0  0
   -5.6790   15.0730   -0.5530 C   0  0  0  0  0  0  0  0  0  0  0  0
   -5.3150   14.4650    0.7800 C   0  0  2  0  0  0  0  0  0  0  0  0
   -4.6290   15.3740   -1.4110 N   0  0  0  0  0  0  0  0  0  0  0  0
   -6.4080   14.6360    1.7610 N   0  0  0  0  0  0  0  0  0  0  0  0
   -3.3090   15.1860   -0.9770 N   0  0  0  0  0  0  0  0  0  0  0  0
   -3.9780   14.9270    1.2740 C   0  0  0  0  0  0  0  0  0  0  0  0
   -3.0570   15.2460    0.3720 C   0  0  0  0  0  0  0  0  0  0  0  0
  1  2  2  0
  2  3  1  0
  2  4  1  0
  3  5  1  1
  4  6  1  0
  3  7  1  0
  6  8  1  0
  7  8  2  0
M  END
