mArh-2fav_B_0_B-mArh-x0918_0_B
     RDKit          3D

 44 48  0  0  0  0  0  0  0  0999 V2000
   -1.2150   18.1900   -5.8340 P   0  0  0  0  0  0  0  0  0  0  0  0
   -0.5160   16.8040   -5.4590 O   0  0  0  0  0  0  0  0  0  0  0  0
    0.8270   16.7880   -4.9990 C   0  0  0  0  0  0  0  0  0  0  0  0
   -1.7870   18.7660   -4.5930 O   0  0  0  0  0  0  0  0  0  0  0  0
   -2.4660   17.9240   -6.7990 O   0  0  0  0  0  0  0  0  0  0  0  0
   -0.2770   19.3450   -6.3420 O   0  0  0  0  0  0  0  0  0  0  0  0
   -0.0680   19.8590   -7.8240 P   0  0  0  0  0  0  0  0  0  0  0  0
    1.1850   20.8230   -7.5340 O   0  0  0  0  0  0  0  0  0  0  0  0
    0.1780   18.6700   -8.6740 O   0  0  0  0  0  0  0  0  0  0  0  0
   -1.6790   20.3130   -7.7680 O   0  0  0  0  0  0  0  0  0  0  0  0
    1.1650   15.5950   -4.2050 C   0  0  1  0  0  0  0  0  0  0  0  0
   -1.6280   21.6160   -7.2530 C   0  0  0  0  0  0  0  0  0  0  0  0
    0.2590   15.4810   -3.0980 O   0  0  0  0  0  0  0  0  0  0  0  0
    1.1480   14.3350   -4.8600 C   0  0  1  0  0  0  0  0  0  0  0  0
    2.3540   13.7020   -4.8320 O   0  0  0  0  0  0  0  0  0  0  0  0
    0.1820   13.4130   -4.1800 C   0  0  1  0  0  0  0  0  0  0  0  0
   -0.1360   14.1460   -2.9230 C   0  0  2  0  0  0  0  0  0  0  0  0
   -3.0680   22.0910   -7.0400 C   0  0  1  0  0  0  0  0  0  0  0  0
   -0.7660   12.9750   -5.0170 O   0  0  0  0  0  0  0  0  0  0  0  0
   -3.5540   23.1910   -7.6490 C   0  0  1  0  0  0  0  0  0  0  0  0
   -4.0830   21.2250   -7.4100 O   0  0  0  0  0  0  0  0  0  0  0  0
   -1.3560   14.1060   -2.2480 N   0  0  0  0  0  0  0  0  0  0  0  0
   -4.3070   22.8870   -8.7750 O   0  0  0  0  0  0  0  0  0  0  0  0
   -5.0900   21.9250   -6.6660 C   0  0  0  0  0  0  0  0  0  0  0  0
   -4.5860   23.3320   -6.5750 C   0  0  2  0  0  0  0  0  0  0  0  0
   -1.3270   14.6150   -0.8940 C   0  0  1  0  0  0  0  0  0  0  0  0
   -2.5030   14.8010   -2.8070 C   0  0  0  0  0  0  0  0  0  0  0  0
   -5.4840   24.3030   -6.8650 O   0  0  0  0  0  0  0  0  0  0  0  0
   -5.2200   23.6730   -9.3630 C   0  0  0  0  0  0  0  0  0  0  0  0
   -2.7220   14.5760   -0.5450 C   0  0  2  0  0  0  0  0  0  0  0  0
   -0.5070   13.8490    0.0140 N   0  0  0  0  0  0  0  0  0  0  0  0
   -3.2690   15.3050   -1.6630 N   0  0  0  0  0  0  0  0  0  0  0  0
   -5.0030   24.3800  -10.5700 C   0  0  0  0  0  0  0  0  0  0  0  0
   -2.9210   15.1590    0.8240 C   0  0  1  0  0  0  0  0  0  0  0  0
   -0.7040   14.4090    1.3270 C   0  0  0  0  0  0  0  0  0  0  0  0
   -4.2970   14.9090    1.2160 N   0  0  0  0  0  0  0  0  0  0  0  0
   -3.7140   24.6730  -11.1410 N   0  0  0  0  0  0  0  0  0  0  0  0
   -2.0890   14.4020    1.7040 N   0  0  0  0  0  0  0  0  0  0  0  0
   -3.6540   25.2620  -12.4190 C   0  0  0  0  0  0  0  0  0  0  0  0
   -4.9620   25.1250  -13.1690 C   0  0  0  0  0  0  0  0  0  0  0  0
   -2.5520   25.9040  -12.9670 C   0  0  0  0  0  0  0  0  0  0  0  0
   -5.0240   25.6700  -14.4400 C   0  0  0  0  0  0  0  0  0  0  0  0
   -2.7420   26.4160  -14.2760 C   0  0  0  0  0  0  0  0  0  0  0  0
   -3.9160   26.2960  -14.9540 N   0  0  0  0  0  0  0  0  0  0  0  0
  1  2  1  0
  2  3  1  0
  1  4  1  0
  1  5  1  0
  1  6  1  0
  6  7  1  0
  7  8  1  0
  7  9  1  0
  7 10  1  0
 11  3  1  6
 10 12  1  0
 11 13  1  0
 11 14  1  0
 14 15  1  1
 14 16  1  0
 13 17  1  0
 16 17  1  0
 18 12  1  6
 16 19  1  6
 18 20  1  0
 18 21  1  0
 17 22  1  6
 20 23  1  6
 21 24  1  0
 20 25  1  0
 24 25  1  0
 22 26  1  0
 22 27  1  0
 25 28  1  6
 23 29  1  0
 26 30  1  0
 26 31  1  1
 27 32  1  0
 30 32  1  6
 29 33  1  0
 30 34  1  0
 31 35  1  0
 34 36  1  1
 33 37  1  0
 34 38  1  0
 35 38  1  0
 37 39  1  0
 39 40  2  0
 39 41  1  0
 40 42  1  0
 41 43  2  0
 42 44  2  0
 43 44  1  0
M  CHG  2   4  -1   8  -1
M  END
