mArh-x0524_0_A-mArh-x0895_0_A
     RDKit          3D

 30 32  0  0  0  0  0  0  0  0999 V2000
   -0.3130    8.4960   -7.9560 N   0  0  0  0  0  0  0  0  0  0  0  0
   -0.7030    9.5170   -7.1080 C   0  0  0  0  0  0  0  0  0  0  0  0
   -1.6510    9.0040   -6.0300 C   0  0  0  0  0  0  0  0  0  0  0  0
    0.6820    8.5350   -8.9490 C   0  0  0  0  0  0  0  0  0  0  0  0
   -0.3610   10.6920   -7.1770 O   0  0  0  0  0  0  0  0  0  0  0  0
    1.8440    7.7560   -8.8870 C   0  0  0  0  0  0  0  0  0  0  0  0
    0.4670    9.3950  -10.0270 C   0  0  0  0  0  0  0  0  0  0  0  0
   -1.9250   10.0360   -4.9300 C   0  0  0  0  0  0  0  0  0  0  0  0
    2.8370    7.7870   -9.8810 C   0  0  0  0  0  0  0  0  0  0  0  0
    1.4930    9.5050  -11.1680 C   0  0  0  0  0  0  0  0  0  0  0  0
   -0.6600   10.4520   -4.1560 C   0  0  0  0  0  0  0  0  0  0  0  0
    2.7510    8.5980  -11.0140 C   0  0  0  0  0  0  0  0  0  0  0  0
    3.7390    8.6300  -12.0090 N   0  0  0  0  0  0  0  0  0  0  0  0
   -1.0260   11.2350   -2.8970 C   0  0  0  0  0  0  0  0  0  0  0  0
   -2.0720   12.1970   -3.4440 C   0  0  0  0  0  0  0  0  0  0  0  0
    3.9980    9.5280  -13.0530 C   0  0  0  0  0  0  0  0  0  0  0  0
   -2.2590   13.2880   -2.3550 C   0  0  0  0  0  0  0  0  0  0  0  0
    3.2450   10.6850  -13.2810 C   0  0  0  0  0  0  0  0  0  0  0  0
    5.0470    9.2600  -13.8930 C   0  0  0  0  0  0  0  0  0  0  0  0
   -3.0760   14.4870   -2.8730 C   0  0  0  0  0  0  0  0  0  0  0  0
    3.5500   11.5480  -14.3330 C   0  0  0  0  0  0  0  0  0  0  0  0
    5.3660   10.1110  -14.9530 C   0  0  0  0  0  0  0  0  0  0  0  0
   -4.0660   14.8900   -1.8790 N   0  0  0  0  0  0  0  0  0  0  0  0
    4.6150   11.2580  -15.1730 C   0  0  0  0  0  0  0  0  0  0  0  0
   -3.7620   14.8800   -0.6490 C   0  0  0  0  0  0  0  0  0  0  0  0
   -4.5970   15.2290    0.3600 N   0  0  0  0  0  0  0  0  0  0  0  0
   -2.5650   14.5250   -0.1370 N   0  0  0  0  0  0  0  0  0  0  0  0
   -3.7770   15.6760    1.4570 C   0  0  0  0  0  0  0  0  0  0  0  0
   -2.5030   14.8640    1.1810 C   0  0  0  0  0  0  0  0  0  0  0  0
   -1.5960   14.5710    1.9480 O   0  0  0  0  0  0  0  0  0  0  0  0
  1  2  1  0
  2  3  1  0
  1  4  1  0
  2  5  2  0
  4  6  2  0
  4  7  1  0
  3  8  1  0
  6  9  1  0
  7 10  2  0
  8 11  1  0
  9 12  2  0
 10 12  1  0
 12 13  1  0
 11 14  1  0
 14 15  1  0
 13 16  1  0
 15 17  1  0
 16 18  2  0
 16 19  1  0
 17 20  1  0
 18 21  1  0
 19 22  2  0
 20 23  1  0
 21 24  2  0
 22 24  1  0
 23 25  2  3
 25 26  1  0
 25 27  1  0
 26 28  1  0
 27 29  1  0
 28 29  1  0
 29 30  2  0
M  END
