mArh-x0797_0_B-mArh-5dus_0_A
     RDKit          3D

 53 58  0  0  0  0  0  0  0  0999 V2000
   -8.2990   29.4890  -13.9770 C   0  0  0  0  0  0  0  0  0  0  0  0
   -6.8260   29.3170  -13.6940 C   0  0  0  0  0  0  0  0  0  0  0  0
   -5.9410   30.1940  -14.3570 C   0  0  0  0  0  0  0  0  0  0  0  0
   -6.2720   28.3300  -12.8170 C   0  0  0  0  0  0  0  0  0  0  0  0
   -4.8860   28.3000  -12.6640 C   0  0  0  0  0  0  0  0  0  0  0  0
   -4.5630   30.1160  -14.1750 C   0  0  0  0  0  0  0  0  0  0  0  0
   -6.9750   27.2500  -12.0070 C   0  0  2  0  0  0  0  0  0  0  0  0
   -4.0450   29.1650  -13.3240 C   0  0  0  0  0  0  0  0  0  0  0  0
   -7.3410   25.9000  -12.6240 C   0  0  2  0  0  0  0  0  0  0  0  0
   -8.1990   27.4770  -11.1440 C   0  0  0  0  0  0  0  0  0  0  0  0
   -7.4780   25.8230  -14.1040 C   0  0  0  0  0  0  0  0  0  0  0  0
   -8.2460   26.1070  -10.5540 N   0  0  0  0  0  0  0  0  0  0  0  0
   -8.4420   25.3210  -11.7490 C   0  0  0  0  0  0  0  0  0  0  0  0
   -8.5790   26.4170  -14.5950 O   0  0  0  0  0  0  0  0  0  0  0  0
   -6.6830   25.2840  -14.8420 O   0  0  0  0  0  0  0  0  0  0  0  0
   -6.9950   25.7850   -9.8090 C   0  0  0  0  0  0  0  0  0  0  0  0
   -6.5360   24.3980   -9.1550 C   0  0  0  0  0  0  0  0  0  0  0  0
   -5.0970   24.0530   -9.3610 O   0  0  0  0  0  0  0  0  0  0  0  0
   -4.1730   23.5740   -8.2970 C   0  0  1  0  0  0  0  0  0  0  0  0
   -4.7420   23.4240   -6.8920 C   0  0  1  0  0  0  0  0  0  0  0  0
   -3.5630   22.1550   -8.4490 C   0  0  1  0  0  0  0  0  0  0  0  0
   -5.6270   24.4460   -6.4600 O   0  0  0  0  0  0  0  0  0  0  0  0
   -2.1860   21.7910   -7.8150 C   0  0  0  0  0  0  0  0  0  0  0  0
   -5.4350   22.0880   -7.0490 C   0  0  1  0  0  0  0  0  0  0  0  0
   -4.5060   21.3070   -7.7830 O   0  0  0  0  0  0  0  0  0  0  0  0
   -5.6810   21.5320   -5.7570 O   0  0  0  0  0  0  0  0  0  0  0  0
   -1.8360   20.4130   -8.0260 O   0  0  0  0  0  0  0  0  0  0  0  0
   -0.3420   19.8960   -7.6870 P   0  0  2  0  0  0  0  0  0  0  0  0
    0.7110   20.9450   -7.7170 O   0  0  0  0  0  0  0  0  0  0  0  0
   -0.0950   18.7310   -8.7610 O   0  0  0  0  0  0  0  0  0  0  0  0
   -0.4090   19.0810   -6.3250 O   0  0  0  0  0  0  0  0  0  0  0  0
   -1.6260   18.2030   -5.8440 P   0  0  2  0  0  0  0  0  0  0  0  0
   -0.9640   17.0120   -4.9950 O   0  0  0  0  0  0  0  0  0  0  0  0
   -2.6560   17.7770   -6.8270 O   0  0  0  0  0  0  0  0  0  0  0  0
   -2.1900   19.1210   -4.6660 O   0  0  0  0  0  0  0  0  0  0  0  0
    0.4560   16.9490   -4.8670 C   0  0  0  0  0  0  0  0  0  0  0  0
    0.8530   15.5600   -4.3410 C   0  0  1  0  0  0  0  0  0  0  0  0
    0.4050   15.4100   -2.9690 O   0  0  0  0  0  0  0  0  0  0  0  0
    0.2330   14.3700   -5.0770 C   0  0  1  0  0  0  0  0  0  0  0  0
    1.0210   13.1900   -5.0570 O   0  0  0  0  0  0  0  0  0  0  0  0
   -1.1020   14.2120   -4.3660 C   0  0  2  0  0  0  0  0  0  0  0  0
   -0.6020   14.3590   -2.9280 C   0  0  2  0  0  0  0  0  0  0  0  0
   -1.6800   12.9400   -4.6840 O   0  0  0  0  0  0  0  0  0  0  0  0
   -1.6030   14.6730   -1.9420 N   0  0  0  0  0  0  0  0  0  0  0  0
   -1.3640   14.6340   -0.6020 C   0  0  0  0  0  0  0  0  0  0  0  0
   -2.9090   15.0540   -2.1200 C   0  0  0  0  0  0  0  0  0  0  0  0
   -2.5590   15.0100   -0.0230 C   0  0  0  0  0  0  0  0  0  0  0  0
   -0.2150   14.3030   -0.0010 N   0  0  0  0  0  0  0  0  0  0  0  0
   -3.5170   15.2670   -0.9740 N   0  0  0  0  0  0  0  0  0  0  0  0
   -2.5840   15.0670    1.3580 C   0  0  0  0  0  0  0  0  0  0  0  0
   -0.3740   14.3800    1.3330 C   0  0  0  0  0  0  0  0  0  0  0  0
   -3.7120   15.4580    2.0610 N   0  0  0  0  0  0  0  0  0  0  0  0
   -1.4670   14.7340    2.0260 N   0  0  0  0  0  0  0  0  0  0  0  0
  1  2  1  0
  2  3  2  0
  2  4  1  0
  4  5  2  0
  3  6  1  0
  7  4  1  6
  5  8  1  0
  6  8  2  0
  7  9  1  0
  7 10  1  0
  9 11  1  6
 10 12  1  0
  9 13  1  0
 12 13  1  0
 11 14  1  0
 11 15  2  0
 12 16  1  0
 16 17  1  0
 17 18  1  0
 19 18  1  6
 19 20  1  0
 19 21  1  0
 20 22  1  6
 21 23  1  1
 20 24  1  0
 21 25  1  0
 24 25  1  0
 24 26  1  1
 23 27  1  0
 27 28  1  0
 28 29  2  0
 28 30  1  6
 28 31  1  0
 31 32  1  0
 32 33  1  0
 32 34  2  0
 32 35  1  1
 33 36  1  0
 37 36  1  6
 37 38  1  0
 37 39  1  0
 39 40  1  1
 39 41  1  0
 38 42  1  0
 41 42  1  0
 41 43  1  1
 42 44  1  1
 44 45  1  0
 44 46  1  0
 45 47  2  0
 45 48  1  0
 46 49  2  0
 47 49  1  0
 47 50  1  0
 48 51  2  0
 50 52  1  0
 50 53  2  0
 51 53  1  0
M  END
