mArh-x0587_0_A-mArh-x0950_0_A
     RDKit          3D

 22 22  0  0  0  0  0  0  0  0999 V2000
   -7.8000   14.8210    4.0710 N   0  0  0  0  0  0  0  0  0  0  0  0
   -8.2700   14.8990    2.7940 C   0  0  0  0  0  0  0  0  0  0  0  0
   -9.4640   15.0650    2.5570 O   0  0  0  0  0  0  0  0  0  0  0  0
   -7.2830   14.7950    1.7090 C   0  0  0  0  0  0  0  0  0  0  0  0
   -7.6770   14.6220    0.3990 C   0  0  0  0  0  0  0  0  0  0  0  0
   -5.9220   14.8710    1.9030 C   0  0  0  0  0  0  0  0  0  0  0  0
   -6.8060   14.5390   -0.6380 N   0  0  0  0  0  0  0  0  0  0  0  0
   -5.0070   14.7960    0.9120 N   0  0  0  0  0  0  0  0  0  0  0  0
   -5.4790   14.6350   -0.3460 C   0  0  0  0  0  0  0  0  0  0  0  0
   -4.4520   14.5580   -1.4940 C   0  0  0  0  0  0  0  0  0  0  0  0
   -3.1600   15.0780   -1.1340 O   0  0  0  0  0  0  0  0  0  0  0  0
   -4.3040   13.2900   -1.9820 F   0  0  0  0  0  0  0  0  0  0  0  0
   -4.8330   15.2950   -2.5770 F   0  0  0  0  0  0  0  0  0  0  0  0
   -2.2130   14.0940   -0.7310 C   0  0  0  0  0  0  0  0  0  0  0  0
   -0.8010   14.4310   -1.2260 C   0  0  0  0  0  0  0  0  0  0  0  0
    0.1460   13.2480   -1.0690 C   0  0  0  0  0  0  0  0  0  0  0  0
    1.1090   13.2110   -2.1340 O   0  0  0  0  0  0  0  0  0  0  0  0
    0.9190   12.1960   -3.0230 C   0  0  0  0  0  0  0  0  0  0  0  0
    1.4170   12.5730   -4.4270 C   0  0  2  0  0  0  0  0  0  0  0  0
    0.4140   11.1090   -2.7530 O   0  0  0  0  0  0  0  0  0  0  0  0
    1.2210   14.0400   -4.7500 C   0  0  0  0  0  0  0  0  0  0  0  0
    0.7330   11.8050   -5.4240 O   0  0  0  0  0  0  0  0  0  0  0  0
  1  2  1  0
  2  3  2  0
  2  4  1  0
  4  5  2  0
  4  6  1  0
  5  7  1  0
  6  8  2  0
  7  9  2  0
  8  9  1  0
  9 10  1  0
 10 11  1  0
 10 12  1  0
 10 13  1  0
 11 14  1  0
 14 15  1  0
 15 16  1  0
 16 17  1  0
 17 18  1  0
 18 19  1  0
 18 20  2  0
 19 21  1  6
 19 22  1  0
M  END
