mArh-x0766_0_A-mArh-x0895_0_A
     RDKit          3D

 20 22  0  0  0  0  0  0  0  0999 V2000
    0.4080   12.2390   -2.0730 C   0  0  0  0  0  0  0  0  0  0  0  0
    0.1980   11.0350   -2.7740 O   0  0  0  0  0  0  0  0  0  0  0  0
    0.3040   12.3460   -0.8910 O   0  0  0  0  0  0  0  0  0  0  0  0
    0.7970   13.4460   -2.8220 C   0  0  1  0  0  0  0  0  0  0  0  0
    1.9200   13.2570   -3.8250 C   0  0  0  0  0  0  0  0  0  0  0  0
   -0.3130   14.0090   -3.6640 C   0  0  2  0  0  0  0  0  0  0  0  0
    1.7910   14.4900   -4.6860 C   0  0  0  0  0  0  0  0  0  0  0  0
    0.4790   15.1380   -4.3190 C   0  0  0  0  0  0  0  0  0  0  0  0
   -1.4930   14.5560   -3.2220 C   0  0  0  0  0  0  0  0  0  0  0  0
   -2.4620   14.4160   -2.2130 C   0  0  0  0  0  0  0  0  0  0  0  0
   -1.8610   15.5890   -4.0310 C   0  0  0  0  0  0  0  0  0  0  0  0
   -2.5930   13.6290   -1.1850 N   0  0  0  0  0  0  0  0  0  0  0  0
   -2.9880   16.1570   -3.6850 C   0  0  0  0  0  0  0  0  0  0  0  0
   -3.7360   15.5170   -2.3380 S   0  0  0  0  0  0  0  0  0  0  0  0
   -3.2800   14.1110   -0.2120 C   0  0  0  0  0  0  0  0  0  0  0  0
   -3.9680   15.3000   -0.0570 N   0  0  0  0  0  0  0  0  0  0  0  0
   -3.4170   13.5480    0.9370 N   0  0  0  0  0  0  0  0  0  0  0  0
   -3.7440   15.6830    1.3330 C   0  0  0  0  0  0  0  0  0  0  0  0
   -2.8030   14.5230    1.6170 C   0  0  0  0  0  0  0  0  0  0  0  0
   -1.7680   14.4630    2.2340 O   0  0  0  0  0  0  0  0  0  0  0  0
  1  2  1  0
  1  3  2  0
  4  1  1  6
  4  5  1  0
  4  6  1  0
  5  7  1  0
  6  8  1  0
  7  8  1  0
  6  9  1  1
  9 10  2  0
  9 11  1  0
 10 12  1  0
 11 13  2  0
 10 14  1  0
 13 14  1  0
 12 15  2  3
 15 16  1  0
 15 17  1  0
 16 18  1  0
 17 19  1  0
 18 19  1  0
 19 20  2  0
M  END
