
     RDKit          3D

 36 39  0  0  0  0  0  0  0  0999 V2000
   -2.1150   17.8420   -6.4930 P   0  0  0  0  0  0  0  0  0  0  0  0
   -0.4780   19.5340   -8.2350 P   0  0  0  0  0  0  0  0  0  0  0  0
    0.0880   16.7260   -5.6540 C   0  0  0  0  0  0  0  0  0  0  0  0
   -1.3130   16.9100   -5.4760 O   0  0  0  0  0  0  0  0  0  0  0  0
    0.6670   15.5830   -4.8020 C   0  0  1  0  0  0  0  0  0  0  0  0
    0.2930   15.6800   -3.4220 O   0  0  0  0  0  0  0  0  0  0  0  0
    0.2160   14.1980   -5.2780 C   0  0  1  0  0  0  0  0  0  0  0  0
    1.3430   13.2980   -5.2160 O   0  0  0  0  0  0  0  0  0  0  0  0
   -0.8750   13.8220   -4.3090 C   0  0  1  0  0  0  0  0  0  0  0  0
   -0.9860   12.4160   -4.2320 O   0  0  0  0  0  0  0  0  0  0  0  0
   -0.3750   14.4830   -3.0150 C   0  0  2  0  0  0  0  0  0  0  0  0
   -2.8580   22.5970  -11.1210 C   0  0  1  0  0  0  0  0  0  0  0  0
   -1.2270   15.2860    2.0570 N   0  0  0  0  0  0  0  0  0  0  0  0
   -2.4340   17.1010   -7.7430 O   0  0  0  0  0  0  0  0  0  0  0  0
    0.9270   19.8310   -7.7370 O   0  0  0  0  0  0  0  0  0  0  0  0
   -3.4420   21.8170  -10.1000 O   0  0  0  0  0  0  0  0  0  0  0  0
   -0.0590   15.0620    1.3900 C   0  0  0  0  0  0  0  0  0  0  0  0
   -2.5820   23.9850  -10.5760 C   0  0  2  0  0  0  0  0  0  0  0  0
   -3.2610   18.3490   -5.6980 O   0  0  0  0  0  0  0  0  0  0  0  0
   -0.6360   18.3740   -9.1900 O   0  0  0  0  0  0  0  0  0  0  0  0
   -3.2160   24.9550  -11.4240 O   0  0  0  0  0  0  0  0  0  0  0  0
   -1.0510   24.1240  -10.5200 C   0  0  2  0  0  0  0  0  0  0  0  0
   -0.0050   14.8750    0.0440 N   0  0  0  0  0  0  0  0  0  0  0  0
   -1.2520   19.1630   -6.8540 O   0  0  0  0  0  0  0  0  0  0  0  0
   -0.5050   24.9490  -11.5520 O   0  0  0  0  0  0  0  0  0  0  0  0
   -1.1560   14.9200   -0.6940 C   0  0  0  0  0  0  0  0  0  0  0  0
   -0.5460   22.6990  -10.6710 C   0  0  2  0  0  0  0  0  0  0  0  0
   -1.5800   22.0500  -11.4440 O   0  0  0  0  0  0  0  0  0  0  0  0
   -2.4580   15.1600   -0.0300 C   0  0  0  0  0  0  0  0  0  0  0  0
   -0.2360   22.0320   -9.3000 C   0  0  0  0  0  0  0  0  0  0  0  0
   -1.1030   20.9410   -8.8660 O   0  0  0  0  0  0  0  0  0  0  0  0
   -2.4400   15.3510    1.4240 C   0  0  0  0  0  0  0  0  0  0  0  0
   -3.6030   15.5910    2.0710 N   0  0  0  0  0  0  0  0  0  0  0  0
   -3.4030   15.1530   -0.9620 N   0  0  0  0  0  0  0  0  0  0  0  0
   -2.7760   14.9220   -2.1470 C   0  0  0  0  0  0  0  0  0  0  0  0
   -1.4300   14.7800   -1.9920 N   0  0  0  0  0  0  0  0  0  0  0  0
  1  4  1  0
  1 14  2  0
  1 19  1  0
  1 24  1  0
  4  3  1  0
 24  2  1  0
  2 15  2  0
  2 20  1  0
  2 31  1  0
 31 30  1  0
  5  3  1  6
  5  6  1  0
  5  7  1  0
  6 11  1  0
  7  8  1  1
  7  9  1  0
 11  9  1  0
 11 36  1  1
  9 10  1  1
 36 26  1  0
 36 35  1  0
 12 16  1  1
 12 18  1  0
 12 28  1  0
 18 21  1  6
 18 22  1  0
 28 27  1  0
 13 17  2  0
 13 32  1  0
 17 23  1  0
 32 29  2  0
 32 33  1  0
 23 26  2  0
 22 25  1  6
 22 27  1  0
 27 30  1  1
 26 29  1  0
 29 34  1  0
 34 35  2  0
M  END
