mArh-5cb5_R_0_R-mArh-5cb5_K_0_K
     RDKit          3D

 36 39  0  0  0  0  0  0  0  0999 V2000
   -1.3500   18.2040   -6.1630 P   0  0  1  0  0  0  0  0  0  0  0  0
    0.1130   17.5530   -6.3470 O   0  0  0  0  0  0  0  0  0  0  0  0
    0.7840   16.8520   -5.3030 C   0  0  0  0  0  0  0  0  0  0  0  0
   -2.4920   17.5170   -6.8390 O   0  0  0  0  0  0  0  0  0  0  0  0
   -1.5660   18.3370   -4.5880 O   0  0  0  0  0  0  0  0  0  0  0  0
   -1.1400   19.6930   -6.5900 O   0  0  0  0  0  0  0  0  0  0  0  0
   -0.3610   20.0370   -7.9230 P   0  0  1  0  0  0  0  0  0  0  0  0
    0.7940   20.9640   -7.8060 O   0  0  0  0  0  0  0  0  0  0  0  0
   -0.0280   18.6640   -8.6830 O   0  0  0  0  0  0  0  0  0  0  0  0
   -1.5670   20.4780   -8.8430 O   0  0  0  0  0  0  0  0  0  0  0  0
   -0.0830   15.7170   -4.7900 C   0  0  2  0  0  0  0  0  0  0  0  0
   -2.0510   21.7860   -8.8350 C   0  0  0  0  0  0  0  0  0  0  0  0
   -0.1700   15.6700   -3.3820 O   0  0  0  0  0  0  0  0  0  0  0  0
    0.1330   14.2330   -5.1440 C   0  0  1  0  0  0  0  0  0  0  0  0
    1.4180   13.7540   -4.7290 O   0  0  0  0  0  0  0  0  0  0  0  0
   -0.9390   13.5770   -4.2420 C   0  0  2  0  0  0  0  0  0  0  0  0
   -1.2960   14.8040   -3.3940 C   0  0  1  0  0  0  0  0  0  0  0  0
   -3.1020   22.0730   -7.8320 C   0  0  1  0  0  0  0  0  0  0  0  0
   -0.4460   12.4590   -3.5340 O   0  0  0  0  0  0  0  0  0  0  0  0
   -3.7470   23.4290   -8.0390 C   0  0  1  0  0  0  0  0  0  0  0  0
   -4.2460   21.2380   -7.9500 O   0  0  0  0  0  0  0  0  0  0  0  0
   -2.0280   14.8720   -2.1670 N   0  0  0  0  0  0  0  0  0  0  0  0
   -4.4450   23.5740   -9.2750 O   0  0  0  0  0  0  0  0  0  0  0  0
   -5.2200   21.8890   -7.1230 C   0  0  2  0  0  0  0  0  0  0  0  0
   -4.6590   23.2870   -6.8490 C   0  0  2  0  0  0  0  0  0  0  0  0
   -1.6310   14.8320   -0.8550 C   0  0  0  0  0  0  0  0  0  0  0  0
   -3.3830   15.0460   -2.1930 C   0  0  0  0  0  0  0  0  0  0  0  0
   -5.3520   21.2220   -5.8820 O   0  0  0  0  0  0  0  0  0  0  0  0
   -5.7140   24.2540   -6.8590 O   0  0  0  0  0  0  0  0  0  0  0  0
   -2.8210   15.0260   -0.1660 C   0  0  0  0  0  0  0  0  0  0  0  0
   -0.4080   14.6750   -0.3150 N   0  0  0  0  0  0  0  0  0  0  0  0
   -3.8990   15.1440   -1.0050 N   0  0  0  0  0  0  0  0  0  0  0  0
   -2.7530   15.0860    1.2090 C   0  0  0  0  0  0  0  0  0  0  0  0
   -0.4800   14.7290    1.0300 C   0  0  0  0  0  0  0  0  0  0  0  0
   -3.8850   15.3300    1.9520 N   0  0  0  0  0  0  0  0  0  0  0  0
   -1.5620   14.9190    1.8140 N   0  0  0  0  0  0  0  0  0  0  0  0
  1  2  1  0
  2  3  1  0
  1  4  2  0
  1  5  1  1
  1  6  1  0
  6  7  1  0
  7  8  2  0
  7  9  1  6
  7 10  1  0
 11  3  1  1
 10 12  1  0
 11 13  1  0
 11 14  1  0
 14 15  1  1
 14 16  1  0
 13 17  1  0
 16 17  1  0
 18 12  1  6
 16 19  1  1
 18 20  1  0
 18 21  1  0
 17 22  1  1
 20 23  1  6
 21 24  1  0
 20 25  1  0
 24 25  1  0
 22 26  1  0
 22 27  1  0
 24 28  1  1
 25 29  1  6
 26 30  2  0
 26 31  1  0
 27 32  2  0
 30 32  1  0
 30 33  1  0
 31 34  2  0
 33 35  1  0
 33 36  2  0
 34 36  1  0
M  END
