
     RDKit          3D

 12 13  0  0  0  0  0  0  0  0999 V2000
    0.5170   13.9780    1.7620 N   0  0  0  0  0  0  0  0  0  0  0  0
   -6.8380   14.7650    2.5260 C   0  0  0  0  0  0  0  0  0  0  0  0
   -6.5090   14.9180    1.1420 O   0  0  0  0  0  0  0  0  0  0  0  0
   -5.1900   14.8510    0.7750 C   0  0  0  0  0  0  0  0  0  0  0  0
   -1.7550   14.3440    2.0300 N   0  0  0  0  0  0  0  0  0  0  0  0
   -4.9210   15.0430   -0.5710 C   0  0  0  0  0  0  0  0  0  0  0  0
   -3.6160   15.0750   -1.0230 C   0  0  0  0  0  0  0  0  0  0  0  0
   -2.5930   14.8650   -0.1100 C   0  0  0  0  0  0  0  0  0  0  0  0
   -0.6680   14.3450    1.3090 C   0  0  0  0  0  0  0  0  0  0  0  0
   -2.8640   14.6310    1.2440 C   0  0  0  0  0  0  0  0  0  0  0  0
   -4.1780   14.6380    1.6940 C   0  0  0  0  0  0  0  0  0  0  0  0
   -0.8830   14.7370   -0.3950 S   0  0  0  0  0  0  0  0  0  0  0  0
  1  9  1  0
  9  5  2  0
  9 12  1  0
  2  3  1  0
  3  4  1  0
  4  6  2  0
  4 11  1  0
  6  7  1  0
 11 10  2  0
  5 10  1  0
 10  8  1  0
  7  8  2  0
  8 12  1  0
M  END
