
     RDKit          3D

  6  6  0  0  0  0  0  0  0  0999 V2000
   -7.7200   14.0420    1.2910 N   0  0  0  0  0  0  0  0  0  0  0  0
   -6.7440   14.6960    0.6360 C   0  0  0  0  0  0  0  0  0  0  0  0
   -4.8520   15.7340    0.2980 C   0  0  0  0  0  0  0  0  0  0  0  0
   -6.7550   15.0670   -0.6510 N   0  0  0  0  0  0  0  0  0  0  0  0
   -5.5590   15.7360   -0.9030 N   0  0  0  0  0  0  0  0  0  0  0  0
   -5.5780   15.0970    1.2390 N   0  0  0  0  0  0  0  0  0  0  0  0
  1  2  1  0
  2  4  2  0
  2  6  1  0
  4  5  1  0
  6  3  1  0
  3  5  2  0
M  END
