mArh-5cms_C_2_C-mArh-5cb5_I_0_I
     RDKit          3D

 44 48  0  0  0  0  0  0  0  0999 V2000
   -1.4940   18.1700   -5.9610 P   0  0  1  0  0  0  0  0  0  0  0  0
   -0.9310   16.7640   -5.4250 O   0  0  0  0  0  0  0  0  0  0  0  0
    0.4690   16.5790   -5.2150 C   0  0  0  0  0  0  0  0  0  0  0  0
   -2.5730   18.0070   -6.8990 O   0  0  0  0  0  0  0  0  0  0  0  0
   -1.9240   18.9850   -4.6680 O   0  0  0  0  0  0  0  0  0  0  0  0
   -0.3090   19.0330   -6.5280 O   0  0  0  0  0  0  0  0  0  0  0  0
   -0.3710   19.8680   -7.8930 P   0  0  1  0  0  0  0  0  0  0  0  0
    0.6630   20.9310   -7.8590 O   0  0  0  0  0  0  0  0  0  0  0  0
    0.0320   18.7180   -8.9160 O   0  0  0  0  0  0  0  0  0  0  0  0
   -1.8530   20.3080   -8.4450 O   0  0  0  0  0  0  0  0  0  0  0  0
    0.6850   15.2880   -4.4150 C   0  0  1  0  0  0  0  0  0  0  0  0
   -2.3930   21.6590   -8.7730 C   0  0  1  0  0  0  0  0  0  0  0  0
    0.0000   15.4550   -3.1600 O   0  0  0  0  0  0  0  0  0  0  0  0
    0.1370   13.9690   -5.0140 C   0  0  1  0  0  0  0  0  0  0  0  0
    1.1520   13.0840   -5.4570 O   0  0  0  0  0  0  0  0  0  0  0  0
   -0.6140   13.3810   -3.8010 C   0  0  1  0  0  0  0  0  0  0  0  0
   -1.1870   14.6730   -3.2920 C   0  0  1  0  0  0  0  0  0  0  0  0
   -3.8000   21.8060   -9.5440 C   0  0  2  0  0  0  0  0  0  0  0  0
   -2.8790   22.0800   -7.4450 C   0  0  1  0  0  0  0  0  0  0  0  0
   -1.5250   12.3710   -4.2090 O   0  0  0  0  0  0  0  0  0  0  0  0
   -3.9670   22.1800  -10.8520 C   0  0  1  0  0  0  0  0  0  0  0  0
   -4.6630   22.7660   -8.8820 O   0  0  0  0  0  0  0  0  0  0  0  0
   -1.9850   14.8200   -2.0980 N   0  0  0  0  0  0  0  0  0  0  0  0
   -3.5800   23.4530   -7.4230 C   0  0  1  0  0  0  0  0  0  0  0  0
   -3.9140   21.1180   -7.1300 O   0  0  0  0  0  0  0  0  0  0  0  0
   -5.2110   21.9340  -11.4760 O   0  0  0  0  0  0  0  0  0  0  0  0
   -4.0680   23.9400   -8.6850 O   0  0  0  0  0  0  0  0  0  0  0  0
   -5.1960   23.6530   -9.8600 C   0  0  2  0  0  0  0  0  0  0  0  0
   -4.0490   23.7000  -10.7100 C   0  0  2  0  0  0  0  0  0  0  0  0
   -1.5790   14.7850   -0.7880 C   0  0  0  0  0  0  0  0  0  0  0  0
   -3.3430   15.0640   -2.1250 C   0  0  0  0  0  0  0  0  0  0  0  0
   -5.1080   21.8740   -7.0850 C   0  0  2  0  0  0  0  0  0  0  0  0
   -4.7500   23.0590   -6.5710 C   0  0  2  0  0  0  0  0  0  0  0  0
   -5.4820   24.9160   -9.3820 O   0  0  0  0  0  0  0  0  0  0  0  0
   -4.2440   24.4620  -11.9260 O   0  0  0  0  0  0  0  0  0  0  0  0
   -5.9800   21.2330   -6.1840 O   0  0  0  0  0  0  0  0  0  0  0  0
   -5.7610   24.0470   -6.6520 O   0  0  0  0  0  0  0  0  0  0  0  0
   -2.8820   15.0710   -0.0440 C   0  0  0  0  0  0  0  0  0  0  0  0
   -0.3750   14.5810   -0.2300 N   0  0  0  0  0  0  0  0  0  0  0  0
   -3.9030   15.2150   -0.9380 N   0  0  0  0  0  0  0  0  0  0  0  0
   -2.7980   15.1420    1.3280 C   0  0  0  0  0  0  0  0  0  0  0  0
   -0.4870   14.6650    1.1200 C   0  0  0  0  0  0  0  0  0  0  0  0
   -3.8940   15.4390    2.1080 N   0  0  0  0  0  0  0  0  0  0  0  0
   -1.5900   14.9210    1.8970 N   0  0  0  0  0  0  0  0  0  0  0  0
  1  2  1  0
  2  3  1  0
  1  4  2  0
  1  5  1  1
  1  6  1  0
  6  7  1  0
  7  8  2  0
  7  9  1  6
  7 10  1  0
 11  3  1  6
 12 10  1  1
 11 13  1  0
 11 14  1  0
 14 15  1  1
 14 16  1  0
 13 17  1  0
 16 17  1  0
 12 18  1  0
 12 19  1  0
 16 20  1  6
 18 21  1  0
 18 22  1  1
 17 23  1  1
 19 24  1  0
 19 25  1  6
 21 26  1  1
 24 27  1  6
 22 28  1  0
 21 29  1  0
 28 29  1  0
 23 30  1  0
 23 31  1  0
 25 32  1  0
 24 33  1  0
 32 33  1  0
 28 34  1  1
 29 35  1  6
 32 36  1  1
 33 37  1  6
 30 38  2  0
 30 39  1  0
 31 40  2  0
 38 40  1  0
 38 41  1  0
 39 42  2  0
 41 43  1  0
 41 44  2  0
 42 44  1  0
M  END
