mArh-1hjz_B_0_B-mArh-x0685_1_A
     RDKit          3D

 30 31  0  0  0  0  0  0  0  0999 V2000
    0.9210   21.0860   -7.6270 O   0  0  0  0  0  0  0  0  0  0  0  0
    0.0150   19.9590   -7.7690 S   0  0  0  0  0  0  0  0  0  0  0  0
    0.2810   18.8710   -8.6970 O   0  0  0  0  0  0  0  0  0  0  0  0
   -0.2170   19.2670   -6.3030 O   0  0  0  0  0  0  0  0  0  0  0  0
   -1.6350   20.5660   -8.0750 C   0  0  0  0  0  0  0  0  0  0  0  0
   -1.9770   21.8260   -7.3120 C   0  0  0  0  0  0  0  0  0  0  0  0
    0.8710   18.5220   -5.7220 C   0  0  0  0  0  0  0  0  0  0  0  0
    0.5660   17.0350   -5.6800 C   0  0  0  0  0  0  0  0  0  0  0  0
   -3.3840   22.2450   -7.5340 N   0  0  0  0  0  0  0  0  0  0  0  0
    0.5190   16.4600   -4.2650 C   0  0  0  0  0  0  0  0  0  0  0  0
   -3.6280   22.7060   -8.9000 C   0  0  0  0  0  0  0  0  0  0  0  0
   -3.7560   23.3620   -6.6370 C   0  0  0  0  0  0  0  0  0  0  0  0
    1.3130   15.1480   -4.0880 C   0  0  0  0  0  0  0  0  0  0  0  0
   -5.0630   23.1380   -9.1750 C   0  0  0  0  0  0  0  0  0  0  0  0
   -5.1910   23.8190   -6.8970 C   0  0  0  0  0  0  0  0  0  0  0  0
    0.7010   13.9200   -4.8000 C   0  0  0  0  0  0  0  0  0  0  0  0
   -5.4690   24.1540   -8.2650 O   0  0  0  0  0  0  0  0  0  0  0  0
   -0.2030   13.0250   -3.9060 C   0  0  1  0  0  0  0  0  0  0  0  0
   -1.1840   12.1650   -4.7300 C   0  0  0  0  0  0  0  0  0  0  0  0
    0.6990   12.0380   -2.6760 S   0  0  0  0  0  0  0  0  0  0  0  0
   -0.8030   10.7560   -4.9130 N   0  0  0  0  0  0  0  0  0  0  0  0
    2.1110   12.2860   -2.8650 O   0  0  0  0  0  0  0  0  0  0  0  0
    0.1610   10.6940   -2.4850 O   0  0  0  0  0  0  0  0  0  0  0  0
    0.2700   12.8130   -1.3270 O   0  0  0  0  0  0  0  0  0  0  0  0
   -1.1880   10.1430   -6.2030 C   0  0  0  0  0  0  0  0  0  0  0  0
   -0.1240    9.1660   -6.7150 C   0  0  0  0  0  0  0  0  0  0  0  0
   -1.4510   11.2070   -7.2780 C   0  0  0  0  0  0  0  0  0  0  0  0
   -0.5080    8.3750   -7.9470 C   0  0  0  0  0  0  0  0  0  0  0  0
   -1.0060   10.7480   -8.6750 C   0  0  0  0  0  0  0  0  0  0  0  0
   -1.2110    9.2560   -8.9650 C   0  0  0  0  0  0  0  0  0  0  0  0
  1  2  2  0
  2  3  2  0
  2  4  1  0
  2  5  1  0
  5  6  1  0
  4  7  1  0
  7  8  1  0
  6  9  1  0
  8 10  1  0
  9 11  1  0
  9 12  1  0
 10 13  1  0
 11 14  1  0
 12 15  1  0
 13 16  1  0
 14 17  1  0
 15 17  1  0
 18 16  1  6
 18 19  1  0
 18 20  1  0
 19 21  1  0
 20 22  2  0
 20 23  2  0
 20 24  1  0
 21 25  1  0
 25 26  1  0
 25 27  1  0
 26 28  1  0
 27 29  1  0
 28 30  1  0
 29 30  1  0
M  END
