mArh-5cms_P_15_P-mArh-x0711_0_A
     RDKit          3D

 43 47  0  0  0  0  0  0  0  0999 V2000
   -1.6820   18.1580   -6.1050 P   0  0  1  0  0  0  0  0  0  0  0  0
   -0.3740   17.2500   -6.1990 O   0  0  0  0  0  0  0  0  0  0  0  0
    0.7650   17.3930   -5.3670 C   0  0  0  0  0  0  0  0  0  0  0  0
   -2.8410   17.5330   -6.7740 O   0  0  0  0  0  0  0  0  0  0  0  0
   -1.8340   18.3990   -4.5360 O   0  0  0  0  0  0  0  0  0  0  0  0
   -1.2640   19.5480   -6.6970 O   0  0  0  0  0  0  0  0  0  0  0  0
   -0.0610   19.8400   -7.6620 P   0  0  1  0  0  0  0  0  0  0  0  0
    1.2940   19.9390   -7.0730 O   0  0  0  0  0  0  0  0  0  0  0  0
   -0.1620   18.6130   -8.6970 O   0  0  0  0  0  0  0  0  0  0  0  0
   -0.5700   21.1690   -8.4220 O   0  0  0  0  0  0  0  0  0  0  0  0
    0.9950   16.1630   -4.4860 C   0  0  1  0  0  0  0  0  0  0  0  0
   -1.8370   20.9480   -8.9550 C   0  0  0  0  0  0  0  0  0  0  0  0
    0.3130   16.3320   -3.2040 O   0  0  0  0  0  0  0  0  0  0  0  0
    0.4480   14.9240   -5.1490 C   0  0  1  0  0  0  0  0  0  0  0  0
    1.1890   13.7320   -4.8960 O   0  0  0  0  0  0  0  0  0  0  0  0
   -0.9530   14.9160   -4.6340 C   0  0  2  0  0  0  0  0  0  0  0  0
   -0.6570   15.2880   -3.0700 C   0  0  2  0  0  0  0  0  0  0  0  0
   -2.9240   21.9840   -9.2090 C   0  0  1  0  0  0  0  0  0  0  0  0
   -1.3200   13.6080   -4.7710 O   0  0  0  0  0  0  0  0  0  0  0  0
   -2.7150   23.4740   -9.0280 C   0  0  1  0  0  0  0  0  0  0  0  0
   -3.3670   21.7750  -10.5630 O   0  0  0  0  0  0  0  0  0  0  0  0
   -1.6990   15.5890   -2.0180 N   0  0  0  0  0  0  0  0  0  0  0  0
   -1.3130   23.7410   -9.0000 O   0  0  0  0  0  0  0  0  0  0  0  0
   -1.0670   13.4910   -3.2810 S   0  0  0  0  0  0  0  0  0  0  0  0
   -4.1690   22.8640  -10.9570 C   0  0  2  0  0  0  0  0  0  0  0  0
   -3.6350   24.0510  -10.2070 C   0  0  2  0  0  0  0  0  0  0  0  0
   -1.3860   15.7740   -0.6260 C   0  0  1  0  0  0  0  0  0  0  0  0
   -2.5830   14.5530   -1.7250 C   0  0  2  0  0  0  0  0  0  0  0  0
   -5.5100   22.6610  -10.6170 O   0  0  0  0  0  0  0  0  0  0  0  0
   -3.1450   25.0260  -11.1540 O   0  0  0  0  0  0  0  0  0  0  0  0
   -2.6770   13.8800   -2.9000 N   0  0  0  0  0  0  0  0  0  0  0  0
   -0.2700   14.6550   -3.0110 O   0  0  0  0  0  0  0  0  0  0  0  0
   -0.5220   12.2070   -2.9590 O   0  0  0  0  0  0  0  0  0  0  0  0
   -2.6790   15.6660    0.0220 C   0  0  1  0  0  0  0  0  0  0  0  0
   -0.4460   14.6740   -0.3100 N   0  0  0  0  0  0  0  0  0  0  0  0
   -3.6330   15.2600   -1.0350 N   0  0  0  0  0  0  0  0  0  0  0  0
   -4.9590   14.8570   -0.6550 C   0  0  0  0  0  0  0  0  0  0  0  0
   -2.7310   14.8380    1.0970 C   0  0  2  0  0  0  0  0  0  0  0  0
   -0.2640   14.4620    1.1100 C   0  0  0  0  0  0  0  0  0  0  0  0
   -3.6610   15.3870    2.0670 N   0  0  0  0  0  0  0  0  0  0  0  0
   -5.2110   14.5550    0.6550 N   0  0  0  0  0  0  0  0  0  0  0  0
   -5.9360   14.7740   -1.4010 O   0  0  0  0  0  0  0  0  0  0  0  0
   -1.4930   14.6920    1.8110 N   0  0  0  0  0  0  0  0  0  0  0  0
  1  2  1  0
  2  3  1  0
  1  4  2  0
  1  5  1  1
  1  6  1  0
  6  7  1  0
  7  8  2  0
  7  9  1  6
  7 10  1  0
 11  3  1  6
 10 12  1  0
 11 13  1  0
 11 14  1  0
 14 15  1  1
 14 16  1  0
 17 13  1  6
 16 17  1  0
 18 12  1  6
 16 19  1  1
 18 20  1  0
 18 21  1  0
 17 22  1  0
 20 23  1  6
 24 19  1  0
 21 25  1  0
 20 26  1  0
 25 26  1  0
 22 27  1  0
 22 28  1  0
 25 29  1  1
 26 30  1  6
 24 31  1  0
 28 31  1  6
 24 32  2  0
 24 33  2  0
 27 34  1  0
 27 35  1  1
 28 36  1  0
 34 36  1  6
 36 37  1  0
 34 38  1  0
 35 39  1  0
 38 40  1  1
 37 41  1  0
 37 42  2  0
 38 43  1  0
 39 43  1  0
M  END
