
     RDKit          3D

 11 11  0  0  0  0  0  0  0  0999 V2000
   -2.7770   14.9470    1.1200 N   0  0  0  0  0  0  0  0  0  0  0  0
   -3.2620   14.8590   -0.1130 C   0  0  0  0  0  0  0  0  0  0  0  0
   -2.5690   14.8200   -1.1330 O   0  0  0  0  0  0  0  0  0  0  0  0
   -4.7290   14.8190   -0.2680 C   0  0  0  0  0  0  0  0  0  0  0  0
   -6.8050   14.9890   -1.1470 N   0  0  0  0  0  0  0  0  0  0  0  0
   -7.3510   15.1340    3.0650 O   0  0  0  0  0  0  0  0  0  0  0  0
   -5.5120   15.0060   -1.4180 C   0  0  0  0  0  0  0  0  0  0  0  0
   -6.8670   14.7530    0.1860 N   0  0  0  0  0  0  0  0  0  0  0  0
   -8.1680   14.6330    0.8370 C   0  0  0  0  0  0  0  0  0  0  0  0
   -8.0280   14.1650    2.2650 C   0  0  0  0  0  0  0  0  0  0  0  0
   -5.6510   14.6520    0.7470 C   0  0  0  0  0  0  0  0  0  0  0  0
  1  2  1  0
  2  3  2  0
  2  4  1  0
  4  7  1  0
  4 11  2  0
  7  5  2  0
 11  8  1  0
  5  8  1  0
  8  9  1  0
  6 10  1  0
 10  9  1  0
M  END
