mArh-5cb5_R_0_R-mArh-x0962_0_A
     RDKit          3D

 42 46  0  0  0  0  0  0  0  0999 V2000
   -1.4250   18.1350   -6.1040 P   0  0  1  0  0  0  0  0  0  0  0  0
   -0.2400   17.0870   -5.9060 O   0  0  0  0  0  0  0  0  0  0  0  0
    0.5440   17.1800   -4.7250 C   0  0  0  0  0  0  0  0  0  0  0  0
   -2.5860   17.6710   -6.8960 O   0  0  0  0  0  0  0  0  0  0  0  0
   -1.8520   18.5090   -4.6220 O   0  0  0  0  0  0  0  0  0  0  0  0
   -0.7970   19.5110   -6.4960 O   0  0  0  0  0  0  0  0  0  0  0  0
   -0.1650   19.9450   -7.8580 P   0  0  1  0  0  0  0  0  0  0  0  0
    1.0470   20.8150   -7.6870 O   0  0  0  0  0  0  0  0  0  0  0  0
    0.1160   18.6140   -8.7050 O   0  0  0  0  0  0  0  0  0  0  0  0
   -1.3510   20.5930   -8.7010 O   0  0  0  0  0  0  0  0  0  0  0  0
    0.8620   15.7910   -4.1220 C   0  0  1  0  0  0  0  0  0  0  0  0
   -2.0980   21.5840   -8.0210 C   0  0  0  0  0  0  0  0  0  0  0  0
    0.1050   15.5710   -2.8990 O   0  0  0  0  0  0  0  0  0  0  0  0
    0.5020   14.6120   -5.0160 C   0  0  1  0  0  0  0  0  0  0  0  0
    1.4380   13.5410   -4.8190 O   0  0  0  0  0  0  0  0  0  0  0  0
   -0.8740   14.1500   -4.5490 C   0  0  2  0  0  0  0  0  0  0  0  0
   -1.1470   14.9360   -3.2380 C   0  0  1  0  0  0  0  0  0  0  0  0
   -3.4190   21.8800   -8.7240 C   0  0  2  0  0  0  0  0  0  0  0  0
   -0.8700   12.7220   -4.4420 O   0  0  0  0  0  0  0  0  0  0  0  0
   -3.8680   23.3110   -8.4570 C   0  0  1  0  0  0  0  0  0  0  0  0
   -4.4790   21.0370   -8.2380 O   0  0  0  0  0  0  0  0  0  0  0  0
   -1.7890   14.1570   -2.1560 N   0  0  0  0  0  0  0  0  0  0  0  0
   -4.7350   23.8620   -9.4390 O   0  0  0  0  0  0  0  0  0  0  0  0
   -5.2230   21.7750   -7.2650 C   0  0  2  0  0  0  0  0  0  0  0  0
   -4.5300   23.1310   -7.0930 C   0  0  2  0  0  0  0  0  0  0  0  0
   -1.4240   14.3120   -0.7530 C   0  0  2  0  0  0  0  0  0  0  0  0
   -3.2400   14.3870   -2.0760 C   0  0  1  0  0  0  0  0  0  0  0  0
   -5.1980   21.0760   -6.0340 O   0  0  0  0  0  0  0  0  0  0  0  0
   -5.4590   24.1540   -6.7200 O   0  0  0  0  0  0  0  0  0  0  0  0
   -2.5380   15.0170    0.0200 C   0  0  1  0  0  0  0  0  0  0  0  0
   -0.2140   14.9580   -0.4280 N   0  0  0  0  0  0  0  0  0  0  0  0
   -3.6440   15.1410   -0.8780 N   0  0  0  0  0  0  0  0  0  0  0  0
   -3.4670   15.0030   -3.3370 N   0  0  0  0  0  0  0  0  0  0  0  0
   -2.5210   14.2850    1.2880 C   0  0  2  0  0  0  0  0  0  0  0  0
    0.0020   14.5860    0.9620 C   0  0  0  0  0  0  0  0  0  0  0  0
   -4.7810   14.9770   -0.2380 C   0  0  0  0  0  0  0  0  0  0  0  0
   -3.3180   14.9530    2.2800 N   0  0  0  0  0  0  0  0  0  0  0  0
   -1.1690   14.4110    1.8310 N   0  0  0  0  0  0  0  0  0  0  0  0
   -4.7290   15.0490    1.1210 N   0  0  0  0  0  0  0  0  0  0  0  0
   -6.0910   14.7370   -0.5190 C   0  0  0  0  0  0  0  0  0  0  0  0
   -5.9650   14.8490    1.6090 C   0  0  0  0  0  0  0  0  0  0  0  0
   -6.8240   14.6560    0.6410 N   0  0  0  0  0  0  0  0  0  0  0  0
  1  2  1  0
  2  3  1  0
  1  4  2  0
  1  5  1  1
  1  6  1  0
  6  7  1  0
  7  8  2  0
  7  9  1  6
  7 10  1  0
 11  3  1  6
 10 12  1  0
 11 13  1  0
 11 14  1  0
 14 15  1  1
 14 16  1  0
 13 17  1  0
 16 17  1  0
 18 12  1  1
 16 19  1  1
 18 20  1  0
 18 21  1  0
 17 22  1  1
 20 23  1  6
 21 24  1  0
 20 25  1  0
 24 25  1  0
 22 26  1  0
 22 27  1  0
 24 28  1  1
 25 29  1  6
 26 30  1  0
 26 31  1  6
 27 32  1  0
 30 32  1  6
 27 33  1  6
 30 34  1  0
 31 35  1  0
 32 36  1  0
 34 37  1  1
 34 38  1  0
 35 38  1  0
 36 39  1  0
 36 40  2  0
 39 41  1  0
 40 42  1  0
 41 42  2  0
M  END
