
     RDKit          3D

 14 15  0  0  0  0  0  0  0  0999 V2000
   -3.3330   14.6200    0.5980 N   0  0  0  0  0  0  0  0  0  0  0  0
   -7.4400   13.9600    0.9590 C   0  0  0  0  0  0  0  0  0  0  0  0
   -8.4980   14.5530    0.2080 O   0  0  0  0  0  0  0  0  0  0  0  0
   -6.2010   14.8250    0.9250 C   0  0  2  0  0  0  0  0  0  0  0  0
   -1.4890   14.6290   -0.8030 N   0  0  0  0  0  0  0  0  0  0  0  0
   -5.5030   15.1800   -0.3820 C   0  0  0  0  0  0  0  0  0  0  0  0
   -1.2500   14.5630    1.5990 N   0  0  0  0  0  0  0  0  0  0  0  0
   -4.2260   14.3890   -0.5430 C   0  0  0  0  0  0  0  0  0  0  0  0
   -3.9750   14.2880    1.8760 C   0  0  0  0  0  0  0  0  0  0  0  0
   -5.2580   15.0840    2.0890 C   0  0  0  0  0  0  0  0  0  0  0  0
   -1.9770   14.6550    0.4620 C   0  0  0  0  0  0  0  0  0  0  0  0
   -0.1560   14.5040   -0.9030 C   0  0  0  0  0  0  0  0  0  0  0  0
    0.6780   14.4510    0.1850 C   0  0  0  0  0  0  0  0  0  0  0  0
    0.0720   14.4650    1.4240 C   0  0  0  0  0  0  0  0  0  0  0  0
  1  8  1  0
  1  9  1  0
  1 11  1  0
  8  6  1  0
  9 10  1  0
 11  5  2  0
 11  7  1  0
  2  3  1  0
  4  2  1  6
  4  6  1  0
  4 10  1  0
  5 12  1  0
 12 13  2  0
  7 14  2  0
 14 13  1  0
M  END
