mArh-5cms_N_13_N-mArh-5cb5_K_0_K
     RDKit          3D

 44 49  0  0  0  0  0  0  0  0999 V2000
   -1.8360   18.0370   -6.0260 P   0  0  2  0  0  0  0  0  0  0  0  0
   -0.4060   17.4860   -6.4540 O   0  0  0  0  0  0  0  0  0  0  0  0
    0.5800   16.9220   -5.6120 C   0  0  0  0  0  0  0  0  0  0  0  0
   -1.9220   18.8660   -4.8320 O   0  0  0  0  0  0  0  0  0  0  0  0
   -2.7760   16.7690   -5.8320 O   0  0  0  0  0  0  0  0  0  0  0  0
   -2.3810   18.7880   -7.2600 O   0  0  0  0  0  0  0  0  0  0  0  0
   -1.3830   19.8350   -7.8730 P   0  0  1  0  0  0  0  0  0  0  0  0
   -0.3930   20.4530   -6.9760 O   0  0  0  0  0  0  0  0  0  0  0  0
   -0.5040   18.8070   -8.7510 O   0  0  0  0  0  0  0  0  0  0  0  0
   -2.0590   20.8180   -9.0770 O   0  0  0  0  0  0  0  0  0  0  0  0
    0.0530   15.7010   -4.8890 C   0  0  2  0  0  0  0  0  0  0  0  0
   -3.3340   21.5610   -9.1580 C   0  0  2  0  0  0  0  0  0  0  0  0
    0.6620   15.6640   -3.6010 O   0  0  0  0  0  0  0  0  0  0  0  0
    0.1380   14.2530   -5.4800 C   0  0  1  0  0  0  0  0  0  0  0  0
    1.2900   13.8680   -6.2130 O   0  0  0  0  0  0  0  0  0  0  0  0
    0.2390   13.3960   -4.2250 C   0  0  0  0  0  0  0  0  0  0  0  0
    0.2380   14.4000   -3.0890 C   0  0  2  0  0  0  0  0  0  0  0  0
   -4.0130   22.3210  -10.3450 C   0  0  1  0  0  0  0  0  0  0  0  0
   -3.8380   22.1730   -7.9880 C   0  0  2  0  0  0  0  0  0  0  0  0
    1.4080   12.6210   -4.4120 O   0  0  0  0  0  0  0  0  0  0  0  0
   -0.8320   12.4840   -4.1250 O   0  0  0  0  0  0  0  0  0  0  0  0
   -4.8520   23.4880   -9.8950 C   0  0  1  0  0  0  0  0  0  0  0  0
   -3.7900   22.5990  -11.8320 C   0  0  1  0  0  0  0  0  0  0  0  0
   -0.9630   14.5670   -2.3250 N   0  0  0  0  0  0  0  0  0  0  0  0
   -3.7620   23.6370   -7.7770 C   0  0  1  0  0  0  0  0  0  0  0  0
   -3.8420   21.4600   -6.8220 O   0  0  0  0  0  0  0  0  0  0  0  0
   -4.2570   24.3390   -8.9360 O   0  0  0  0  0  0  0  0  0  0  0  0
   -3.1080   21.6750  -12.6560 O   0  0  0  0  0  0  0  0  0  0  0  0
   -5.3590   24.0690  -11.2450 C   0  0  2  0  0  0  0  0  0  0  0  0
   -1.0750   14.6740   -1.0140 C   0  0  0  0  0  0  0  0  0  0  0  0
   -2.2810   14.6560   -2.7460 C   0  0  0  0  0  0  0  0  0  0  0  0
   -5.0700   22.0590   -6.5460 C   0  0  2  0  0  0  0  0  0  0  0  0
   -4.7160   23.5790   -6.5850 C   0  0  2  0  0  0  0  0  0  0  0  0
   -5.2190   22.8810  -12.2020 C   0  0  0  0  0  0  0  0  0  0  0  0
   -4.4770   25.0530  -11.7530 O   0  0  0  0  0  0  0  0  0  0  0  0
   -5.5770   21.5560   -5.3460 O   0  0  0  0  0  0  0  0  0  0  0  0
   -5.8960   24.3170   -6.8170 O   0  0  0  0  0  0  0  0  0  0  0  0
   -2.3730   14.8190   -0.5680 C   0  0  0  0  0  0  0  0  0  0  0  0
    0.0220   14.6360   -0.2370 N   0  0  0  0  0  0  0  0  0  0  0  0
   -3.1500   14.8070   -1.7190 N   0  0  0  0  0  0  0  0  0  0  0  0
   -2.6110   14.9370    0.8040 C   0  0  0  0  0  0  0  0  0  0  0  0
   -0.2510   14.7490    1.0790 C   0  0  0  0  0  0  0  0  0  0  0  0
   -3.8590   15.0940    1.3800 N   0  0  0  0  0  0  0  0  0  0  0  0
   -1.4350   14.8890    1.6850 N   0  0  0  0  0  0  0  0  0  0  0  0
  1  2  1  0
  2  3  1  0
  1  4  2  0
  1  5  1  1
  1  6  1  0
  6  7  1  0
  7  8  2  0
  7  9  1  6
  7 10  1  0
 11  3  1  6
 12 10  1  6
 11 13  1  0
 11 14  1  0
 14 15  1  6
 14 16  1  0
 13 17  1  0
 16 17  1  0
 12 18  1  0
 12 19  1  0
 16 20  1  0
 16 21  1  0
 18 22  1  0
 18 23  1  6
 17 24  1  6
 19 25  1  0
 19 26  1  1
 22 27  1  6
 25 27  1  6
 23 28  1  6
 22 29  1  0
 24 30  1  0
 24 31  1  0
 26 32  1  0
 25 33  1  0
 32 33  1  0
 23 34  1  0
 29 34  1  0
 29 35  1  6
 32 36  1  1
 33 37  1  6
 30 38  2  0
 30 39  1  0
 31 40  2  0
 38 40  1  0
 38 41  1  0
 39 42  2  0
 41 43  1  0
 41 44  2  0
 42 44  1  0
M  END
