mArh-1hjz_A_0_A-mArh-x0805_0_A
     RDKit          3D

 32 34  0  0  0  0  0  0  0  0999 V2000
    1.1710   20.9350   -7.4700 O   0  0  0  0  0  0  0  0  0  0  0  0
    0.0030   20.1250   -7.8020 S   0  0  0  0  0  0  0  0  0  0  0  0
    0.1280   18.9980   -8.7090 O   0  0  0  0  0  0  0  0  0  0  0  0
   -0.6360   19.5780   -6.4070 O   0  0  0  0  0  0  0  0  0  0  0  0
   -1.3550   21.1570   -8.3220 C   0  0  0  0  0  0  0  0  0  0  0  0
   -2.0620   21.8890   -7.2200 C   0  0  0  0  0  0  0  0  0  0  0  0
   -0.7450   18.1750   -6.2660 C   0  0  0  0  0  0  0  0  0  0  0  0
   -0.1890   17.7150   -4.9150 C   0  0  0  0  0  0  0  0  0  0  0  0
   -3.4450   22.2620   -7.5810 N   0  0  0  0  0  0  0  0  0  0  0  0
    1.1000   16.8820   -4.9100 C   0  0  0  0  0  0  0  0  0  0  0  0
   -3.5700   22.5990   -8.9150 C   0  0  0  0  0  0  0  0  0  0  0  0
   -3.8700   23.4350   -6.7750 C   0  0  0  0  0  0  0  0  0  0  0  0
   -4.9490   23.1450   -9.2890 C   0  0  0  0  0  0  0  0  0  0  0  0
   -5.1730   23.8040   -7.0020 C   0  0  0  0  0  0  0  0  0  0  0  0
    0.9720   15.3680   -4.6940 C   0  0  1  0  0  0  0  0  0  0  0  0
   -5.4250   24.1370   -8.3730 O   0  0  0  0  0  0  0  0  0  0  0  0
    2.1300   14.5940   -4.3700 O   0  0  0  0  0  0  0  0  0  0  0  0
    0.0510   15.1500   -3.5670 C   0  0  0  0  0  0  0  0  0  0  0  0
    1.8590   13.1560   -4.3220 C   0  0  0  0  0  0  0  0  0  0  0  0
   -0.6080   13.8400   -3.8810 C   0  0  2  0  0  0  0  0  0  0  0  0
   -1.8750   13.7510   -3.0760 C   0  0  0  0  0  0  0  0  0  0  0  0
    0.4310   12.6840   -3.8410 C   0  0  2  0  0  0  0  0  0  0  0  0
    0.5080   12.0160   -2.4650 C   0  0  0  0  0  0  0  0  0  0  0  0
   -2.8880   12.8370   -3.3720 C   0  0  0  0  0  0  0  0  0  0  0  0
   -2.0460   14.6320   -1.9930 C   0  0  0  0  0  0  0  0  0  0  0  0
    0.4080   10.6580   -2.5170 O   0  0  0  0  0  0  0  0  0  0  0  0
    0.6300   12.5520   -1.3740 O   0  0  0  0  0  0  0  0  0  0  0  0
   -3.1840   14.6590   -1.1840 C   0  0  0  0  0  0  0  0  0  0  0  0
   -4.0490   12.7920   -2.6180 C   0  0  0  0  0  0  0  0  0  0  0  0
   -3.3550   15.5240   -0.1320 O   0  0  0  0  0  0  0  0  0  0  0  0
   -4.2210   13.7620   -1.4460 C   0  0  0  0  0  0  0  0  0  0  0  0
   -4.4100   15.2760    0.7860 C   0  0  0  0  0  0  0  0  0  0  0  0
  1  2  2  0
  2  3  2  0
  2  4  1  0
  2  5  1  0
  5  6  1  0
  4  7  1  0
  7  8  1  0
  6  9  1  0
  8 10  1  0
  9 11  1  0
  9 12  1  0
 11 13  1  0
 12 14  1  0
 15 10  1  1
 13 16  1  0
 14 16  1  0
 15 17  1  0
 15 18  1  0
 17 19  1  0
 18 20  1  0
 20 21  1  1
 19 22  1  0
 20 22  1  0
 22 23  1  1
 21 24  2  0
 21 25  1  0
 23 26  1  0
 23 27  2  0
 25 28  2  0
 24 29  1  0
 28 30  1  0
 28 31  1  0
 29 31  2  0
 30 32  1  0
M  END
