
     RDKit          3D

 14 14  0  0  0  0  0  0  0  0999 V2000
   13.0270   12.6020   12.5560 N   0  0  0  0  0  0  0  0  0  0  0  0
   15.0510   13.2450   13.8740 C   0  0  0  0  0  0  0  0  0  0  0  0
   11.4440   14.1700   13.5750 O   0  0  0  0  0  0  0  0  0  0  0  0
   14.1250   13.5940   12.7180 C   0  0  1  0  0  0  0  0  0  0  0  0
   17.2160   14.3160   11.3540 N   0  0  0  0  0  0  0  0  0  0  0  0
   10.6370   12.0770   12.5600 O   0  0  0  0  0  0  0  0  0  0  0  0
   14.8700   13.7150   11.3750 C   0  0  2  0  0  0  0  0  0  0  0  0
   15.7090   15.9060   11.8530 O   0  0  0  0  0  0  0  0  0  0  0  0
   15.3240   12.3330   10.8730 C   0  0  0  0  0  0  0  0  0  0  0  0
   14.1630   11.3440   10.7700 C   0  0  0  0  0  0  0  0  0  0  0  0
   13.4220   11.2500   12.0940 C   0  0  0  0  0  0  0  0  0  0  0  0
   11.7780   11.9650   14.8830 C   0  0  0  0  0  0  0  0  0  0  0  0
   15.9750   14.7390   11.5480 C   0  0  0  0  0  0  0  0  0  0  0  0
   11.6150   12.7710   13.3330 S   0  0  1  0  0  0  0  0  0  0  0  0
  1  4  1  0
  1 11  1  0
  1 14  1  0
  4  2  1  1
  4  7  1  0
 11 10  1  0
 14  3  2  0
 14  6  2  0
 14 12  1  1
  7  9  1  0
  7 13  1  1
  5 13  1  0
 13  8  2  0
  9 10  1  0
M  END
