
     RDKit          3D

 36 39  0  0  0  0  0  0  0  0999 V2000
   -2.7810   17.8940   -6.2670 P   0  0  0  0  0  0  0  0  0  0  0  0
   -1.1400   19.3850   -8.2120 P   0  0  0  0  0  0  0  0  0  0  0  0
   -0.5280   16.8300   -5.4320 C   0  0  0  0  0  0  0  0  0  0  0  0
   -1.8090   16.6510   -6.0280 O   0  0  0  0  0  0  0  0  0  0  0  0
   -0.2690   15.6860   -4.4530 C   0  0  1  0  0  0  0  0  0  0  0  0
   -0.9020   15.9570   -3.1950 O   0  0  0  0  0  0  0  0  0  0  0  0
   -0.8200   14.3260   -4.9130 C   0  0  1  0  0  0  0  0  0  0  0  0
    0.1610   13.3260   -4.6310 O   0  0  0  0  0  0  0  0  0  0  0  0
   -2.0560   14.1450   -4.0570 C   0  0  1  0  0  0  0  0  0  0  0  0
   -2.4410   12.7820   -3.9290 O   0  0  0  0  0  0  0  0  0  0  0  0
   -1.5320   14.7440   -2.7710 C   0  0  2  0  0  0  0  0  0  0  0  0
   -5.6900   22.0130   -7.3070 C   0  0  2  0  0  0  0  0  0  0  0  0
   -1.9450   15.6670    2.2200 N   0  0  0  0  0  0  0  0  0  0  0  0
   -3.3870   18.3740   -5.0040 O   0  0  0  0  0  0  0  0  0  0  0  0
   -0.9510   18.1290   -9.0260 O   0  0  0  0  0  0  0  0  0  0  0  0
   -6.9680   22.2110   -7.8840 O   0  0  0  0  0  0  0  0  0  0  0  0
   -0.8650   15.3850    1.4690 C   0  0  0  0  0  0  0  0  0  0  0  0
   -4.9220   23.3160   -7.2760 C   0  0  2  0  0  0  0  0  0  0  0  0
   -3.7530   17.4740   -7.3070 O   0  0  0  0  0  0  0  0  0  0  0  0
    0.0170   20.2710   -7.8770 O   0  0  0  0  0  0  0  0  0  0  0  0
   -5.7460   24.4490   -6.9820 O   0  0  0  0  0  0  0  0  0  0  0  0
   -4.3280   23.3540   -8.6650 C   0  0  2  0  0  0  0  0  0  0  0  0
   -0.9510   15.1850    0.1350 N   0  0  0  0  0  0  0  0  0  0  0  0
   -1.7690   19.0490   -6.7660 O   0  0  0  0  0  0  0  0  0  0  0  0
   -5.2930   23.7720   -9.6230 O   0  0  0  0  0  0  0  0  0  0  0  0
   -2.1550   15.2290   -0.4840 C   0  0  0  0  0  0  0  0  0  0  0  0
   -4.0010   21.9060   -8.9320 C   0  0  2  0  0  0  0  0  0  0  0  0
   -4.9330   21.1390   -8.1570 O   0  0  0  0  0  0  0  0  0  0  0  0
   -3.3740   15.5210    0.2500 C   0  0  0  0  0  0  0  0  0  0  0  0
   -2.5670   21.5850   -8.5360 C   0  0  0  0  0  0  0  0  0  0  0  0
   -2.3710   20.2150   -8.7990 O   0  0  0  0  0  0  0  0  0  0  0  0
   -3.2080   15.7500    1.6900 C   0  0  0  0  0  0  0  0  0  0  0  0
   -4.2920   16.0290    2.4480 N   0  0  0  0  0  0  0  0  0  0  0  0
   -4.3880   15.5060   -0.6400 N   0  0  0  0  0  0  0  0  0  0  0  0
   -3.8510   15.2120   -1.8340 C   0  0  0  0  0  0  0  0  0  0  0  0
   -2.5240   15.0360   -1.7240 N   0  0  0  0  0  0  0  0  0  0  0  0
  1  4  1  0
  1 14  2  0
  1 19  1  0
  1 24  1  0
  4  3  1  0
 24  2  1  0
  2 15  2  0
  2 20  1  0
  2 31  1  0
 31 30  1  0
  5  3  1  6
  5  6  1  0
  5  7  1  0
  6 11  1  0
  7  8  1  1
  7  9  1  0
 11  9  1  0
 11 36  1  1
  9 10  1  1
 36 26  1  0
 36 35  1  0
 12 16  1  6
 12 18  1  0
 12 28  1  0
 18 21  1  6
 18 22  1  0
 28 27  1  0
 13 17  2  0
 13 32  1  0
 17 23  1  0
 32 29  2  0
 32 33  1  0
 23 26  2  0
 22 25  1  6
 22 27  1  0
 27 30  1  1
 26 29  1  0
 29 34  1  0
 34 35  2  0
M  END
