mArh-5cb3_0_A-mArh-x0685_1_A
     RDKit          3D

 47 51  0  0  0  0  0  0  0  0999 V2000
   -1.5490   18.1060   -6.0370 P   0  0  1  0  0  0  0  0  0  0  0  0
   -0.8830   16.6750   -5.8040 O   0  0  0  0  0  0  0  0  0  0  0  0
    0.4540   16.4240   -5.4000 C   0  0  0  0  0  0  0  0  0  0  0  0
   -2.7770   17.8400   -7.0110 O   0  0  0  0  0  0  0  0  0  0  0  0
   -1.8940   18.6480   -4.5900 O   0  0  0  0  0  0  0  0  0  0  0  0
   -0.3940   19.0610   -6.4830 O   0  0  0  0  0  0  0  0  0  0  0  0
   -0.2200   19.8120   -7.8440 P   0  0  1  0  0  0  0  0  0  0  0  0
    0.8290   20.8580   -7.8370 O   0  0  0  0  0  0  0  0  0  0  0  0
    0.0660   18.6420   -8.8910 O   0  0  0  0  0  0  0  0  0  0  0  0
   -1.6420   20.3480   -8.3320 O   0  0  0  0  0  0  0  0  0  0  0  0
    0.2550   15.7030   -4.1030 C   0  0  1  0  0  0  0  0  0  0  0  0
   -1.9980   21.6810   -8.0110 C   0  0  0  0  0  0  0  0  0  0  0  0
   -1.1400   15.7830   -3.8190 O   0  0  0  0  0  0  0  0  0  0  0  0
    0.5160   14.1880   -3.8360 C   0  0  2  0  0  0  0  0  0  0  0  0
    1.4160   13.3640   -4.4570 O   0  0  0  0  0  0  0  0  0  0  0  0
   -0.8000   13.4560   -3.5970 C   0  0  1  0  0  0  0  0  0  0  0  0
   -1.2110   14.7220   -2.9030 C   0  0  2  0  0  0  0  0  0  0  0  0
   -3.3460   22.0410   -8.6300 C   0  0  2  0  0  0  0  0  0  0  0  0
   -1.4750   13.0080   -4.8110 O   0  0  0  0  0  0  0  0  0  0  0  0
    1.7760   12.3750   -3.2280 S   0  0  0  0  0  0  0  0  0  0  0  0
   -3.8250   23.4640   -8.3630 C   0  0  1  0  0  0  0  0  0  0  0  0
   -4.3420   21.2000   -8.0540 O   0  0  0  0  0  0  0  0  0  0  0  0
   -2.1910   14.8810   -1.9100 N   0  0  0  0  0  0  0  0  0  0  0  0
   -4.7030   24.0330   -9.3210 O   0  0  0  0  0  0  0  0  0  0  0  0
   -1.5040   11.5080   -4.8670 N   0  0  0  0  0  0  0  0  0  0  0  0
    3.1990   12.2170   -3.2110 O   0  0  0  0  0  0  0  0  0  0  0  0
    0.8320   11.2770   -3.1830 O   0  0  0  0  0  0  0  0  0  0  0  0
    1.3630   13.2520   -1.9440 O   0  0  0  0  0  0  0  0  0  0  0  0
   -5.2440   21.9690   -7.2560 C   0  0  2  0  0  0  0  0  0  0  0  0
   -4.5180   23.2780   -7.0180 C   0  0  2  0  0  0  0  0  0  0  0  0
   -1.8840   14.8180   -0.6000 C   0  0  0  0  0  0  0  0  0  0  0  0
   -3.5360   15.1400   -2.0680 C   0  0  0  0  0  0  0  0  0  0  0  0
   -5.4850   21.3670   -5.9870 O   0  0  0  0  0  0  0  0  0  0  0  0
   -5.4550   24.2910   -6.6650 O   0  0  0  0  0  0  0  0  0  0  0  0
   -3.2110   15.0960    0.0370 C   0  0  0  0  0  0  0  0  0  0  0  0
   -0.6940   14.5830   -0.0220 N   0  0  0  0  0  0  0  0  0  0  0  0
   -4.1780   15.2750   -0.9190 N   0  0  0  0  0  0  0  0  0  0  0  0
   -0.9100   10.9590   -6.1340 C   0  0  0  0  0  0  0  0  0  0  0  0
   -3.1190   15.1120    1.5330 C   0  0  0  0  0  0  0  0  0  0  0  0
   -0.7880   14.6100    1.3160 C   0  0  0  0  0  0  0  0  0  0  0  0
   -0.7340    9.4170   -6.1080 C   0  0  0  0  0  0  0  0  0  0  0  0
   -1.7200   11.3630   -7.3750 C   0  0  0  0  0  0  0  0  0  0  0  0
   -4.2130   15.3860    2.3380 N   0  0  0  0  0  0  0  0  0  0  0  0
   -1.8980   14.8490    2.0490 N   0  0  0  0  0  0  0  0  0  0  0  0
   -0.0920    8.8930   -7.4030 C   0  0  0  0  0  0  0  0  0  0  0  0
   -1.0850   10.8350   -8.6670 C   0  0  0  0  0  0  0  0  0  0  0  0
   -0.8930    9.3170   -8.6300 C   0  0  0  0  0  0  0  0  0  0  0  0
  1  2  1  0
  2  3  1  0
  1  4  2  0
  1  5  1  1
  1  6  1  0
  6  7  1  0
  7  8  2  0
  7  9  1  6
  7 10  1  0
 11  3  1  6
 10 12  1  0
 11 13  1  0
 11 14  1  0
 14 15  1  6
 14 16  1  0
 13 17  1  0
 16 17  1  0
 18 12  1  1
 16 19  1  6
 20 15  1  0
 18 21  1  0
 18 22  1  0
 17 23  1  6
 21 24  1  6
 19 25  1  0
 20 26  2  0
 20 27  2  0
 20 28  1  0
 22 29  1  0
 21 30  1  0
 29 30  1  0
 23 31  1  0
 23 32  1  0
 29 33  1  1
 30 34  1  6
 31 35  2  0
 31 36  1  0
 32 37  2  0
 35 37  1  0
 25 38  1  0
 35 39  1  0
 36 40  2  0
 38 41  1  0
 38 42  1  0
 39 43  1  0
 39 44  2  0
 40 44  1  0
 41 45  1  0
 42 46  1  0
 45 47  1  0
 46 47  1  0
M  END
