mArh-x0104_0_A-mArh-5dus_0_A
     RDKit          3D

 52 57  0  0  0  0  0  0  0  0999 V2000
   -6.8450   14.7840    2.7510 N   0  0  0  0  0  0  0  0  0  0  0  0
   -8.0600   15.1010    3.2760 C   0  0  0  0  0  0  0  0  0  0  0  0
   -8.1340   15.1690    4.6260 N   0  0  0  0  0  0  0  0  0  0  0  0
   -6.4210   14.3020    1.4410 C   0  0  2  0  0  0  0  0  0  0  0  0
   -8.9550   15.2920    2.4490 O   0  0  0  0  0  0  0  0  0  0  0  0
   -5.0350   14.8440    1.0350 C   0  0  0  0  0  0  0  0  0  0  0  0
   -7.4870   14.6270    0.4150 C   0  0  0  0  0  0  0  0  0  0  0  0
   -4.7280   14.7560   -0.4090 N   0  0  0  0  0  0  0  0  0  0  0  0
   -7.1660   15.1430   -0.7810 C   0  0  0  0  0  0  0  0  0  0  0  0
   -9.2880   15.1530    5.3870 C   0  0  0  0  0  0  0  0  0  0  0  0
   -5.7610   15.4390   -1.1820 C   0  0  2  0  0  0  0  0  0  0  0  0
   -9.3380   15.2040    6.7640 C   0  0  0  0  0  0  0  0  0  0  0  0
  -10.8420   15.0640    4.6960 S   0  0  0  0  0  0  0  0  0  0  0  0
   -3.3590   15.2480   -0.6680 N   0  0  0  0  0  0  0  0  0  0  0  0
   -5.5990   15.0560   -2.5310 O   0  0  0  0  0  0  0  0  0  0  0  0
  -11.5960   15.0900    6.2380 C   0  0  0  0  0  0  0  0  0  0  0  0
  -10.6740   15.1680    7.2590 C   0  0  0  0  0  0  0  0  0  0  0  0
   -2.4600   14.3160    0.0030 C   0  0  2  0  0  0  0  0  0  0  0  0
   -3.0450   14.9790   -2.0600 C   0  0  0  0  0  0  0  0  0  0  0  0
   -2.2320   14.5570    1.4470 C   0  0  2  0  0  0  0  0  0  0  0  0
   -1.1390   14.3400   -0.8250 C   0  0  1  0  0  0  0  0  0  0  0  0
   -1.7410   14.3420   -2.1350 N   0  0  0  0  0  0  0  0  0  0  0  0
   -3.3230   15.3190    2.0140 N   0  0  0  0  0  0  0  0  0  0  0  0
   -1.1240   14.7790   -3.3300 C   0  0  1  0  0  0  0  0  0  0  0  0
   -1.0360   15.2450    1.6650 N   0  0  0  0  0  0  0  0  0  0  0  0
   -0.1800   15.3050   -0.5010 N   0  0  0  0  0  0  0  0  0  0  0  0
    0.1090   15.4820   -3.2210 O   0  0  0  0  0  0  0  0  0  0  0  0
   -0.9500   13.7780   -4.4980 C   0  0  2  0  0  0  0  0  0  0  0  0
    0.1030   14.9700    0.8460 C   0  0  0  0  0  0  0  0  0  0  0  0
   -0.8970   12.3870   -4.2100 O   0  0  0  0  0  0  0  0  0  0  0  0
    0.1500   15.6940   -4.6250 C   0  0  2  0  0  0  0  0  0  0  0  0
    0.3030   14.3000   -5.1770 C   0  0  1  0  0  0  0  0  0  0  0  0
    0.7980   16.9340   -5.1620 C   0  0  0  0  0  0  0  0  0  0  0  0
    1.4190   13.4560   -4.8710 O   0  0  0  0  0  0  0  0  0  0  0  0
   -0.0350   17.4510   -6.1860 O   0  0  0  0  0  0  0  0  0  0  0  0
   -1.4320   18.2140   -5.9570 P   0  0  1  0  0  0  0  0  0  0  0  0
   -2.5810   17.5860   -6.6820 O   0  0  0  0  0  0  0  0  0  0  0  0
   -1.6750   18.3950   -4.4070 O   0  0  0  0  0  0  0  0  0  0  0  0
   -1.0320   19.6360   -6.4160 O   0  0  0  0  0  0  0  0  0  0  0  0
   -0.2360   19.9930   -7.7120 P   0  0  1  0  0  0  0  0  0  0  0  0
    1.0250   20.7810   -7.5610 O   0  0  0  0  0  0  0  0  0  0  0  0
   -0.0820   18.6510   -8.5890 O   0  0  0  0  0  0  0  0  0  0  0  0
   -1.3630   20.7600   -8.5270 O   0  0  0  0  0  0  0  0  0  0  0  0
   -1.8700   21.8990   -7.8350 C   0  0  0  0  0  0  0  0  0  0  0  0
   -3.3160   22.1530   -8.2360 C   0  0  2  0  0  0  0  0  0  0  0  0
   -3.8400   23.5630   -8.0010 C   0  0  1  0  0  0  0  0  0  0  0  0
   -4.1480   21.2740   -7.4560 O   0  0  0  0  0  0  0  0  0  0  0  0
   -4.6640   24.0770   -9.0610 O   0  0  0  0  0  0  0  0  0  0  0  0
   -5.1880   22.0310   -6.8620 C   0  0  2  0  0  0  0  0  0  0  0  0
   -4.5970   23.4100   -6.6870 C   0  0  2  0  0  0  0  0  0  0  0  0
   -5.6110   21.4930   -5.6260 O   0  0  0  0  0  0  0  0  0  0  0  0
   -5.5740   24.4160   -6.4450 O   0  0  0  0  0  0  0  0  0  0  0  0
  1  2  1  0
  2  3  1  0
  4  1  1  1
  2  5  2  0
  4  6  1  0
  4  7  1  0
  6  8  1  0
  7  9  2  0
  3 10  1  0
  8 11  1  0
  9 11  1  0
 10 12  2  0
 10 13  1  0
  8 14  1  0
 11 15  1  6
 13 16  1  0
 12 17  1  0
 16 17  2  0
 18 14  1  6
 14 19  1  0
 18 20  1  0
 18 21  1  0
 19 22  1  0
 21 22  1  0
 20 23  1  6
 24 22  1  1
 20 25  1  0
 21 26  1  1
 24 27  1  0
 24 28  1  0
 25 29  1  0
 26 29  1  0
 28 30  1  1
 27 31  1  0
 28 32  1  0
 31 32  1  0
 31 33  1  1
 32 34  1  1
 33 35  1  0
 35 36  1  0
 36 37  2  0
 36 38  1  1
 36 39  1  0
 39 40  1  0
 40 41  2  0
 40 42  1  6
 40 43  1  0
 43 44  1  0
 45 44  1  1
 45 46  1  0
 45 47  1  0
 46 48  1  6
 47 49  1  0
 46 50  1  0
 49 50  1  0
 49 51  1  1
 50 52  1  6
M  END
