
     RDKit          3D

 11 11  0  0  0  0  0  0  0  0999 V2000
   -0.8510   24.9080   15.0870 C   0  0  0  0  0  0  0  0  0  0  0  0
    0.1270   25.4600   14.2550 O   0  0  0  0  0  0  0  0  0  0  0  0
    1.0220   26.3540   14.8580 C   0  0  0  0  0  0  0  0  0  0  0  0
    0.5640   27.5520   15.3890 C   0  0  0  0  0  0  0  0  0  0  0  0
    1.4570   28.4330   15.9820 C   0  0  0  0  0  0  0  0  0  0  0  0
    2.8060   28.1200   16.0420 C   0  0  0  0  0  0  0  0  0  0  0  0
    3.2640   26.9250   15.5040 C   0  0  0  0  0  0  0  0  0  0  0  0
    2.3710   26.0430   14.9140 C   0  0  0  0  0  0  0  0  0  0  0  0
    3.7830   29.1020   16.6920 C   0  0  0  0  0  0  0  0  0  0  0  0
    4.9890   28.7810   16.8750 O   0  0  0  0  0  0  0  0  0  0  0  0
    3.3800   30.2460   17.0310 O   0  0  0  0  0  0  0  0  0  0  0  0
  1  2  1  0
  2  3  1  0
  3  4  2  0
  3  8  1  0
  4  5  1  0
  8  7  2  0
  5  6  2  0
  6  7  1  0
  6  9  1  0
  9 10  2  0
  9 11  1  0
M  END
