
     RDKit          3D

 13 14  0  0  0  0  0  0  0  0999 V2000
   -1.7980   26.7670   14.4230 C   0  0  0  0  0  0  0  0  0  0  0  0
   -0.3110   26.8880   14.7930 C   0  0  0  0  0  0  0  0  0  0  0  0
    0.5570   25.8090   14.6120 C   0  0  0  0  0  0  0  0  0  0  0  0
    1.9120   25.9160   14.9320 C   0  0  0  0  0  0  0  0  0  0  0  0
    2.3970   27.1260   15.4550 C   0  0  0  0  0  0  0  0  0  0  0  0
    3.6750   27.5550   15.8750 C   0  0  0  0  0  0  0  0  0  0  0  0
    3.5100   28.8690   16.2920 C   0  0  0  0  0  0  0  0  0  0  0  0
    2.2460   29.2200   16.1380 N   0  0  0  0  0  0  0  0  0  0  0  0
    1.5420   28.1950   15.6340 C   0  0  0  0  0  0  0  0  0  0  0  0
    0.1830   28.0850   15.2990 C   0  0  0  0  0  0  0  0  0  0  0  0
    4.6190   29.7710   16.8340 C   0  0  0  0  0  0  0  0  0  0  0  0
    4.3240   30.8700   17.3820 O   0  0  0  0  0  0  0  0  0  0  0  0
    5.8250   29.4200   16.7210 O   0  0  0  0  0  0  0  0  0  0  0  0
  1  2  1  0
  2  3  2  0
  2 10  1  0
  3  4  1  0
 10  9  2  0
  4  5  2  0
  5  6  1  0
  5  9  1  0
  6  7  2  0
  9  8  1  0
  7  8  1  0
  7 11  1  0
 11 12  2  0
 11 13  1  0
M  END
