
     RDKit          3D

 36 39  0  0  0  0  0  0  0  0999 V2000
   -1.9380   17.9010   -6.5800 P   0  0  0  0  0  0  0  0  0  0  0  0
   -0.2700   19.4490   -8.3540 P   0  0  0  0  0  0  0  0  0  0  0  0
    0.1880   16.6130   -5.6930 C   0  0  0  0  0  0  0  0  0  0  0  0
   -1.2460   16.7810   -5.6500 O   0  0  0  0  0  0  0  0  0  0  0  0
    0.6800   15.5060   -4.7550 C   0  0  1  0  0  0  0  0  0  0  0  0
    0.1840   15.6910   -3.4230 O   0  0  0  0  0  0  0  0  0  0  0  0
    0.1950   14.1280   -5.2050 C   0  0  1  0  0  0  0  0  0  0  0  0
    1.2070   13.1450   -4.9620 O   0  0  0  0  0  0  0  0  0  0  0  0
   -1.0240   13.8620   -4.3510 C   0  0  1  0  0  0  0  0  0  0  0  0
   -1.2540   12.4600   -4.1730 O   0  0  0  0  0  0  0  0  0  0  0  0
   -0.6030   14.5450   -3.0500 C   0  0  2  0  0  0  0  0  0  0  0  0
   -3.5680   22.6950  -11.7770 C   0  0  1  0  0  0  0  0  0  0  0  0
   -1.8710   15.2090    1.9520 N   0  0  0  0  0  0  0  0  0  0  0  0
   -2.4070   17.2320   -7.8240 O   0  0  0  0  0  0  0  0  0  0  0  0
    0.6810   20.6300   -8.1880 O   0  0  0  0  0  0  0  0  0  0  0  0
   -4.9730   22.4160  -11.8830 O   0  0  0  0  0  0  0  0  0  0  0  0
   -0.6530   14.9930    1.3650 C   0  0  0  0  0  0  0  0  0  0  0  0
   -3.2410   23.8270  -10.8120 C   0  0  2  0  0  0  0  0  0  0  0  0
   -3.0100   18.6800   -5.8540 O   0  0  0  0  0  0  0  0  0  0  0  0
    0.1960   18.2290   -9.1400 O   0  0  0  0  0  0  0  0  0  0  0  0
   -3.3580   25.0730  -11.5090 O   0  0  0  0  0  0  0  0  0  0  0  0
   -1.8130   23.5190  -10.3480 C   0  0  2  0  0  0  0  0  0  0  0  0
   -0.4980   14.8350    0.0290 N   0  0  0  0  0  0  0  0  0  0  0  0
   -0.6960   18.8970   -6.8960 O   0  0  0  0  0  0  0  0  0  0  0  0
   -0.7860   24.0420  -11.2040 O   0  0  0  0  0  0  0  0  0  0  0  0
   -1.5830   14.8980   -0.7990 C   0  0  0  0  0  0  0  0  0  0  0  0
   -1.7610   22.0050  -10.3890 C   0  0  2  0  0  0  0  0  0  0  0  0
   -2.8110   21.5730  -11.2920 O   0  0  0  0  0  0  0  0  0  0  0  0
   -2.9300   15.1160   -0.2390 C   0  0  0  0  0  0  0  0  0  0  0  0
   -1.9240   21.4300   -8.9810 C   0  0  0  0  0  0  0  0  0  0  0  0
   -1.6750   20.0230   -8.9280 O   0  0  0  0  0  0  0  0  0  0  0  0
   -3.0290   15.2780    1.2350 C   0  0  0  0  0  0  0  0  0  0  0  0
   -4.2340   15.4930    1.8190 N   0  0  0  0  0  0  0  0  0  0  0  0
   -3.7920   15.1270   -1.2710 N   0  0  0  0  0  0  0  0  0  0  0  0
   -3.0670   14.9350   -2.4070 C   0  0  0  0  0  0  0  0  0  0  0  0
   -1.7460   14.8150   -2.1180 N   0  0  0  0  0  0  0  0  0  0  0  0
  1  4  1  0
  1 14  2  0
  1 19  1  0
  1 24  1  0
  4  3  1  0
 24  2  1  0
  2 15  2  0
  2 20  1  0
  2 31  1  0
 31 30  1  0
  5  3  1  6
  5  6  1  0
  5  7  1  0
  6 11  1  0
  7  8  1  1
  7  9  1  0
 11  9  1  0
 11 36  1  6
  9 10  1  1
 36 26  1  0
 36 35  1  0
 12 16  1  1
 12 18  1  0
 12 28  1  0
 18 21  1  6
 18 22  1  0
 28 27  1  0
 13 17  2  0
 13 32  1  0
 17 23  1  0
 32 29  2  0
 32 33  1  0
 23 26  2  0
 22 25  1  6
 22 27  1  0
 27 30  1  1
 26 29  1  0
 29 34  1  0
 34 35  2  0
M  END
