mArh-6ywk_E_2_E-mArh-4gvw_0_A
     RDKit          3D

 15 15  0  0  0  0  0  0  0  0999 V2000
    1.1520   20.8020   -7.6180 O   0  0  0  0  0  0  0  0  0  0  0  0
    0.1110   19.8170   -7.3720 S   0  0  0  0  0  0  0  0  0  0  0  0
    0.2630   18.8750   -6.2920 O   0  0  0  0  0  0  0  0  0  0  0  0
   -0.0100   18.8440   -8.6650 O   0  0  0  0  0  0  0  0  0  0  0  0
   -1.5120   20.6020   -7.2590 C   0  0  0  0  0  0  0  0  0  0  0  0
   -1.5120   21.9260   -8.0020 C   0  0  0  0  0  0  0  0  0  0  0  0
   -2.7950   22.6720   -8.2000 N   0  0  0  0  0  0  0  0  0  0  0  0
   -3.0420   23.7460   -7.2620 C   0  0  0  0  0  0  0  0  0  0  0  0
   -4.0090   21.9630   -8.6240 C   0  0  0  0  0  0  0  0  0  0  0  0
   -4.0750   23.4260   -6.2000 C   0  0  0  0  0  0  0  0  0  0  0  0
   -5.0630   21.7910   -7.5090 C   0  0  0  0  0  0  0  0  0  0  0  0
   -5.3360   23.0080   -6.8130 N   0  0  0  0  0  0  0  0  0  0  0  0
   -5.6510   24.0550   -7.7560 C   0  0  0  0  0  0  0  0  0  0  0  0
   -6.8160   23.8960   -8.7530 C   0  0  0  0  0  0  0  0  0  0  0  0
   -7.1120   22.5310   -9.0500 O   0  0  0  0  0  0  0  0  0  0  0  0
  1  2  2  0
  2  3  2  0
  2  4  1  0
  2  5  1  0
  5  6  1  0
  6  7  1  0
  7  8  1  0
  7  9  1  0
  8 10  1  0
  9 11  1  0
 10 12  1  0
 11 12  1  0
 12 13  1  0
 13 14  1  0
 14 15  1  0
M  END
