mArh-3gqe_A_0_A-mArh-x0852_0_B
     RDKit          3D

 27 27  0  0  0  0  0  0  0  0999 V2000
   -4.1670   21.2430   -7.0850 C   0  0  0  0  0  0  0  0  0  0  0  0
   -2.6950   21.3950   -6.9980 N   0  0  0  0  0  0  0  0  0  0  0  0
   -2.1910   22.3140   -8.0100 C   0  0  0  0  0  0  0  0  0  0  0  0
   -4.8510   21.2340   -5.7370 C   0  0  0  0  0  0  0  0  0  0  0  0
   -1.9520   20.1120   -7.0140 C   0  0  0  0  0  0  0  0  0  0  0  0
   -6.1510   21.1450   -5.4750 N   0  0  0  0  0  0  0  0  0  0  0  0
   -3.9750   21.3020   -4.6920 O   0  0  0  0  0  0  0  0  0  0  0  0
   -2.7760   23.7240   -7.9240 C   0  0  0  0  0  0  0  0  0  0  0  0
   -0.6840   20.0400   -7.8960 C   0  0  0  0  0  0  0  0  0  0  0  0
   -6.7090   21.1020   -4.0450 C   0  0  0  0  0  0  0  0  0  0  0  0
   -3.9590   23.8530   -8.7270 O   0  0  0  0  0  0  0  0  0  0  0  0
   -0.6290   18.7850   -8.5670 O   0  0  0  0  0  0  0  0  0  0  0  0
   -8.2830   19.4100   -2.8550 C   0  0  0  0  0  0  0  0  0  0  0  0
   -8.6930   17.9010   -2.2570 C   0  0  0  0  0  0  0  0  0  0  0  0
   -9.6250   17.6930   -1.0460 C   0  0  0  0  0  0  0  0  0  0  0  0
   -9.4200   16.2960   -0.4530 C   0  0  0  0  0  0  0  0  0  0  0  0
  -10.3690   15.9560    0.6980 C   0  0  0  0  0  0  0  0  0  0  0  0
  -10.2190   16.8450    1.8050 O   0  0  0  0  0  0  0  0  0  0  0  0
   -9.5110   16.4260    2.8980 C   0  0  0  0  0  0  0  0  0  0  0  0
   -8.5300   15.4370    2.9070 C   0  0  0  0  0  0  0  0  0  0  0  0
   -9.8320   17.0820    4.0940 C   0  0  0  0  0  0  0  0  0  0  0  0
   -7.8750   15.1070    4.0930 C   0  0  0  0  0  0  0  0  0  0  0  0
   -9.1800   16.7510    5.2910 C   0  0  0  0  0  0  0  0  0  0  0  0
   -9.5440   17.4410    6.4930 C   0  0  0  0  0  0  0  0  0  0  0  0
   -8.1930   15.7540    5.2780 C   0  0  0  0  0  0  0  0  0  0  0  0
   -9.8590   17.9530    7.4910 N   0  0  0  0  0  0  0  0  0  0  0  0
   -7.4810   15.3340    6.3690 O   0  0  0  0  0  0  0  0  0  0  0  0
  1  2  1  0
  2  3  1  0
  1  4  1  0
  2  5  1  0
  4  6  2  3
  4  7  1  0
  3  8  1  0
  5  9  1  0
  6 10  1  0
  8 11  1  0
  9 12  1  0
 10 13  1  0
 13 14  1  0
 14 15  1  0
 15 16  1  0
 16 17  1  0
 17 18  1  0
 18 19  1  0
 19 20  2  0
 19 21  1  0
 20 22  1  0
 21 23  2  0
 23 24  1  0
 22 25  2  0
 23 25  1  0
 24 26  3  0
 25 27  1  0
M  END
