
     RDKit          3D

 14 14  0  0  0  0  0  0  0  0999 V2000
    0.6350   11.8610   -5.4900 N   0  0  0  0  0  0  0  0  0  0  0  0
   -2.1490    8.1670   -7.7080 C   0  0  0  0  0  0  0  0  0  0  0  0
    2.2700   12.2930   -6.9720 O   0  0  0  0  0  0  0  0  0  0  0  0
   -1.0170    9.0590   -8.1380 C   0  0  0  0  0  0  0  0  0  0  0  0
    1.3010   12.8300   -2.0520 O   0  0  0  0  0  0  0  0  0  0  0  0
   -0.6440    9.1460   -9.4730 C   0  0  0  0  0  0  0  0  0  0  0  0
    0.2460   11.1150   -2.9510 O   0  0  0  0  0  0  0  0  0  0  0  0
    0.3650   10.0050   -9.8790 C   0  0  0  0  0  0  0  0  0  0  0  0
    1.0170   10.7850   -8.9450 C   0  0  0  0  0  0  0  0  0  0  0  0
    0.6430   10.7290   -7.6140 C   0  0  0  0  0  0  0  0  0  0  0  0
   -0.3560    9.8530   -7.2180 C   0  0  0  0  0  0  0  0  0  0  0  0
    1.2600   11.6820   -6.6550 C   0  0  0  0  0  0  0  0  0  0  0  0
    1.2000   12.6960   -4.4510 C   0  0  0  0  0  0  0  0  0  0  0  0
    0.9390   12.2170   -3.0410 C   0  0  0  0  0  0  0  0  0  0  0  0
  1 12  1  0
  1 13  1  0
 12  3  2  0
 12 10  1  0
 13 14  1  0
  2  4  1  0
  4  6  2  0
  4 11  1  0
  6  8  1  0
 11 10  2  0
  5 14  2  0
 14  7  1  0
  8  9  2  0
  9 10  1  0
M  END
