mArh-x0282_0_A-mArh-1hjz_B_0_B
     RDKit          3D

 31 33  0  0  0  0  0  0  0  0999 V2000
   -7.6080   14.4100    1.0610 C   0  0  0  0  0  0  0  0  0  0  0  0
   -8.4400   14.6370   -0.0640 O   0  0  0  0  0  0  0  0  0  0  0  0
   -6.1200   14.3650    0.6830 C   0  0  0  0  0  0  0  0  0  0  0  0
   -5.2060   15.1580    1.5760 C   0  0  0  0  0  0  0  0  0  0  0  0
   -5.7670   14.8140   -0.7320 C   0  0  0  0  0  0  0  0  0  0  0  0
   -3.8780   14.4840    1.4990 C   0  0  0  0  0  0  0  0  0  0  0  0
   -4.2500   14.6430   -0.9890 C   0  0  0  0  0  0  0  0  0  0  0  0
   -3.4100   14.8070    0.2110 N   0  0  0  0  0  0  0  0  0  0  0  0
   -2.0840   14.7530    0.1010 C   0  0  0  0  0  0  0  0  0  0  0  0
   -1.6180   14.7740   -1.1550 N   0  0  0  0  0  0  0  0  0  0  0  0
   -1.3660   14.6760    1.2580 N   0  0  0  0  0  0  0  0  0  0  0  0
   -0.3160   14.7190   -1.3760 C   0  0  0  0  0  0  0  0  0  0  0  0
   -0.0450   14.6200    1.1330 C   0  0  0  0  0  0  0  0  0  0  0  0
    0.1600   14.7430   -2.7950 C   0  0  0  0  0  0  0  0  0  0  0  0
    0.6390   14.6390   -0.2240 C   0  0  0  0  0  0  0  0  0  0  0  0
   -0.3490   15.9630   -3.5540 C   0  0  0  0  0  0  0  0  0  0  0  0
    0.7200   16.4950   -4.5070 C   0  0  0  0  0  0  0  0  0  0  0  0
    0.7240   18.0140   -4.5190 C   0  0  0  0  0  0  0  0  0  0  0  0
    0.9450   18.5270   -5.9390 C   0  0  0  0  0  0  0  0  0  0  0  0
   -0.1360   19.3580   -6.3410 O   0  0  0  0  0  0  0  0  0  0  0  0
   -0.0360   19.9920   -7.8290 S   0  0  0  0  0  0  0  0  0  0  0  0
    0.8730   21.1200   -7.7510 O   0  0  0  0  0  0  0  0  0  0  0  0
    0.1960   18.8680   -8.7290 O   0  0  0  0  0  0  0  0  0  0  0  0
   -1.7130   20.5430   -8.0380 C   0  0  0  0  0  0  0  0  0  0  0  0
   -2.0700   21.7760   -7.2470 C   0  0  0  0  0  0  0  0  0  0  0  0
   -3.4560   22.2400   -7.4790 N   0  0  0  0  0  0  0  0  0  0  0  0
   -3.7040   22.6690   -8.8630 C   0  0  0  0  0  0  0  0  0  0  0  0
   -3.7990   23.3680   -6.6020 C   0  0  0  0  0  0  0  0  0  0  0  0
   -5.0350   23.0500   -9.1020 C   0  0  0  0  0  0  0  0  0  0  0  0
   -5.1900   23.8940   -6.9070 C   0  0  0  0  0  0  0  0  0  0  0  0
   -5.4000   24.1690   -8.2950 O   0  0  0  0  0  0  0  0  0  0  0  0
  1  2  1  0
  1  3  1  0
  3  4  1  0
  3  5  1  0
  4  6  1  0
  5  7  1  0
  6  8  1  0
  7  8  1  0
  8  9  1  0
  9 10  2  0
  9 11  1  0
 10 12  1  0
 11 13  2  0
 12 14  1  0
 12 15  2  0
 13 15  1  0
 14 16  1  0
 16 17  1  0
 17 18  1  0
 18 19  1  0
 19 20  1  0
 21 20  1  0
 21 22  2  0
 21 23  2  0
 21 24  1  0
 24 25  1  0
 25 26  1  0
 26 27  1  0
 26 28  1  0
 27 29  1  0
 28 30  1  0
 29 31  1  0
 30 31  1  0
M  END
