mArh-5cb5_B_0_B-mArh-5cb5_C_0_C
     RDKit          3D

 36 39  0  0  0  0  0  0  0  0999 V2000
   -1.6090   18.3190   -6.1500 P   0  0  1  0  0  0  0  0  0  0  0  0
   -0.3580   17.3850   -6.3510 O   0  0  0  0  0  0  0  0  0  0  0  0
    0.4540   16.8680   -5.3310 C   0  0  0  0  0  0  0  0  0  0  0  0
   -2.8180   17.8980   -6.9040 O   0  0  0  0  0  0  0  0  0  0  0  0
   -1.8600   18.3330   -4.5820 O   0  0  0  0  0  0  0  0  0  0  0  0
   -1.0770   19.7490   -6.4450 O   0  0  0  0  0  0  0  0  0  0  0  0
   -0.3770   20.0200   -7.8230 P   0  0  1  0  0  0  0  0  0  0  0  0
    0.7620   20.9720   -7.8300 O   0  0  0  0  0  0  0  0  0  0  0  0
    0.0430   18.6010   -8.4570 O   0  0  0  0  0  0  0  0  0  0  0  0
   -1.6170   20.3540   -8.7220 O   0  0  0  0  0  0  0  0  0  0  0  0
   -0.2460   15.6890   -4.6960 C   0  0  2  0  0  0  0  0  0  0  0  0
   -2.0690   21.6570   -8.9610 C   0  0  0  0  0  0  0  0  0  0  0  0
    0.0610   15.6430   -3.3040 O   0  0  0  0  0  0  0  0  0  0  0  0
    0.0450   14.2750   -5.1950 C   0  0  1  0  0  0  0  0  0  0  0  0
    1.4120   13.8840   -5.3210 O   0  0  0  0  0  0  0  0  0  0  0  0
   -0.5570   13.4730   -4.0480 C   0  0  1  0  0  0  0  0  0  0  0  0
   -0.4610   14.3780   -2.8210 C   0  0  2  0  0  0  0  0  0  0  0  0
   -3.1070   22.1040   -7.9580 C   0  0  1  0  0  0  0  0  0  0  0  0
   -1.7910   12.9560   -4.4910 O   0  0  0  0  0  0  0  0  0  0  0  0
   -3.7040   23.4550   -8.2500 C   0  0  1  0  0  0  0  0  0  0  0  0
   -4.2530   21.2290   -7.9540 O   0  0  0  0  0  0  0  0  0  0  0  0
   -1.5870   14.6740   -1.9830 N   0  0  0  0  0  0  0  0  0  0  0  0
   -4.2610   23.5900   -9.5580 O   0  0  0  0  0  0  0  0  0  0  0  0
   -5.3110   21.9970   -7.3370 C   0  0  2  0  0  0  0  0  0  0  0  0
   -4.7550   23.4230   -7.1730 C   0  0  2  0  0  0  0  0  0  0  0  0
   -1.5660   14.7110   -0.6730 C   0  0  0  0  0  0  0  0  0  0  0  0
   -2.9080   14.9930   -2.2750 C   0  0  0  0  0  0  0  0  0  0  0  0
   -5.6770   21.4450   -6.0580 O   0  0  0  0  0  0  0  0  0  0  0  0
   -5.8040   24.3480   -7.3320 O   0  0  0  0  0  0  0  0  0  0  0  0
   -2.7740   15.0420   -0.0950 C   0  0  0  0  0  0  0  0  0  0  0  0
   -0.4170   14.4430   -0.0260 N   0  0  0  0  0  0  0  0  0  0  0  0
   -3.6460   15.2210   -1.1610 N   0  0  0  0  0  0  0  0  0  0  0  0
   -2.8530   15.1260    1.2840 C   0  0  0  0  0  0  0  0  0  0  0  0
   -0.5300   14.5150    1.3030 C   0  0  0  0  0  0  0  0  0  0  0  0
   -3.9960   15.4780    1.9750 N   0  0  0  0  0  0  0  0  0  0  0  0
   -1.6130   14.8190    2.0250 N   0  0  0  0  0  0  0  0  0  0  0  0
  1  2  1  0
  2  3  1  0
  1  4  2  0
  1  5  1  1
  1  6  1  0
  6  7  1  0
  7  8  2  0
  7  9  1  6
  7 10  1  0
 11  3  1  6
 10 12  1  0
 11 13  1  0
 11 14  1  0
 14 15  1  1
 14 16  1  0
 13 17  1  0
 16 17  1  0
 18 12  1  6
 16 19  1  6
 18 20  1  0
 18 21  1  0
 17 22  1  6
 20 23  1  6
 21 24  1  0
 20 25  1  0
 24 25  1  0
 22 26  1  0
 22 27  1  0
 24 28  1  1
 25 29  1  6
 26 30  2  0
 26 31  1  0
 27 32  2  0
 30 32  1  0
 30 33  1  0
 31 34  2  0
 33 35  1  0
 33 36  2  0
 34 36  1  0
M  END
