mArh-6woj_D_0_D-mArh-x0852_0_B
     RDKit          3D

 50 54  0  0  0  0  0  0  0  0999 V2000
   -1.2010   18.2570   -5.8060 P   0  0  2  0  0  0  0  0  0  0  0  0
    0.0160   17.2840   -6.2030 O   0  0  0  0  0  0  0  0  0  0  0  0
    0.9200   16.7920   -5.2090 C   0  0  0  0  0  0  0  0  0  0  0  0
   -1.5670   18.2110   -4.3800 O   0  0  0  0  0  0  0  0  0  0  0  0
   -2.3770   17.8070   -6.8030 O   0  0  0  0  0  0  0  0  0  0  0  0
   -0.6860   19.5960   -6.3710 O   0  0  0  0  0  0  0  0  0  0  0  0
   -0.0890   20.0080   -7.7470 P   0  0  1  0  0  0  0  0  0  0  0  0
    1.1650   20.8230   -7.5920 O   0  0  0  0  0  0  0  0  0  0  0  0
    0.1130   18.7140   -8.6780 O   0  0  0  0  0  0  0  0  0  0  0  0
   -1.2220   20.8060   -8.4770 O   0  0  0  0  0  0  0  0  0  0  0  0
    0.1690   15.6310   -4.6330 C   0  0  2  0  0  0  0  0  0  0  0  0
   -1.7280   21.9140   -7.8000 C   0  0  0  0  0  0  0  0  0  0  0  0
    0.2060   15.4910   -3.2200 O   0  0  0  0  0  0  0  0  0  0  0  0
    0.4040   14.2090   -5.1350 C   0  0  1  0  0  0  0  0  0  0  0  0
    1.6470   13.6350   -4.7090 O   0  0  0  0  0  0  0  0  0  0  0  0
   -0.7380   13.5690   -4.3420 C   0  0  2  0  0  0  0  0  0  0  0  0
   -0.9680   14.6990   -3.2950 C   0  0  1  0  0  0  0  0  0  0  0  0
   -3.1560   22.2060   -8.1870 C   0  0  2  0  0  0  0  0  0  0  0  0
   -0.3420   12.2960   -3.8680 O   0  0  0  0  0  0  0  0  0  0  0  0
   -3.6820   23.6120   -7.9320 C   0  0  1  0  0  0  0  0  0  0  0  0
   -3.9970   21.2970   -7.4440 O   0  0  0  0  0  0  0  0  0  0  0  0
   -1.7440   14.5790   -2.0910 N   0  0  0  0  0  0  0  0  0  0  0  0
   -4.5170   24.1280   -8.9580 O   0  0  0  0  0  0  0  0  0  0  0  0
   -5.0330   22.0600   -6.8460 C   0  0  2  0  0  0  0  0  0  0  0  0
   -4.4030   23.4170   -6.6070 C   0  0  2  0  0  0  0  0  0  0  0  0
   -1.4170   14.5240   -0.7560 C   0  0  0  0  0  0  0  0  0  0  0  0
   -3.1080   14.5180   -2.1870 C   0  0  0  0  0  0  0  0  0  0  0  0
   -5.4050   21.4780   -5.6100 O   0  0  0  0  0  0  0  0  0  0  0  0
   -5.3740   24.4180   -6.3000 O   0  0  0  0  0  0  0  0  0  0  0  0
   -2.6550   14.4330   -0.1230 C   0  0  0  0  0  0  0  0  0  0  0  0
   -0.2170   14.5530   -0.1480 N   0  0  0  0  0  0  0  0  0  0  0  0
   -3.6910   14.4280   -1.0250 N   0  0  0  0  0  0  0  0  0  0  0  0
   -2.6720   14.3620    1.2790 C   0  0  0  0  0  0  0  0  0  0  0  0
   -0.3720   14.4900    1.1940 C   0  0  0  0  0  0  0  0  0  0  0  0
   -3.8480   14.2480    1.9970 N   0  0  0  0  0  0  0  0  0  0  0  0
   -1.4960   14.3990    1.9130 N   0  0  0  0  0  0  0  0  0  0  0  0
   -4.7690   15.3190    2.2680 C   0  0  0  0  0  0  0  0  0  0  0  0
   -5.2780   15.2710    3.7100 C   0  0  0  0  0  0  0  0  0  0  0  0
   -6.2930   14.1650    3.9590 C   0  0  0  0  0  0  0  0  0  0  0  0
   -6.6340   13.9850    5.4540 C   0  0  0  0  0  0  0  0  0  0  0  0
   -7.7630   14.7620    5.8810 O   0  0  0  0  0  0  0  0  0  0  0  0
   -8.4390   15.3490    4.8630 C   0  0  0  0  0  0  0  0  0  0  0  0
   -8.3370   14.6650    3.6470 C   0  0  0  0  0  0  0  0  0  0  0  0
   -9.1910   16.5220    4.9420 C   0  0  0  0  0  0  0  0  0  0  0  0
   -9.3670   17.2680    6.1530 C   0  0  0  0  0  0  0  0  0  0  0  0
   -8.9680   15.1340    2.5070 C   0  0  0  0  0  0  0  0  0  0  0  0
   -9.8180   16.9970    3.7890 C   0  0  0  0  0  0  0  0  0  0  0  0
   -9.5940   17.8270    7.1490 N   0  0  0  0  0  0  0  0  0  0  0  0
   -9.7100   16.3000    2.5730 C   0  0  0  0  0  0  0  0  0  0  0  0
  -10.5620   16.9100    0.9960 Br  0  0  0  0  0  0  0  0  0  0  0  0
  1  2  1  0
  2  3  1  0
  1  4  2  0
  1  5  1  6
  1  6  1  0
  6  7  1  0
  7  8  2  0
  7  9  1  6
  7 10  1  0
 11  3  1  6
 10 12  1  0
 11 13  1  0
 11 14  1  0
 14 15  1  1
 14 16  1  0
 13 17  1  0
 16 17  1  0
 18 12  1  1
 16 19  1  1
 18 20  1  0
 18 21  1  0
 17 22  1  1
 20 23  1  6
 21 24  1  0
 20 25  1  0
 24 25  1  0
 22 26  1  0
 22 27  1  0
 24 28  1  1
 25 29  1  6
 26 30  2  0
 26 31  1  0
 27 32  2  0
 30 32  1  0
 30 33  1  0
 31 34  2  0
 33 35  1  0
 33 36  2  0
 34 36  1  0
 35 37  1  0
 37 38  1  0
 38 39  1  0
 39 40  1  0
 40 41  1  0
 41 42  1  0
 42 43  2  0
 42 44  1  0
 44 45  1  0
 43 46  1  0
 44 47  2  0
 45 48  3  0
 46 49  2  0
 47 49  1  0
 49 50  1  0
M  END
