mArh-5cms_K_10_K-mArh-5cms_B_1_B
     RDKit          3D

 36 39  0  0  0  0  0  0  0  0999 V2000
   -1.4480   18.1180   -6.2020 P   0  0  1  0  0  0  0  0  0  0  0  0
    0.0160   17.4540   -6.3330 O   0  0  0  0  0  0  0  0  0  0  0  0
    0.7100   16.7010   -5.3380 C   0  0  0  0  0  0  0  0  0  0  0  0
   -2.5690   17.3690   -6.8230 O   0  0  0  0  0  0  0  0  0  0  0  0
   -1.6840   18.4410   -4.6640 O   0  0  0  0  0  0  0  0  0  0  0  0
   -1.2610   19.5650   -6.7620 O   0  0  0  0  0  0  0  0  0  0  0  0
   -0.3220   19.8720   -7.9950 P   0  0  1  0  0  0  0  0  0  0  0  0
    0.8410   20.7570   -7.7360 O   0  0  0  0  0  0  0  0  0  0  0  0
    0.0320   18.4840   -8.7120 O   0  0  0  0  0  0  0  0  0  0  0  0
   -1.3780   20.4390   -9.0440 O   0  0  0  0  0  0  0  0  0  0  0  0
   -0.1310   15.5490   -4.8230 C   0  0  2  0  0  0  0  0  0  0  0  0
   -2.0310   21.6090   -8.6320 C   0  0  0  0  0  0  0  0  0  0  0  0
   -0.1610   15.5070   -3.4110 O   0  0  0  0  0  0  0  0  0  0  0  0
    0.0520   14.0590   -5.1860 C   0  0  1  0  0  0  0  0  0  0  0  0
    1.3340   13.5390   -4.8030 O   0  0  0  0  0  0  0  0  0  0  0  0
   -1.0210   13.4440   -4.2480 C   0  0  2  0  0  0  0  0  0  0  0  0
   -1.3190   14.7000   -3.4040 C   0  0  1  0  0  0  0  0  0  0  0  0
   -3.2780   21.9770   -9.4430 C   0  0  1  0  0  0  0  0  0  0  0  0
   -0.5540   12.3120   -3.5420 O   0  0  0  0  0  0  0  0  0  0  0  0
   -3.4830   23.4680   -9.3340 C   0  0  1  0  0  0  0  0  0  0  0  0
   -3.2760   21.7070  -10.8510 O   0  0  0  0  0  0  0  0  0  0  0  0
   -2.0910   14.8210   -2.1980 N   0  0  0  0  0  0  0  0  0  0  0  0
   -2.2690   24.1060   -9.0760 O   0  0  0  0  0  0  0  0  0  0  0  0
   -4.2060   22.6160  -11.4690 C   0  0  2  0  0  0  0  0  0  0  0  0
   -4.2330   23.8750  -10.6190 C   0  0  2  0  0  0  0  0  0  0  0  0
   -1.7720   14.7570   -0.8600 C   0  0  0  0  0  0  0  0  0  0  0  0
   -3.4300   15.0860   -2.2940 C   0  0  0  0  0  0  0  0  0  0  0  0
   -5.5210   22.1180  -11.5140 O   0  0  0  0  0  0  0  0  0  0  0  0
   -3.6190   24.9790  -11.3180 O   0  0  0  0  0  0  0  0  0  0  0  0
   -2.9880   15.0220   -0.2360 C   0  0  0  0  0  0  0  0  0  0  0  0
   -0.5960   14.5240   -0.2440 N   0  0  0  0  0  0  0  0  0  0  0  0
   -4.0050   15.2140   -1.1360 N   0  0  0  0  0  0  0  0  0  0  0  0
   -3.0010   15.0620    1.1480 C   0  0  0  0  0  0  0  0  0  0  0  0
   -0.7340   14.5720    1.0990 C   0  0  0  0  0  0  0  0  0  0  0  0
   -4.1690   15.3570    1.8300 N   0  0  0  0  0  0  0  0  0  0  0  0
   -1.8530   14.8190    1.8230 N   0  0  0  0  0  0  0  0  0  0  0  0
  1  2  1  0
  2  3  1  0
  1  4  2  0
  1  5  1  1
  1  6  1  0
  6  7  1  0
  7  8  2  0
  7  9  1  6
  7 10  1  0
 11  3  1  1
 10 12  1  0
 11 13  1  0
 11 14  1  0
 14 15  1  1
 14 16  1  0
 13 17  1  0
 16 17  1  0
 18 12  1  6
 16 19  1  1
 18 20  1  0
 18 21  1  0
 17 22  1  1
 20 23  1  6
 21 24  1  0
 20 25  1  0
 24 25  1  0
 22 26  1  0
 22 27  1  0
 24 28  1  1
 25 29  1  6
 26 30  2  0
 26 31  1  0
 27 32  2  0
 30 32  1  0
 30 33  1  0
 31 34  2  0
 33 35  1  0
 33 36  2  0
 34 36  1  0
M  END
