mArh-x1012_0_A-mArh-x0895_0_A
     RDKit          3D

 21 22  0  0  0  0  0  0  0  0999 V2000
   -0.7850   17.9810   -5.0210 N   0  0  0  0  0  0  0  0  0  0  0  0
   -1.4170   16.8000   -4.7840 C   0  0  0  0  0  0  0  0  0  0  0  0
   -2.6500   16.8320   -4.4470 N   0  0  0  0  0  0  0  0  0  0  0  0
   -0.6010   15.7150   -4.9400 N   0  0  0  0  0  0  0  0  0  0  0  0
   -3.3340   15.5380   -4.1820 C   0  0  0  0  0  0  0  0  0  0  0  0
   -1.1650   14.3880   -5.1870 C   0  0  0  0  0  0  0  0  0  0  0  0
    0.7940   15.7490   -4.4950 C   0  0  0  0  0  0  0  0  0  0  0  0
   -3.0640   14.9730   -2.7700 C   0  0  0  0  0  0  0  0  0  0  0  0
   -1.0450   13.4920   -3.9730 C   0  0  0  0  0  0  0  0  0  0  0  0
    1.0520   14.7430   -3.3590 C   0  0  0  0  0  0  0  0  0  0  0  0
   -4.1750   15.2170   -1.8290 N   0  0  0  0  0  0  0  0  0  0  0  0
    0.4220   13.3520   -3.5900 C   0  0  0  0  0  0  0  0  0  0  0  0
    0.5040   12.4500   -2.3830 C   0  0  0  0  0  0  0  0  0  0  0  0
   -3.9290   15.0750   -0.5840 C   0  0  0  0  0  0  0  0  0  0  0  0
    0.4230   11.1470   -2.7140 O   0  0  0  0  0  0  0  0  0  0  0  0
    0.6230   12.7740   -1.2130 O   0  0  0  0  0  0  0  0  0  0  0  0
   -4.6940   15.2280    0.5270 N   0  0  0  0  0  0  0  0  0  0  0  0
   -2.6910   14.7040   -0.1780 N   0  0  0  0  0  0  0  0  0  0  0  0
   -3.7990   15.7210    1.5500 C   0  0  0  0  0  0  0  0  0  0  0  0
   -2.5440   14.9410    1.1640 C   0  0  0  0  0  0  0  0  0  0  0  0
   -1.6060   14.6000    1.8730 O   0  0  0  0  0  0  0  0  0  0  0  0
  1  2  1  0
  2  3  2  3
  2  4  1  0
  3  5  1  0
  4  6  1  0
  4  7  1  0
  5  8  1  0
  6  9  1  0
  7 10  1  0
  8 11  1  0
  9 12  1  0
 10 12  1  0
 12 13  1  0
 11 14  2  3
 13 15  1  0
 13 16  2  0
 14 17  1  0
 14 18  1  0
 17 19  1  0
 18 20  1  0
 19 20  1  0
 20 21  2  0
M  END
