
     RDKit          3D

 14 14  0  0  0  0  0  0  0  0999 V2000
   -5.8050   14.6040    0.8520 N   0  0  0  0  0  0  0  0  0  0  0  0
   -6.7050   14.6090    1.9890 C   0  0  0  0  0  0  0  0  0  0  0  0
   -7.4380   14.8600   -0.6610 O   0  0  0  0  0  0  0  0  0  0  0  0
   -6.2440   14.7550   -0.3940 C   0  0  0  0  0  0  0  0  0  0  0  0
   -1.1250   15.6450   -4.7510 N   0  0  0  0  0  0  0  0  0  0  0  0
   -1.8240   13.3040   -5.0430 O   0  0  0  0  0  0  0  0  0  0  0  0
   -5.2140   14.8040   -1.4730 C   0  0  0  0  0  0  0  0  0  0  0  0
   -3.0730   15.1310   -6.1520 O   0  0  0  0  0  0  0  0  0  0  0  0
   -5.5470   15.4040   -2.6810 C   0  0  0  0  0  0  0  0  0  0  0  0
   -4.6720   15.3710   -3.7540 C   0  0  0  0  0  0  0  0  0  0  0  0
   -3.4510   14.7310   -3.6160 C   0  0  0  0  0  0  0  0  0  0  0  0
   -3.0930   14.1450   -2.4080 C   0  0  0  0  0  0  0  0  0  0  0  0
   -3.9750   14.1930   -1.3420 C   0  0  0  0  0  0  0  0  0  0  0  0
   -2.3590   14.6390   -5.0040 S   0  0  2  0  0  0  0  0  0  0  0  0
  1  2  1  0
  1  4  1  0
  4  3  2  0
  4  7  1  0
  7  9  2  0
  7 13  1  0
 14  5  1  1
 14  6  2  0
 14  8  2  0
 14 11  1  0
  9 10  1  0
 13 12  2  0
 10 11  2  0
 11 12  1  0
M  END
