mArh-5cms_F_6_F-mArh-5cb5_N_0_N
     RDKit          3D

 43 48  0  0  0  0  0  0  0  0999 V2000
   -1.5710   18.1120   -6.2020 P   0  0  1  0  0  0  0  0  0  0  0  0
   -0.2980   17.1240   -6.1060 O   0  0  0  0  0  0  0  0  0  0  0  0
    0.4220   17.0070   -4.8800 C   0  0  0  0  0  0  0  0  0  0  0  0
   -2.7520   17.5670   -6.9080 O   0  0  0  0  0  0  0  0  0  0  0  0
   -1.8730   18.3100   -4.6470 O   0  0  0  0  0  0  0  0  0  0  0  0
   -1.1120   19.5820   -6.6060 O   0  0  0  0  0  0  0  0  0  0  0  0
   -0.3880   19.9920   -7.9640 P   0  0  1  0  0  0  0  0  0  0  0  0
    0.7910   20.8870   -7.8110 O   0  0  0  0  0  0  0  0  0  0  0  0
    0.0420   18.6020   -8.6460 O   0  0  0  0  0  0  0  0  0  0  0  0
   -1.4750   20.5360   -9.0280 O   0  0  0  0  0  0  0  0  0  0  0  0
    0.8880   15.5730   -4.4620 C   0  0  1  0  0  0  0  0  0  0  0  0
   -1.8970   21.9040   -9.0820 C   0  0  1  0  0  0  0  0  0  0  0  0
    0.4290   15.3300   -3.1260 O   0  0  0  0  0  0  0  0  0  0  0  0
    0.3500   14.3230   -5.2070 C   0  0  1  0  0  0  0  0  0  0  0  0
    1.3170   13.2860   -5.2790 O   0  0  0  0  0  0  0  0  0  0  0  0
   -0.8530   13.8320   -4.3890 C   0  0  2  0  0  0  0  0  0  0  0  0
   -0.9180   14.9520   -3.3760 C   0  0  1  0  0  0  0  0  0  0  0  0
   -1.5430   22.6090  -10.4250 C   0  0  1  0  0  0  0  0  0  0  0  0
   -3.4050   21.9880   -9.0220 C   0  0  2  0  0  0  0  0  0  0  0  0
   -0.6150   12.5160   -3.9030 O   0  0  0  0  0  0  0  0  0  0  0  0
   -2.6810   23.5430  -11.0390 C   0  0  1  0  0  0  0  0  0  0  0  0
   -0.2630   23.5050  -10.3150 C   0  0  1  0  0  0  0  0  0  0  0  0
   -1.7660   14.8760   -2.2010 N   0  0  0  0  0  0  0  0  0  0  0  0
   -3.6830   23.4420   -8.9040 C   0  0  1  0  0  0  0  0  0  0  0  0
   -4.1460   21.2870   -8.0180 O   0  0  0  0  0  0  0  0  0  0  0  0
   -3.8150   23.8950  -10.2220 O   0  0  0  0  0  0  0  0  0  0  0  0
    0.7240   23.3680  -11.3310 O   0  0  0  0  0  0  0  0  0  0  0  0
   -1.9670   24.8450  -11.4090 C   0  0  1  0  0  0  0  0  0  0  0  0
   -1.3320   14.8570   -0.8870 C   0  0  0  0  0  0  0  0  0  0  0  0
   -3.1460   14.8520   -2.1810 C   0  0  0  0  0  0  0  0  0  0  0  0
   -5.3630   22.0280   -7.7520 C   0  0  2  0  0  0  0  0  0  0  0  0
   -4.8610   23.4600   -7.9580 C   0  0  2  0  0  0  0  0  0  0  0  0
   -0.7530   24.9060  -10.4780 C   0  0  0  0  0  0  0  0  0  0  0  0
   -1.6570   25.0670  -12.7610 O   0  0  0  0  0  0  0  0  0  0  0  0
   -5.7300   21.7770   -6.3900 O   0  0  0  0  0  0  0  0  0  0  0  0
   -5.8980   24.2440   -8.5640 O   0  0  0  0  0  0  0  0  0  0  0  0
   -2.4990   14.8540   -0.1540 C   0  0  0  0  0  0  0  0  0  0  0  0
   -0.0800   14.8650   -0.3910 N   0  0  0  0  0  0  0  0  0  0  0  0
   -3.6010   14.8390   -0.9520 N   0  0  0  0  0  0  0  0  0  0  0  0
   -2.3850   14.8800    1.2130 C   0  0  0  0  0  0  0  0  0  0  0  0
   -0.1320   14.8790    0.9630 C   0  0  0  0  0  0  0  0  0  0  0  0
   -3.4740   14.9280    2.0130 N   0  0  0  0  0  0  0  0  0  0  0  0
   -1.1880   14.8760    1.7740 N   0  0  0  0  0  0  0  0  0  0  0  0
  1  2  1  0
  2  3  1  0
  1  4  2  0
  1  5  1  1
  1  6  1  0
  6  7  1  0
  7  8  2  0
  7  9  1  6
  7 10  1  0
 11  3  1  6
 12 10  1  6
 11 13  1  0
 11 14  1  0
 14 15  1  1
 14 16  1  0
 13 17  1  0
 16 17  1  0
 12 18  1  0
 12 19  1  0
 16 20  1  1
 18 21  1  0
 18 22  1  1
 17 23  1  1
 19 24  1  0
 19 25  1  1
 21 26  1  1
 24 26  1  6
 22 27  1  6
 21 28  1  0
 23 29  1  0
 23 30  1  0
 25 31  1  0
 24 32  1  0
 31 32  1  0
 22 33  1  0
 28 33  1  0
 28 34  1  6
 31 35  1  1
 32 36  1  6
 29 37  2  0
 29 38  1  0
 30 39  2  0
 37 39  1  0
 37 40  1  0
 38 41  2  0
 40 42  1  0
 40 43  2  0
 41 43  1  0
M  END
