
     RDKit          3D

 15 17  0  0  0  0  0  0  0  0999 V2000
   -4.5820   13.5560   -0.1510 N   0  0  0  0  0  0  0  0  0  0  0  0
   -5.2500   12.4300   -0.5050 C   0  0  0  0  0  0  0  0  0  0  0  0
   -4.9160   11.7990   -1.5040 O   0  0  0  0  0  0  0  0  0  0  0  0
   -4.7050   14.3920    1.0500 C   0  0  1  0  0  0  0  0  0  0  0  0
   -1.0550   14.1900    1.8080 N   0  0  0  0  0  0  0  0  0  0  0  0
   -3.4910   14.1460    1.9370 C   0  0  0  0  0  0  0  0  0  0  0  0
   -2.2170   14.1970    1.1330 C   0  0  0  0  0  0  0  0  0  0  0  0
   -2.2940   14.2150   -0.2860 C   0  0  0  0  0  0  0  0  0  0  0  0
   -1.0950   14.2220   -0.9920 C   0  0  0  0  0  0  0  0  0  0  0  0
    0.1040   14.2210   -0.3030 C   0  0  0  0  0  0  0  0  0  0  0  0
    0.0740   14.2140    1.0870 C   0  0  0  0  0  0  0  0  0  0  0  0
   -3.6150   14.2070   -1.0370 C   0  0  2  0  0  0  0  0  0  0  0  0
   -4.1040   15.6570   -0.9820 C   0  0  0  0  0  0  0  0  0  0  0  0
   -4.6840   15.8040    0.4510 C   0  0  0  0  0  0  0  0  0  0  0  0
   -6.3660   11.9840    0.3850 C   0  0  0  0  0  0  0  0  0  0  0  0
  1  2  1  0
  1  4  1  0
  1 12  1  0
  2  3  2  0
  2 15  1  0
  4  6  1  1
  4 14  1  0
 12  8  1  0
 12 13  1  1
  6  7  1  0
 14 13  1  0
  5  7  2  0
  5 11  1  0
  7  8  1  0
 11 10  2  0
  8  9  2  0
  9 10  1  0
M  END
