mArh-5cms_R_17_R-mArh-5cb3_0_A
     RDKit          3D

 43 48  0  0  0  0  0  0  0  0999 V2000
   -1.5050   17.9940   -6.1190 P   0  0  1  0  0  0  0  0  0  0  0  0
   -0.1130   17.2660   -6.4380 O   0  0  0  0  0  0  0  0  0  0  0  0
    0.7960   16.7710   -5.4650 C   0  0  0  0  0  0  0  0  0  0  0  0
   -2.7000   17.4950   -6.8390 O   0  0  0  0  0  0  0  0  0  0  0  0
   -1.7300   17.9920   -4.5430 O   0  0  0  0  0  0  0  0  0  0  0  0
   -1.0710   19.4440   -6.4070 O   0  0  0  0  0  0  0  0  0  0  0  0
   -0.3410   19.7930   -7.7510 P   0  0  1  0  0  0  0  0  0  0  0  0
    0.9230   20.5590   -7.6520 O   0  0  0  0  0  0  0  0  0  0  0  0
   -0.1990   18.4790   -8.6550 O   0  0  0  0  0  0  0  0  0  0  0  0
   -1.5480   20.4890   -8.4510 O   0  0  0  0  0  0  0  0  0  0  0  0
    0.1510   15.5000   -4.9800 C   0  0  2  0  0  0  0  0  0  0  0  0
   -1.9490   21.6330   -7.7320 C   0  0  1  0  0  0  0  0  0  0  0  0
   -0.1600   15.6850   -3.6310 O   0  0  0  0  0  0  0  0  0  0  0  0
    0.8430   14.1190   -4.9740 C   0  0  1  0  0  0  0  0  0  0  0  0
    2.2510   14.1650   -4.7530 O   0  0  0  0  0  0  0  0  0  0  0  0
    0.2380   13.4650   -3.7130 C   0  0  1  0  0  0  0  0  0  0  0  0
   -0.8610   14.4820   -3.4470 C   0  0  1  0  0  0  0  0  0  0  0  0
   -1.6360   22.6720   -8.7000 C   0  0  0  0  0  0  0  0  0  0  0  0
   -3.4390   21.6270   -7.3700 C   0  0  1  0  0  0  0  0  0  0  0  0
   -0.2100   12.1400   -3.9780 O   0  0  0  0  0  0  0  0  0  0  0  0
   -2.6210   22.6450   -9.7840 N   0  0  0  0  0  0  0  0  0  0  0  0
   -1.6470   14.6310   -2.2570 N   0  0  0  0  0  0  0  0  0  0  0  0
   -4.0780   22.8180   -6.6500 C   0  0  1  0  0  0  0  0  0  0  0  0
   -4.3580   21.5990   -8.5500 C   0  0  2  0  0  0  0  0  0  0  0  0
   -3.9320   24.1380   -7.1880 O   0  0  0  0  0  0  0  0  0  0  0  0
   -4.0060   22.6680   -9.4510 C   0  0  2  0  0  0  0  0  0  0  0  0
   -2.8710   23.9590   -9.7030 C   0  0  1  0  0  0  0  0  0  0  0  0
   -1.3340   14.6780   -0.9220 C   0  0  0  0  0  0  0  0  0  0  0  0
   -2.9990   14.7910   -2.3780 C   0  0  0  0  0  0  0  0  0  0  0  0
   -5.5230   22.3880   -6.8020 C   0  0  1  0  0  0  0  0  0  0  0  0
   -5.6690   21.7160   -8.0390 O   0  0  0  0  0  0  0  0  0  0  0  0
   -1.6380   24.5930   -9.5330 O   0  0  0  0  0  0  0  0  0  0  0  0
   -5.9510   21.5520   -5.7420 O   0  0  0  0  0  0  0  0  0  0  0  0
   -4.6700   23.0630  -10.7760 C   0  0  1  0  0  0  0  0  0  0  0  0
   -2.5720   14.8800   -0.3170 C   0  0  0  0  0  0  0  0  0  0  0  0
   -0.1490   14.5710   -0.2970 N   0  0  0  0  0  0  0  0  0  0  0  0
   -3.5900   14.9440   -1.2320 N   0  0  0  0  0  0  0  0  0  0  0  0
   -3.9610   24.3750  -10.7460 C   0  0  0  0  0  0  0  0  0  0  0  0
   -4.2160   22.4450  -11.9490 O   0  0  0  0  0  0  0  0  0  0  0  0
   -2.6020   14.9940    1.0660 C   0  0  0  0  0  0  0  0  0  0  0  0
   -0.3200   14.6860    1.0420 C   0  0  0  0  0  0  0  0  0  0  0  0
   -3.7790   15.2290    1.7570 N   0  0  0  0  0  0  0  0  0  0  0  0
   -1.4510   14.8820    1.7430 N   0  0  0  0  0  0  0  0  0  0  0  0
  1  2  1  0
  2  3  1  0
  1  4  2  0
  1  5  1  1
  1  6  1  0
  6  7  1  0
  7  8  2  0
  7  9  1  6
  7 10  1  0
 11  3  1  1
 12 10  1  6
 11 13  1  0
 11 14  1  0
 14 15  1  1
 14 16  1  0
 13 17  1  0
 16 17  1  0
 12 18  1  0
 19 12  1  6
 16 20  1  6
 18 21  1  0
 17 22  1  1
 19 23  1  0
 19 24  1  0
 23 25  1  6
 26 21  1  6
 24 26  1  0
 21 27  1  0
 22 28  1  0
 22 29  1  0
 23 30  1  0
 24 31  1  1
 30 31  1  0
 27 32  1  6
 30 33  1  1
 26 34  1  0
 28 35  2  0
 28 36  1  0
 29 37  2  0
 35 37  1  0
 27 38  1  0
 34 38  1  0
 34 39  1  6
 35 40  1  0
 36 41  2  0
 40 42  1  0
 40 43  2  0
 41 43  1  0
M  END
