
     RDKit          3D

 13 13  0  0  0  0  0  0  0  0999 V2000
  -10.2750   28.2270  -15.8940 N   0  0  0  0  0  0  0  0  0  0  0  0
  -11.6080   30.5960  -14.1960 C   0  0  0  0  0  0  0  0  0  0  0  0
   -9.8710   29.1950  -13.4560 O   0  0  0  0  0  0  0  0  0  0  0  0
   -4.3390   29.4050  -11.5930 Cl  0  0  0  0  0  0  0  0  0  0  0  0
  -10.1780   30.1760  -14.4440 C   0  0  1  0  0  0  0  0  0  0  0  0
   -9.6990   30.2130  -16.7780 O   0  0  0  0  0  0  0  0  0  0  0  0
   -8.5730   29.1000  -13.0070 C   0  0  0  0  0  0  0  0  0  0  0  0
   -7.5360   28.7990  -13.8750 C   0  0  0  0  0  0  0  0  0  0  0  0
   -6.2300   28.8150  -13.4190 C   0  0  0  0  0  0  0  0  0  0  0  0
   -5.9810   29.1460  -12.1050 C   0  0  0  0  0  0  0  0  0  0  0  0
   -7.0080   29.3890  -11.2170 C   0  0  0  0  0  0  0  0  0  0  0  0
   -8.3130   29.3690  -11.6720 C   0  0  0  0  0  0  0  0  0  0  0  0
  -10.0380   29.5240  -15.8130 C   0  0  0  0  0  0  0  0  0  0  0  0
  1 13  1  0
 13  5  1  0
 13  6  2  0
  5  2  1  1
  5  3  1  0
  3  7  1  0
  7  8  2  0
  7 12  1  0
  4 10  1  0
 10  9  2  0
 10 11  1  0
  8  9  1  0
 12 11  2  0
M  END
