
     RDKit          3D

 18 20  0  0  0  0  0  0  0  0999 V2000
   -8.2380   14.3970    2.9860 N   0  0  0  0  0  0  0  0  0  0  0  0
   -8.8300   15.4210    3.5990 C   0  0  0  0  0  0  0  0  0  0  0  0
   -9.5090   16.2550    3.0040 O   0  0  0  0  0  0  0  0  0  0  0  0
   -8.3420   14.2240    1.5520 C   0  0  0  0  0  0  0  0  0  0  0  0
   -5.8970   14.6840    1.5180 N   0  0  0  0  0  0  0  0  0  0  0  0
   -7.9020   14.5350    5.6650 O   0  0  0  0  0  0  0  0  0  0  0  0
   -7.0580   14.5850    0.8980 C   0  0  0  0  0  0  0  0  0  0  0  0
   -6.9680   14.8210   -0.4290 N   0  0  0  0  0  0  0  0  0  0  0  0
   -4.9830   14.9980    0.5200 C   0  0  0  0  0  0  0  0  0  0  0  0
   -3.6040   15.1660    0.5810 C   0  0  0  0  0  0  0  0  0  0  0  0
   -2.9170   15.3830   -0.6030 C   0  0  0  0  0  0  0  0  0  0  0  0
   -3.5860   15.4520   -1.8210 C   0  0  0  0  0  0  0  0  0  0  0  0
   -4.9630   15.3130   -1.8870 C   0  0  0  0  0  0  0  0  0  0  0  0
   -5.6410   15.0790   -0.7050 C   0  0  0  0  0  0  0  0  0  0  0  0
   -8.6550   15.4950    5.0590 C   0  0  0  0  0  0  0  0  0  0  0  0
   -9.1210   16.3600    5.9830 C   0  0  0  0  0  0  0  0  0  0  0  0
   -8.6490   15.9110    7.2280 C   0  0  0  0  0  0  0  0  0  0  0  0
   -7.9290   14.8230    6.9940 C   0  0  0  0  0  0  0  0  0  0  0  0
  1  2  1  0
  1  4  1  0
  2  3  2  0
  2 15  1  0
  4  7  1  0
 15  6  1  0
 15 16  2  0
  7  5  2  0
  7  8  1  0
  5  9  1  0
  9 10  2  0
  9 14  1  0
  6 18  1  0
 18 17  2  0
  8 14  1  0
 14 13  2  0
 10 11  1  0
 11 12  2  0
 12 13  1  0
 16 17  1  0
M  END
