
     RDKit          3D

 15 16  0  0  0  0  0  0  0  0999 V2000
   -0.1810   12.2880   -3.9630 N   0  0  0  0  0  0  0  0  0  0  0  0
   -1.4480   14.4240   -4.2470 C   0  0  0  0  0  0  0  0  0  0  0  0
    0.3560   10.5970   -2.5440 O   0  0  0  0  0  0  0  0  0  0  0  0
   -1.8080    8.8670   -8.4720 Cl  0  0  0  0  0  0  0  0  0  0  0  0
   -0.1100   13.7530   -3.9660 C   0  0  1  0  0  0  0  0  0  0  0  0
    0.5520   12.8210   -1.9540 N   0  0  0  0  0  0  0  0  0  0  0  0
    0.6520   15.1190   -2.0650 O   0  0  0  0  0  0  0  0  0  0  0  0
    0.2350   11.7690   -2.7830 C   0  0  0  0  0  0  0  0  0  0  0  0
    0.3880   14.0330   -2.5600 C   0  0  0  0  0  0  0  0  0  0  0  0
   -0.6200   11.5150   -5.0600 C   0  0  0  0  0  0  0  0  0  0  0  0
   -0.0050   11.6430   -6.2860 C   0  0  0  0  0  0  0  0  0  0  0  0
   -0.3690   10.8260   -7.3390 C   0  0  0  0  0  0  0  0  0  0  0  0
   -1.3340    9.8730   -7.1430 C   0  0  0  0  0  0  0  0  0  0  0  0
   -1.9490    9.7160   -5.9280 C   0  0  0  0  0  0  0  0  0  0  0  0
   -1.6030   10.5550   -4.8860 C   0  0  0  0  0  0  0  0  0  0  0  0
  1  5  1  0
  1  8  1  0
  1 10  1  0
  5  2  1  1
  5  9  1  0
  8  3  2  0
  8  6  1  0
 10 11  2  0
 10 15  1  0
  4 13  1  0
 13 12  2  0
 13 14  1  0
  9  6  1  0
  9  7  2  0
 11 12  1  0
 15 14  2  0
M  END
