mArh-x0805_0_A-mArh-5l9k_A_0_A
     RDKit          3D

 52 57  0  0  0  0  0  0  0  0999 V2000
   -4.1800   15.6100    1.4210 C   0  0  0  0  0  0  0  0  0  0  0  0
   -2.8660   15.0110    1.6560 O   0  0  0  0  0  0  0  0  0  0  0  0
   -2.6450   14.6480    0.3810 C   0  0  0  0  0  0  0  0  0  0  0  0
   -4.2180   15.3940   -0.1030 C   0  0  0  0  0  0  0  0  0  0  0  0
   -2.9570   15.3620   -0.5800 N   0  0  0  0  0  0  0  0  0  0  0  0
   -5.2470   15.1960   -1.1090 C   0  0  0  0  0  0  0  0  0  0  0  0
   -3.7600   14.2860   -0.3740 C   0  0  0  0  0  0  0  0  0  0  0  0
   -1.3560   14.6480   -0.2060 C   0  0  0  0  0  0  0  0  0  0  0  0
   -4.7650   14.9920   -2.4250 C   0  0  0  0  0  0  0  0  0  0  0  0
   -2.6900   15.1730   -1.8840 C   0  0  0  0  0  0  0  0  0  0  0  0
   -6.6280   15.1340   -1.1570 N   0  0  0  0  0  0  0  0  0  0  0  0
   -3.6400   13.9500   -1.7070 C   0  0  0  0  0  0  0  0  0  0  0  0
   -1.2480   14.2910   -1.5840 C   0  0  0  0  0  0  0  0  0  0  0  0
   -3.5280   14.9780   -2.8780 N   0  0  0  0  0  0  0  0  0  0  0  0
   -5.8080   14.7790   -3.2450 N   0  0  0  0  0  0  0  0  0  0  0  0
   -6.9280   14.8850   -2.4450 C   0  0  0  0  0  0  0  0  0  0  0  0
   -2.3880   13.9650   -2.3020 C   0  0  0  0  0  0  0  0  0  0  0  0
   -0.0170   14.1870   -2.4270 C   0  0  2  0  0  0  0  0  0  0  0  0
   -5.6070   14.4860   -4.6910 C   0  0  1  0  0  0  0  0  0  0  0  0
    1.0400   13.3930   -1.7020 C   0  0  1  0  0  0  0  0  0  0  0  0
    0.5010   15.4330   -3.1050 C   0  0  0  0  0  0  0  0  0  0  0  0
   -4.7600   15.4620   -5.3630 O   0  0  0  0  0  0  0  0  0  0  0  0
   -4.9230   13.1580   -5.0580 C   0  0  1  0  0  0  0  0  0  0  0  0
    1.1370   12.0440   -2.3890 C   0  0  0  0  0  0  0  0  0  0  0  0
   -5.5140   12.5370   -6.1980 O   0  0  0  0  0  0  0  0  0  0  0  0
    2.3860   14.1160   -1.6580 C   0  0  0  0  0  0  0  0  0  0  0  0
    1.8090   15.1230   -3.7940 C   0  0  0  0  0  0  0  0  0  0  0  0
   -3.4160   15.0220   -5.6280 C   0  0  2  0  0  0  0  0  0  0  0  0
   -3.4450   13.5210   -5.3320 C   0  0  2  0  0  0  0  0  0  0  0  0
    1.7800   12.1120   -3.5770 O   0  0  0  0  0  0  0  0  0  0  0  0
    0.6800   10.9840   -1.9450 O   0  0  0  0  0  0  0  0  0  0  0  0
   -2.4130   15.8480   -4.7700 C   0  0  0  0  0  0  0  0  0  0  0  0
   -3.0440   12.7660   -6.4930 O   0  0  0  0  0  0  0  0  0  0  0  0
    2.8250   14.7400   -2.8620 O   0  0  0  0  0  0  0  0  0  0  0  0
   -1.4560   16.5610   -5.5680 O   0  0  0  0  0  0  0  0  0  0  0  0
   -1.5450   18.1620   -5.7140 P   0  0  2  0  0  0  0  0  0  0  0  0
   -1.9850   18.9540   -4.5490 O   0  0  0  0  0  0  0  0  0  0  0  0
   -2.5540   18.2650   -6.9480 O   0  0  0  0  0  0  0  0  0  0  0  0
   -0.2060   18.6890   -6.3630 O   0  0  0  0  0  0  0  0  0  0  0  0
   -0.2310   19.4900   -7.7240 P   0  0  2  0  0  0  0  0  0  0  0  0
    0.1620   18.6670   -8.8780 O   0  0  0  0  0  0  0  0  0  0  0  0
    0.7310   20.7570   -7.5500 O   0  0  0  0  0  0  0  0  0  0  0  0
   -1.6710   20.1800   -7.8490 O   0  0  0  0  0  0  0  0  0  0  0  0
   -1.7650   21.5920   -7.7010 C   0  0  0  0  0  0  0  0  0  0  0  0
   -3.1470   22.0560   -8.1790 C   0  0  2  0  0  0  0  0  0  0  0  0
   -3.4980   23.5120   -7.8830 C   0  0  1  0  0  0  0  0  0  0  0  0
   -4.1890   21.3320   -7.5180 O   0  0  0  0  0  0  0  0  0  0  0  0
   -4.3860   24.0100   -8.9160 O   0  0  0  0  0  0  0  0  0  0  0  0
   -4.4950   21.9870   -6.2930 C   0  0  1  0  0  0  0  0  0  0  0  0
   -4.2600   23.4810   -6.5450 C   0  0  2  0  0  0  0  0  0  0  0  0
   -5.8690   21.7390   -6.0220 O   0  0  0  0  0  0  0  0  0  0  0  0
   -5.5060   24.1940   -6.6140 O   0  0  0  0  0  0  0  0  0  0  0  0
  1  2  1  0
  2  3  1  0
  1  4  1  0
  4  5  2  0
  4  6  1  0
  3  7  2  0
  3  8  1  0
  6  9  2  0
  5 10  1  0
  6 11  1  0
  7 12  1  0
  8 13  2  0
  9 14  1  0
 10 14  2  0
  9 15  1  0
 11 16  2  0
 15 16  1  0
 12 17  2  0
 13 17  1  0
 18 13  1  1
 19 15  1  1
 18 20  1  0
 18 21  1  0
 19 22  1  0
 19 23  1  0
 20 24  1  6
 23 25  1  6
 20 26  1  0
 21 27  1  0
 22 28  1  0
 23 29  1  0
 28 29  1  0
 24 30  1  0
 24 31  2  0
 28 32  1  1
 29 33  1  6
 26 34  1  0
 27 34  1  0
 32 35  1  0
 35 36  1  0
 36 37  2  0
 36 38  1  6
 36 39  1  0
 39 40  1  0
 40 41  2  0
 40 42  1  1
 40 43  1  0
 43 44  1  0
 45 44  1  1
 45 46  1  0
 45 47  1  0
 46 48  1  6
 47 49  1  0
 46 50  1  0
 49 50  1  0
 49 51  1  6
 50 52  1  6
M  END
