mArh-5cms_R_17_R-mArh-x0766_0_A
     RDKit          3D

 38 41  0  0  0  0  0  0  0  0999 V2000
   -1.6950   17.9740   -6.0990 P   0  0  1  0  0  0  0  0  0  0  0  0
   -0.2870   17.3050   -6.4630 O   0  0  0  0  0  0  0  0  0  0  0  0
    0.6440   16.7990   -5.5340 C   0  0  0  0  0  0  0  0  0  0  0  0
   -2.8380   17.2970   -6.7320 O   0  0  0  0  0  0  0  0  0  0  0  0
   -1.7230   18.1310   -4.5300 O   0  0  0  0  0  0  0  0  0  0  0  0
   -1.3060   19.3440   -6.6710 O   0  0  0  0  0  0  0  0  0  0  0  0
   -0.0760   19.5430   -7.6200 P   0  0  1  0  0  0  0  0  0  0  0  0
    1.2700   19.7010   -7.0420 O   0  0  0  0  0  0  0  0  0  0  0  0
   -0.1140   18.3700   -8.7040 O   0  0  0  0  0  0  0  0  0  0  0  0
   -0.5630   20.6790   -8.5120 O   0  0  0  0  0  0  0  0  0  0  0  0
    0.0050   15.6560   -4.7730 C   0  0  2  0  0  0  0  0  0  0  0  0
   -1.7140   21.2670   -8.0340 C   0  0  0  0  0  0  0  0  0  0  0  0
    0.4310   15.8710   -3.4160 O   0  0  0  0  0  0  0  0  0  0  0  0
    0.3390   14.1680   -5.0830 C   0  0  1  0  0  0  0  0  0  0  0  0
    1.4010   13.9380   -5.9810 O   0  0  0  0  0  0  0  0  0  0  0  0
    0.7290   13.5990   -3.7460 C   0  0  1  0  0  0  0  0  0  0  0  0
    0.3480   14.6310   -2.7190 C   0  0  2  0  0  0  0  0  0  0  0  0
   -2.0440   22.1930   -9.0960 C   0  0  2  0  0  0  0  0  0  0  0  0
    0.3750   12.2150   -3.3220 C   0  0  0  0  0  0  0  0  0  0  0  0
   -2.5240   23.5480   -8.7120 C   0  0  1  0  0  0  0  0  0  0  0  0
   -2.9570   21.6170  -10.0380 O   0  0  0  0  0  0  0  0  0  0  0  0
   -0.9320   14.7140   -2.0690 N   0  0  0  0  0  0  0  0  0  0  0  0
   -1.5290   24.5010   -8.8790 O   0  0  0  0  0  0  0  0  0  0  0  0
    0.7670   11.7140   -2.2860 O   0  0  0  0  0  0  0  0  0  0  0  0
   -0.4190   11.5030   -4.1290 O   0  0  0  0  0  0  0  0  0  0  0  0
   -4.1690   22.3030   -9.8170 C   0  0  2  0  0  0  0  0  0  0  0  0
   -3.7940   23.7300   -9.5480 C   0  0  2  0  0  0  0  0  0  0  0  0
   -0.9970   14.6950   -0.6500 C   0  0  0  0  0  0  0  0  0  0  0  0
   -2.2480   14.8310   -2.5110 C   0  0  0  0  0  0  0  0  0  0  0  0
   -4.7760   21.7910   -8.6520 O   0  0  0  0  0  0  0  0  0  0  0  0
   -3.7000   24.4810  -10.7620 O   0  0  0  0  0  0  0  0  0  0  0  0
   -2.4420   14.8310   -0.3130 C   0  0  0  0  0  0  0  0  0  0  0  0
    0.0320   14.5860    0.1680 N   0  0  0  0  0  0  0  0  0  0  0  0
   -3.1560   14.9060   -1.5040 N   0  0  0  0  0  0  0  0  0  0  0  0
   -2.7190   14.8570    1.0580 C   0  0  0  0  0  0  0  0  0  0  0  0
   -0.3980   14.6030    1.4300 C   0  0  0  0  0  0  0  0  0  0  0  0
   -3.9890   15.0090    1.5880 N   0  0  0  0  0  0  0  0  0  0  0  0
   -1.6660   14.7280    1.9020 N   0  0  0  0  0  0  0  0  0  0  0  0
  1  2  1  0
  2  3  1  0
  1  4  2  0
  1  5  1  1
  1  6  1  0
  6  7  1  0
  7  8  2  0
  7  9  1  6
  7 10  1  0
 11  3  1  6
 10 12  1  0
 11 13  1  0
 11 14  1  0
 14 15  1  6
 14 16  1  0
 13 17  1  0
 16 17  1  0
 18 12  1  1
 16 19  1  1
 18 20  1  0
 18 21  1  0
 17 22  1  6
 20 23  1  6
 19 24  2  0
 19 25  1  0
 21 26  1  0
 20 27  1  0
 26 27  1  0
 22 28  1  0
 22 29  1  0
 26 30  1  1
 27 31  1  6
 28 32  2  0
 28 33  1  0
 29 34  2  0
 32 34  1  0
 32 35  1  0
 33 36  2  0
 35 37  1  0
 35 38  2  0
 36 38  1  0
M  END
