
     RDKit          3D

  7  7  0  0  0  0  0  0  0  0999 V2000
   -2.3490   14.9230   -2.2180 N   0  0  0  0  0  0  0  0  0  0  0  0
   -3.0320   14.9640   -1.3050 C   0  0  0  0  0  0  0  0  0  0  0  0
   -3.8470   15.0390   -0.1250 C   0  0  0  0  0  0  0  0  0  0  0  0
   -3.3640   15.1130    1.0630 N   0  0  0  0  0  0  0  0  0  0  0  0
   -4.5670   15.1820    1.9250 C   0  0  0  0  0  0  0  0  0  0  0  0
   -5.7650   15.1040    1.0260 N   0  0  0  0  0  0  0  0  0  0  0  0
   -5.2480   15.0410   -0.1710 C   0  0  0  0  0  0  0  0  0  0  0  0
  1  2  3  0
  2  3  1  0
  3  4  1  0
  3  7  2  0
  4  5  2  0
  7  6  1  0
  5  6  1  0
M  END
