mArh-x0722_0_A-mArh-5cb5_I_0_I
     RDKit          3D

 42 45  0  0  0  0  0  0  0  0999 V2000
   -4.4610   15.8190    2.3610 C   0  0  0  0  0  0  0  0  0  0  0  0
   -3.8880   14.8420    1.3780 C   0  0  2  0  0  0  0  0  0  0  0  0
   -2.5570   14.5690    1.9350 N   0  0  0  0  0  0  0  0  0  0  0  0
   -3.8440   15.3940   -0.0700 C   0  0  2  0  0  0  0  0  0  0  0  0
   -5.1700   15.7100   -0.7860 C   0  0  0  0  0  0  0  0  0  0  0  0
   -1.6110   13.9760    0.9900 N   0  0  0  0  0  0  0  0  0  0  0  0
   -3.0840   14.5200   -0.9340 N   0  0  0  0  0  0  0  0  0  0  0  0
   -0.2580   14.0730    1.5070 C   0  0  0  0  0  0  0  0  0  0  0  0
   -6.3410   14.7850   -0.5360 C   0  0  0  0  0  0  0  0  0  0  0  0
   -1.7560   14.3230   -0.4130 C   0  0  2  0  0  0  0  0  0  0  0  0
   -2.8500   15.0640   -2.2590 C   0  0  0  0  0  0  0  0  0  0  0  0
   -7.5200   15.0650   -0.7180 O   0  0  0  0  0  0  0  0  0  0  0  0
   -6.0080   13.5470   -0.0670 N   0  0  0  0  0  0  0  0  0  0  0  0
   -0.9980   13.2870   -1.2640 C   0  0  0  0  0  0  0  0  0  0  0  0
   -1.1730   15.6700   -0.8280 C   0  0  0  0  0  0  0  0  0  0  0  0
   -1.5360   15.6980   -2.2300 N   0  0  0  0  0  0  0  0  0  0  0  0
   -0.5210   15.0190   -3.0010 C   0  0  2  0  0  0  0  0  0  0  0  0
    0.6140   15.8730   -3.1820 O   0  0  0  0  0  0  0  0  0  0  0  0
   -0.9010   14.3490   -4.3480 C   0  0  2  0  0  0  0  0  0  0  0  0
   -1.0800   12.9200   -4.2970 O   0  0  0  0  0  0  0  0  0  0  0  0
    0.9360   15.9210   -4.5720 C   0  0  1  0  0  0  0  0  0  0  0  0
    0.3420   14.6410   -5.1710 C   0  0  1  0  0  0  0  0  0  0  0  0
    0.5570   17.3210   -5.1030 C   0  0  0  0  0  0  0  0  0  0  0  0
    1.2330   13.5440   -5.2450 O   0  0  0  0  0  0  0  0  0  0  0  0
   -0.2890   17.3300   -6.2470 O   0  0  0  0  0  0  0  0  0  0  0  0
   -1.6000   18.2220   -6.0630 P   0  0  2  0  0  0  0  0  0  0  0  0
   -2.0030   18.3110   -4.6820 O   0  0  0  0  0  0  0  0  0  0  0  0
   -2.7030   17.4480   -6.8680 O   0  0  0  0  0  0  0  0  0  0  0  0
   -1.3510   19.5830   -6.8080 O   0  0  0  0  0  0  0  0  0  0  0  0
   -0.1470   19.9000   -7.7820 P   0  0  1  0  0  0  0  0  0  0  0  0
    1.1970   20.0760   -7.1950 O   0  0  0  0  0  0  0  0  0  0  0  0
   -0.1870   18.6890   -8.8270 O   0  0  0  0  0  0  0  0  0  0  0  0
   -0.7360   21.1750   -8.5400 O   0  0  0  0  0  0  0  0  0  0  0  0
   -2.1230   21.1760   -8.6730 C   0  0  0  0  0  0  0  0  0  0  0  0
   -2.9090   22.1090   -7.8140 C   0  0  1  0  0  0  0  0  0  0  0  0
   -3.7890   23.2430   -8.3810 C   0  0  1  0  0  0  0  0  0  0  0  0
   -3.8690   21.1950   -7.2410 O   0  0  0  0  0  0  0  0  0  0  0  0
   -4.5020   23.0700   -9.6160 O   0  0  0  0  0  0  0  0  0  0  0  0
   -5.1200   21.8500   -7.1780 C   0  0  2  0  0  0  0  0  0  0  0  0
   -4.7300   23.3070   -7.1840 C   0  0  2  0  0  0  0  0  0  0  0  0
   -5.7840   21.5080   -5.9600 O   0  0  0  0  0  0  0  0  0  0  0  0
   -5.8900   24.1180   -7.3270 O   0  0  0  0  0  0  0  0  0  0  0  0
  2  1  1  1
  2  3  1  0
  2  4  1  0
  4  5  1  6
  3  6  1  0
  4  7  1  0
  6  8  1  0
  5  9  1  0
  6 10  1  0
  7 10  1  0
  7 11  1  0
  9 12  2  0
  9 13  1  0
 10 14  1  6
 10 15  1  0
 11 16  1  0
 15 16  1  0
 17 16  1  6
 17 18  1  0
 17 19  1  0
 19 20  1  1
 18 21  1  0
 19 22  1  0
 21 22  1  0
 21 23  1  6
 22 24  1  1
 23 25  1  0
 25 26  1  0
 26 27  2  0
 26 28  1  6
 26 29  1  0
 29 30  1  0
 30 31  2  0
 30 32  1  6
 30 33  1  0
 33 34  1  0
 35 34  1  6
 35 36  1  0
 35 37  1  0
 36 38  1  6
 37 39  1  0
 36 40  1  0
 39 40  1  0
 39 41  1  1
 40 42  1  6
M  END
