mArh-6woj_C_0_C-mArh-6mea_B_0_B
     RDKit          3D

 36 39  0  0  0  0  0  0  0  0999 V2000
   -1.1520   18.3180   -5.8840 P   0  0  2  0  0  0  0  0  0  0  0  0
    0.1260   17.4420   -6.2870 O   0  0  0  0  0  0  0  0  0  0  0  0
    0.9940   16.8380   -5.3240 C   0  0  0  0  0  0  0  0  0  0  0  0
   -1.4840   18.3970   -4.4450 O   0  0  0  0  0  0  0  0  0  0  0  0
   -2.3750   17.6550   -6.6880 O   0  0  0  0  0  0  0  0  0  0  0  0
   -0.9750   19.7180   -6.5630 O   0  0  0  0  0  0  0  0  0  0  0  0
   -0.0520   20.1330   -7.7640 P   0  0  1  0  0  0  0  0  0  0  0  0
    1.2960   20.6600   -7.3950 O   0  0  0  0  0  0  0  0  0  0  0  0
    0.0340   18.8330   -8.7210 O   0  0  0  0  0  0  0  0  0  0  0  0
   -0.8440   21.2460   -8.5790 O   0  0  0  0  0  0  0  0  0  0  0  0
    0.2490   15.6410   -4.7760 C   0  0  2  0  0  0  0  0  0  0  0  0
   -2.2290   21.2230   -8.4720 C   0  0  0  0  0  0  0  0  0  0  0  0
    0.2100   15.5280   -3.3630 O   0  0  0  0  0  0  0  0  0  0  0  0
    0.5250   14.1840   -5.1740 C   0  0  1  0  0  0  0  0  0  0  0  0
    1.7940   13.6470   -4.8330 O   0  0  0  0  0  0  0  0  0  0  0  0
   -0.6290   13.5310   -4.3840 C   0  0  2  0  0  0  0  0  0  0  0  0
   -0.9500   14.7190   -3.4530 C   0  0  1  0  0  0  0  0  0  0  0  0
   -2.8050   22.0790   -7.3910 C   0  0  1  0  0  0  0  0  0  0  0  0
   -0.1530   12.3180   -3.8070 O   0  0  0  0  0  0  0  0  0  0  0  0
   -3.4190   23.4710   -7.6500 C   0  0  1  0  0  0  0  0  0  0  0  0
   -3.8650   21.2370   -6.8960 O   0  0  0  0  0  0  0  0  0  0  0  0
   -1.7790   14.7520   -2.2840 N   0  0  0  0  0  0  0  0  0  0  0  0
   -4.1860   23.6370   -8.8710 O   0  0  0  0  0  0  0  0  0  0  0  0
   -4.9860   22.0550   -6.6810 C   0  0  2  0  0  0  0  0  0  0  0  0
   -4.4040   23.4490   -6.4930 C   0  0  2  0  0  0  0  0  0  0  0  0
   -1.4680   14.6260   -0.9490 C   0  0  0  0  0  0  0  0  0  0  0  0
   -3.1210   14.9730   -2.3850 C   0  0  0  0  0  0  0  0  0  0  0  0
   -5.6470   21.5980   -5.5170 O   0  0  0  0  0  0  0  0  0  0  0  0
   -5.4190   24.4380   -6.5210 O   0  0  0  0  0  0  0  0  0  0  0  0
   -2.6940   14.8120   -0.3210 C   0  0  0  0  0  0  0  0  0  0  0  0
   -0.2830   14.3970   -0.3530 N   0  0  0  0  0  0  0  0  0  0  0  0
   -3.7070   15.0160   -1.2260 N   0  0  0  0  0  0  0  0  0  0  0  0
   -2.7450   14.7820    1.0630 C   0  0  0  0  0  0  0  0  0  0  0  0
   -0.4800   14.3730    1.1100 C   0  0  0  0  0  0  0  0  0  0  0  0
   -3.9310   14.9960    1.7130 N   0  0  0  0  0  0  0  0  0  0  0  0
   -1.6280   14.5530    1.7820 N   0  0  0  0  0  0  0  0  0  0  0  0
  1  2  1  0
  2  3  1  0
  1  4  2  0
  1  5  1  6
  1  6  1  0
  6  7  1  0
  7  8  2  0
  7  9  1  6
  7 10  1  0
 11  3  1  1
 10 12  1  0
 11 13  1  0
 11 14  1  0
 14 15  1  1
 14 16  1  0
 13 17  1  0
 16 17  1  0
 18 12  1  6
 16 19  1  1
 18 20  1  0
 18 21  1  0
 17 22  1  1
 20 23  1  6
 21 24  1  0
 20 25  1  0
 24 25  1  0
 22 26  1  0
 22 27  1  0
 24 28  1  1
 25 29  1  6
 26 30  2  0
 26 31  1  0
 27 32  2  0
 30 32  1  0
 30 33  1  0
 31 34  2  0
 33 35  1  0
 33 36  2  0
 34 36  1  0
M  END
