mArh-x0282_0_A-mArh-x1015_0_A
     RDKit          3D

 29 32  0  0  0  0  0  0  0  0999 V2000
   -7.0570   13.4590    0.4960 C   0  0  0  0  0  0  0  0  0  0  0  0
   -8.4390   13.7550    0.2950 O   0  0  0  0  0  0  0  0  0  0  0  0
   -6.2920   14.7600    0.2940 C   0  0  0  0  0  0  0  0  0  0  0  0
   -5.3380   15.0800    1.4630 C   0  0  0  0  0  0  0  0  0  0  0  0
   -5.5500   14.8710   -1.0420 C   0  0  0  0  0  0  0  0  0  0  0  0
   -4.0640   14.2710    1.4170 C   0  0  0  0  0  0  0  0  0  0  0  0
   -4.1320   14.2860   -1.0240 C   0  0  0  0  0  0  0  0  0  0  0  0
   -3.4480   14.5950    0.2170 N   0  0  0  0  0  0  0  0  0  0  0  0
   -2.0990   14.6720    0.2210 C   0  0  0  0  0  0  0  0  0  0  0  0
   -1.5550   14.7750   -0.9630 N   0  0  0  0  0  0  0  0  0  0  0  0
   -1.3990   14.6470    1.3790 N   0  0  0  0  0  0  0  0  0  0  0  0
   -0.2540   14.8730   -1.0350 C   0  0  0  0  0  0  0  0  0  0  0  0
   -0.0690   14.7470    1.2370 C   0  0  0  0  0  0  0  0  0  0  0  0
    0.2070   14.9640   -2.3160 N   0  0  0  0  0  0  0  0  0  0  0  0
    0.5520   14.8740    0.0170 C   0  0  0  0  0  0  0  0  0  0  0  0
    0.2390   13.8360   -2.8690 C   0  0  0  0  0  0  0  0  0  0  0  0
    0.5570   13.4270   -4.2700 C   0  0  2  0  0  0  0  0  0  0  0  0
   -0.0880   12.7530   -2.1200 N   0  0  0  0  0  0  0  0  0  0  0  0
   -0.4590   14.1510   -5.1510 C   0  0  0  0  0  0  0  0  0  0  0  0
    0.2740   11.9970   -4.1450 N   0  0  0  0  0  0  0  0  0  0  0  0
    0.2080   11.6220   -2.7990 C   0  0  0  0  0  0  0  0  0  0  0  0
    0.3680   10.5200   -2.2690 O   0  0  0  0  0  0  0  0  0  0  0  0
   -0.2740   11.2560   -5.2050 C   0  0  0  0  0  0  0  0  0  0  0  0
    0.1850   11.4560   -6.5110 C   0  0  0  0  0  0  0  0  0  0  0  0
   -1.2820   10.3050   -4.9940 C   0  0  0  0  0  0  0  0  0  0  0  0
   -0.3400   10.7290   -7.5760 C   0  0  0  0  0  0  0  0  0  0  0  0
   -1.8120    9.5720   -6.0570 C   0  0  0  0  0  0  0  0  0  0  0  0
   -1.3370    9.7880   -7.3440 C   0  0  0  0  0  0  0  0  0  0  0  0
   -1.9820    8.8880   -8.6540 Cl  0  0  0  0  0  0  0  0  0  0  0  0
  1  2  1  0
  1  3  1  0
  3  4  1  0
  3  5  1  0
  4  6  1  0
  5  7  1  0
  6  8  1  0
  7  8  1  0
  8  9  1  0
  9 10  2  0
  9 11  1  0
 10 12  1  0
 11 13  2  0
 12 14  1  0
 12 15  2  0
 13 15  1  0
 14 16  2  3
 16 17  1  0
 16 18  1  0
 17 19  1  6
 17 20  1  0
 18 21  1  0
 20 21  1  0
 21 22  2  0
 20 23  1  0
 23 24  2  0
 23 25  1  0
 24 26  1  0
 25 27  2  0
 26 28  2  0
 27 28  1  0
 28 29  1  0
M  END
