
     RDKit          3D

 13 13  0  0  0  0  0  0  0  0999 V2000
    2.0880   13.3100   -4.8740 C   0  0  0  0  0  0  0  0  0  0  0  0
    0.6810   11.5120   -5.5150 O   0  0  0  0  0  0  0  0  0  0  0  0
    0.8110   12.5690   -4.5550 C   0  0  1  0  0  0  0  0  0  0  0  0
    1.1210   12.8280   -2.1890 O   0  0  0  0  0  0  0  0  0  0  0  0
   -0.5450   10.8750   -5.6510 C   0  0  0  0  0  0  0  0  0  0  0  0
    0.7030   10.7740   -2.9790 O   0  0  0  0  0  0  0  0  0  0  0  0
   -1.7100   11.2270   -4.9780 C   0  0  0  0  0  0  0  0  0  0  0  0
   -2.8640   10.4780   -5.1630 C   0  0  0  0  0  0  0  0  0  0  0  0
   -2.8670    9.3980   -6.0210 C   0  0  0  0  0  0  0  0  0  0  0  0
   -1.7170    9.0380   -6.7040 C   0  0  0  0  0  0  0  0  0  0  0  0
   -0.5760    9.7800   -6.5030 C   0  0  0  0  0  0  0  0  0  0  0  0
    0.8870   12.0620   -3.1200 C   0  0  0  0  0  0  0  0  0  0  0  0
    0.5430    9.4510   -7.1730 F   0  0  0  0  0  0  0  0  0  0  0  0
  3  1  1  6
  3  2  1  0
  3 12  1  0
  2  5  1  0
  5  7  2  0
  5 11  1  0
 12  4  2  0
 12  6  1  0
  7  8  1  0
 11 10  2  0
 11 13  1  0
  8  9  2  0
  9 10  1  0
M  END
