mArh-x0524_0_A-mArh-x0711_0_A
     RDKit          3D

 33 35  0  0  0  0  0  0  0  0999 V2000
   -0.2270    8.5040   -7.8740 N   0  0  0  0  0  0  0  0  0  0  0  0
   -0.7970    9.5410   -7.1720 C   0  0  0  0  0  0  0  0  0  0  0  0
   -2.1130    9.2140   -6.4800 C   0  0  0  0  0  0  0  0  0  0  0  0
    0.7000    8.5830   -8.9300 C   0  0  0  0  0  0  0  0  0  0  0  0
   -0.2490   10.7170   -7.1170 N   0  0  0  0  0  0  0  0  0  0  0  0
    1.8100    7.7360   -8.9060 C   0  0  0  0  0  0  0  0  0  0  0  0
    0.5830    9.4630  -10.0070 C   0  0  0  0  0  0  0  0  0  0  0  0
   -0.8740   11.8130   -6.3820 C   0  0  0  0  0  0  0  0  0  0  0  0
    2.7730    7.7690   -9.9230 C   0  0  0  0  0  0  0  0  0  0  0  0
    1.5420    9.4940  -11.0260 C   0  0  0  0  0  0  0  0  0  0  0  0
   -0.5900   11.7080   -4.8810 C   0  0  0  0  0  0  0  0  0  0  0  0
    2.6500    8.6520  -11.0020 C   0  0  0  0  0  0  0  0  0  0  0  0
    3.6300    8.6600  -12.0040 N   0  0  0  0  0  0  0  0  0  0  0  0
   -1.4410   12.6220   -3.9950 C   0  0  0  0  0  0  0  0  0  0  0  0
   -0.5400   13.8690   -3.0760 S   0  0  0  0  0  0  0  0  0  0  0  0
    3.8770    9.5480  -13.0630 C   0  0  0  0  0  0  0  0  0  0  0  0
   -1.6750   15.0750   -2.8070 N   0  0  0  0  0  0  0  0  0  0  0  0
    0.4470   14.4500   -3.9630 O   0  0  0  0  0  0  0  0  0  0  0  0
   -0.1200   13.2860   -1.8180 O   0  0  0  0  0  0  0  0  0  0  0  0
    3.1890   10.7530  -13.2400 C   0  0  0  0  0  0  0  0  0  0  0  0
    4.8660    9.2150  -13.9930 C   0  0  0  0  0  0  0  0  0  0  0  0
    3.4800   11.5970  -14.3100 C   0  0  0  0  0  0  0  0  0  0  0  0
    5.1630   10.0580  -15.0660 C   0  0  0  0  0  0  0  0  0  0  0  0
   -2.8350   14.9490   -1.9840 C   0  0  0  0  0  0  0  0  0  0  0  0
    4.4700   11.2510  -15.2220 C   0  0  0  0  0  0  0  0  0  0  0  0
   -4.0800   15.1800   -2.5580 C   0  0  0  0  0  0  0  0  0  0  0  0
   -2.7460   14.6160   -0.6280 C   0  0  0  0  0  0  0  0  0  0  0  0
   -5.2450   15.0830   -1.8000 C   0  0  0  0  0  0  0  0  0  0  0  0
   -3.9150   14.5170    0.1430 C   0  0  0  0  0  0  0  0  0  0  0  0
   -5.1710   14.7510   -0.4460 C   0  0  0  0  0  0  0  0  0  0  0  0
   -6.3920   14.6370    0.3950 C   0  0  0  0  0  0  0  0  0  0  0  0
   -6.2240   14.6300    1.7470 N   0  0  0  0  0  0  0  0  0  0  0  0
   -7.5120   14.5600   -0.1020 O   0  0  0  0  0  0  0  0  0  0  0  0
  1  2  1  0
  2  3  1  0
  1  4  1  0
  2  5  2  3
  4  6  2  0
  4  7  1  0
  5  8  1  0
  6  9  1  0
  7 10  2  0
  8 11  1  0
  9 12  2  0
 10 12  1  0
 12 13  1  0
 11 14  1  0
 14 15  1  0
 13 16  1  0
 15 17  1  0
 15 18  2  0
 15 19  2  0
 16 20  2  0
 16 21  1  0
 20 22  1  0
 21 23  2  0
 17 24  1  0
 22 25  2  0
 23 25  1  0
 24 26  2  0
 24 27  1  0
 26 28  1  0
 27 29  2  0
 28 30  2  0
 29 30  1  0
 30 31  1  0
 31 32  1  0
 31 33  2  0
M  END
