
     RDKit          3D

 15 16  0  0  0  0  0  0  0  0999 V2000
   -8.6930   41.5000   -7.9690 N   0  0  0  0  0  0  0  0  0  0  0  0
   -9.5060   46.9740   -4.9230 C   0  0  0  0  0  0  0  0  0  0  0  0
  -10.3840   45.8690   -5.1530 O   0  0  0  0  0  0  0  0  0  0  0  0
   -9.9590   44.8470   -5.9670 C   0  0  0  0  0  0  0  0  0  0  0  0
   -4.9420   44.1210   -7.8970 N   0  0  0  0  0  0  0  0  0  0  0  0
  -10.8320   43.7690   -5.9580 C   0  0  0  0  0  0  0  0  0  0  0  0
  -10.5030   42.5990   -6.6190 C   0  0  0  0  0  0  0  0  0  0  0  0
   -9.2880   42.5350   -7.2900 C   0  0  0  0  0  0  0  0  0  0  0  0
   -7.4680   41.9130   -8.4230 C   0  0  0  0  0  0  0  0  0  0  0  0
   -7.2570   43.2200   -8.0910 C   0  0  0  0  0  0  0  0  0  0  0  0
   -6.1990   44.1400   -8.6410 C   0  0  0  0  0  0  0  0  0  0  0  0
   -4.1170   43.0130   -8.3400 C   0  0  0  0  0  0  0  0  0  0  0  0
   -4.2250   45.3690   -8.0930 C   0  0  0  0  0  0  0  0  0  0  0  0
   -8.4040   43.6280   -7.3260 C   0  0  0  0  0  0  0  0  0  0  0  0
   -8.7550   44.8000   -6.6610 C   0  0  0  0  0  0  0  0  0  0  0  0
  1  8  1  0
  1  9  1  0
  8  7  2  0
  8 14  1  0
  9 10  2  0
  2  3  1  0
  3  4  1  0
  4  6  2  0
  4 15  1  0
  6  7  1  0
 15 14  2  0
  5 11  1  0
  5 12  1  0
  5 13  1  0
 11 10  1  0
 14 10  1  0
M  END
