mArh-4gvw_0_A-mArh-x0729_2_B
     RDKit          3D

 32 33  0  0  0  0  0  0  0  0999 V2000
   -0.1740   18.9030   -6.3740 O   0  0  0  0  0  0  0  0  0  0  0  0
    0.0440   19.5320   -7.6740 S   0  0  0  0  0  0  0  0  0  0  0  0
    0.9380   20.6890   -7.6520 O   0  0  0  0  0  0  0  0  0  0  0  0
    0.2480   18.5780   -8.7750 O   0  0  0  0  0  0  0  0  0  0  0  0
   -1.5340   20.2420   -8.0580 C   0  0  0  0  0  0  0  0  0  0  0  0
   -1.8420   21.5790   -7.4100 C   0  0  0  0  0  0  0  0  0  0  0  0
   -3.3110   21.8770   -7.4460 N   0  0  0  0  0  0  0  0  0  0  0  0
   -3.7050   22.7980   -6.3640 C   0  0  0  0  0  0  0  0  0  0  0  0
   -3.7680   22.4260   -8.7310 C   0  0  0  0  0  0  0  0  0  0  0  0
   -5.2080   23.1450   -6.3500 C   0  0  2  0  0  0  0  0  0  0  0  0
   -5.2790   22.6980   -8.7540 C   0  0  0  0  0  0  0  0  0  0  0  0
   -5.9830   21.9460   -5.7420 C   0  0  0  0  0  0  0  0  0  0  0  0
   -5.7460   23.4860   -7.6460 O   0  0  0  0  0  0  0  0  0  0  0  0
   -6.6980   21.8920   -4.2550 C   0  0  0  0  0  0  0  0  0  0  0  0
   -8.1170   23.1020   -3.1290 C   0  0  0  0  0  0  0  0  0  0  0  0
  -10.2630   22.9510   -2.8360 C   0  0  0  0  0  0  0  0  0  0  0  0
  -11.2010   21.8310   -2.2570 C   0  0  0  0  0  0  0  0  0  0  0  0
  -12.6360   22.1060   -2.6910 C   0  0  0  0  0  0  0  0  0  0  0  0
  -12.9520   23.5990   -2.6060 C   0  0  0  0  0  0  0  0  0  0  0  0
  -13.9730   23.8490   -1.5810 C   0  0  0  0  0  0  0  0  0  0  0  0
  -14.8210   24.0380   -0.7570 C   0  0  0  0  0  0  0  0  0  0  0  0
  -15.8760   24.2450    0.2520 C   0  0  2  0  0  0  0  0  0  0  0  0
  -17.0180   25.0950   -0.3290 C   0  0  0  0  0  0  0  0  0  0  0  0
  -15.3270   24.9550    1.5010 C   0  0  2  0  0  0  0  0  0  0  0  0
  -14.1810   24.1960    2.1600 C   0  0  0  0  0  0  0  0  0  0  0  0
  -16.4420   25.1770    2.4660 N   0  0  0  0  0  0  0  0  0  0  0  0
  -17.2980   26.3620    0.4950 C   0  0  0  0  0  0  0  0  0  0  0  0
  -16.3300   24.7350    4.0920 S   0  0  0  0  0  0  0  0  0  0  0  0
  -17.4580   26.1220    1.9960 C   0  0  0  0  0  0  0  0  0  0  0  0
  -16.6360   25.8960    4.8990 O   0  0  0  0  0  0  0  0  0  0  0  0
  -15.1130   23.9870    4.2900 O   0  0  0  0  0  0  0  0  0  0  0  0
  -17.6830   23.5940    4.2780 C   0  0  0  0  0  0  0  0  0  0  0  0
  1  2  2  0
  2  3  2  0
  2  4  1  0
  2  5  1  0
  5  6  1  0
  6  7  1  0
  7  8  1  0
  7  9  1  0
  8 10  1  0
  9 11  1  0
 10 12  1  6
 10 13  1  0
 11 13  1  0
 12 14  1  0
 14 15  1  0
 15 16  1  0
 16 17  1  0
 17 18  1  0
 18 19  1  0
 19 20  1  0
 20 21  3  0
 22 21  1  6
 22 23  1  0
 22 24  1  0
 24 25  1  1
 24 26  1  0
 23 27  1  0
 26 28  1  0
 26 29  1  0
 27 29  1  0
 28 30  2  0
 28 31  2  0
 28 32  1  0
M  CHG  1   4  -1
M  END
