
     RDKit          3D

 15 16  0  0  0  0  0  0  0  0999 V2000
    3.8800   25.1820   16.4170 N   0  0  0  0  0  0  0  0  0  0  0  0
    7.4430   24.3080   17.3580 C   0  0  0  0  0  0  0  0  0  0  0  0
    5.5610   22.8260   17.1780 O   0  0  0  0  0  0  0  0  0  0  0  0
    5.9370   24.1930   17.3760 C   0  0  2  0  0  0  0  0  0  0  0  0
   -2.2860   26.0700   15.8380 O   0  0  0  0  0  0  0  0  0  0  0  0
    5.3290   25.0430   16.2610 C   0  0  0  0  0  0  0  0  0  0  0  0
   -1.2140   25.2250   13.9800 O   0  0  0  0  0  0  0  0  0  0  0  0
    3.3280   26.3430   15.7020 C   0  0  0  0  0  0  0  0  0  0  0  0
    1.8210   26.3890   15.7460 C   0  0  0  0  0  0  0  0  0  0  0  0
    1.1610   26.9120   16.8570 C   0  0  0  0  0  0  0  0  0  0  0  0
   -0.2190   26.8500   16.9790 C   0  0  0  0  0  0  0  0  0  0  0  0
   -0.9280   26.2590   15.9530 C   0  0  0  0  0  0  0  0  0  0  0  0
   -2.4860   25.6170   14.4990 C   0  0  0  0  0  0  0  0  0  0  0  0
   -0.2940   25.7720   14.8430 C   0  0  0  0  0  0  0  0  0  0  0  0
    1.0730   25.8320   14.7130 C   0  0  0  0  0  0  0  0  0  0  0  0
  1  6  1  0
  1  8  1  0
  6  4  1  0
  8  9  1  0
  4  2  1  6
  4  3  1  0
  5 12  1  0
  5 13  1  0
 12 11  2  0
 12 14  1  0
 13  7  1  0
  7 14  1  0
 14 15  2  0
  9 10  2  0
  9 15  1  0
 10 11  1  0
M  END
