mArh-6ywk_E_2_E-mArh-5fud_B_0_B
     RDKit          3D

 17 17  0  0  0  0  0  0  0  0999 V2000
    1.0910   20.9950   -7.7360 O   0  0  0  0  0  0  0  0  0  0  0  0
    0.3060   19.8520   -7.3220 S   0  0  0  0  0  0  0  0  0  0  0  0
    0.6990   18.9840   -6.2390 O   0  0  0  0  0  0  0  0  0  0  0  0
    0.0780   18.8440   -8.5950 O   0  0  0  0  0  0  0  0  0  0  0  0
   -1.3740   20.4820   -6.8760 C   0  0  0  0  0  0  0  0  0  0  0  0
   -2.3460   21.0390   -7.8920 C   0  0  2  0  0  0  0  0  0  0  0  0
   -1.7350   20.2910   -5.7300 O   0  0  0  0  0  0  0  0  0  0  0  0
   -1.5090   20.4930   -8.9560 C   0  0  0  0  0  0  0  0  0  0  0  0
   -2.6700   22.4530   -8.2640 N   0  0  0  0  0  0  0  0  0  0  0  0
   -3.0120   23.4680   -7.2670 C   0  0  0  0  0  0  0  0  0  0  0  0
   -3.9380   22.2610   -9.0140 C   0  0  0  0  0  0  0  0  0  0  0  0
   -4.1380   23.0520   -6.2940 C   0  0  0  0  0  0  0  0  0  0  0  0
   -5.0450   21.7200   -8.0730 C   0  0  0  0  0  0  0  0  0  0  0  0
   -5.3730   22.7180   -7.0440 N   0  0  0  0  0  0  0  0  0  0  0  0
   -5.7140   23.9810   -7.6920 C   0  0  0  0  0  0  0  0  0  0  0  0
   -6.8300   23.9630   -8.7520 C   0  0  0  0  0  0  0  0  0  0  0  0
   -7.2000   22.6350   -9.1260 O   0  0  0  0  0  0  0  0  0  0  0  0
  1  2  2  0
  2  3  2  0
  2  4  1  0
  2  5  1  0
  5  6  1  0
  5  7  2  0
  6  8  1  6
  6  9  1  0
  9 10  1  0
  9 11  1  0
 10 12  1  0
 11 13  1  0
 12 14  1  0
 13 14  1  0
 14 15  1  0
 15 16  1  0
 16 17  1  0
M  END
