mArh-4iqy_B_0_B-mArh-x0592_0_A
     RDKit          3D

 46 50  0  0  0  0  0  0  0  0999 V2000
   -1.4690   18.0430   -5.9760 P   0  0  2  0  0  0  0  0  0  0  0  0
   -0.0990   17.2890   -6.3560 O   0  0  0  0  0  0  0  0  0  0  0  0
    0.7760   16.7600   -5.3610 C   0  0  0  0  0  0  0  0  0  0  0  0
   -1.8750   18.0340   -4.5640 O   0  0  0  0  0  0  0  0  0  0  0  0
   -2.5780   17.3000   -6.8510 O   0  0  0  0  0  0  0  0  0  0  0  0
   -1.3610   19.4320   -6.6750 O   0  0  0  0  0  0  0  0  0  0  0  0
   -0.3590   19.7920   -7.8500 P   0  0  1  0  0  0  0  0  0  0  0  0
    0.9050   20.4900   -7.5280 O   0  0  0  0  0  0  0  0  0  0  0  0
   -0.1750   18.4790   -8.7350 O   0  0  0  0  0  0  0  0  0  0  0  0
   -1.3840   20.5830   -8.7380 O   0  0  0  0  0  0  0  0  0  0  0  0
    0.0710   15.5750   -4.7470 C   0  0  2  0  0  0  0  0  0  0  0  0
   -2.0220   21.6680   -8.1120 C   0  0  0  0  0  0  0  0  0  0  0  0
   -0.0100   15.6260   -3.3440 O   0  0  0  0  0  0  0  0  0  0  0  0
    0.4810   14.1190   -5.0040 C   0  0  1  0  0  0  0  0  0  0  0  0
    1.7690   13.7720   -4.5060 O   0  0  0  0  0  0  0  0  0  0  0  0
   -0.5990   13.4540   -4.1320 C   0  0  2  0  0  0  0  0  0  0  0  0
   -1.0570   14.6560   -3.2940 C   0  0  1  0  0  0  0  0  0  0  0  0
   -3.4220   21.8920   -8.6590 C   0  0  2  0  0  0  0  0  0  0  0  0
   -0.0430   12.3910   -3.3310 O   0  0  0  0  0  0  0  0  0  0  0  0
   -3.9440   23.2490   -8.2390 C   0  0  1  0  0  0  0  0  0  0  0  0
   -4.2920   20.9330   -8.0110 O   0  0  0  0  0  0  0  0  0  0  0  0
   -1.6870   14.6910   -2.0300 N   0  0  0  0  0  0  0  0  0  0  0  0
   -4.7810   23.8480   -9.2400 O   0  0  0  0  0  0  0  0  0  0  0  0
   -5.1210   21.5930   -7.0520 C   0  0  1  0  0  0  0  0  0  0  0  0
   -4.7060   23.0700   -6.9440 C   0  0  2  0  0  0  0  0  0  0  0  0
   -1.2650   14.6760   -0.7290 C   0  0  0  0  0  0  0  0  0  0  0  0
   -3.0860   14.7900   -2.0740 C   0  0  0  0  0  0  0  0  0  0  0  0
   -6.4520   21.4820   -7.5120 O   0  0  0  0  0  0  0  0  0  0  0  0
   -5.7810   23.9910   -6.7920 O   0  0  0  0  0  0  0  0  0  0  0  0
   -2.4570   14.7940   -0.0870 C   0  0  0  0  0  0  0  0  0  0  0  0
   -0.0750   14.5970   -0.1090 N   0  0  0  0  0  0  0  0  0  0  0  0
   -3.5400   14.8520   -0.8840 N   0  0  0  0  0  0  0  0  0  0  0  0
   -2.4240   14.8590    1.3760 C   0  0  0  0  0  0  0  0  0  0  0  0
   -0.2170   14.6430    1.2550 C   0  0  0  0  0  0  0  0  0  0  0  0
   -3.6730   15.0500    1.7420 N   0  0  0  0  0  0  0  0  0  0  0  0
   -1.3030   14.7610    2.0270 N   0  0  0  0  0  0  0  0  0  0  0  0
   -4.2690   15.4260    0.5840 C   0  0  0  0  0  0  0  0  0  0  0  0
   -3.6070   16.0540   -0.2240 O   0  0  0  0  0  0  0  0  0  0  0  0
   -5.5680   15.1020    0.2560 C   0  0  0  0  0  0  0  0  0  0  0  0
   -6.2380   15.2120   -0.9760 C   0  0  0  0  0  0  0  0  0  0  0  0
   -6.4540   14.6070    1.1220 C   0  0  0  0  0  0  0  0  0  0  0  0
   -7.5060   14.8080   -0.8720 N   0  0  0  0  0  0  0  0  0  0  0  0
   -7.5820   14.4570    0.4330 N   0  0  0  0  0  0  0  0  0  0  0  0
   -8.7640   13.9700    1.0530 C   0  0  0  0  0  0  0  0  0  0  0  0
   -8.4810   13.7900    2.5520 C   0  0  0  0  0  0  0  0  0  0  0  0
   -7.6480   14.8430    3.0650 O   0  0  0  0  0  0  0  0  0  0  0  0
  1  2  1  0
  2  3  1  0
  1  4  2  0
  1  5  1  6
  1  6  1  0
  6  7  1  0
  7  8  2  0
  7  9  1  6
  7 10  1  0
 11  3  1  1
 10 12  1  0
 11 13  1  0
 11 14  1  0
 14 15  1  1
 14 16  1  0
 13 17  1  0
 16 17  1  0
 18 12  1  1
 16 19  1  1
 18 20  1  0
 18 21  1  0
 17 22  1  1
 20 23  1  6
 21 24  1  0
 20 25  1  0
 24 25  1  0
 22 26  1  0
 22 27  1  0
 24 28  1  6
 25 29  1  6
 26 30  2  0
 26 31  1  0
 27 32  2  0
 30 32  1  0
 30 33  1  0
 31 34  2  0
 33 35  1  0
 33 36  2  0
 34 36  1  0
 35 37  1  0
 37 38  2  0
 37 39  1  0
 39 40  1  0
 39 41  2  0
 40 42  2  0
 41 43  1  0
 42 43  1  0
 43 44  1  0
 44 45  1  0
 45 46  1  0
M  END
