mArh-5cms_D_3_D-mArh-5cb5_M_1_M
     RDKit          3D

 39 42  0  0  0  0  0  0  0  0999 V2000
   -1.6990   18.0490   -6.3350 P   0  0  0  0  0  0  0  0  0  0  0  0
   -0.8320   16.7440   -5.7940 O   0  0  0  0  0  0  0  0  0  0  0  0
    0.3010   16.9560   -5.0610 C   0  0  0  0  0  0  0  0  0  0  0  0
   -2.9470   17.1520   -6.2120 O   0  0  0  0  0  0  0  0  0  0  0  0
   -2.2700   19.0930   -5.1810 O   0  0  0  0  0  0  0  0  0  0  0  0
   -0.5270   19.0050   -6.6450 O   0  0  0  0  0  0  0  0  0  0  0  0
   -0.3550   19.8770   -7.9280 P   0  0  0  0  0  0  0  0  0  0  0  0
   -1.7970   20.5780   -7.7720 O   0  0  0  0  0  0  0  0  0  0  0  0
   -0.1460   18.4880   -8.7990 O   0  0  0  0  0  0  0  0  0  0  0  0
    1.0270   20.6500   -7.4020 O   0  0  0  0  0  0  0  0  0  0  0  0
    0.7290   15.7870   -4.1690 C   0  0  1  0  0  0  0  0  0  0  0  0
   -2.0950   21.8860   -8.0630 C   0  0  0  0  0  0  0  0  0  0  0  0
    0.0140   15.6600   -2.9620 O   0  0  0  0  0  0  0  0  0  0  0  0
    0.5690   14.3470   -4.6620 C   0  0  2  0  0  0  0  0  0  0  0  0
    1.0080   14.1040   -5.9400 O   0  0  0  0  0  0  0  0  0  0  0  0
   -1.2140   15.0610   -3.3740 C   0  0  1  0  0  0  0  0  0  0  0  0
   -0.9190   14.1510   -4.5200 C   0  0  2  0  0  0  0  0  0  0  0  0
   -3.4260   21.8170   -8.8140 C   0  0  1  0  0  0  0  0  0  0  0  0
   -1.1130   12.7940   -4.2270 O   0  0  0  0  0  0  0  0  0  0  0  0
   -2.0500   14.5330   -2.3520 N   0  0  0  0  0  0  0  0  0  0  0  0
   -4.1690   21.0620   -7.9640 O   0  0  0  0  0  0  0  0  0  0  0  0
   -4.3430   22.9890   -8.9390 C   0  0  2  0  0  0  0  0  0  0  0  0
   -3.8120   24.1220   -9.5020 O   0  0  0  0  0  0  0  0  0  0  0  0
   -1.6890   14.3220   -0.9620 C   0  0  2  0  0  0  0  0  0  0  0  0
   -3.4690   14.7120   -2.4040 C   0  0  0  0  0  0  0  0  0  0  0  0
   -4.7430   23.2110   -7.5110 C   0  0  2  0  0  0  0  0  0  0  0  0
   -5.1540   21.7970   -7.3290 C   0  0  2  0  0  0  0  0  0  0  0  0
   -5.8220   24.1080   -7.4320 O   0  0  0  0  0  0  0  0  0  0  0  0
   -5.2610   21.4820   -5.9610 O   0  0  0  0  0  0  0  0  0  0  0  0
   -2.9490   14.9550   -0.3040 C   0  0  1  0  0  0  0  0  0  0  0  0
   -0.5090   14.9220   -0.4590 N   0  0  0  0  0  0  0  0  0  0  0  0
   -3.9140   14.3020   -1.0660 N   0  0  0  0  0  0  0  0  0  0  0  0
   -6.8010   23.9380   -8.4020 C   0  0  0  0  0  0  0  0  0  0  0  0
   -2.9170   14.7330    1.1660 C   0  0  2  0  0  0  0  0  0  0  0  0
   -0.4990   14.7190    0.9610 C   0  0  0  0  0  0  0  0  0  0  0  0
   -3.9660   15.5620    1.7500 N   0  0  0  0  0  0  0  0  0  0  0  0
   -7.6820   24.9600   -9.0210 C   0  0  0  0  0  0  0  0  0  0  0  0
   -7.0160   22.7790   -8.8190 O   0  0  0  0  0  0  0  0  0  0  0  0
   -1.6500   15.3110    1.5880 N   0  0  0  0  0  0  0  0  0  0  0  0
  1  2  1  0
  2  3  1  0
  1  4  1  0
  1  5  1  0
  1  6  1  0
  6  7  1  0
  7  8  1  0
  7  9  1  0
  7 10  1  0
 11  3  1  6
  8 12  1  0
 11 13  1  0
 11 14  1  0
 14 15  1  6
 13 16  1  0
 14 17  1  0
 16 17  1  0
 18 12  1  1
 17 19  1  1
 16 20  1  1
 18 21  1  0
 18 22  1  0
 22 23  1  1
 20 24  1  0
 20 25  1  0
 22 26  1  0
 21 27  1  0
 26 27  1  0
 26 28  1  6
 27 29  1  1
 24 30  1  0
 24 31  1  1
 25 32  1  0
 30 32  1  6
 28 33  1  0
 30 34  1  0
 31 35  1  0
 34 36  1  1
 33 37  1  0
 33 38  2  0
 34 39  1  0
 35 39  1  0
M  CHG  2   4  -1   9  -1
M  END
