
     RDKit          3D

 36 39  0  0  0  0  0  0  0  0999 V2000
   -1.8090   18.0930   -6.4640 P   0  0  0  0  0  0  0  0  0  0  0  0
   -0.2400   19.7710   -8.2780 P   0  0  0  0  0  0  0  0  0  0  0  0
    0.4680   16.8860   -5.8940 C   0  0  0  0  0  0  0  0  0  0  0  0
   -0.8470   16.7770   -6.3930 O   0  0  0  0  0  0  0  0  0  0  0  0
    0.5920   15.8030   -4.8310 C   0  0  1  0  0  0  0  0  0  0  0  0
   -0.2600   16.1100   -3.7170 O   0  0  0  0  0  0  0  0  0  0  0  0
    0.1080   14.4330   -5.3480 C   0  0  1  0  0  0  0  0  0  0  0  0
    1.2400   13.5350   -5.3590 O   0  0  0  0  0  0  0  0  0  0  0  0
   -0.8700   13.9190   -4.3130 C   0  0  1  0  0  0  0  0  0  0  0  0
   -0.4650   12.6130   -3.9160 O   0  0  0  0  0  0  0  0  0  0  0  0
   -0.5230   14.7980   -3.1620 C   0  0  2  0  0  0  0  0  0  0  0  0
   -5.0890   21.7010   -7.8700 C   0  0  1  0  0  0  0  0  0  0  0  0
   -1.0630   15.1840    1.8310 N   0  0  0  0  0  0  0  0  0  0  0  0
   -2.7190   17.7850   -7.6890 O   0  0  0  0  0  0  0  0  0  0  0  0
    0.8290   20.8940   -8.0520 O   0  0  0  0  0  0  0  0  0  0  0  0
   -5.0980   20.9670   -6.6260 O   0  0  0  0  0  0  0  0  0  0  0  0
    0.0340   14.9250    1.0660 C   0  0  0  0  0  0  0  0  0  0  0  0
   -4.6630   23.1530   -7.7540 C   0  0  2  0  0  0  0  0  0  0  0  0
   -2.4130   18.2640   -5.0320 O   0  0  0  0  0  0  0  0  0  0  0  0
    0.2000   18.5060   -9.0880 O   0  0  0  0  0  0  0  0  0  0  0  0
   -5.7240   23.9680   -8.2990 O   0  0  0  0  0  0  0  0  0  0  0  0
   -3.5620   23.3860   -8.7510 C   0  0  2  0  0  0  0  0  0  0  0  0
   -0.0170   14.8580   -0.2830 N   0  0  0  0  0  0  0  0  0  0  0  0
   -0.8460   19.4080   -6.8080 O   0  0  0  0  0  0  0  0  0  0  0  0
   -4.1530   23.8700   -9.9820 O   0  0  0  0  0  0  0  0  0  0  0  0
   -1.2230   15.0130   -0.9090 C   0  0  0  0  0  0  0  0  0  0  0  0
   -3.0950   22.0350   -9.1430 C   0  0  2  0  0  0  0  0  0  0  0  0
   -4.1250   21.1210   -8.7550 O   0  0  0  0  0  0  0  0  0  0  0  0
   -2.4740   15.2530   -0.1530 C   0  0  0  0  0  0  0  0  0  0  0  0
   -1.8290   21.6500   -8.4380 C   0  0  0  0  0  0  0  0  0  0  0  0
   -1.4770   20.4260   -9.0690 O   0  0  0  0  0  0  0  0  0  0  0  0
   -2.3140   15.3530    1.3270 C   0  0  0  0  0  0  0  0  0  0  0  0
   -3.3330   15.5530    2.1910 N   0  0  0  0  0  0  0  0  0  0  0  0
   -3.4600   15.3420   -1.0910 N   0  0  0  0  0  0  0  0  0  0  0  0
   -2.8800   15.1890   -2.3160 C   0  0  0  0  0  0  0  0  0  0  0  0
   -1.5600   14.9730   -2.1760 N   0  0  0  0  0  0  0  0  0  0  0  0
  1  4  1  0
  1 14  2  0
  1 19  1  0
  1 24  1  0
  4  3  1  0
 24  2  1  0
  2 15  2  0
  2 20  1  0
  2 31  1  0
 31 30  1  0
  5  3  1  6
  5  6  1  0
  5  7  1  0
  6 11  1  0
  7  8  1  1
  7  9  1  0
 11  9  1  0
 11 36  1  1
  9 10  1  1
 36 26  1  0
 36 35  1  0
 12 16  1  1
 12 18  1  0
 12 28  1  0
 18 21  1  6
 18 22  1  0
 28 27  1  0
 13 17  2  0
 13 32  1  0
 17 23  1  0
 32 29  2  0
 32 33  1  0
 23 26  2  0
 22 25  1  6
 22 27  1  0
 27 30  1  1
 26 29  1  0
 29 34  1  0
 34 35  2  0
M  END
