
     RDKit          3D

 12 12  0  0  0  0  0  0  0  0999 V2000
   -0.1670   11.7650   -5.3180 N   0  0  0  0  0  0  0  0  0  0  0  0
    0.4930   11.3100   -6.4470 C   0  0  0  0  0  0  0  0  0  0  0  0
    1.4850   11.9040   -6.8540 O   0  0  0  0  0  0  0  0  0  0  0  0
    0.4900   12.7610   -4.4850 C   0  0  0  0  0  0  0  0  0  0  0  0
    0.6860   10.8930   -2.9950 O   0  0  0  0  0  0  0  0  0  0  0  0
    0.8530   12.1820   -3.1370 C   0  0  0  0  0  0  0  0  0  0  0  0
    1.2630   12.8810   -2.2450 O   0  0  0  0  0  0  0  0  0  0  0  0
   -1.3940   11.2920   -4.9530 C   0  0  0  0  0  0  0  0  0  0  0  0
   -1.9830   10.2740   -5.5960 C   0  0  0  0  0  0  0  0  0  0  0  0
   -1.2690    9.7340   -6.6990 C   0  0  0  0  0  0  0  0  0  0  0  0
   -0.0920   10.2320   -7.1290 C   0  0  0  0  0  0  0  0  0  0  0  0
   -1.9680    8.2180   -7.5460 Br  0  0  0  0  0  0  0  0  0  0  0  0
  1  2  1  0
  1  4  1  0
  1  8  1  0
  2  3  2  0
  2 11  1  0
  4  6  1  0
  8  9  2  0
 11 10  2  0
  6  5  1  0
  6  7  2  0
  9 10  1  0
 10 12  1  0
M  END
