mArh-1spv_0_A-mArh-5cms_B_1_B
     RDKit          3D

 42 46  0  0  0  0  0  0  0  0999 V2000
   -1.4690   18.4470   -8.0150 O   0  0  0  0  0  0  0  0  0  0  0  0
   -1.8040   19.4620   -7.1130 S   0  0  0  0  0  0  0  0  0  0  0  0
   -0.6570   20.1720   -6.6580 O   0  0  0  0  0  0  0  0  0  0  0  0
   -2.2500   18.9240   -5.7510 O   0  0  0  0  0  0  0  0  0  0  0  0
   -3.4140   20.4040   -7.3980 C   0  0  0  0  0  0  0  0  0  0  0  0
   -3.7390   21.6010   -8.4340 C   0  0  0  0  0  0  0  0  0  0  0  0
   -1.8940   17.4510   -5.8070 P   0  0  2  0  0  0  0  0  0  0  0  0
   -0.2920   17.3890   -6.0480 O   0  0  0  0  0  0  0  0  0  0  0  0
   -2.7530   16.5610   -6.5950 O   0  0  0  0  0  0  0  0  0  0  0  0
   -2.1660   17.2090   -4.3020 O   0  0  0  0  0  0  0  0  0  0  0  0
   -3.4650   22.7770   -7.6490 N   0  0  0  0  0  0  0  0  0  0  0  0
   -4.1960   22.0890   -9.9250 C   0  0  2  0  0  0  0  0  0  0  0  0
    0.5930   16.5980   -5.2410 C   0  0  0  0  0  0  0  0  0  0  0  0
   -4.2130   23.8820   -8.1550 C   0  0  0  0  0  0  0  0  0  0  0  0
   -3.9630   22.5750   -6.3050 C   0  0  0  0  0  0  0  0  0  0  0  0
   -3.5970   21.8620  -11.3560 C   0  0  1  0  0  0  0  0  0  0  0  0
   -3.8880   23.5320   -9.8490 O   0  0  0  0  0  0  0  0  0  0  0  0
   -4.6030   21.5990  -12.3360 O   0  0  0  0  0  0  0  0  0  0  0  0
   -5.5610   23.5430   -8.3040 C   0  0  0  0  0  0  0  0  0  0  0  0
   -5.4270   22.1900   -6.4170 C   0  0  0  0  0  0  0  0  0  0  0  0
   -0.1740   15.4400   -4.6450 C   0  0  2  0  0  0  0  0  0  0  0  0
   -3.6480   24.1250  -11.1450 C   0  0  2  0  0  0  0  0  0  0  0  0
   -3.2110   23.1770  -11.9840 C   0  0  2  0  0  0  0  0  0  0  0  0
   -2.5760   25.0500  -11.1740 O   0  0  0  0  0  0  0  0  0  0  0  0
   -3.8330   23.3850  -13.2410 O   0  0  0  0  0  0  0  0  0  0  0  0
   -6.1330   23.2780   -7.0120 O   0  0  0  0  0  0  0  0  0  0  0  0
    0.0180   15.3020   -3.2500 O   0  0  0  0  0  0  0  0  0  0  0  0
   -0.0070   13.9900   -5.1570 C   0  0  1  0  0  0  0  0  0  0  0  0
    1.3280   13.5070   -5.2510 O   0  0  0  0  0  0  0  0  0  0  0  0
   -0.7900   13.2530   -4.0430 C   0  0  2  0  0  0  0  0  0  0  0  0
   -1.1240   14.4790   -3.1970 C   0  0  1  0  0  0  0  0  0  0  0  0
    0.0640   12.3010   -3.3860 O   0  0  0  0  0  0  0  0  0  0  0  0
   -1.8810   14.6910   -1.9970 N   0  0  0  0  0  0  0  0  0  0  0  0
   -1.5770   14.6900   -0.6620 C   0  0  0  0  0  0  0  0  0  0  0  0
   -3.2250   15.0020   -2.1460 C   0  0  0  0  0  0  0  0  0  0  0  0
   -2.9190   15.0640   -0.0800 C   0  0  0  0  0  0  0  0  0  0  0  0
   -0.4250   14.4470   -0.0260 N   0  0  0  0  0  0  0  0  0  0  0  0
   -3.8730   15.2300   -1.0310 N   0  0  0  0  0  0  0  0  0  0  0  0
   -2.8770   15.1640    1.3000 C   0  0  0  0  0  0  0  0  0  0  0  0
   -0.6040   14.5770    1.2960 C   0  0  0  0  0  0  0  0  0  0  0  0
   -4.0130   15.5380    2.0030 N   0  0  0  0  0  0  0  0  0  0  0  0
   -1.7260   14.9090    1.9650 N   0  0  0  0  0  0  0  0  0  0  0  0
  1  2  2  0
  2  3  2  0
  2  4  1  0
  2  5  1  0
  5  6  1  0
  4  7  1  0
  7  8  1  0
  7  9  2  0
  7 10  1  1
  6 11  1  0
 12  6  1  1
  8 13  1  0
 11 14  1  0
 11 15  1  0
 12 16  1  0
 12 17  1  0
 16 18  1  6
 14 19  1  0
 15 20  1  0
 21 13  1  6
 17 22  1  0
 16 23  1  0
 22 23  1  0
 22 24  1  1
 23 25  1  6
 19 26  1  0
 20 26  1  0
 21 27  1  0
 21 28  1  0
 28 29  1  1
 28 30  1  0
 27 31  1  0
 30 31  1  0
 30 32  1  1
 31 33  1  1
 33 34  1  0
 33 35  1  0
 34 36  2  0
 34 37  1  0
 35 38  2  0
 36 38  1  0
 36 39  1  0
 37 40  2  0
 39 41  1  0
 39 42  2  0
 40 42  1  0
M  END
