mArh-x0727_0_A-mArh-x0805_0_A
     RDKit          3D

 27 29  0  0  0  0  0  0  0  0999 V2000
    0.4980   11.0940   -5.7690 N   0  0  0  0  0  0  0  0  0  0  0  0
    1.2910   12.1060   -5.1940 C   0  0  1  0  0  0  0  0  0  0  0  0
    0.7650   13.3310   -5.9180 C   0  0  0  0  0  0  0  0  0  0  0  0
    0.5160   10.7980   -7.0690 C   0  0  0  0  0  0  0  0  0  0  0  0
    1.3580   11.1580   -7.8600 O   0  0  0  0  0  0  0  0  0  0  0  0
    0.9360   12.1480   -3.7110 C   0  0  0  0  0  0  0  0  0  0  0  0
   -0.6680    9.9360   -7.3000 C   0  0  0  0  0  0  0  0  0  0  0  0
    0.2570   10.9990   -3.2050 O   0  0  0  0  0  0  0  0  0  0  0  0
    1.9980   12.4820   -2.8260 O   0  0  0  0  0  0  0  0  0  0  0  0
   -1.1140    9.7040   -8.7150 C   0  0  0  0  0  0  0  0  0  0  0  0
   -0.4490    8.5260   -6.7940 C   0  0  0  0  0  0  0  0  0  0  0  0
   -0.0100   13.2670   -3.9110 C   0  0  2  0  0  0  0  0  0  0  0  0
   -2.2010    8.6590   -8.4630 C   0  0  0  0  0  0  0  0  0  0  0  0
   -1.7540    7.8800   -7.2120 C   0  0  0  0  0  0  0  0  0  0  0  0
    0.6200   14.1650   -4.9760 C   0  0  0  0  0  0  0  0  0  0  0  0
   -0.2990   14.0560   -2.6970 C   0  0  2  0  0  0  0  0  0  0  0  0
   -1.7720   14.0820   -2.4180 C   0  0  0  0  0  0  0  0  0  0  0  0
    1.9150   14.4720   -4.4890 O   0  0  0  0  0  0  0  0  0  0  0  0
    0.3590   15.4280   -2.8370 C   0  0  0  0  0  0  0  0  0  0  0  0
   -2.7030   13.3490   -3.1750 C   0  0  0  0  0  0  0  0  0  0  0  0
   -2.2030   14.8550   -1.3790 C   0  0  0  0  0  0  0  0  0  0  0  0
    1.7650   15.3790   -3.4370 C   0  0  0  0  0  0  0  0  0  0  0  0
   -3.5300   14.9580   -1.0520 C   0  0  0  0  0  0  0  0  0  0  0  0
   -4.0540   13.4260   -2.8560 C   0  0  0  0  0  0  0  0  0  0  0  0
   -4.0130   15.7330   -0.0400 O   0  0  0  0  0  0  0  0  0  0  0  0
   -4.4670   14.2360   -1.7910 C   0  0  0  0  0  0  0  0  0  0  0  0
   -4.3100   15.1200    1.2040 C   0  0  0  0  0  0  0  0  0  0  0  0
  1  2  1  0
  2  3  1  6
  1  4  1  0
  4  5  2  0
  2  6  1  0
  4  7  1  0
  6  8  1  0
  6  9  1  0
  7 10  1  0
  7 11  1  0
 12  6  1  1
 10 13  1  0
 11 14  1  0
 13 14  1  0
 12 15  1  0
 12 16  1  0
 16 17  1  6
 15 18  1  0
 16 19  1  0
 17 20  2  0
 17 21  1  0
 18 22  1  0
 19 22  1  0
 21 23  2  0
 20 24  1  0
 23 25  1  0
 23 26  1  0
 24 26  2  0
 25 27  1  0
M  END
