
     RDKit          3D

 14 14  0  0  0  0  0  0  0  0999 V2000
    4.0250   24.8460   16.7040 N   0  0  0  0  0  0  0  0  0  0  0  0
    5.7300   23.0980   16.8940 C   0  0  0  0  0  0  0  0  0  0  0  0
    5.4770   24.5760   16.6970 C   0  0  2  0  0  0  0  0  0  0  0  0
   -2.0740   26.2370   15.8790 N   0  0  0  0  0  0  0  0  0  0  0  0
    6.1760   25.4040   17.7500 C   0  0  0  0  0  0  0  0  0  0  0  0
    3.6240   26.1900   16.2630 C   0  0  0  0  0  0  0  0  0  0  0  0
    2.1220   26.2960   16.1510 C   0  0  0  0  0  0  0  0  0  0  0  0
    1.4870   26.0960   14.9360 C   0  0  0  0  0  0  0  0  0  0  0  0
    0.1080   26.0720   14.8390 C   0  0  0  0  0  0  0  0  0  0  0  0
   -0.6900   26.2540   15.9700 C   0  0  0  0  0  0  0  0  0  0  0  0
   -0.0460   26.4790   17.1940 C   0  0  0  0  0  0  0  0  0  0  0  0
    1.3360   26.5070   17.2730 C   0  0  0  0  0  0  0  0  0  0  0  0
   -2.9210   26.4030   17.0510 C   0  0  0  0  0  0  0  0  0  0  0  0
   -2.7460   25.9970   14.6110 C   0  0  0  0  0  0  0  0  0  0  0  0
  1  3  1  0
  1  6  1  0
  3  2  1  1
  3  5  1  0
  6  7  1  0
  4 10  1  0
  4 13  1  0
  4 14  1  0
 10  9  2  0
 10 11  1  0
  7  8  2  0
  7 12  1  0
  8  9  1  0
 12 11  2  0
M  END
