mArh-x0104_0_A-mArh-x0933_0_A
     RDKit          3D

 17 18  0  0  0  0  0  0  0  0999 V2000
   -6.7920   14.6690    2.7010 N   0  0  0  0  0  0  0  0  0  0  0  0
   -8.0240   15.1050    3.1780 C   0  0  0  0  0  0  0  0  0  0  0  0
   -7.9920   15.2300    4.5610 N   0  0  0  0  0  0  0  0  0  0  0  0
   -6.2500   14.7560    1.4030 C   0  0  0  0  0  0  0  0  0  0  0  0
   -8.9950   15.3420    2.4710 O   0  0  0  0  0  0  0  0  0  0  0  0
   -4.8900   14.9160    1.1240 C   0  0  0  0  0  0  0  0  0  0  0  0
   -7.1190   14.6820    0.3140 C   0  0  0  0  0  0  0  0  0  0  0  0
   -4.3700   15.0020   -0.1270 N   0  0  0  0  0  0  0  0  0  0  0  0
   -6.6110   14.7720   -0.9780 C   0  0  0  0  0  0  0  0  0  0  0  0
   -9.0990   15.1800    5.3810 C   0  0  0  0  0  0  0  0  0  0  0  0
   -5.2470   14.9300   -1.1480 C   0  0  0  0  0  0  0  0  0  0  0  0
   -9.2560   15.2360    6.7480 C   0  0  0  0  0  0  0  0  0  0  0  0
  -10.5860   15.0150    4.5650 S   0  0  0  0  0  0  0  0  0  0  0  0
   -4.8150   15.0090   -2.4550 O   0  0  0  0  0  0  0  0  0  0  0  0
  -11.4630   15.0190    6.0390 C   0  0  0  0  0  0  0  0  0  0  0  0
  -10.6290   15.1430    7.1280 C   0  0  0  0  0  0  0  0  0  0  0  0
   -3.4020   15.0830   -2.5880 C   0  0  0  0  0  0  0  0  0  0  0  0
  1  2  1  0
  2  3  1  0
  1  4  1  0
  2  5  2  0
  4  6  2  0
  4  7  1  0
  6  8  1  0
  7  9  2  0
  3 10  1  0
  8 11  2  0
  9 11  1  0
 10 12  2  0
 10 13  1  0
 11 14  1  0
 13 15  1  0
 12 16  1  0
 15 16  2  0
 14 17  1  0
M  END
