mArh-x0844_0_A-mArh-x0933_0_A
     RDKit          3D

  8  8  0  0  0  0  0  0  0  0999 V2000
   -7.6090   14.8600    0.0100 O   0  0  0  0  0  0  0  0  0  0  0  0
   -6.3800   14.8190   -0.0100 C   0  0  0  0  0  0  0  0  0  0  0  0
   -5.6500   14.8330    1.1570 N   0  0  0  0  0  0  0  0  0  0  0  0
   -5.5980   14.7490   -1.3040 C   0  0  0  0  0  0  0  0  0  0  0  0
   -4.3000   14.9890    1.1970 C   0  0  0  0  0  0  0  0  0  0  0  0
   -4.2190   15.3690   -1.2000 C   0  0  2  0  0  0  0  0  0  0  0  0
   -3.0480   14.6310   -2.5780 Br  0  0  0  0  0  0  0  0  0  0  0  0
   -3.5610   15.2360    0.1270 C   0  0  0  0  0  0  0  0  0  0  0  0
  1  2  2  0
  2  3  1  0
  2  4  1  0
  3  5  1  0
  4  6  1  0
  6  7  1  6
  5  8  2  0
  6  8  1  0
M  END
