
     RDKit          3D

 36 39  0  0  0  0  0  0  0  0999 V2000
   -1.4760   18.1820   -5.6930 P   0  0  0  0  0  0  0  0  0  0  0  0
   -0.0000   19.7490   -7.7050 P   0  0  0  0  0  0  0  0  0  0  0  0
    0.7120   16.9840   -4.8910 C   0  0  0  0  0  0  0  0  0  0  0  0
   -0.5470   16.8850   -5.5840 O   0  0  0  0  0  0  0  0  0  0  0  0
    1.0890   15.6330   -4.3290 C   0  0  1  0  0  0  0  0  0  0  0  0
    0.4740   15.4790   -3.0220 O   0  0  0  0  0  0  0  0  0  0  0  0
    0.6450   14.4050   -5.1350 C   0  0  1  0  0  0  0  0  0  0  0  0
    1.5480   13.3240   -4.9600 O   0  0  0  0  0  0  0  0  0  0  0  0
   -0.6700   14.0300   -4.4520 C   0  0  1  0  0  0  0  0  0  0  0  0
   -1.0160   12.6810   -4.6820 O   0  0  0  0  0  0  0  0  0  0  0  0
   -0.2930   14.3000   -3.0010 C   0  0  2  0  0  0  0  0  0  0  0  0
   -4.8440   22.0460   -6.9670 C   0  0  1  0  0  0  0  0  0  0  0  0
   -1.5690   14.5490    1.9150 N   0  0  0  0  0  0  0  0  0  0  0  0
   -1.8970   18.5990   -4.3190 O   0  0  0  0  0  0  0  0  0  0  0  0
    1.0740   20.7720   -7.5420 O   0  0  0  0  0  0  0  0  0  0  0  0
   -5.2980   21.4420   -5.8220 O   0  0  0  0  0  0  0  0  0  0  0  0
   -0.4200   14.2790    1.2840 C   0  0  0  0  0  0  0  0  0  0  0  0
   -4.1540   23.3800   -6.6730 C   0  0  2  0  0  0  0  0  0  0  0  0
   -2.4850   17.9080   -6.7530 O   0  0  0  0  0  0  0  0  0  0  0  0
    0.2730   18.5040   -8.4840 O   0  0  0  0  0  0  0  0  0  0  0  0
   -5.0340   24.4200   -6.3140 O   0  0  0  0  0  0  0  0  0  0  0  0
   -3.3990   23.5870   -7.9800 C   0  0  2  0  0  0  0  0  0  0  0  0
   -0.1670   14.2180   -0.0190 N   0  0  0  0  0  0  0  0  0  0  0  0
   -0.5340   19.3590   -6.2460 O   0  0  0  0  0  0  0  0  0  0  0  0
   -4.2120   24.0470   -9.0490 O   0  0  0  0  0  0  0  0  0  0  0  0
   -1.2790   14.4700   -0.7210 C   0  0  0  0  0  0  0  0  0  0  0  0
   -2.9480   22.1540   -8.2980 C   0  0  2  0  0  0  0  0  0  0  0  0
   -3.8240   21.2770   -7.5520 O   0  0  0  0  0  0  0  0  0  0  0  0
   -2.5310   14.7450   -0.2260 C   0  0  0  0  0  0  0  0  0  0  0  0
   -1.5290   21.8030   -7.9270 C   0  0  0  0  0  0  0  0  0  0  0  0
   -1.2770   20.4520   -8.3310 O   0  0  0  0  0  0  0  0  0  0  0  0
   -2.6780   14.7610    1.1710 C   0  0  0  0  0  0  0  0  0  0  0  0
   -3.8210   15.0340    1.7920 N   0  0  0  0  0  0  0  0  0  0  0  0
   -3.4220   14.9490   -1.2710 N   0  0  0  0  0  0  0  0  0  0  0  0
   -2.6990   14.8200   -2.3590 C   0  0  0  0  0  0  0  0  0  0  0  0
   -1.3930   14.5100   -2.0810 N   0  0  0  0  0  0  0  0  0  0  0  0
  1  4  1  0
  1 14  2  0
  1 19  1  0
  1 24  1  0
  4  3  1  0
 24  2  1  0
  2 15  2  0
  2 20  1  0
  2 31  1  0
 31 30  1  0
  5  3  1  6
  5  6  1  0
  5  7  1  0
  6 11  1  0
  7  8  1  1
  7  9  1  0
 11  9  1  0
 11 36  1  1
  9 10  1  1
 36 26  1  0
 36 35  1  0
 12 16  1  1
 12 18  1  0
 12 28  1  0
 18 21  1  6
 18 22  1  0
 28 27  1  0
 13 17  2  0
 13 32  1  0
 17 23  1  0
 32 29  2  0
 32 33  1  0
 23 26  2  0
 22 25  1  6
 22 27  1  0
 27 30  1  1
 26 29  1  0
 29 34  1  0
 34 35  2  0
M  END
