mArh-x0631_0_A-mArh-5cms_J_9_J
     RDKit          3D

 55 60  0  0  0  0  0  0  0  0999 V2000
   -2.7310    8.2300   -7.9630 C   0  0  0  0  0  0  0  0  0  0  0  0
   -1.4360    7.9850   -7.1900 C   0  0  0  0  0  0  0  0  0  0  0  0
   -0.9530    9.3130   -6.6450 C   0  0  1  0  0  0  0  0  0  0  0  0
   -0.5600    9.2310   -5.1530 C   0  0  0  0  0  0  0  0  0  0  0  0
   -0.0790    9.9360   -7.6380 N   0  0  0  0  0  0  0  0  0  0  0  0
   -0.4070   10.5420   -4.3400 C   0  0  0  0  0  0  0  0  0  0  0  0
    0.5240   11.0930   -7.4010 N   0  0  0  0  0  0  0  0  0  0  0  0
    0.1450    9.3990   -8.8720 N   0  0  0  0  0  0  0  0  0  0  0  0
    0.1100   11.5950   -5.3500 C   0  0  0  0  0  0  0  0  0  0  0  0
    1.1500   11.3580   -8.5120 N   0  0  0  0  0  0  0  0  0  0  0  0
    0.9200   10.3530   -9.3980 C   0  0  0  0  0  0  0  0  0  0  0  0
    1.4830   10.4920  -10.6410 N   0  0  0  0  0  0  0  0  0  0  0  0
    0.6480   12.7630   -4.6920 O   0  0  0  0  0  0  0  0  0  0  0  0
    2.3220    9.7300  -11.4120 C   0  0  0  0  0  0  0  0  0  0  0  0
   -0.0670   13.9760   -5.0240 C   0  0  2  0  0  0  0  0  0  0  0  0
    2.5790    8.5850  -11.0210 O   0  0  0  0  0  0  0  0  0  0  0  0
    2.9060   10.2910  -12.6270 C   0  0  0  0  0  0  0  0  0  0  0  0
    0.5610   15.1070   -4.4290 C   0  0  1  0  0  0  0  0  0  0  0  0
   -1.4590   13.8650   -4.4000 C   0  0  1  0  0  0  0  0  0  0  0  0
    0.4380   16.4440   -5.2380 C   0  0  0  0  0  0  0  0  0  0  0  0
   -1.6290   12.5920   -3.7600 O   0  0  0  0  0  0  0  0  0  0  0  0
    3.8920    9.5740  -13.2640 O   0  0  0  0  0  0  0  0  0  0  0  0
    2.6910   11.4690  -13.3330 C   0  0  0  0  0  0  0  0  0  0  0  0
   -0.0540   15.2940   -3.1520 O   0  0  0  0  0  0  0  0  0  0  0  0
   -1.4090   14.9890   -3.3930 C   0  0  2  0  0  0  0  0  0  0  0  0
   -0.6310   17.3180   -4.8180 O   0  0  0  0  0  0  0  0  0  0  0  0
    3.5820   11.4660  -14.4380 C   0  0  0  0  0  0  0  0  0  0  0  0
    4.2880   10.2910  -14.3480 C   0  0  0  0  0  0  0  0  0  0  0  0
   -2.1910   14.9850   -2.1660 N   0  0  0  0  0  0  0  0  0  0  0  0
   -1.5320   18.1970   -5.8540 P   0  0  1  0  0  0  0  0  0  0  0  0
   -1.7850   14.8560   -0.8580 C   0  0  0  0  0  0  0  0  0  0  0  0
   -3.5490   15.1680   -2.1640 C   0  0  0  0  0  0  0  0  0  0  0  0
   -2.3710   17.4230   -6.8110 O   0  0  0  0  0  0  0  0  0  0  0  0
   -2.4470   19.0150   -4.8630 O   0  0  0  0  0  0  0  0  0  0  0  0
   -0.8260   19.5260   -6.3580 O   0  0  0  0  0  0  0  0  0  0  0  0
   -2.9570   15.0130   -0.1310 C   0  0  0  0  0  0  0  0  0  0  0  0
   -0.5530   14.6540   -0.3500 N   0  0  0  0  0  0  0  0  0  0  0  0
   -4.0460   15.1890   -0.9570 N   0  0  0  0  0  0  0  0  0  0  0  0
   -0.0730   19.5440   -7.7130 P   0  0  1  0  0  0  0  0  0  0  0  0
   -2.8550   14.9850    1.2590 C   0  0  0  0  0  0  0  0  0  0  0  0
   -0.5790   14.6240    1.0010 C   0  0  0  0  0  0  0  0  0  0  0  0
    0.9790   18.5460   -7.7310 O   0  0  0  0  0  0  0  0  0  0  0  0
   -1.1920   19.2900   -8.7710 O   0  0  0  0  0  0  0  0  0  0  0  0
    0.3650   21.0190   -8.1870 O   0  0  0  0  0  0  0  0  0  0  0  0
   -3.9670   15.1870    2.0570 N   0  0  0  0  0  0  0  0  0  0  0  0
   -1.6390   14.7760    1.8240 N   0  0  0  0  0  0  0  0  0  0  0  0
   -0.3440   22.1900   -7.8390 C   0  0  0  0  0  0  0  0  0  0  0  0
   -1.7780   22.1940   -8.3480 C   0  0  1  0  0  0  0  0  0  0  0  0
   -2.4170   23.5740   -8.4000 C   0  0  1  0  0  0  0  0  0  0  0  0
   -2.0400   21.6090   -9.6130 O   0  0  0  0  0  0  0  0  0  0  0  0
   -1.5360   24.5330   -8.8910 O   0  0  0  0  0  0  0  0  0  0  0  0
   -3.3980   21.9850   -9.8280 C   0  0  2  0  0  0  0  0  0  0  0  0
   -3.6380   23.3610   -9.2920 C   0  0  2  0  0  0  0  0  0  0  0  0
   -4.1940   21.2210   -8.9820 O   0  0  0  0  0  0  0  0  0  0  0  0
   -3.9100   24.3300  -10.2930 O   0  0  0  0  0  0  0  0  0  0  0  0
  1  2  1  0
  3  2  1  6
  3  4  1  0
  3  5  1  0
  4  6  1  0
  5  7  1  0
  5  8  1  0
  6  9  1  0
  7 10  2  0
  8 11  2  0
 10 11  1  0
 11 12  1  0
  9 13  1  0
 12 14  1  0
 15 13  1  1
 14 16  2  0
 14 17  1  0
 15 18  1  0
 15 19  1  0
 18 20  1  6
 19 21  1  1
 17 22  1  0
 17 23  2  0
 18 24  1  0
 19 25  1  0
 24 25  1  0
 20 26  1  0
 23 27  1  0
 22 28  1  0
 27 28  2  0
 25 29  1  1
 26 30  1  0
 29 31  1  0
 29 32  1  0
 30 33  2  0
 30 34  1  1
 30 35  1  0
 31 36  2  0
 31 37  1  0
 32 38  2  0
 36 38  1  0
 35 39  1  0
 36 40  1  0
 37 41  2  0
 39 42  2  0
 39 43  1  6
 39 44  1  0
 40 45  1  0
 40 46  2  0
 41 46  1  0
 44 47  1  0
 48 47  1  6
 48 49  1  0
 48 50  1  0
 49 51  1  6
 50 52  1  0
 49 53  1  0
 52 53  1  0
 52 54  1  1
 53 55  1  6
M  END
