
     RDKit          3D

 36 39  0  0  0  0  0  0  0  0999 V2000
   -2.1550   18.2550   -6.5220 P   0  0  0  0  0  0  0  0  0  0  0  0
   -0.4140   19.8850   -8.3050 P   0  0  0  0  0  0  0  0  0  0  0  0
    0.1050   17.1810   -5.5140 C   0  0  0  0  0  0  0  0  0  0  0  0
   -1.1530   17.0540   -6.2090 O   0  0  0  0  0  0  0  0  0  0  0  0
    0.2780   15.9250   -4.6990 C   0  0  1  0  0  0  0  0  0  0  0  0
   -0.3790   16.0680   -3.4180 O   0  0  0  0  0  0  0  0  0  0  0  0
   -0.2940   14.6440   -5.3410 C   0  0  1  0  0  0  0  0  0  0  0  0
    0.7250   13.6480   -5.3710 O   0  0  0  0  0  0  0  0  0  0  0  0
   -1.4780   14.2920   -4.4230 C   0  0  1  0  0  0  0  0  0  0  0  0
   -1.7760   12.9030   -4.3640 O   0  0  0  0  0  0  0  0  0  0  0  0
   -0.9470   14.8180   -3.0950 C   0  0  2  0  0  0  0  0  0  0  0  0
   -3.9950   22.4670  -10.7360 C   0  0  2  0  0  0  0  0  0  0  0  0
   -1.5560   15.2920    1.9980 N   0  0  0  0  0  0  0  0  0  0  0  0
   -2.7620   18.6740   -5.2390 O   0  0  0  0  0  0  0  0  0  0  0  0
   -0.2650   18.6650   -9.2740 O   0  0  0  0  0  0  0  0  0  0  0  0
   -4.4710   23.2450  -11.7940 O   0  0  0  0  0  0  0  0  0  0  0  0
   -0.4690   15.1030    1.2370 C   0  0  0  0  0  0  0  0  0  0  0  0
   -5.1040   22.2040   -9.7300 C   0  0  2  0  0  0  0  0  0  0  0  0
   -3.1480   17.8940   -7.5740 O   0  0  0  0  0  0  0  0  0  0  0  0
    0.8150   20.6670   -8.0230 O   0  0  0  0  0  0  0  0  0  0  0  0
   -5.8710   23.3820   -9.4940 O   0  0  0  0  0  0  0  0  0  0  0  0
   -4.2860   21.8300   -8.4930 C   0  0  2  0  0  0  0  0  0  0  0  0
   -0.3860   14.9920   -0.0930 N   0  0  0  0  0  0  0  0  0  0  0  0
   -1.1170   19.3690   -6.9770 O   0  0  0  0  0  0  0  0  0  0  0  0
   -4.9950   22.0280   -7.2780 O   0  0  0  0  0  0  0  0  0  0  0  0
   -1.6030   15.0690   -0.6640 C   0  0  0  0  0  0  0  0  0  0  0  0
   -3.0710   22.7530   -8.6090 C   0  0  2  0  0  0  0  0  0  0  0  0
   -2.9970   23.1630   -9.9950 O   0  0  0  0  0  0  0  0  0  0  0  0
   -2.8150   15.2480   -0.0100 C   0  0  0  0  0  0  0  0  0  0  0  0
   -1.7500   22.1560   -8.2000 C   0  0  0  0  0  0  0  0  0  0  0  0
   -1.5390   20.8940   -8.8720 O   0  0  0  0  0  0  0  0  0  0  0  0
   -2.7660   15.3970    1.3980 C   0  0  0  0  0  0  0  0  0  0  0  0
   -3.8220   15.7230    2.1600 N   0  0  0  0  0  0  0  0  0  0  0  0
   -3.8650   15.2530   -0.9180 N   0  0  0  0  0  0  0  0  0  0  0  0
   -3.2750   15.0930   -2.0770 C   0  0  0  0  0  0  0  0  0  0  0  0
   -1.9090   14.9780   -2.0010 N   0  0  0  0  0  0  0  0  0  0  0  0
  1  4  1  0
  1 14  2  0
  1 19  1  0
  1 24  1  0
  4  3  1  0
 24  2  1  0
  2 15  2  0
  2 20  1  0
  2 31  1  0
 31 30  1  0
  5  3  1  6
  5  6  1  0
  5  7  1  0
  6 11  1  0
  7  8  1  1
  7  9  1  0
 11  9  1  0
 11 36  1  1
  9 10  1  1
 36 26  1  0
 36 35  1  0
 12 16  1  6
 12 18  1  0
 12 28  1  0
 18 21  1  1
 18 22  1  0
 28 27  1  0
 13 17  2  0
 13 32  1  0
 17 23  1  0
 32 29  2  0
 32 33  1  0
 23 26  2  0
 22 25  1  1
 22 27  1  0
 27 30  1  6
 26 29  1  0
 29 34  1  0
 34 35  2  0
M  END
