mArh-x0727_0_A-mArh-x0926_0_A
     RDKit          3D

 23 24  0  0  0  0  0  0  0  0999 V2000
    0.1720   11.4710   -5.4930 N   0  0  0  0  0  0  0  0  0  0  0  0
    0.9250   12.3680   -4.6050 C   0  0  1  0  0  0  0  0  0  0  0  0
    0.5360   13.8140   -4.8700 C   0  0  0  0  0  0  0  0  0  0  0  0
    0.7460   11.1570   -6.7060 C   0  0  0  0  0  0  0  0  0  0  0  0
    1.6890   11.7740   -7.1270 O   0  0  0  0  0  0  0  0  0  0  0  0
    0.6710   11.9830   -3.1310 C   0  0  0  0  0  0  0  0  0  0  0  0
    0.1250    9.9740   -7.4460 C   0  0  0  0  0  0  0  0  0  0  0  0
    0.2030   10.9050   -2.7670 O   0  0  0  0  0  0  0  0  0  0  0  0
    1.0520   12.9970   -2.3000 O   0  0  0  0  0  0  0  0  0  0  0  0
   -1.1880   10.3630   -8.1310 C   0  0  0  0  0  0  0  0  0  0  0  0
   -0.2070    8.7950   -6.5180 C   0  0  0  0  0  0  0  0  0  0  0  0
    0.1350   13.4150   -1.2600 C   0  0  0  0  0  0  0  0  0  0  0  0
   -2.0730    9.1480   -7.8940 C   0  0  0  0  0  0  0  0  0  0  0  0
   -1.6920    8.5220   -6.6660 C   0  0  0  0  0  0  0  0  0  0  0  0
   -0.2590   14.8790   -1.3950 C   0  0  0  0  0  0  0  0  0  0  0  0
   -1.0520   15.1640   -0.1190 C   0  0  0  0  0  0  0  0  0  0  0  0
   -2.5680   14.8830   -0.2200 C   0  0  2  0  0  0  0  0  0  0  0  0
   -3.1650   15.5960   -1.3590 N   0  0  0  0  0  0  0  0  0  0  0  0
   -3.3510   15.1640    1.0310 C   0  0  0  0  0  0  0  0  0  0  0  0
   -4.6750   15.3340    0.9810 C   0  0  0  0  0  0  0  0  0  0  0  0
   -4.5660   15.3970   -1.4530 N   0  0  0  0  0  0  0  0  0  0  0  0
   -5.3660   15.2480   -0.3360 C   0  0  0  0  0  0  0  0  0  0  0  0
   -6.5760   15.0500   -0.4130 O   0  0  0  0  0  0  0  0  0  0  0  0
  1  2  1  0
  2  3  1  1
  1  4  1  0
  4  5  2  0
  2  6  1  0
  4  7  1  0
  6  8  2  0
  6  9  1  0
  7 10  1  0
  7 11  1  0
  9 12  1  0
 10 13  1  0
 11 14  1  0
 13 14  1  0
 12 15  1  0
 15 16  1  0
 17 16  1  1
 17 18  1  0
 17 19  1  0
 19 20  2  0
 18 21  1  0
 20 22  1  0
 21 22  1  0
 22 23  2  0
M  END
